
     RDKit          3D

 42 45  0  0  0  0  0  0  0  0999 V2000
    5.1640   -3.2592   -0.6092 O   0  0  0  0  0  0  0  0  0  0  0  0
    5.2519   -2.1309   -1.0621 C   0  0  0  0  0  0  0  0  0  0  0  0
    6.0239   -1.8728   -2.1335 O   0  0  0  0  0  0  0  0  0  0  0  0
    4.5928   -0.9012   -0.5108 C   0  0  0  0  0  0  0  0  0  0  0  0
    5.5354   -0.1796    0.4456 C   0  0  0  0  0  0  0  0  0  0  0  0
    4.9725    1.1481    0.9625 C   0  0  0  0  0  0  0  0  0  0  0  0
    3.8214    0.9844    1.8549 N   0  0  0  0  0  0  0  0  0  0  0  0
    2.5432    1.0769    1.3220 C   0  0  0  0  0  0  0  0  0  0  0  0
    2.3012    1.2691    0.1393 O   0  0  0  0  0  0  0  0  0  0  0  0
    1.5124    0.8858    2.3836 C   0  0  0  0  0  0  0  0  0  0  0  0
    0.1745    0.8968    2.3048 C   0  0  0  0  0  0  0  0  0  0  0  0
   -0.6135    1.1465    1.1502 C   0  0  0  0  0  0  0  0  0  0  0  0
   -0.4825    2.0535    0.1100 C   0  0  0  0  0  0  0  0  0  0  0  0
   -1.5882    1.8853   -0.7587 C   0  0  0  0  0  0  0  0  0  0  0  0
   -2.3879    0.8966   -0.2153 C   0  0  0  0  0  0  0  0  0  0  0  0
   -3.6317    0.3430   -0.6878 C   0  0  0  0  0  0  0  0  0  0  0  0
   -4.2791   -0.5861   -0.0169 N   0  0  0  0  0  0  0  0  0  0  0  0
   -5.4358   -0.9409   -0.6882 C   0  0  0  0  0  0  0  0  0  0  0  0
   -6.3737   -1.9049   -0.2663 C   0  0  0  0  0  0  0  0  0  0  0  0
   -7.5047   -2.1643   -1.0473 C   0  0  0  0  0  0  0  0  0  0  0  0
   -7.7106   -1.4762   -2.2389 C   0  0  0  0  0  0  0  0  0  0  0  0
   -6.7953   -0.5151   -2.6795 C   0  0  0  0  0  0  0  0  0  0  0  0
   -5.6630   -0.2633   -1.8868 C   0  0  0  0  0  0  0  0  0  0  0  0
   -4.3730    0.8433   -2.1540 S   0  0  0  0  0  0  0  0  0  0  0  0
   -1.7957    0.4733    0.9472 O   0  0  0  0  0  0  0  0  0  0  0  0
    2.3070    0.5704    3.8915 S   0  0  0  0  0  0  0  0  0  0  0  0
    3.9146    0.7231    3.2054 C   0  0  0  0  0  0  0  0  0  0  0  0
    5.2896    0.5674    4.1372 S   0  0  0  0  0  0  0  0  0  0  0  0
    6.3894   -2.7485   -2.3805 H   0  0  0  0  0  0  0  0  0  0  0  0
    4.2927   -0.2563   -1.3444 H   0  0  0  0  0  0  0  0  0  0  0  0
    3.6741   -1.2176   -0.0054 H   0  0  0  0  0  0  0  0  0  0  0  0
    5.7839   -0.8445    1.2811 H   0  0  0  0  0  0  0  0  0  0  0  0
    6.4809    0.0281   -0.0716 H   0  0  0  0  0  0  0  0  0  0  0  0
    4.6903    1.7834    0.1146 H   0  0  0  0  0  0  0  0  0  0  0  0
    5.7613    1.6844    1.5010 H   0  0  0  0  0  0  0  0  0  0  0  0
   -0.4052    0.6567    3.1944 H   0  0  0  0  0  0  0  0  0  0  0  0
    0.3235    2.7635   -0.0161 H   0  0  0  0  0  0  0  0  0  0  0  0
   -1.7756    2.4333   -1.6716 H   0  0  0  0  0  0  0  0  0  0  0  0
   -6.2078   -2.4391    0.6641 H   0  0  0  0  0  0  0  0  0  0  0  0
   -8.2253   -2.9092   -0.7177 H   0  0  0  0  0  0  0  0  0  0  0  0
   -8.5947   -1.6878   -2.8370 H   0  0  0  0  0  0  0  0  0  0  0  0
   -6.9573    0.0207   -3.6098 H   0  0  0  0  0  0  0  0  0  0  0  0
  1  2  2  0
  2  3  1  0
  2  4  1  0
  4  5  1  0
  5  6  1  0
  6  7  1  0
  7  8  1  0
  8  9  2  0
  8 10  1  0
 10 11  2  3
 11 12  1  0
 12 13  2  0
 13 14  1  0
 14 15  2  0
 15 16  1  0
 16 17  2  0
 17 18  1  0
 18 19  2  0
 19 20  1  0
 20 21  2  0
 21 22  1  0
 22 23  2  0
 23 24  1  0
 15 25  1  0
 10 26  1  0
 26 27  1  0
 27 28  2  0
 27  7  1  0
 25 12  1  0
 24 16  1  0
 23 18  1  0
  3 29  1  0
  4 30  1  0
  4 31  1  0
  5 32  1  0
  5 33  1  0
  6 34  1  0
  6 35  1  0
 11 36  1  0
 13 37  1  0
 14 38  1  0
 19 39  1  0
 20 40  1  0
 21 41  1  0
 22 42  1  0
M  END
$$$$
