
     RDKit          3D

 39 41  0  0  0  0  0  0  0  0999 V2000
   -8.2575    1.5845   -0.6786 C   0  0  0  0  0  0  0  0  0  0  0  0
   -6.9371    1.8778    0.0109 C   0  0  0  0  0  0  0  0  0  0  0  0
   -5.9361    1.0567   -0.5885 O   0  0  0  0  0  0  0  0  0  0  0  0
   -4.6597    1.1684   -0.1059 C   0  0  0  0  0  0  0  0  0  0  0  0
   -4.2486    2.0146    0.9210 C   0  0  0  0  0  0  0  0  0  0  0  0
   -2.9075    2.0409    1.3304 C   0  0  0  0  0  0  0  0  0  0  0  0
   -1.9629    1.2068    0.7016 C   0  0  0  0  0  0  0  0  0  0  0  0
   -0.6131    1.1301    1.0027 N   0  0  0  0  0  0  0  0  0  0  0  0
   -0.0377    0.2499    0.2197 C   0  0  0  0  0  0  0  0  0  0  0  0
    1.3060   -0.0029    0.3298 N   0  0  0  0  0  0  0  0  0  0  0  0
    2.0533   -0.8904   -0.4128 C   0  0  0  0  0  0  0  0  0  0  0  0
    1.6578   -1.6215   -1.3121 O   0  0  0  0  0  0  0  0  0  0  0  0
    3.5063   -0.8763    0.0152 C   0  0  0  0  0  0  0  0  0  0  0  0
    4.3323   -1.8562   -0.8059 C   0  0  0  0  0  0  0  0  0  0  0  0
    5.7271   -1.8442   -0.3968 N   0  0  0  0  0  0  0  0  0  0  0  0
    6.2720   -2.6407    0.5753 C   0  0  0  0  0  0  0  0  0  0  0  0
    7.6093   -2.3254    0.6790 C   0  0  0  0  0  0  0  0  0  0  0  0
    7.8779   -1.3071   -0.2666 C   0  0  0  0  0  0  0  0  0  0  0  0
    6.6966   -1.0301   -0.9198 C   0  0  0  0  0  0  0  0  0  0  0  0
   -1.0446   -0.5299   -0.9051 S   0  0  0  0  0  0  0  0  0  0  0  0
   -2.3932    0.3661   -0.3248 C   0  0  0  0  0  0  0  0  0  0  0  0
   -3.7334    0.3324   -0.7418 C   0  0  0  0  0  0  0  0  0  0  0  0
   -9.0623    2.1909   -0.2538 H   0  0  0  0  0  0  0  0  0  0  0  0
   -8.5196    0.5263   -0.5753 H   0  0  0  0  0  0  0  0  0  0  0  0
   -8.1866    1.7921   -1.7514 H   0  0  0  0  0  0  0  0  0  0  0  0
   -7.0312    1.6449    1.0778 H   0  0  0  0  0  0  0  0  0  0  0  0
   -6.6907    2.9373   -0.1239 H   0  0  0  0  0  0  0  0  0  0  0  0
   -4.9431    2.6735    1.4323 H   0  0  0  0  0  0  0  0  0  0  0  0
   -2.5888    2.7011    2.1311 H   0  0  0  0  0  0  0  0  0  0  0  0
    1.7495    0.5502    1.0507 H   0  0  0  0  0  0  0  0  0  0  0  0
    3.8958    0.1420   -0.1048 H   0  0  0  0  0  0  0  0  0  0  0  0
    3.5591   -1.1346    1.0799 H   0  0  0  0  0  0  0  0  0  0  0  0
    3.9642   -2.8830   -0.6934 H   0  0  0  0  0  0  0  0  0  0  0  0
    4.2996   -1.6109   -1.8742 H   0  0  0  0  0  0  0  0  0  0  0  0
    5.6735   -3.3655    1.1120 H   0  0  0  0  0  0  0  0  0  0  0  0
    8.3159   -2.7833    1.3589 H   0  0  0  0  0  0  0  0  0  0  0  0
    8.8311   -0.8302   -0.4547 H   0  0  0  0  0  0  0  0  0  0  0  0
    6.4752   -0.3248   -1.7103 H   0  0  0  0  0  0  0  0  0  0  0  0
   -4.0488   -0.3296   -1.5432 H   0  0  0  0  0  0  0  0  0  0  0  0
  1  2  1  0
  2  3  1  0
  3  4  1  0
  4  5  2  0
  5  6  1  0
  6  7  2  0
  7  8  1  0
  8  9  2  0
  9 10  1  0
 10 11  1  0
 11 12  2  0
 11 13  1  0
 13 14  1  0
 14 15  1  0
 15 16  1  0
 16 17  2  0
 17 18  1  0
 18 19  2  0
  9 20  1  0
 20 21  1  0
 21 22  2  0
 22  4  1  0
 21  7  1  0
 19 15  1  0
  1 23  1  0
  1 24  1  0
  1 25  1  0
  2 26  1  0
  2 27  1  0
  5 28  1  0
  6 29  1  0
 10 30  1  0
 13 31  1  0
 13 32  1  0
 14 33  1  0
 14 34  1  0
 16 35  1  0
 17 36  1  0
 18 37  1  0
 19 38  1  0
 22 39  1  0
M  END
$$$$
