
     RDKit          3D

 53 56  0  0  0  0  0  0  0  0999 V2000
    5.5674    0.4010    1.0902 C   0  0  0  0  0  0  0  0  0  0  0  0
    5.0951   -0.7640    0.4268 O   0  0  0  0  0  0  0  0  0  0  0  0
    4.0170   -0.4962   -0.4741 C   0  0  0  0  0  0  0  0  0  0  0  0
    2.6753   -0.4805    0.2537 C   0  0  0  0  0  0  0  0  0  0  0  0
    1.5593   -0.1906   -0.6364 N   0  0  0  0  0  0  0  0  0  0  0  0
    0.8483   -1.1372   -1.3409 C   0  0  0  0  0  0  0  0  0  0  0  0
    1.1565   -2.5934   -1.3276 C   0  0  0  0  0  0  0  0  0  0  0  0
   -0.1639   -0.4774   -2.0015 C   0  0  0  0  0  0  0  0  0  0  0  0
   -0.1134    0.9009   -1.6506 C   0  0  0  0  0  0  0  0  0  0  0  0
   -1.1115    1.8935   -2.0676 C   0  0  0  0  0  0  0  0  0  0  0  0
   -1.6848    1.7711   -3.1534 O   0  0  0  0  0  0  0  0  0  0  0  0
   -1.5259    3.0031   -1.1167 C   0  0  0  0  0  0  0  0  0  0  0  0
   -2.9539    2.4803   -0.1111 S   0  0  0  0  0  0  0  0  0  0  0  0
   -2.1130    1.4175    1.0220 C   0  0  0  0  0  0  0  0  0  0  0  0
   -1.2604    1.9758    1.9053 N   0  0  0  0  0  0  0  0  0  0  0  0
   -0.6045    1.1704    2.7610 C   0  0  0  0  0  0  0  0  0  0  0  0
    0.3421    1.8280    3.7180 C   0  0  0  0  0  0  0  0  0  0  0  0
   -0.6734   -0.1658    2.8037 N   0  0  0  0  0  0  0  0  0  0  0  0
   -1.5314   -0.6804    1.9070 C   0  0  0  0  0  0  0  0  0  0  0  0
   -1.7561   -2.3836    1.8034 S   0  0  0  0  0  0  0  0  0  0  0  0
   -2.8558   -2.1796    0.5634 C   0  0  0  0  0  0  0  0  0  0  0  0
   -3.0782   -0.8743    0.2185 C   0  0  0  0  0  0  0  0  0  0  0  0
   -2.3016    0.0343    0.9898 C   0  0  0  0  0  0  0  0  0  0  0  0
   -4.0551   -0.7824   -0.8982 C   0  0  0  0  0  0  0  0  0  0  0  0
   -4.6457   -2.2265   -0.9480 C   0  0  0  0  0  0  0  0  0  0  0  0
   -3.6189   -3.1608   -0.2407 C   0  0  0  0  0  0  0  0  0  0  0  0
    1.0336    1.0696   -0.8795 C   0  0  0  0  0  0  0  0  0  0  0  0
    1.6752    2.3128   -0.3599 C   0  0  0  0  0  0  0  0  0  0  0  0
    6.3915    0.1103    1.7473 H   0  0  0  0  0  0  0  0  0  0  0  0
    5.9432    1.1280    0.3641 H   0  0  0  0  0  0  0  0  0  0  0  0
    4.7805    0.8515    1.7009 H   0  0  0  0  0  0  0  0  0  0  0  0
    4.2003    0.4346   -1.0238 H   0  0  0  0  0  0  0  0  0  0  0  0
    4.0218   -1.3009   -1.2170 H   0  0  0  0  0  0  0  0  0  0  0  0
    2.6625    0.2560    1.0639 H   0  0  0  0  0  0  0  0  0  0  0  0
    2.4910   -1.4444    0.7410 H   0  0  0  0  0  0  0  0  0  0  0  0
    0.4735   -3.1405   -1.9860 H   0  0  0  0  0  0  0  0  0  0  0  0
    1.0463   -3.0052   -0.3197 H   0  0  0  0  0  0  0  0  0  0  0  0
    2.1759   -2.7812   -1.6770 H   0  0  0  0  0  0  0  0  0  0  0  0
   -0.9128   -0.9440   -2.6307 H   0  0  0  0  0  0  0  0  0  0  0  0
   -0.7120    3.3490   -0.4818 H   0  0  0  0  0  0  0  0  0  0  0  0
   -1.8331    3.8617   -1.7236 H   0  0  0  0  0  0  0  0  0  0  0  0
    1.3384    1.8834    3.2693 H   0  0  0  0  0  0  0  0  0  0  0  0
    0.0064    2.8413    3.9587 H   0  0  0  0  0  0  0  0  0  0  0  0
    0.4057    1.2581    4.6501 H   0  0  0  0  0  0  0  0  0  0  0  0
   -4.8440   -0.0481   -0.7153 H   0  0  0  0  0  0  0  0  0  0  0  0
   -3.5454   -0.5460   -1.8377 H   0  0  0  0  0  0  0  0  0  0  0  0
   -5.5896   -2.2441   -0.3870 H   0  0  0  0  0  0  0  0  0  0  0  0
   -4.8664   -2.5495   -1.9702 H   0  0  0  0  0  0  0  0  0  0  0  0
   -4.1234   -3.9194    0.3637 H   0  0  0  0  0  0  0  0  0  0  0  0
   -2.9713   -3.6468   -0.9777 H   0  0  0  0  0  0  0  0  0  0  0  0
    2.7641    2.2221   -0.3139 H   0  0  0  0  0  0  0  0  0  0  0  0
    1.4661    3.1621   -1.0179 H   0  0  0  0  0  0  0  0  0  0  0  0
    1.3090    2.5467    0.6431 H   0  0  0  0  0  0  0  0  0  0  0  0
  1  2  1  0
  2  3  1  0
  3  4  1  0
  4  5  1  0
  5  6  1  0
  6  7  1  0
  6  8  2  0
  8  9  1  0
  9 10  1  0
 10 11  2  0
 10 12  1  0
 12 13  1  0
 13 14  1  0
 14 15  2  0
 15 16  1  0
 16 17  1  0
 16 18  2  0
 18 19  1  0
 19 20  1  0
 20 21  1  0
 21 22  2  0
 22 23  1  0
 22 24  1  0
 24 25  1  0
 25 26  1  0
  9 27  2  0
 27 28  1  0
 27  5  1  0
 23 14  1  0
 23 19  2  0
 26 21  1  0
  1 29  1  0
  1 30  1  0
  1 31  1  0
  3 32  1  0
  3 33  1  0
  4 34  1  0
  4 35  1  0
  7 36  1  0
  7 37  1  0
  7 38  1  0
  8 39  1  0
 12 40  1  0
 12 41  1  0
 17 42  1  0
 17 43  1  0
 17 44  1  0
 24 45  1  0
 24 46  1  0
 25 47  1  0
 25 48  1  0
 26 49  1  0
 26 50  1  0
 28 51  1  0
 28 52  1  0
 28 53  1  0
M  END
$$$$
