
     RDKit          3D

 47 50  0  0  0  0  0  0  0  0999 V2000
    0.5638   -2.0947   -0.0597 C   0  0  0  0  0  0  0  0  0  0  0  0
   -0.2367   -1.5864   -1.2758 C   0  0  0  0  0  0  0  0  0  0  0  0
   -0.6184   -2.8162   -2.1253 C   0  0  0  0  0  0  0  0  0  0  0  0
   -1.5465   -0.8843   -0.7972 C   0  0  0  0  0  0  0  0  0  0  0  0
   -1.2976    0.5296   -0.3862 C   0  0  0  0  0  0  0  0  0  0  0  0
   -0.1544    1.2444   -0.7000 C   0  0  0  0  0  0  0  0  0  0  0  0
   -0.3245    2.4836   -0.0769 C   0  0  0  0  0  0  0  0  0  0  0  0
   -1.4708    2.5583    0.5931 N   0  0  0  0  0  0  0  0  0  0  0  0
   -2.1122    1.3754    0.3589 N   0  0  0  0  0  0  0  0  0  0  0  0
   -3.4355    1.2009    0.8774 C   0  0  0  0  0  0  0  0  0  0  0  0
   -3.9302    2.1528    1.7932 C   0  0  0  0  0  0  0  0  0  0  0  0
   -5.2133    2.0305    2.3326 C   0  0  0  0  0  0  0  0  0  0  0  0
   -6.0122    0.9624    1.9542 C   0  0  0  0  0  0  0  0  0  0  0  0
   -7.2432    0.8406    2.4667 F   0  0  0  0  0  0  0  0  0  0  0  0
   -5.5539    0.0209    1.0418 C   0  0  0  0  0  0  0  0  0  0  0  0
   -4.2683    0.1395    0.4991 C   0  0  0  0  0  0  0  0  0  0  0  0
    0.9868    0.7250   -1.5008 C   0  0  0  0  0  0  0  0  0  0  0  0
    2.1293    0.6130   -0.6231 N   0  0  0  0  0  0  0  0  0  0  0  0
    3.4222    0.5282   -1.0885 C   0  0  0  0  0  0  0  0  0  0  0  0
    3.7355    0.6239   -2.2688 O   0  0  0  0  0  0  0  0  0  0  0  0
    4.4408    0.2962   -0.0268 C   0  0  0  0  0  0  0  0  0  0  0  0
    5.7863    0.2277   -0.3533 C   0  0  0  0  0  0  0  0  0  0  0  0
    6.7454    0.0113    0.5840 N   0  0  0  0  0  0  0  0  0  0  0  0
    6.2950   -0.1308    1.8525 C   0  0  0  0  0  0  0  0  0  0  0  0
    4.9481   -0.0626    2.1778 C   0  0  0  0  0  0  0  0  0  0  0  0
    3.9836    0.1506    1.2525 N   0  0  0  0  0  0  0  0  0  0  0  0
    0.6192   -0.6254   -2.1618 C   0  0  0  0  0  0  0  0  0  0  0  0
    0.0247   -2.8985    0.4558 H   0  0  0  0  0  0  0  0  0  0  0  0
    0.7384   -1.3119    0.6824 H   0  0  0  0  0  0  0  0  0  0  0  0
    1.5361   -2.4957   -0.3681 H   0  0  0  0  0  0  0  0  0  0  0  0
   -1.1842   -2.5250   -3.0172 H   0  0  0  0  0  0  0  0  0  0  0  0
   -1.2386   -3.5151   -1.5537 H   0  0  0  0  0  0  0  0  0  0  0  0
    0.2743   -3.3567   -2.4604 H   0  0  0  0  0  0  0  0  0  0  0  0
   -2.2685   -0.8732   -1.6240 H   0  0  0  0  0  0  0  0  0  0  0  0
   -1.9763   -1.4608    0.0293 H   0  0  0  0  0  0  0  0  0  0  0  0
    0.3495    3.3312   -0.0630 H   0  0  0  0  0  0  0  0  0  0  0  0
   -3.3191    2.9993    2.1055 H   0  0  0  0  0  0  0  0  0  0  0  0
   -5.5874    2.7622    3.0411 H   0  0  0  0  0  0  0  0  0  0  0  0
   -6.2041   -0.7982    0.7493 H   0  0  0  0  0  0  0  0  0  0  0  0
   -3.9809   -0.5994   -0.2364 H   0  0  0  0  0  0  0  0  0  0  0  0
    1.2445    1.4398   -2.2920 H   0  0  0  0  0  0  0  0  0  0  0  0
    1.9953    0.4631    0.3741 H   0  0  0  0  0  0  0  0  0  0  0  0
    6.1357    0.3446   -1.3738 H   0  0  0  0  0  0  0  0  0  0  0  0
    7.0530   -0.3027    2.6093 H   0  0  0  0  0  0  0  0  0  0  0  0
    4.6098   -0.1789    3.2021 H   0  0  0  0  0  0  0  0  0  0  0  0
    0.0347   -0.3992   -3.0660 H   0  0  0  0  0  0  0  0  0  0  0  0
    1.5248   -1.1397   -2.5077 H   0  0  0  0  0  0  0  0  0  0  0  0
  1  2  1  0
  2  3  1  0
  2  4  1  0
  4  5  1  0
  5  6  2  0
  6  7  1  0
  7  8  2  0
  8  9  1  0
  9 10  1  0
 10 11  2  0
 11 12  1  0
 12 13  2  0
 13 14  1  0
 13 15  1  0
 15 16  2  0
  6 17  1  0
 17 18  1  0
 18 19  1  0
 19 20  2  0
 19 21  1  0
 21 22  2  0
 22 23  1  0
 23 24  2  0
 24 25  1  0
 25 26  2  0
 17 27  1  0
 27  2  1  0
  9  5  1  0
 16 10  1  0
 26 21  1  0
  1 28  1  0
  1 29  1  0
  1 30  1  0
  3 31  1  0
  3 32  1  0
  3 33  1  0
  4 34  1  0
  4 35  1  0
  7 36  1  0
 11 37  1  0
 12 38  1  0
 15 39  1  0
 16 40  1  0
 17 41  1  0
 18 42  1  0
 22 43  1  0
 24 44  1  0
 25 45  1  0
 27 46  1  0
 27 47  1  0
M  END
$$$$
