
     RDKit          3D

 31 33  0  0  0  0  0  0  0  0999 V2000
   -2.1850    3.0854   -1.0419 O   0  0  0  0  0  0  0  0  0  0  0  0
   -2.9147    2.2874   -0.4798 C   0  0  0  0  0  0  0  0  0  0  0  0
   -4.2473    2.3124   -0.6580 O   0  0  0  0  0  0  0  0  0  0  0  0
   -2.4689    1.2212    0.4482 C   0  0  0  0  0  0  0  0  0  0  0  0
   -3.3928    0.5645    1.2759 C   0  0  0  0  0  0  0  0  0  0  0  0
   -2.9630   -0.4147    2.1735 C   0  0  0  0  0  0  0  0  0  0  0  0
   -1.6110   -0.7418    2.2538 C   0  0  0  0  0  0  0  0  0  0  0  0
   -0.6852   -0.0967    1.4323 C   0  0  0  0  0  0  0  0  0  0  0  0
   -1.1049    0.8874    0.5307 C   0  0  0  0  0  0  0  0  0  0  0  0
   -0.1284    1.4550   -0.3539 N   0  0  0  0  0  0  0  0  0  0  0  0
    0.2461    0.5643   -1.7493 S   0  0  0  0  0  6  0  0  0  0  0  0
   -0.8987   -0.2584   -2.0877 O   0  0  0  0  0  0  0  0  0  0  0  0
    0.8096    1.4757   -2.7202 O   0  0  0  0  0  0  0  0  0  0  0  0
    1.5414   -0.5006   -1.2339 C   0  0  0  0  0  0  0  0  0  0  0  0
    1.4271   -1.8996   -1.3989 C   0  0  0  0  0  0  0  0  0  0  0  0
    2.4362   -2.8053   -0.9994 C   0  0  0  0  0  0  0  0  0  0  0  0
    3.6393   -2.3924   -0.4031 C   0  0  0  0  0  0  0  0  0  0  0  0
    3.8023   -0.9983   -0.2137 C   0  0  0  0  0  0  0  0  0  0  0  0
    4.8716   -0.4093    0.3414 N   0  0  0  0  0  0  0  0  0  0  0  0
    4.5719    1.2226    0.3243 S   0  0  0  0  0  0  0  0  0  0  0  0
    3.0647    1.2509   -0.3643 N   0  0  0  0  0  0  0  0  0  0  0  0
    2.7291   -0.0205   -0.6377 C   0  0  0  0  0  0  0  0  0  0  0  0
   -4.3891    3.0303   -1.3107 H   0  0  0  0  0  0  0  0  0  0  0  0
   -4.4513    0.8114    1.2309 H   0  0  0  0  0  0  0  0  0  0  0  0
   -3.6844   -0.9197    2.8120 H   0  0  0  0  0  0  0  0  0  0  0  0
   -1.2767   -1.5015    2.9566 H   0  0  0  0  0  0  0  0  0  0  0  0
    0.3659   -0.3581    1.5148 H   0  0  0  0  0  0  0  0  0  0  0  0
   -0.3100    2.4267   -0.6424 H   0  0  0  0  0  0  0  0  0  0  0  0
    0.5250   -2.3100   -1.8577 H   0  0  0  0  0  0  0  0  0  0  0  0
    2.2748   -3.8716   -1.1643 H   0  0  0  0  0  0  0  0  0  0  0  0
    4.4064   -3.0966   -0.1025 H   0  0  0  0  0  0  0  0  0  0  0  0
  1  2  2  0
  2  3  1  0
  2  4  1  0
  4  5  2  0
  5  6  1  0
  6  7  2  0
  7  8  1  0
  8  9  2  0
  9 10  1  0
 10 11  1  0
 11 12  2  0
 11 13  2  0
 11 14  1  0
 14 15  2  0
 15 16  1  0
 16 17  2  0
 17 18  1  0
 18 19  2  0
 19 20  1  0
 20 21  1  0
 21 22  2  0
  9  4  1  0
 22 14  1  0
 22 18  1  0
  3 23  1  0
  5 24  1  0
  6 25  1  0
  7 26  1  0
  8 27  1  0
 10 28  1  0
 15 29  1  0
 16 30  1  0
 17 31  1  0
M  END
$$$$
