
     RDKit          3D

 46 48  0  0  0  0  0  0  0  0999 V2000
    6.1580   -1.9092    0.0492 C   0  0  0  0  0  0  0  0  0  0  0  0
    5.2227   -1.2223    0.8702 O   0  0  0  0  0  0  0  0  0  0  0  0
    4.0939   -0.7491    0.2605 C   0  0  0  0  0  0  0  0  0  0  0  0
    3.2225   -0.0567    1.0972 C   0  0  0  0  0  0  0  0  0  0  0  0
    2.0305    0.4797    0.6013 C   0  0  0  0  0  0  0  0  0  0  0  0
    1.6764    0.3309   -0.7515 C   0  0  0  0  0  0  0  0  0  0  0  0
    0.3899    0.9703   -1.2685 C   0  0  0  0  0  0  0  0  0  0  0  0
    0.0593    0.8102   -2.7592 C   0  0  0  0  0  0  0  0  0  0  0  0
   -0.7928    0.6326   -0.4337 N   0  0  0  0  0  0  0  0  0  0  0  0
   -1.3051   -0.6479   -0.2103 C   0  0  0  0  0  0  0  0  0  0  0  0
   -0.7107   -1.9012   -0.7644 C   0  0  0  0  0  0  0  0  0  0  0  0
   -2.4130   -0.4946    0.6028 C   0  0  0  0  0  0  0  0  0  0  0  0
   -3.2523   -1.5103    1.1042 C   0  0  0  0  0  0  0  0  0  0  0  0
   -3.1963   -2.9857    0.9174 C   0  0  0  0  0  0  0  0  0  0  0  0
   -4.2697   -0.9968    1.8627 N   0  0  0  0  0  0  0  0  0  0  0  0
   -4.4625    0.4286    2.1255 N   0  0  0  0  0  0  0  0  0  0  0  0
   -3.6503    1.4240    1.6471 C   0  0  0  0  0  0  0  0  0  0  0  0
   -3.9980    2.8252    2.0025 C   0  0  0  0  0  0  0  0  0  0  0  0
   -2.5961    0.9065    0.8635 C   0  0  0  0  0  0  0  0  0  0  0  0
   -1.5805    1.5928    0.2218 C   0  0  0  0  0  0  0  0  0  0  0  0
   -1.2600    3.0500    0.1529 C   0  0  0  0  0  0  0  0  0  0  0  0
    2.5676   -0.3615   -1.5851 C   0  0  0  0  0  0  0  0  0  0  0  0
    3.7612   -0.9001   -1.0840 C   0  0  0  0  0  0  0  0  0  0  0  0
    6.5436   -1.2554   -0.7402 H   0  0  0  0  0  0  0  0  0  0  0  0
    5.7177   -2.8200   -0.3690 H   0  0  0  0  0  0  0  0  0  0  0  0
    7.0044   -2.2067    0.6765 H   0  0  0  0  0  0  0  0  0  0  0  0
    3.4729    0.0756    2.1476 H   0  0  0  0  0  0  0  0  0  0  0  0
    1.3789    1.0151    1.2887 H   0  0  0  0  0  0  0  0  0  0  0  0
    0.5660    2.0437   -1.1388 H   0  0  0  0  0  0  0  0  0  0  0  0
   -0.0677   -0.2365   -3.0538 H   0  0  0  0  0  0  0  0  0  0  0  0
    0.8525    1.2341   -3.3828 H   0  0  0  0  0  0  0  0  0  0  0  0
   -0.8711    1.3334   -3.0088 H   0  0  0  0  0  0  0  0  0  0  0  0
   -1.4641   -2.4602   -1.3271 H   0  0  0  0  0  0  0  0  0  0  0  0
    0.1206   -1.7416   -1.4481 H   0  0  0  0  0  0  0  0  0  0  0  0
   -0.3421   -2.5338    0.0484 H   0  0  0  0  0  0  0  0  0  0  0  0
   -3.3806   -3.2432   -0.1281 H   0  0  0  0  0  0  0  0  0  0  0  0
   -3.9592   -3.4814    1.5212 H   0  0  0  0  0  0  0  0  0  0  0  0
   -2.2256   -3.3744    1.2236 H   0  0  0  0  0  0  0  0  0  0  0  0
   -4.9154    2.8552    2.6006 H   0  0  0  0  0  0  0  0  0  0  0  0
   -4.1729    3.4169    1.0997 H   0  0  0  0  0  0  0  0  0  0  0  0
   -3.2028    3.2814    2.5979 H   0  0  0  0  0  0  0  0  0  0  0  0
   -1.9297    3.6677    0.7501 H   0  0  0  0  0  0  0  0  0  0  0  0
   -0.2511    3.2396    0.5313 H   0  0  0  0  0  0  0  0  0  0  0  0
   -1.3292    3.4097   -0.8803 H   0  0  0  0  0  0  0  0  0  0  0  0
    2.3546   -0.5001   -2.6420 H   0  0  0  0  0  0  0  0  0  0  0  0
    4.4057   -1.4344   -1.7737 H   0  0  0  0  0  0  0  0  0  0  0  0
  1  2  1  0
  2  3  1  0
  3  4  2  0
  4  5  1  0
  5  6  2  0
  6  7  1  0
  7  8  1  0
  7  9  1  0
  9 10  1  0
 10 11  1  0
 10 12  2  0
 12 13  1  0
 13 14  1  0
 13 15  2  0
 15 16  1  0
 16 17  2  0
 17 18  1  0
 17 19  1  0
 19 20  2  0
 20 21  1  0
  6 22  1  0
 22 23  2  0
 23  3  1  0
 20  9  1  0
 19 12  1  0
  1 24  1  0
  1 25  1  0
  1 26  1  0
  4 27  1  0
  5 28  1  0
  7 29  1  0
  8 30  1  0
  8 31  1  0
  8 32  1  0
 11 33  1  0
 11 34  1  0
 11 35  1  0
 14 36  1  0
 14 37  1  0
 14 38  1  0
 18 39  1  0
 18 40  1  0
 18 41  1  0
 21 42  1  0
 21 43  1  0
 21 44  1  0
 22 45  1  0
 23 46  1  0
M  END
$$$$
