
     RDKit          3D

 57 61  0  0  0  0  0  0  0  0999 V2000
   -4.9476    2.0895    4.2591 C   0  0  0  0  0  0  0  0  0  0  0  0
   -4.6132    3.2801    3.6196 C   0  0  0  0  0  0  0  0  0  0  0  0
   -4.0828    3.2552    2.3279 C   0  0  0  0  0  0  0  0  0  0  0  0
   -3.8813    2.0374    1.6511 C   0  0  0  0  0  0  0  0  0  0  0  0
   -3.2985    2.0539    0.2455 C   0  0  0  0  0  0  0  0  0  0  0  0
   -3.8686    1.0395   -0.7426 C   0  0  0  0  0  0  0  0  0  0  0  0
   -5.0290    1.4009   -1.4569 C   0  0  0  0  0  0  0  0  0  0  0  0
   -5.6272    0.5223   -2.3631 C   0  0  0  0  0  0  0  0  0  0  0  0
   -5.0829   -0.7412   -2.5694 C   0  0  0  0  0  0  0  0  0  0  0  0
   -3.9458   -1.1273   -1.8658 C   0  0  0  0  0  0  0  0  0  0  0  0
   -3.3478   -0.2491   -0.9573 C   0  0  0  0  0  0  0  0  0  0  0  0
   -1.8123    1.8863    0.3740 C   0  0  0  0  0  0  0  0  0  0  0  0
   -0.9552    2.7337   -0.2238 N   0  0  0  0  0  0  0  0  0  0  0  0
    0.2979    2.2445    0.1409 O   0  0  0  0  0  0  0  0  0  0  0  0
    0.0776    1.1510    0.9266 C   0  0  0  0  0  0  0  0  0  0  0  0
    1.2874    0.4416    1.4390 C   0  0  0  0  0  0  0  0  0  0  0  0
    1.6225   -0.7935    0.6958 N   0  0  0  0  0  0  0  0  0  0  0  0
    2.6507   -1.5803    1.3912 C   0  0  0  0  0  0  0  0  0  0  0  0
    4.0054   -1.5913    0.6875 C   0  0  0  0  0  0  0  0  0  0  0  0
    3.8742   -2.1703   -0.7306 C   0  0  0  0  0  0  0  0  0  0  0  0
    5.1140   -1.8714   -1.5549 C   0  0  0  0  0  0  0  0  0  0  0  0
    5.4180   -0.5814   -2.0030 C   0  0  0  0  0  0  0  0  0  0  0  0
    6.5753   -0.3826   -2.7424 C   0  0  0  0  0  0  0  0  0  0  0  0
    7.4428   -1.3651   -3.0613 N   0  0  0  0  0  0  0  0  0  0  0  0
    7.1374   -2.6028   -2.6205 C   0  0  0  0  0  0  0  0  0  0  0  0
    6.0055   -2.9011   -1.8756 C   0  0  0  0  0  0  0  0  0  0  0  0
    2.5644   -1.7274   -1.4102 C   0  0  0  0  0  0  0  0  0  0  0  0
    1.9307   -0.5213   -0.7161 C   0  0  0  0  0  0  0  0  0  0  0  0
   -1.1973    0.8934    1.1116 N   0  0  0  0  0  0  0  0  0  0  0  0
   -4.2189    0.8470    2.3174 C   0  0  0  0  0  0  0  0  0  0  0  0
   -4.7490    0.8741    3.6094 C   0  0  0  0  0  0  0  0  0  0  0  0
   -5.3586    2.1076    5.2648 H   0  0  0  0  0  0  0  0  0  0  0  0
   -4.7624    4.2295    4.1272 H   0  0  0  0  0  0  0  0  0  0  0  0
   -3.8229    4.1987    1.8514 H   0  0  0  0  0  0  0  0  0  0  0  0
   -3.4809    3.0491   -0.1874 H   0  0  0  0  0  0  0  0  0  0  0  0
   -5.4816    2.3797   -1.3062 H   0  0  0  0  0  0  0  0  0  0  0  0
   -6.5202    0.8248   -2.9037 H   0  0  0  0  0  0  0  0  0  0  0  0
   -5.5468   -1.4272   -3.2727 H   0  0  0  0  0  0  0  0  0  0  0  0
   -3.5225   -2.1172   -2.0180 H   0  0  0  0  0  0  0  0  0  0  0  0
   -2.4716   -0.6008   -0.4172 H   0  0  0  0  0  0  0  0  0  0  0  0
    1.0715    0.1845    2.4843 H   0  0  0  0  0  0  0  0  0  0  0  0
    2.1462    1.1250    1.4521 H   0  0  0  0  0  0  0  0  0  0  0  0
    2.2837   -2.6124    1.4598 H   0  0  0  0  0  0  0  0  0  0  0  0
    2.7879   -1.2505    2.4286 H   0  0  0  0  0  0  0  0  0  0  0  0
    4.7193   -2.1919    1.2655 H   0  0  0  0  0  0  0  0  0  0  0  0
    4.4102   -0.5706    0.6711 H   0  0  0  0  0  0  0  0  0  0  0  0
    3.8043   -3.2634   -0.6303 H   0  0  0  0  0  0  0  0  0  0  0  0
    4.7758    0.2642   -1.7855 H   0  0  0  0  0  0  0  0  0  0  0  0
    6.8422    0.6053   -3.1072 H   0  0  0  0  0  0  0  0  0  0  0  0
    7.8497   -3.3778   -2.8885 H   0  0  0  0  0  0  0  0  0  0  0  0
    5.8302   -3.9231   -1.5556 H   0  0  0  0  0  0  0  0  0  0  0  0
    2.7097   -1.5131   -2.4758 H   0  0  0  0  0  0  0  0  0  0  0  0
    1.8492   -2.5608   -1.3693 H   0  0  0  0  0  0  0  0  0  0  0  0
    1.0058   -0.2712   -1.2491 H   0  0  0  0  0  0  0  0  0  0  0  0
    2.6002    0.3428   -0.8108 H   0  0  0  0  0  0  0  0  0  0  0  0
   -4.0626   -0.1180    1.8403 H   0  0  0  0  0  0  0  0  0  0  0  0
   -5.0022   -0.0577    4.1085 H   0  0  0  0  0  0  0  0  0  0  0  0
  1  2  2  0
  2  3  1  0
  3  4  2  0
  4  5  1  0
  5  6  1  0
  6  7  2  0
  7  8  1  0
  8  9  2  0
  9 10  1  0
 10 11  2  0
  5 12  1  0
 12 13  2  0
 13 14  1  0
 14 15  1  0
 15 16  1  0
 16 17  1  0
 17 18  1  0
 18 19  1  0
 19 20  1  0
 20 21  1  0
 21 22  2  0
 22 23  1  0
 23 24  2  0
 24 25  1  0
 25 26  2  0
 20 27  1  0
 27 28  1  0
 15 29  2  0
  4 30  1  0
 30 31  2  0
 31  1  1  0
 11  6  1  0
 29 12  1  0
 28 17  1  0
 26 21  1  0
  1 32  1  0
  2 33  1  0
  3 34  1  0
  5 35  1  0
  7 36  1  0
  8 37  1  0
  9 38  1  0
 10 39  1  0
 11 40  1  0
 16 41  1  0
 16 42  1  0
 18 43  1  0
 18 44  1  0
 19 45  1  0
 19 46  1  0
 20 47  1  0
 22 48  1  0
 23 49  1  0
 25 50  1  0
 26 51  1  0
 27 52  1  0
 27 53  1  0
 28 54  1  0
 28 55  1  0
 30 56  1  0
 31 57  1  0
M  END
$$$$
