
     RDKit          3D

 52 55  0  0  0  0  0  0  0  0999 V2000
   -5.8282    2.7698    1.8563 C   0  0  0  0  0  0  0  0  0  0  0  0
   -5.1516    2.5577    0.5115 C   0  0  0  0  0  0  0  0  0  0  0  0
   -3.7844    1.8933    0.6710 C   0  0  0  0  0  0  0  0  0  0  0  0
   -3.1062    1.6879   -0.6848 C   0  0  0  0  0  0  0  0  0  0  0  0
   -1.7921    1.0044   -0.5461 C   0  0  0  0  0  0  0  0  0  0  0  0
   -0.6393    1.6539   -0.5494 N   0  0  0  0  0  0  0  0  0  0  0  0
    0.3761    0.7483   -0.4094 N   0  0  0  0  0  0  0  0  0  0  0  0
   -0.1749   -0.4363   -0.2937 C   0  0  0  0  0  0  0  0  0  0  0  0
    0.4731   -1.7042   -0.1530 C   0  0  0  0  0  0  0  0  0  0  0  0
    1.8817   -1.7271   -0.0176 N   0  0  0  0  0  0  0  0  0  0  0  0
    2.6660   -2.8141   -0.6372 C   0  0  0  0  0  0  0  0  0  0  0  0
    2.5441   -1.1466    1.4462 S   0  0  0  0  0  6  0  0  0  0  0  0
    1.5665   -0.3443    2.1496 O   0  0  0  0  0  0  0  0  0  0  0  0
    3.1788   -2.2657    2.1169 O   0  0  0  0  0  0  0  0  0  0  0  0
    3.8400   -0.0638    0.8841 C   0  0  0  0  0  0  0  0  0  0  0  0
    5.1627   -0.5162    0.8558 C   0  0  0  0  0  0  0  0  0  0  0  0
    6.1791    0.3457    0.4389 C   0  0  0  0  0  0  0  0  0  0  0  0
    5.8850    1.6661    0.0736 C   0  0  0  0  0  0  0  0  0  0  0  0
    6.9732    2.5819   -0.4046 C   0  0  0  0  0  0  0  0  0  0  0  0
    4.5563    2.1091    0.1153 C   0  0  0  0  0  0  0  0  0  0  0  0
    3.5359    1.2524    0.5327 C   0  0  0  0  0  0  0  0  0  0  0  0
   -0.1940   -2.8136   -0.2332 N   0  0  0  0  0  0  0  0  0  0  0  0
   -1.6011   -2.7414   -0.3497 C   0  0  0  0  0  0  0  0  0  0  0  0
   -2.3034   -3.9489   -0.3727 C   0  0  0  0  0  0  0  0  0  0  0  0
   -3.6938   -3.9614   -0.4711 C   0  0  0  0  0  0  0  0  0  0  0  0
   -4.3953   -2.7604   -0.5448 C   0  0  0  0  0  0  0  0  0  0  0  0
   -3.7150   -1.5393   -0.5250 C   0  0  0  0  0  0  0  0  0  0  0  0
   -2.3222   -1.5260   -0.4304 C   0  0  0  0  0  0  0  0  0  0  0  0
   -1.5387   -0.3500   -0.4201 N   0  0  0  0  0  0  0  0  0  0  0  0
   -5.9846    1.8165    2.3713 H   0  0  0  0  0  0  0  0  0  0  0  0
   -5.2238    3.4146    2.5022 H   0  0  0  0  0  0  0  0  0  0  0  0
   -6.8042    3.2456    1.7187 H   0  0  0  0  0  0  0  0  0  0  0  0
   -5.0396    3.5252    0.0085 H   0  0  0  0  0  0  0  0  0  0  0  0
   -5.7959    1.9353   -0.1204 H   0  0  0  0  0  0  0  0  0  0  0  0
   -3.1452    2.5167    1.3099 H   0  0  0  0  0  0  0  0  0  0  0  0
   -3.9010    0.9359    1.1925 H   0  0  0  0  0  0  0  0  0  0  0  0
   -2.9315    2.6737   -1.1368 H   0  0  0  0  0  0  0  0  0  0  0  0
   -3.7520    1.1638   -1.3945 H   0  0  0  0  0  0  0  0  0  0  0  0
    3.7288   -2.5657   -0.6859 H   0  0  0  0  0  0  0  0  0  0  0  0
    2.3291   -2.9640   -1.6685 H   0  0  0  0  0  0  0  0  0  0  0  0
    2.5314   -3.7521   -0.0906 H   0  0  0  0  0  0  0  0  0  0  0  0
    5.4122   -1.5310    1.1566 H   0  0  0  0  0  0  0  0  0  0  0  0
    7.2049   -0.0159    0.4086 H   0  0  0  0  0  0  0  0  0  0  0  0
    7.0875    2.4921   -1.4892 H   0  0  0  0  0  0  0  0  0  0  0  0
    6.7438    3.6238   -0.1574 H   0  0  0  0  0  0  0  0  0  0  0  0
    7.9276    2.3377    0.0736 H   0  0  0  0  0  0  0  0  0  0  0  0
    4.3056    3.1288   -0.1705 H   0  0  0  0  0  0  0  0  0  0  0  0
    2.5143    1.6227    0.5814 H   0  0  0  0  0  0  0  0  0  0  0  0
   -1.7583   -4.8878   -0.3073 H   0  0  0  0  0  0  0  0  0  0  0  0
   -4.2281   -4.9083   -0.4845 H   0  0  0  0  0  0  0  0  0  0  0  0
   -5.4813   -2.7751   -0.6150 H   0  0  0  0  0  0  0  0  0  0  0  0
   -4.3179   -0.6438   -0.5737 H   0  0  0  0  0  0  0  0  0  0  0  0
  1  2  1  0
  2  3  1  0
  3  4  1  0
  4  5  1  0
  5  6  2  0
  6  7  1  0
  7  8  2  0
  8  9  1  0
  9 10  1  0
 10 11  1  0
 10 12  1  0
 12 13  2  0
 12 14  2  0
 12 15  1  0
 15 16  2  0
 16 17  1  0
 17 18  2  0
 18 19  1  0
 18 20  1  0
 20 21  2  0
  9 22  2  0
 22 23  1  0
 23 24  2  0
 24 25  1  0
 25 26  2  0
 26 27  1  0
 27 28  2  0
 28 29  1  0
 29  5  1  0
 29  8  1  0
 21 15  1  0
 28 23  1  0
  1 30  1  0
  1 31  1  0
  1 32  1  0
  2 33  1  0
  2 34  1  0
  3 35  1  0
  3 36  1  0
  4 37  1  0
  4 38  1  0
 11 39  1  0
 11 40  1  0
 11 41  1  0
 16 42  1  0
 17 43  1  0
 19 44  1  0
 19 45  1  0
 19 46  1  0
 20 47  1  0
 21 48  1  0
 24 49  1  0
 25 50  1  0
 26 51  1  0
 27 52  1  0
M  END
$$$$
