
     RDKit          3D

 41 43  0  0  0  0  0  0  0  0999 V2000
   -7.2255    0.4872   -0.5796 C   0  0  0  0  0  0  0  0  0  0  0  0
   -6.6947    0.3027    0.8313 C   0  0  0  0  0  0  0  0  0  0  0  0
   -5.6625   -0.6819    0.8583 O   0  0  0  0  0  0  0  0  0  0  0  0
   -4.3677   -0.2859    0.6827 C   0  0  0  0  0  0  0  0  0  0  0  0
   -3.9312    0.9859    0.3217 C   0  0  0  0  0  0  0  0  0  0  0  0
   -2.5619    1.2489    0.1731 C   0  0  0  0  0  0  0  0  0  0  0  0
   -1.6043    0.2475    0.3899 C   0  0  0  0  0  0  0  0  0  0  0  0
   -0.1941    0.5134    0.2287 N   0  0  0  0  0  0  0  0  0  0  0  0
    0.5144   -0.3760   -0.6012 C   0  0  0  0  0  0  0  0  0  0  0  0
    0.0103   -1.3252   -1.2053 O   0  0  0  0  0  0  0  0  0  0  0  0
    1.9713   -0.1081   -0.7545 C   0  0  0  0  0  0  0  0  0  0  0  0
    2.7170   -1.1160   -1.2473 C   0  0  0  0  0  0  0  0  0  0  0  0
    4.1347   -1.1109   -1.3234 C   0  0  0  0  0  0  0  0  0  0  0  0
    4.9527   -1.6781   -2.2929 C   0  0  0  0  0  0  0  0  0  0  0  0
    6.2975   -1.4467   -1.9183 C   0  0  0  0  0  0  0  0  0  0  0  0
    6.2449   -0.7674   -0.7255 C   0  0  0  0  0  0  0  0  0  0  0  0
    7.2702   -0.2256    0.1863 C   0  0  0  0  0  0  0  0  0  0  0  0
    4.9521   -0.5817   -0.3516 O   0  0  0  0  0  0  0  0  0  0  0  0
    2.4942    1.2146   -0.3765 C   0  0  0  0  0  0  0  0  0  0  0  0
    3.4906    1.7461   -0.8469 O   0  0  0  0  0  0  0  0  0  0  0  0
    1.7100    1.8775    0.5211 N   0  0  0  0  0  0  0  0  0  0  0  0
    0.4095    1.6089    0.8660 C   0  0  0  0  0  0  0  0  0  0  0  0
   -0.2317    2.6269    2.0435 S   0  0  0  0  0  0  0  0  0  0  0  0
   -2.0557   -1.0351    0.7271 C   0  0  0  0  0  0  0  0  0  0  0  0
   -3.4223   -1.2942    0.8748 C   0  0  0  0  0  0  0  0  0  0  0  0
   -8.0632    1.1905   -0.5884 H   0  0  0  0  0  0  0  0  0  0  0  0
   -7.5657   -0.4699   -0.9889 H   0  0  0  0  0  0  0  0  0  0  0  0
   -6.4495    0.8613   -1.2540 H   0  0  0  0  0  0  0  0  0  0  0  0
   -6.3871    1.2489    1.2900 H   0  0  0  0  0  0  0  0  0  0  0  0
   -7.5068   -0.0836    1.4578 H   0  0  0  0  0  0  0  0  0  0  0  0
   -4.6247    1.7977    0.1310 H   0  0  0  0  0  0  0  0  0  0  0  0
   -2.2663    2.2451   -0.1475 H   0  0  0  0  0  0  0  0  0  0  0  0
    2.2397   -2.0386   -1.5712 H   0  0  0  0  0  0  0  0  0  0  0  0
    4.6086   -2.1916   -3.1803 H   0  0  0  0  0  0  0  0  0  0  0  0
    7.1911   -1.7380   -2.4519 H   0  0  0  0  0  0  0  0  0  0  0  0
    8.2767   -0.3994   -0.2064 H   0  0  0  0  0  0  0  0  0  0  0  0
    7.2000   -0.7031    1.1683 H   0  0  0  0  0  0  0  0  0  0  0  0
    7.1365    0.8528    0.3154 H   0  0  0  0  0  0  0  0  0  0  0  0
    2.0997    2.7471    0.8641 H   0  0  0  0  0  0  0  0  0  0  0  0
   -1.3553   -1.8501    0.8936 H   0  0  0  0  0  0  0  0  0  0  0  0
   -3.7514   -2.2957    1.1428 H   0  0  0  0  0  0  0  0  0  0  0  0
  1  2  1  0
  2  3  1  0
  3  4  1  0
  4  5  2  0
  5  6  1  0
  6  7  2  0
  7  8  1  0
  8  9  1  0
  9 10  2  0
  9 11  1  0
 11 12  2  3
 12 13  1  0
 13 14  2  0
 14 15  1  0
 15 16  2  0
 16 17  1  0
 16 18  1  0
 11 19  1  0
 19 20  2  0
 19 21  1  0
 21 22  1  0
 22 23  2  0
  7 24  1  0
 24 25  2  0
 25  4  1  0
 22  8  1  0
 18 13  1  0
  1 26  1  0
  1 27  1  0
  1 28  1  0
  2 29  1  0
  2 30  1  0
  5 31  1  0
  6 32  1  0
 12 33  1  0
 14 34  1  0
 15 35  1  0
 17 36  1  0
 17 37  1  0
 17 38  1  0
 21 39  1  0
 24 40  1  0
 25 41  1  0
M  END
$$$$
