
     RDKit          3D

 37 39  0  0  0  0  0  0  0  0999 V2000
   -3.7038   -3.3745   -2.2171 C   0  0  0  0  0  0  0  0  0  0  0  0
   -3.9469   -2.0497   -2.6665 O   0  0  0  0  0  0  0  0  0  0  0  0
   -3.1655   -1.0510   -2.1498 C   0  0  0  0  0  0  0  0  0  0  0  0
   -2.1714   -1.2246   -1.1835 C   0  0  0  0  0  0  0  0  0  0  0  0
   -1.4174   -0.1319   -0.7237 C   0  0  0  0  0  0  0  0  0  0  0  0
   -0.4008   -0.3635    0.3152 C   0  0  0  0  0  0  0  0  0  0  0  0
    0.8276    0.1776    0.2654 C   0  0  0  0  0  0  0  0  0  0  0  0
    1.8562   -0.0114    1.2390 C   0  0  0  0  0  0  0  0  0  0  0  0
    3.0373    0.5714    1.1578 N   0  0  0  0  0  0  0  0  0  0  0  0
    3.8455    0.2196    2.2247 C   0  0  0  0  0  0  0  0  0  0  0  0
    5.1657    0.6623    2.4440 C   0  0  0  0  0  0  0  0  0  0  0  0
    5.8683    0.2236    3.5712 C   0  0  0  0  0  0  0  0  0  0  0  0
    5.2717   -0.6472    4.4774 C   0  0  0  0  0  0  0  0  0  0  0  0
    3.9632   -1.1001    4.2810 C   0  0  0  0  0  0  0  0  0  0  0  0
    3.2685   -0.6521    3.1448 C   0  0  0  0  0  0  0  0  0  0  0  0
    1.6727   -1.0227    2.6320 S   0  0  0  0  0  0  0  0  0  0  0  0
   -1.6809    1.1546   -1.2202 C   0  0  0  0  0  0  0  0  0  0  0  0
   -2.6697    1.3458   -2.1843 C   0  0  0  0  0  0  0  0  0  0  0  0
   -3.0215    2.5447   -2.7530 O   0  0  0  0  0  0  0  0  0  0  0  0
   -2.2926    3.6924   -2.3323 C   0  0  0  0  0  0  0  0  0  0  0  0
   -3.4006    0.2388   -2.6391 C   0  0  0  0  0  0  0  0  0  0  0  0
   -4.3745    0.4378   -3.5893 O   0  0  0  0  0  0  0  0  0  0  0  0
   -4.3971   -4.0387   -2.7419 H   0  0  0  0  0  0  0  0  0  0  0  0
   -2.6860   -3.6953   -2.4626 H   0  0  0  0  0  0  0  0  0  0  0  0
   -3.9008   -3.4694   -1.1442 H   0  0  0  0  0  0  0  0  0  0  0  0
   -1.9585   -2.2081   -0.7765 H   0  0  0  0  0  0  0  0  0  0  0  0
   -0.7134   -1.0240    1.1194 H   0  0  0  0  0  0  0  0  0  0  0  0
    1.1085    0.8126   -0.5712 H   0  0  0  0  0  0  0  0  0  0  0  0
    5.6266    1.3414    1.7337 H   0  0  0  0  0  0  0  0  0  0  0  0
    6.8867    0.5672    3.7369 H   0  0  0  0  0  0  0  0  0  0  0  0
    5.8287   -0.9813    5.3504 H   0  0  0  0  0  0  0  0  0  0  0  0
    3.4985   -1.7798    4.9886 H   0  0  0  0  0  0  0  0  0  0  0  0
   -1.1115    1.9926   -0.8319 H   0  0  0  0  0  0  0  0  0  0  0  0
   -2.6811    4.5545   -2.8830 H   0  0  0  0  0  0  0  0  0  0  0  0
   -1.2289    3.5949   -2.5733 H   0  0  0  0  0  0  0  0  0  0  0  0
   -2.4421    3.8842   -1.2647 H   0  0  0  0  0  0  0  0  0  0  0  0
   -4.3609    1.3955   -3.7732 H   0  0  0  0  0  0  0  0  0  0  0  0
  1  2  1  0
  2  3  1  0
  3  4  2  0
  4  5  1  0
  5  6  1  0
  6  7  2  3
  7  8  1  0
  8  9  2  0
  9 10  1  0
 10 11  2  0
 11 12  1  0
 12 13  2  0
 13 14  1  0
 14 15  2  0
 15 16  1  0
  5 17  2  0
 17 18  1  0
 18 19  1  0
 19 20  1  0
 18 21  2  0
 21 22  1  0
 21  3  1  0
 16  8  1  0
 15 10  1  0
  1 23  1  0
  1 24  1  0
  1 25  1  0
  4 26  1  0
  6 27  1  0
  7 28  1  0
 11 29  1  0
 12 30  1  0
 13 31  1  0
 14 32  1  0
 17 33  1  0
 20 34  1  0
 20 35  1  0
 20 36  1  0
 22 37  1  0
M  END
$$$$
