
     RDKit          3D

 38 39  0  0  0  0  0  0  0  0999 V2000
   -2.0103   -1.0686    0.2663 O   0  0  0  0  0  0  0  0  0  0  0  0
   -2.7058   -0.1415   -0.1375 C   0  0  0  0  0  0  0  0  0  0  0  0
   -2.1182    1.2178   -0.5217 C   0  0  0  0  0  0  0  0  0  0  0  0
   -0.7071    1.2391   -0.3237 O   0  0  0  0  0  0  0  0  0  0  0  0
   -0.1246    2.4085   -0.6667 C   0  0  0  0  0  0  0  0  0  0  0  0
   -0.7019    3.3907   -1.1087 O   0  0  0  0  0  0  0  0  0  0  0  0
    1.3362    2.3848   -0.4498 C   0  0  0  0  0  0  0  0  0  0  0  0
    2.0070    1.3348    0.0506 C   0  0  0  0  0  0  0  0  0  0  0  0
    3.4628    1.3137    0.2502 C   0  0  0  0  0  0  0  0  0  0  0  0
    4.1788    2.4377    0.6802 C   0  0  0  0  0  0  0  0  0  0  0  0
    5.5594    2.3686    0.8789 C   0  0  0  0  0  0  0  0  0  0  0  0
    6.2387    1.1708    0.6619 C   0  0  0  0  0  0  0  0  0  0  0  0
    5.5414    0.0246    0.2559 C   0  0  0  0  0  0  0  0  0  0  0  0
    6.2674   -1.2734    0.0039 C   0  0  0  0  0  0  0  0  0  0  0  0
    7.4568   -1.3627    0.6630 F   0  0  0  0  0  0  0  0  0  0  0  0
    5.5497   -2.3665    0.3859 F   0  0  0  0  0  0  0  0  0  0  0  0
    6.5561   -1.4570   -1.3139 F   0  0  0  0  0  0  0  0  0  0  0  0
    4.1526    0.1095    0.0522 C   0  0  0  0  0  0  0  0  0  0  0  0
   -4.0744   -0.1761   -0.3043 N   0  0  0  0  0  0  0  0  0  0  0  0
   -4.9492   -1.2341   -0.0625 C   0  0  0  0  0  0  0  0  0  0  0  0
   -4.5640   -2.4828    0.4094 C   0  0  0  0  0  0  0  0  0  0  0  0
   -5.5406   -3.4621    0.6095 C   0  0  0  0  0  0  0  0  0  0  0  0
   -6.8669   -3.1647    0.3336 C   0  0  0  0  0  0  0  0  0  0  0  0
   -8.0975   -4.3365    0.5633 Cl  0  0  0  0  0  0  0  0  0  0  0  0
   -7.1650   -1.8962   -0.1327 C   0  0  0  0  0  0  0  0  0  0  0  0
   -6.2366   -0.9273   -0.3358 N   0  0  0  0  0  0  0  0  0  0  0  0
   -2.5895    1.9824    0.1071 H   0  0  0  0  0  0  0  0  0  0  0  0
   -2.3466    1.3978   -1.5789 H   0  0  0  0  0  0  0  0  0  0  0  0
    1.8356    3.3005   -0.7462 H   0  0  0  0  0  0  0  0  0  0  0  0
    1.4846    0.4172    0.3169 H   0  0  0  0  0  0  0  0  0  0  0  0
    3.6723    3.3798    0.8764 H   0  0  0  0  0  0  0  0  0  0  0  0
    6.1042    3.2507    1.2075 H   0  0  0  0  0  0  0  0  0  0  0  0
    7.3160    1.1325    0.8179 H   0  0  0  0  0  0  0  0  0  0  0  0
    3.6094   -0.7788   -0.2720 H   0  0  0  0  0  0  0  0  0  0  0  0
   -4.5594    0.6438   -0.6456 H   0  0  0  0  0  0  0  0  0  0  0  0
   -3.5308   -2.7257    0.6280 H   0  0  0  0  0  0  0  0  0  0  0  0
   -5.2542   -4.4432    0.9776 H   0  0  0  0  0  0  0  0  0  0  0  0
   -8.1863   -1.6077   -0.3647 H   0  0  0  0  0  0  0  0  0  0  0  0
  1  2  2  0
  2  3  1  0
  3  4  1  0
  4  5  1  0
  5  6  2  0
  5  7  1  0
  7  8  2  3
  8  9  1  0
  9 10  2  0
 10 11  1  0
 11 12  2  0
 12 13  1  0
 13 14  1  0
 14 15  1  0
 14 16  1  0
 14 17  1  0
 13 18  2  0
  2 19  1  0
 19 20  1  0
 20 21  2  0
 21 22  1  0
 22 23  2  0
 23 24  1  0
 23 25  1  0
 25 26  2  0
 18  9  1  0
 26 20  1  0
  3 27  1  0
  3 28  1  0
  7 29  1  0
  8 30  1  0
 10 31  1  0
 11 32  1  0
 12 33  1  0
 18 34  1  0
 19 35  1  0
 21 36  1  0
 22 37  1  0
 25 38  1  0
M  END
$$$$
