
     RDKit          3D

 40 44  0  0  0  0  0  0  0  0999 V2000
    6.2076    0.8761    0.5667 C   0  0  0  0  0  0  0  0  0  0  0  0
    5.7274    0.6730   -0.7246 C   0  0  0  0  0  0  0  0  0  0  0  0
    4.3963    0.2975   -0.9251 C   0  0  0  0  0  0  0  0  0  0  0  0
    3.5226    0.1195    0.1605 C   0  0  0  0  0  0  0  0  0  0  0  0
    2.1198   -0.2754   -0.0510 C   0  0  0  0  0  0  0  0  0  0  0  0
    1.8010   -1.4315   -0.7795 C   0  0  0  0  0  0  0  0  0  0  0  0
    0.4775   -1.8345   -0.9993 C   0  0  0  0  0  0  0  0  0  0  0  0
   -0.5434   -1.0436   -0.4606 C   0  0  0  0  0  0  0  0  0  0  0  0
   -0.2742    0.1251    0.2746 C   0  0  0  0  0  0  0  0  0  0  0  0
    1.0698    0.5031    0.4737 C   0  0  0  0  0  0  0  0  0  0  0  0
   -1.5276    0.6921    0.6516 C   0  0  0  0  0  0  0  0  0  0  0  0
   -2.4937   -0.1483    0.1625 C   0  0  0  0  0  0  0  0  0  0  0  0
   -1.9066   -1.1663   -0.5103 N   0  0  0  0  0  0  0  0  0  0  0  0
   -2.7503   -2.1116   -1.2088 C   0  0  0  0  0  0  0  0  0  0  0  0
   -4.1237   -2.2059   -0.5216 C   0  0  0  0  0  0  0  0  0  0  0  0
   -4.7281   -0.9081   -0.1076 N   0  0  0  0  0  0  0  0  0  0  0  0
   -3.9060    0.0096    0.2794 C   0  0  0  0  0  0  0  0  0  0  0  0
   -4.3531    1.3441    0.8474 C   0  0  0  0  0  0  0  0  0  0  0  0
   -3.3490    1.8605    1.9038 C   0  0  0  0  0  0  0  0  0  0  0  0
   -1.8891    1.9360    1.3891 C   0  0  0  0  0  0  0  0  0  0  0  0
    4.0272    0.3302    1.4546 C   0  0  0  0  0  0  0  0  0  0  0  0
    5.3583    0.7047    1.6569 C   0  0  0  0  0  0  0  0  0  0  0  0
    7.2427    1.1678    0.7233 H   0  0  0  0  0  0  0  0  0  0  0  0
    6.3864    0.8091   -1.5781 H   0  0  0  0  0  0  0  0  0  0  0  0
    4.0374    0.1548   -1.9424 H   0  0  0  0  0  0  0  0  0  0  0  0
    2.6014   -2.0498   -1.1839 H   0  0  0  0  0  0  0  0  0  0  0  0
    0.2625   -2.7338   -1.5668 H   0  0  0  0  0  0  0  0  0  0  0  0
    1.2890    1.4120    1.0280 H   0  0  0  0  0  0  0  0  0  0  0  0
   -2.8554   -1.7390   -2.2338 H   0  0  0  0  0  0  0  0  0  0  0  0
   -2.2560   -3.0872   -1.2267 H   0  0  0  0  0  0  0  0  0  0  0  0
   -4.0450   -2.8343    0.3747 H   0  0  0  0  0  0  0  0  0  0  0  0
   -4.8237   -2.7086   -1.1980 H   0  0  0  0  0  0  0  0  0  0  0  0
   -5.3467    1.2333    1.2942 H   0  0  0  0  0  0  0  0  0  0  0  0
   -4.4304    2.0585    0.0197 H   0  0  0  0  0  0  0  0  0  0  0  0
   -3.6617    2.8484    2.2603 H   0  0  0  0  0  0  0  0  0  0  0  0
   -3.3787    1.1841    2.7687 H   0  0  0  0  0  0  0  0  0  0  0  0
   -1.2100    2.0955    2.2337 H   0  0  0  0  0  0  0  0  0  0  0  0
   -1.7872    2.7927    0.7123 H   0  0  0  0  0  0  0  0  0  0  0  0
    3.3824    0.1909    2.3201 H   0  0  0  0  0  0  0  0  0  0  0  0
    5.7301    0.8593    2.6663 H   0  0  0  0  0  0  0  0  0  0  0  0
  1  2  2  0
  2  3  1  0
  3  4  2  0
  4  5  1  0
  5  6  2  0
  6  7  1  0
  7  8  2  0
  8  9  1  0
  9 10  2  0
  9 11  1  0
 11 12  2  0
 12 13  1  0
 13 14  1  0
 14 15  1  0
 15 16  1  0
 16 17  2  0
 17 18  1  0
 18 19  1  0
 19 20  1  0
  4 21  1  0
 21 22  2  0
 22  1  1  0
 10  5  1  0
 20 11  1  0
 13  8  1  0
 17 12  1  0
  1 23  1  0
  2 24  1  0
  3 25  1  0
  6 26  1  0
  7 27  1  0
 10 28  1  0
 14 29  1  0
 14 30  1  0
 15 31  1  0
 15 32  1  0
 18 33  1  0
 18 34  1  0
 19 35  1  0
 19 36  1  0
 20 37  1  0
 20 38  1  0
 21 39  1  0
 22 40  1  0
M  END
$$$$
