
     RDKit          3D

 46 48  0  0  0  0  0  0  0  0999 V2000
    4.4092   -2.0522   -2.8080 C   0  0  0  0  0  0  0  0  0  0  0  0
    3.4001   -0.9202   -2.8466 C   0  0  0  0  0  0  0  0  0  0  0  0
    3.0441   -0.5311   -1.5124 O   0  0  0  0  0  0  0  0  0  0  0  0
    2.0365   -1.2431   -0.9204 C   0  0  0  0  0  0  0  0  0  0  0  0
    1.4303   -2.1508   -1.4817 O   0  0  0  0  0  0  0  0  0  0  0  0
    1.7593   -0.7423    0.5127 C   0  0  0  0  0  0  0  0  0  0  0  0
    2.8693   -1.4108    1.3557 C   0  0  0  0  0  0  0  0  0  0  0  0
    2.7400   -1.1079    2.6755 F   0  0  0  0  0  0  0  0  0  0  0  0
    4.1147   -1.0128    0.9929 F   0  0  0  0  0  0  0  0  0  0  0  0
    2.8499   -2.7639    1.2649 F   0  0  0  0  0  0  0  0  0  0  0  0
    1.8569    0.7302    0.5528 N   0  0  0  0  0  0  0  0  0  0  0  0
    0.7701    1.3394    0.2550 C   0  0  0  0  0  0  0  0  0  0  0  0
    0.6855    2.8041    0.0836 C   0  0  0  0  0  0  0  0  0  0  0  0
   -0.4687    3.4576   -0.3584 C   0  0  0  0  0  0  0  0  0  0  0  0
   -0.4630    4.8450   -0.4977 C   0  0  0  0  0  0  0  0  0  0  0  0
    0.6995    5.5342   -0.1919 C   0  0  0  0  0  0  0  0  0  0  0  0
    1.8324    4.9366    0.2337 N   0  0  0  0  0  0  0  0  0  0  0  0
    1.8015    3.5856    0.3611 C   0  0  0  0  0  0  0  0  0  0  0  0
   -0.4282    0.7588    0.0767 O   0  0  0  0  0  0  0  0  0  0  0  0
   -0.5629   -0.4746    0.6125 C   0  0  0  0  0  0  0  0  0  0  0  0
   -1.8773   -0.8484    0.7927 N   0  0  0  0  0  0  0  0  0  0  0  0
   -2.1950   -2.2180    1.2148 C   0  0  0  0  0  0  0  0  0  0  0  0
   -3.5165   -2.6782    0.6073 C   0  0  0  0  0  0  0  0  0  0  0  0
   -4.6795   -1.7773    1.0147 C   0  0  0  0  0  0  0  0  0  0  0  0
   -4.2323   -0.3526    1.3301 C   0  0  0  0  0  0  0  0  0  0  0  0
   -2.9997    0.0517    0.5278 C   0  0  0  0  0  0  0  0  0  0  0  0
    0.4328   -1.2133    0.9345 N   0  0  0  0  0  0  0  0  0  0  0  0
    3.9845   -2.9417   -2.3321 H   0  0  0  0  0  0  0  0  0  0  0  0
    4.7333   -2.3176   -3.8182 H   0  0  0  0  0  0  0  0  0  0  0  0
    5.2865   -1.7649   -2.2192 H   0  0  0  0  0  0  0  0  0  0  0  0
    2.5144   -1.1894   -3.4331 H   0  0  0  0  0  0  0  0  0  0  0  0
    3.8484   -0.0438   -3.3259 H   0  0  0  0  0  0  0  0  0  0  0  0
   -1.3720    2.9066   -0.6025 H   0  0  0  0  0  0  0  0  0  0  0  0
   -1.3444    5.3770   -0.8393 H   0  0  0  0  0  0  0  0  0  0  0  0
    0.7526    6.6156   -0.2850 H   0  0  0  0  0  0  0  0  0  0  0  0
    2.7342    3.1449    0.7055 H   0  0  0  0  0  0  0  0  0  0  0  0
   -2.2400   -2.2588    2.3095 H   0  0  0  0  0  0  0  0  0  0  0  0
   -1.4160   -2.9188    0.8925 H   0  0  0  0  0  0  0  0  0  0  0  0
   -3.7301   -3.7130    0.8979 H   0  0  0  0  0  0  0  0  0  0  0  0
   -3.4280   -2.6723   -0.4870 H   0  0  0  0  0  0  0  0  0  0  0  0
   -5.4216   -1.7681    0.2074 H   0  0  0  0  0  0  0  0  0  0  0  0
   -5.1868   -2.1930    1.8935 H   0  0  0  0  0  0  0  0  0  0  0  0
   -5.0560    0.3448    1.1409 H   0  0  0  0  0  0  0  0  0  0  0  0
   -4.0015   -0.2805    2.4011 H   0  0  0  0  0  0  0  0  0  0  0  0
   -3.2243    0.0478   -0.5453 H   0  0  0  0  0  0  0  0  0  0  0  0
   -2.7420    1.0795    0.8084 H   0  0  0  0  0  0  0  0  0  0  0  0
  1  2  1  0
  2  3  1  0
  3  4  1  0
  4  5  2  0
  4  6  1  0
  6  7  1  0
  7  8  1  0
  7  9  1  0
  7 10  1  0
  6 11  1  0
 11 12  2  0
 12 13  1  0
 13 14  2  0
 14 15  1  0
 15 16  2  0
 16 17  1  0
 17 18  2  0
 12 19  1  0
 19 20  1  0
 20 21  1  0
 21 22  1  0
 22 23  1  0
 23 24  1  0
 24 25  1  0
 25 26  1  0
 20 27  2  0
 27  6  1  0
 18 13  1  0
 26 21  1  0
  1 28  1  0
  1 29  1  0
  1 30  1  0
  2 31  1  0
  2 32  1  0
 14 33  1  0
 15 34  1  0
 16 35  1  0
 18 36  1  0
 22 37  1  0
 22 38  1  0
 23 39  1  0
 23 40  1  0
 24 41  1  0
 24 42  1  0
 25 43  1  0
 25 44  1  0
 26 45  1  0
 26 46  1  0
M  END
$$$$
