
     RDKit          3D

 45 46  0  0  0  0  0  0  0  0999 V2000
    8.0642    0.7352    1.5347 C   0  0  0  0  0  0  0  0  0  0  0  0
    7.4280    0.6913    0.1569 C   0  0  0  0  0  0  0  0  0  0  0  0
    6.1472    0.0068    0.1651 N   0  0  0  0  0  0  0  0  0  0  0  0
    6.1286   -1.3143   -0.0979 N   0  0  0  0  0  0  0  0  0  0  0  0
    4.8348   -1.6286   -0.0594 C   0  0  0  0  0  0  0  0  0  0  0  0
    4.0115   -0.5238    0.2450 C   0  0  0  0  0  0  0  0  0  0  0  0
    2.5686   -0.5390    0.3566 C   0  0  0  0  0  0  0  0  0  0  0  0
    1.9318    0.5567    0.6218 N   0  0  0  0  0  0  0  0  0  0  0  0
    0.5598    0.5232    0.6855 N   0  0  0  0  0  0  0  0  0  0  0  0
   -0.2655   -0.2871   -0.1021 C   0  0  0  0  0  0  0  0  0  0  0  0
    0.1283   -1.1594   -0.8712 O   0  0  0  0  0  0  0  0  0  0  0  0
   -1.7458    0.0460    0.1140 C   0  0  0  0  0  0  0  0  0  0  0  0
   -2.5857   -0.8200   -0.6321 O   0  0  0  0  0  0  0  0  0  0  0  0
   -3.9352   -0.6199   -0.5383 C   0  0  0  0  0  0  0  0  0  0  0  0
   -4.7043   -1.4903   -1.3151 C   0  0  0  0  0  0  0  0  0  0  0  0
   -6.1023   -1.4178   -1.3112 C   0  0  0  0  0  0  0  0  0  0  0  0
   -6.9119   -2.3422   -2.1709 C   0  0  0  0  0  0  0  0  0  0  0  0
   -6.7282   -0.4354   -0.5363 C   0  0  0  0  0  0  0  0  0  0  0  0
   -5.9721    0.4543    0.2375 C   0  0  0  0  0  0  0  0  0  0  0  0
   -6.6567    1.4762    1.0977 C   0  0  0  0  0  0  0  0  0  0  0  0
   -4.5728    0.3453    0.2431 C   0  0  0  0  0  0  0  0  0  0  0  0
    4.8991    0.5335    0.4020 C   0  0  0  0  0  0  0  0  0  0  0  0
    4.6480    1.9594    0.7401 C   0  0  0  0  0  0  0  0  0  0  0  0
    8.2347   -0.2749    1.9220 H   0  0  0  0  0  0  0  0  0  0  0  0
    9.0281    1.2515    1.4916 H   0  0  0  0  0  0  0  0  0  0  0  0
    7.4260    1.2626    2.2512 H   0  0  0  0  0  0  0  0  0  0  0  0
    8.0818    0.1638   -0.5473 H   0  0  0  0  0  0  0  0  0  0  0  0
    7.2743    1.6994   -0.2403 H   0  0  0  0  0  0  0  0  0  0  0  0
    4.5412   -2.6520   -0.2563 H   0  0  0  0  0  0  0  0  0  0  0  0
    2.0856   -1.5224    0.2357 H   0  0  0  0  0  0  0  0  0  0  0  0
    0.1644    1.3810    1.0595 H   0  0  0  0  0  0  0  0  0  0  0  0
   -1.9525   -0.0621    1.1858 H   0  0  0  0  0  0  0  0  0  0  0  0
   -1.8956    1.0843   -0.2066 H   0  0  0  0  0  0  0  0  0  0  0  0
   -4.1993   -2.2361   -1.9264 H   0  0  0  0  0  0  0  0  0  0  0  0
   -6.4107   -3.3092   -2.2848 H   0  0  0  0  0  0  0  0  0  0  0  0
   -7.8916   -2.5360   -1.7216 H   0  0  0  0  0  0  0  0  0  0  0  0
   -7.0579   -1.9002   -3.1612 H   0  0  0  0  0  0  0  0  0  0  0  0
   -7.8144   -0.3629   -0.5353 H   0  0  0  0  0  0  0  0  0  0  0  0
   -7.6079    1.7879    0.6535 H   0  0  0  0  0  0  0  0  0  0  0  0
   -6.8496    1.0596    2.0910 H   0  0  0  0  0  0  0  0  0  0  0  0
   -6.0390    2.3742    1.2034 H   0  0  0  0  0  0  0  0  0  0  0  0
   -4.0083    1.0310    0.8655 H   0  0  0  0  0  0  0  0  0  0  0  0
    5.5619    2.5040    0.9907 H   0  0  0  0  0  0  0  0  0  0  0  0
    3.9869    2.0370    1.6093 H   0  0  0  0  0  0  0  0  0  0  0  0
    4.1725    2.4693   -0.1038 H   0  0  0  0  0  0  0  0  0  0  0  0
  1  2  1  0
  2  3  1  0
  3  4  1  0
  4  5  2  0
  5  6  1  0
  6  7  1  0
  7  8  2  3
  8  9  1  0
  9 10  1  0
 10 11  2  0
 10 12  1  0
 12 13  1  0
 13 14  1  0
 14 15  2  0
 15 16  1  0
 16 17  1  0
 16 18  2  0
 18 19  1  0
 19 20  1  0
 19 21  2  0
  6 22  2  0
 22 23  1  0
 22  3  1  0
 21 14  1  0
  1 24  1  0
  1 25  1  0
  1 26  1  0
  2 27  1  0
  2 28  1  0
  5 29  1  0
  7 30  1  0
  9 31  1  0
 12 32  1  0
 12 33  1  0
 15 34  1  0
 17 35  1  0
 17 36  1  0
 17 37  1  0
 18 38  1  0
 20 39  1  0
 20 40  1  0
 20 41  1  0
 21 42  1  0
 23 43  1  0
 23 44  1  0
 23 45  1  0
M  END
$$$$
