
     RDKit          3D

 71 76  0  0  0  0  0  0  0  0999 V2000
   -1.6687   -5.6170    2.9194 C   0  0  0  0  0  0  0  0  0  0  0  0
   -1.1331   -4.4779    2.2561 O   0  0  0  0  0  0  0  0  0  0  0  0
   -1.8324   -3.9995    1.1812 C   0  0  0  0  0  0  0  0  0  0  0  0
   -3.0330   -4.5326    0.6795 C   0  0  0  0  0  0  0  0  0  0  0  0
   -3.6706   -3.9444   -0.4167 C   0  0  0  0  0  0  0  0  0  0  0  0
   -3.0739   -2.8411   -0.9910 C   0  0  0  0  0  0  0  0  0  0  0  0
   -1.8642   -2.3070   -0.5367 C   0  0  0  0  0  0  0  0  0  0  0  0
   -1.2525   -2.8761    0.5742 C   0  0  0  0  0  0  0  0  0  0  0  0
   -1.4958   -1.1214   -1.3943 C   0  0  1  0  0  0  0  0  0  0  0  0
   -2.7548   -1.0118   -2.3378 C   0  0  0  0  0  0  0  0  0  0  0  0
   -3.0044   -0.1794   -3.1974 O   0  0  0  0  0  0  0  0  0  0  0  0
   -3.5823   -2.0921   -2.0377 N   0  0  0  0  0  0  0  0  0  0  0  0
   -1.2913    0.0906   -0.5660 C   0  0  0  0  0  0  0  0  0  0  0  0
   -0.3064    0.9047   -1.1640 C   0  0  0  0  0  0  0  0  0  0  0  0
   -0.0511    1.9590   -0.3296 C   0  0  0  0  0  0  0  0  0  0  0  0
    0.8523    2.9308   -0.3607 O   0  0  0  0  0  0  0  0  0  0  0  0
   -0.9711    1.8675    0.7049 N   0  0  0  0  0  0  0  0  0  0  0  0
   -1.0714    2.8112    1.8118 C   0  0  0  0  0  0  0  0  0  0  0  0
   -2.0843    3.8949    1.5337 C   0  0  0  0  0  0  0  0  0  0  0  0
   -3.4184    3.7468    1.9411 C   0  0  0  0  0  0  0  0  0  0  0  0
   -4.3554    4.7475    1.6784 C   0  0  0  0  0  0  0  0  0  0  0  0
   -3.9708    5.9035    1.0014 C   0  0  0  0  0  0  0  0  0  0  0  0
   -2.6506    6.0578    0.5815 C   0  0  0  0  0  0  0  0  0  0  0  0
   -1.7122    5.0579    0.8434 C   0  0  0  0  0  0  0  0  0  0  0  0
   -1.7011    0.6917    0.5961 C   0  0  0  0  0  0  0  0  0  0  0  0
   -2.5831    0.3408    1.5239 O   0  0  0  0  0  0  0  0  0  0  0  0
    0.1107    0.3195   -2.4690 C   0  0  1  0  0  0  0  0  0  0  0  0
    1.5347    0.6019   -2.9733 C   0  0  0  0  0  0  0  0  0  0  0  0
    2.5280   -0.1853   -2.2618 N   0  0  0  0  0  0  0  0  0  0  0  0
    3.2051    0.4170   -1.2185 C   0  0  0  0  0  0  0  0  0  0  0  0
    3.1542    1.6226   -1.0003 O   0  0  0  0  0  0  0  0  0  0  0  0
    3.9027   -0.4749   -0.4734 O   0  0  0  0  0  0  0  0  0  0  0  0
    4.6579   -0.0431    0.6877 C   0  0  0  0  0  0  0  0  0  0  0  0
    5.7815    0.9228    0.2963 C   0  0  0  0  0  0  0  0  0  0  0  0
    3.7338    0.5474    1.7585 C   0  0  0  0  0  0  0  0  0  0  0  0
    5.2883   -1.3305    1.2387 C   0  0  0  0  0  0  0  0  0  0  0  0
    2.2459   -1.6177   -2.2932 C   0  0  0  0  0  0  0  0  0  0  0  0
    0.8810   -1.8833   -1.6282 C   0  0  0  0  0  0  0  0  0  0  0  0
   -0.2494   -1.1609   -2.2721 N   0  0  0  0  0  0  0  0  0  0  0  0
   -0.9910   -5.8728    3.7390 H   0  0  0  0  0  0  0  0  0  0  0  0
   -1.7193   -6.4796    2.2468 H   0  0  0  0  0  0  0  0  0  0  0  0
   -2.6487   -5.3950    3.3558 H   0  0  0  0  0  0  0  0  0  0  0  0
   -3.5023   -5.4018    1.1305 H   0  0  0  0  0  0  0  0  0  0  0  0
   -4.6057   -4.3452   -0.7919 H   0  0  0  0  0  0  0  0  0  0  0  0
   -0.3402   -2.4581    0.9900 H   0  0  0  0  0  0  0  0  0  0  0  0
   -4.4543   -2.2503   -2.5190 H   0  0  0  0  0  0  0  0  0  0  0  0
    1.6659    2.5725   -0.7789 H   0  0  0  0  0  0  0  0  0  0  0  0
   -0.0798    3.2410    1.9947 H   0  0  0  0  0  0  0  0  0  0  0  0
   -1.3321    2.2518    2.7182 H   0  0  0  0  0  0  0  0  0  0  0  0
   -3.7335    2.8434    2.4585 H   0  0  0  0  0  0  0  0  0  0  0  0
   -5.3864    4.6213    1.9964 H   0  0  0  0  0  0  0  0  0  0  0  0
   -4.7028    6.6788    0.7930 H   0  0  0  0  0  0  0  0  0  0  0  0
   -2.3501    6.9526    0.0430 H   0  0  0  0  0  0  0  0  0  0  0  0
   -0.6881    5.1814    0.4955 H   0  0  0  0  0  0  0  0  0  0  0  0
   -2.9769   -0.5065    1.2523 H   0  0  0  0  0  0  0  0  0  0  0  0
   -0.5692    0.7194   -3.2337 H   0  0  0  0  0  0  0  0  0  0  0  0
    1.7668    1.6712   -2.9245 H   0  0  0  0  0  0  0  0  0  0  0  0
    1.6073    0.3089   -4.0279 H   0  0  0  0  0  0  0  0  0  0  0  0
    6.3607    0.5292   -0.5456 H   0  0  0  0  0  0  0  0  0  0  0  0
    5.3919    1.8947   -0.0184 H   0  0  0  0  0  0  0  0  0  0  0  0
    6.4643    1.1016    1.1339 H   0  0  0  0  0  0  0  0  0  0  0  0
    4.2639    0.6955    2.7055 H   0  0  0  0  0  0  0  0  0  0  0  0
    3.3235    1.5150    1.4584 H   0  0  0  0  0  0  0  0  0  0  0  0
    2.8784   -0.1129    1.9380 H   0  0  0  0  0  0  0  0  0  0  0  0
    4.5152   -2.0663    1.4904 H   0  0  0  0  0  0  0  0  0  0  0  0
    5.9285   -1.8038    0.4840 H   0  0  0  0  0  0  0  0  0  0  0  0
    5.8887   -1.1411    2.1348 H   0  0  0  0  0  0  0  0  0  0  0  0
    3.0277   -2.1867   -1.7820 H   0  0  0  0  0  0  0  0  0  0  0  0
    2.2326   -1.9408   -3.3413 H   0  0  0  0  0  0  0  0  0  0  0  0
    0.6857   -2.9604   -1.6712 H   0  0  0  0  0  0  0  0  0  0  0  0
    0.9858   -1.5966   -0.5758 H   0  0  0  0  0  0  0  0  0  0  0  0
  1  2  1  0
  2  3  1  0
  3  4  2  0
  4  5  1  0
  5  6  2  0
  6  7  1  0
  7  8  2  0
  7  9  1  0
  9 10  1  0
 10 11  2  0
 10 12  1  0
  9 13  1  0
 13 14  1  0
 14 15  2  0
 15 16  1  0
 15 17  1  0
 17 18  1  0
 18 19  1  0
 19 20  2  0
 20 21  1  0
 21 22  2  0
 22 23  1  0
 23 24  2  0
 17 25  1  0
 25 26  1  0
 14 27  1  0
 27 28  1  0
 28 29  1  0
 29 30  1  0
 30 31  2  0
 30 32  1  0
 32 33  1  0
 33 34  1  0
 33 35  1  0
 33 36  1  0
 29 37  1  0
 37 38  1  0
 38 39  1  0
  8  3  1  0
  9 39  1  6
 12  6  1  0
 25 13  2  0
 39 27  1  0
 24 19  1  0
  1 40  1  0
  1 41  1  0
  1 42  1  0
  4 43  1  0
  5 44  1  0
  8 45  1  0
 12 46  1  0
 16 47  1  0
 18 48  1  0
 18 49  1  0
 20 50  1  0
 21 51  1  0
 22 52  1  0
 23 53  1  0
 24 54  1  0
 26 55  1  0
 27 56  1  6
 28 57  1  0
 28 58  1  0
 34 59  1  0
 34 60  1  0
 34 61  1  0
 35 62  1  0
 35 63  1  0
 35 64  1  0
 36 65  1  0
 36 66  1  0
 36 67  1  0
 37 68  1  0
 37 69  1  0
 38 70  1  0
 38 71  1  0
M  END
$$$$
