
     RDKit          3D

 52 53  0  0  0  0  0  0  0  0999 V2000
   -7.4986    0.1121    0.6557 C   0  0  0  0  0  0  0  0  0  0  0  0
   -5.9809   -0.0114    0.6714 C   0  0  0  0  0  0  0  0  0  0  0  0
   -5.3802   -0.3430   -0.7094 C   0  0  0  0  0  0  0  0  0  0  0  0
   -5.8113   -1.7209   -1.2246 C   0  0  0  0  0  0  0  0  0  0  0  0
   -3.8632   -0.2257   -0.6732 C   0  0  0  0  0  0  0  0  0  0  0  0
   -3.0744   -1.0964    0.0897 C   0  0  0  0  0  0  0  0  0  0  0  0
   -1.6827   -0.9658    0.1131 C   0  0  0  0  0  0  0  0  0  0  0  0
   -1.0405    0.0343   -0.6310 C   0  0  0  0  0  0  0  0  0  0  0  0
    0.4713    0.1657   -0.5651 C   0  0  0  0  0  0  0  0  0  0  0  0
    1.1103    0.3337   -1.9471 C   0  0  0  0  0  0  0  0  0  0  0  0
    0.8261    1.2733    0.3159 N   0  0  0  0  0  0  0  0  0  0  0  0
    1.9522    1.4968    1.0434 C   0  0  0  0  0  0  0  0  0  0  0  0
    1.9837    2.8644    2.0004 S   0  0  0  0  0  0  0  0  0  0  0  0
    2.9379    0.5584    0.9423 N   0  0  0  0  0  0  0  0  0  0  0  0
    4.2650    0.6001    1.5752 C   0  0  0  0  0  0  0  0  0  0  0  0
    5.2412    1.4856    0.7758 C   0  0  0  0  0  0  0  0  0  0  0  0
    6.2316    0.7019   -0.0901 C   0  0  0  0  0  0  0  0  0  0  0  0
    5.6073   -0.5579   -0.6700 C   0  0  0  0  0  0  0  0  0  0  0  0
    5.1333   -1.5153    0.4233 C   0  0  0  0  0  0  0  0  0  0  0  0
    4.8061   -0.8229    1.7501 C   0  0  0  0  0  0  0  0  0  0  0  0
   -1.8328    0.9169   -1.3789 C   0  0  0  0  0  0  0  0  0  0  0  0
   -3.2247    0.7855   -1.4027 C   0  0  0  0  0  0  0  0  0  0  0  0
   -7.8588    0.4345    1.6380 H   0  0  0  0  0  0  0  0  0  0  0  0
   -7.8253    0.8507   -0.0825 H   0  0  0  0  0  0  0  0  0  0  0  0
   -7.9766   -0.8438    0.4266 H   0  0  0  0  0  0  0  0  0  0  0  0
   -5.5664    0.9401    1.0284 H   0  0  0  0  0  0  0  0  0  0  0  0
   -5.6950   -0.7708    1.4095 H   0  0  0  0  0  0  0  0  0  0  0  0
   -5.7617    0.3969   -1.4267 H   0  0  0  0  0  0  0  0  0  0  0  0
   -5.3076   -1.9616   -2.1679 H   0  0  0  0  0  0  0  0  0  0  0  0
   -6.8889   -1.7507   -1.4142 H   0  0  0  0  0  0  0  0  0  0  0  0
   -5.5769   -2.5156   -0.5079 H   0  0  0  0  0  0  0  0  0  0  0  0
   -3.5364   -1.8829    0.6819 H   0  0  0  0  0  0  0  0  0  0  0  0
   -1.1033   -1.6515    0.7274 H   0  0  0  0  0  0  0  0  0  0  0  0
    0.8801   -0.7536   -0.1277 H   0  0  0  0  0  0  0  0  0  0  0  0
    2.2030    0.3169   -1.8824 H   0  0  0  0  0  0  0  0  0  0  0  0
    0.8384    1.2876   -2.4118 H   0  0  0  0  0  0  0  0  0  0  0  0
    0.8032   -0.4728   -2.6216 H   0  0  0  0  0  0  0  0  0  0  0  0
    0.1164    1.9862    0.4449 H   0  0  0  0  0  0  0  0  0  0  0  0
    2.8528   -0.0896    0.1765 H   0  0  0  0  0  0  0  0  0  0  0  0
    4.1368    1.0372    2.5720 H   0  0  0  0  0  0  0  0  0  0  0  0
    4.6911    2.1898    0.1397 H   0  0  0  0  0  0  0  0  0  0  0  0
    5.8225    2.1003    1.4749 H   0  0  0  0  0  0  0  0  0  0  0  0
    7.1060    0.4272    0.5136 H   0  0  0  0  0  0  0  0  0  0  0  0
    6.6012    1.3453   -0.8966 H   0  0  0  0  0  0  0  0  0  0  0  0
    4.7581   -0.2792   -1.3063 H   0  0  0  0  0  0  0  0  0  0  0  0
    6.3239   -1.0711   -1.3215 H   0  0  0  0  0  0  0  0  0  0  0  0
    5.9032   -2.2743    0.6079 H   0  0  0  0  0  0  0  0  0  0  0  0
    4.2544   -2.0614    0.0590 H   0  0  0  0  0  0  0  0  0  0  0  0
    4.0949   -1.4397    2.3133 H   0  0  0  0  0  0  0  0  0  0  0  0
    5.7205   -0.7762    2.3561 H   0  0  0  0  0  0  0  0  0  0  0  0
   -1.3785    1.7248   -1.9476 H   0  0  0  0  0  0  0  0  0  0  0  0
   -3.8076    1.4879   -1.9949 H   0  0  0  0  0  0  0  0  0  0  0  0
  1  2  1  0
  2  3  1  0
  3  4  1  0
  3  5  1  0
  5  6  2  0
  6  7  1  0
  7  8  2  0
  8  9  1  0
  9 10  1  0
  9 11  1  0
 11 12  1  0
 12 13  2  0
 12 14  1  0
 14 15  1  0
 15 16  1  0
 16 17  1  0
 17 18  1  0
 18 19  1  0
 19 20  1  0
  8 21  1  0
 21 22  2  0
 22  5  1  0
 20 15  1  0
  1 23  1  0
  1 24  1  0
  1 25  1  0
  2 26  1  0
  2 27  1  0
  3 28  1  0
  4 29  1  0
  4 30  1  0
  4 31  1  0
  6 32  1  0
  7 33  1  0
  9 34  1  0
 10 35  1  0
 10 36  1  0
 10 37  1  0
 11 38  1  0
 14 39  1  0
 15 40  1  0
 16 41  1  0
 16 42  1  0
 17 43  1  0
 17 44  1  0
 18 45  1  0
 18 46  1  0
 19 47  1  0
 19 48  1  0
 20 49  1  0
 20 50  1  0
 21 51  1  0
 22 52  1  0
M  END
$$$$
