
     RDKit          3D

 47 49  0  0  0  0  0  0  0  0999 V2000
   -6.1697    1.9447   -0.6158 C   0  0  0  0  0  0  0  0  0  0  0  0
   -6.5023    0.5067   -0.2582 C   0  0  0  0  0  0  0  0  0  0  0  0
   -5.5781   -0.3917   -0.8705 O   0  0  0  0  0  0  0  0  0  0  0  0
   -4.4553   -0.7553   -0.1824 C   0  0  0  0  0  0  0  0  0  0  0  0
   -3.9982   -0.1925    1.0113 C   0  0  0  0  0  0  0  0  0  0  0  0
   -2.8197   -0.6578    1.6049 C   0  0  0  0  0  0  0  0  0  0  0  0
   -2.0970   -1.6840    0.9930 C   0  0  0  0  0  0  0  0  0  0  0  0
   -0.5966   -2.2817    1.7263 S   0  0  0  0  0  6  0  0  0  0  0  0
   -0.6623   -3.7270    1.7282 O   0  0  0  0  0  0  0  0  0  0  0  0
   -0.3475   -1.5391    2.9440 O   0  0  0  0  0  0  0  0  0  0  0  0
    0.5942   -1.8051    0.5958 N   0  0  0  0  0  0  0  0  0  0  0  0
    0.6772   -0.3284    0.3477 C   0  0  0  0  0  0  0  0  0  0  0  0
    1.9693    0.0535   -0.3895 C   0  0  0  0  0  0  0  0  0  0  0  0
    3.1708   -0.3503    0.3515 N   0  0  0  0  0  0  0  0  0  0  0  0
    4.3618    0.3653    0.3898 C   0  0  0  0  0  0  0  0  0  0  0  0
    5.2397    0.1677    1.2255 O   0  0  0  0  0  0  0  0  0  0  0  0
    4.5988    1.4191   -0.6188 C   0  0  0  0  0  0  0  0  0  0  0  0
    4.9825    2.6853   -0.1839 C   0  0  0  0  0  0  0  0  0  0  0  0
    5.2139    3.6485   -1.1463 C   0  0  0  0  0  0  0  0  0  0  0  0
    5.0964    3.4235   -2.4739 N   0  0  0  0  0  0  0  0  0  0  0  0
    4.7585    2.1745   -2.8622 C   0  0  0  0  0  0  0  0  0  0  0  0
    4.5042    1.1409   -1.9810 C   0  0  0  0  0  0  0  0  0  0  0  0
    2.9959   -1.4509    1.3018 C   0  0  0  0  0  0  0  0  0  0  0  0
    1.9329   -2.4500    0.8359 C   0  0  0  0  0  0  0  0  0  0  0  0
   -2.5449   -2.2581   -0.1974 C   0  0  0  0  0  0  0  0  0  0  0  0
   -3.7204   -1.7850   -0.7819 C   0  0  0  0  0  0  0  0  0  0  0  0
   -5.1857    2.2347   -0.2357 H   0  0  0  0  0  0  0  0  0  0  0  0
   -6.9176    2.6282   -0.2039 H   0  0  0  0  0  0  0  0  0  0  0  0
   -6.1387    2.0713   -1.7031 H   0  0  0  0  0  0  0  0  0  0  0  0
   -6.5870    0.3531    0.8233 H   0  0  0  0  0  0  0  0  0  0  0  0
   -7.4880    0.2667   -0.6731 H   0  0  0  0  0  0  0  0  0  0  0  0
   -4.5303    0.6135    1.5056 H   0  0  0  0  0  0  0  0  0  0  0  0
   -2.4782   -0.2156    2.5385 H   0  0  0  0  0  0  0  0  0  0  0  0
   -0.1763   -0.0242   -0.2667 H   0  0  0  0  0  0  0  0  0  0  0  0
    0.6346    0.2169    1.2974 H   0  0  0  0  0  0  0  0  0  0  0  0
    1.9805    1.1333   -0.5657 H   0  0  0  0  0  0  0  0  0  0  0  0
    2.0067   -0.4557   -1.3595 H   0  0  0  0  0  0  0  0  0  0  0  0
    5.1008    2.9083    0.8708 H   0  0  0  0  0  0  0  0  0  0  0  0
    5.5122    4.6565   -0.8713 H   0  0  0  0  0  0  0  0  0  0  0  0
    4.7026    2.0241   -3.9368 H   0  0  0  0  0  0  0  0  0  0  0  0
    4.2598    0.1503   -2.3454 H   0  0  0  0  0  0  0  0  0  0  0  0
    3.9536   -1.9638    1.4447 H   0  0  0  0  0  0  0  0  0  0  0  0
    2.7108   -1.0077    2.2637 H   0  0  0  0  0  0  0  0  0  0  0  0
    2.2397   -2.9069   -0.1132 H   0  0  0  0  0  0  0  0  0  0  0  0
    1.8605   -3.2633    1.5652 H   0  0  0  0  0  0  0  0  0  0  0  0
   -1.9890   -3.0659   -0.6680 H   0  0  0  0  0  0  0  0  0  0  0  0
   -4.0750   -2.2267   -1.7108 H   0  0  0  0  0  0  0  0  0  0  0  0
  1  2  1  0
  2  3  1  0
  3  4  1  0
  4  5  2  0
  5  6  1  0
  6  7  2  0
  7  8  1  0
  8  9  2  0
  8 10  2  0
  8 11  1  0
 11 12  1  0
 12 13  1  0
 13 14  1  0
 14 15  1  0
 15 16  2  0
 15 17  1  0
 17 18  2  0
 18 19  1  0
 19 20  2  0
 20 21  1  0
 21 22  2  0
 14 23  1  0
 23 24  1  0
  7 25  1  0
 25 26  2  0
 26  4  1  0
 24 11  1  0
 22 17  1  0
  1 27  1  0
  1 28  1  0
  1 29  1  0
  2 30  1  0
  2 31  1  0
  5 32  1  0
  6 33  1  0
 12 34  1  0
 12 35  1  0
 13 36  1  0
 13 37  1  0
 18 38  1  0
 19 39  1  0
 21 40  1  0
 22 41  1  0
 23 42  1  0
 23 43  1  0
 24 44  1  0
 24 45  1  0
 25 46  1  0
 26 47  1  0
M  END
$$$$
