
     RDKit          3D

 48 50  0  0  0  0  0  0  0  0999 V2000
   -1.8765    1.6905   -2.3230 O   0  0  0  0  0  0  0  0  0  0  0  0
   -1.5597    1.0702   -1.3107 C   0  0  0  0  0  0  0  0  0  0  0  0
   -0.4012    1.4413   -0.4092 C   0  0  0  0  0  0  0  0  0  0  0  0
    0.3294    2.6907   -0.9014 C   0  0  0  0  0  0  0  0  0  0  0  0
    1.4132    3.1782    0.0655 C   0  0  0  0  0  0  0  0  0  0  0  0
    2.5512    2.2626    0.1710 N   0  0  0  0  0  0  0  0  0  0  0  0
    2.5580    1.3176    1.1831 C   0  0  0  0  0  0  0  0  0  0  0  0
    1.6840    1.1587    2.0250 O   0  0  0  0  0  0  0  0  0  0  0  0
    3.7862    0.4867    1.1072 C   0  0  0  0  0  0  0  0  0  0  0  0
    4.0159   -0.5155    1.9654 C   0  0  0  0  0  0  0  0  0  0  0  0
    5.1908   -1.3963    1.9311 C   0  0  0  0  0  0  0  0  0  0  0  0
    6.3102   -1.0438    2.6987 C   0  0  0  0  0  0  0  0  0  0  0  0
    7.4545   -1.8445    2.6914 C   0  0  0  0  0  0  0  0  0  0  0  0
    7.4920   -3.0036    1.9187 C   0  0  0  0  0  0  0  0  0  0  0  0
    6.3845   -3.3655    1.1513 C   0  0  0  0  0  0  0  0  0  0  0  0
    5.2374   -2.5667    1.1558 C   0  0  0  0  0  0  0  0  0  0  0  0
    3.8948   -3.0711    0.1885 Cl  0  0  0  0  0  0  0  0  0  0  0  0
    4.7708    1.0008   -0.2003 S   0  0  0  0  0  0  0  0  0  0  0  0
    3.6396    2.2609   -0.6797 C   0  0  0  0  0  0  0  0  0  0  0  0
    3.9348    3.2613   -1.9816 S   0  0  0  0  0  0  0  0  0  0  0  0
   -2.2334   -0.0606   -0.8873 N   0  0  0  0  0  0  0  0  0  0  0  0
   -3.4624   -0.3349   -1.5197 N   0  0  0  0  0  0  0  0  0  0  0  0
   -4.5238   -0.6603   -0.6947 C   0  0  0  0  0  0  0  0  0  0  0  0
   -4.3815   -0.8804    0.5060 O   0  0  0  0  0  0  0  0  0  0  0  0
   -5.8735   -0.6974   -1.3241 C   0  0  0  0  0  0  0  0  0  0  0  0
   -6.9962   -0.5694   -0.4933 C   0  0  0  0  0  0  0  0  0  0  0  0
   -8.2837   -0.6001   -1.0361 C   0  0  0  0  0  0  0  0  0  0  0  0
   -8.4510   -0.7670   -2.4092 C   0  0  0  0  0  0  0  0  0  0  0  0
  -10.0345   -0.8065   -3.0791 Cl  0  0  0  0  0  0  0  0  0  0  0  0
   -7.3426   -0.9090   -3.2433 C   0  0  0  0  0  0  0  0  0  0  0  0
   -6.0524   -0.8782   -2.7029 C   0  0  0  0  0  0  0  0  0  0  0  0
   -0.7964    1.6107    0.5990 H   0  0  0  0  0  0  0  0  0  0  0  0
    0.2838    0.5871   -0.3784 H   0  0  0  0  0  0  0  0  0  0  0  0
   -0.3978    3.5020   -1.0329 H   0  0  0  0  0  0  0  0  0  0  0  0
    0.7584    2.4951   -1.8911 H   0  0  0  0  0  0  0  0  0  0  0  0
    0.9773    3.3296    1.0602 H   0  0  0  0  0  0  0  0  0  0  0  0
    1.7754    4.1568   -0.2672 H   0  0  0  0  0  0  0  0  0  0  0  0
    3.2969   -0.7434    2.7502 H   0  0  0  0  0  0  0  0  0  0  0  0
    6.3012   -0.1408    3.3060 H   0  0  0  0  0  0  0  0  0  0  0  0
    8.3185   -1.5616    3.2884 H   0  0  0  0  0  0  0  0  0  0  0  0
    8.3840   -3.6255    1.9128 H   0  0  0  0  0  0  0  0  0  0  0  0
    6.4213   -4.2711    0.5511 H   0  0  0  0  0  0  0  0  0  0  0  0
   -2.1833   -0.3532    0.0903 H   0  0  0  0  0  0  0  0  0  0  0  0
   -3.6127    0.1774   -2.3888 H   0  0  0  0  0  0  0  0  0  0  0  0
   -6.8713   -0.4432    0.5811 H   0  0  0  0  0  0  0  0  0  0  0  0
   -9.1464   -0.4964   -0.3830 H   0  0  0  0  0  0  0  0  0  0  0  0
   -7.4762   -1.0514   -4.3130 H   0  0  0  0  0  0  0  0  0  0  0  0
   -5.2074   -1.0207   -3.3712 H   0  0  0  0  0  0  0  0  0  0  0  0
  1  2  2  0
  2  3  1  0
  3  4  1  0
  4  5  1  0
  5  6  1  0
  6  7  1  0
  7  8  2  0
  7  9  1  0
  9 10  2  3
 10 11  1  0
 11 12  2  0
 12 13  1  0
 13 14  2  0
 14 15  1  0
 15 16  2  0
 16 17  1  0
  9 18  1  0
 18 19  1  0
 19 20  2  0
  2 21  1  0
 21 22  1  0
 22 23  1  0
 23 24  2  0
 23 25  1  0
 25 26  2  0
 26 27  1  0
 27 28  2  0
 28 29  1  0
 28 30  1  0
 30 31  2  0
 19  6  1  0
 31 25  1  0
 16 11  1  0
  3 32  1  0
  3 33  1  0
  4 34  1  0
  4 35  1  0
  5 36  1  0
  5 37  1  0
 10 38  1  0
 12 39  1  0
 13 40  1  0
 14 41  1  0
 15 42  1  0
 21 43  1  0
 22 44  1  0
 26 45  1  0
 27 46  1  0
 30 47  1  0
 31 48  1  0
M  END
$$$$
