
     RDKit          3D

 40 41  0  0  0  0  0  0  0  0999 V2000
   -5.4606   -0.2404    0.0813 C   0  0  0  0  0  0  0  0  0  0  0  0
   -4.0414   -0.7052   -0.2490 C   0  0  0  0  0  0  0  0  0  0  0  0
   -3.3885    0.1934   -1.3168 C   0  0  0  0  0  0  0  0  0  0  0  0
   -2.4878    1.2552   -0.6929 C   0  0  0  0  0  0  0  0  0  0  0  0
   -1.3266    0.6390    0.1144 C   0  0  0  0  0  0  0  0  0  0  0  0
   -0.1432    0.5272   -0.7545 N   0  0  0  0  0  0  0  0  0  0  0  0
    1.0849    0.1937   -0.0021 C   0  0  0  0  0  0  0  0  0  0  0  0
    2.3112    0.2758   -0.9434 C   0  0  0  0  0  0  0  0  0  0  0  0
    2.3155    1.5571   -1.5844 O   0  0  0  0  0  0  0  0  0  0  0  0
    3.6056    0.0443   -0.1964 C   0  0  0  0  0  0  0  0  0  0  0  0
    4.3148    1.1048    0.3870 C   0  0  0  0  0  0  0  0  0  0  0  0
    5.4916    0.8690    1.1001 C   0  0  0  0  0  0  0  0  0  0  0  0
    5.9723   -0.4307    1.2431 C   0  0  0  0  0  0  0  0  0  0  0  0
    5.2775   -1.4952    0.6729 C   0  0  0  0  0  0  0  0  0  0  0  0
    4.1005   -1.2603   -0.0410 C   0  0  0  0  0  0  0  0  0  0  0  0
   -1.7108   -0.7223    0.7305 C   0  0  0  0  0  0  0  0  0  0  0  0
   -3.2020   -0.7969    1.0383 C   0  0  0  0  0  0  0  0  0  0  0  0
   -6.0918   -0.2539   -0.8135 H   0  0  0  0  0  0  0  0  0  0  0  0
   -5.4633    0.7790    0.4818 H   0  0  0  0  0  0  0  0  0  0  0  0
   -5.9215   -0.8994    0.8247 H   0  0  0  0  0  0  0  0  0  0  0  0
   -4.1243   -1.7126   -0.6785 H   0  0  0  0  0  0  0  0  0  0  0  0
   -4.1504    0.6698   -1.9446 H   0  0  0  0  0  0  0  0  0  0  0  0
   -2.7858   -0.4306   -1.9894 H   0  0  0  0  0  0  0  0  0  0  0  0
   -2.1092    1.9297   -1.4713 H   0  0  0  0  0  0  0  0  0  0  0  0
   -3.0909    1.8851   -0.0254 H   0  0  0  0  0  0  0  0  0  0  0  0
   -1.0972    1.3478    0.9210 H   0  0  0  0  0  0  0  0  0  0  0  0
   -0.3101   -0.1881   -1.4644 H   0  0  0  0  0  0  0  0  0  0  0  0
    1.2089    0.9208    0.8104 H   0  0  0  0  0  0  0  0  0  0  0  0
    1.0193   -0.8070    0.4394 H   0  0  0  0  0  0  0  0  0  0  0  0
    2.2167   -0.4675   -1.7447 H   0  0  0  0  0  0  0  0  0  0  0  0
    1.3668    1.7758   -1.6855 H   0  0  0  0  0  0  0  0  0  0  0  0
    3.9532    2.1258    0.2790 H   0  0  0  0  0  0  0  0  0  0  0  0
    6.0334    1.7021    1.5399 H   0  0  0  0  0  0  0  0  0  0  0  0
    6.8899   -0.6127    1.7960 H   0  0  0  0  0  0  0  0  0  0  0  0
    5.6538   -2.5089    0.7821 H   0  0  0  0  0  0  0  0  0  0  0  0
    3.5729   -2.1043   -0.4794 H   0  0  0  0  0  0  0  0  0  0  0  0
   -1.4545   -1.5464    0.0512 H   0  0  0  0  0  0  0  0  0  0  0  0
   -1.1338   -0.8864    1.6486 H   0  0  0  0  0  0  0  0  0  0  0  0
   -3.4297   -1.7374    1.5541 H   0  0  0  0  0  0  0  0  0  0  0  0
   -3.4655    0.0107    1.7332 H   0  0  0  0  0  0  0  0  0  0  0  0
  1  2  1  0
  2  3  1  0
  3  4  1  0
  4  5  1  0
  5  6  1  0
  6  7  1  0
  7  8  1  0
  8  9  1  0
  8 10  1  0
 10 11  2  0
 11 12  1  0
 12 13  2  0
 13 14  1  0
 14 15  2  0
  5 16  1  0
 16 17  1  0
 17  2  1  0
 15 10  1  0
  1 18  1  0
  1 19  1  0
  1 20  1  0
  2 21  1  0
  3 22  1  0
  3 23  1  0
  4 24  1  0
  4 25  1  0
  5 26  1  0
  6 27  1  0
  7 28  1  0
  7 29  1  0
  8 30  1  0
  9 31  1  0
 11 32  1  0
 12 33  1  0
 13 34  1  0
 14 35  1  0
 15 36  1  0
 16 37  1  0
 16 38  1  0
 17 39  1  0
 17 40  1  0
M  END
$$$$
