
     RDKit          3D

 47 49  0  0  0  0  0  0  0  0999 V2000
    3.6101    3.3266   -4.0408 C   0  0  0  0  0  0  0  0  0  0  0  0
    3.0638    2.5150   -2.8981 C   0  0  0  0  0  0  0  0  0  0  0  0
    3.3572    1.1465   -2.8271 C   0  0  0  0  0  0  0  0  0  0  0  0
    2.8713    0.3635   -1.7786 C   0  0  0  0  0  0  0  0  0  0  0  0
    2.0868    0.9294   -0.7661 C   0  0  0  0  0  0  0  0  0  0  0  0
    1.5390    0.0414    0.3369 C   0  0  0  0  0  0  0  0  0  0  0  0
    1.6576    0.6615    1.7325 C   0  0  0  0  0  0  0  0  0  0  0  0
    0.1612   -0.2940    0.0251 N   0  0  0  0  0  0  0  0  0  0  0  0
   -0.4569   -1.4090    0.5420 C   0  0  0  0  0  0  0  0  0  0  0  0
    0.1135   -2.1952    1.2886 O   0  0  0  0  0  0  0  0  0  0  0  0
   -1.8438   -1.5620    0.1570 C   0  0  0  0  0  0  0  0  0  0  0  0
   -2.9391   -2.0825    0.9179 C   0  0  0  0  0  0  0  0  0  0  0  0
   -2.9818   -2.5448    2.3069 C   0  0  0  0  0  0  0  0  0  0  0  0
   -2.2723   -1.8845    3.3193 C   0  0  0  0  0  0  0  0  0  0  0  0
   -2.3369   -2.3335    4.6417 C   0  0  0  0  0  0  0  0  0  0  0  0
   -3.1169   -3.4411    4.9674 C   0  0  0  0  0  0  0  0  0  0  0  0
   -3.8355   -4.1009    3.9733 C   0  0  0  0  0  0  0  0  0  0  0  0
   -3.7701   -3.6541    2.6513 C   0  0  0  0  0  0  0  0  0  0  0  0
   -4.0594   -2.0899    0.1740 N   0  0  0  0  0  0  0  0  0  0  0  0
   -3.7167   -1.5943   -1.0602 O   0  0  0  0  0  0  0  0  0  0  0  0
   -2.3959   -1.2911   -1.0808 C   0  0  0  0  0  0  0  0  0  0  0  0
   -1.8750   -0.8013   -2.3731 C   0  0  0  0  0  0  0  0  0  0  0  0
    1.7858    2.2990   -0.8435 C   0  0  0  0  0  0  0  0  0  0  0  0
    2.2730    3.1003   -1.8913 C   0  0  0  0  0  0  0  0  0  0  0  0
    1.9224    4.5635   -1.9226 C   0  0  0  0  0  0  0  0  0  0  0  0
    4.3190    4.0735   -3.6697 H   0  0  0  0  0  0  0  0  0  0  0  0
    2.7979    3.8276   -4.5771 H   0  0  0  0  0  0  0  0  0  0  0  0
    4.1386    2.6970   -4.7645 H   0  0  0  0  0  0  0  0  0  0  0  0
    3.9689    0.6753   -3.5939 H   0  0  0  0  0  0  0  0  0  0  0  0
    3.1104   -0.6983   -1.7612 H   0  0  0  0  0  0  0  0  0  0  0  0
    2.1140   -0.8938    0.3560 H   0  0  0  0  0  0  0  0  0  0  0  0
    1.0064    1.5343    1.8518 H   0  0  0  0  0  0  0  0  0  0  0  0
    2.6875    0.9725    1.9387 H   0  0  0  0  0  0  0  0  0  0  0  0
    1.3641   -0.0589    2.5041 H   0  0  0  0  0  0  0  0  0  0  0  0
   -0.3910    0.4025   -0.4541 H   0  0  0  0  0  0  0  0  0  0  0  0
   -1.6633   -1.0123    3.0986 H   0  0  0  0  0  0  0  0  0  0  0  0
   -1.7765   -1.8172    5.4167 H   0  0  0  0  0  0  0  0  0  0  0  0
   -3.1656   -3.7891    5.9959 H   0  0  0  0  0  0  0  0  0  0  0  0
   -4.4477   -4.9631    4.2238 H   0  0  0  0  0  0  0  0  0  0  0  0
   -4.3396   -4.1801    1.8872 H   0  0  0  0  0  0  0  0  0  0  0  0
   -0.8722   -1.1945   -2.5657 H   0  0  0  0  0  0  0  0  0  0  0  0
   -1.8266    0.2918   -2.3748 H   0  0  0  0  0  0  0  0  0  0  0  0
   -2.5186   -1.1140   -3.2017 H   0  0  0  0  0  0  0  0  0  0  0  0
    1.1601    2.7574   -0.0803 H   0  0  0  0  0  0  0  0  0  0  0  0
    1.3784    4.8661   -1.0214 H   0  0  0  0  0  0  0  0  0  0  0  0
    1.2850    4.7807   -2.7854 H   0  0  0  0  0  0  0  0  0  0  0  0
    2.8293    5.1741   -1.9745 H   0  0  0  0  0  0  0  0  0  0  0  0
  1  2  1  0
  2  3  2  0
  3  4  1  0
  4  5  2  0
  5  6  1  0
  6  7  1  0
  6  8  1  0
  8  9  1  0
  9 10  2  0
  9 11  1  0
 11 12  1  0
 12 13  1  0
 13 14  2  0
 14 15  1  0
 15 16  2  0
 16 17  1  0
 17 18  2  0
 12 19  2  0
 19 20  1  0
 20 21  1  0
 21 22  1  0
  5 23  1  0
 23 24  2  0
 24 25  1  0
 24  2  1  0
 21 11  2  0
 18 13  1  0
  1 26  1  0
  1 27  1  0
  1 28  1  0
  3 29  1  0
  4 30  1  0
  6 31  1  0
  7 32  1  0
  7 33  1  0
  7 34  1  0
  8 35  1  0
 14 36  1  0
 15 37  1  0
 16 38  1  0
 17 39  1  0
 18 40  1  0
 22 41  1  0
 22 42  1  0
 22 43  1  0
 23 44  1  0
 25 45  1  0
 25 46  1  0
 25 47  1  0
M  END
$$$$
