
     RDKit          3D

 49 52  0  0  0  0  0  0  0  0999 V2000
    0.2099   -0.5197    4.4317 O   0  0  0  0  0  0  0  0  0  0  0  0
    0.9277   -0.6385    3.4416 C   0  0  0  0  0  0  0  0  0  0  0  0
    2.4467   -0.7847    3.5844 C   0  0  0  0  0  0  0  0  0  0  0  0
    3.0635   -1.4227    2.4182 N   0  0  0  0  0  0  0  0  0  0  0  0
    3.2401   -0.6335    1.2962 N   0  0  0  0  0  0  0  0  0  0  0  0
    3.7714   -1.1810    0.2446 C   0  0  0  0  0  0  0  0  0  0  0  0
    3.9609   -0.3504   -0.9786 C   0  0  0  0  0  0  0  0  0  0  0  0
    3.8116   -0.8855   -2.2666 C   0  0  0  0  0  0  0  0  0  0  0  0
    3.9791   -0.0655   -3.3858 C   0  0  0  0  0  0  0  0  0  0  0  0
    4.2850    1.2803   -3.2152 C   0  0  0  0  0  0  0  0  0  0  0  0
    4.4420    2.0613   -4.2912 F   0  0  0  0  0  0  0  0  0  0  0  0
    4.4219    1.8277   -1.9451 C   0  0  0  0  0  0  0  0  0  0  0  0
    4.2553    1.0132   -0.8235 C   0  0  0  0  0  0  0  0  0  0  0  0
    4.2140   -2.5899    0.1802 C   0  0  0  0  0  0  0  0  0  0  0  0
    3.9945   -3.3418    1.2592 C   0  0  0  0  0  0  0  0  0  0  0  0
    3.3575   -2.7786    2.4656 C   0  0  0  0  0  0  0  0  0  0  0  0
    3.1429   -3.5150    3.4230 O   0  0  0  0  0  0  0  0  0  0  0  0
    0.5217   -0.5019    2.1251 N   0  0  0  0  0  0  0  0  0  0  0  0
   -0.7750   -0.3158    1.6212 C   0  0  0  0  0  0  0  0  0  0  0  0
   -0.9002   -0.1241    0.2389 C   0  0  0  0  0  0  0  0  0  0  0  0
   -2.1564    0.0701   -0.3463 C   0  0  0  0  0  0  0  0  0  0  0  0
   -3.3045    0.0750    0.4528 C   0  0  0  0  0  0  0  0  0  0  0  0
   -4.6632    0.2730   -0.1213 C   0  0  0  0  0  0  0  0  0  0  0  0
   -5.6338   -0.2641    0.4010 O   0  0  0  0  0  0  0  0  0  0  0  0
   -4.7374    1.0999   -1.2277 N   0  0  0  0  0  0  0  0  0  0  0  0
   -5.9866    1.4367   -1.8351 C   0  0  0  0  0  0  0  0  0  0  0  0
   -6.0472    2.4161   -2.9752 C   0  0  0  0  0  0  0  0  0  0  0  0
   -6.5901    2.7981   -1.6295 C   0  0  0  0  0  0  0  0  0  0  0  0
   -3.1850   -0.1393    1.8293 C   0  0  0  0  0  0  0  0  0  0  0  0
   -1.9255   -0.3276    2.4106 C   0  0  0  0  0  0  0  0  0  0  0  0
    2.6526   -1.3728    4.4844 H   0  0  0  0  0  0  0  0  0  0  0  0
    2.8834    0.2124    3.7060 H   0  0  0  0  0  0  0  0  0  0  0  0
    3.5435   -1.9271   -2.4215 H   0  0  0  0  0  0  0  0  0  0  0  0
    3.8667   -0.4648   -4.3896 H   0  0  0  0  0  0  0  0  0  0  0  0
    4.6557    2.8823   -1.8357 H   0  0  0  0  0  0  0  0  0  0  0  0
    4.3630    1.4461    0.1694 H   0  0  0  0  0  0  0  0  0  0  0  0
    4.7126   -2.9848   -0.6938 H   0  0  0  0  0  0  0  0  0  0  0  0
    4.2836   -4.3839    1.3112 H   0  0  0  0  0  0  0  0  0  0  0  0
    1.2930   -0.5133    1.4578 H   0  0  0  0  0  0  0  0  0  0  0  0
   -0.0204   -0.1262   -0.4002 H   0  0  0  0  0  0  0  0  0  0  0  0
   -2.2216    0.1857   -1.4244 H   0  0  0  0  0  0  0  0  0  0  0  0
   -3.9240    1.6423   -1.4871 H   0  0  0  0  0  0  0  0  0  0  0  0
   -6.6791    0.5975   -1.8817 H   0  0  0  0  0  0  0  0  0  0  0  0
   -6.7575    2.2184   -3.7702 H   0  0  0  0  0  0  0  0  0  0  0  0
   -5.1336    2.8937   -3.3067 H   0  0  0  0  0  0  0  0  0  0  0  0
   -7.6658    2.8529   -1.5060 H   0  0  0  0  0  0  0  0  0  0  0  0
   -6.0402    3.5216   -1.0396 H   0  0  0  0  0  0  0  0  0  0  0  0
   -4.0728   -0.1598    2.4593 H   0  0  0  0  0  0  0  0  0  0  0  0
   -1.8800   -0.4918    3.4834 H   0  0  0  0  0  0  0  0  0  0  0  0
  1  2  2  0
  2  3  1  0
  3  4  1  0
  4  5  1  0
  5  6  2  0
  6  7  1  0
  7  8  2  0
  8  9  1  0
  9 10  2  0
 10 11  1  0
 10 12  1  0
 12 13  2  0
  6 14  1  0
 14 15  2  0
 15 16  1  0
 16 17  2  0
  2 18  1  0
 18 19  1  0
 19 20  2  0
 20 21  1  0
 21 22  2  0
 22 23  1  0
 23 24  2  0
 23 25  1  0
 25 26  1  0
 26 27  1  0
 27 28  1  0
 22 29  1  0
 29 30  2  0
 16  4  1  0
 30 19  1  0
 13  7  1  0
 28 26  1  0
  3 31  1  0
  3 32  1  0
  8 33  1  0
  9 34  1  0
 12 35  1  0
 13 36  1  0
 14 37  1  0
 15 38  1  0
 18 39  1  0
 20 40  1  0
 21 41  1  0
 25 42  1  0
 26 43  1  0
 27 44  1  0
 27 45  1  0
 28 46  1  0
 28 47  1  0
 29 48  1  0
 30 49  1  0
M  END
$$$$
