
     RDKit          3D

 37 38  0  0  0  0  0  0  0  0999 V2000
   -2.6043    1.8547    1.8583 C   0  0  0  0  0  0  0  0  0  0  0  0
   -2.3660    0.4846    2.1812 O   0  0  0  0  0  0  0  0  0  0  0  0
   -2.2811   -0.2744    1.0404 C   0  0  0  0  0  0  0  0  0  0  0  0
   -3.4402   -0.5326    0.2972 C   0  0  0  0  0  0  0  0  0  0  0  0
   -3.3855   -1.3161   -0.8555 C   0  0  0  0  0  0  0  0  0  0  0  0
   -4.5602   -1.6598   -1.5363 N   0  0  0  0  0  0  0  0  0  0  0  0
   -2.1788   -1.9365   -1.1796 C   0  0  0  0  0  0  0  0  0  0  0  0
   -1.0239   -1.7009   -0.4246 C   0  0  0  0  0  0  0  0  0  0  0  0
   -1.0515   -0.8492    0.6902 C   0  0  0  0  0  0  0  0  0  0  0  0
    0.1842   -0.6259    1.5397 C   0  0  0  0  0  0  0  0  0  0  0  0
    1.4831   -0.4487    0.7741 C   0  0  0  0  0  0  0  0  0  0  0  0
    2.4101   -1.5025    0.7396 C   0  0  0  0  0  0  0  0  0  0  0  0
    3.6074   -1.3736    0.0346 C   0  0  0  0  0  0  0  0  0  0  0  0
    3.9259   -0.1785   -0.6083 C   0  0  0  0  0  0  0  0  0  0  0  0
    5.0768   -0.0935   -1.4039 N   0  0  0  0  0  0  0  0  0  0  0  0
    2.9785    0.8514   -0.6263 C   0  0  0  0  0  0  0  0  0  0  0  0
    1.7680    0.7351    0.0704 C   0  0  0  0  0  0  0  0  0  0  0  0
    0.8146    1.7184    0.1367 O   0  0  0  0  0  0  0  0  0  0  0  0
    0.9214    2.7874   -0.7937 C   0  0  0  0  0  0  0  0  0  0  0  0
   -2.4250    2.4464    2.7610 H   0  0  0  0  0  0  0  0  0  0  0  0
   -1.9226    2.2130    1.0786 H   0  0  0  0  0  0  0  0  0  0  0  0
   -3.6452    2.0087    1.5559 H   0  0  0  0  0  0  0  0  0  0  0  0
   -4.3900   -0.1292    0.6339 H   0  0  0  0  0  0  0  0  0  0  0  0
   -4.4047   -1.9516   -2.4960 H   0  0  0  0  0  0  0  0  0  0  0  0
   -5.2972   -0.9667   -1.4568 H   0  0  0  0  0  0  0  0  0  0  0  0
   -2.1238   -2.6206   -2.0222 H   0  0  0  0  0  0  0  0  0  0  0  0
   -0.1035   -2.2019   -0.7149 H   0  0  0  0  0  0  0  0  0  0  0  0
    0.2711   -1.4771    2.2280 H   0  0  0  0  0  0  0  0  0  0  0  0
    0.0675    0.2543    2.1841 H   0  0  0  0  0  0  0  0  0  0  0  0
    2.1957   -2.4387    1.2504 H   0  0  0  0  0  0  0  0  0  0  0  0
    4.2920   -2.2166   -0.0024 H   0  0  0  0  0  0  0  0  0  0  0  0
    5.8264   -0.7086   -1.1026 H   0  0  0  0  0  0  0  0  0  0  0  0
    5.3992    0.8564   -1.5583 H   0  0  0  0  0  0  0  0  0  0  0  0
    3.2126    1.7493   -1.1869 H   0  0  0  0  0  0  0  0  0  0  0  0
    0.9722    2.4185   -1.8237 H   0  0  0  0  0  0  0  0  0  0  0  0
    1.7785    3.4262   -0.5580 H   0  0  0  0  0  0  0  0  0  0  0  0
    0.0181    3.3986   -0.7042 H   0  0  0  0  0  0  0  0  0  0  0  0
  1  2  1  0
  2  3  1  0
  3  4  2  0
  4  5  1  0
  5  6  1  0
  5  7  2  0
  7  8  1  0
  8  9  2  0
  9 10  1  0
 10 11  1  0
 11 12  2  0
 12 13  1  0
 13 14  2  0
 14 15  1  0
 14 16  1  0
 16 17  2  0
 17 18  1  0
 18 19  1  0
  9  3  1  0
 17 11  1  0
  1 20  1  0
  1 21  1  0
  1 22  1  0
  4 23  1  0
  6 24  1  0
  6 25  1  0
  7 26  1  0
  8 27  1  0
 10 28  1  0
 10 29  1  0
 12 30  1  0
 13 31  1  0
 15 32  1  0
 15 33  1  0
 16 34  1  0
 19 35  1  0
 19 36  1  0
 19 37  1  0
M  END
$$$$
