
     RDKit          3D

 45 47  0  0  0  0  0  0  0  0999 V2000
    2.4382    1.8680   -0.3079 O   0  0  0  0  0  0  0  0  0  0  0  0
    2.2697    0.7577    0.1902 C   0  0  0  0  0  0  0  0  0  0  0  0
    3.2638    0.0944    0.8851 N   0  0  0  0  0  0  0  0  0  0  0  0
    4.5550    0.6522    0.8275 N   0  0  0  0  0  0  0  0  0  0  0  0
    5.6291   -0.2096    0.6712 C   0  0  0  0  0  0  0  0  0  0  0  0
    5.4777   -1.4255    0.8130 O   0  0  0  0  0  0  0  0  0  0  0  0
    6.9041    0.4022    0.3265 C   0  0  0  0  0  0  0  0  0  0  0  0
    8.1053   -0.2538    0.1216 C   0  0  0  0  0  0  0  0  0  0  0  0
    9.1695    0.6351   -0.2052 C   0  0  0  0  0  0  0  0  0  0  0  0
    8.7500    1.9453   -0.2406 C   0  0  0  0  0  0  0  0  0  0  0  0
    7.0856    2.0949    0.1183 S   0  0  0  0  0  0  0  0  0  0  0  0
    0.9717    0.0436    0.0401 C   0  0  0  0  0  0  0  0  0  0  0  0
    0.1348    0.4086   -1.0254 C   0  0  0  0  0  0  0  0  0  0  0  0
   -1.0944   -0.2280   -1.2062 C   0  0  0  0  0  0  0  0  0  0  0  0
   -1.4907   -1.2232   -0.3086 C   0  0  0  0  0  0  0  0  0  0  0  0
   -3.0628   -2.0171   -0.5454 S   0  0  0  0  0  6  0  0  0  0  0  0
   -3.3160   -2.8796    0.5897 O   0  0  0  0  0  0  0  0  0  0  0  0
   -3.0778   -2.5257   -1.8998 O   0  0  0  0  0  0  0  0  0  0  0  0
   -4.1601   -0.7131   -0.4470 N   0  0  0  0  0  0  0  0  0  0  0  0
   -4.2668   -0.0554    0.8751 C   0  0  0  0  0  0  0  0  0  0  0  0
   -4.8901    1.3275    0.6882 C   0  0  0  0  0  0  0  0  0  0  0  0
   -6.0477    1.3338   -0.3130 C   0  0  0  0  0  0  0  0  0  0  0  0
   -6.5829   -0.0698   -0.5602 C   0  0  0  0  0  0  0  0  0  0  0  0
   -5.4867   -1.0123   -1.0614 C   0  0  0  0  0  0  0  0  0  0  0  0
   -0.6713   -1.5910    0.7622 C   0  0  0  0  0  0  0  0  0  0  0  0
    0.5602   -0.9528    0.9386 C   0  0  0  0  0  0  0  0  0  0  0  0
    3.2429   -0.9189    0.9995 H   0  0  0  0  0  0  0  0  0  0  0  0
    4.6127    1.6100    0.4814 H   0  0  0  0  0  0  0  0  0  0  0  0
    8.2085   -1.3304    0.2043 H   0  0  0  0  0  0  0  0  0  0  0  0
   10.1893    0.3282   -0.4041 H   0  0  0  0  0  0  0  0  0  0  0  0
    9.3409    2.8242   -0.4606 H   0  0  0  0  0  0  0  0  0  0  0  0
    0.4423    1.1880   -1.7212 H   0  0  0  0  0  0  0  0  0  0  0  0
   -1.7364    0.0523   -2.0391 H   0  0  0  0  0  0  0  0  0  0  0  0
   -3.2854    0.0676    1.3425 H   0  0  0  0  0  0  0  0  0  0  0  0
   -4.8786   -0.6670    1.5489 H   0  0  0  0  0  0  0  0  0  0  0  0
   -5.2352    1.6949    1.6619 H   0  0  0  0  0  0  0  0  0  0  0  0
   -4.1266    2.0368    0.3452 H   0  0  0  0  0  0  0  0  0  0  0  0
   -6.8482    1.9900    0.0468 H   0  0  0  0  0  0  0  0  0  0  0  0
   -5.7008    1.7581   -1.2637 H   0  0  0  0  0  0  0  0  0  0  0  0
   -7.0053   -0.4628    0.3734 H   0  0  0  0  0  0  0  0  0  0  0  0
   -7.4054   -0.0435   -1.2839 H   0  0  0  0  0  0  0  0  0  0  0  0
   -5.7877   -2.0466   -0.8605 H   0  0  0  0  0  0  0  0  0  0  0  0
   -5.3817   -0.8924   -2.1461 H   0  0  0  0  0  0  0  0  0  0  0  0
   -0.9841   -2.3640    1.4617 H   0  0  0  0  0  0  0  0  0  0  0  0
    1.1711   -1.2313    1.7936 H   0  0  0  0  0  0  0  0  0  0  0  0
  1  2  2  0
  2  3  1  0
  3  4  1  0
  4  5  1  0
  5  6  2  0
  5  7  1  0
  7  8  2  0
  8  9  1  0
  9 10  2  0
 10 11  1  0
  2 12  1  0
 12 13  2  0
 13 14  1  0
 14 15  2  0
 15 16  1  0
 16 17  2  0
 16 18  2  0
 16 19  1  0
 19 20  1  0
 20 21  1  0
 21 22  1  0
 22 23  1  0
 23 24  1  0
 15 25  1  0
 25 26  2  0
 11  7  1  0
 26 12  1  0
 24 19  1  0
  3 27  1  0
  4 28  1  0
  8 29  1  0
  9 30  1  0
 10 31  1  0
 13 32  1  0
 14 33  1  0
 20 34  1  0
 20 35  1  0
 21 36  1  0
 21 37  1  0
 22 38  1  0
 22 39  1  0
 23 40  1  0
 23 41  1  0
 24 42  1  0
 24 43  1  0
 25 44  1  0
 26 45  1  0
M  END
$$$$
