
     RDKit          3D

 44 46  0  0  0  0  0  0  0  0999 V2000
   -5.7014   -2.4898    0.4694 C   0  0  0  0  0  0  0  0  0  0  0  0
   -6.2087   -1.1023    0.1848 C   0  0  0  0  0  0  0  0  0  0  0  0
   -7.5902   -0.8634    0.1312 C   0  0  0  0  0  0  0  0  0  0  0  0
   -8.0774    0.4154   -0.1312 C   0  0  0  0  0  0  0  0  0  0  0  0
   -7.1890    1.4655   -0.3421 C   0  0  0  0  0  0  0  0  0  0  0  0
   -5.8107    1.2408   -0.2913 C   0  0  0  0  0  0  0  0  0  0  0  0
   -5.3119   -0.0393   -0.0287 C   0  0  0  0  0  0  0  0  0  0  0  0
   -3.9837   -0.3660    0.0426 O   0  0  0  0  0  0  0  0  0  0  0  0
   -3.0360    0.6675   -0.1647 C   0  0  0  0  0  0  0  0  0  0  0  0
   -1.5981    0.1401   -0.0520 C   0  0  0  0  0  0  0  0  0  0  0  0
   -1.3437   -1.0349    0.1884 O   0  0  0  0  0  0  0  0  0  0  0  0
   -0.6766    1.1504   -0.2547 N   0  0  0  0  0  0  0  0  0  0  0  0
    0.6909    1.0380   -0.2269 C   0  0  0  0  0  0  0  0  0  0  0  0
    1.4728    2.0739   -0.4353 N   0  0  0  0  0  0  0  0  0  0  0  0
    2.8099    1.7409   -0.3627 N   0  0  0  0  0  0  0  0  0  0  0  0
    2.9864    0.4610   -0.1011 C   0  0  0  0  0  0  0  0  0  0  0  0
    4.3202   -0.2166    0.0417 C   0  0  0  0  0  0  0  0  0  0  0  0
    5.1201   -0.1177   -1.2667 C   0  0  0  0  0  0  0  0  0  0  0  0
    6.5023   -0.7527   -1.1294 C   0  0  0  0  0  0  0  0  0  0  0  0
    7.2810   -0.1584    0.0404 C   0  0  0  0  0  0  0  0  0  0  0  0
    6.4935   -0.2485    1.3441 C   0  0  0  0  0  0  0  0  0  0  0  0
    5.1113    0.3876    1.2125 C   0  0  0  0  0  0  0  0  0  0  0  0
    1.5196   -0.4173    0.0727 S   0  0  0  0  0  0  0  0  0  0  0  0
   -6.5251   -3.1976    0.6106 H   0  0  0  0  0  0  0  0  0  0  0  0
   -5.0942   -2.8505   -0.3672 H   0  0  0  0  0  0  0  0  0  0  0  0
   -5.1005   -2.4935    1.3845 H   0  0  0  0  0  0  0  0  0  0  0  0
   -8.2947   -1.6759    0.2943 H   0  0  0  0  0  0  0  0  0  0  0  0
   -9.1493    0.5908   -0.1708 H   0  0  0  0  0  0  0  0  0  0  0  0
   -7.5697    2.4629   -0.5467 H   0  0  0  0  0  0  0  0  0  0  0  0
   -5.1580    2.0893   -0.4620 H   0  0  0  0  0  0  0  0  0  0  0  0
   -3.1576    1.4475    0.5970 H   0  0  0  0  0  0  0  0  0  0  0  0
   -3.1514    1.0870   -1.1716 H   0  0  0  0  0  0  0  0  0  0  0  0
   -0.9897    2.0918   -0.4477 H   0  0  0  0  0  0  0  0  0  0  0  0
    4.1652   -1.2828    0.2585 H   0  0  0  0  0  0  0  0  0  0  0  0
    5.2368    0.9334   -1.5625 H   0  0  0  0  0  0  0  0  0  0  0  0
    4.5736   -0.6105   -2.0805 H   0  0  0  0  0  0  0  0  0  0  0  0
    7.0668   -0.6104   -2.0578 H   0  0  0  0  0  0  0  0  0  0  0  0
    6.3938   -1.8345   -0.9841 H   0  0  0  0  0  0  0  0  0  0  0  0
    8.2375   -0.6816    0.1505 H   0  0  0  0  0  0  0  0  0  0  0  0
    7.5139    0.8922   -0.1729 H   0  0  0  0  0  0  0  0  0  0  0  0
    7.0518    0.2466    2.1466 H   0  0  0  0  0  0  0  0  0  0  0  0
    6.3845   -1.3010    1.6331 H   0  0  0  0  0  0  0  0  0  0  0  0
    4.5585    0.2519    2.1505 H   0  0  0  0  0  0  0  0  0  0  0  0
    5.2274    1.4709    1.0740 H   0  0  0  0  0  0  0  0  0  0  0  0
  1  2  1  0
  2  3  2  0
  3  4  1  0
  4  5  2  0
  5  6  1  0
  6  7  2  0
  7  8  1  0
  8  9  1  0
  9 10  1  0
 10 11  2  0
 10 12  1  0
 12 13  1  0
 13 14  2  0
 14 15  1  0
 15 16  2  0
 16 17  1  0
 17 18  1  0
 18 19  1  0
 19 20  1  0
 20 21  1  0
 21 22  1  0
 16 23  1  0
  7  2  1  0
 23 13  1  0
 22 17  1  0
  1 24  1  0
  1 25  1  0
  1 26  1  0
  3 27  1  0
  4 28  1  0
  5 29  1  0
  6 30  1  0
  9 31  1  0
  9 32  1  0
 12 33  1  0
 17 34  1  0
 18 35  1  0
 18 36  1  0
 19 37  1  0
 19 38  1  0
 20 39  1  0
 20 40  1  0
 21 41  1  0
 21 42  1  0
 22 43  1  0
 22 44  1  0
M  END
$$$$
