
     RDKit          3D

 40 43  0  0  0  0  0  0  0  0999 V2000
   -2.0735    3.9689   -0.4445 C   0  0  0  0  0  0  0  0  0  0  0  0
   -0.7621    3.8213   -0.6832 C   0  0  0  0  0  0  0  0  0  0  0  0
    0.0578    2.5542   -0.6904 C   0  0  0  0  0  0  0  0  0  0  0  0
   -0.7224    1.3760   -0.3129 N   0  0  0  0  0  0  0  0  0  0  0  0
   -0.9068    0.9670    0.9979 C   0  0  0  0  0  0  0  0  0  0  0  0
   -0.1637    1.8866    2.2902 S   0  0  0  0  0  0  0  0  0  0  0  0
    0.8410    0.5652    3.0346 C   0  0  0  0  0  0  0  0  0  0  0  0
    1.6911   -0.1613    2.0090 C   0  0  0  0  0  0  0  0  0  0  0  0
    1.5199   -1.4779    1.7971 C   0  0  0  0  0  0  0  0  0  0  0  0
    2.3302   -2.1667    0.7706 C   0  0  0  0  0  0  0  0  0  0  0  0
    2.1838   -3.3700    0.5788 O   0  0  0  0  0  0  0  0  0  0  0  0
    3.2064   -1.3498    0.1027 N   0  0  0  0  0  0  0  0  0  0  0  0
    4.0536   -1.7571   -0.9048 C   0  0  0  0  0  0  0  0  0  0  0  0
    4.8182   -0.7764   -1.3988 C   0  0  0  0  0  0  0  0  0  0  0  0
    4.5058    0.7420   -0.6010 S   0  0  0  0  0  0  0  0  0  0  0  0
    3.2971   -0.0155    0.4225 C   0  0  0  0  0  0  0  0  0  0  0  0
    2.6119    0.6040    1.3212 N   0  0  0  0  0  0  0  0  0  0  0  0
   -1.5911   -0.0714    1.3545 N   0  0  0  0  0  0  0  0  0  0  0  0
   -2.1958   -0.8426    0.3598 C   0  0  0  0  0  0  0  0  0  0  0  0
   -2.9504   -1.9567    0.7350 C   0  0  0  0  0  0  0  0  0  0  0  0
   -3.5625   -2.7599   -0.2310 C   0  0  0  0  0  0  0  0  0  0  0  0
   -3.4237   -2.4532   -1.5840 C   0  0  0  0  0  0  0  0  0  0  0  0
   -2.6732   -1.3432   -1.9694 C   0  0  0  0  0  0  0  0  0  0  0  0
   -2.0649   -0.5455   -0.9925 C   0  0  0  0  0  0  0  0  0  0  0  0
   -1.2614    0.6325   -1.3609 C   0  0  0  0  0  0  0  0  0  0  0  0
   -1.0974    0.8851   -2.5526 O   0  0  0  0  0  0  0  0  0  0  0  0
   -2.5304    4.9538   -0.4759 H   0  0  0  0  0  0  0  0  0  0  0  0
   -2.7274    3.1336   -0.2184 H   0  0  0  0  0  0  0  0  0  0  0  0
   -0.1887    4.7199   -0.9076 H   0  0  0  0  0  0  0  0  0  0  0  0
    0.9165    2.6754   -0.0240 H   0  0  0  0  0  0  0  0  0  0  0  0
    0.4760    2.4226   -1.6951 H   0  0  0  0  0  0  0  0  0  0  0  0
    1.4946    1.0184    3.7880 H   0  0  0  0  0  0  0  0  0  0  0  0
    0.1742   -0.1226    3.5665 H   0  0  0  0  0  0  0  0  0  0  0  0
    0.7909   -2.0792    2.3257 H   0  0  0  0  0  0  0  0  0  0  0  0
    4.0518   -2.7920   -1.2239 H   0  0  0  0  0  0  0  0  0  0  0  0
    5.5460   -0.8833   -2.1917 H   0  0  0  0  0  0  0  0  0  0  0  0
   -3.0620   -2.1991    1.7889 H   0  0  0  0  0  0  0  0  0  0  0  0
   -4.1470   -3.6245    0.0743 H   0  0  0  0  0  0  0  0  0  0  0  0
   -3.8989   -3.0774   -2.3369 H   0  0  0  0  0  0  0  0  0  0  0  0
   -2.5633   -1.1012   -3.0242 H   0  0  0  0  0  0  0  0  0  0  0  0
  1  2  2  0
  2  3  1  0
  3  4  1  0
  4  5  1  0
  5  6  1  0
  6  7  1  0
  7  8  1  0
  8  9  2  0
  9 10  1  0
 10 11  2  0
 10 12  1  0
 12 13  1  0
 13 14  2  0
 14 15  1  0
 15 16  1  0
 16 17  2  0
  5 18  2  0
 18 19  1  0
 19 20  2  0
 20 21  1  0
 21 22  2  0
 22 23  1  0
 23 24  2  0
 24 25  1  0
 25 26  2  0
 25  4  1  0
 17  8  1  0
 24 19  1  0
 16 12  1  0
  1 27  1  0
  1 28  1  0
  2 29  1  0
  3 30  1  0
  3 31  1  0
  7 32  1  0
  7 33  1  0
  9 34  1  0
 13 35  1  0
 14 36  1  0
 20 37  1  0
 21 38  1  0
 22 39  1  0
 23 40  1  0
M  END
$$$$
