
     RDKit          3D

 47 49  0  0  0  0  0  0  0  0999 V2000
   -6.4474   -1.2944   -1.1784 C   0  0  0  0  0  0  0  0  0  0  0  0
   -6.0341   -0.0363   -0.5633 N   0  0  0  0  0  0  0  0  0  0  0  0
   -4.8853    0.5741   -1.2629 C   0  0  0  0  0  0  0  0  0  0  0  0
   -3.5173    0.2980   -0.6122 C   0  0  0  0  0  0  0  0  0  0  0  0
   -3.4625    0.7709    0.8103 N   0  0  0  0  0  0  0  0  0  0  0  0
   -2.5146    2.1585    1.0956 S   0  0  0  0  0  6  0  0  0  0  0  0
   -2.5574    2.4520    2.5120 O   0  0  0  0  0  0  0  0  0  0  0  0
   -2.8885    3.1481    0.1071 O   0  0  0  0  0  0  0  0  0  0  0  0
   -0.8760    1.5826    0.7302 C   0  0  0  0  0  0  0  0  0  0  0  0
   -0.1491    2.1393   -0.3209 C   0  0  0  0  0  0  0  0  0  0  0  0
    1.1420    1.6705   -0.5998 C   0  0  0  0  0  0  0  0  0  0  0  0
    1.7141    0.6520    0.1644 C   0  0  0  0  0  0  0  0  0  0  0  0
    3.0013    0.1014   -0.0198 N   0  0  0  0  0  0  0  0  0  0  0  0
    4.0011    0.2945   -0.9439 C   0  0  0  0  0  0  0  0  0  0  0  0
    4.0471    1.2736   -2.2953 S   0  0  0  0  0  0  0  0  0  0  0  0
    5.1496   -0.4519   -0.7164 N   0  0  0  0  0  0  0  0  0  0  0  0
    5.4207   -1.3598    0.2936 C   0  0  0  0  0  0  0  0  0  0  0  0
    4.6173   -1.6626    1.1699 O   0  0  0  0  0  0  0  0  0  0  0  0
    6.7688   -1.9952    0.2849 C   0  0  0  0  0  0  0  0  0  0  0  0
    7.4768   -2.3771   -0.9941 C   0  0  0  0  0  0  0  0  0  0  0  0
    8.0133   -1.2565   -0.1493 C   0  0  0  0  0  0  0  0  0  0  0  0
    0.9678    0.1162    1.2291 C   0  0  0  0  0  0  0  0  0  0  0  0
   -0.3207    0.5747    1.5157 C   0  0  0  0  0  0  0  0  0  0  0  0
   -4.8164    0.8487    1.4513 C   0  0  0  0  0  0  0  0  0  0  0  0
   -5.7565   -0.2248    0.8760 C   0  0  0  0  0  0  0  0  0  0  0  0
   -7.3156   -1.7114   -0.6560 H   0  0  0  0  0  0  0  0  0  0  0  0
   -6.7555   -1.1308   -2.2169 H   0  0  0  0  0  0  0  0  0  0  0  0
   -5.6462   -2.0420   -1.1702 H   0  0  0  0  0  0  0  0  0  0  0  0
   -5.0512    1.6591   -1.2723 H   0  0  0  0  0  0  0  0  0  0  0  0
   -4.8597    0.2722   -2.3173 H   0  0  0  0  0  0  0  0  0  0  0  0
   -2.7333    0.7640   -1.2171 H   0  0  0  0  0  0  0  0  0  0  0  0
   -3.3063   -0.7783   -0.6123 H   0  0  0  0  0  0  0  0  0  0  0  0
   -0.5693    2.9389   -0.9276 H   0  0  0  0  0  0  0  0  0  0  0  0
    1.6641    2.1466   -1.4189 H   0  0  0  0  0  0  0  0  0  0  0  0
    3.2478   -0.6023    0.6795 H   0  0  0  0  0  0  0  0  0  0  0  0
    5.8723   -0.2850   -1.4013 H   0  0  0  0  0  0  0  0  0  0  0  0
    6.9001   -2.6842    1.1175 H   0  0  0  0  0  0  0  0  0  0  0  0
    7.0270   -2.1386   -1.9503 H   0  0  0  0  0  0  0  0  0  0  0  0
    8.0261   -3.3135   -1.0022 H   0  0  0  0  0  0  0  0  0  0  0  0
    8.9245   -1.4370    0.4128 H   0  0  0  0  0  0  0  0  0  0  0  0
    7.9359   -0.2415   -0.5198 H   0  0  0  0  0  0  0  0  0  0  0  0
    1.3846   -0.6717    1.8545 H   0  0  0  0  0  0  0  0  0  0  0  0
   -0.8798    0.1483    2.3455 H   0  0  0  0  0  0  0  0  0  0  0  0
   -4.6986    0.6786    2.5272 H   0  0  0  0  0  0  0  0  0  0  0  0
   -5.2547    1.8432    1.3041 H   0  0  0  0  0  0  0  0  0  0  0  0
   -5.2997   -1.2077    1.0564 H   0  0  0  0  0  0  0  0  0  0  0  0
   -6.7067   -0.2032    1.4217 H   0  0  0  0  0  0  0  0  0  0  0  0
  1  2  1  0
  2  3  1  0
  3  4  1  0
  4  5  1  0
  5  6  1  0
  6  7  2  0
  6  8  2  0
  6  9  1  0
  9 10  2  0
 10 11  1  0
 11 12  2  0
 12 13  1  0
 13 14  1  0
 14 15  2  0
 14 16  1  0
 16 17  1  0
 17 18  2  0
 17 19  1  0
 19 20  1  0
 20 21  1  0
 12 22  1  0
 22 23  2  0
  5 24  1  0
 24 25  1  0
 25  2  1  0
 23  9  1  0
 21 19  1  0
  1 26  1  0
  1 27  1  0
  1 28  1  0
  3 29  1  0
  3 30  1  0
  4 31  1  0
  4 32  1  0
 10 33  1  0
 11 34  1  0
 13 35  1  0
 16 36  1  0
 19 37  1  0
 20 38  1  0
 20 39  1  0
 21 40  1  0
 21 41  1  0
 22 42  1  0
 23 43  1  0
 24 44  1  0
 24 45  1  0
 25 46  1  0
 25 47  1  0
M  END
$$$$
