
     RDKit          3D

 40 42  0  0  0  0  0  0  0  0999 V2000
   -1.4872   -2.0661    0.6070 C   0  0  0  0  0  0  0  0  0  0  0  0
   -2.3981   -0.9785    0.0306 C   0  0  0  0  0  0  0  0  0  0  0  0
   -2.3874   -1.0480   -1.4965 C   0  0  0  0  0  0  0  0  0  0  0  0
   -2.0950    0.4294    0.5946 C   0  0  0  0  0  0  0  0  0  0  0  0
   -0.8071    1.0037    0.2595 N   0  0  0  0  0  0  0  0  0  0  0  0
    0.3505    0.9497    0.9980 C   0  0  0  0  0  0  0  0  0  0  0  0
    0.5012    0.1814    2.5395 S   0  0  0  0  0  0  0  0  0  0  0  0
    2.1043    0.8131    3.1217 C   0  0  0  0  0  0  0  0  0  0  0  0
    3.3044    0.3790    2.2956 C   0  0  0  0  0  0  0  0  0  0  0  0
    4.1242    1.2318    1.9528 O   0  0  0  0  0  0  0  0  0  0  0  0
    3.5104   -1.0441    2.0434 C   0  0  0  0  0  0  0  0  0  0  0  0
    3.0055   -2.1565    2.6996 C   0  0  0  0  0  0  0  0  0  0  0  0
    3.4692   -3.3830    2.1315 C   0  0  0  0  0  0  0  0  0  0  0  0
    4.3133   -3.1510    1.0788 C   0  0  0  0  0  0  0  0  0  0  0  0
    5.1001   -4.3397    0.1145 Cl  0  0  0  0  0  0  0  0  0  0  0  0
    4.5561   -1.5099    0.7612 S   0  0  0  0  0  0  0  0  0  0  0  0
    1.3146    1.5707    0.3667 N   0  0  0  0  0  0  0  0  0  0  0  0
    0.7908    2.0927   -0.7848 N   0  0  0  0  0  0  0  0  0  0  0  0
   -0.4966    1.8058   -0.8204 C   0  0  0  0  0  0  0  0  0  0  0  0
   -1.3728    2.2990   -1.8399 C   0  0  0  0  0  0  0  0  0  0  0  0
   -1.0183    2.9056   -3.0353 C   0  0  0  0  0  0  0  0  0  0  0  0
   -2.2123    3.2618   -3.7057 C   0  0  0  0  0  0  0  0  0  0  0  0
   -3.2348    2.8488   -2.8897 C   0  0  0  0  0  0  0  0  0  0  0  0
   -2.7430    2.2659   -1.7671 O   0  0  0  0  0  0  0  0  0  0  0  0
   -1.5418   -2.0794    1.7003 H   0  0  0  0  0  0  0  0  0  0  0  0
   -1.7981   -3.0560    0.2548 H   0  0  0  0  0  0  0  0  0  0  0  0
   -0.4427   -1.9271    0.3061 H   0  0  0  0  0  0  0  0  0  0  0  0
   -3.4211   -1.2210    0.3515 H   0  0  0  0  0  0  0  0  0  0  0  0
   -3.0951   -0.3350   -1.9268 H   0  0  0  0  0  0  0  0  0  0  0  0
   -2.6904   -2.0442   -1.8360 H   0  0  0  0  0  0  0  0  0  0  0  0
   -1.3912   -0.8499   -1.9086 H   0  0  0  0  0  0  0  0  0  0  0  0
   -2.8762    1.1310    0.2823 H   0  0  0  0  0  0  0  0  0  0  0  0
   -2.1774    0.4057    1.6880 H   0  0  0  0  0  0  0  0  0  0  0  0
    2.2614    0.4810    4.1532 H   0  0  0  0  0  0  0  0  0  0  0  0
    2.0616    1.9089    3.1383 H   0  0  0  0  0  0  0  0  0  0  0  0
    2.3433   -2.1099    3.5574 H   0  0  0  0  0  0  0  0  0  0  0  0
    3.2039   -4.3700    2.4862 H   0  0  0  0  0  0  0  0  0  0  0  0
   -0.0043    3.0615   -3.3778 H   0  0  0  0  0  0  0  0  0  0  0  0
   -2.3110    3.7497   -4.6644 H   0  0  0  0  0  0  0  0  0  0  0  0
   -4.3128    2.8929   -2.9581 H   0  0  0  0  0  0  0  0  0  0  0  0
  1  2  1  0
  2  3  1  0
  2  4  1  0
  4  5  1  0
  5  6  1  0
  6  7  1  0
  7  8  1  0
  8  9  1  0
  9 10  2  0
  9 11  1  0
 11 12  2  0
 12 13  1  0
 13 14  2  0
 14 15  1  0
 14 16  1  0
  6 17  2  0
 17 18  1  0
 18 19  2  0
 19 20  1  0
 20 21  2  0
 21 22  1  0
 22 23  2  0
 23 24  1  0
 19  5  1  0
 24 20  1  0
 16 11  1  0
  1 25  1  0
  1 26  1  0
  1 27  1  0
  2 28  1  0
  3 29  1  0
  3 30  1  0
  3 31  1  0
  4 32  1  0
  4 33  1  0
  8 34  1  0
  8 35  1  0
 12 36  1  0
 13 37  1  0
 21 38  1  0
 22 39  1  0
 23 40  1  0
M  END
$$$$
