
     RDKit          3D

 44 47  0  0  0  0  0  0  0  0999 V2000
   -7.6759    0.7341   -0.2056 C   0  0  0  0  0  0  0  0  0  0  0  0
   -7.1382   -0.5057    0.4924 C   0  0  0  0  0  0  0  0  0  0  0  0
   -5.6987   -0.7703    0.1347 C   0  0  0  0  0  0  0  0  0  0  0  0
   -5.3719   -1.5610   -0.9709 C   0  0  0  0  0  0  0  0  0  0  0  0
   -4.0337   -1.7885   -1.3080 C   0  0  0  0  0  0  0  0  0  0  0  0
   -2.9973   -1.2274   -0.5512 C   0  0  0  0  0  0  0  0  0  0  0  0
   -1.6771   -1.5100   -0.9608 N   0  0  0  0  0  0  0  0  0  0  0  0
   -0.4934   -1.0596   -0.3829 C   0  0  0  0  0  0  0  0  0  0  0  0
   -0.4057   -0.3318    0.6019 O   0  0  0  0  0  0  0  0  0  0  0  0
    0.7351   -1.6156   -1.1160 C   0  0  0  0  0  0  0  0  0  0  0  0
    1.9659   -1.0179   -0.6262 N   0  0  0  0  0  0  0  0  0  0  0  0
    2.6596   -1.7247    0.3568 N   0  0  0  0  0  0  0  0  0  0  0  0
    3.7145   -1.1750    0.8822 C   0  0  0  0  0  0  0  0  0  0  0  0
    4.1632    0.0744    0.4760 N   0  0  0  0  0  0  0  0  0  0  0  0
    3.5161    0.7835   -0.4975 C   0  0  0  0  0  0  0  0  0  0  0  0
    4.1941    1.9670   -0.6909 C   0  0  0  0  0  0  0  0  0  0  0  0
    5.3002    1.9762    0.2016 C   0  0  0  0  0  0  0  0  0  0  0  0
    6.3319    2.8995    0.4591 C   0  0  0  0  0  0  0  0  0  0  0  0
    7.2950    2.6028    1.4289 C   0  0  0  0  0  0  0  0  0  0  0  0
    7.2413    1.4067    2.1387 C   0  0  0  0  0  0  0  0  0  0  0  0
    6.2274    0.4731    1.9028 C   0  0  0  0  0  0  0  0  0  0  0  0
    5.2642    0.7793    0.9267 C   0  0  0  0  0  0  0  0  0  0  0  0
    2.3353    0.2465   -1.1143 C   0  0  0  0  0  0  0  0  0  0  0  0
    1.7149    0.8295   -2.0003 O   0  0  0  0  0  0  0  0  0  0  0  0
   -3.3243   -0.4335    0.5474 C   0  0  0  0  0  0  0  0  0  0  0  0
   -4.6634   -0.2047    0.8863 C   0  0  0  0  0  0  0  0  0  0  0  0
   -8.7214    0.9013    0.0722 H   0  0  0  0  0  0  0  0  0  0  0  0
   -7.6268    0.6297   -1.2948 H   0  0  0  0  0  0  0  0  0  0  0  0
   -7.1042    1.6261    0.0723 H   0  0  0  0  0  0  0  0  0  0  0  0
   -7.7504   -1.3758    0.2259 H   0  0  0  0  0  0  0  0  0  0  0  0
   -7.2331   -0.3899    1.5790 H   0  0  0  0  0  0  0  0  0  0  0  0
   -6.1571   -2.0043   -1.5791 H   0  0  0  0  0  0  0  0  0  0  0  0
   -3.8194   -2.4093   -2.1737 H   0  0  0  0  0  0  0  0  0  0  0  0
   -1.5917   -2.0939   -1.7830 H   0  0  0  0  0  0  0  0  0  0  0  0
    0.6345   -1.4110   -2.1877 H   0  0  0  0  0  0  0  0  0  0  0  0
    0.7782   -2.7000   -0.9658 H   0  0  0  0  0  0  0  0  0  0  0  0
    4.2740   -1.7081    1.6660 H   0  0  0  0  0  0  0  0  0  0  0  0
    3.9180    2.7403   -1.3972 H   0  0  0  0  0  0  0  0  0  0  0  0
    6.3809    3.8364   -0.0889 H   0  0  0  0  0  0  0  0  0  0  0  0
    8.0914    3.3157    1.6293 H   0  0  0  0  0  0  0  0  0  0  0  0
    7.9992    1.1956    2.8904 H   0  0  0  0  0  0  0  0  0  0  0  0
    6.1986   -0.4538    2.4670 H   0  0  0  0  0  0  0  0  0  0  0  0
   -2.5624    0.0297    1.1661 H   0  0  0  0  0  0  0  0  0  0  0  0
   -4.8874    0.4241    1.7456 H   0  0  0  0  0  0  0  0  0  0  0  0
  1  2  1  0
  2  3  1  0
  3  4  2  0
  4  5  1  0
  5  6  2  0
  6  7  1  0
  7  8  1  0
  8  9  2  0
  8 10  1  0
 10 11  1  0
 11 12  1  0
 12 13  2  0
 13 14  1  0
 14 15  1  0
 15 16  2  0
 16 17  1  0
 17 18  2  0
 18 19  1  0
 19 20  2  0
 20 21  1  0
 21 22  2  0
 15 23  1  0
 23 24  2  0
  6 25  1  0
 25 26  2  0
 26  3  1  0
 23 11  1  0
 22 14  1  0
 22 17  1  0
  1 27  1  0
  1 28  1  0
  1 29  1  0
  2 30  1  0
  2 31  1  0
  4 32  1  0
  5 33  1  0
  7 34  1  0
 10 35  1  0
 10 36  1  0
 13 37  1  0
 16 38  1  0
 18 39  1  0
 19 40  1  0
 20 41  1  0
 21 42  1  0
 25 43  1  0
 26 44  1  0
M  END
$$$$
