
     RDKit          3D

 46 47  0  0  0  0  0  0  0  0999 V2000
    6.3124   -1.5320    3.6063 O   0  0  0  0  0  0  0  0  0  0  0  0
    5.8330   -1.7595    2.5070 C   0  0  0  0  0  0  0  0  0  0  0  0
    4.7361   -2.5313    2.3984 O   0  0  0  0  0  0  0  0  0  0  0  0
    6.4221   -1.3249    1.1915 C   0  0  0  0  0  0  0  0  0  0  0  0
    5.4284   -1.3282    0.0351 C   0  0  0  0  0  0  0  0  0  0  0  0
    4.3332   -0.2882    0.2117 C   0  0  0  0  0  0  0  0  0  0  0  0
    4.3639    0.5373    1.1163 O   0  0  0  0  0  0  0  0  0  0  0  0
    3.3605   -0.4025   -0.7684 N   0  0  0  0  0  0  0  0  0  0  0  0
    2.2207    0.4084   -0.9459 C   0  0  0  0  0  0  0  0  0  0  0  0
    1.9305    1.5308   -0.1646 C   0  0  0  0  0  0  0  0  0  0  0  0
    0.7797    2.2892   -0.4064 C   0  0  0  0  0  0  0  0  0  0  0  0
   -0.0933    1.9135   -1.4278 C   0  0  0  0  0  0  0  0  0  0  0  0
   -1.5544    2.8715   -1.7486 S   0  0  0  0  0  6  0  0  0  0  0  0
   -1.8280    2.7918   -3.1663 O   0  0  0  0  0  0  0  0  0  0  0  0
   -1.4260    4.1382   -1.0640 O   0  0  0  0  0  0  0  0  0  0  0  0
   -2.7485    1.9797   -0.9793 N   0  0  0  0  0  0  0  0  0  0  0  0
   -2.6535    1.7452    0.4686 C   0  0  0  0  0  0  0  0  0  0  0  0
   -4.0123    1.3039    1.0247 C   0  0  0  0  0  0  0  0  0  0  0  0
   -4.4533   -0.0443    0.5012 C   0  0  0  0  0  0  0  0  0  0  0  0
   -3.8735   -1.2230    0.9903 C   0  0  0  0  0  0  0  0  0  0  0  0
   -4.2659   -2.4646    0.4880 C   0  0  0  0  0  0  0  0  0  0  0  0
   -5.2394   -2.5398   -0.5064 C   0  0  0  0  0  0  0  0  0  0  0  0
   -5.8232   -1.3742   -0.9985 C   0  0  0  0  0  0  0  0  0  0  0  0
   -5.4332   -0.1316   -0.4974 C   0  0  0  0  0  0  0  0  0  0  0  0
    0.1891    0.8056   -2.2281 C   0  0  0  0  0  0  0  0  0  0  0  0
    1.3435    0.0568   -1.9827 C   0  0  0  0  0  0  0  0  0  0  0  0
    4.4962   -2.7099    3.3331 H   0  0  0  0  0  0  0  0  0  0  0  0
    6.8370   -0.3195    1.3260 H   0  0  0  0  0  0  0  0  0  0  0  0
    7.2459   -2.0095    0.9619 H   0  0  0  0  0  0  0  0  0  0  0  0
    4.9716   -2.3172   -0.0853 H   0  0  0  0  0  0  0  0  0  0  0  0
    5.9620   -1.0907   -0.8931 H   0  0  0  0  0  0  0  0  0  0  0  0
    3.4643   -1.1695   -1.4212 H   0  0  0  0  0  0  0  0  0  0  0  0
    2.5873    1.8534    0.6380 H   0  0  0  0  0  0  0  0  0  0  0  0
    0.5799    3.1668    0.2053 H   0  0  0  0  0  0  0  0  0  0  0  0
   -3.1190    1.2207   -1.5519 H   0  0  0  0  0  0  0  0  0  0  0  0
   -1.8982    0.9770    0.6645 H   0  0  0  0  0  0  0  0  0  0  0  0
   -2.3530    2.6673    0.9768 H   0  0  0  0  0  0  0  0  0  0  0  0
   -3.9574    1.2508    2.1194 H   0  0  0  0  0  0  0  0  0  0  0  0
   -4.7739    2.0598    0.7944 H   0  0  0  0  0  0  0  0  0  0  0  0
   -3.1149   -1.1831    1.7689 H   0  0  0  0  0  0  0  0  0  0  0  0
   -3.8148   -3.3745    0.8753 H   0  0  0  0  0  0  0  0  0  0  0  0
   -5.5470   -3.5073   -0.8947 H   0  0  0  0  0  0  0  0  0  0  0  0
   -6.5859   -1.4326   -1.7710 H   0  0  0  0  0  0  0  0  0  0  0  0
   -5.8994    0.7693   -0.8920 H   0  0  0  0  0  0  0  0  0  0  0  0
   -0.4757    0.5239   -3.0419 H   0  0  0  0  0  0  0  0  0  0  0  0
    1.5463   -0.8033   -2.6164 H   0  0  0  0  0  0  0  0  0  0  0  0
  1  2  2  0
  2  3  1  0
  2  4  1  0
  4  5  1  0
  5  6  1  0
  6  7  2  0
  6  8  1  0
  8  9  1  0
  9 10  2  0
 10 11  1  0
 11 12  2  0
 12 13  1  0
 13 14  2  0
 13 15  2  0
 13 16  1  0
 16 17  1  0
 17 18  1  0
 18 19  1  0
 19 20  2  0
 20 21  1  0
 21 22  2  0
 22 23  1  0
 23 24  2  0
 12 25  1  0
 25 26  2  0
 26  9  1  0
 24 19  1  0
  3 27  1  0
  4 28  1  0
  4 29  1  0
  5 30  1  0
  5 31  1  0
  8 32  1  0
 10 33  1  0
 11 34  1  0
 16 35  1  0
 17 36  1  0
 17 37  1  0
 18 38  1  0
 18 39  1  0
 20 40  1  0
 21 41  1  0
 22 42  1  0
 23 43  1  0
 24 44  1  0
 25 45  1  0
 26 46  1  0
M  END
$$$$
