
     RDKit          3D

 72 76  0  0  0  0  0  0  0  0999 V2000
   10.1367   -2.1143    0.5763 C   0  0  0  0  0  0  0  0  0  0  0  0
    9.7337   -0.9845   -0.1890 O   0  0  0  0  0  0  0  0  0  0  0  0
    8.3966   -0.7009   -0.2162 C   0  0  0  0  0  0  0  0  0  0  0  0
    8.0456    0.3675   -1.0431 C   0  0  0  0  0  0  0  0  0  0  0  0
    6.7126    0.7727   -1.1575 C   0  0  0  0  0  0  0  0  0  0  0  0
    5.7062    0.1060   -0.4478 C   0  0  0  0  0  0  0  0  0  0  0  0
    4.3089    0.5438   -0.5572 C   0  0  0  0  0  0  0  0  0  0  0  0
    4.0405    1.8544   -0.5250 N   0  0  0  0  0  0  0  0  0  0  0  0
    2.4131    2.0894   -0.6447 S   0  0  0  0  0  0  0  0  0  0  0  0
    1.9797    0.4408   -0.7155 C   0  0  0  0  0  0  0  0  0  0  0  0
    0.6014    0.0113   -0.8818 C   0  0  0  0  0  0  0  0  0  0  0  0
    0.3197   -0.9024   -1.6634 O   0  0  0  0  0  0  0  0  0  0  0  0
   -0.4162    0.6980   -0.1775 N   0  0  0  0  0  0  0  0  0  0  0  0
   -0.1914    1.1476    1.1662 C   0  0  0  0  0  0  0  0  0  0  0  0
    0.5115    0.3497    2.0836 C   0  0  0  0  0  0  0  0  0  0  0  0
    0.7523    0.8042    3.3814 C   0  0  0  0  0  0  0  0  0  0  0  0
    0.3010    2.0600    3.7621 C   0  0  0  0  0  0  0  0  0  0  0  0
    0.5311    2.4973    5.0064 F   0  0  0  0  0  0  0  0  0  0  0  0
   -0.3826    2.8712    2.8673 C   0  0  0  0  0  0  0  0  0  0  0  0
   -0.6265    2.4169    1.5689 C   0  0  0  0  0  0  0  0  0  0  0  0
   -1.8007    0.3174   -0.5563 C   0  0  0  0  0  0  0  0  0  0  0  0
   -2.2866   -1.0001    0.1248 C   0  0  0  0  0  0  0  0  0  0  0  0
   -1.6800   -1.5720    1.0285 O   0  0  0  0  0  0  0  0  0  0  0  0
   -3.4833   -1.4947   -0.3775 N   0  0  0  0  0  0  0  0  0  0  0  0
   -4.0393   -2.7553    0.0875 C   0  0  0  0  0  0  0  0  0  0  0  0
   -5.5185   -2.8790   -0.2641 C   0  0  0  0  0  0  0  0  0  0  0  0
   -5.5287   -3.3331   -1.7200 C   0  0  0  0  0  0  0  0  0  0  0  0
   -4.2138   -4.0828   -1.9364 C   0  0  0  0  0  0  0  0  0  0  0  0
   -3.4223   -3.9495   -0.6361 C   0  0  0  0  0  0  0  0  0  0  0  0
   -2.8101    1.4635   -0.4885 C   0  0  0  0  0  0  0  0  0  0  0  0
   -2.8208    2.4244   -1.5125 C   0  0  0  0  0  0  0  0  0  0  0  0
   -3.7170    3.4956   -1.4720 C   0  0  0  0  0  0  0  0  0  0  0  0
   -4.6166    3.6345   -0.4133 C   0  0  0  0  0  0  0  0  0  0  0  0
   -5.4294    4.7309   -0.4955 O   0  0  0  0  0  0  0  0  0  0  0  0
   -6.3721    4.9160    0.5552 C   0  0  0  0  0  0  0  0  0  0  0  0
   -4.6120    2.6880    0.6104 C   0  0  0  0  0  0  0  0  0  0  0  0
   -3.7135    1.6138    0.5761 C   0  0  0  0  0  0  0  0  0  0  0  0
    3.1428   -0.3065   -0.7223 C   0  0  0  0  0  0  0  0  0  0  0  0
    3.1652   -1.6605   -0.8769 N   0  0  0  0  0  0  0  0  0  0  0  0
    6.0628   -0.9631    0.3856 C   0  0  0  0  0  0  0  0  0  0  0  0
    7.4002   -1.3653    0.5002 C   0  0  0  0  0  0  0  0  0  0  0  0
    9.6785   -3.0344    0.1974 H   0  0  0  0  0  0  0  0  0  0  0  0
   11.2214   -2.2164    0.4718 H   0  0  0  0  0  0  0  0  0  0  0  0
    9.9174   -1.9719    1.6402 H   0  0  0  0  0  0  0  0  0  0  0  0
    8.8162    0.8963   -1.5982 H   0  0  0  0  0  0  0  0  0  0  0  0
    6.4673    1.6178   -1.7982 H   0  0  0  0  0  0  0  0  0  0  0  0
    0.8448   -0.6507    1.8133 H   0  0  0  0  0  0  0  0  0  0  0  0
    1.2818    0.1821    4.0948 H   0  0  0  0  0  0  0  0  0  0  0  0
   -0.7115    3.8577    3.1787 H   0  0  0  0  0  0  0  0  0  0  0  0
   -1.1239    3.0872    0.8734 H   0  0  0  0  0  0  0  0  0  0  0  0
   -1.7734    0.0481   -1.6237 H   0  0  0  0  0  0  0  0  0  0  0  0
   -3.8611   -1.0802   -1.2218 H   0  0  0  0  0  0  0  0  0  0  0  0
   -3.8811   -2.8239    1.1694 H   0  0  0  0  0  0  0  0  0  0  0  0
   -6.0773   -1.9491   -0.1214 H   0  0  0  0  0  0  0  0  0  0  0  0
   -5.9824   -3.6527    0.3600 H   0  0  0  0  0  0  0  0  0  0  0  0
   -6.3987   -3.9595   -1.9408 H   0  0  0  0  0  0  0  0  0  0  0  0
   -5.5736   -2.4648   -2.3882 H   0  0  0  0  0  0  0  0  0  0  0  0
   -4.3896   -5.1357   -2.1825 H   0  0  0  0  0  0  0  0  0  0  0  0
   -3.6640   -3.6381   -2.7749 H   0  0  0  0  0  0  0  0  0  0  0  0
   -2.3484   -3.8436   -0.8221 H   0  0  0  0  0  0  0  0  0  0  0  0
   -3.5687   -4.8550   -0.0346 H   0  0  0  0  0  0  0  0  0  0  0  0
   -2.1240    2.3524   -2.3463 H   0  0  0  0  0  0  0  0  0  0  0  0
   -3.7099    4.2344   -2.2710 H   0  0  0  0  0  0  0  0  0  0  0  0
   -7.0922    4.0919    0.5850 H   0  0  0  0  0  0  0  0  0  0  0  0
   -5.8700    5.0374    1.5202 H   0  0  0  0  0  0  0  0  0  0  0  0
   -6.9260    5.8359    0.3495 H   0  0  0  0  0  0  0  0  0  0  0  0
   -5.2882    2.7584    1.4570 H   0  0  0  0  0  0  0  0  0  0  0  0
   -3.7217    0.9055    1.4047 H   0  0  0  0  0  0  0  0  0  0  0  0
    4.0135   -2.0951   -1.2381 H   0  0  0  0  0  0  0  0  0  0  0  0
    2.3316   -2.1167   -1.2538 H   0  0  0  0  0  0  0  0  0  0  0  0
    5.3052   -1.4788    0.9727 H   0  0  0  0  0  0  0  0  0  0  0  0
    7.6278   -2.1896    1.1678 H   0  0  0  0  0  0  0  0  0  0  0  0
  1  2  1  0
  2  3  1  0
  3  4  2  0
  4  5  1  0
  5  6  2  0
  6  7  1  0
  7  8  2  0
  8  9  1  0
  9 10  1  0
 10 11  1  0
 11 12  2  0
 11 13  1  0
 13 14  1  0
 14 15  2  0
 15 16  1  0
 16 17  2  0
 17 18  1  0
 17 19  1  0
 19 20  2  0
 13 21  1  0
 21 22  1  0
 22 23  2  0
 22 24  1  0
 24 25  1  0
 25 26  1  0
 26 27  1  0
 27 28  1  0
 28 29  1  0
 21 30  1  0
 30 31  2  0
 31 32  1  0
 32 33  2  0
 33 34  1  0
 34 35  1  0
 33 36  1  0
 36 37  2  0
 10 38  2  0
 38 39  1  0
  6 40  1  0
 40 41  2  0
 41  3  1  0
 38  7  1  0
 20 14  1  0
 29 25  1  0
 37 30  1  0
  1 42  1  0
  1 43  1  0
  1 44  1  0
  4 45  1  0
  5 46  1  0
 15 47  1  0
 16 48  1  0
 19 49  1  0
 20 50  1  0
 21 51  1  0
 24 52  1  0
 25 53  1  0
 26 54  1  0
 26 55  1  0
 27 56  1  0
 27 57  1  0
 28 58  1  0
 28 59  1  0
 29 60  1  0
 29 61  1  0
 31 62  1  0
 32 63  1  0
 35 64  1  0
 35 65  1  0
 35 66  1  0
 36 67  1  0
 37 68  1  0
 39 69  1  0
 39 70  1  0
 40 71  1  0
 41 72  1  0
M  END
$$$$
