
     RDKit          3D

 73 78  0  0  0  0  0  0  0  0999 V2000
    9.4764    0.2677   -2.7319 C   0  0  0  0  0  0  0  0  0  0  0  0
    8.2579   -0.0086   -1.9041 C   0  0  0  0  0  0  0  0  0  0  0  0
    8.2152    0.3486   -0.5592 C   0  0  0  0  0  0  0  0  0  0  0  0
    7.0611    0.1215    0.1986 C   0  0  0  0  0  0  0  0  0  0  0  0
    5.9056   -0.4564   -0.3570 C   0  0  0  0  0  0  0  0  0  0  0  0
    4.7465   -0.6481    0.4054 N   0  0  0  0  0  0  0  0  0  0  0  0
    3.5588    0.1188   -0.0412 C   0  0  0  0  0  0  0  0  0  0  0  0
    2.7504    0.7004    1.1360 C   0  0  0  0  0  0  0  0  0  0  0  0
    2.4291   -0.3179    2.1495 N   0  0  0  0  0  0  0  0  0  0  0  0
    1.2431   -0.4392    2.8583 C   0  0  0  0  0  0  0  0  0  0  0  0
    1.1212   -1.2855    3.7466 O   0  0  0  0  0  0  0  0  0  0  0  0
    0.0811    0.4735    2.4810 C   0  0  0  0  0  0  0  0  0  0  0  0
   -0.9770    0.5822    3.6003 C   0  0  0  0  0  0  0  0  0  0  0  0
   -2.3611    0.9880    3.0733 C   0  0  0  0  0  0  0  0  0  0  0  0
   -2.2532    1.7271    1.7440 C   0  0  0  0  0  0  0  0  0  0  0  0
   -1.6249    0.8701    0.7357 N   0  0  0  0  0  0  0  0  0  0  0  0
   -2.3934    0.3186   -0.2995 C   0  0  0  0  0  0  0  0  0  0  0  0
   -1.7137   -0.3216   -1.3041 N   0  0  0  0  0  0  0  0  0  0  0  0
   -2.3896   -0.8432   -2.3468 C   0  0  0  0  0  0  0  0  0  0  0  0
   -3.7143   -0.8398   -2.5616 N   0  0  0  0  0  0  0  0  0  0  0  0
   -4.3595   -0.2251   -1.5570 C   0  0  0  0  0  0  0  0  0  0  0  0
   -3.8074    0.3554   -0.4258 C   0  0  0  0  0  0  0  0  0  0  0  0
   -4.8183    0.8398    0.3853 N   0  0  0  0  0  0  0  0  0  0  0  0
   -5.9539    0.5773   -0.2353 C   0  0  0  0  0  0  0  0  0  0  0  0
   -5.7156   -0.0455   -1.4407 N   0  0  0  0  0  0  0  0  0  0  0  0
   -6.6747   -0.4965   -2.4306 C   0  0  0  0  0  0  0  0  0  0  0  0
   -7.9581    0.3233   -2.5084 C   0  0  0  0  0  0  0  0  0  0  0  0
   -8.9600    0.0005   -1.3991 C   0  0  0  0  0  0  0  0  0  0  0  0
   -8.3684   -0.1309    0.0047 C   0  0  0  0  0  0  0  0  0  0  0  0
   -7.3039    0.9154    0.3144 C   0  0  0  0  0  0  0  0  0  0  0  0
   -0.5773   -0.0561    1.2023 C   0  0  0  0  0  0  0  0  0  0  0  0
    3.5107   -1.2630    2.4598 C   0  0  0  0  0  0  0  0  0  0  0  0
    4.8679   -0.8577    1.8589 C   0  0  0  0  0  0  0  0  0  0  0  0
    5.9601   -0.8349   -1.7188 C   0  0  0  0  0  0  0  0  0  0  0  0
    4.8071   -1.5121   -2.4144 C   0  0  0  0  0  0  0  0  0  0  0  0
    7.1219   -0.5841   -2.4783 C   0  0  0  0  0  0  0  0  0  0  0  0
   10.3846    0.2220   -2.1211 H   0  0  0  0  0  0  0  0  0  0  0  0
    9.5842   -0.4762   -3.5282 H   0  0  0  0  0  0  0  0  0  0  0  0
    9.4042    1.2618   -3.1841 H   0  0  0  0  0  0  0  0  0  0  0  0
    9.0765    0.8133   -0.0861 H   0  0  0  0  0  0  0  0  0  0  0  0
    7.0800    0.4379    1.2367 H   0  0  0  0  0  0  0  0  0  0  0  0
    3.8372    0.9441   -0.7085 H   0  0  0  0  0  0  0  0  0  0  0  0
    2.9040   -0.5600   -0.6006 H   0  0  0  0  0  0  0  0  0  0  0  0
    3.3377    1.4729    1.6477 H   0  0  0  0  0  0  0  0  0  0  0  0
    1.8556    1.1907    0.7502 H   0  0  0  0  0  0  0  0  0  0  0  0
    0.4744    1.4845    2.3192 H   0  0  0  0  0  0  0  0  0  0  0  0
   -0.6304    1.3309    4.3238 H   0  0  0  0  0  0  0  0  0  0  0  0
   -1.0800   -0.3490    4.1678 H   0  0  0  0  0  0  0  0  0  0  0  0
   -2.8691    1.6130    3.8161 H   0  0  0  0  0  0  0  0  0  0  0  0
   -2.9762    0.0889    2.9420 H   0  0  0  0  0  0  0  0  0  0  0  0
   -3.2159    2.1418    1.4397 H   0  0  0  0  0  0  0  0  0  0  0  0
   -1.6129    2.6092    1.8802 H   0  0  0  0  0  0  0  0  0  0  0  0
   -1.7830   -1.3258   -3.1077 H   0  0  0  0  0  0  0  0  0  0  0  0
   -6.8824   -1.5527   -2.2232 H   0  0  0  0  0  0  0  0  0  0  0  0
   -6.1773   -0.4365   -3.4062 H   0  0  0  0  0  0  0  0  0  0  0  0
   -8.4490    0.1276   -3.4698 H   0  0  0  0  0  0  0  0  0  0  0  0
   -7.7235    1.3949   -2.4971 H   0  0  0  0  0  0  0  0  0  0  0  0
   -9.7291    0.7841   -1.3940 H   0  0  0  0  0  0  0  0  0  0  0  0
   -9.4820   -0.9341   -1.6420 H   0  0  0  0  0  0  0  0  0  0  0  0
   -9.1902   -0.0323    0.7259 H   0  0  0  0  0  0  0  0  0  0  0  0
   -7.9625   -1.1420    0.1423 H   0  0  0  0  0  0  0  0  0  0  0  0
   -7.2068    0.9898    1.4056 H   0  0  0  0  0  0  0  0  0  0  0  0
   -7.6116    1.9070   -0.0375 H   0  0  0  0  0  0  0  0  0  0  0  0
    0.1696   -0.1974    0.4132 H   0  0  0  0  0  0  0  0  0  0  0  0
   -1.0090   -1.0474    1.4065 H   0  0  0  0  0  0  0  0  0  0  0  0
    3.2003   -2.2382    2.0641 H   0  0  0  0  0  0  0  0  0  0  0  0
    3.6019   -1.3613    3.5474 H   0  0  0  0  0  0  0  0  0  0  0  0
    5.2069    0.0624    2.3507 H   0  0  0  0  0  0  0  0  0  0  0  0
    5.5978   -1.6483    2.0683 H   0  0  0  0  0  0  0  0  0  0  0  0
    4.0919   -0.7646   -2.7726 H   0  0  0  0  0  0  0  0  0  0  0  0
    5.1530   -2.0935   -3.2763 H   0  0  0  0  0  0  0  0  0  0  0  0
    4.3005   -2.2195   -1.7495 H   0  0  0  0  0  0  0  0  0  0  0  0
    7.1409   -0.8599   -3.5314 H   0  0  0  0  0  0  0  0  0  0  0  0
  1  2  1  0
  2  3  2  0
  3  4  1  0
  4  5  2  0
  5  6  1  0
  6  7  1  0
  7  8  1  0
  8  9  1  0
  9 10  1  0
 10 11  2  0
 10 12  1  0
 12 13  1  0
 13 14  1  0
 14 15  1  0
 15 16  1  0
 16 17  1  0
 17 18  2  0
 18 19  1  0
 19 20  2  0
 20 21  1  0
 21 22  2  0
 22 23  1  0
 23 24  2  0
 24 25  1  0
 25 26  1  0
 26 27  1  0
 27 28  1  0
 28 29  1  0
 29 30  1  0
 16 31  1  0
  9 32  1  0
 32 33  1  0
  5 34  1  0
 34 35  1  0
 34 36  2  0
 36  2  1  0
 33  6  1  0
 31 12  1  0
 22 17  1  0
 30 24  1  0
 25 21  1  0
  1 37  1  0
  1 38  1  0
  1 39  1  0
  3 40  1  0
  4 41  1  0
  7 42  1  0
  7 43  1  0
  8 44  1  0
  8 45  1  0
 12 46  1  0
 13 47  1  0
 13 48  1  0
 14 49  1  0
 14 50  1  0
 15 51  1  0
 15 52  1  0
 19 53  1  0
 26 54  1  0
 26 55  1  0
 27 56  1  0
 27 57  1  0
 28 58  1  0
 28 59  1  0
 29 60  1  0
 29 61  1  0
 30 62  1  0
 30 63  1  0
 31 64  1  0
 31 65  1  0
 32 66  1  0
 32 67  1  0
 33 68  1  0
 33 69  1  0
 35 70  1  0
 35 71  1  0
 35 72  1  0
 36 73  1  0
M  END
$$$$
