
     RDKit          3D

 52 54  0  0  0  0  0  0  0  0999 V2000
   -1.9866   -4.2424    2.4337 C   0  0  0  0  0  0  0  0  0  0  0  0
   -3.1564   -3.9948    1.4912 C   0  0  0  0  0  0  0  0  0  0  0  0
   -2.7309   -3.3881    0.1504 C   0  0  0  0  0  0  0  0  0  0  0  0
   -2.2692   -1.9250    0.2316 C   0  0  0  0  0  0  0  0  0  0  0  0
   -3.3156   -0.8795   -0.2355 C   0  0  0  0  0  0  0  0  0  0  0  0
   -4.6159   -0.9712    0.5941 C   0  0  0  0  0  0  0  0  0  0  0  0
   -5.7128   -0.0112    0.1510 C   0  0  0  0  0  0  0  0  0  0  0  0
   -2.7230    0.5542   -0.1790 C   0  0  0  0  0  0  0  0  0  0  0  0
   -1.5334    0.7389   -1.0191 N   0  0  0  0  0  0  0  0  0  0  0  0
   -0.2796    0.6999   -0.4227 C   0  0  0  0  0  0  0  0  0  0  0  0
   -0.0834    0.5542    0.7752 O   0  0  0  0  0  0  0  0  0  0  0  0
    0.7913    0.8800   -1.4457 C   0  0  0  0  0  0  0  0  0  0  0  0
    2.1244    0.8646   -1.2912 C   0  0  0  0  0  0  0  0  0  0  0  0
    2.8992    0.6251   -0.1181 C   0  0  0  0  0  0  0  0  0  0  0  0
    2.6905   -0.3697    0.8067 C   0  0  0  0  0  0  0  0  0  0  0  0
    3.6993   -0.2559    1.7127 N   0  0  0  0  0  0  0  0  0  0  0  0
    4.5924    0.6958    1.4090 N   0  0  0  0  0  0  0  0  0  0  0  0
    4.1067    1.2731    0.2958 C   0  0  0  0  0  0  0  0  0  0  0  0
    4.8109    2.3947   -0.3286 C   0  0  0  0  0  0  0  0  0  0  0  0
    6.2075    2.3669   -0.4482 C   0  0  0  0  0  0  0  0  0  0  0  0
    6.8902    3.4258   -1.0511 C   0  0  0  0  0  0  0  0  0  0  0  0
    6.1834    4.5258   -1.5335 C   0  0  0  0  0  0  0  0  0  0  0  0
    4.7959    4.5718   -1.4074 C   0  0  0  0  0  0  0  0  0  0  0  0
    4.1120    3.5127   -0.8046 C   0  0  0  0  0  0  0  0  0  0  0  0
    0.0652    1.1642   -2.9901 S   0  0  0  0  0  0  0  0  0  0  0  0
   -1.5698    0.9938   -2.3736 C   0  0  0  0  0  0  0  0  0  0  0  0
   -2.9028    1.1455   -3.3658 S   0  0  0  0  0  0  0  0  0  0  0  0
   -2.3377   -4.7388    3.3441 H   0  0  0  0  0  0  0  0  0  0  0  0
   -1.5004   -3.3090    2.7308 H   0  0  0  0  0  0  0  0  0  0  0  0
   -1.2361   -4.8878    1.9664 H   0  0  0  0  0  0  0  0  0  0  0  0
   -3.8950   -3.3603    1.9906 H   0  0  0  0  0  0  0  0  0  0  0  0
   -3.6462   -4.9562    1.2949 H   0  0  0  0  0  0  0  0  0  0  0  0
   -3.5504   -3.4856   -0.5714 H   0  0  0  0  0  0  0  0  0  0  0  0
   -1.9066   -3.9925   -0.2502 H   0  0  0  0  0  0  0  0  0  0  0  0
   -1.3927   -1.8432   -0.4223 H   0  0  0  0  0  0  0  0  0  0  0  0
   -1.9255   -1.6749    1.2410 H   0  0  0  0  0  0  0  0  0  0  0  0
   -3.5671   -1.1140   -1.2773 H   0  0  0  0  0  0  0  0  0  0  0  0
   -4.3964   -0.8000    1.6548 H   0  0  0  0  0  0  0  0  0  0  0  0
   -5.0295   -1.9819    0.5123 H   0  0  0  0  0  0  0  0  0  0  0  0
   -5.4634    1.0264    0.3900 H   0  0  0  0  0  0  0  0  0  0  0  0
   -6.6472   -0.2472    0.6710 H   0  0  0  0  0  0  0  0  0  0  0  0
   -5.8954   -0.0905   -0.9251 H   0  0  0  0  0  0  0  0  0  0  0  0
   -2.4785    0.8044    0.8604 H   0  0  0  0  0  0  0  0  0  0  0  0
   -3.4656    1.2879   -0.5057 H   0  0  0  0  0  0  0  0  0  0  0  0
    2.7265    1.0745   -2.1765 H   0  0  0  0  0  0  0  0  0  0  0  0
    1.9283   -1.1284    0.9126 H   0  0  0  0  0  0  0  0  0  0  0  0
    3.8530   -0.8083    2.5495 H   0  0  0  0  0  0  0  0  0  0  0  0
    6.7685    1.5156   -0.0675 H   0  0  0  0  0  0  0  0  0  0  0  0
    7.9730    3.3919   -1.1379 H   0  0  0  0  0  0  0  0  0  0  0  0
    6.7154    5.3517   -1.9986 H   0  0  0  0  0  0  0  0  0  0  0  0
    4.2463    5.4367   -1.7699 H   0  0  0  0  0  0  0  0  0  0  0  0
    3.0331    3.5805   -0.6923 H   0  0  0  0  0  0  0  0  0  0  0  0
  1  2  1  0
  2  3  1  0
  3  4  1  0
  4  5  1  0
  5  6  1  0
  6  7  1  0
  5  8  1  0
  8  9  1  0
  9 10  1  0
 10 11  2  0
 10 12  1  0
 12 13  2  3
 13 14  1  0
 14 15  2  0
 15 16  1  0
 16 17  1  0
 17 18  2  0
 18 19  1  0
 19 20  2  0
 20 21  1  0
 21 22  2  0
 22 23  1  0
 23 24  2  0
 12 25  1  0
 25 26  1  0
 26 27  2  0
 26  9  1  0
 18 14  1  0
 24 19  1  0
  1 28  1  0
  1 29  1  0
  1 30  1  0
  2 31  1  0
  2 32  1  0
  3 33  1  0
  3 34  1  0
  4 35  1  0
  4 36  1  0
  5 37  1  0
  6 38  1  0
  6 39  1  0
  7 40  1  0
  7 41  1  0
  7 42  1  0
  8 43  1  0
  8 44  1  0
 13 45  1  0
 15 46  1  0
 16 47  1  0
 20 48  1  0
 21 49  1  0
 22 50  1  0
 23 51  1  0
 24 52  1  0
M  END
$$$$
