
     RDKit          3D

 48 50  0  0  0  0  0  0  0  0999 V2000
    4.1893    1.1903   -2.0921 O   0  0  0  0  0  0  0  0  0  0  0  0
    3.4002    0.4415   -1.5244 C   0  0  0  0  0  0  0  0  0  0  0  0
    2.0391    0.1029   -2.1557 C   0  0  0  0  0  0  0  0  0  0  0  0
    1.0400   -0.2925   -1.1257 N   0  0  0  0  0  0  0  0  0  0  0  0
   -0.0802   -1.0117   -1.7796 C   0  0  0  0  0  0  0  0  0  0  0  0
   -1.3684   -1.0252   -0.9348 C   0  0  0  0  0  0  0  0  0  0  0  0
   -1.8576    0.3359   -0.6773 N   0  0  0  0  0  0  0  0  0  0  0  0
   -3.1776    0.7080   -0.8745 C   0  0  0  0  0  0  0  0  0  0  0  0
   -3.4869    1.8508   -1.2090 O   0  0  0  0  0  0  0  0  0  0  0  0
   -4.1292   -0.2876   -0.6915 N   0  0  0  0  0  0  0  0  0  0  0  0
   -4.1621   -1.0098    0.5860 C   0  0  0  0  0  0  0  0  0  0  0  0
   -5.0431   -0.2643    1.6016 C   0  0  0  0  0  0  0  0  0  0  0  0
   -6.3669   -0.0560    1.0827 O   0  0  0  0  0  0  0  0  0  0  0  0
   -6.3181    0.7154   -0.1322 C   0  0  0  0  0  0  0  0  0  0  0  0
   -5.4774   -0.0071   -1.1918 C   0  0  0  0  0  0  0  0  0  0  0  0
   -0.8478    1.3916   -0.7545 C   0  0  0  0  0  0  0  0  0  0  0  0
    0.5518    0.8883   -0.3619 C   0  0  0  0  0  0  0  0  0  0  0  0
    3.6044   -0.2268   -0.3306 N   0  0  0  0  0  0  0  0  0  0  0  0
    4.7268   -0.1931    0.5116 C   0  0  0  0  0  0  0  0  0  0  0  0
    5.8908    0.5239    0.2274 C   0  0  0  0  0  0  0  0  0  0  0  0
    6.9694    0.5078    1.1192 C   0  0  0  0  0  0  0  0  0  0  0  0
    6.8847   -0.2278    2.2980 C   0  0  0  0  0  0  0  0  0  0  0  0
    8.3414   -0.2491    3.5013 Br  0  0  0  0  0  0  0  0  0  0  0  0
    5.7314   -0.9487    2.5940 C   0  0  0  0  0  0  0  0  0  0  0  0
    4.6559   -0.9304    1.7009 C   0  0  0  0  0  0  0  0  0  0  0  0
    2.2286   -0.7344   -2.8389 H   0  0  0  0  0  0  0  0  0  0  0  0
    1.6868    0.9602   -2.7410 H   0  0  0  0  0  0  0  0  0  0  0  0
   -0.3153   -0.5540   -2.7505 H   0  0  0  0  0  0  0  0  0  0  0  0
    0.2330   -2.0442   -1.9722 H   0  0  0  0  0  0  0  0  0  0  0  0
   -2.1323   -1.6184   -1.4474 H   0  0  0  0  0  0  0  0  0  0  0  0
   -1.1635   -1.4909    0.0358 H   0  0  0  0  0  0  0  0  0  0  0  0
   -3.1634   -1.1320    1.0092 H   0  0  0  0  0  0  0  0  0  0  0  0
   -4.5815   -2.0010    0.3800 H   0  0  0  0  0  0  0  0  0  0  0  0
   -4.6086    0.7067    1.8677 H   0  0  0  0  0  0  0  0  0  0  0  0
   -5.1347   -0.8544    2.5187 H   0  0  0  0  0  0  0  0  0  0  0  0
   -5.9198    1.7106    0.0953 H   0  0  0  0  0  0  0  0  0  0  0  0
   -7.3454    0.8371   -0.4890 H   0  0  0  0  0  0  0  0  0  0  0  0
   -5.4270    0.5802   -2.1148 H   0  0  0  0  0  0  0  0  0  0  0  0
   -5.9316   -0.9764   -1.4287 H   0  0  0  0  0  0  0  0  0  0  0  0
   -1.1527    2.2146   -0.0978 H   0  0  0  0  0  0  0  0  0  0  0  0
   -0.8365    1.7769   -1.7820 H   0  0  0  0  0  0  0  0  0  0  0  0
    0.5160    0.5804    0.6913 H   0  0  0  0  0  0  0  0  0  0  0  0
    1.2628    1.7221   -0.4029 H   0  0  0  0  0  0  0  0  0  0  0  0
    2.7943   -0.7627   -0.0268 H   0  0  0  0  0  0  0  0  0  0  0  0
    5.9929    1.1066   -0.6831 H   0  0  0  0  0  0  0  0  0  0  0  0
    7.8661    1.0730    0.8789 H   0  0  0  0  0  0  0  0  0  0  0  0
    5.6582   -1.5262    3.5115 H   0  0  0  0  0  0  0  0  0  0  0  0
    3.7637   -1.5000    1.9483 H   0  0  0  0  0  0  0  0  0  0  0  0
  1  2  2  0
  2  3  1  0
  3  4  1  0
  4  5  1  0
  5  6  1  0
  6  7  1  0
  7  8  1  0
  8  9  2  0
  8 10  1  0
 10 11  1  0
 11 12  1  0
 12 13  1  0
 13 14  1  0
 14 15  1  0
  7 16  1  0
 16 17  1  0
  2 18  1  0
 18 19  1  0
 19 20  2  0
 20 21  1  0
 21 22  2  0
 22 23  1  0
 22 24  1  0
 24 25  2  0
 17  4  1  0
 25 19  1  0
 15 10  1  0
  3 26  1  0
  3 27  1  0
  5 28  1  0
  5 29  1  0
  6 30  1  0
  6 31  1  0
 11 32  1  0
 11 33  1  0
 12 34  1  0
 12 35  1  0
 14 36  1  0
 14 37  1  0
 15 38  1  0
 15 39  1  0
 16 40  1  0
 16 41  1  0
 17 42  1  0
 17 43  1  0
 18 44  1  0
 20 45  1  0
 21 46  1  0
 24 47  1  0
 25 48  1  0
M  END
$$$$
