
     RDKit          3D

 44 46  0  0  0  0  0  0  0  0999 V2000
    0.9137   -0.2756   -2.2959 O   0  0  0  0  0  0  0  0  0  0  0  0
    0.7690   -0.9151   -1.2532 C   0  0  0  0  0  0  0  0  0  0  0  0
   -0.2833   -2.0112   -1.0934 C   0  0  0  0  0  0  0  0  0  0  0  0
   -1.2992   -1.7164   -0.1339 O   0  0  0  0  0  0  0  0  0  0  0  0
   -0.9781   -1.9696    1.1623 C   0  0  0  0  0  0  0  0  0  0  0  0
    0.1006   -2.4327    1.5189 O   0  0  0  0  0  0  0  0  0  0  0  0
   -2.1108   -1.6541    2.1324 C   0  0  0  0  0  0  0  0  0  0  0  0
   -3.2804   -1.0645    1.4942 N   0  0  0  0  0  0  0  0  0  0  0  0
   -4.3139   -1.8616    1.0683 C   0  0  0  0  0  0  0  0  0  0  0  0
   -5.3752   -1.4391    0.4702 N   0  0  0  0  0  0  0  0  0  0  0  0
   -5.4803   -0.0608    0.2295 C   0  0  0  0  0  0  0  0  0  0  0  0
   -6.6231    0.4280   -0.4071 C   0  0  0  0  0  0  0  0  0  0  0  0
   -6.7627    1.7942   -0.6692 C   0  0  0  0  0  0  0  0  0  0  0  0
   -5.7563    2.6857   -0.2963 C   0  0  0  0  0  0  0  0  0  0  0  0
   -4.6098    2.2119    0.3399 C   0  0  0  0  0  0  0  0  0  0  0  0
   -4.4818    0.8426    0.5987 C   0  0  0  0  0  0  0  0  0  0  0  0
   -3.2839    0.3038    1.2688 C   0  0  0  0  0  0  0  0  0  0  0  0
   -2.3572    1.0447    1.5844 O   0  0  0  0  0  0  0  0  0  0  0  0
    1.5657   -0.7132   -0.1434 N   0  0  0  0  0  0  0  0  0  0  0  0
    2.7064    0.0927   -0.3095 N   0  0  0  0  0  0  0  0  0  0  0  0
    3.9048   -0.4106    0.1633 C   0  0  0  0  0  0  0  0  0  0  0  0
    3.9764   -1.4256    0.8514 O   0  0  0  0  0  0  0  0  0  0  0  0
    5.1371    0.3250   -0.2362 C   0  0  0  0  0  0  0  0  0  0  0  0
    5.1133    1.6757   -0.6117 C   0  0  0  0  0  0  0  0  0  0  0  0
    6.2990    2.3225   -0.9754 C   0  0  0  0  0  0  0  0  0  0  0  0
    7.5058    1.6238   -0.9568 C   0  0  0  0  0  0  0  0  0  0  0  0
    9.1053    2.5027   -1.4481 Br  0  0  0  0  0  0  0  0  0  0  0  0
    7.5424    0.2850   -0.5719 C   0  0  0  0  0  0  0  0  0  0  0  0
    6.3589   -0.3624   -0.2078 C   0  0  0  0  0  0  0  0  0  0  0  0
    0.2090   -2.9675   -0.8787 H   0  0  0  0  0  0  0  0  0  0  0  0
   -0.7852   -2.1319   -2.0598 H   0  0  0  0  0  0  0  0  0  0  0  0
   -2.4034   -2.5937    2.6130 H   0  0  0  0  0  0  0  0  0  0  0  0
   -1.7236   -0.9636    2.8888 H   0  0  0  0  0  0  0  0  0  0  0  0
   -4.1873   -2.9363    1.2752 H   0  0  0  0  0  0  0  0  0  0  0  0
   -7.4087   -0.2634   -0.7015 H   0  0  0  0  0  0  0  0  0  0  0  0
   -7.6577    2.1606   -1.1665 H   0  0  0  0  0  0  0  0  0  0  0  0
   -5.8651    3.7479   -0.5024 H   0  0  0  0  0  0  0  0  0  0  0  0
   -3.8223    2.9033    0.6306 H   0  0  0  0  0  0  0  0  0  0  0  0
    1.6233   -1.4245    0.5945 H   0  0  0  0  0  0  0  0  0  0  0  0
    2.6834    0.6924   -1.1336 H   0  0  0  0  0  0  0  0  0  0  0  0
    4.1905    2.2495   -0.6046 H   0  0  0  0  0  0  0  0  0  0  0  0
    6.2717    3.3709   -1.2630 H   0  0  0  0  0  0  0  0  0  0  0  0
    8.4814   -0.2621   -0.5483 H   0  0  0  0  0  0  0  0  0  0  0  0
    6.3918   -1.4072    0.0972 H   0  0  0  0  0  0  0  0  0  0  0  0
  1  2  2  0
  2  3  1  0
  3  4  1  0
  4  5  1  0
  5  6  2  0
  5  7  1  0
  7  8  1  0
  8  9  1  0
  9 10  2  0
 10 11  1  0
 11 12  2  0
 12 13  1  0
 13 14  2  0
 14 15  1  0
 15 16  2  0
 16 17  1  0
 17 18  2  0
  2 19  1  0
 19 20  1  0
 20 21  1  0
 21 22  2  0
 21 23  1  0
 23 24  2  0
 24 25  1  0
 25 26  2  0
 26 27  1  0
 26 28  1  0
 28 29  2  0
 17  8  1  0
 29 23  1  0
 16 11  1  0
  3 30  1  0
  3 31  1  0
  7 32  1  0
  7 33  1  0
  9 34  1  0
 12 35  1  0
 13 36  1  0
 14 37  1  0
 15 38  1  0
 19 39  1  0
 20 40  1  0
 24 41  1  0
 25 42  1  0
 28 43  1  0
 29 44  1  0
M  END
$$$$
