
     RDKit          3D

 32 33  0  0  0  0  0  0  0  0999 V2000
   -6.2789   -0.5994   -1.4673 C   0  0  0  0  0  0  0  0  0  0  0  0
   -5.7055   -0.7984   -0.0769 C   0  0  0  0  0  0  0  0  0  0  0  0
   -4.2714   -0.7691   -0.1245 O   0  0  0  0  0  0  0  0  0  0  0  0
   -3.7035    0.4593   -0.0310 C   0  0  0  0  0  0  0  0  0  0  0  0
   -4.3002    1.5184    0.0823 O   0  0  0  0  0  0  0  0  0  0  0  0
   -2.2195    0.3561   -0.0901 C   0  0  0  0  0  0  0  0  0  0  0  0
   -1.4707    1.5367   -0.0036 C   0  0  0  0  0  0  0  0  0  0  0  0
   -0.0748    1.4943   -0.0535 C   0  0  0  0  0  0  0  0  0  0  0  0
    0.5950    0.2708   -0.1961 C   0  0  0  0  0  0  0  0  0  0  0  0
    2.1040    0.2226   -0.2342 C   0  0  0  0  0  0  0  0  0  0  0  0
    2.7983    0.0351    1.4340 S   0  0  0  0  0  0  0  0  0  0  0  0
    4.5049    0.0022    1.0610 C   0  0  0  0  0  0  0  0  0  0  0  0
    4.9717    0.1250   -0.1616 N   0  0  0  0  0  0  0  0  0  0  0  0
    6.3513    0.0634   -0.1945 N   0  0  0  0  0  0  0  0  0  0  0  0
    6.8746   -0.1017    0.9997 C   0  0  0  0  0  0  0  0  0  0  0  0
    8.1953   -0.1862    1.2501 N   0  0  0  0  0  0  0  0  0  0  0  0
    5.7118   -0.1854    2.2614 S   0  0  0  0  0  0  0  0  0  0  0  0
   -0.1576   -0.9101   -0.2755 C   0  0  0  0  0  0  0  0  0  0  0  0
   -1.5545   -0.8691   -0.2255 C   0  0  0  0  0  0  0  0  0  0  0  0
   -6.0056    0.3817   -1.8683 H   0  0  0  0  0  0  0  0  0  0  0  0
   -7.3695   -0.6790   -1.4521 H   0  0  0  0  0  0  0  0  0  0  0  0
   -5.8793   -1.3486   -2.1587 H   0  0  0  0  0  0  0  0  0  0  0  0
   -5.9925   -1.7849    0.3018 H   0  0  0  0  0  0  0  0  0  0  0  0
   -6.0968   -0.0566    0.6288 H   0  0  0  0  0  0  0  0  0  0  0  0
   -1.9720    2.4968    0.1063 H   0  0  0  0  0  0  0  0  0  0  0  0
    0.4861    2.4240    0.0229 H   0  0  0  0  0  0  0  0  0  0  0  0
    2.4867    1.1410   -0.6947 H   0  0  0  0  0  0  0  0  0  0  0  0
    2.4257   -0.6131   -0.8667 H   0  0  0  0  0  0  0  0  0  0  0  0
    8.5137    0.0572    2.1807 H   0  0  0  0  0  0  0  0  0  0  0  0
    8.8018    0.1536    0.5106 H   0  0  0  0  0  0  0  0  0  0  0  0
    0.3406   -1.8731   -0.3739 H   0  0  0  0  0  0  0  0  0  0  0  0
   -2.1088   -1.8020   -0.2907 H   0  0  0  0  0  0  0  0  0  0  0  0
  1  2  1  0
  2  3  1  0
  3  4  1  0
  4  5  2  0
  4  6  1  0
  6  7  2  0
  7  8  1  0
  8  9  2  0
  9 10  1  0
 10 11  1  0
 11 12  1  0
 12 13  2  0
 13 14  1  0
 14 15  2  0
 15 16  1  0
 15 17  1  0
  9 18  1  0
 18 19  2  0
 19  6  1  0
 17 12  1  0
  1 20  1  0
  1 21  1  0
  1 22  1  0
  2 23  1  0
  2 24  1  0
  7 25  1  0
  8 26  1  0
 10 27  1  0
 10 28  1  0
 16 29  1  0
 16 30  1  0
 18 31  1  0
 19 32  1  0
M  END
$$$$
