
     RDKit          3D

 46 49  0  0  0  0  0  0  0  0999 V2000
    5.3240   -2.4471   -0.3786 C   0  0  0  0  0  0  0  0  0  0  0  0
    5.3687   -1.3411    0.6590 C   0  0  0  0  0  0  0  0  0  0  0  0
    4.0696   -0.7514    0.8098 O   0  0  0  0  0  0  0  0  0  0  0  0
    3.7703    0.2616   -0.0495 C   0  0  0  0  0  0  0  0  0  0  0  0
    4.5283    0.6607   -0.9248 O   0  0  0  0  0  0  0  0  0  0  0  0
    2.5034    0.7714    0.1716 N   0  0  0  0  0  0  0  0  0  0  0  0
    1.9825    1.8275   -0.6878 C   0  0  0  0  0  0  0  0  0  0  0  0
    0.5288    1.5448   -1.0439 C   0  0  0  0  0  0  0  0  0  0  0  0
   -0.3742    1.4779    0.2185 C   0  0  0  0  0  0  0  0  0  0  0  0
    0.4549    1.2023    1.5005 C   0  0  0  0  0  0  0  0  0  0  0  0
    1.6419    0.2816    1.2420 C   0  0  0  0  0  0  0  0  0  0  0  0
   -1.0406    2.8104    0.3697 N   0  0  0  0  0  0  0  0  0  0  0  0
   -2.1665    2.7919    1.3336 C   0  0  0  0  0  0  0  0  0  0  0  0
   -3.3310    1.8788    0.8909 C   0  0  0  0  0  0  0  0  0  0  0  0
   -2.7981    0.5880    0.3752 C   0  0  0  0  0  0  0  0  0  0  0  0
   -1.4604    0.4345    0.0582 C   0  0  0  0  0  0  0  0  0  0  0  0
   -1.2872   -0.8554   -0.3743 N   0  0  0  0  0  0  0  0  0  0  0  0
   -2.4903   -1.5276   -0.3607 C   0  0  0  0  0  0  0  0  0  0  0  0
   -2.7881   -2.8464   -0.7243 C   0  0  0  0  0  0  0  0  0  0  0  0
   -4.1162   -3.2672   -0.6055 C   0  0  0  0  0  0  0  0  0  0  0  0
   -5.1048   -2.4025   -0.1412 C   0  0  0  0  0  0  0  0  0  0  0  0
   -4.7908   -1.0869    0.2189 C   0  0  0  0  0  0  0  0  0  0  0  0
   -3.4601   -0.6393    0.1077 C   0  0  0  0  0  0  0  0  0  0  0  0
    4.5665   -3.1921   -0.1136 H   0  0  0  0  0  0  0  0  0  0  0  0
    6.2951   -2.9438   -0.4581 H   0  0  0  0  0  0  0  0  0  0  0  0
    5.0516   -2.0527   -1.3626 H   0  0  0  0  0  0  0  0  0  0  0  0
    6.1249   -0.5872    0.4116 H   0  0  0  0  0  0  0  0  0  0  0  0
    5.6428   -1.7618    1.6320 H   0  0  0  0  0  0  0  0  0  0  0  0
    2.0832    2.7791   -0.1532 H   0  0  0  0  0  0  0  0  0  0  0  0
    2.5791    1.9043   -1.6029 H   0  0  0  0  0  0  0  0  0  0  0  0
    0.1736    2.3051   -1.7518 H   0  0  0  0  0  0  0  0  0  0  0  0
    0.4984    0.6021   -1.6051 H   0  0  0  0  0  0  0  0  0  0  0  0
   -0.1653    0.7758    2.2992 H   0  0  0  0  0  0  0  0  0  0  0  0
    0.8534    2.1483    1.8950 H   0  0  0  0  0  0  0  0  0  0  0  0
    2.2352    0.1811    2.1580 H   0  0  0  0  0  0  0  0  0  0  0  0
    1.3069   -0.7232    0.9617 H   0  0  0  0  0  0  0  0  0  0  0  0
   -1.4364    3.0582   -0.5385 H   0  0  0  0  0  0  0  0  0  0  0  0
   -1.8055    2.4923    2.3247 H   0  0  0  0  0  0  0  0  0  0  0  0
   -2.5433    3.8148    1.4468 H   0  0  0  0  0  0  0  0  0  0  0  0
   -3.9003    2.3707    0.0930 H   0  0  0  0  0  0  0  0  0  0  0  0
   -4.0096    1.7107    1.7340 H   0  0  0  0  0  0  0  0  0  0  0  0
   -0.4133   -1.2681   -0.6696 H   0  0  0  0  0  0  0  0  0  0  0  0
   -2.0214   -3.5231   -1.0867 H   0  0  0  0  0  0  0  0  0  0  0  0
   -4.3804   -4.2858   -0.8805 H   0  0  0  0  0  0  0  0  0  0  0  0
   -6.1311   -2.7509   -0.0569 H   0  0  0  0  0  0  0  0  0  0  0  0
   -5.5679   -0.4203    0.5798 H   0  0  0  0  0  0  0  0  0  0  0  0
  1  2  1  0
  2  3  1  0
  3  4  1  0
  4  5  2  0
  4  6  1  0
  6  7  1  0
  7  8  1  0
  8  9  1  0
  9 10  1  0
 10 11  1  0
  9 12  1  0
 12 13  1  0
 13 14  1  0
 14 15  1  0
 15 16  2  0
 16 17  1  0
 17 18  1  0
 18 19  2  0
 19 20  1  0
 20 21  2  0
 21 22  1  0
 22 23  2  0
 11  6  1  0
 23 15  1  0
 16  9  1  0
 23 18  1  0
  1 24  1  0
  1 25  1  0
  1 26  1  0
  2 27  1  0
  2 28  1  0
  7 29  1  0
  7 30  1  0
  8 31  1  0
  8 32  1  0
 10 33  1  0
 10 34  1  0
 11 35  1  0
 11 36  1  0
 12 37  1  0
 13 38  1  0
 13 39  1  0
 14 40  1  0
 14 41  1  0
 17 42  1  0
 19 43  1  0
 20 44  1  0
 21 45  1  0
 22 46  1  0
M  END
$$$$
