
     RDKit          3D

 49 51  0  0  0  0  0  0  0  0999 V2000
   -1.1618    1.7534    1.9694 O   0  0  0  0  0  0  0  0  0  0  0  0
   -0.7231    1.0744    1.0478 C   0  0  0  0  0  0  0  0  0  0  0  0
   -1.6209    0.2339    0.1556 C   0  0  0  0  0  0  0  0  0  0  0  0
   -3.0792    0.2892    0.6165 C   0  0  0  0  0  0  0  0  0  0  0  0
   -3.9619   -0.5816   -0.1823 N   0  0  0  0  0  0  0  0  0  0  0  0
   -5.2888   -0.6910    0.4292 C   0  0  0  0  0  0  0  0  0  0  0  0
   -6.0973   -1.8059   -0.2449 C   0  0  0  0  0  0  0  0  0  0  0  0
   -5.8790   -1.8818   -1.7571 C   0  0  0  0  0  0  0  0  0  0  0  0
   -5.3486   -0.5624   -2.2960 C   0  0  0  0  0  0  0  0  0  0  0  0
   -4.0486   -0.1512   -1.5897 C   0  0  0  0  0  0  0  0  0  0  0  0
    0.6042    0.9644    0.6748 N   0  0  0  0  0  0  0  0  0  0  0  0
    1.7337    1.6293    1.2109 C   0  0  0  0  0  0  0  0  0  0  0  0
    1.6272    2.5948    2.2187 C   0  0  0  0  0  0  0  0  0  0  0  0
    2.7597    3.2627    2.6962 C   0  0  0  0  0  0  0  0  0  0  0  0
    4.0111    2.9766    2.1628 C   0  0  0  0  0  0  0  0  0  0  0  0
    5.5351    3.8982    2.7946 Br  0  0  0  0  0  0  0  0  0  0  0  0
    4.1493    2.0150    1.1664 C   0  0  0  0  0  0  0  0  0  0  0  0
    3.0191    1.3205    0.7044 C   0  0  0  0  0  0  0  0  0  0  0  0
    3.1855    0.2685   -0.3413 C   0  0  0  0  0  0  0  0  0  0  0  0
    2.2829    0.0759   -1.1549 O   0  0  0  0  0  0  0  0  0  0  0  0
    4.4022   -0.5773   -0.4133 C   0  0  0  0  0  0  0  0  0  0  0  0
    4.8997   -0.9243   -1.6743 C   0  0  0  0  0  0  0  0  0  0  0  0
    6.0360   -1.7273   -1.7783 C   0  0  0  0  0  0  0  0  0  0  0  0
    6.6672   -2.1946   -0.6255 C   0  0  0  0  0  0  0  0  0  0  0  0
    6.1595   -1.8694    0.6328 C   0  0  0  0  0  0  0  0  0  0  0  0
    5.0227   -1.0664    0.7427 C   0  0  0  0  0  0  0  0  0  0  0  0
   -1.2611   -0.8020    0.1787 H   0  0  0  0  0  0  0  0  0  0  0  0
   -1.5207    0.6141   -0.8674 H   0  0  0  0  0  0  0  0  0  0  0  0
   -3.4449    1.3246    0.6043 H   0  0  0  0  0  0  0  0  0  0  0  0
   -3.1098   -0.0401    1.6637 H   0  0  0  0  0  0  0  0  0  0  0  0
   -5.8271    0.2639    0.3636 H   0  0  0  0  0  0  0  0  0  0  0  0
   -5.2096   -0.9358    1.4956 H   0  0  0  0  0  0  0  0  0  0  0  0
   -7.1611   -1.6411   -0.0351 H   0  0  0  0  0  0  0  0  0  0  0  0
   -5.8409   -2.7767    0.1969 H   0  0  0  0  0  0  0  0  0  0  0  0
   -6.8136   -2.1561   -2.2586 H   0  0  0  0  0  0  0  0  0  0  0  0
   -5.1578   -2.6782   -1.9802 H   0  0  0  0  0  0  0  0  0  0  0  0
   -6.1079    0.2163   -2.1486 H   0  0  0  0  0  0  0  0  0  0  0  0
   -5.1758   -0.6364   -3.3756 H   0  0  0  0  0  0  0  0  0  0  0  0
   -3.9541    0.9385   -1.6827 H   0  0  0  0  0  0  0  0  0  0  0  0
   -3.2036   -0.5932   -2.1315 H   0  0  0  0  0  0  0  0  0  0  0  0
    0.8058    0.3669   -0.1319 H   0  0  0  0  0  0  0  0  0  0  0  0
    0.6681    2.8663    2.6498 H   0  0  0  0  0  0  0  0  0  0  0  0
    2.6439    4.0124    3.4757 H   0  0  0  0  0  0  0  0  0  0  0  0
    5.1334    1.8197    0.7480 H   0  0  0  0  0  0  0  0  0  0  0  0
    4.4038   -0.5712   -2.5762 H   0  0  0  0  0  0  0  0  0  0  0  0
    6.4249   -1.9939   -2.7581 H   0  0  0  0  0  0  0  0  0  0  0  0
    7.5505   -2.8238   -0.7086 H   0  0  0  0  0  0  0  0  0  0  0  0
    6.6453   -2.2508    1.5280 H   0  0  0  0  0  0  0  0  0  0  0  0
    4.6262   -0.8475    1.7309 H   0  0  0  0  0  0  0  0  0  0  0  0
  1  2  2  0
  2  3  1  0
  3  4  1  0
  4  5  1  0
  5  6  1  0
  6  7  1  0
  7  8  1  0
  8  9  1  0
  9 10  1  0
  2 11  1  0
 11 12  1  0
 12 13  2  0
 13 14  1  0
 14 15  2  0
 15 16  1  0
 15 17  1  0
 17 18  2  0
 18 19  1  0
 19 20  2  0
 19 21  1  0
 21 22  2  0
 22 23  1  0
 23 24  2  0
 24 25  1  0
 25 26  2  0
 10  5  1  0
 18 12  1  0
 26 21  1  0
  3 27  1  0
  3 28  1  0
  4 29  1  0
  4 30  1  0
  6 31  1  0
  6 32  1  0
  7 33  1  0
  7 34  1  0
  8 35  1  0
  8 36  1  0
  9 37  1  0
  9 38  1  0
 10 39  1  0
 10 40  1  0
 11 41  1  0
 13 42  1  0
 14 43  1  0
 17 44  1  0
 22 45  1  0
 23 46  1  0
 24 47  1  0
 25 48  1  0
 26 49  1  0
M  END
$$$$
