
     RDKit          3D

 64 68  0  0  0  0  0  0  0  0999 V2000
   -3.7959   -1.1224   -4.7478 C   0  0  0  0  0  0  0  0  0  0  0  0
   -3.9325   -1.9541   -3.4650 C   0  0  0  0  0  0  0  0  0  0  0  0
   -5.2159   -1.4937   -2.7404 C   0  0  0  0  0  0  0  0  0  0  0  0
   -4.0993   -3.4412   -3.8162 C   0  0  0  0  0  0  0  0  0  0  0  0
   -2.7443   -1.8019   -2.4792 C   0  0  0  0  0  0  0  0  0  0  0  0
   -2.9065   -1.9894   -1.2688 O   0  0  0  0  0  0  0  0  0  0  0  0
   -1.3478   -1.5573   -2.9661 C   0  0  0  0  0  0  0  0  0  0  0  0
   -0.8933   -2.4079   -4.0142 C   0  0  0  0  0  0  0  0  0  0  0  0
   -0.5402   -3.0906   -4.8831 N   0  0  0  0  0  0  0  0  0  0  0  0
   -0.4984   -0.7460   -2.2892 C   0  0  0  0  0  0  0  0  0  0  0  0
    1.2378   -0.8528   -2.5322 S   0  0  0  0  0  0  0  0  0  0  0  0
    1.5376   -0.1591   -0.9798 C   0  0  0  0  0  0  0  0  0  0  0  0
    2.7325   -0.2369   -0.3754 C   0  0  0  0  0  0  0  0  0  0  0  0
    3.0772    0.2696    0.9083 C   0  0  0  0  0  0  0  0  0  0  0  0
    3.5688    1.5295    1.1482 C   0  0  0  0  0  0  0  0  0  0  0  0
    3.8176    1.6067    2.5012 N   0  0  0  0  0  0  0  0  0  0  0  0
    4.3031    2.7225    3.2405 C   0  0  0  0  0  0  0  0  0  0  0  0
    4.5658    3.9503    2.6170 C   0  0  0  0  0  0  0  0  0  0  0  0
    5.0417    5.0294    3.3689 C   0  0  0  0  0  0  0  0  0  0  0  0
    5.2563    4.8923    4.7395 C   0  0  0  0  0  0  0  0  0  0  0  0
    4.9954    3.6753    5.3653 C   0  0  0  0  0  0  0  0  0  0  0  0
    4.5199    2.5932    4.6217 C   0  0  0  0  0  0  0  0  0  0  0  0
    3.5714    0.4204    3.1165 N   0  0  0  0  0  0  0  0  0  0  0  0
    3.0721   -0.3821    2.1674 C   0  0  0  0  0  0  0  0  0  0  0  0
    2.6450   -1.7341    2.4889 C   0  0  0  0  0  0  0  0  0  0  0  0
    1.3592   -2.1882    2.1881 C   0  0  0  0  0  0  0  0  0  0  0  0
    1.0000   -3.4972    2.5033 C   0  0  0  0  0  0  0  0  0  0  0  0
    1.9426   -4.3101    3.1127 C   0  0  0  0  0  0  0  0  0  0  0  0
    3.1917   -3.9050    3.4276 N   0  0  0  0  0  0  0  0  0  0  0  0
    3.5088   -2.6217    3.1211 C   0  0  0  0  0  0  0  0  0  0  0  0
    0.3115    0.4986   -0.4462 C   0  0  0  0  0  0  0  0  0  0  0  0
    0.3191    1.2481    0.5200 O   0  0  0  0  0  0  0  0  0  0  0  0
   -0.7872    0.1510   -1.2572 N   0  0  0  0  0  0  0  0  0  0  0  0
   -2.0064    0.8810   -1.0921 C   0  0  0  0  0  0  0  0  0  0  0  0
   -2.5401    1.1214    0.1833 C   0  0  0  0  0  0  0  0  0  0  0  0
   -3.7151    1.8623    0.3359 C   0  0  0  0  0  0  0  0  0  0  0  0
   -4.3490    2.3805   -0.7845 C   0  0  0  0  0  0  0  0  0  0  0  0
   -5.4727    3.0942   -0.6400 F   0  0  0  0  0  0  0  0  0  0  0  0
   -3.8268    2.1774   -2.0557 C   0  0  0  0  0  0  0  0  0  0  0  0
   -2.6569    1.4283   -2.2101 C   0  0  0  0  0  0  0  0  0  0  0  0
   -2.9898   -1.4783   -5.3947 H   0  0  0  0  0  0  0  0  0  0  0  0
   -4.7158   -1.1658   -5.3433 H   0  0  0  0  0  0  0  0  0  0  0  0
   -3.5997   -0.0704   -4.5248 H   0  0  0  0  0  0  0  0  0  0  0  0
   -5.1394   -0.4501   -2.4221 H   0  0  0  0  0  0  0  0  0  0  0  0
   -5.4103   -2.0942   -1.8442 H   0  0  0  0  0  0  0  0  0  0  0  0
   -6.0953   -1.5817   -3.3888 H   0  0  0  0  0  0  0  0  0  0  0  0
   -3.2680   -3.8163   -4.4195 H   0  0  0  0  0  0  0  0  0  0  0  0
   -5.0189   -3.6124   -4.3873 H   0  0  0  0  0  0  0  0  0  0  0  0
   -4.1462   -4.0598   -2.9127 H   0  0  0  0  0  0  0  0  0  0  0  0
    3.5382   -0.7609   -0.8879 H   0  0  0  0  0  0  0  0  0  0  0  0
    3.7461    2.3587    0.4818 H   0  0  0  0  0  0  0  0  0  0  0  0
    4.4073    4.1059    1.5547 H   0  0  0  0  0  0  0  0  0  0  0  0
    5.2429    5.9812    2.8828 H   0  0  0  0  0  0  0  0  0  0  0  0
    5.6238    5.7350    5.3198 H   0  0  0  0  0  0  0  0  0  0  0  0
    5.1601    3.5644    6.4338 H   0  0  0  0  0  0  0  0  0  0  0  0
    4.3203    1.6536    5.1347 H   0  0  0  0  0  0  0  0  0  0  0  0
    0.6254   -1.5254    1.7398 H   0  0  0  0  0  0  0  0  0  0  0  0
    0.0042   -3.8693    2.2891 H   0  0  0  0  0  0  0  0  0  0  0  0
    1.7089   -5.3374    3.3780 H   0  0  0  0  0  0  0  0  0  0  0  0
    4.5141   -2.3199    3.4047 H   0  0  0  0  0  0  0  0  0  0  0  0
   -2.0599    0.7185    1.0727 H   0  0  0  0  0  0  0  0  0  0  0  0
   -4.1327    2.0390    1.3223 H   0  0  0  0  0  0  0  0  0  0  0  0
   -4.3272    2.6132   -2.9148 H   0  0  0  0  0  0  0  0  0  0  0  0
   -2.2347    1.3319   -3.2063 H   0  0  0  0  0  0  0  0  0  0  0  0
  1  2  1  0
  2  3  1  0
  2  4  1  0
  2  5  1  0
  5  6  2  0
  5  7  1  0
  7  8  1  0
  8  9  3  0
  7 10  2  3
 10 11  1  0
 11 12  1  0
 12 13  2  3
 13 14  1  0
 14 15  2  0
 15 16  1  0
 16 17  1  0
 17 18  2  0
 18 19  1  0
 19 20  2  0
 20 21  1  0
 21 22  2  0
 16 23  1  0
 23 24  2  0
 24 25  1  0
 25 26  2  0
 26 27  1  0
 27 28  2  0
 28 29  1  0
 29 30  2  0
 12 31  1  0
 31 32  2  0
 31 33  1  0
 33 34  1  0
 34 35  2  0
 35 36  1  0
 36 37  2  0
 37 38  1  0
 37 39  1  0
 39 40  2  0
 33 10  1  0
 40 34  1  0
 24 14  1  0
 30 25  1  0
 22 17  1  0
  1 41  1  0
  1 42  1  0
  1 43  1  0
  3 44  1  0
  3 45  1  0
  3 46  1  0
  4 47  1  0
  4 48  1  0
  4 49  1  0
 13 50  1  0
 15 51  1  0
 18 52  1  0
 19 53  1  0
 20 54  1  0
 21 55  1  0
 22 56  1  0
 26 57  1  0
 27 58  1  0
 28 59  1  0
 30 60  1  0
 35 61  1  0
 36 62  1  0
 39 63  1  0
 40 64  1  0
M  END
$$$$
