
     RDKit          3D

 43 45  0  0  0  0  0  0  0  0999 V2000
    6.2138   -1.3054    1.6939 C   0  0  0  0  0  0  0  0  0  0  0  0
    6.5364   -0.1719    0.8989 O   0  0  0  0  0  0  0  0  0  0  0  0
    5.5327    0.3602    0.1365 C   0  0  0  0  0  0  0  0  0  0  0  0
    5.9195    1.4353   -0.6634 C   0  0  0  0  0  0  0  0  0  0  0  0
    4.9903    2.0769   -1.4792 C   0  0  0  0  0  0  0  0  0  0  0  0
    3.6648    1.6395   -1.5076 C   0  0  0  0  0  0  0  0  0  0  0  0
    3.2646    0.5493   -0.7342 C   0  0  0  0  0  0  0  0  0  0  0  0
    1.9348    0.0735   -0.6783 N   0  0  0  0  0  0  0  0  0  0  0  0
    0.8904    0.1635   -1.5919 C   0  0  0  0  0  0  0  0  0  0  0  0
    1.0740    0.4174   -3.2441 S   0  0  0  0  0  0  0  0  0  0  0  0
   -0.3617   -0.0549   -0.9782 N   0  0  0  0  0  0  0  0  0  0  0  0
   -1.6058   -0.2447   -1.7512 C   0  0  0  0  0  0  0  0  0  0  0  0
   -2.6940   -1.0261   -0.9863 C   0  0  0  0  0  0  0  0  0  0  0  0
   -2.9351   -0.4963    0.3671 N   0  0  0  0  0  0  0  0  0  0  0  0
   -4.2577   -0.3645    0.7886 C   0  0  0  0  0  0  0  0  0  0  0  0
   -5.1949   -1.3672    0.5286 C   0  0  0  0  0  0  0  0  0  0  0  0
   -6.5112   -1.2306    0.9697 C   0  0  0  0  0  0  0  0  0  0  0  0
   -6.8727   -0.0951    1.6751 C   0  0  0  0  0  0  0  0  0  0  0  0
   -5.8936    0.8490    1.9134 C   0  0  0  0  0  0  0  0  0  0  0  0
   -4.6130    0.7322    1.4946 N   0  0  0  0  0  0  0  0  0  0  0  0
   -2.0158    0.5511    0.8314 C   0  0  0  0  0  0  0  0  0  0  0  0
   -0.5670    0.1822    0.4665 C   0  0  0  0  0  0  0  0  0  0  0  0
    4.2036   -0.0718    0.1061 C   0  0  0  0  0  0  0  0  0  0  0  0
    5.4662   -1.0538    2.4532 H   0  0  0  0  0  0  0  0  0  0  0  0
    7.1239   -1.6190    2.2142 H   0  0  0  0  0  0  0  0  0  0  0  0
    5.8804   -2.1429    1.0721 H   0  0  0  0  0  0  0  0  0  0  0  0
    6.9504    1.7800   -0.6448 H   0  0  0  0  0  0  0  0  0  0  0  0
    5.2944    2.9246   -2.0877 H   0  0  0  0  0  0  0  0  0  0  0  0
    2.9604    2.1944   -2.1181 H   0  0  0  0  0  0  0  0  0  0  0  0
    1.7580   -0.6083    0.0469 H   0  0  0  0  0  0  0  0  0  0  0  0
   -1.9768    0.7553   -2.0087 H   0  0  0  0  0  0  0  0  0  0  0  0
   -1.3951   -0.7741   -2.6853 H   0  0  0  0  0  0  0  0  0  0  0  0
   -3.6011   -1.0135   -1.6033 H   0  0  0  0  0  0  0  0  0  0  0  0
   -2.3774   -2.0712   -0.8845 H   0  0  0  0  0  0  0  0  0  0  0  0
   -4.9060   -2.2707    0.0030 H   0  0  0  0  0  0  0  0  0  0  0  0
   -7.2392   -2.0106    0.7686 H   0  0  0  0  0  0  0  0  0  0  0  0
   -7.8843    0.0474    2.0363 H   0  0  0  0  0  0  0  0  0  0  0  0
   -6.1146    1.7565    2.4675 H   0  0  0  0  0  0  0  0  0  0  0  0
   -2.0708    0.6593    1.9219 H   0  0  0  0  0  0  0  0  0  0  0  0
   -2.2748    1.5158    0.3757 H   0  0  0  0  0  0  0  0  0  0  0  0
   -0.2841   -0.7454    0.9788 H   0  0  0  0  0  0  0  0  0  0  0  0
    0.1048    0.9783    0.8060 H   0  0  0  0  0  0  0  0  0  0  0  0
    3.8837   -0.9040    0.7227 H   0  0  0  0  0  0  0  0  0  0  0  0
  1  2  1  0
  2  3  1  0
  3  4  2  0
  4  5  1  0
  5  6  2  0
  6  7  1  0
  7  8  1  0
  8  9  1  0
  9 10  2  0
  9 11  1  0
 11 12  1  0
 12 13  1  0
 13 14  1  0
 14 15  1  0
 15 16  2  0
 16 17  1  0
 17 18  2  0
 18 19  1  0
 19 20  2  0
 14 21  1  0
 21 22  1  0
  7 23  2  0
 23  3  1  0
 22 11  1  0
 20 15  1  0
  1 24  1  0
  1 25  1  0
  1 26  1  0
  4 27  1  0
  5 28  1  0
  6 29  1  0
  8 30  1  0
 12 31  1  0
 12 32  1  0
 13 33  1  0
 13 34  1  0
 16 35  1  0
 17 36  1  0
 18 37  1  0
 19 38  1  0
 21 39  1  0
 21 40  1  0
 22 41  1  0
 22 42  1  0
 23 43  1  0
M  END
$$$$
