
     RDKit          3D

 31 32  0  0  0  0  0  0  0  0999 V2000
   -0.0007   -2.6328   -0.4959 S   0  0  0  0  0  0  0  0  0  0  0  0
   -0.1743   -0.9624   -0.5879 C   0  0  0  0  0  0  0  0  0  0  0  0
    0.8800   -0.0775   -0.7845 N   0  0  0  0  0  0  0  0  0  0  0  0
    2.2740   -0.2136   -0.5675 C   0  0  0  0  0  0  0  0  0  0  0  0
    2.8179   -1.0809    0.3841 C   0  0  0  0  0  0  0  0  0  0  0  0
    4.2026   -1.1485    0.5769 C   0  0  0  0  0  0  0  0  0  0  0  0
    5.0515   -0.3335   -0.1673 C   0  0  0  0  0  0  0  0  0  0  0  0
    6.7516   -0.4196    0.0786 Cl  0  0  0  0  0  0  0  0  0  0  0  0
    4.5321    0.5615   -1.0960 C   0  0  0  0  0  0  0  0  0  0  0  0
    3.1498    0.6256   -1.2850 C   0  0  0  0  0  0  0  0  0  0  0  0
    2.5404    1.7682   -2.4367 Cl  0  0  0  0  0  0  0  0  0  0  0  0
   -1.4218   -0.2951   -0.5287 N   0  0  0  0  0  0  0  0  0  0  0  0
   -1.5103    1.1567   -0.2949 C   0  0  0  0  0  0  0  0  0  0  0  0
   -2.9009    1.6286    0.1297 C   0  0  0  0  0  0  0  0  0  0  0  0
   -3.4846    0.7182    1.2051 C   0  0  0  0  0  0  0  0  0  0  0  0
   -3.4409   -0.7610    0.8077 C   0  0  0  0  0  0  0  0  0  0  0  0
   -2.7140   -0.9982   -0.5137 C   0  0  0  0  0  0  0  0  0  0  0  0
    0.6456    0.6883   -1.4064 H   0  0  0  0  0  0  0  0  0  0  0  0
    2.1873   -1.6963    1.0183 H   0  0  0  0  0  0  0  0  0  0  0  0
    4.6062   -1.8347    1.3178 H   0  0  0  0  0  0  0  0  0  0  0  0
    5.1958    1.2056   -1.6657 H   0  0  0  0  0  0  0  0  0  0  0  0
   -0.7823    1.4233    0.4808 H   0  0  0  0  0  0  0  0  0  0  0  0
   -1.2212    1.6696   -1.2190 H   0  0  0  0  0  0  0  0  0  0  0  0
   -3.5703    1.6379   -0.7396 H   0  0  0  0  0  0  0  0  0  0  0  0
   -2.8490    2.6610    0.4932 H   0  0  0  0  0  0  0  0  0  0  0  0
   -2.9214    0.8540    2.1370 H   0  0  0  0  0  0  0  0  0  0  0  0
   -4.5168    1.0151    1.4240 H   0  0  0  0  0  0  0  0  0  0  0  0
   -2.9444   -1.3254    1.6069 H   0  0  0  0  0  0  0  0  0  0  0  0
   -4.4606   -1.1571    0.7366 H   0  0  0  0  0  0  0  0  0  0  0  0
   -3.3037   -0.6065   -1.3519 H   0  0  0  0  0  0  0  0  0  0  0  0
   -2.6174   -2.0704   -0.6935 H   0  0  0  0  0  0  0  0  0  0  0  0
  1  2  2  0
  2  3  1  0
  3  4  1  0
  4  5  2  0
  5  6  1  0
  6  7  2  0
  7  8  1  0
  7  9  1  0
  9 10  2  0
 10 11  1  0
  2 12  1  0
 12 13  1  0
 13 14  1  0
 14 15  1  0
 15 16  1  0
 16 17  1  0
 10  4  1  0
 17 12  1  0
  3 18  1  0
  5 19  1  0
  6 20  1  0
  9 21  1  0
 13 22  1  0
 13 23  1  0
 14 24  1  0
 14 25  1  0
 15 26  1  0
 15 27  1  0
 16 28  1  0
 16 29  1  0
 17 30  1  0
 17 31  1  0
M  END
$$$$
