
     RDKit          3D

 48 50  0  0  0  0  0  0  0  0999 V2000
   -3.2507   -0.8588    1.2747 O   0  0  0  0  0  0  0  0  0  0  0  0
   -2.6431    0.2089    1.2639 C   0  0  0  0  0  0  0  0  0  0  0  0
   -1.3726    0.4783    2.0434 C   0  0  0  0  0  0  0  0  0  0  0  0
   -0.9220   -0.7430    2.8427 C   0  0  0  0  0  0  0  0  0  0  0  0
    0.3046   -0.4744    3.7215 C   0  0  0  0  0  0  0  0  0  0  0  0
    1.5208   -0.2046    2.9509 N   0  0  0  0  0  0  0  0  0  0  0  0
    2.1779   -1.2752    2.3649 C   0  0  0  0  0  0  0  0  0  0  0  0
    1.8480   -2.4509    2.4392 O   0  0  0  0  0  0  0  0  0  0  0  0
    3.3742   -0.8037    1.6223 C   0  0  0  0  0  0  0  0  0  0  0  0
    4.1555   -1.6451    0.9329 C   0  0  0  0  0  0  0  0  0  0  0  0
    5.3377   -1.2476    0.1573 C   0  0  0  0  0  0  0  0  0  0  0  0
    6.5896   -1.2813    0.7885 C   0  0  0  0  0  0  0  0  0  0  0  0
    7.7424   -0.9040    0.0961 C   0  0  0  0  0  0  0  0  0  0  0  0
    7.6564   -0.4901   -1.2318 C   0  0  0  0  0  0  0  0  0  0  0  0
    6.4170   -0.4535   -1.8712 C   0  0  0  0  0  0  0  0  0  0  0  0
    5.2609   -0.8298   -1.1816 C   0  0  0  0  0  0  0  0  0  0  0  0
    3.7550   -0.7685   -2.0310 Cl  0  0  0  0  0  0  0  0  0  0  0  0
    3.5471    0.8946    1.7922 S   0  0  0  0  0  0  0  0  0  0  0  0
    2.0991    1.0375    2.7819 C   0  0  0  0  0  0  0  0  0  0  0  0
    1.5846    2.5087    3.3779 S   0  0  0  0  0  0  0  0  0  0  0  0
   -3.0710    1.3024    0.5338 N   0  0  0  0  0  0  0  0  0  0  0  0
   -4.0876    1.0679   -0.4137 N   0  0  0  0  0  0  0  0  0  0  0  0
   -3.9074    1.6323   -1.6636 C   0  0  0  0  0  0  0  0  0  0  0  0
   -3.0133    2.4432   -1.8955 O   0  0  0  0  0  0  0  0  0  0  0  0
   -4.8317    1.1827   -2.7417 C   0  0  0  0  0  0  0  0  0  0  0  0
   -6.0854    0.6182   -2.4666 C   0  0  0  0  0  0  0  0  0  0  0  0
   -6.9175    0.2160   -3.5170 C   0  0  0  0  0  0  0  0  0  0  0  0
   -6.5028    0.3831   -4.8379 C   0  0  0  0  0  0  0  0  0  0  0  0
   -7.5307   -0.1122   -6.1248 Cl  0  0  0  0  0  0  0  0  0  0  0  0
   -5.2644    0.9550   -5.1213 C   0  0  0  0  0  0  0  0  0  0  0  0
   -4.4310    1.3580   -4.0742 C   0  0  0  0  0  0  0  0  0  0  0  0
   -1.5637    1.3193    2.7194 H   0  0  0  0  0  0  0  0  0  0  0  0
   -0.5956    0.7712    1.3287 H   0  0  0  0  0  0  0  0  0  0  0  0
   -0.7228   -1.5748    2.1561 H   0  0  0  0  0  0  0  0  0  0  0  0
   -1.7432   -1.0703    3.4931 H   0  0  0  0  0  0  0  0  0  0  0  0
    0.0947    0.3429    4.4174 H   0  0  0  0  0  0  0  0  0  0  0  0
    0.4918   -1.3659    4.3331 H   0  0  0  0  0  0  0  0  0  0  0  0
    3.9248   -2.7085    0.9025 H   0  0  0  0  0  0  0  0  0  0  0  0
    6.6765   -1.5991    1.8256 H   0  0  0  0  0  0  0  0  0  0  0  0
    8.7085   -0.9317    0.5951 H   0  0  0  0  0  0  0  0  0  0  0  0
    8.5544   -0.1957   -1.7697 H   0  0  0  0  0  0  0  0  0  0  0  0
    6.3581   -0.1303   -2.9076 H   0  0  0  0  0  0  0  0  0  0  0  0
   -2.4140    2.0404    0.2747 H   0  0  0  0  0  0  0  0  0  0  0  0
   -4.5672    0.1740   -0.3059 H   0  0  0  0  0  0  0  0  0  0  0  0
   -6.4453    0.5035   -1.4477 H   0  0  0  0  0  0  0  0  0  0  0  0
   -7.8896   -0.2198   -3.2987 H   0  0  0  0  0  0  0  0  0  0  0  0
   -4.9416    1.0925   -6.1501 H   0  0  0  0  0  0  0  0  0  0  0  0
   -3.4655    1.8078   -4.3016 H   0  0  0  0  0  0  0  0  0  0  0  0
  1  2  2  0
  2  3  1  0
  3  4  1  0
  4  5  1  0
  5  6  1  0
  6  7  1  0
  7  8  2  0
  7  9  1  0
  9 10  2  3
 10 11  1  0
 11 12  2  0
 12 13  1  0
 13 14  2  0
 14 15  1  0
 15 16  2  0
 16 17  1  0
  9 18  1  0
 18 19  1  0
 19 20  2  0
  2 21  1  0
 21 22  1  0
 22 23  1  0
 23 24  2  0
 23 25  1  0
 25 26  2  0
 26 27  1  0
 27 28  2  0
 28 29  1  0
 28 30  1  0
 30 31  2  0
 19  6  1  0
 31 25  1  0
 16 11  1  0
  3 32  1  0
  3 33  1  0
  4 34  1  0
  4 35  1  0
  5 36  1  0
  5 37  1  0
 10 38  1  0
 12 39  1  0
 13 40  1  0
 14 41  1  0
 15 42  1  0
 21 43  1  0
 22 44  1  0
 26 45  1  0
 27 46  1  0
 30 47  1  0
 31 48  1  0
M  END
$$$$
