
     RDKit          3D

 45 47  0  0  0  0  0  0  0  0999 V2000
    4.3909    0.9536    4.4944 N   0  0  0  0  0  0  0  0  0  0  0  0
    4.6869    0.6059    3.4272 C   0  0  0  0  0  0  0  0  0  0  0  0
    5.0375    0.1748    2.1134 C   0  0  0  0  0  0  0  0  0  0  0  0
    6.4254   -0.0503    1.8740 C   0  0  0  0  0  0  0  0  0  0  0  0
    7.5517   -0.2387    1.6661 N   0  0  0  0  0  0  0  0  0  0  0  0
    4.1097   -0.0235    1.1421 C   0  0  0  0  0  0  0  0  0  0  0  0
    2.6708    0.1687    1.3596 C   0  0  0  0  0  0  0  0  0  0  0  0
    1.7492    0.1079    0.3793 C   0  0  0  0  0  0  0  0  0  0  0  0
    0.3343    0.2886    0.6703 C   0  0  0  0  0  0  0  0  0  0  0  0
   -0.6428    0.3832   -0.2581 C   0  0  0  0  0  0  0  0  0  0  0  0
   -2.0118    0.4925    0.0712 N   0  0  0  0  0  0  0  0  0  0  0  0
   -2.5939   -0.1409    1.2677 C   0  0  0  0  0  0  0  0  0  0  0  0
   -3.4971   -1.3233    0.9032 C   0  0  0  0  0  0  0  0  0  0  0  0
   -4.8501   -0.8911    0.3428 C   0  0  0  0  0  0  0  0  0  0  0  0
   -4.8716   -0.5707   -1.1510 C   0  0  0  0  0  0  0  0  0  0  0  0
   -3.6593    0.1537   -1.7369 C   0  0  0  0  0  0  0  0  0  0  0  0
   -2.9989    1.1576   -0.7978 C   0  0  0  0  0  0  0  0  0  0  0  0
   -0.2556    0.3742   -1.7345 C   0  0  0  0  0  0  0  0  0  0  0  0
    1.2222    0.6757   -1.9946 C   0  0  0  0  0  0  0  0  0  0  0  0
    2.1171   -0.1436   -1.0653 C   0  0  0  0  0  0  0  0  0  0  0  0
    3.5946    0.1682   -1.3292 C   0  0  0  0  0  0  0  0  0  0  0  0
    4.4779   -0.4803   -0.2646 C   0  0  0  0  0  0  0  0  0  0  0  0
    2.3299    0.3749    2.3739 H   0  0  0  0  0  0  0  0  0  0  0  0
    0.0755    0.3651    1.7223 H   0  0  0  0  0  0  0  0  0  0  0  0
   -1.8177   -0.5255    1.9366 H   0  0  0  0  0  0  0  0  0  0  0  0
   -3.1457    0.6075    1.8496 H   0  0  0  0  0  0  0  0  0  0  0  0
   -3.6876   -1.8844    1.8270 H   0  0  0  0  0  0  0  0  0  0  0  0
   -2.9912   -2.0107    0.2151 H   0  0  0  0  0  0  0  0  0  0  0  0
   -5.2251   -0.0280    0.9070 H   0  0  0  0  0  0  0  0  0  0  0  0
   -5.5759   -1.6954    0.5187 H   0  0  0  0  0  0  0  0  0  0  0  0
   -5.0100   -1.5035   -1.7128 H   0  0  0  0  0  0  0  0  0  0  0  0
   -5.7708    0.0264   -1.3514 H   0  0  0  0  0  0  0  0  0  0  0  0
   -2.9320   -0.5942   -2.0738 H   0  0  0  0  0  0  0  0  0  0  0  0
   -3.9913    0.6789   -2.6412 H   0  0  0  0  0  0  0  0  0  0  0  0
   -2.5121    1.9495   -1.3778 H   0  0  0  0  0  0  0  0  0  0  0  0
   -3.7514    1.6801   -0.1938 H   0  0  0  0  0  0  0  0  0  0  0  0
   -0.8310    1.1059   -2.3084 H   0  0  0  0  0  0  0  0  0  0  0  0
   -0.4980   -0.6150   -2.1431 H   0  0  0  0  0  0  0  0  0  0  0  0
    1.4584    0.4564   -3.0429 H   0  0  0  0  0  0  0  0  0  0  0  0
    1.4033    1.7494   -1.8477 H   0  0  0  0  0  0  0  0  0  0  0  0
    1.9476   -1.2106   -1.2713 H   0  0  0  0  0  0  0  0  0  0  0  0
    3.8808   -0.2026   -2.3209 H   0  0  0  0  0  0  0  0  0  0  0  0
    3.7654    1.2533   -1.3346 H   0  0  0  0  0  0  0  0  0  0  0  0
    4.3727   -1.5719   -0.3179 H   0  0  0  0  0  0  0  0  0  0  0  0
    5.5191   -0.2478   -0.5119 H   0  0  0  0  0  0  0  0  0  0  0  0
  1  2  3  0
  2  3  1  0
  3  4  1  0
  4  5  3  0
  3  6  2  3
  6  7  1  0
  7  8  2  0
  8  9  1  0
  9 10  2  0
 10 11  1  0
 11 12  1  0
 12 13  1  0
 13 14  1  0
 14 15  1  0
 15 16  1  0
 16 17  1  0
 10 18  1  0
 18 19  1  0
 19 20  1  0
 20 21  1  0
 21 22  1  0
 22  6  1  0
 20  8  1  0
 17 11  1  0
  7 23  1  0
  9 24  1  0
 12 25  1  0
 12 26  1  0
 13 27  1  0
 13 28  1  0
 14 29  1  0
 14 30  1  0
 15 31  1  0
 15 32  1  0
 16 33  1  0
 16 34  1  0
 17 35  1  0
 17 36  1  0
 18 37  1  0
 18 38  1  0
 19 39  1  0
 19 40  1  0
 20 41  1  0
 21 42  1  0
 21 43  1  0
 22 44  1  0
 22 45  1  0
M  END
$$$$
