
     RDKit          3D

 37 37  0  0  0  0  0  0  0  0999 V2000
    5.7731    1.0891   -0.2031 C   0  0  0  0  0  0  0  0  0  0  0  0
    5.5948   -0.4184   -0.1099 C   0  0  0  0  0  0  0  0  0  0  0  0
    4.3480   -0.9322   -0.8330 C   0  0  0  0  0  0  0  0  0  0  0  0
    3.0400   -0.4467   -0.2056 C   0  0  0  0  0  0  0  0  0  0  0  0
    1.8288   -1.0716   -0.8970 C   0  0  0  0  0  0  0  0  0  0  0  0
    0.5143   -0.5991   -0.2988 C   0  0  0  0  0  0  0  0  0  0  0  0
    0.4490    0.1668    0.6577 O   0  0  0  0  0  0  0  0  0  0  0  0
   -0.5799   -1.1382   -0.9845 N   0  0  0  0  0  0  0  0  0  0  0  0
   -1.8397   -1.0612   -0.4512 N   0  0  0  0  0  0  0  0  0  0  0  0
   -2.4048    0.1091   -0.3343 C   0  0  0  0  0  0  0  0  0  0  0  0
   -1.8373    1.4000   -0.8951 C   0  0  0  0  0  0  0  0  0  0  0  0
   -3.7261    0.1873    0.3682 C   0  0  0  0  0  0  0  0  0  0  0  0
   -4.1628    1.3755    0.9684 C   0  0  0  0  0  0  0  0  0  0  0  0
   -5.3988    1.4201    1.6219 C   0  0  0  0  0  0  0  0  0  0  0  0
   -6.1958    0.2780    1.6811 C   0  0  0  0  0  0  0  0  0  0  0  0
   -7.7155    0.3372    2.4848 Cl  0  0  0  0  0  0  0  0  0  0  0  0
   -5.7667   -0.9118    1.0974 C   0  0  0  0  0  0  0  0  0  0  0  0
   -4.5315   -0.9582    0.4448 C   0  0  0  0  0  0  0  0  0  0  0  0
    5.7735    1.4213   -1.2460 H   0  0  0  0  0  0  0  0  0  0  0  0
    4.9798    1.6210    0.3300 H   0  0  0  0  0  0  0  0  0  0  0  0
    6.7274    1.3825    0.2461 H   0  0  0  0  0  0  0  0  0  0  0  0
    5.5650   -0.7178    0.9442 H   0  0  0  0  0  0  0  0  0  0  0  0
    6.4752   -0.9007   -0.5513 H   0  0  0  0  0  0  0  0  0  0  0  0
    4.3692   -2.0290   -0.8140 H   0  0  0  0  0  0  0  0  0  0  0  0
    4.3858   -0.6340   -1.8879 H   0  0  0  0  0  0  0  0  0  0  0  0
    2.9700    0.6450   -0.2752 H   0  0  0  0  0  0  0  0  0  0  0  0
    3.0259   -0.6990    0.8619 H   0  0  0  0  0  0  0  0  0  0  0  0
    1.8726   -2.1635   -0.8072 H   0  0  0  0  0  0  0  0  0  0  0  0
    1.8341   -0.8129   -1.9625 H   0  0  0  0  0  0  0  0  0  0  0  0
   -0.4011   -2.0403   -1.4170 H   0  0  0  0  0  0  0  0  0  0  0  0
   -1.1879    1.2077   -1.7530 H   0  0  0  0  0  0  0  0  0  0  0  0
   -2.6430    2.0492   -1.2514 H   0  0  0  0  0  0  0  0  0  0  0  0
   -1.2735    1.9268   -0.1212 H   0  0  0  0  0  0  0  0  0  0  0  0
   -3.5480    2.2715    0.9573 H   0  0  0  0  0  0  0  0  0  0  0  0
   -5.7287    2.3452    2.0878 H   0  0  0  0  0  0  0  0  0  0  0  0
   -6.3827   -1.8056    1.1483 H   0  0  0  0  0  0  0  0  0  0  0  0
   -4.2030   -1.8932   -0.0043 H   0  0  0  0  0  0  0  0  0  0  0  0
  1  2  1  0
  2  3  1  0
  3  4  1  0
  4  5  1  0
  5  6  1  0
  6  7  2  0
  6  8  1  0
  8  9  1  0
  9 10  2  3
 10 11  1  0
 10 12  1  0
 12 13  2  0
 13 14  1  0
 14 15  2  0
 15 16  1  0
 15 17  1  0
 17 18  2  0
 18 12  1  0
  1 19  1  0
  1 20  1  0
  1 21  1  0
  2 22  1  0
  2 23  1  0
  3 24  1  0
  3 25  1  0
  4 26  1  0
  4 27  1  0
  5 28  1  0
  5 29  1  0
  8 30  1  0
 11 31  1  0
 11 32  1  0
 11 33  1  0
 13 34  1  0
 14 35  1  0
 17 36  1  0
 18 37  1  0
M  END
$$$$
