
     RDKit          3D

 38 40  0  0  0  0  0  0  0  0999 V2000
    2.4816    0.6213    1.9044 O   0  0  0  0  0  0  0  0  0  0  0  0
    2.3697    0.0215    0.8377 C   0  0  0  0  0  0  0  0  0  0  0  0
    1.1563   -0.4705    0.3933 N   0  0  0  0  0  0  0  0  0  0  0  0
    0.0142   -0.0575    1.1145 N   0  0  0  0  0  0  0  0  0  0  0  0
   -1.0529    0.4051    0.3561 C   0  0  0  0  0  0  0  0  0  0  0  0
   -1.0595    0.2841   -0.8701 O   0  0  0  0  0  0  0  0  0  0  0  0
   -2.1555    1.1095    1.1685 C   0  0  0  0  0  0  0  0  0  0  0  0
   -2.7490    0.2075    2.2469 C   0  0  0  0  0  0  0  0  0  0  0  0
   -3.4768   -0.8888    1.6853 O   0  0  0  0  0  0  0  0  0  0  0  0
   -4.2937   -0.4748    0.6660 C   0  0  0  0  0  0  0  0  0  0  0  0
   -5.2884   -1.3625    0.2600 C   0  0  0  0  0  0  0  0  0  0  0  0
   -6.1693   -1.0003   -0.7602 C   0  0  0  0  0  0  0  0  0  0  0  0
   -6.0510    0.2469   -1.3755 C   0  0  0  0  0  0  0  0  0  0  0  0
   -5.0456    1.1298   -0.9779 C   0  0  0  0  0  0  0  0  0  0  0  0
   -4.1594    0.7641    0.0336 C   0  0  0  0  0  0  0  0  0  0  0  0
   -3.1846    1.6726    0.3542 O   0  0  0  0  0  0  0  0  0  0  0  0
    3.5438   -0.1736   -0.0564 C   0  0  0  0  0  0  0  0  0  0  0  0
    3.5783   -1.1819   -1.0313 C   0  0  0  0  0  0  0  0  0  0  0  0
    4.7034   -1.3362   -1.8466 C   0  0  0  0  0  0  0  0  0  0  0  0
    5.8031   -0.4916   -1.6911 C   0  0  0  0  0  0  0  0  0  0  0  0
    5.7739    0.5076   -0.7089 C   0  0  0  0  0  0  0  0  0  0  0  0
    6.9328    1.3934   -0.5407 N   0  0  0  0  0  4  0  0  0  0  0  0
    6.8374    2.3187    0.2771 O   0  0  0  0  0  0  0  0  0  0  0  0
    7.9367    1.1638   -1.2299 O   0  0  0  0  0  1  0  0  0  0  0  0
    4.6509    0.6693    0.1127 C   0  0  0  0  0  0  0  0  0  0  0  0
    0.9873   -0.6271   -0.6017 H   0  0  0  0  0  0  0  0  0  0  0  0
    0.2304    0.3674    2.0178 H   0  0  0  0  0  0  0  0  0  0  0  0
   -1.6662    1.9590    1.6616 H   0  0  0  0  0  0  0  0  0  0  0  0
   -1.9732   -0.2133    2.8945 H   0  0  0  0  0  0  0  0  0  0  0  0
   -3.4358    0.7749    2.8887 H   0  0  0  0  0  0  0  0  0  0  0  0
   -5.3826   -2.3311    0.7426 H   0  0  0  0  0  0  0  0  0  0  0  0
   -6.9481   -1.6902   -1.0750 H   0  0  0  0  0  0  0  0  0  0  0  0
   -6.7364    0.5288   -2.1706 H   0  0  0  0  0  0  0  0  0  0  0  0
   -4.9434    2.0947   -1.4666 H   0  0  0  0  0  0  0  0  0  0  0  0
    2.7495   -1.8747   -1.1585 H   0  0  0  0  0  0  0  0  0  0  0  0
    4.7251   -2.1217   -2.6001 H   0  0  0  0  0  0  0  0  0  0  0  0
    6.6710   -0.6271   -2.3345 H   0  0  0  0  0  0  0  0  0  0  0  0
    4.6261    1.4422    0.8802 H   0  0  0  0  0  0  0  0  0  0  0  0
  1  2  2  0
  2  3  1  0
  3  4  1  0
  4  5  1  0
  5  6  2  0
  5  7  1  0
  7  8  1  0
  8  9  1  0
  9 10  1  0
 10 11  2  0
 11 12  1  0
 12 13  2  0
 13 14  1  0
 14 15  2  0
 15 16  1  0
  2 17  1  0
 17 18  2  0
 18 19  1  0
 19 20  2  0
 20 21  1  0
 21 22  1  0
 22 23  2  0
 22 24  1  0
 21 25  2  0
 16  7  1  0
 25 17  1  0
 15 10  1  0
  3 26  1  0
  4 27  1  0
  7 28  1  0
  8 29  1  0
  8 30  1  0
 11 31  1  0
 12 32  1  0
 13 33  1  0
 14 34  1  0
 18 35  1  0
 19 36  1  0
 20 37  1  0
 25 38  1  0
M  CHG  2  22   1  24  -1
M  END
$$$$
