
     RDKit          3D

 53 58  0  0  0  0  0  0  0  0999 V2000
    0.7240   -0.6297   -1.5813 C   0  0  0  0  0  0  0  0  0  0  0  0
    0.4776   -0.5456   -0.0652 C   0  0  0  0  0  0  0  0  0  0  0  0
    1.4332   -1.4725    0.7398 C   0  0  0  0  0  0  0  0  0  0  0  0
    1.0584   -2.3566    1.5096 O   0  0  0  0  0  0  0  0  0  0  0  0
    2.7852   -1.3418    0.5778 N   0  0  0  0  0  0  0  0  0  0  0  0
    3.5160   -0.2903    0.0142 C   0  0  0  0  0  0  0  0  0  0  0  0
    4.8070   -0.6101   -0.4341 C   0  0  0  0  0  0  0  0  0  0  0  0
    5.6183    0.3589   -1.0290 C   0  0  0  0  0  0  0  0  0  0  0  0
    5.1543    1.6633   -1.1551 C   0  0  0  0  0  0  0  0  0  0  0  0
    6.1537    2.8591   -1.8807 Cl  0  0  0  0  0  0  0  0  0  0  0  0
    3.8942    2.0072   -0.6768 C   0  0  0  0  0  0  0  0  0  0  0  0
    3.0673    1.0332   -0.0875 C   0  0  0  0  0  0  0  0  0  0  0  0
    1.8341    1.5355    0.5553 C   0  0  0  0  0  0  0  0  0  0  0  0
    1.9221    2.6040    1.1589 O   0  0  0  0  0  0  0  0  0  0  0  0
    0.6576    0.8165    0.4912 N   0  0  0  0  0  0  0  0  0  0  0  0
   -0.5310    1.2677    1.2356 C   0  0  0  0  0  0  0  0  0  0  0  0
   -1.3991    2.2574    0.4703 C   0  0  0  0  0  0  0  0  0  0  0  0
   -0.8710    3.4443   -0.0672 C   0  0  0  0  0  0  0  0  0  0  0  0
   -1.6787    4.3342   -0.7798 C   0  0  0  0  0  0  0  0  0  0  0  0
   -0.9946    5.7685   -1.4407 Cl  0  0  0  0  0  0  0  0  0  0  0  0
   -3.0305    4.0690   -0.9636 C   0  0  0  0  0  0  0  0  0  0  0  0
   -3.5775    2.9112   -0.4178 C   0  0  0  0  0  0  0  0  0  0  0  0
   -2.7738    2.0265    0.3074 C   0  0  0  0  0  0  0  0  0  0  0  0
   -3.4209    0.9211    0.7879 O   0  0  0  0  0  0  0  0  0  0  0  0
   -2.7381    0.2561    1.8468 C   0  0  0  0  0  0  0  0  0  0  0  0
   -1.2865   -0.0377    1.5196 C   0  0  0  0  0  0  0  0  0  0  0  0
   -1.0452   -0.8317    0.2130 C   0  0  0  0  0  0  0  0  0  0  0  0
   -1.5663   -2.2553    0.1326 C   0  0  0  0  0  0  0  0  0  0  0  0
   -1.7292   -3.0780    1.2559 C   0  0  0  0  0  0  0  0  0  0  0  0
   -2.2344   -4.3754    1.1324 C   0  0  0  0  0  0  0  0  0  0  0  0
   -2.5949   -4.8713   -0.1167 C   0  0  0  0  0  0  0  0  0  0  0  0
   -2.4504   -4.0694   -1.2438 C   0  0  0  0  0  0  0  0  0  0  0  0
   -1.9429   -2.7741   -1.1193 C   0  0  0  0  0  0  0  0  0  0  0  0
    0.0049   -0.0124   -2.1322 H   0  0  0  0  0  0  0  0  0  0  0  0
    1.7111   -0.2877   -1.8944 H   0  0  0  0  0  0  0  0  0  0  0  0
    0.6318   -1.6623   -1.9338 H   0  0  0  0  0  0  0  0  0  0  0  0
    3.2980   -2.1336    0.9509 H   0  0  0  0  0  0  0  0  0  0  0  0
    5.1893   -1.6257   -0.3495 H   0  0  0  0  0  0  0  0  0  0  0  0
    6.6090    0.0894   -1.3871 H   0  0  0  0  0  0  0  0  0  0  0  0
    3.5586    3.0417   -0.7329 H   0  0  0  0  0  0  0  0  0  0  0  0
   -0.2263    1.7412    2.1774 H   0  0  0  0  0  0  0  0  0  0  0  0
    0.1766    3.6946    0.0656 H   0  0  0  0  0  0  0  0  0  0  0  0
   -3.6605    4.7564   -1.5205 H   0  0  0  0  0  0  0  0  0  0  0  0
   -4.6353    2.6968   -0.5491 H   0  0  0  0  0  0  0  0  0  0  0  0
   -2.8185    0.8649    2.7569 H   0  0  0  0  0  0  0  0  0  0  0  0
   -3.2812   -0.6734    2.0453 H   0  0  0  0  0  0  0  0  0  0  0  0
   -0.8170   -0.5489    2.3695 H   0  0  0  0  0  0  0  0  0  0  0  0
   -1.6111   -0.3053   -0.5711 H   0  0  0  0  0  0  0  0  0  0  0  0
   -1.4427   -2.7362    2.2474 H   0  0  0  0  0  0  0  0  0  0  0  0
   -2.3394   -4.9998    2.0159 H   0  0  0  0  0  0  0  0  0  0  0  0
   -2.9880   -5.8798   -0.2101 H   0  0  0  0  0  0  0  0  0  0  0  0
   -2.7376   -4.4489   -2.2208 H   0  0  0  0  0  0  0  0  0  0  0  0
   -1.8596   -2.1646   -2.0171 H   0  0  0  0  0  0  0  0  0  0  0  0
  1  2  1  0
  2  3  1  0
  3  4  2  0
  3  5  1  0
  5  6  1  0
  6  7  2  0
  7  8  1  0
  8  9  2  0
  9 10  1  0
  9 11  1  0
 11 12  2  0
 12 13  1  0
 13 14  2  0
 13 15  1  0
 15 16  1  0
 16 17  1  0
 17 18  2  0
 18 19  1  0
 19 20  1  0
 19 21  2  0
 21 22  1  0
 22 23  2  0
 23 24  1  0
 24 25  1  0
 25 26  1  0
 26 27  1  0
 27 28  1  0
 28 29  2  0
 29 30  1  0
 30 31  2  0
 31 32  1  0
 32 33  2  0
 15  2  1  0
 26 16  1  0
 33 28  1  0
 27  2  1  0
 12  6  1  0
 23 17  1  0
  1 34  1  0
  1 35  1  0
  1 36  1  0
  5 37  1  0
  7 38  1  0
  8 39  1  0
 11 40  1  0
 16 41  1  0
 18 42  1  0
 21 43  1  0
 22 44  1  0
 25 45  1  0
 25 46  1  0
 26 47  1  0
 27 48  1  0
 29 49  1  0
 30 50  1  0
 31 51  1  0
 32 52  1  0
 33 53  1  0
M  END
$$$$
