
     RDKit          3D

 45 47  0  0  0  0  0  0  0  0999 V2000
    3.1505   -0.0930   -0.3750 O   0  0  0  0  0  0  0  0  0  0  0  0
    3.0638   -0.1414   -1.5976 C   0  0  0  0  0  0  0  0  0  0  0  0
    1.8219    0.2497   -2.3806 C   0  0  0  0  0  0  0  0  0  0  0  0
    0.7160    0.5103   -1.4738 N   0  0  0  0  0  0  0  0  0  0  0  0
   -0.5132    0.8903   -1.9592 C   0  0  0  0  0  0  0  0  0  0  0  0
   -0.7486    0.9921   -3.1580 O   0  0  0  0  0  0  0  0  0  0  0  0
   -1.5604    1.2153   -0.9509 C   0  0  0  0  0  0  0  0  0  0  0  0
   -2.6019    2.0697   -1.3274 C   0  0  0  0  0  0  0  0  0  0  0  0
   -3.6072    2.4036   -0.4137 C   0  0  0  0  0  0  0  0  0  0  0  0
   -3.6012    1.8847    0.8910 C   0  0  0  0  0  0  0  0  0  0  0  0
   -4.6601    2.2362    1.8515 C   0  0  0  0  0  0  0  0  0  0  0  0
   -5.3995    1.2403    2.5113 C   0  0  0  0  0  0  0  0  0  0  0  0
   -6.4048    1.5737    3.4232 C   0  0  0  0  0  0  0  0  0  0  0  0
   -6.6872    2.9105    3.6916 C   0  0  0  0  0  0  0  0  0  0  0  0
   -5.9665    3.9135    3.0487 C   0  0  0  0  0  0  0  0  0  0  0  0
   -4.9623    3.5785    2.1362 C   0  0  0  0  0  0  0  0  0  0  0  0
   -2.5581    1.0145    1.2499 C   0  0  0  0  0  0  0  0  0  0  0  0
   -1.5478    0.6780    0.3405 C   0  0  0  0  0  0  0  0  0  0  0  0
    4.0525   -0.5246   -2.4497 O   0  0  0  0  0  0  0  0  0  0  0  0
    5.2735   -0.9473   -1.8320 C   0  0  0  0  0  0  0  0  0  0  0  0
    5.2581   -2.4446   -1.6584 C   0  0  0  0  0  0  0  0  0  0  0  0
    4.9623   -3.0126   -0.4108 C   0  0  0  0  0  0  0  0  0  0  0  0
    4.9283   -4.4002   -0.2549 C   0  0  0  0  0  0  0  0  0  0  0  0
    5.1828   -5.2260   -1.3475 C   0  0  0  0  0  0  0  0  0  0  0  0
    5.1400   -6.9353   -1.1556 Cl  0  0  0  0  0  0  0  0  0  0  0  0
    5.4671   -4.6765   -2.5958 C   0  0  0  0  0  0  0  0  0  0  0  0
    5.5009   -3.2889   -2.7520 C   0  0  0  0  0  0  0  0  0  0  0  0
    2.0235    1.1595   -2.9538 H   0  0  0  0  0  0  0  0  0  0  0  0
    1.5306   -0.5652   -3.0502 H   0  0  0  0  0  0  0  0  0  0  0  0
    0.9438    0.6217   -0.4918 H   0  0  0  0  0  0  0  0  0  0  0  0
   -2.6361    2.4796   -2.3352 H   0  0  0  0  0  0  0  0  0  0  0  0
   -4.4097    3.0650   -0.7358 H   0  0  0  0  0  0  0  0  0  0  0  0
   -5.2044    0.1893    2.3074 H   0  0  0  0  0  0  0  0  0  0  0  0
   -6.9683    0.7882    3.9200 H   0  0  0  0  0  0  0  0  0  0  0  0
   -7.4690    3.1704    4.4005 H   0  0  0  0  0  0  0  0  0  0  0  0
   -6.1829    4.9580    3.2572 H   0  0  0  0  0  0  0  0  0  0  0  0
   -4.4049    4.3784    1.6530 H   0  0  0  0  0  0  0  0  0  0  0  0
   -2.5238    0.5919    2.2529 H   0  0  0  0  0  0  0  0  0  0  0  0
   -0.7784   -0.0210    0.6551 H   0  0  0  0  0  0  0  0  0  0  0  0
    5.4645   -0.4283   -0.8846 H   0  0  0  0  0  0  0  0  0  0  0  0
    6.0956   -0.6649   -2.5000 H   0  0  0  0  0  0  0  0  0  0  0  0
    4.7493   -2.3756    0.4465 H   0  0  0  0  0  0  0  0  0  0  0  0
    4.6989   -4.8278    0.7174 H   0  0  0  0  0  0  0  0  0  0  0  0
    5.6587   -5.3206   -3.4498 H   0  0  0  0  0  0  0  0  0  0  0  0
    5.7136   -2.8689   -3.7332 H   0  0  0  0  0  0  0  0  0  0  0  0
  1  2  2  0
  2  3  1  0
  3  4  1  0
  4  5  1  0
  5  6  2  0
  5  7  1  0
  7  8  2  0
  8  9  1  0
  9 10  2  0
 10 11  1  0
 11 12  2  0
 12 13  1  0
 13 14  2  0
 14 15  1  0
 15 16  2  0
 10 17  1  0
 17 18  2  0
  2 19  1  0
 19 20  1  0
 20 21  1  0
 21 22  2  0
 22 23  1  0
 23 24  2  0
 24 25  1  0
 24 26  1  0
 26 27  2  0
 18  7  1  0
 27 21  1  0
 16 11  1  0
  3 28  1  0
  3 29  1  0
  4 30  1  0
  8 31  1  0
  9 32  1  0
 12 33  1  0
 13 34  1  0
 14 35  1  0
 15 36  1  0
 16 37  1  0
 17 38  1  0
 18 39  1  0
 20 40  1  0
 20 41  1  0
 22 42  1  0
 23 43  1  0
 26 44  1  0
 27 45  1  0
M  END
$$$$
