
     RDKit          3D

 30 31  0  0  0  0  0  0  0  0999 V2000
   -3.4747    1.5511   -2.1535 C   0  0  0  0  0  0  0  0  0  0  0  0
   -2.4882    1.1839   -1.1050 C   0  0  0  0  0  0  0  0  0  0  0  0
   -1.6113    2.0983   -0.6711 N   0  0  0  0  0  0  0  0  0  0  0  0
   -0.8839    1.4506    0.2667 N   0  0  0  0  0  0  0  0  0  0  0  0
    0.1382    2.1987    0.9654 C   0  0  0  0  0  0  0  0  0  0  0  0
   -1.2556    0.1372    0.4259 C   0  0  0  0  0  0  0  0  0  0  0  0
   -0.5111   -0.9112    1.6033 S   0  0  0  0  0  0  0  0  0  0  0  0
    1.0807   -1.1557    0.8069 C   0  0  0  0  0  0  0  0  0  0  0  0
    1.1446   -1.8279   -0.4224 C   0  0  0  0  0  0  0  0  0  0  0  0
    2.3672   -2.0023   -1.0706 C   0  0  0  0  0  0  0  0  0  0  0  0
    3.5326   -1.5021   -0.4981 C   0  0  0  0  0  0  0  0  0  0  0  0
    3.4810   -0.8511    0.7359 C   0  0  0  0  0  0  0  0  0  0  0  0
    2.2708   -0.7203    1.4290 C   0  0  0  0  0  0  0  0  0  0  0  0
    2.2505    0.0370    2.6206 N   0  0  0  0  0  0  0  0  0  0  0  0
   -2.3062   -0.0600   -0.4506 C   0  0  0  0  0  0  0  0  0  0  0  0
   -3.0605   -1.2567   -0.6574 N   0  0  0  0  0  4  0  0  0  0  0  0
   -4.2479   -1.1181   -0.9776 O   0  0  0  0  0  0  0  0  0  0  0  0
   -2.4719   -2.3372   -0.5322 O   0  0  0  0  0  1  0  0  0  0  0  0
   -4.4804    1.6129   -1.7260 H   0  0  0  0  0  0  0  0  0  0  0  0
   -3.4801    0.8077   -2.9570 H   0  0  0  0  0  0  0  0  0  0  0  0
   -3.2391    2.5221   -2.6019 H   0  0  0  0  0  0  0  0  0  0  0  0
   -0.0540    3.2685    0.8420 H   0  0  0  0  0  0  0  0  0  0  0  0
    1.1061    1.9484    0.5270 H   0  0  0  0  0  0  0  0  0  0  0  0
    0.1023    1.9569    2.0293 H   0  0  0  0  0  0  0  0  0  0  0  0
    0.2435   -2.2207   -0.8874 H   0  0  0  0  0  0  0  0  0  0  0  0
    2.4063   -2.5182   -2.0267 H   0  0  0  0  0  0  0  0  0  0  0  0
    4.4835   -1.6146   -1.0130 H   0  0  0  0  0  0  0  0  0  0  0  0
    4.3991   -0.4495    1.1571 H   0  0  0  0  0  0  0  0  0  0  0  0
    1.4417   -0.1981    3.1944 H   0  0  0  0  0  0  0  0  0  0  0  0
    3.1170   -0.0297    3.1473 H   0  0  0  0  0  0  0  0  0  0  0  0
  1  2  1  0
  2  3  2  0
  3  4  1  0
  4  5  1  0
  4  6  1  0
  6  7  1  0
  7  8  1  0
  8  9  2  0
  9 10  1  0
 10 11  2  0
 11 12  1  0
 12 13  2  0
 13 14  1  0
  6 15  2  0
 15 16  1  0
 16 17  2  0
 16 18  1  0
 15  2  1  0
 13  8  1  0
  1 19  1  0
  1 20  1  0
  1 21  1  0
  5 22  1  0
  5 23  1  0
  5 24  1  0
  9 25  1  0
 10 26  1  0
 11 27  1  0
 12 28  1  0
 14 29  1  0
 14 30  1  0
M  CHG  2  16   1  18  -1
M  END
$$$$
