
     RDKit          3D

 30 31  0  0  0  0  0  0  0  0999 V2000
   -4.7474    0.4532   -0.9819 C   0  0  0  0  0  0  0  0  0  0  0  0
   -4.1719   -0.4577    0.0862 C   0  0  0  0  0  0  0  0  0  0  0  0
   -2.7465   -0.5342   -0.0438 O   0  0  0  0  0  0  0  0  0  0  0  0
   -2.0340    0.4386    0.5965 C   0  0  0  0  0  0  0  0  0  0  0  0
   -2.5346    1.3467    1.2503 O   0  0  0  0  0  0  0  0  0  0  0  0
   -0.6134    0.2417    0.3877 C   0  0  0  0  0  0  0  0  0  0  0  0
   -0.1824   -0.8258   -0.3645 O   0  0  0  0  0  0  0  0  0  0  0  0
    1.1647   -0.7661   -0.3862 C   0  0  0  0  0  0  0  0  0  0  0  0
    1.6369    0.3113    0.3240 C   0  0  0  0  0  0  0  0  0  0  0  0
    0.4857    0.9777    0.8356 C   0  0  0  0  0  0  0  0  0  0  0  0
    0.4388    2.2029    1.6766 C   0  0  0  0  0  0  0  0  0  0  0  0
    3.0687    0.5455    0.4206 C   0  0  0  0  0  0  0  0  0  0  0  0
    3.5456    1.4744    1.0664 O   0  0  0  0  0  0  0  0  0  0  0  0
    3.9591   -0.3957   -0.3968 C   0  0  0  0  0  0  0  0  0  0  0  0
    3.3668   -1.8091   -0.5413 C   0  0  0  0  0  0  0  0  0  0  0  0
    1.9391   -1.7944   -1.1135 C   0  0  0  0  0  0  0  0  0  0  0  0
   -5.8396    0.4715   -0.9287 H   0  0  0  0  0  0  0  0  0  0  0  0
   -4.4477    0.1137   -1.9789 H   0  0  0  0  0  0  0  0  0  0  0  0
   -4.3749    1.4762   -0.8688 H   0  0  0  0  0  0  0  0  0  0  0  0
   -4.5602   -1.4726   -0.0488 H   0  0  0  0  0  0  0  0  0  0  0  0
   -4.4651   -0.1336    1.0913 H   0  0  0  0  0  0  0  0  0  0  0  0
    0.0324    1.9686    2.6658 H   0  0  0  0  0  0  0  0  0  0  0  0
   -0.1978    2.9625    1.2111 H   0  0  0  0  0  0  0  0  0  0  0  0
    1.4282    2.6450    1.8167 H   0  0  0  0  0  0  0  0  0  0  0  0
    4.1043    0.0556   -1.3850 H   0  0  0  0  0  0  0  0  0  0  0  0
    4.9349   -0.4620    0.0968 H   0  0  0  0  0  0  0  0  0  0  0  0
    4.0141   -2.4225   -1.1779 H   0  0  0  0  0  0  0  0  0  0  0  0
    3.3486   -2.2833    0.4493 H   0  0  0  0  0  0  0  0  0  0  0  0
    1.4812   -2.7832   -1.0074 H   0  0  0  0  0  0  0  0  0  0  0  0
    1.9662   -1.5451   -2.1800 H   0  0  0  0  0  0  0  0  0  0  0  0
  1  2  1  0
  2  3  1  0
  3  4  1  0
  4  5  2  0
  4  6  1  0
  6  7  1  0
  7  8  1  0
  8  9  2  0
  9 10  1  0
 10 11  1  0
  9 12  1  0
 12 13  2  0
 12 14  1  0
 14 15  1  0
 15 16  1  0
 10  6  2  0
 16  8  1  0
  1 17  1  0
  1 18  1  0
  1 19  1  0
  2 20  1  0
  2 21  1  0
 11 22  1  0
 11 23  1  0
 11 24  1  0
 14 25  1  0
 14 26  1  0
 15 27  1  0
 15 28  1  0
 16 29  1  0
 16 30  1  0
M  END
$$$$
