
     RDKit          3D

 23 25  0  0  0  0  0  0  0  0999 V2000
    2.9617    0.7262   -0.3780 O   0  0  0  0  0  0  0  0  0  0  0  0
    2.2390    0.3524    0.5284 C   0  0  0  0  0  0  0  0  0  0  0  0
    2.7610   -0.2013    1.6387 O   0  0  0  0  0  0  0  0  0  0  0  0
    0.7333    0.4317    0.5859 C   0  0  0  0  0  0  0  0  0  0  0  0
    0.0818   -0.9748    0.5927 C   0  0  0  0  0  0  0  0  0  0  0  0
    0.1091   -1.3414   -0.8980 C   0  0  0  0  0  0  0  0  0  0  0  0
   -0.6485   -0.0957   -1.3220 C   0  0  0  0  0  0  0  0  0  0  0  0
   -1.9021   -0.0669   -0.4447 C   0  0  0  0  0  0  0  0  0  0  0  0
   -2.1411    1.3218   -0.2147 O   0  0  0  0  0  0  0  0  0  0  0  0
   -0.9641    2.0085   -0.3173 C   0  0  0  0  0  0  0  0  0  0  0  0
   -0.8314    3.1980   -0.0912 O   0  0  0  0  0  0  0  0  0  0  0  0
    0.1321    1.0569   -0.6886 C   0  0  0  0  0  0  0  0  0  0  0  0
   -1.4476   -0.8684    0.8056 C   0  0  0  0  0  0  0  0  0  0  0  0
   -1.9093   -0.1750    2.3635 Cl  0  0  0  0  0  0  0  0  0  0  0  0
    3.7315   -0.1632    1.5003 H   0  0  0  0  0  0  0  0  0  0  0  0
    0.4902    1.0172    1.4802 H   0  0  0  0  0  0  0  0  0  0  0  0
    0.5693   -1.7079    1.2398 H   0  0  0  0  0  0  0  0  0  0  0  0
    1.1187   -1.3941   -1.3168 H   0  0  0  0  0  0  0  0  0  0  0  0
   -0.4284   -2.2679   -1.1254 H   0  0  0  0  0  0  0  0  0  0  0  0
   -0.8415    0.0294   -2.3897 H   0  0  0  0  0  0  0  0  0  0  0  0
   -2.7722   -0.5242   -0.9256 H   0  0  0  0  0  0  0  0  0  0  0  0
    0.8382    1.5147   -1.3848 H   0  0  0  0  0  0  0  0  0  0  0  0
   -1.8797   -1.8758    0.7615 H   0  0  0  0  0  0  0  0  0  0  0  0
  1  2  2  0
  2  3  1  0
  2  4  1  0
  4  5  1  0
  5  6  1  0
  6  7  1  0
  7  8  1  0
  8  9  1  0
  9 10  1  0
 10 11  2  0
 10 12  1  0
  8 13  1  0
 13 14  1  0
 12  4  1  0
 13  5  1  0
 12  7  1  0
  3 15  1  0
  4 16  1  0
  5 17  1  0
  6 18  1  0
  6 19  1  0
  7 20  1  0
  8 21  1  0
 12 22  1  0
 13 23  1  0
M  END
$$$$
