
     RDKit          3D

 40 40  0  0  0  0  0  0  0  0999 V2000
   -1.2580    2.5082    3.3923 C   0  0  0  0  0  0  0  0  0  0  0  0
   -1.0903    2.6159    1.8847 C   0  0  0  0  0  0  0  0  0  0  0  0
   -1.6339    1.4063    1.1230 C   0  0  0  0  0  0  0  0  0  0  0  0
   -0.8951    0.1083    1.4446 C   0  0  0  0  0  0  0  0  0  0  0  0
   -1.3529   -0.9404    0.5428 N   0  0  0  0  0  0  0  0  0  0  0  0
   -0.5811   -1.4281   -0.3679 C   0  0  0  0  0  0  0  0  0  0  0  0
    0.7021   -1.0452   -0.7655 N   0  0  0  0  0  0  0  0  0  0  0  0
    1.0430    0.2731   -0.9745 N   0  0  0  0  0  0  0  0  0  0  0  0
    2.2902    0.8083   -0.5893 C   0  0  0  0  0  0  0  0  0  0  0  0
    3.3599   -0.0038   -0.1907 C   0  0  0  0  0  0  0  0  0  0  0  0
    4.6027    0.5520    0.1297 C   0  0  0  0  0  0  0  0  0  0  0  0
    4.7894    1.9278    0.0319 C   0  0  0  0  0  0  0  0  0  0  0  0
    6.4677    2.6822    0.4624 Br  0  0  0  0  0  0  0  0  0  0  0  0
    3.7483    2.7501   -0.3895 C   0  0  0  0  0  0  0  0  0  0  0  0
    2.5081    2.1884   -0.7078 C   0  0  0  0  0  0  0  0  0  0  0  0
   -1.1300   -2.6546   -1.1542 C   0  0  0  0  0  0  0  0  0  0  0  0
   -0.3887   -3.2745   -1.9038 O   0  0  0  0  0  0  0  0  0  0  0  0
   -2.4346   -2.8789   -0.9202 O   0  0  0  0  0  0  0  0  0  0  0  0
   -3.0130   -3.9924   -1.6111 C   0  0  0  0  0  0  0  0  0  0  0  0
   -3.5075   -3.5596   -2.9786 C   0  0  0  0  0  0  0  0  0  0  0  0
   -0.6558    1.6934    3.8051 H   0  0  0  0  0  0  0  0  0  0  0  0
   -0.9338    3.4365    3.8735 H   0  0  0  0  0  0  0  0  0  0  0  0
   -2.3052    2.3355    3.6598 H   0  0  0  0  0  0  0  0  0  0  0  0
   -0.0302    2.7603    1.6457 H   0  0  0  0  0  0  0  0  0  0  0  0
   -1.6178    3.5121    1.5372 H   0  0  0  0  0  0  0  0  0  0  0  0
   -2.7026    1.2816    1.3387 H   0  0  0  0  0  0  0  0  0  0  0  0
   -1.5657    1.6163    0.0490 H   0  0  0  0  0  0  0  0  0  0  0  0
    0.1888    0.2504    1.4372 H   0  0  0  0  0  0  0  0  0  0  0  0
   -1.1415   -0.2065    2.4651 H   0  0  0  0  0  0  0  0  0  0  0  0
    1.0682   -1.6660   -1.4975 H   0  0  0  0  0  0  0  0  0  0  0  0
    0.2798    0.9468   -0.8993 H   0  0  0  0  0  0  0  0  0  0  0  0
    3.2341   -1.0803   -0.1136 H   0  0  0  0  0  0  0  0  0  0  0  0
    5.4128   -0.0981    0.4491 H   0  0  0  0  0  0  0  0  0  0  0  0
    3.8904    3.8236   -0.4804 H   0  0  0  0  0  0  0  0  0  0  0  0
    1.7102    2.8421   -1.0516 H   0  0  0  0  0  0  0  0  0  0  0  0
   -2.3049   -4.8257   -1.6878 H   0  0  0  0  0  0  0  0  0  0  0  0
   -3.8572   -4.3418   -1.0077 H   0  0  0  0  0  0  0  0  0  0  0  0
   -4.0022   -4.3886   -3.4924 H   0  0  0  0  0  0  0  0  0  0  0  0
   -4.2143   -2.7284   -2.8865 H   0  0  0  0  0  0  0  0  0  0  0  0
   -2.6797   -3.2063   -3.6015 H   0  0  0  0  0  0  0  0  0  0  0  0
  1  2  1  0
  2  3  1  0
  3  4  1  0
  4  5  1  0
  5  6  2  3
  6  7  1  0
  7  8  1  0
  8  9  1  0
  9 10  2  0
 10 11  1  0
 11 12  2  0
 12 13  1  0
 12 14  1  0
 14 15  2  0
  6 16  1  0
 16 17  2  0
 16 18  1  0
 18 19  1  0
 19 20  1  0
 15  9  1  0
  1 21  1  0
  1 22  1  0
  1 23  1  0
  2 24  1  0
  2 25  1  0
  3 26  1  0
  3 27  1  0
  4 28  1  0
  4 29  1  0
  7 30  1  0
  8 31  1  0
 10 32  1  0
 11 33  1  0
 14 34  1  0
 15 35  1  0
 19 36  1  0
 19 37  1  0
 20 38  1  0
 20 39  1  0
 20 40  1  0
M  END
$$$$
