
     RDKit          3D

 46 48  0  0  0  0  0  0  0  0999 V2000
   -4.5217    2.7722    0.7164 C   0  0  0  0  0  0  0  0  0  0  0  0
   -3.3785    1.9620    0.4657 O   0  0  0  0  0  0  0  0  0  0  0  0
   -3.6008    0.6178    0.2618 C   0  0  0  0  0  0  0  0  0  0  0  0
   -4.8533    0.0006    0.2865 C   0  0  0  0  0  0  0  0  0  0  0  0
   -4.9616   -1.3750    0.0681 C   0  0  0  0  0  0  0  0  0  0  0  0
   -3.8239   -2.1463   -0.1854 C   0  0  0  0  0  0  0  0  0  0  0  0
   -3.9335   -3.6288   -0.3922 C   0  0  0  0  0  0  0  0  0  0  0  0
   -2.5646   -1.5289   -0.1960 C   0  0  0  0  0  0  0  0  0  0  0  0
   -2.4443   -0.1540    0.0187 C   0  0  0  0  0  0  0  0  0  0  0  0
   -1.2108    0.5383    0.0211 N   0  0  0  0  0  0  0  0  0  0  0  0
    0.0550    0.0395   -0.2156 C   0  0  0  0  0  0  0  0  0  0  0  0
    0.3154   -1.1091   -0.5534 O   0  0  0  0  0  0  0  0  0  0  0  0
    1.1328    1.1094   -0.1167 C   0  0  0  0  0  0  0  0  0  0  0  0
    1.0758    1.9352    1.1549 C   0  0  0  0  0  0  0  0  0  0  0  0
    2.4699    2.4731    1.2350 C   0  0  0  0  0  0  0  0  0  0  0  0
    2.8277    3.4009    1.9407 O   0  0  0  0  0  0  0  0  0  0  0  0
    3.2921    1.7748    0.4007 O   0  0  0  0  0  0  0  0  0  0  0  0
    2.5878    0.6219   -0.1199 C   0  0  0  0  0  0  0  0  0  0  0  0
    3.0995    0.3463   -1.5433 C   0  0  0  0  0  0  0  0  0  0  0  0
    4.5788   -0.0422   -1.5697 C   0  0  0  0  0  0  0  0  0  0  0  0
    4.8779   -1.2082   -0.6346 C   0  0  0  0  0  0  0  0  0  0  0  0
    4.4074   -0.9211    0.7871 C   0  0  0  0  0  0  0  0  0  0  0  0
    2.9194   -0.5603    0.8217 C   0  0  0  0  0  0  0  0  0  0  0  0
   -5.0256    2.4669    1.6393 H   0  0  0  0  0  0  0  0  0  0  0  0
   -4.1772    3.8023    0.8509 H   0  0  0  0  0  0  0  0  0  0  0  0
   -5.2090    2.7605   -0.1360 H   0  0  0  0  0  0  0  0  0  0  0  0
   -5.7657    0.5555    0.4754 H   0  0  0  0  0  0  0  0  0  0  0  0
   -5.9443   -1.8416    0.0968 H   0  0  0  0  0  0  0  0  0  0  0  0
   -4.9462   -3.9119   -0.6973 H   0  0  0  0  0  0  0  0  0  0  0  0
   -3.6886   -4.1548    0.5353 H   0  0  0  0  0  0  0  0  0  0  0  0
   -3.2512   -3.9594   -1.1822 H   0  0  0  0  0  0  0  0  0  0  0  0
   -1.6906   -2.1477   -0.3748 H   0  0  0  0  0  0  0  0  0  0  0  0
   -1.3271    1.5333    0.1875 H   0  0  0  0  0  0  0  0  0  0  0  0
    0.9803    1.7887   -0.9689 H   0  0  0  0  0  0  0  0  0  0  0  0
    0.8556    1.3370    2.0435 H   0  0  0  0  0  0  0  0  0  0  0  0
    0.3628    2.7597    1.0670 H   0  0  0  0  0  0  0  0  0  0  0  0
    2.9769    1.2403   -2.1674 H   0  0  0  0  0  0  0  0  0  0  0  0
    2.5115   -0.4559   -2.0050 H   0  0  0  0  0  0  0  0  0  0  0  0
    4.8679   -0.3083   -2.5928 H   0  0  0  0  0  0  0  0  0  0  0  0
    5.1918    0.8213   -1.2837 H   0  0  0  0  0  0  0  0  0  0  0  0
    4.3820   -2.1126   -1.0082 H   0  0  0  0  0  0  0  0  0  0  0  0
    5.9545   -1.4121   -0.6330 H   0  0  0  0  0  0  0  0  0  0  0  0
    5.0001   -0.1031    1.2144 H   0  0  0  0  0  0  0  0  0  0  0  0
    4.5842   -1.8011    1.4166 H   0  0  0  0  0  0  0  0  0  0  0  0
    2.3553   -1.4562    0.5471 H   0  0  0  0  0  0  0  0  0  0  0  0
    2.6562   -0.3190    1.8581 H   0  0  0  0  0  0  0  0  0  0  0  0
  1  2  1  0
  2  3  1  0
  3  4  2  0
  4  5  1  0
  5  6  2  0
  6  7  1  0
  6  8  1  0
  8  9  2  0
  9 10  1  0
 10 11  1  0
 11 12  2  0
 11 13  1  0
 13 14  1  0
 14 15  1  0
 15 16  2  0
 15 17  1  0
 17 18  1  0
 18 19  1  0
 19 20  1  0
 20 21  1  0
 21 22  1  0
 22 23  1  0
  9  3  1  0
 18 13  1  0
 23 18  1  0
  1 24  1  0
  1 25  1  0
  1 26  1  0
  4 27  1  0
  5 28  1  0
  7 29  1  0
  7 30  1  0
  7 31  1  0
  8 32  1  0
 10 33  1  0
 13 34  1  0
 14 35  1  0
 14 36  1  0
 19 37  1  0
 19 38  1  0
 20 39  1  0
 20 40  1  0
 21 41  1  0
 21 42  1  0
 22 43  1  0
 22 44  1  0
 23 45  1  0
 23 46  1  0
M  END
$$$$
