
     RDKit          3D

 52 54  0  0  0  0  0  0  0  0999 V2000
   -7.5770    0.2113    1.9998 C   0  0  0  0  0  0  0  0  0  0  0  0
   -6.1853    0.2725    1.3645 C   0  0  0  0  0  0  0  0  0  0  0  0
   -5.5741    1.6562    1.5884 C   0  0  0  0  0  0  0  0  0  0  0  0
   -6.2804   -0.0971   -0.1291 C   0  0  0  0  0  0  0  0  0  0  0  0
   -4.9452   -0.1059   -0.8768 C   0  0  0  0  0  0  0  0  0  0  0  0
   -4.0346   -0.9711   -0.1998 O   0  0  0  0  0  0  0  0  0  0  0  0
   -2.7495   -1.0022   -0.6660 C   0  0  0  0  0  0  0  0  0  0  0  0
   -2.3063   -0.4669   -1.8776 C   0  0  0  0  0  0  0  0  0  0  0  0
   -0.9604   -0.5756   -2.2409 C   0  0  0  0  0  0  0  0  0  0  0  0
   -0.0525   -1.2079   -1.3867 C   0  0  0  0  0  0  0  0  0  0  0  0
    1.3587   -1.3345   -1.8177 C   0  0  0  0  0  0  0  0  0  0  0  0
    1.5755   -1.7930   -2.9381 O   0  0  0  0  0  0  0  0  0  0  0  0
    2.3688   -0.9321   -0.9515 N   0  0  0  0  0  0  0  0  0  0  0  0
    3.7572   -1.1447   -1.3675 C   0  0  0  0  0  0  0  0  0  0  0  0
    4.7485   -1.1738   -0.1916 C   0  0  0  0  0  0  0  0  0  0  0  0
    4.5952   -0.0056    0.6796 N   0  0  0  0  0  0  0  0  0  0  0  0
    5.7352    0.6078    1.1548 C   0  0  0  0  0  0  0  0  0  0  0  0
    6.8982   -0.0663    1.1243 N   0  0  0  0  0  0  0  0  0  0  0  0
    7.9982    0.5519    1.5940 C   0  0  0  0  0  0  0  0  0  0  0  0
    7.9925    1.8227    2.1033 C   0  0  0  0  0  0  0  0  0  0  0  0
    6.7667    2.4356    2.1071 C   0  0  0  0  0  0  0  0  0  0  0  0
    5.6417    1.8564    1.6451 N   0  0  0  0  0  0  0  0  0  0  0  0
    3.3878    0.8072    0.5505 C   0  0  0  0  0  0  0  0  0  0  0  0
    2.1684   -0.0773    0.2289 C   0  0  0  0  0  0  0  0  0  0  0  0
   -0.4959   -1.7730   -0.1890 C   0  0  0  0  0  0  0  0  0  0  0  0
   -1.8418   -1.6633    0.1671 C   0  0  0  0  0  0  0  0  0  0  0  0
   -7.5235    0.4140    3.0746 H   0  0  0  0  0  0  0  0  0  0  0  0
   -8.0210   -0.7806    1.8698 H   0  0  0  0  0  0  0  0  0  0  0  0
   -8.2524    0.9462    1.5494 H   0  0  0  0  0  0  0  0  0  0  0  0
   -5.5557   -0.4671    1.8752 H   0  0  0  0  0  0  0  0  0  0  0  0
   -4.5299    1.6873    1.2622 H   0  0  0  0  0  0  0  0  0  0  0  0
   -6.1272    2.4288    1.0423 H   0  0  0  0  0  0  0  0  0  0  0  0
   -5.5888    1.9184    2.6523 H   0  0  0  0  0  0  0  0  0  0  0  0
   -6.9696    0.5856   -0.6434 H   0  0  0  0  0  0  0  0  0  0  0  0
   -6.7161   -1.1031   -0.1999 H   0  0  0  0  0  0  0  0  0  0  0  0
   -5.1240   -0.4792   -1.8916 H   0  0  0  0  0  0  0  0  0  0  0  0
   -4.5431    0.9120   -0.9343 H   0  0  0  0  0  0  0  0  0  0  0  0
   -2.9837    0.0201   -2.5697 H   0  0  0  0  0  0  0  0  0  0  0  0
   -0.6215   -0.1767   -3.1933 H   0  0  0  0  0  0  0  0  0  0  0  0
    3.8325   -2.0768   -1.9383 H   0  0  0  0  0  0  0  0  0  0  0  0
    4.0117   -0.3236   -2.0493 H   0  0  0  0  0  0  0  0  0  0  0  0
    4.5681   -2.0709    0.4110 H   0  0  0  0  0  0  0  0  0  0  0  0
    5.7550   -1.2600   -0.6170 H   0  0  0  0  0  0  0  0  0  0  0  0
    8.9133   -0.0303    1.5407 H   0  0  0  0  0  0  0  0  0  0  0  0
    8.8850    2.3048    2.4731 H   0  0  0  0  0  0  0  0  0  0  0  0
    6.6429    3.4435    2.4908 H   0  0  0  0  0  0  0  0  0  0  0  0
    3.1729    1.3470    1.4807 H   0  0  0  0  0  0  0  0  0  0  0  0
    3.5235    1.5456   -0.2494 H   0  0  0  0  0  0  0  0  0  0  0  0
    1.2865    0.5545    0.0867 H   0  0  0  0  0  0  0  0  0  0  0  0
    1.9775   -0.7491    1.0735 H   0  0  0  0  0  0  0  0  0  0  0  0
    0.1899   -2.3153    0.4560 H   0  0  0  0  0  0  0  0  0  0  0  0
   -2.1920   -2.1064    1.0975 H   0  0  0  0  0  0  0  0  0  0  0  0
  1  2  1  0
  2  3  1  0
  2  4  1  0
  4  5  1  0
  5  6  1  0
  6  7  1  0
  7  8  2  0
  8  9  1  0
  9 10  2  0
 10 11  1  0
 11 12  2  0
 11 13  1  0
 13 14  1  0
 14 15  1  0
 15 16  1  0
 16 17  1  0
 17 18  2  0
 18 19  1  0
 19 20  2  0
 20 21  1  0
 21 22  2  0
 16 23  1  0
 23 24  1  0
 10 25  1  0
 25 26  2  0
 26  7  1  0
 24 13  1  0
 22 17  1  0
  1 27  1  0
  1 28  1  0
  1 29  1  0
  2 30  1  0
  3 31  1  0
  3 32  1  0
  3 33  1  0
  4 34  1  0
  4 35  1  0
  5 36  1  0
  5 37  1  0
  8 38  1  0
  9 39  1  0
 14 40  1  0
 14 41  1  0
 15 42  1  0
 15 43  1  0
 19 44  1  0
 20 45  1  0
 21 46  1  0
 23 47  1  0
 23 48  1  0
 24 49  1  0
 24 50  1  0
 25 51  1  0
 26 52  1  0
M  END
$$$$
