
     RDKit          3D

 47 49  0  0  0  0  0  0  0  0999 V2000
   -9.2397    0.8917   -1.7555 C   0  0  0  0  0  0  0  0  0  0  0  0
   -8.5045    0.7103   -0.4398 C   0  0  0  0  0  0  0  0  0  0  0  0
   -7.0106    0.4828   -0.6501 C   0  0  0  0  0  0  0  0  0  0  0  0
   -6.4079    0.3246    0.6343 O   0  0  0  0  0  0  0  0  0  0  0  0
   -5.0610    0.0941    0.6705 C   0  0  0  0  0  0  0  0  0  0  0  0
   -4.2087    0.0270   -0.4332 C   0  0  0  0  0  0  0  0  0  0  0  0
   -2.8406   -0.2147   -0.2543 C   0  0  0  0  0  0  0  0  0  0  0  0
   -2.3183   -0.3830    1.0343 C   0  0  0  0  0  0  0  0  0  0  0  0
   -0.8696   -0.6439    1.2647 C   0  0  0  0  0  0  0  0  0  0  0  0
   -0.5553   -1.4078    2.1683 O   0  0  0  0  0  0  0  0  0  0  0  0
   -0.0172    0.0577    0.4309 N   0  0  0  0  0  0  0  0  0  0  0  0
    1.3904   -0.0177    0.3890 C   0  0  0  0  0  0  0  0  0  0  0  0
    2.1491   -0.9119    1.1419 C   0  0  0  0  0  0  0  0  0  0  0  0
    3.5487   -0.9309    1.0385 C   0  0  0  0  0  0  0  0  0  0  0  0
    4.2110   -0.0566    0.1790 C   0  0  0  0  0  0  0  0  0  0  0  0
    5.6085   -0.0082    0.0154 N   0  0  0  0  0  0  0  0  0  0  0  0
    6.5772   -0.7806    0.6358 C   0  0  0  0  0  0  0  0  0  0  0  0
    6.3427   -1.6639    1.4550 O   0  0  0  0  0  0  0  0  0  0  0  0
    7.9520   -0.4675    0.2379 C   0  0  0  0  0  0  0  0  0  0  0  0
    9.1026   -1.0826    0.7007 C   0  0  0  0  0  0  0  0  0  0  0  0
   10.2876   -0.5485    0.1182 C   0  0  0  0  0  0  0  0  0  0  0  0
   10.0094    0.4610   -0.7744 C   0  0  0  0  0  0  0  0  0  0  0  0
    8.3312    0.7569   -0.9043 S   0  0  0  0  0  0  0  0  0  0  0  0
    3.4499    0.8391   -0.5792 C   0  0  0  0  0  0  0  0  0  0  0  0
    2.0537    0.8572   -0.4768 C   0  0  0  0  0  0  0  0  0  0  0  0
   -3.1744   -0.3358    2.1380 C   0  0  0  0  0  0  0  0  0  0  0  0
   -4.5370   -0.0911    1.9530 C   0  0  0  0  0  0  0  0  0  0  0  0
   -9.1324    0.0063   -2.3902 H   0  0  0  0  0  0  0  0  0  0  0  0
  -10.3071    1.0526   -1.5748 H   0  0  0  0  0  0  0  0  0  0  0  0
   -8.8540    1.7568   -2.3043 H   0  0  0  0  0  0  0  0  0  0  0  0
   -8.6563    1.5909    0.1960 H   0  0  0  0  0  0  0  0  0  0  0  0
   -8.9311   -0.1365    0.1113 H   0  0  0  0  0  0  0  0  0  0  0  0
   -6.8601   -0.4225   -1.2506 H   0  0  0  0  0  0  0  0  0  0  0  0
   -6.5781    1.3499   -1.1637 H   0  0  0  0  0  0  0  0  0  0  0  0
   -4.5778    0.1473   -1.4466 H   0  0  0  0  0  0  0  0  0  0  0  0
   -2.2040   -0.3005   -1.1309 H   0  0  0  0  0  0  0  0  0  0  0  0
   -0.4369    0.7554   -0.1686 H   0  0  0  0  0  0  0  0  0  0  0  0
    1.6868   -1.6195    1.8239 H   0  0  0  0  0  0  0  0  0  0  0  0
    4.0839   -1.6494    1.6519 H   0  0  0  0  0  0  0  0  0  0  0  0
    5.9630    0.6780   -0.6390 H   0  0  0  0  0  0  0  0  0  0  0  0
    9.0845   -1.8853    1.4304 H   0  0  0  0  0  0  0  0  0  0  0  0
   11.2912   -0.8887    0.3439 H   0  0  0  0  0  0  0  0  0  0  0  0
   10.7126    1.0402   -1.3577 H   0  0  0  0  0  0  0  0  0  0  0  0
    3.9286    1.5370   -1.2614 H   0  0  0  0  0  0  0  0  0  0  0  0
    1.4990    1.5687   -1.0826 H   0  0  0  0  0  0  0  0  0  0  0  0
   -2.7840   -0.4876    3.1423 H   0  0  0  0  0  0  0  0  0  0  0  0
   -5.1974   -0.0508    2.8164 H   0  0  0  0  0  0  0  0  0  0  0  0
  1  2  1  0
  2  3  1  0
  3  4  1  0
  4  5  1  0
  5  6  2  0
  6  7  1  0
  7  8  2  0
  8  9  1  0
  9 10  2  0
  9 11  1  0
 11 12  1  0
 12 13  2  0
 13 14  1  0
 14 15  2  0
 15 16  1  0
 16 17  1  0
 17 18  2  0
 17 19  1  0
 19 20  2  0
 20 21  1  0
 21 22  2  0
 22 23  1  0
 15 24  1  0
 24 25  2  0
  8 26  1  0
 26 27  2  0
 27  5  1  0
 25 12  1  0
 23 19  1  0
  1 28  1  0
  1 29  1  0
  1 30  1  0
  2 31  1  0
  2 32  1  0
  3 33  1  0
  3 34  1  0
  6 35  1  0
  7 36  1  0
 11 37  1  0
 13 38  1  0
 14 39  1  0
 16 40  1  0
 20 41  1  0
 21 42  1  0
 22 43  1  0
 24 44  1  0
 25 45  1  0
 26 46  1  0
 27 47  1  0
M  END
$$$$
