
     RDKit          3D

 61 64  0  0  0  0  0  0  0  0999 V2000
    7.9183   -1.9797   -0.5734 C   0  0  0  0  0  0  0  0  0  0  0  0
    7.0163   -0.9032   -0.0325 C   0  0  0  0  0  0  0  0  0  0  0  0
    7.5810    0.3298    0.3252 C   0  0  0  0  0  0  0  0  0  0  0  0
    6.7865    1.3549    0.8266 C   0  0  0  0  0  0  0  0  0  0  0  0
    5.4155    1.1606    0.9745 C   0  0  0  0  0  0  0  0  0  0  0  0
    4.8149   -0.0644    0.6404 C   0  0  0  0  0  0  0  0  0  0  0  0
    3.4210   -0.2471    0.7463 N   0  0  0  0  0  0  0  0  0  0  0  0
    2.8165    0.1163    2.0501 C   0  0  0  0  0  0  0  0  0  0  0  0
    1.8033    1.2675    1.9408 C   0  0  0  0  0  0  0  0  0  0  0  0
    0.7701    1.0195    0.9293 N   0  0  0  0  0  0  0  0  0  0  0  0
   -0.4277    1.7153    1.0318 C   0  0  0  0  0  0  0  0  0  0  0  0
   -0.6317    2.5839    1.8765 O   0  0  0  0  0  0  0  0  0  0  0  0
   -1.5242    1.4070    0.0845 C   0  0  0  0  0  0  0  0  0  0  0  0
   -2.1621    2.4649   -0.5726 C   0  0  0  0  0  0  0  0  0  0  0  0
   -3.2232    2.2064   -1.4431 C   0  0  0  0  0  0  0  0  0  0  0  0
   -3.6464    0.8922   -1.6487 C   0  0  0  0  0  0  0  0  0  0  0  0
   -4.7785    0.6177   -2.4768 N   0  0  0  0  0  0  0  0  0  0  0  0
   -6.2935    0.7199   -1.7068 S   0  0  0  0  0  6  0  0  0  0  0  0
   -6.3849    1.9975   -1.0359 O   0  0  0  0  0  0  0  0  0  0  0  0
   -7.2816    0.3184   -2.6836 O   0  0  0  0  0  0  0  0  0  0  0  0
   -6.3787   -0.4608   -0.4834 C   0  0  0  0  0  0  0  0  0  0  0  0
   -6.5662   -1.8482   -0.6602 C   0  0  0  0  0  0  0  0  0  0  0  0
   -6.7702   -2.6162   -1.9109 C   0  0  0  0  0  0  0  0  0  0  0  0
   -6.5298   -2.4860    0.5182 N   0  0  0  0  0  0  0  0  0  0  0  0
   -6.3225   -1.5076    1.4743 O   0  0  0  0  0  0  0  0  0  0  0  0
   -6.2248   -0.2911    0.8707 C   0  0  0  0  0  0  0  0  0  0  0  0
   -5.9768    0.8616    1.7574 C   0  0  0  0  0  0  0  0  0  0  0  0
   -3.0325   -0.1618   -0.9690 C   0  0  0  0  0  0  0  0  0  0  0  0
   -1.9734    0.0943   -0.0960 C   0  0  0  0  0  0  0  0  0  0  0  0
    1.1916    0.2332   -0.2422 C   0  0  0  0  0  0  0  0  0  0  0  0
    2.7165    0.2617   -0.4511 C   0  0  0  0  0  0  0  0  0  0  0  0
    5.6274   -1.1147    0.1480 C   0  0  0  0  0  0  0  0  0  0  0  0
    5.0057   -2.4392   -0.2255 C   0  0  0  0  0  0  0  0  0  0  0  0
    8.9101   -1.5859   -0.8189 H   0  0  0  0  0  0  0  0  0  0  0  0
    7.5058   -2.4016   -1.4952 H   0  0  0  0  0  0  0  0  0  0  0  0
    8.0460   -2.7731    0.1690 H   0  0  0  0  0  0  0  0  0  0  0  0
    8.6493    0.5003    0.2096 H   0  0  0  0  0  0  0  0  0  0  0  0
    7.2326    2.3091    1.0930 H   0  0  0  0  0  0  0  0  0  0  0  0
    4.8124    1.9859    1.3411 H   0  0  0  0  0  0  0  0  0  0  0  0
    3.5697    0.3512    2.8120 H   0  0  0  0  0  0  0  0  0  0  0  0
    2.2885   -0.7756    2.4107 H   0  0  0  0  0  0  0  0  0  0  0  0
    1.3286    1.4381    2.9133 H   0  0  0  0  0  0  0  0  0  0  0  0
    2.3114    2.1969    1.6567 H   0  0  0  0  0  0  0  0  0  0  0  0
   -1.8446    3.4892   -0.3905 H   0  0  0  0  0  0  0  0  0  0  0  0
   -3.7271    3.0386   -1.9282 H   0  0  0  0  0  0  0  0  0  0  0  0
   -4.8225    1.2134   -3.3055 H   0  0  0  0  0  0  0  0  0  0  0  0
   -7.7760   -2.4426   -2.3060 H   0  0  0  0  0  0  0  0  0  0  0  0
   -6.0398   -2.3212   -2.6713 H   0  0  0  0  0  0  0  0  0  0  0  0
   -6.6554   -3.6924   -1.7431 H   0  0  0  0  0  0  0  0  0  0  0  0
   -5.7886    0.5370    2.7862 H   0  0  0  0  0  0  0  0  0  0  0  0
   -6.8426    1.5306    1.7679 H   0  0  0  0  0  0  0  0  0  0  0  0
   -5.1023    1.4272    1.4224 H   0  0  0  0  0  0  0  0  0  0  0  0
   -3.3766   -1.1846   -1.1052 H   0  0  0  0  0  0  0  0  0  0  0  0
   -1.5209   -0.7256    0.4565 H   0  0  0  0  0  0  0  0  0  0  0  0
    0.8659   -0.7986   -0.0661 H   0  0  0  0  0  0  0  0  0  0  0  0
    0.6920    0.6058   -1.1417 H   0  0  0  0  0  0  0  0  0  0  0  0
    2.9678   -0.3570   -1.3206 H   0  0  0  0  0  0  0  0  0  0  0  0
    3.0230    1.2929   -0.6722 H   0  0  0  0  0  0  0  0  0  0  0  0
    4.0887   -2.6372    0.3382 H   0  0  0  0  0  0  0  0  0  0  0  0
    5.6776   -3.2726    0.0015 H   0  0  0  0  0  0  0  0  0  0  0  0
    4.7711   -2.4507   -1.2942 H   0  0  0  0  0  0  0  0  0  0  0  0
  1  2  1  0
  2  3  2  0
  3  4  1  0
  4  5  2  0
  5  6  1  0
  6  7  1  0
  7  8  1  0
  8  9  1  0
  9 10  1  0
 10 11  1  0
 11 12  2  0
 11 13  1  0
 13 14  2  0
 14 15  1  0
 15 16  2  0
 16 17  1  0
 17 18  1  0
 18 19  2  0
 18 20  2  0
 18 21  1  0
 21 22  1  0
 22 23  1  0
 22 24  2  0
 24 25  1  0
 25 26  1  0
 26 27  1  0
 16 28  1  0
 28 29  2  0
 10 30  1  0
 30 31  1  0
  6 32  2  0
 32 33  1  0
 32  2  1  0
 31  7  1  0
 29 13  1  0
 26 21  2  0
  1 34  1  0
  1 35  1  0
  1 36  1  0
  3 37  1  0
  4 38  1  0
  5 39  1  0
  8 40  1  0
  8 41  1  0
  9 42  1  0
  9 43  1  0
 14 44  1  0
 15 45  1  0
 17 46  1  0
 23 47  1  0
 23 48  1  0
 23 49  1  0
 27 50  1  0
 27 51  1  0
 27 52  1  0
 28 53  1  0
 29 54  1  0
 30 55  1  0
 30 56  1  0
 31 57  1  0
 31 58  1  0
 33 59  1  0
 33 60  1  0
 33 61  1  0
M  END
$$$$
