
     RDKit          3D

 46 48  0  0  0  0  0  0  0  0999 V2000
    8.2329    0.7025    0.4136 C   0  0  0  0  0  0  0  0  0  0  0  0
    7.4293   -0.4273    0.0953 O   0  0  0  0  0  0  0  0  0  0  0  0
    6.0744   -0.2614    0.1651 C   0  0  0  0  0  0  0  0  0  0  0  0
    5.4069    0.9106    0.5151 C   0  0  0  0  0  0  0  0  0  0  0  0
    4.0074    0.9387    0.5454 C   0  0  0  0  0  0  0  0  0  0  0  0
    3.2592   -0.2035    0.2279 C   0  0  0  0  0  0  0  0  0  0  0  0
    1.7677   -0.1131    0.2769 C   0  0  0  0  0  0  0  0  0  0  0  0
    1.2433    0.9755    0.5160 O   0  0  0  0  0  0  0  0  0  0  0  0
    0.9590   -1.3806    0.0151 C   0  0  0  0  0  0  0  0  0  0  0  0
   -0.4429   -1.1035    0.2242 N   0  0  0  0  0  0  0  0  0  0  0  0
   -1.0695   -1.1893    1.4249 C   0  0  0  0  0  0  0  0  0  0  0  0
   -0.5944   -1.5688    2.4820 O   0  0  0  0  0  0  0  0  0  0  0  0
   -2.3737   -0.7860    1.2661 N   0  0  0  0  0  0  0  0  0  0  0  0
   -2.6519   -0.2958   -0.0716 C   0  0  0  0  0  0  0  0  0  0  0  0
   -2.8506    1.2285   -0.0940 C   0  0  0  0  0  0  0  0  0  0  0  0
   -4.0264    1.7306    0.7427 C   0  0  0  0  0  0  0  0  0  0  0  0
   -5.3826    1.7018    0.0453 C   0  0  0  0  0  0  0  0  0  0  0  0
   -5.6941    0.4915   -0.8285 C   0  0  0  0  0  0  0  0  0  0  0  0
   -5.1723   -0.8418   -0.3029 C   0  0  0  0  0  0  0  0  0  0  0  0
   -3.7394   -1.1289   -0.7542 C   0  0  0  0  0  0  0  0  0  0  0  0
   -1.2874   -0.6106   -0.7286 C   0  0  0  0  0  0  0  0  0  0  0  0
   -1.0116   -0.4347   -1.9089 O   0  0  0  0  0  0  0  0  0  0  0  0
    3.9313   -1.3778   -0.1250 C   0  0  0  0  0  0  0  0  0  0  0  0
    5.3302   -1.4001   -0.1538 C   0  0  0  0  0  0  0  0  0  0  0  0
    8.0751    1.0198    1.4497 H   0  0  0  0  0  0  0  0  0  0  0  0
    8.0505    1.5258   -0.2850 H   0  0  0  0  0  0  0  0  0  0  0  0
    9.2814    0.4060    0.3122 H   0  0  0  0  0  0  0  0  0  0  0  0
    5.9394    1.8211    0.7700 H   0  0  0  0  0  0  0  0  0  0  0  0
    3.5038    1.8644    0.8213 H   0  0  0  0  0  0  0  0  0  0  0  0
    1.2703   -2.1623    0.7146 H   0  0  0  0  0  0  0  0  0  0  0  0
    1.1106   -1.6956   -1.0217 H   0  0  0  0  0  0  0  0  0  0  0  0
   -2.9895   -0.7242    2.0660 H   0  0  0  0  0  0  0  0  0  0  0  0
   -1.9422    1.7045    0.3023 H   0  0  0  0  0  0  0  0  0  0  0  0
   -2.9424    1.5864   -1.1275 H   0  0  0  0  0  0  0  0  0  0  0  0
   -4.0914    1.1804    1.6878 H   0  0  0  0  0  0  0  0  0  0  0  0
   -3.8283    2.7720    1.0282 H   0  0  0  0  0  0  0  0  0  0  0  0
   -6.1582    1.7908    0.8171 H   0  0  0  0  0  0  0  0  0  0  0  0
   -5.4834    2.6012   -0.5758 H   0  0  0  0  0  0  0  0  0  0  0  0
   -6.7853    0.4281   -0.9287 H   0  0  0  0  0  0  0  0  0  0  0  0
   -5.3154    0.6673   -1.8432 H   0  0  0  0  0  0  0  0  0  0  0  0
   -5.2703   -0.9093    0.7862 H   0  0  0  0  0  0  0  0  0  0  0  0
   -5.8070   -1.6344   -0.7197 H   0  0  0  0  0  0  0  0  0  0  0  0
   -3.6788   -0.9964   -1.8428 H   0  0  0  0  0  0  0  0  0  0  0  0
   -3.5375   -2.1953   -0.5810 H   0  0  0  0  0  0  0  0  0  0  0  0
    3.4052   -2.2906   -0.3860 H   0  0  0  0  0  0  0  0  0  0  0  0
    5.8486   -2.3165   -0.4290 H   0  0  0  0  0  0  0  0  0  0  0  0
  1  2  1  0
  2  3  1  0
  3  4  2  0
  4  5  1  0
  5  6  2  0
  6  7  1  0
  7  8  2  0
  7  9  1  0
  9 10  1  0
 10 11  1  0
 11 12  2  0
 11 13  1  0
 13 14  1  0
 14 15  1  0
 15 16  1  0
 16 17  1  0
 17 18  1  0
 18 19  1  0
 19 20  1  0
 14 21  1  0
 21 22  2  0
  6 23  1  0
 23 24  2  0
 24  3  1  0
 21 10  1  0
 20 14  1  0
  1 25  1  0
  1 26  1  0
  1 27  1  0
  4 28  1  0
  5 29  1  0
  9 30  1  0
  9 31  1  0
 13 32  1  0
 15 33  1  0
 15 34  1  0
 16 35  1  0
 16 36  1  0
 17 37  1  0
 17 38  1  0
 18 39  1  0
 18 40  1  0
 19 41  1  0
 19 42  1  0
 20 43  1  0
 20 44  1  0
 23 45  1  0
 24 46  1  0
M  END
$$$$
