
     RDKit          3D

 65 68  0  0  0  0  0  0  0  0999 V2000
   -8.4522   -1.4913    2.0497 C   0  0  0  0  0  0  0  0  0  0  0  0
   -7.7597   -0.5173    1.1433 C   0  0  0  0  0  0  0  0  0  0  0  0
   -7.4524   -0.8621   -0.1774 C   0  0  0  0  0  0  0  0  0  0  0  0
   -6.7727    0.0366   -1.0053 C   0  0  0  0  0  0  0  0  0  0  0  0
   -6.3744    1.2913   -0.5228 C   0  0  0  0  0  0  0  0  0  0  0  0
   -5.6344    2.2563   -1.4202 C   0  0  0  0  0  0  0  0  0  0  0  0
   -4.2462    2.6744   -0.9142 C   0  0  0  0  0  0  0  0  0  0  0  0
   -3.3584    1.5410   -0.7300 N   0  0  0  0  0  0  0  0  0  0  0  0
   -2.9849    1.1019    0.5246 C   0  0  0  0  0  0  0  0  0  0  0  0
   -3.2622    1.6892    1.5639 O   0  0  0  0  0  0  0  0  0  0  0  0
   -2.2146   -0.2041    0.4757 C   0  0  0  0  0  0  0  0  0  0  0  0
   -1.6629   -0.6353    1.8340 C   0  0  0  0  0  0  0  0  0  0  0  0
   -0.5517    0.2707    2.3740 C   0  0  0  0  0  0  0  0  0  0  0  0
    0.6357    0.2830    1.5239 N   0  0  0  0  0  0  0  0  0  0  0  0
    0.7384    1.3655    0.6428 N   0  0  0  0  0  0  0  0  0  0  0  0
    1.7614    1.4916   -0.1542 C   0  0  0  0  0  0  0  0  0  0  0  0
    1.8137    2.6863   -1.0629 C   0  0  0  0  0  0  0  0  0  0  0  0
    2.7952    0.4867   -0.1436 C   0  0  0  0  0  0  0  0  0  0  0  0
    3.9545    0.2873   -0.8755 C   0  0  0  0  0  0  0  0  0  0  0  0
    4.4715    1.0205   -2.0603 C   0  0  0  0  0  0  0  0  0  0  0  0
    4.5641   -0.8360   -0.3035 N   0  0  0  0  0  0  0  0  0  0  0  0
    5.8693   -1.3834   -0.4972 C   0  0  0  0  0  0  0  0  0  0  0  0
    6.1120   -2.7120   -0.1101 C   0  0  0  0  0  0  0  0  0  0  0  0
    7.3770   -3.2830   -0.2779 C   0  0  0  0  0  0  0  0  0  0  0  0
    8.4279   -2.5328   -0.8145 C   0  0  0  0  0  0  0  0  0  0  0  0
    9.7799   -3.1575   -0.9918 C   0  0  0  0  0  0  0  0  0  0  0  0
    8.1943   -1.2024   -1.1773 C   0  0  0  0  0  0  0  0  0  0  0  0
    6.9276   -0.6274   -1.0142 C   0  0  0  0  0  0  0  0  0  0  0  0
    3.7226   -1.4523    0.5698 N   0  0  0  0  0  0  0  0  0  0  0  0
    2.6978   -0.6097    0.7193 C   0  0  0  0  0  0  0  0  0  0  0  0
    1.5664   -0.7728    1.6249 C   0  0  0  0  0  0  0  0  0  0  0  0
    1.4357   -1.7272    2.3885 O   0  0  0  0  0  0  0  0  0  0  0  0
   -6.6810    1.6317    0.8011 C   0  0  0  0  0  0  0  0  0  0  0  0
   -7.3600    0.7328    1.6281 C   0  0  0  0  0  0  0  0  0  0  0  0
   -9.0131   -2.2361    1.4747 H   0  0  0  0  0  0  0  0  0  0  0  0
   -9.1674   -0.9755    2.6991 H   0  0  0  0  0  0  0  0  0  0  0  0
   -7.7167   -2.0105    2.6729 H   0  0  0  0  0  0  0  0  0  0  0  0
   -7.7398   -1.8346   -0.5715 H   0  0  0  0  0  0  0  0  0  0  0  0
   -6.5520   -0.2579   -2.0293 H   0  0  0  0  0  0  0  0  0  0  0  0
   -5.5211    1.8112   -2.4170 H   0  0  0  0  0  0  0  0  0  0  0  0
   -6.2558    3.1506   -1.5546 H   0  0  0  0  0  0  0  0  0  0  0  0
   -3.7727    3.3231   -1.6593 H   0  0  0  0  0  0  0  0  0  0  0  0
   -4.3259    3.2477    0.0160 H   0  0  0  0  0  0  0  0  0  0  0  0
   -3.1465    0.9604   -1.5300 H   0  0  0  0  0  0  0  0  0  0  0  0
   -2.9126   -0.9740    0.1231 H   0  0  0  0  0  0  0  0  0  0  0  0
   -1.4126   -0.1272   -0.2662 H   0  0  0  0  0  0  0  0  0  0  0  0
   -1.2843   -1.6601    1.7413 H   0  0  0  0  0  0  0  0  0  0  0  0
   -2.4761   -0.6660    2.5697 H   0  0  0  0  0  0  0  0  0  0  0  0
   -0.8976    1.3012    2.5068 H   0  0  0  0  0  0  0  0  0  0  0  0
   -0.2550   -0.0920    3.3662 H   0  0  0  0  0  0  0  0  0  0  0  0
    1.6289    2.3696   -2.0929 H   0  0  0  0  0  0  0  0  0  0  0  0
    1.0434    3.4112   -0.7802 H   0  0  0  0  0  0  0  0  0  0  0  0
    2.7910    3.1726   -0.9949 H   0  0  0  0  0  0  0  0  0  0  0  0
    5.0718    1.8818   -1.7482 H   0  0  0  0  0  0  0  0  0  0  0  0
    3.6478    1.3891   -2.6782 H   0  0  0  0  0  0  0  0  0  0  0  0
    5.0666    0.3808   -2.7202 H   0  0  0  0  0  0  0  0  0  0  0  0
    5.3173   -3.3260    0.3140 H   0  0  0  0  0  0  0  0  0  0  0  0
    7.5355   -4.3178    0.0196 H   0  0  0  0  0  0  0  0  0  0  0  0
   10.1360   -3.5658   -0.0404 H   0  0  0  0  0  0  0  0  0  0  0  0
    9.7284   -3.9612   -1.7329 H   0  0  0  0  0  0  0  0  0  0  0  0
   10.5178   -2.4258   -1.3366 H   0  0  0  0  0  0  0  0  0  0  0  0
    9.0047   -0.5939   -1.5759 H   0  0  0  0  0  0  0  0  0  0  0  0
    6.8252    0.4245   -1.2550 H   0  0  0  0  0  0  0  0  0  0  0  0
   -6.3754    2.5928    1.2102 H   0  0  0  0  0  0  0  0  0  0  0  0
   -7.5671    1.0151    2.6586 H   0  0  0  0  0  0  0  0  0  0  0  0
  1  2  1  0
  2  3  2  0
  3  4  1  0
  4  5  2  0
  5  6  1  0
  6  7  1  0
  7  8  1  0
  8  9  1  0
  9 10  2  0
  9 11  1  0
 11 12  1  0
 12 13  1  0
 13 14  1  0
 14 15  1  0
 15 16  2  0
 16 17  1  0
 16 18  1  0
 18 19  2  0
 19 20  1  0
 19 21  1  0
 21 22  1  0
 22 23  2  0
 23 24  1  0
 24 25  2  0
 25 26  1  0
 25 27  1  0
 27 28  2  0
 21 29  1  0
 29 30  2  0
 30 31  1  0
 31 32  2  0
  5 33  1  0
 33 34  2  0
 34  2  1  0
 31 14  1  0
 30 18  1  0
 28 22  1  0
  1 35  1  0
  1 36  1  0
  1 37  1  0
  3 38  1  0
  4 39  1  0
  6 40  1  0
  6 41  1  0
  7 42  1  0
  7 43  1  0
  8 44  1  0
 11 45  1  0
 11 46  1  0
 12 47  1  0
 12 48  1  0
 13 49  1  0
 13 50  1  0
 17 51  1  0
 17 52  1  0
 17 53  1  0
 20 54  1  0
 20 55  1  0
 20 56  1  0
 23 57  1  0
 24 58  1  0
 26 59  1  0
 26 60  1  0
 26 61  1  0
 27 62  1  0
 28 63  1  0
 33 64  1  0
 34 65  1  0
M  END
$$$$
