
     RDKit          3D

 55 58  0  0  0  0  0  0  0  0999 V2000
   -3.0137    1.7560    2.1774 C   0  0  0  0  0  0  0  0  0  0  0  0
   -3.7122    1.3683    0.8735 C   0  0  0  0  0  0  0  0  0  0  0  0
   -3.8627    2.5628   -0.0700 C   0  0  0  0  0  0  0  0  0  0  0  0
   -3.1073    0.2074    0.2281 N   0  0  0  0  0  0  0  0  0  0  0  0
   -1.8467    0.1186   -0.3284 C   0  0  0  0  0  0  0  0  0  0  0  0
   -0.9727    1.1614   -0.2909 N   0  0  0  0  0  0  0  0  0  0  0  0
   -0.5432    1.6466   -1.6239 C   0  0  0  0  0  0  0  0  0  0  0  0
    0.6157    0.8188   -2.2293 C   0  0  0  0  0  0  0  0  0  0  0  0
    1.8044    0.6548   -1.3577 N   0  0  0  0  0  0  0  0  0  0  0  0
    2.5484    1.9334   -1.2272 C   0  0  0  0  0  0  0  0  0  0  0  0
    3.9354    1.6988   -0.6131 C   0  0  0  0  0  0  0  0  0  0  0  0
    4.4983    2.5395    0.0807 O   0  0  0  0  0  0  0  0  0  0  0  0
    4.4883    0.4870   -0.9655 N   0  0  0  0  0  0  0  0  0  0  0  0
    5.6638   -0.0382   -0.3177 C   0  0  0  0  0  0  0  0  0  0  0  0
    5.2254   -1.0086    0.7357 C   0  0  0  0  0  0  0  0  0  0  0  0
    4.7598   -2.2997    0.5684 C   0  0  0  0  0  0  0  0  0  0  0  0
    4.4220   -2.9204    1.8052 C   0  0  0  0  0  0  0  0  0  0  0  0
    4.6458   -2.0864    2.8771 C   0  0  0  0  0  0  0  0  0  0  0  0
    5.2565   -0.5658    2.3913 S   0  0  0  0  0  0  0  0  0  0  0  0
    1.3313    0.1486   -0.0401 C   0  0  0  0  0  0  0  0  0  0  0  0
    0.1814    0.9506    0.6162 C   0  0  0  0  0  0  0  0  0  0  0  0
   -1.6432   -1.0604   -0.8662 N   0  0  0  0  0  0  0  0  0  0  0  0
   -2.7871   -1.7757   -0.6396 C   0  0  0  0  0  0  0  0  0  0  0  0
   -3.0903   -3.0975   -0.9994 C   0  0  0  0  0  0  0  0  0  0  0  0
   -4.3391   -3.6236   -0.6524 C   0  0  0  0  0  0  0  0  0  0  0  0
   -5.2689   -2.8475    0.0393 C   0  0  0  0  0  0  0  0  0  0  0  0
   -4.9850   -1.5257    0.4037 C   0  0  0  0  0  0  0  0  0  0  0  0
   -3.7280   -1.0153    0.0484 C   0  0  0  0  0  0  0  0  0  0  0  0
   -2.0310    2.2031    2.0020 H   0  0  0  0  0  0  0  0  0  0  0  0
   -3.6120    2.4921    2.7250 H   0  0  0  0  0  0  0  0  0  0  0  0
   -2.8775    0.8834    2.8254 H   0  0  0  0  0  0  0  0  0  0  0  0
   -4.7302    1.0684    1.1480 H   0  0  0  0  0  0  0  0  0  0  0  0
   -4.3358    2.2626   -1.0113 H   0  0  0  0  0  0  0  0  0  0  0  0
   -2.9004    3.0246   -0.3102 H   0  0  0  0  0  0  0  0  0  0  0  0
   -4.4889    3.3348    0.3899 H   0  0  0  0  0  0  0  0  0  0  0  0
   -0.2294    2.6922   -1.5173 H   0  0  0  0  0  0  0  0  0  0  0  0
   -1.3919    1.6554   -2.3203 H   0  0  0  0  0  0  0  0  0  0  0  0
    0.2497   -0.1828   -2.4867 H   0  0  0  0  0  0  0  0  0  0  0  0
    0.9177    1.2661   -3.1844 H   0  0  0  0  0  0  0  0  0  0  0  0
    2.7305    2.3656   -2.2186 H   0  0  0  0  0  0  0  0  0  0  0  0
    2.0142    2.6740   -0.6243 H   0  0  0  0  0  0  0  0  0  0  0  0
    3.8231   -0.1648   -1.3752 H   0  0  0  0  0  0  0  0  0  0  0  0
    6.2512   -0.5584   -1.0816 H   0  0  0  0  0  0  0  0  0  0  0  0
    6.2759    0.7721    0.0908 H   0  0  0  0  0  0  0  0  0  0  0  0
    4.6588   -2.7758   -0.3994 H   0  0  0  0  0  0  0  0  0  0  0  0
    4.0344   -3.9268    1.9029 H   0  0  0  0  0  0  0  0  0  0  0  0
    4.4805   -2.2949    3.9251 H   0  0  0  0  0  0  0  0  0  0  0  0
    2.1659    0.0873    0.6673 H   0  0  0  0  0  0  0  0  0  0  0  0
    1.0048   -0.8891   -0.1850 H   0  0  0  0  0  0  0  0  0  0  0  0
   -0.1388    0.4414    1.5347 H   0  0  0  0  0  0  0  0  0  0  0  0
    0.5483    1.9346    0.9309 H   0  0  0  0  0  0  0  0  0  0  0  0
   -2.3598   -3.6931   -1.5353 H   0  0  0  0  0  0  0  0  0  0  0  0
   -4.5831   -4.6473   -0.9242 H   0  0  0  0  0  0  0  0  0  0  0  0
   -6.2340   -3.2765    0.3009 H   0  0  0  0  0  0  0  0  0  0  0  0
   -5.7184   -0.9353    0.9420 H   0  0  0  0  0  0  0  0  0  0  0  0
  1  2  1  0
  2  3  1  0
  2  4  1  0
  4  5  1  0
  5  6  1  0
  6  7  1  0
  7  8  1  0
  8  9  1  0
  9 10  1  0
 10 11  1  0
 11 12  2  0
 11 13  1  0
 13 14  1  0
 14 15  1  0
 15 16  2  0
 16 17  1  0
 17 18  2  0
 18 19  1  0
  9 20  1  0
 20 21  1  0
  5 22  2  0
 22 23  1  0
 23 24  2  0
 24 25  1  0
 25 26  2  0
 26 27  1  0
 27 28  2  0
 28  4  1  0
 21  6  1  0
 28 23  1  0
 19 15  1  0
  1 29  1  0
  1 30  1  0
  1 31  1  0
  2 32  1  0
  3 33  1  0
  3 34  1  0
  3 35  1  0
  7 36  1  0
  7 37  1  0
  8 38  1  0
  8 39  1  0
 10 40  1  0
 10 41  1  0
 13 42  1  0
 14 43  1  0
 14 44  1  0
 16 45  1  0
 17 46  1  0
 18 47  1  0
 20 48  1  0
 20 49  1  0
 21 50  1  0
 21 51  1  0
 24 52  1  0
 25 53  1  0
 26 54  1  0
 27 55  1  0
M  END
$$$$
