
     RDKit          3D

 40 41  0  0  0  0  0  0  0  0999 V2000
    7.6573   -0.4962   -0.1344 C   0  0  0  0  0  0  0  0  0  0  0  0
    6.7671    0.6085   -0.2280 O   0  0  0  0  0  0  0  0  0  0  0  0
    5.4294    0.3228   -0.2336 C   0  0  0  0  0  0  0  0  0  0  0  0
    4.8613   -0.9503   -0.2203 C   0  0  0  0  0  0  0  0  0  0  0  0
    3.4698   -1.1009   -0.2305 C   0  0  0  0  0  0  0  0  0  0  0  0
    2.6277    0.0189   -0.2550 C   0  0  0  0  0  0  0  0  0  0  0  0
    1.1267   -0.1498   -0.2656 C   0  0  0  0  0  0  0  0  0  0  0  0
    0.5239   -0.5336    1.0704 C   0  0  0  0  0  0  0  0  0  0  0  0
    1.1483   -0.8457    2.0765 O   0  0  0  0  0  0  0  0  0  0  0  0
   -0.8470   -0.4843    0.9330 O   0  0  0  0  0  0  0  0  0  0  0  0
   -1.4735   -0.8972    2.1207 N   0  0  0  0  0  0  0  0  0  0  0  0
   -2.7736   -0.8343    2.0507 C   0  0  0  0  0  0  0  0  0  0  0  0
   -3.4909   -1.2995    3.1242 N   0  0  0  0  0  0  0  0  0  0  0  0
   -3.5412   -0.2846    0.8999 C   0  0  0  0  0  0  0  0  0  0  0  0
   -3.2929    1.0099    0.4368 C   0  0  0  0  0  0  0  0  0  0  0  0
   -4.0449    1.5226   -0.6221 C   0  0  0  0  0  0  0  0  0  0  0  0
   -5.0595    0.7542   -1.2091 C   0  0  0  0  0  0  0  0  0  0  0  0
   -5.8443    1.2922   -2.3699 C   0  0  0  0  0  0  0  0  0  0  0  0
   -5.2993   -0.5433   -0.7358 C   0  0  0  0  0  0  0  0  0  0  0  0
   -4.5503   -1.0594    0.3235 C   0  0  0  0  0  0  0  0  0  0  0  0
    3.2036    1.2945   -0.2626 C   0  0  0  0  0  0  0  0  0  0  0  0
    4.5932    1.4407   -0.2557 C   0  0  0  0  0  0  0  0  0  0  0  0
    7.4968   -1.0569    0.7925 H   0  0  0  0  0  0  0  0  0  0  0  0
    8.6778   -0.1020   -0.1120 H   0  0  0  0  0  0  0  0  0  0  0  0
    7.5715   -1.1468   -1.0110 H   0  0  0  0  0  0  0  0  0  0  0  0
    5.4690   -1.8484   -0.1969 H   0  0  0  0  0  0  0  0  0  0  0  0
    3.0480   -2.1039   -0.2058 H   0  0  0  0  0  0  0  0  0  0  0  0
    0.8628   -0.9223   -0.9980 H   0  0  0  0  0  0  0  0  0  0  0  0
    0.6613    0.7877   -0.5944 H   0  0  0  0  0  0  0  0  0  0  0  0
   -2.9064   -1.4152    3.9474 H   0  0  0  0  0  0  0  0  0  0  0  0
   -4.3614   -0.8182    3.3195 H   0  0  0  0  0  0  0  0  0  0  0  0
   -2.5235    1.6213    0.9008 H   0  0  0  0  0  0  0  0  0  0  0  0
   -3.8387    2.5279   -0.9833 H   0  0  0  0  0  0  0  0  0  0  0  0
   -5.3668    1.0014   -3.3110 H   0  0  0  0  0  0  0  0  0  0  0  0
   -5.9068    2.3849   -2.3280 H   0  0  0  0  0  0  0  0  0  0  0  0
   -6.8700    0.9078   -2.3577 H   0  0  0  0  0  0  0  0  0  0  0  0
   -6.0721   -1.1595   -1.1905 H   0  0  0  0  0  0  0  0  0  0  0  0
   -4.7439   -2.0659    0.6858 H   0  0  0  0  0  0  0  0  0  0  0  0
    2.5816    2.1863   -0.2714 H   0  0  0  0  0  0  0  0  0  0  0  0
    5.0294    2.4365   -0.2612 H   0  0  0  0  0  0  0  0  0  0  0  0
  1  2  1  0
  2  3  1  0
  3  4  2  0
  4  5  1  0
  5  6  2  0
  6  7  1  0
  7  8  1  0
  8  9  2  0
  8 10  1  0
 10 11  1  0
 11 12  2  3
 12 13  1  0
 12 14  1  0
 14 15  2  0
 15 16  1  0
 16 17  2  0
 17 18  1  0
 17 19  1  0
 19 20  2  0
  6 21  1  0
 21 22  2  0
 22  3  1  0
 20 14  1  0
  1 23  1  0
  1 24  1  0
  1 25  1  0
  4 26  1  0
  5 27  1  0
  7 28  1  0
  7 29  1  0
 13 30  1  0
 13 31  1  0
 15 32  1  0
 16 33  1  0
 18 34  1  0
 18 35  1  0
 18 36  1  0
 19 37  1  0
 20 38  1  0
 21 39  1  0
 22 40  1  0
M  END
$$$$
