
     RDKit          3D

 49 52  0  0  0  0  0  0  0  0999 V2000
    8.1102   -0.7100    1.4587 C   0  0  0  0  0  0  0  0  0  0  0  0
    7.3498   -0.6124    0.2136 N   0  0  0  0  0  0  0  0  0  0  0  0
    7.6816   -1.6132   -0.8003 C   0  0  0  0  0  0  0  0  0  0  0  0
    6.0366   -0.1232    0.2649 C   0  0  0  0  0  0  0  0  0  0  0  0
    5.5467    0.5923    1.3716 C   0  0  0  0  0  0  0  0  0  0  0  0
    4.2372    1.0959    1.4217 C   0  0  0  0  0  0  0  0  0  0  0  0
    3.3618    0.9032    0.3553 C   0  0  0  0  0  0  0  0  0  0  0  0
    2.0174    1.4830    0.4137 C   0  0  0  0  0  0  0  0  0  0  0  0
    0.8503    0.8349    0.2874 C   0  0  0  0  0  0  0  0  0  0  0  0
   -0.4305    1.4623    0.3530 C   0  0  0  0  0  0  0  0  0  0  0  0
   -1.3240    0.4871    0.1969 C   0  0  0  0  0  0  0  0  0  0  0  0
   -2.7915    0.5948    0.1755 C   0  0  0  0  0  0  0  0  0  0  0  0
   -3.4550    1.7271    0.6652 C   0  0  0  0  0  0  0  0  0  0  0  0
   -4.8506    1.8117    0.6363 C   0  0  0  0  0  0  0  0  0  0  0  0
   -5.6210    0.7657    0.1148 C   0  0  0  0  0  0  0  0  0  0  0  0
   -4.9768   -0.3892   -0.3555 C   0  0  0  0  0  0  0  0  0  0  0  0
   -3.5720   -0.4567   -0.3302 C   0  0  0  0  0  0  0  0  0  0  0  0
   -5.7536   -1.5410   -0.9465 C   0  0  0  0  0  0  0  0  0  0  0  0
   -7.2360   -1.5204   -0.5786 C   0  0  0  0  0  0  0  0  0  0  0  0
   -7.8165   -0.1274   -0.7856 C   0  0  0  0  0  0  0  0  0  0  0  0
   -7.1255    0.8800    0.1316 C   0  0  0  0  0  0  0  0  0  0  0  0
   -0.7678   -0.7961    0.0209 O   0  0  0  0  0  0  0  0  0  0  0  0
    0.6003   -0.6220    0.0773 C   0  0  0  0  0  0  0  0  0  0  0  0
    1.4164   -1.5181   -0.0329 O   0  0  0  0  0  0  0  0  0  0  0  0
    3.8283    0.2280   -0.7688 C   0  0  0  0  0  0  0  0  0  0  0  0
    5.1393   -0.2730   -0.8074 C   0  0  0  0  0  0  0  0  0  0  0  0
    8.2687    0.2772    1.9058 H   0  0  0  0  0  0  0  0  0  0  0  0
    9.1108   -1.1202    1.2804 H   0  0  0  0  0  0  0  0  0  0  0  0
    7.6075   -1.3656    2.1784 H   0  0  0  0  0  0  0  0  0  0  0  0
    8.7290   -1.9256   -0.7202 H   0  0  0  0  0  0  0  0  0  0  0  0
    7.0604   -2.5090   -0.6897 H   0  0  0  0  0  0  0  0  0  0  0  0
    7.5687   -1.2071   -1.8111 H   0  0  0  0  0  0  0  0  0  0  0  0
    6.1748    0.7835    2.2358 H   0  0  0  0  0  0  0  0  0  0  0  0
    3.9182    1.6371    2.3091 H   0  0  0  0  0  0  0  0  0  0  0  0
    2.0142    2.5563    0.5951 H   0  0  0  0  0  0  0  0  0  0  0  0
   -0.6114    2.5149    0.4900 H   0  0  0  0  0  0  0  0  0  0  0  0
   -2.9028    2.5620    1.0880 H   0  0  0  0  0  0  0  0  0  0  0  0
   -5.3354    2.7032    1.0289 H   0  0  0  0  0  0  0  0  0  0  0  0
   -3.0876   -1.3514   -0.7196 H   0  0  0  0  0  0  0  0  0  0  0  0
   -5.3219   -2.4923   -0.6130 H   0  0  0  0  0  0  0  0  0  0  0  0
   -5.6506   -1.4946   -2.0379 H   0  0  0  0  0  0  0  0  0  0  0  0
   -7.3651   -1.8199    0.4692 H   0  0  0  0  0  0  0  0  0  0  0  0
   -7.7770   -2.2508   -1.1905 H   0  0  0  0  0  0  0  0  0  0  0  0
   -7.6881    0.1719   -1.8336 H   0  0  0  0  0  0  0  0  0  0  0  0
   -8.8932   -0.1319   -0.5822 H   0  0  0  0  0  0  0  0  0  0  0  0
   -7.4662    0.7237    1.1628 H   0  0  0  0  0  0  0  0  0  0  0  0
   -7.4262    1.8914   -0.1669 H   0  0  0  0  0  0  0  0  0  0  0  0
    3.1846    0.0733   -1.6312 H   0  0  0  0  0  0  0  0  0  0  0  0
    5.4330   -0.7892   -1.7159 H   0  0  0  0  0  0  0  0  0  0  0  0
  1  2  1  0
  2  3  1  0
  2  4  1  0
  4  5  2  0
  5  6  1  0
  6  7  2  0
  7  8  1  0
  8  9  2  3
  9 10  1  0
 10 11  2  0
 11 12  1  0
 12 13  2  0
 13 14  1  0
 14 15  2  0
 15 16  1  0
 16 17  2  0
 16 18  1  0
 18 19  1  0
 19 20  1  0
 20 21  1  0
 11 22  1  0
 22 23  1  0
 23 24  2  0
  7 25  1  0
 25 26  2  0
 26  4  1  0
 23  9  1  0
 17 12  1  0
 21 15  1  0
  1 27  1  0
  1 28  1  0
  1 29  1  0
  3 30  1  0
  3 31  1  0
  3 32  1  0
  5 33  1  0
  6 34  1  0
  8 35  1  0
 10 36  1  0
 13 37  1  0
 14 38  1  0
 17 39  1  0
 18 40  1  0
 18 41  1  0
 19 42  1  0
 19 43  1  0
 20 44  1  0
 20 45  1  0
 21 46  1  0
 21 47  1  0
 25 48  1  0
 26 49  1  0
M  END
$$$$
