
     RDKit          3D

 58 62  0  0  0  0  0  0  0  0999 V2000
   -2.9290    2.8749   -1.2760 C   0  0  0  0  0  0  0  0  0  0  0  0
   -3.7832    2.3791   -0.2462 O   0  0  0  0  0  0  0  0  0  0  0  0
   -4.7071    1.4632   -0.6784 C   0  0  0  0  0  0  0  0  0  0  0  0
   -5.4645    1.6637   -1.8383 C   0  0  0  0  0  0  0  0  0  0  0  0
   -6.4307    0.7313   -2.2184 C   0  0  0  0  0  0  0  0  0  0  0  0
   -6.6557   -0.3964   -1.4341 C   0  0  0  0  0  0  0  0  0  0  0  0
   -5.9148   -0.5907   -0.2689 C   0  0  0  0  0  0  0  0  0  0  0  0
   -4.9321    0.3347    0.1271 C   0  0  0  0  0  0  0  0  0  0  0  0
   -4.1273    0.0757    1.3850 C   0  0  0  0  0  0  0  0  0  0  0  0
   -3.1101   -0.9611    1.1977 N   0  0  0  0  0  0  0  0  0  0  0  0
   -3.4176   -2.2841    1.4868 C   0  0  0  0  0  0  0  0  0  0  0  0
   -4.4983   -2.6425    1.9516 O   0  0  0  0  0  0  0  0  0  0  0  0
   -2.3795   -3.3200    1.2170 C   0  0  0  0  0  0  0  0  0  0  0  0
   -2.6976   -4.6626    1.4738 C   0  0  0  0  0  0  0  0  0  0  0  0
   -1.7610   -5.6643    1.2345 C   0  0  0  0  0  0  0  0  0  0  0  0
   -0.5076   -5.3291    0.7325 C   0  0  0  0  0  0  0  0  0  0  0  0
   -0.1810   -3.9948    0.4713 C   0  0  0  0  0  0  0  0  0  0  0  0
   -1.1113   -2.9801    0.7197 C   0  0  0  0  0  0  0  0  0  0  0  0
   -0.8638   -1.6057    0.5045 N   0  0  0  0  0  0  0  0  0  0  0  0
    0.2306   -0.8639    0.0937 C   0  0  0  0  0  0  0  0  0  0  0  0
    1.8140   -1.4506   -0.2865 S   0  0  0  0  0  0  0  0  0  0  0  0
    2.7357    0.1151   -0.3679 C   0  0  0  0  0  0  0  0  0  0  0  0
    4.2260   -0.0954   -0.6204 C   0  0  0  0  0  0  0  0  0  0  0  0
    4.7105   -1.2068   -0.8336 O   0  0  0  0  0  0  0  0  0  0  0  0
    5.0297    1.0534   -0.5796 N   0  0  0  0  0  0  0  0  0  0  0  0
    6.4449    0.9072   -0.9229 C   0  0  0  0  0  0  0  0  0  0  0  0
    7.3262    1.8613   -0.1198 C   0  0  0  0  0  0  0  0  0  0  0  0
    6.8362    3.3019   -0.2288 C   0  0  0  0  0  0  0  0  0  0  0  0
    5.3661    3.3933    0.1669 C   0  0  0  0  0  0  0  0  0  0  0  0
    4.5042    2.4207   -0.6365 C   0  0  0  0  0  0  0  0  0  0  0  0
   -0.0801    0.4126    0.0537 N   0  0  0  0  0  0  0  0  0  0  0  0
   -1.3768    0.5445    0.4556 N   0  0  0  0  0  0  0  0  0  0  0  0
   -1.8433   -0.6522    0.7306 C   0  0  0  0  0  0  0  0  0  0  0  0
   -2.5987    2.0810   -1.9558 H   0  0  0  0  0  0  0  0  0  0  0  0
   -2.0386    3.3003   -0.7984 H   0  0  0  0  0  0  0  0  0  0  0  0
   -3.4241    3.6789   -1.8319 H   0  0  0  0  0  0  0  0  0  0  0  0
   -5.3291    2.5499   -2.4520 H   0  0  0  0  0  0  0  0  0  0  0  0
   -7.0147    0.8931   -3.1203 H   0  0  0  0  0  0  0  0  0  0  0  0
   -7.4117   -1.1218   -1.7240 H   0  0  0  0  0  0  0  0  0  0  0  0
   -6.1116   -1.4740    0.3362 H   0  0  0  0  0  0  0  0  0  0  0  0
   -4.8179   -0.2300    2.1813 H   0  0  0  0  0  0  0  0  0  0  0  0
   -3.6448    0.9868    1.7593 H   0  0  0  0  0  0  0  0  0  0  0  0
   -3.6784   -4.9331    1.8633 H   0  0  0  0  0  0  0  0  0  0  0  0
   -2.0085   -6.7027    1.4395 H   0  0  0  0  0  0  0  0  0  0  0  0
    0.2255   -6.1109    0.5412 H   0  0  0  0  0  0  0  0  0  0  0  0
    0.8096   -3.8161    0.0727 H   0  0  0  0  0  0  0  0  0  0  0  0
    2.3271    0.7207   -1.1834 H   0  0  0  0  0  0  0  0  0  0  0  0
    2.6178    0.6297    0.5916 H   0  0  0  0  0  0  0  0  0  0  0  0
    6.5414    1.1120   -1.9981 H   0  0  0  0  0  0  0  0  0  0  0  0
    6.7836   -0.1223   -0.7544 H   0  0  0  0  0  0  0  0  0  0  0  0
    7.3189    1.5597    0.9373 H   0  0  0  0  0  0  0  0  0  0  0  0
    8.3634    1.7945   -0.4674 H   0  0  0  0  0  0  0  0  0  0  0  0
    6.9708    3.6670   -1.2555 H   0  0  0  0  0  0  0  0  0  0  0  0
    7.4370    3.9451    0.4262 H   0  0  0  0  0  0  0  0  0  0  0  0
    5.2695    3.1580    1.2365 H   0  0  0  0  0  0  0  0  0  0  0  0
    5.0055    4.4196    0.0280 H   0  0  0  0  0  0  0  0  0  0  0  0
    3.4776    2.4705   -0.2652 H   0  0  0  0  0  0  0  0  0  0  0  0
    4.4786    2.7111   -1.6946 H   0  0  0  0  0  0  0  0  0  0  0  0
  1  2  1  0
  2  3  1  0
  3  4  2  0
  4  5  1  0
  5  6  2  0
  6  7  1  0
  7  8  2  0
  8  9  1  0
  9 10  1  0
 10 11  1  0
 11 12  2  0
 11 13  1  0
 13 14  2  0
 14 15  1  0
 15 16  2  0
 16 17  1  0
 17 18  2  0
 18 19  1  0
 19 20  1  0
 20 21  1  0
 21 22  1  0
 22 23  1  0
 23 24  2  0
 23 25  1  0
 25 26  1  0
 26 27  1  0
 27 28  1  0
 28 29  1  0
 29 30  1  0
 20 31  2  0
 31 32  1  0
 32 33  2  0
  8  3  1  0
 33 10  1  0
 18 13  1  0
 33 19  1  0
 30 25  1  0
  1 34  1  0
  1 35  1  0
  1 36  1  0
  4 37  1  0
  5 38  1  0
  6 39  1  0
  7 40  1  0
  9 41  1  0
  9 42  1  0
 14 43  1  0
 15 44  1  0
 16 45  1  0
 17 46  1  0
 22 47  1  0
 22 48  1  0
 26 49  1  0
 26 50  1  0
 27 51  1  0
 27 52  1  0
 28 53  1  0
 28 54  1  0
 29 55  1  0
 29 56  1  0
 30 57  1  0
 30 58  1  0
M  END
$$$$
