
     RDKit          3D

 48 51  0  0  0  0  0  0  0  0999 V2000
    7.2581   -1.4497    1.6900 C   0  0  0  0  0  0  0  0  0  0  0  0
    5.8765   -1.0350    1.2778 C   0  0  0  0  0  0  0  0  0  0  0  0
    4.7553   -1.6991    1.7765 C   0  0  0  0  0  0  0  0  0  0  0  0
    3.4709   -1.3250    1.3648 C   0  0  0  0  0  0  0  0  0  0  0  0
    3.2664   -0.3009    0.4523 C   0  0  0  0  0  0  0  0  0  0  0  0
    2.0125    0.0226    0.0940 N   0  0  0  0  0  0  0  0  0  0  0  0
    1.8244    1.0282   -0.7950 C   0  0  0  0  0  0  0  0  0  0  0  0
    0.1215    1.4069   -1.1864 S   0  0  0  0  0  0  0  0  0  0  0  0
   -0.6105   -0.2550   -0.9604 C   0  0  0  0  0  0  0  0  0  0  0  0
   -2.0635   -0.2294   -1.4149 C   0  0  0  0  0  0  0  0  0  0  0  0
   -2.3044   -0.2299   -2.6290 O   0  0  0  0  0  0  0  0  0  0  0  0
   -3.0426   -0.1711   -0.4300 N   0  0  0  0  0  0  0  0  0  0  0  0
   -4.4300   -0.0431   -0.6730 C   0  0  0  0  0  0  0  0  0  0  0  0
   -5.1190   -0.0813   -1.8744 C   0  0  0  0  0  0  0  0  0  0  0  0
   -6.5117    0.0574   -1.8542 C   0  0  0  0  0  0  0  0  0  0  0  0
   -7.1962    0.2424   -0.6418 C   0  0  0  0  0  0  0  0  0  0  0  0
   -6.4963    0.2981    0.5637 C   0  0  0  0  0  0  0  0  0  0  0  0
   -5.1169    0.1494    0.5295 C   0  0  0  0  0  0  0  0  0  0  0  0
   -4.1691    0.2486    1.6818 C   0  0  0  0  0  0  0  0  0  0  0  0
   -2.8532   -0.2535    1.0443 C   0  0  0  0  0  0  0  0  0  0  0  0
   -2.5768   -1.6989    1.4838 C   0  0  0  0  0  0  0  0  0  0  0  0
    2.8785    1.7540   -1.3556 C   0  0  0  0  0  0  0  0  0  0  0  0
    2.6709    2.8770   -2.3319 C   0  0  0  0  0  0  0  0  0  0  0  0
    4.1788    1.4016   -0.9750 C   0  0  0  0  0  0  0  0  0  0  0  0
    4.3943    0.3648   -0.0609 C   0  0  0  0  0  0  0  0  0  0  0  0
    5.6887   -0.0099    0.3468 C   0  0  0  0  0  0  0  0  0  0  0  0
    7.9431   -0.5951    1.6749 H   0  0  0  0  0  0  0  0  0  0  0  0
    7.2576   -1.8448    2.7099 H   0  0  0  0  0  0  0  0  0  0  0  0
    7.6387   -2.2214    1.0101 H   0  0  0  0  0  0  0  0  0  0  0  0
    4.8670   -2.5078    2.4957 H   0  0  0  0  0  0  0  0  0  0  0  0
    2.6059   -1.8443    1.7746 H   0  0  0  0  0  0  0  0  0  0  0  0
   -0.5017   -0.5605    0.0835 H   0  0  0  0  0  0  0  0  0  0  0  0
   -0.0833   -0.9977   -1.5800 H   0  0  0  0  0  0  0  0  0  0  0  0
   -4.6140   -0.2249   -2.8252 H   0  0  0  0  0  0  0  0  0  0  0  0
   -7.0664    0.0227   -2.7903 H   0  0  0  0  0  0  0  0  0  0  0  0
   -8.2785    0.3522   -0.6464 H   0  0  0  0  0  0  0  0  0  0  0  0
   -7.0213    0.4544    1.4984 H   0  0  0  0  0  0  0  0  0  0  0  0
   -4.4906   -0.3520    2.5393 H   0  0  0  0  0  0  0  0  0  0  0  0
   -4.0737    1.2979    1.9873 H   0  0  0  0  0  0  0  0  0  0  0  0
   -2.0194    0.3910    1.3446 H   0  0  0  0  0  0  0  0  0  0  0  0
   -1.6948   -2.1194    0.9883 H   0  0  0  0  0  0  0  0  0  0  0  0
   -2.4083   -1.7421    2.5652 H   0  0  0  0  0  0  0  0  0  0  0  0
   -3.4214   -2.3587    1.2495 H   0  0  0  0  0  0  0  0  0  0  0  0
    2.0949    3.6856   -1.8697 H   0  0  0  0  0  0  0  0  0  0  0  0
    2.1528    2.5177   -3.2275 H   0  0  0  0  0  0  0  0  0  0  0  0
    3.6251    3.3031   -2.6622 H   0  0  0  0  0  0  0  0  0  0  0  0
    5.0272    1.9442   -1.3838 H   0  0  0  0  0  0  0  0  0  0  0  0
    6.5542    0.5086   -0.0587 H   0  0  0  0  0  0  0  0  0  0  0  0
  1  2  1  0
  2  3  2  0
  3  4  1  0
  4  5  2  0
  5  6  1  0
  6  7  2  0
  7  8  1  0
  8  9  1  0
  9 10  1  0
 10 11  2  0
 10 12  1  0
 12 13  1  0
 13 14  2  0
 14 15  1  0
 15 16  2  0
 16 17  1  0
 17 18  2  0
 18 19  1  0
 19 20  1  0
 20 21  1  0
  7 22  1  0
 22 23  1  0
 22 24  2  0
 24 25  1  0
 25 26  2  0
 26  2  1  0
 25  5  1  0
 20 12  1  0
 18 13  1  0
  1 27  1  0
  1 28  1  0
  1 29  1  0
  3 30  1  0
  4 31  1  0
  9 32  1  0
  9 33  1  0
 14 34  1  0
 15 35  1  0
 16 36  1  0
 17 37  1  0
 19 38  1  0
 19 39  1  0
 20 40  1  0
 21 41  1  0
 21 42  1  0
 21 43  1  0
 23 44  1  0
 23 45  1  0
 23 46  1  0
 24 47  1  0
 26 48  1  0
M  END
$$$$
