
     RDKit          3D

 42 43  0  0  0  0  0  0  0  0999 V2000
    3.7394    0.8994   -0.9562 C   0  0  0  0  0  0  0  0  0  0  0  0
    3.8387    0.6299    0.5313 C   0  0  0  0  0  0  0  0  0  0  0  0
    2.8131    0.3799    1.2922 N   0  0  0  0  0  0  0  0  0  0  0  0
    1.5616    0.3939    0.7623 N   0  0  0  0  0  0  0  0  0  0  0  0
    0.4725    0.0673    1.5616 C   0  0  0  0  0  0  0  0  0  0  0  0
    0.5303   -0.2829    2.7364 O   0  0  0  0  0  0  0  0  0  0  0  0
   -0.8334    0.1968    0.8015 C   0  0  0  0  0  0  0  0  0  0  0  0
   -2.0368   -0.2171    1.6491 C   0  0  0  0  0  0  0  0  0  0  0  0
   -3.3583   -0.0208    0.9072 C   0  0  0  0  0  0  0  0  0  0  0  0
   -3.4178   -0.9115   -0.2477 N   0  0  0  0  0  0  0  0  0  0  0  0
   -4.5557   -0.9048   -1.0659 C   0  0  0  0  0  0  0  0  0  0  0  0
   -5.4536    0.1655   -1.1479 C   0  0  0  0  0  0  0  0  0  0  0  0
   -6.5322    0.1403   -2.0400 C   0  0  0  0  0  0  0  0  0  0  0  0
   -6.7144   -0.9472   -2.8885 C   0  0  0  0  0  0  0  0  0  0  0  0
   -5.8106   -2.0032   -2.8533 C   0  0  0  0  0  0  0  0  0  0  0  0
   -4.7360   -1.9722   -1.9594 C   0  0  0  0  0  0  0  0  0  0  0  0
    5.1915    0.6468    1.1696 C   0  0  0  0  0  0  0  0  0  0  0  0
    6.2446    1.3948    0.6450 C   0  0  0  0  0  0  0  0  0  0  0  0
    7.4611    1.3561    1.3058 C   0  0  0  0  0  0  0  0  0  0  0  0
    7.6849    0.6418    2.4283 N   0  0  0  0  0  0  0  0  0  0  0  0
    6.6429   -0.0574    2.9263 C   0  0  0  0  0  0  0  0  0  0  0  0
    5.3903   -0.0854    2.3420 C   0  0  0  0  0  0  0  0  0  0  0  0
    4.7060    0.8210   -1.4581 H   0  0  0  0  0  0  0  0  0  0  0  0
    3.3303    1.9009   -1.1158 H   0  0  0  0  0  0  0  0  0  0  0  0
    3.0838    0.1596   -1.4257 H   0  0  0  0  0  0  0  0  0  0  0  0
    1.4151    0.6928   -0.1934 H   0  0  0  0  0  0  0  0  0  0  0  0
   -0.9409    1.2414    0.4859 H   0  0  0  0  0  0  0  0  0  0  0  0
   -0.7669   -0.4290   -0.0960 H   0  0  0  0  0  0  0  0  0  0  0  0
   -2.0593    0.3807    2.5689 H   0  0  0  0  0  0  0  0  0  0  0  0
   -1.9296   -1.2648    1.9575 H   0  0  0  0  0  0  0  0  0  0  0  0
   -4.1872   -0.2413    1.5903 H   0  0  0  0  0  0  0  0  0  0  0  0
   -3.4336    1.0278    0.5980 H   0  0  0  0  0  0  0  0  0  0  0  0
   -3.1569   -1.8682   -0.0137 H   0  0  0  0  0  0  0  0  0  0  0  0
   -5.3392    1.0435   -0.5207 H   0  0  0  0  0  0  0  0  0  0  0  0
   -7.2238    0.9780   -2.0747 H   0  0  0  0  0  0  0  0  0  0  0  0
   -7.5497   -0.9650   -3.5830 H   0  0  0  0  0  0  0  0  0  0  0  0
   -5.9325   -2.8484   -3.5250 H   0  0  0  0  0  0  0  0  0  0  0  0
   -4.0301   -2.7991   -1.9669 H   0  0  0  0  0  0  0  0  0  0  0  0
    6.1403    2.0141   -0.2369 H   0  0  0  0  0  0  0  0  0  0  0  0
    8.3149    1.9213    0.9420 H   0  0  0  0  0  0  0  0  0  0  0  0
    6.8470   -0.6117    3.8382 H   0  0  0  0  0  0  0  0  0  0  0  0
    4.5901   -0.6639    2.7939 H   0  0  0  0  0  0  0  0  0  0  0  0
  1  2  1  0
  2  3  2  3
  3  4  1  0
  4  5  1  0
  5  6  2  0
  5  7  1  0
  7  8  1  0
  8  9  1  0
  9 10  1  0
 10 11  1  0
 11 12  2  0
 12 13  1  0
 13 14  2  0
 14 15  1  0
 15 16  2  0
  2 17  1  0
 17 18  2  0
 18 19  1  0
 19 20  2  0
 20 21  1  0
 21 22  2  0
 16 11  1  0
 22 17  1  0
  1 23  1  0
  1 24  1  0
  1 25  1  0
  4 26  1  0
  7 27  1  0
  7 28  1  0
  8 29  1  0
  8 30  1  0
  9 31  1  0
  9 32  1  0
 10 33  1  0
 12 34  1  0
 13 35  1  0
 14 36  1  0
 15 37  1  0
 16 38  1  0
 18 39  1  0
 19 40  1  0
 21 41  1  0
 22 42  1  0
M  END
$$$$
