
     RDKit          3D

 40 41  0  0  0  0  0  0  0  0999 V2000
    0.0229    1.9699   -3.2164 C   0  0  0  0  0  0  0  0  0  0  0  0
   -0.5145    0.5526   -3.0712 C   0  0  0  0  0  0  0  0  0  0  0  0
   -0.8420    0.1871   -1.6378 C   0  0  0  0  0  0  0  0  0  0  0  0
   -2.1169    0.4294   -1.1237 C   0  0  0  0  0  0  0  0  0  0  0  0
   -3.2201    1.0450   -1.9377 C   0  0  0  0  0  0  0  0  0  0  0  0
   -2.4698    0.1124    0.1419 N   0  0  0  0  0  0  0  0  0  0  0  0
   -1.6000   -0.4876    0.9771 C   0  0  0  0  0  0  0  0  0  0  0  0
   -2.0120   -0.8340    2.2817 C   0  0  0  0  0  0  0  0  0  0  0  0
   -3.3115   -0.4986    2.6040 O   0  0  0  0  0  0  0  0  0  0  0  0
   -3.8070   -0.8893    3.8754 C   0  0  0  0  0  0  0  0  0  0  0  0
   -1.1416   -1.4716    3.1727 C   0  0  0  0  0  0  0  0  0  0  0  0
    0.1489   -1.7813    2.7744 C   0  0  0  0  0  0  0  0  0  0  0  0
    0.5696   -1.4442    1.4918 C   0  0  0  0  0  0  0  0  0  0  0  0
   -0.2836   -0.7811    0.5691 C   0  0  0  0  0  0  0  0  0  0  0  0
    0.0954   -0.3967   -0.7556 C   0  0  0  0  0  0  0  0  0  0  0  0
    1.7970   -0.6731   -1.3285 S   0  0  0  0  0  0  0  0  0  0  0  0
    2.6285    0.6892   -0.4309 C   0  0  0  0  0  0  0  0  0  0  0  0
    4.0981    0.7911   -0.8135 C   0  0  0  0  0  0  0  0  0  0  0  0
    4.9266   -0.3716   -0.3465 C   0  0  0  0  0  0  0  0  0  0  0  0
    5.7956   -0.9341   -0.9925 O   0  0  0  0  0  0  0  0  0  0  0  0
    4.7010   -0.7208    0.9336 O   0  0  0  0  0  0  0  0  0  0  0  0
   -0.6814    2.7107   -2.8252 H   0  0  0  0  0  0  0  0  0  0  0  0
    0.1991    2.1974   -4.2727 H   0  0  0  0  0  0  0  0  0  0  0  0
    0.9698    2.1004   -2.6861 H   0  0  0  0  0  0  0  0  0  0  0  0
    0.1938   -0.1615   -3.5050 H   0  0  0  0  0  0  0  0  0  0  0  0
   -1.4059    0.4437   -3.6999 H   0  0  0  0  0  0  0  0  0  0  0  0
   -4.1088    1.2157   -1.3201 H   0  0  0  0  0  0  0  0  0  0  0  0
   -2.9141    2.0134   -2.3427 H   0  0  0  0  0  0  0  0  0  0  0  0
   -3.5098    0.3773   -2.7547 H   0  0  0  0  0  0  0  0  0  0  0  0
   -4.8533   -0.5750    3.9376 H   0  0  0  0  0  0  0  0  0  0  0  0
   -3.7801   -1.9774    3.9945 H   0  0  0  0  0  0  0  0  0  0  0  0
   -3.2621   -0.3877    4.6818 H   0  0  0  0  0  0  0  0  0  0  0  0
   -1.4433   -1.7415    4.1786 H   0  0  0  0  0  0  0  0  0  0  0  0
    0.8281   -2.2861    3.4566 H   0  0  0  0  0  0  0  0  0  0  0  0
    1.5853   -1.7178    1.2144 H   0  0  0  0  0  0  0  0  0  0  0  0
    2.1288    1.6285   -0.6879 H   0  0  0  0  0  0  0  0  0  0  0  0
    2.5154    0.5440    0.6474 H   0  0  0  0  0  0  0  0  0  0  0  0
    4.5328    1.6945   -0.3703 H   0  0  0  0  0  0  0  0  0  0  0  0
    4.2061    0.8820   -1.9008 H   0  0  0  0  0  0  0  0  0  0  0  0
    5.3352   -1.4535    1.0873 H   0  0  0  0  0  0  0  0  0  0  0  0
  1  2  1  0
  2  3  1  0
  3  4  2  0
  4  5  1  0
  4  6  1  0
  6  7  2  0
  7  8  1  0
  8  9  1  0
  9 10  1  0
  8 11  2  0
 11 12  1  0
 12 13  2  0
 13 14  1  0
 14 15  2  0
 15 16  1  0
 16 17  1  0
 17 18  1  0
 18 19  1  0
 19 20  2  0
 19 21  1  0
 15  3  1  0
 14  7  1  0
  1 22  1  0
  1 23  1  0
  1 24  1  0
  2 25  1  0
  2 26  1  0
  5 27  1  0
  5 28  1  0
  5 29  1  0
 10 30  1  0
 10 31  1  0
 10 32  1  0
 11 33  1  0
 12 34  1  0
 13 35  1  0
 17 36  1  0
 17 37  1  0
 18 38  1  0
 18 39  1  0
 21 40  1  0
M  END
$$$$
