
     RDKit          3D

 52 55  0  0  0  0  0  0  0  0999 V2000
    4.6302    2.6604   -0.9990 C   0  0  0  0  0  0  0  0  0  0  0  0
    4.1130    1.5263   -0.3175 O   0  0  0  0  0  0  0  0  0  0  0  0
    4.9422    0.4422   -0.1607 C   0  0  0  0  0  0  0  0  0  0  0  0
    6.3031    0.4506   -0.4977 C   0  0  0  0  0  0  0  0  0  0  0  0
    7.0932   -0.6859   -0.3079 C   0  0  0  0  0  0  0  0  0  0  0  0
    6.5342   -1.8427    0.2220 C   0  0  0  0  0  0  0  0  0  0  0  0
    5.1834   -1.8621    0.5640 C   0  0  0  0  0  0  0  0  0  0  0  0
    4.3669   -0.7321    0.3835 C   0  0  0  0  0  0  0  0  0  0  0  0
    3.0123   -0.8785    0.7666 N   0  0  0  0  0  0  0  0  0  0  0  0
    2.0813   -0.7849   -0.3743 C   0  0  0  0  0  0  0  0  0  0  0  0
    0.6306   -1.0504    0.1048 C   0  0  0  0  0  0  0  0  0  0  0  0
    0.1583   -0.2286    1.2591 N   0  0  0  0  0  0  0  0  0  0  0  0
   -0.0475    1.1910    0.8603 C   0  0  0  0  0  0  0  0  0  0  0  0
   -1.3514    1.3631    0.0625 C   0  0  0  0  0  0  0  0  0  0  0  0
   -1.4925    2.2938   -0.7243 O   0  0  0  0  0  0  0  0  0  0  0  0
   -2.2959    0.4080    0.3951 N   0  0  0  0  0  0  0  0  0  0  0  0
   -3.5990    0.2538   -0.1014 C   0  0  0  0  0  0  0  0  0  0  0  0
   -4.3390   -0.8360    0.3718 C   0  0  0  0  0  0  0  0  0  0  0  0
   -5.6473   -1.0668   -0.0717 C   0  0  0  0  0  0  0  0  0  0  0  0
   -6.2305   -0.1996   -1.0030 C   0  0  0  0  0  0  0  0  0  0  0  0
   -7.5499   -0.4082   -1.4709 N   0  0  0  0  0  0  0  0  0  0  0  0
   -8.4496   -1.3905   -1.1391 C   0  0  0  0  0  0  0  0  0  0  0  0
   -9.5636   -1.2075   -1.8099 N   0  0  0  0  0  0  0  0  0  0  0  0
   -9.3544   -0.0933   -2.5781 N   0  0  0  0  0  0  0  0  0  0  0  0
   -8.1403    0.4009   -2.3811 N   0  0  0  0  0  0  0  0  0  0  0  0
   -5.4927    0.8928   -1.4781 C   0  0  0  0  0  0  0  0  0  0  0  0
   -4.1858    1.1156   -1.0268 C   0  0  0  0  0  0  0  0  0  0  0  0
    1.1849   -0.3184    2.3327 C   0  0  0  0  0  0  0  0  0  0  0  0
    2.6377   -0.0067    1.8962 C   0  0  0  0  0  0  0  0  0  0  0  0
    5.4326    3.1321   -0.4233 H   0  0  0  0  0  0  0  0  0  0  0  0
    4.9642    2.3993   -2.0081 H   0  0  0  0  0  0  0  0  0  0  0  0
    3.8199    3.3891   -1.0965 H   0  0  0  0  0  0  0  0  0  0  0  0
    6.7849    1.3313   -0.9080 H   0  0  0  0  0  0  0  0  0  0  0  0
    8.1472   -0.6644   -0.5730 H   0  0  0  0  0  0  0  0  0  0  0  0
    7.1448   -2.7287    0.3716 H   0  0  0  0  0  0  0  0  0  0  0  0
    4.7499   -2.7688    0.9790 H   0  0  0  0  0  0  0  0  0  0  0  0
    2.1263    0.1934   -0.8638 H   0  0  0  0  0  0  0  0  0  0  0  0
    2.3395   -1.5414   -1.1259 H   0  0  0  0  0  0  0  0  0  0  0  0
    0.5573   -2.1033    0.4087 H   0  0  0  0  0  0  0  0  0  0  0  0
   -0.0542   -0.9444   -0.7449 H   0  0  0  0  0  0  0  0  0  0  0  0
   -0.1669    1.8169    1.7533 H   0  0  0  0  0  0  0  0  0  0  0  0
    0.7843    1.5909    0.2722 H   0  0  0  0  0  0  0  0  0  0  0  0
   -1.9403   -0.2930    1.0428 H   0  0  0  0  0  0  0  0  0  0  0  0
   -3.9043   -1.5227    1.0952 H   0  0  0  0  0  0  0  0  0  0  0  0
   -6.1702   -1.9293    0.3303 H   0  0  0  0  0  0  0  0  0  0  0  0
   -8.2595   -2.1819   -0.4330 H   0  0  0  0  0  0  0  0  0  0  0  0
   -5.9124    1.5904   -2.2021 H   0  0  0  0  0  0  0  0  0  0  0  0
   -3.6528    1.9757   -1.4207 H   0  0  0  0  0  0  0  0  0  0  0  0
    0.9054    0.3331    3.1698 H   0  0  0  0  0  0  0  0  0  0  0  0
    1.1532   -1.3404    2.7332 H   0  0  0  0  0  0  0  0  0  0  0  0
    2.7165    1.0557    1.6420 H   0  0  0  0  0  0  0  0  0  0  0  0
    3.3026   -0.1959    2.7483 H   0  0  0  0  0  0  0  0  0  0  0  0
  1  2  1  0
  2  3  1  0
  3  4  2  0
  4  5  1  0
  5  6  2  0
  6  7  1  0
  7  8  2  0
  8  9  1  0
  9 10  1  0
 10 11  1  0
 11 12  1  0
 12 13  1  0
 13 14  1  0
 14 15  2  0
 14 16  1  0
 16 17  1  0
 17 18  2  0
 18 19  1  0
 19 20  2  0
 20 21  1  0
 21 22  1  0
 22 23  2  0
 23 24  1  0
 24 25  2  0
 20 26  1  0
 26 27  2  0
 12 28  1  0
 28 29  1  0
  8  3  1  0
 29  9  1  0
 27 17  1  0
 25 21  1  0
  1 30  1  0
  1 31  1  0
  1 32  1  0
  4 33  1  0
  5 34  1  0
  6 35  1  0
  7 36  1  0
 10 37  1  0
 10 38  1  0
 11 39  1  0
 11 40  1  0
 13 41  1  0
 13 42  1  0
 16 43  1  0
 18 44  1  0
 19 45  1  0
 22 46  1  0
 26 47  1  0
 27 48  1  0
 28 49  1  0
 28 50  1  0
 29 51  1  0
 29 52  1  0
M  END
$$$$
