
     RDKit          3D

 44 46  0  0  0  0  0  0  0  0999 V2000
    4.4680    1.9399   -1.4811 C   0  0  0  0  0  0  0  0  0  0  0  0
    3.8947    0.8540   -0.7587 O   0  0  0  0  0  0  0  0  0  0  0  0
    4.7465   -0.0628   -0.1911 C   0  0  0  0  0  0  0  0  0  0  0  0
    6.1436    0.0127   -0.3147 C   0  0  0  0  0  0  0  0  0  0  0  0
    6.9714   -0.9430    0.2795 C   0  0  0  0  0  0  0  0  0  0  0  0
    6.4177   -1.9885    1.0056 C   0  0  0  0  0  0  0  0  0  0  0  0
    5.0329   -2.0785    1.1372 C   0  0  0  0  0  0  0  0  0  0  0  0
    4.1781   -1.1261    0.5462 C   0  0  0  0  0  0  0  0  0  0  0  0
    2.6999   -1.3405    0.7656 C   0  0  0  0  0  0  0  0  0  0  0  0
    2.3438   -2.3052    1.4369 O   0  0  0  0  0  0  0  0  0  0  0  0
    1.8472   -0.4230    0.1843 N   0  0  0  0  0  0  0  0  0  0  0  0
    0.4406   -0.3854    0.2315 C   0  0  0  0  0  0  0  0  0  0  0  0
   -0.1926    0.6579   -0.4540 C   0  0  0  0  0  0  0  0  0  0  0  0
   -1.5893    0.7739   -0.4629 C   0  0  0  0  0  0  0  0  0  0  0  0
   -2.3793   -0.1571    0.2172 C   0  0  0  0  0  0  0  0  0  0  0  0
   -3.8797   -0.0847    0.2396 C   0  0  0  0  0  0  0  0  0  0  0  0
   -4.5305   -0.8141    1.1000 N   0  0  0  0  0  0  0  0  0  0  0  0
   -5.8906   -0.7729    1.0921 N   0  0  0  0  0  0  0  0  0  0  0  0
   -6.6753   -0.2893    0.0771 C   0  0  0  0  0  0  0  0  0  0  0  0
   -7.9018   -0.3329    0.1212 O   0  0  0  0  0  0  0  0  0  0  0  0
   -5.9274    0.2264   -1.1200 C   0  0  0  0  0  0  0  0  0  0  0  0
   -4.6040    0.8591   -0.7129 C   0  0  0  0  0  0  0  0  0  0  0  0
   -4.8102    2.2201   -0.0450 C   0  0  0  0  0  0  0  0  0  0  0  0
   -1.7438   -1.1972    0.9074 C   0  0  0  0  0  0  0  0  0  0  0  0
   -0.3471   -1.3109    0.9128 C   0  0  0  0  0  0  0  0  0  0  0  0
    5.0245    1.5826   -2.3536 H   0  0  0  0  0  0  0  0  0  0  0  0
    5.0948    2.5593   -0.8314 H   0  0  0  0  0  0  0  0  0  0  0  0
    3.6472    2.5655   -1.8447 H   0  0  0  0  0  0  0  0  0  0  0  0
    6.6296    0.8078   -0.8715 H   0  0  0  0  0  0  0  0  0  0  0  0
    8.0513   -0.8686    0.1735 H   0  0  0  0  0  0  0  0  0  0  0  0
    7.0574   -2.7348    1.4702 H   0  0  0  0  0  0  0  0  0  0  0  0
    4.6173   -2.9064    1.7107 H   0  0  0  0  0  0  0  0  0  0  0  0
    2.2991    0.3168   -0.3433 H   0  0  0  0  0  0  0  0  0  0  0  0
    0.3940    1.3997   -0.9909 H   0  0  0  0  0  0  0  0  0  0  0  0
   -2.0227    1.6105   -1.0006 H   0  0  0  0  0  0  0  0  0  0  0  0
   -6.3629   -1.2299    1.8660 H   0  0  0  0  0  0  0  0  0  0  0  0
   -6.5554    0.9489   -1.6524 H   0  0  0  0  0  0  0  0  0  0  0  0
   -5.7527   -0.6277   -1.7855 H   0  0  0  0  0  0  0  0  0  0  0  0
   -4.0177    0.9979   -1.6270 H   0  0  0  0  0  0  0  0  0  0  0  0
   -3.8530    2.6772    0.2256 H   0  0  0  0  0  0  0  0  0  0  0  0
   -5.3306    2.9077   -0.7198 H   0  0  0  0  0  0  0  0  0  0  0  0
   -5.3976    2.1389    0.8759 H   0  0  0  0  0  0  0  0  0  0  0  0
   -2.3260   -1.9394    1.4507 H   0  0  0  0  0  0  0  0  0  0  0  0
    0.0905   -2.1379    1.4635 H   0  0  0  0  0  0  0  0  0  0  0  0
  1  2  1  0
  2  3  1  0
  3  4  2  0
  4  5  1  0
  5  6  2  0
  6  7  1  0
  7  8  2  0
  8  9  1  0
  9 10  2  0
  9 11  1  0
 11 12  1  0
 12 13  2  0
 13 14  1  0
 14 15  2  0
 15 16  1  0
 16 17  2  0
 17 18  1  0
 18 19  1  0
 19 20  2  0
 19 21  1  0
 21 22  1  0
 22 23  1  0
 15 24  1  0
 24 25  2  0
  8  3  1  0
 25 12  1  0
 22 16  1  0
  1 26  1  0
  1 27  1  0
  1 28  1  0
  4 29  1  0
  5 30  1  0
  6 31  1  0
  7 32  1  0
 11 33  1  0
 13 34  1  0
 14 35  1  0
 18 36  1  0
 21 37  1  0
 21 38  1  0
 22 39  1  0
 23 40  1  0
 23 41  1  0
 23 42  1  0
 24 43  1  0
 25 44  1  0
M  END
$$$$
