
     RDKit          3D

 31 31  0  0  0  0  0  0  0  0999 V2000
    5.1167   -1.0101   -1.1025 N   0  0  0  0  0  0  0  0  0  0  0  0
    4.1153   -0.9257   -0.1861 C   0  0  0  0  0  0  0  0  0  0  0  0
    4.4074   -0.2653    1.3143 S   0  0  0  0  0  0  0  0  0  0  0  0
    2.9230   -1.4409   -0.6330 N   0  0  0  0  0  0  0  0  0  0  0  0
    1.7447   -1.2257    0.1099 N   0  0  0  0  0  0  0  0  0  0  0  0
    0.6010   -0.9256   -0.6072 C   0  0  0  0  0  0  0  0  0  0  0  0
    0.5451   -1.0689   -1.8285 O   0  0  0  0  0  0  0  0  0  0  0  0
   -0.5986   -0.5156    0.2487 C   0  0  0  0  0  0  0  0  0  0  0  0
   -0.2577    0.5839    1.2723 C   0  0  0  0  0  0  0  0  0  0  0  0
   -1.4666    1.4009    1.7310 C   0  0  0  0  0  0  0  0  0  0  0  0
   -2.7536    0.5954    1.6496 C   0  0  0  0  0  0  0  0  0  0  0  0
   -3.0639    0.1639    0.2147 C   0  0  0  0  0  0  0  0  0  0  0  0
   -1.8178   -0.1632   -0.6261 C   0  0  0  0  0  0  0  0  0  0  0  0
   -1.5207    0.9789   -1.5821 C   0  0  0  0  0  0  0  0  0  0  0  0
   -0.6834    1.8551   -1.4482 O   0  0  0  0  0  0  0  0  0  0  0  0
   -2.3350    0.9711   -2.6564 O   0  0  0  0  0  0  0  0  0  0  0  0
    5.0688   -1.7049   -1.8356 H   0  0  0  0  0  0  0  0  0  0  0  0
    6.0468   -0.7577   -0.7881 H   0  0  0  0  0  0  0  0  0  0  0  0
    2.7655   -1.4747   -1.6413 H   0  0  0  0  0  0  0  0  0  0  0  0
    1.8839   -0.8754    1.0556 H   0  0  0  0  0  0  0  0  0  0  0  0
   -0.8679   -1.4203    0.8146 H   0  0  0  0  0  0  0  0  0  0  0  0
    0.5113    1.2651    0.8876 H   0  0  0  0  0  0  0  0  0  0  0  0
    0.1892    0.1058    2.1541 H   0  0  0  0  0  0  0  0  0  0  0  0
   -1.5618    2.3017    1.1130 H   0  0  0  0  0  0  0  0  0  0  0  0
   -1.3035    1.7487    2.7576 H   0  0  0  0  0  0  0  0  0  0  0  0
   -2.6667   -0.2927    2.2881 H   0  0  0  0  0  0  0  0  0  0  0  0
   -3.5919    1.1808    2.0442 H   0  0  0  0  0  0  0  0  0  0  0  0
   -3.6601    0.9473   -0.2700 H   0  0  0  0  0  0  0  0  0  0  0  0
   -3.7115   -0.7208    0.2597 H   0  0  0  0  0  0  0  0  0  0  0  0
   -2.0439   -1.0322   -1.2605 H   0  0  0  0  0  0  0  0  0  0  0  0
   -2.0143    1.7212   -3.1995 H   0  0  0  0  0  0  0  0  0  0  0  0
  1  2  1  0
  2  3  2  0
  2  4  1  0
  4  5  1  0
  5  6  1  0
  6  7  2  0
  6  8  1  0
  8  9  1  0
  9 10  1  0
 10 11  1  0
 11 12  1  0
 12 13  1  0
 13 14  1  0
 14 15  2  0
 14 16  1  0
 13  8  1  0
  1 17  1  0
  1 18  1  0
  4 19  1  0
  5 20  1  0
  8 21  1  0
  9 22  1  0
  9 23  1  0
 10 24  1  0
 10 25  1  0
 11 26  1  0
 11 27  1  0
 12 28  1  0
 12 29  1  0
 13 30  1  0
 16 31  1  0
M  END
$$$$
