
     RDKit          3D

 47 49  0  0  0  0  0  0  0  0999 V2000
    7.1597    1.1758    0.9350 C   0  0  0  0  0  0  0  0  0  0  0  0
    6.1981    0.2276    0.2272 C   0  0  0  0  0  0  0  0  0  0  0  0
    6.2772    0.4044   -1.2873 C   0  0  0  0  0  0  0  0  0  0  0  0
    4.8425    0.4489    0.6969 N   0  0  0  0  0  0  0  0  0  0  0  0
    3.8699   -0.5255    0.6296 C   0  0  0  0  0  0  0  0  0  0  0  0
    4.0356   -1.6917    0.3042 O   0  0  0  0  0  0  0  0  0  0  0  0
    2.4631   -0.0181    1.0006 C   0  0  0  0  0  0  0  0  0  0  0  0
    2.2645    1.1707    1.2243 O   0  0  0  0  0  0  0  0  0  0  0  0
    1.5069   -1.0105    1.0321 N   0  0  0  0  0  0  0  0  0  0  0  0
    0.1566   -0.6262    1.0753 N   0  0  0  0  0  0  0  0  0  0  0  0
   -0.7166   -1.2845    0.2291 C   0  0  0  0  0  0  0  0  0  0  0  0
   -0.3729   -2.2851   -0.3996 O   0  0  0  0  0  0  0  0  0  0  0  0
   -2.1223   -0.6728    0.1366 C   0  0  0  0  0  0  0  0  0  0  0  0
   -3.0187   -1.5469   -0.7785 C   0  0  0  0  0  0  0  0  0  0  0  0
   -4.4322   -0.9525   -0.8882 C   0  0  0  0  0  0  0  0  0  0  0  0
   -4.3385    0.4634   -1.4785 C   0  0  0  0  0  0  0  0  0  0  0  0
   -3.4725    1.3538   -0.5733 C   0  0  0  0  0  0  0  0  0  0  0  0
   -4.1028    1.4161    0.8286 C   0  0  0  0  0  0  0  0  0  0  0  0
   -4.1973    0.0031    1.4294 C   0  0  0  0  0  0  0  0  0  0  0  0
   -5.0590   -0.8802    0.5132 C   0  0  0  0  0  0  0  0  0  0  0  0
   -2.7842   -0.5974    1.5337 C   0  0  0  0  0  0  0  0  0  0  0  0
   -2.0602    0.7516   -0.4662 C   0  0  0  0  0  0  0  0  0  0  0  0
    6.9121    2.2228    0.7270 H   0  0  0  0  0  0  0  0  0  0  0  0
    8.1916    0.9984    0.6148 H   0  0  0  0  0  0  0  0  0  0  0  0
    7.1126    1.0357    2.0205 H   0  0  0  0  0  0  0  0  0  0  0  0
    6.4760   -0.8049    0.4708 H   0  0  0  0  0  0  0  0  0  0  0  0
    7.2955    0.2275   -1.6486 H   0  0  0  0  0  0  0  0  0  0  0  0
    5.6110   -0.2977   -1.8001 H   0  0  0  0  0  0  0  0  0  0  0  0
    5.9794    1.4163   -1.5839 H   0  0  0  0  0  0  0  0  0  0  0  0
    4.5108    1.3968    0.8590 H   0  0  0  0  0  0  0  0  0  0  0  0
    1.7190   -1.9141    0.5991 H   0  0  0  0  0  0  0  0  0  0  0  0
   -0.0191    0.3280    1.3844 H   0  0  0  0  0  0  0  0  0  0  0  0
   -2.5757   -1.6277   -1.7801 H   0  0  0  0  0  0  0  0  0  0  0  0
   -3.0788   -2.5703   -0.3850 H   0  0  0  0  0  0  0  0  0  0  0  0
   -5.0496   -1.5835   -1.5372 H   0  0  0  0  0  0  0  0  0  0  0  0
   -5.3422    0.8946   -1.5788 H   0  0  0  0  0  0  0  0  0  0  0  0
   -3.9076    0.4220   -2.4864 H   0  0  0  0  0  0  0  0  0  0  0  0
   -3.4122    2.3627   -0.9966 H   0  0  0  0  0  0  0  0  0  0  0  0
   -5.1021    1.8649    0.7697 H   0  0  0  0  0  0  0  0  0  0  0  0
   -3.5021    2.0615    1.4812 H   0  0  0  0  0  0  0  0  0  0  0  0
   -4.6507    0.0547    2.4256 H   0  0  0  0  0  0  0  0  0  0  0  0
   -6.0755   -0.4731    0.4483 H   0  0  0  0  0  0  0  0  0  0  0  0
   -5.1461   -1.8879    0.9378 H   0  0  0  0  0  0  0  0  0  0  0  0
   -2.1840    0.0148    2.2186 H   0  0  0  0  0  0  0  0  0  0  0  0
   -2.8342   -1.5984    1.9819 H   0  0  0  0  0  0  0  0  0  0  0  0
   -1.4355    1.4120    0.1476 H   0  0  0  0  0  0  0  0  0  0  0  0
   -1.5894    0.7210   -1.4576 H   0  0  0  0  0  0  0  0  0  0  0  0
  1  2  1  0
  2  3  1  0
  2  4  1  0
  4  5  1  0
  5  6  2  0
  5  7  1  0
  7  8  2  0
  7  9  1  0
  9 10  1  0
 10 11  1  0
 11 12  2  0
 11 13  1  0
 13 14  1  0
 14 15  1  0
 15 16  1  0
 16 17  1  0
 17 18  1  0
 18 19  1  0
 19 20  1  0
 19 21  1  0
 17 22  1  0
 21 13  1  0
 22 13  1  0
 20 15  1  0
  1 23  1  0
  1 24  1  0
  1 25  1  0
  2 26  1  0
  3 27  1  0
  3 28  1  0
  3 29  1  0
  4 30  1  0
  9 31  1  0
 10 32  1  0
 14 33  1  0
 14 34  1  0
 15 35  1  0
 16 36  1  0
 16 37  1  0
 17 38  1  0
 18 39  1  0
 18 40  1  0
 19 41  1  0
 20 42  1  0
 20 43  1  0
 21 44  1  0
 21 45  1  0
 22 46  1  0
 22 47  1  0
M  END
$$$$
