
     RDKit          3D

 36 37  0  0  0  0  0  0  0  0999 V2000
   -2.2891    2.6334    1.1507 C   0  0  0  0  0  0  0  0  0  0  0  0
   -2.5545    1.4418    0.3669 N   0  0  0  0  0  0  0  0  0  0  0  0
   -3.6987    1.4154   -0.4163 C   0  0  0  0  0  0  0  0  0  0  0  0
   -4.5123    2.3361   -0.4673 O   0  0  0  0  0  0  0  0  0  0  0  0
   -3.9203    0.1896   -1.2115 C   0  0  0  0  0  0  0  0  0  0  0  0
   -5.0268    0.1027   -2.0944 C   0  0  0  0  0  0  0  0  0  0  0  0
   -5.9076   -0.0377   -2.8374 N   0  0  0  0  0  0  0  0  0  0  0  0
   -3.0582   -0.8218   -1.0752 C   0  0  0  0  0  0  0  0  0  0  0  0
   -1.9799   -0.7689   -0.2186 N   0  0  0  0  0  0  0  0  0  0  0  0
   -1.0477   -1.9106   -0.1764 C   0  0  0  0  0  0  0  0  0  0  0  0
   -0.0778   -1.9448   -1.3783 C   0  0  0  0  0  0  0  0  0  0  0  0
    0.6734   -0.7008   -1.5326 N   0  0  0  0  0  0  0  0  0  0  0  0
    1.7573   -0.5118   -0.6566 C   0  0  0  0  0  0  0  0  0  0  0  0
    2.0451   -1.4724    0.2525 N   0  0  0  0  0  0  0  0  0  0  0  0
    3.0504   -1.2455    1.1319 C   0  0  0  0  0  0  0  0  0  0  0  0
    3.8266   -0.0979    1.1486 C   0  0  0  0  0  0  0  0  0  0  0  0
    4.9015    0.0711    2.1749 C   0  0  0  0  0  0  0  0  0  0  0  0
    4.4333    0.5951    3.3391 F   0  0  0  0  0  0  0  0  0  0  0  0
    5.5066   -1.1025    2.5077 F   0  0  0  0  0  0  0  0  0  0  0  0
    5.9018    0.8996    1.7656 F   0  0  0  0  0  0  0  0  0  0  0  0
    3.5337    0.8873    0.2038 C   0  0  0  0  0  0  0  0  0  0  0  0
    2.4950    0.6824   -0.7042 C   0  0  0  0  0  0  0  0  0  0  0  0
    2.1567    1.9176   -1.8642 Cl  0  0  0  0  0  0  0  0  0  0  0  0
   -1.6919    0.3592    0.5541 C   0  0  0  0  0  0  0  0  0  0  0  0
   -0.7671    0.3993    1.3659 O   0  0  0  0  0  0  0  0  0  0  0  0
   -2.8065    3.5084    0.7479 H   0  0  0  0  0  0  0  0  0  0  0  0
   -2.6319    2.4557    2.1751 H   0  0  0  0  0  0  0  0  0  0  0  0
   -1.2144    2.8407    1.1715 H   0  0  0  0  0  0  0  0  0  0  0  0
   -3.1814   -1.7419   -1.6425 H   0  0  0  0  0  0  0  0  0  0  0  0
   -0.4902   -1.8898    0.7654 H   0  0  0  0  0  0  0  0  0  0  0  0
   -1.6402   -2.8340   -0.1615 H   0  0  0  0  0  0  0  0  0  0  0  0
   -0.6683   -2.0798   -2.2927 H   0  0  0  0  0  0  0  0  0  0  0  0
    0.5841   -2.8175   -1.3187 H   0  0  0  0  0  0  0  0  0  0  0  0
    0.9822   -0.5213   -2.4846 H   0  0  0  0  0  0  0  0  0  0  0  0
    3.2123   -2.0494    1.8480 H   0  0  0  0  0  0  0  0  0  0  0  0
    4.1051    1.8127    0.1801 H   0  0  0  0  0  0  0  0  0  0  0  0
  1  2  1  0
  2  3  1  0
  3  4  2  0
  3  5  1  0
  5  6  1  0
  6  7  3  0
  5  8  2  0
  8  9  1  0
  9 10  1  0
 10 11  1  0
 11 12  1  0
 12 13  1  0
 13 14  2  0
 14 15  1  0
 15 16  2  0
 16 17  1  0
 17 18  1  0
 17 19  1  0
 17 20  1  0
 16 21  1  0
 21 22  2  0
 22 23  1  0
  9 24  1  0
 24 25  2  0
 24  2  1  0
 22 13  1  0
  1 26  1  0
  1 27  1  0
  1 28  1  0
  8 29  1  0
 10 30  1  0
 10 31  1  0
 11 32  1  0
 11 33  1  0
 12 34  1  0
 15 35  1  0
 21 36  1  0
M  END
$$$$
