
     RDKit          3D

 30 31  0  0  0  0  0  0  0  0999 V2000
   -0.1302    1.0920   -2.5022 C   0  0  0  0  0  0  0  0  0  0  0  0
    0.2653    0.5859   -1.2304 O   0  0  0  0  0  0  0  0  0  0  0  0
   -0.7019    0.4043   -0.2731 C   0  0  0  0  0  0  0  0  0  0  0  0
   -2.0676    0.6338   -0.5117 C   0  0  0  0  0  0  0  0  0  0  0  0
   -3.0217    0.4309    0.4924 C   0  0  0  0  0  0  0  0  0  0  0  0
   -4.7507    0.7350    0.1844 S   0  0  0  0  0  0  0  0  0  0  0  0
   -5.1058   -0.6792   -0.8918 C   0  0  0  0  0  0  0  0  0  0  0  0
   -2.6127    0.0108    1.7542 C   0  0  0  0  0  0  0  0  0  0  0  0
   -1.2602   -0.2256    2.0046 C   0  0  0  0  0  0  0  0  0  0  0  0
   -0.2879   -0.0378    1.0030 C   0  0  0  0  0  0  0  0  0  0  0  0
    1.1395   -0.3313    1.3999 C   0  0  0  0  0  0  0  0  0  0  0  0
    1.3463   -0.7457    2.5367 O   0  0  0  0  0  0  0  0  0  0  0  0
    2.0958   -0.1061    0.4415 N   0  0  0  0  0  0  0  0  0  0  0  0
    3.4498   -0.2861    0.5396 C   0  0  0  0  0  0  0  0  0  0  0  0
    4.2403   -0.0280   -0.4786 N   0  0  0  0  0  0  0  0  0  0  0  0
    5.5497   -0.2884   -0.1239 C   0  0  0  0  0  0  0  0  0  0  0  0
    5.7357   -0.7423    1.1632 C   0  0  0  0  0  0  0  0  0  0  0  0
    4.2197   -0.8455    1.9534 S   0  0  0  0  0  0  0  0  0  0  0  0
   -0.5855    2.0832   -2.4084 H   0  0  0  0  0  0  0  0  0  0  0  0
    0.7718    1.1968   -3.1126 H   0  0  0  0  0  0  0  0  0  0  0  0
   -0.7980    0.3912   -3.0133 H   0  0  0  0  0  0  0  0  0  0  0  0
   -2.4183    0.9805   -1.4788 H   0  0  0  0  0  0  0  0  0  0  0  0
   -4.8712   -1.6172   -0.3811 H   0  0  0  0  0  0  0  0  0  0  0  0
   -6.1691   -0.6779   -1.1460 H   0  0  0  0  0  0  0  0  0  0  0  0
   -4.5283   -0.6158   -1.8180 H   0  0  0  0  0  0  0  0  0  0  0  0
   -3.3360   -0.1390    2.5528 H   0  0  0  0  0  0  0  0  0  0  0  0
   -0.9667   -0.5588    2.9997 H   0  0  0  0  0  0  0  0  0  0  0  0
    1.8039    0.2318   -0.4673 H   0  0  0  0  0  0  0  0  0  0  0  0
    6.3378   -0.1284   -0.8494 H   0  0  0  0  0  0  0  0  0  0  0  0
    6.6561   -1.0090    1.6613 H   0  0  0  0  0  0  0  0  0  0  0  0
  1  2  1  0
  2  3  1  0
  3  4  2  0
  4  5  1  0
  5  6  1  0
  6  7  1  0
  5  8  2  0
  8  9  1  0
  9 10  2  0
 10 11  1  0
 11 12  2  0
 11 13  1  0
 13 14  1  0
 14 15  2  0
 15 16  1  0
 16 17  2  0
 17 18  1  0
 10  3  1  0
 18 14  1  0
  1 19  1  0
  1 20  1  0
  1 21  1  0
  4 22  1  0
  7 23  1  0
  7 24  1  0
  7 25  1  0
  8 26  1  0
  9 27  1  0
 13 28  1  0
 16 29  1  0
 17 30  1  0
M  END
$$$$
