
     RDKit          3D

 51 54  0  0  0  0  0  0  0  0999 V2000
    5.5730   -4.4205    0.4746 C   0  0  0  0  0  0  0  0  0  0  0  0
    5.0488   -3.0310    0.2628 C   0  0  0  0  0  0  0  0  0  0  0  0
    5.9232   -1.9825   -0.0446 C   0  0  0  0  0  0  0  0  0  0  0  0
    5.4340   -0.6939   -0.2729 C   0  0  0  0  0  0  0  0  0  0  0  0
    4.0598   -0.4334   -0.2014 C   0  0  0  0  0  0  0  0  0  0  0  0
    3.5191    0.9494   -0.4644 C   0  0  0  0  0  0  0  0  0  0  0  0
    2.9191    1.0201   -1.7898 N   0  0  0  0  0  0  0  0  0  0  0  0
    1.8098    2.2250   -2.1032 S   0  0  0  0  0  6  0  0  0  0  0  0
    2.1754    3.3860   -1.3232 O   0  0  0  0  0  0  0  0  0  0  0  0
    1.6536    2.2843   -3.5389 O   0  0  0  0  0  0  0  0  0  0  0  0
    0.3221    1.5254   -1.4340 C   0  0  0  0  0  0  0  0  0  0  0  0
   -0.2576    2.0774   -0.2821 C   0  0  0  0  0  0  0  0  0  0  0  0
   -1.4308    1.5264    0.2530 C   0  0  0  0  0  0  0  0  0  0  0  0
   -2.0142    0.4399   -0.3777 C   0  0  0  0  0  0  0  0  0  0  0  0
   -1.4143   -0.1047   -1.5223 C   0  0  0  0  0  0  0  0  0  0  0  0
   -0.2569    0.4282   -2.0731 C   0  0  0  0  0  0  0  0  0  0  0  0
   -2.2003   -1.2593   -2.0576 C   0  0  0  0  0  0  0  0  0  0  0  0
   -3.2101   -1.4858   -0.9341 C   0  0  0  0  0  0  0  0  0  0  0  0
   -3.1604   -0.3079   -0.0540 N   0  0  0  0  0  0  0  0  0  0  0  0
   -4.1320   -0.1623    0.9310 C   0  0  0  0  0  0  0  0  0  0  0  0
   -4.9460   -1.0830    1.1164 O   0  0  0  0  0  0  0  0  0  0  0  0
   -4.2222    1.1464    1.7459 C   0  0  0  0  0  0  0  0  0  0  0  0
   -4.6519    2.4463    0.9995 C   0  0  0  0  0  0  0  0  0  0  0  0
   -5.4156    2.8535    2.2713 C   0  0  0  0  0  0  0  0  0  0  0  0
   -5.5121    1.3553    2.6029 C   0  0  0  0  0  0  0  0  0  0  0  0
    3.1833   -1.4899    0.0830 C   0  0  0  0  0  0  0  0  0  0  0  0
    3.6738   -2.7774    0.3109 C   0  0  0  0  0  0  0  0  0  0  0  0
    4.9340   -4.9776    1.1678 H   0  0  0  0  0  0  0  0  0  0  0  0
    6.5784   -4.3968    0.9082 H   0  0  0  0  0  0  0  0  0  0  0  0
    5.6113   -4.9553   -0.4793 H   0  0  0  0  0  0  0  0  0  0  0  0
    6.9941   -2.1634   -0.1086 H   0  0  0  0  0  0  0  0  0  0  0  0
    6.1360    0.1030   -0.5087 H   0  0  0  0  0  0  0  0  0  0  0  0
    2.7909    1.1919    0.3178 H   0  0  0  0  0  0  0  0  0  0  0  0
    4.3281    1.6857   -0.3965 H   0  0  0  0  0  0  0  0  0  0  0  0
    3.4779    0.7345   -2.5911 H   0  0  0  0  0  0  0  0  0  0  0  0
    0.2001    2.9344    0.2092 H   0  0  0  0  0  0  0  0  0  0  0  0
   -1.8244    1.9681    1.1563 H   0  0  0  0  0  0  0  0  0  0  0  0
    0.1835    0.0051   -2.9716 H   0  0  0  0  0  0  0  0  0  0  0  0
   -1.5826   -2.1454   -2.2283 H   0  0  0  0  0  0  0  0  0  0  0  0
   -2.7040   -0.9729   -2.9866 H   0  0  0  0  0  0  0  0  0  0  0  0
   -2.9440   -2.3644   -0.3330 H   0  0  0  0  0  0  0  0  0  0  0  0
   -4.2247   -1.6346   -1.3203 H   0  0  0  0  0  0  0  0  0  0  0  0
   -3.3449    1.2741    2.3940 H   0  0  0  0  0  0  0  0  0  0  0  0
   -5.2988    2.2706    0.1316 H   0  0  0  0  0  0  0  0  0  0  0  0
   -3.8539    3.1327    0.7073 H   0  0  0  0  0  0  0  0  0  0  0  0
   -4.8114    3.4256    2.9847 H   0  0  0  0  0  0  0  0  0  0  0  0
   -6.3654    3.3696    2.1125 H   0  0  0  0  0  0  0  0  0  0  0  0
   -5.4220    1.1028    3.6629 H   0  0  0  0  0  0  0  0  0  0  0  0
   -6.4133    0.8775    2.2008 H   0  0  0  0  0  0  0  0  0  0  0  0
    2.1099   -1.3150    0.1224 H   0  0  0  0  0  0  0  0  0  0  0  0
    2.9744   -3.5825    0.5254 H   0  0  0  0  0  0  0  0  0  0  0  0
  1  2  1  0
  2  3  2  0
  3  4  1  0
  4  5  2  0
  5  6  1  0
  6  7  1  0
  7  8  1  0
  8  9  2  0
  8 10  2  0
  8 11  1  0
 11 12  2  0
 12 13  1  0
 13 14  2  0
 14 15  1  0
 15 16  2  0
 15 17  1  0
 17 18  1  0
 18 19  1  0
 19 20  1  0
 20 21  2  0
 20 22  1  0
 22 23  1  0
 23 24  1  0
 24 25  1  0
  5 26  1  0
 26 27  2  0
 27  2  1  0
 16 11  1  0
 25 22  1  0
 19 14  1  0
  1 28  1  0
  1 29  1  0
  1 30  1  0
  3 31  1  0
  4 32  1  0
  6 33  1  0
  6 34  1  0
  7 35  1  0
 12 36  1  0
 13 37  1  0
 16 38  1  0
 17 39  1  0
 17 40  1  0
 18 41  1  0
 18 42  1  0
 22 43  1  0
 23 44  1  0
 23 45  1  0
 24 46  1  0
 24 47  1  0
 25 48  1  0
 25 49  1  0
 26 50  1  0
 27 51  1  0
M  END
$$$$
