
     RDKit          3D

 38 40  0  0  0  0  0  0  0  0999 V2000
   -4.5906   -2.1813   -1.6409 C   0  0  0  0  0  0  0  0  0  0  0  0
   -4.4872   -1.8467   -0.2650 O   0  0  0  0  0  0  0  0  0  0  0  0
   -3.3396   -1.2254    0.1520 C   0  0  0  0  0  0  0  0  0  0  0  0
   -2.2660   -0.8814   -0.6749 C   0  0  0  0  0  0  0  0  0  0  0  0
   -1.1228   -0.2358   -0.1593 C   0  0  0  0  0  0  0  0  0  0  0  0
   -1.0643    0.0567    1.2192 C   0  0  0  0  0  0  0  0  0  0  0  0
   -2.1336   -0.2994    2.0522 C   0  0  0  0  0  0  0  0  0  0  0  0
   -3.2586   -0.9265    1.5168 C   0  0  0  0  0  0  0  0  0  0  0  0
   -4.3023   -1.2640    2.3381 O   0  0  0  0  0  0  0  0  0  0  0  0
    0.1668    0.6909    1.8235 C   0  0  0  0  0  0  0  0  0  0  0  0
    0.9851    1.4242    0.7691 C   0  0  0  0  0  0  0  0  0  0  0  0
    1.2265    0.5474   -0.3747 N   0  0  0  0  0  0  0  0  0  0  0  0
    2.4782    0.2834   -0.9393 C   0  0  0  0  0  0  0  0  0  0  0  0
    2.5615   -0.1164   -2.1031 O   0  0  0  0  0  0  0  0  0  0  0  0
    3.6758    0.4656   -0.1352 C   0  0  0  0  0  0  0  0  0  0  0  0
    4.9884    0.6642   -0.5285 C   0  0  0  0  0  0  0  0  0  0  0  0
    5.7720    0.7086    0.6487 C   0  0  0  0  0  0  0  0  0  0  0  0
    4.9008    0.5085    1.6918 C   0  0  0  0  0  0  0  0  0  0  0  0
    3.6343    0.3481    1.2308 O   0  0  0  0  0  0  0  0  0  0  0  0
    0.0272    0.1179   -1.1034 C   0  0  0  0  0  0  0  0  0  0  0  0
   -0.3980    1.1792   -2.1283 C   0  0  0  0  0  0  0  0  0  0  0  0
   -3.8104   -2.8910   -1.9351 H   0  0  0  0  0  0  0  0  0  0  0  0
   -4.5676   -1.2843   -2.2686 H   0  0  0  0  0  0  0  0  0  0  0  0
   -5.5580   -2.6692   -1.7950 H   0  0  0  0  0  0  0  0  0  0  0  0
   -2.2894   -1.1127   -1.7354 H   0  0  0  0  0  0  0  0  0  0  0  0
   -2.0770   -0.0870    3.1160 H   0  0  0  0  0  0  0  0  0  0  0  0
   -4.0828   -1.0156    3.2486 H   0  0  0  0  0  0  0  0  0  0  0  0
    0.7713   -0.1024    2.2797 H   0  0  0  0  0  0  0  0  0  0  0  0
   -0.1193    1.3979    2.6108 H   0  0  0  0  0  0  0  0  0  0  0  0
    0.4303    2.2960    0.3992 H   0  0  0  0  0  0  0  0  0  0  0  0
    1.9026    1.8290    1.1974 H   0  0  0  0  0  0  0  0  0  0  0  0
    5.3249    0.7573   -1.5525 H   0  0  0  0  0  0  0  0  0  0  0  0
    6.8407    0.8516    0.7260 H   0  0  0  0  0  0  0  0  0  0  0  0
    5.0193    0.4465    2.7647 H   0  0  0  0  0  0  0  0  0  0  0  0
    0.2854   -0.8000   -1.6483 H   0  0  0  0  0  0  0  0  0  0  0  0
    0.4329    1.4460   -2.7898 H   0  0  0  0  0  0  0  0  0  0  0  0
   -0.7374    2.0987   -1.6385 H   0  0  0  0  0  0  0  0  0  0  0  0
   -1.2193    0.8215   -2.7582 H   0  0  0  0  0  0  0  0  0  0  0  0
  1  2  1  0
  2  3  1  0
  3  4  2  0
  4  5  1  0
  5  6  2  0
  6  7  1  0
  7  8  2  0
  8  9  1  0
  6 10  1  0
 10 11  1  0
 11 12  1  0
 12 13  1  0
 13 14  2  0
 13 15  1  0
 15 16  2  0
 16 17  1  0
 17 18  2  0
 18 19  1  0
 12 20  1  0
 20 21  1  0
  8  3  1  0
 19 15  1  0
 20  5  1  0
  1 22  1  0
  1 23  1  0
  1 24  1  0
  4 25  1  0
  7 26  1  0
  9 27  1  0
 10 28  1  0
 10 29  1  0
 11 30  1  0
 11 31  1  0
 16 32  1  0
 17 33  1  0
 18 34  1  0
 20 35  1  0
 21 36  1  0
 21 37  1  0
 21 38  1  0
M  END
$$$$
