
     RDKit          3D

 54 57  0  0  0  0  0  0  0  0999 V2000
   -2.7621    5.8293   -0.6665 C   0  0  0  0  0  0  0  0  0  0  0  0
   -2.4459    5.1288   -1.8633 O   0  0  0  0  0  0  0  0  0  0  0  0
   -1.8443    3.9089   -1.7218 C   0  0  0  0  0  0  0  0  0  0  0  0
   -1.4593    3.3174   -0.5203 C   0  0  0  0  0  0  0  0  0  0  0  0
   -0.8486    2.0579   -0.5192 C   0  0  0  0  0  0  0  0  0  0  0  0
   -0.6200    1.3633   -1.7173 C   0  0  0  0  0  0  0  0  0  0  0  0
    0.0620    0.0033   -1.7500 C   0  0  0  0  0  0  0  0  0  0  0  0
    1.5840    0.1556   -1.7142 C   0  0  0  0  0  0  0  0  0  0  0  0
    1.8769   -0.3749   -0.3376 C   0  0  0  0  0  0  0  0  0  0  0  0
    3.2280   -0.2834    0.2635 C   0  0  0  0  0  0  0  0  0  0  0  0
    4.3106    0.2403   -0.4488 C   0  0  0  0  0  0  0  0  0  0  0  0
    5.5688    0.3111    0.1519 C   0  0  0  0  0  0  0  0  0  0  0  0
    5.7528   -0.1397    1.4620 C   0  0  0  0  0  0  0  0  0  0  0  0
    4.6783   -0.6655    2.1795 C   0  0  0  0  0  0  0  0  0  0  0  0
    4.7235   -1.1393    3.4615 O   0  0  0  0  0  0  0  0  0  0  0  0
    5.9796   -1.0882    4.1258 C   0  0  0  0  0  0  0  0  0  0  0  0
    3.4197   -0.7352    1.5752 C   0  0  0  0  0  0  0  0  0  0  0  0
    0.8704   -0.9383    0.2588 N   0  0  0  0  0  0  0  0  0  0  0  0
   -0.2098   -0.8190   -0.5686 N   0  0  0  0  0  0  0  0  0  0  0  0
   -1.4160   -1.4452   -0.2609 C   0  0  0  0  0  0  0  0  0  0  0  0
   -2.5391   -1.3751   -1.1030 C   0  0  0  0  0  0  0  0  0  0  0  0
   -3.7443   -2.0120   -0.7800 C   0  0  0  0  0  0  0  0  0  0  0  0
   -3.8397   -2.7417    0.4027 C   0  0  0  0  0  0  0  0  0  0  0  0
   -5.3509   -3.5613    0.8259 S   0  0  0  0  0  6  0  0  0  0  0  0
   -5.0019   -5.1523    0.3921 N   0  0  0  0  0  0  0  0  0  0  0  0
   -6.3831   -3.1335   -0.0908 O   0  0  0  0  0  0  0  0  0  0  0  0
   -5.5146   -3.5143    2.2588 O   0  0  0  0  0  0  0  0  0  0  0  0
   -2.7536   -2.8225    1.2704 C   0  0  0  0  0  0  0  0  0  0  0  0
   -1.5577   -2.1821    0.9307 C   0  0  0  0  0  0  0  0  0  0  0  0
   -1.0025    1.9726   -2.9216 C   0  0  0  0  0  0  0  0  0  0  0  0
   -1.6093    3.2313   -2.9194 C   0  0  0  0  0  0  0  0  0  0  0  0
   -3.4572    5.2561   -0.0440 H   0  0  0  0  0  0  0  0  0  0  0  0
   -1.8550    6.0896   -0.1112 H   0  0  0  0  0  0  0  0  0  0  0  0
   -3.2594    6.7627   -0.9473 H   0  0  0  0  0  0  0  0  0  0  0  0
   -1.6183    3.8037    0.4363 H   0  0  0  0  0  0  0  0  0  0  0  0
   -0.5603    1.6155    0.4341 H   0  0  0  0  0  0  0  0  0  0  0  0
   -0.2273   -0.5352   -2.6615 H   0  0  0  0  0  0  0  0  0  0  0  0
    1.9352    1.1828   -1.8442 H   0  0  0  0  0  0  0  0  0  0  0  0
    2.0611   -0.4996   -2.4509 H   0  0  0  0  0  0  0  0  0  0  0  0
    4.2035    0.5957   -1.4689 H   0  0  0  0  0  0  0  0  0  0  0  0
    6.4118    0.7186   -0.4015 H   0  0  0  0  0  0  0  0  0  0  0  0
    6.7464   -0.0670    1.8921 H   0  0  0  0  0  0  0  0  0  0  0  0
    6.7233   -1.7059    3.6116 H   0  0  0  0  0  0  0  0  0  0  0  0
    5.8433   -1.4990    5.1308 H   0  0  0  0  0  0  0  0  0  0  0  0
    6.3280   -0.0556    4.2324 H   0  0  0  0  0  0  0  0  0  0  0  0
    2.5850   -1.1460    2.1404 H   0  0  0  0  0  0  0  0  0  0  0  0
   -2.5035   -0.8101   -2.0301 H   0  0  0  0  0  0  0  0  0  0  0  0
   -4.5935   -1.9235   -1.4540 H   0  0  0  0  0  0  0  0  0  0  0  0
   -4.0186   -5.2973    0.1651 H   0  0  0  0  0  0  0  0  0  0  0  0
   -5.6157   -5.4234   -0.3776 H   0  0  0  0  0  0  0  0  0  0  0  0
   -2.8241   -3.3691    2.2083 H   0  0  0  0  0  0  0  0  0  0  0  0
   -0.7170   -2.2527    1.6193 H   0  0  0  0  0  0  0  0  0  0  0  0
   -0.8348    1.4744   -3.8739 H   0  0  0  0  0  0  0  0  0  0  0  0
   -1.9049    3.6893   -3.8604 H   0  0  0  0  0  0  0  0  0  0  0  0
  1  2  1  0
  2  3  1  0
  3  4  2  0
  4  5  1  0
  5  6  2  0
  6  7  1  0
  7  8  1  0
  8  9  1  0
  9 10  1  0
 10 11  2  0
 11 12  1  0
 12 13  2  0
 13 14  1  0
 14 15  1  0
 15 16  1  0
 14 17  2  0
  9 18  2  0
 18 19  1  0
 19 20  1  0
 20 21  2  0
 21 22  1  0
 22 23  2  0
 23 24  1  0
 24 25  1  0
 24 26  2  0
 24 27  2  0
 23 28  1  0
 28 29  2  0
  6 30  1  0
 30 31  2  0
 31  3  1  0
 19  7  1  0
 29 20  1  0
 17 10  1  0
  1 32  1  0
  1 33  1  0
  1 34  1  0
  4 35  1  0
  5 36  1  0
  7 37  1  0
  8 38  1  0
  8 39  1  0
 11 40  1  0
 12 41  1  0
 13 42  1  0
 16 43  1  0
 16 44  1  0
 16 45  1  0
 17 46  1  0
 21 47  1  0
 22 48  1  0
 25 49  1  0
 25 50  1  0
 28 51  1  0
 29 52  1  0
 30 53  1  0
 31 54  1  0
M  END
$$$$
