
     RDKit          3D

 58 60  0  0  0  0  0  0  0  0999 V2000
    9.6112    0.4543    0.1065 C   0  0  0  0  0  0  0  0  0  0  0  0
    8.1712    0.3654    0.5879 C   0  0  0  0  0  0  0  0  0  0  0  0
    7.3636    1.5938    0.1648 C   0  0  0  0  0  0  0  0  0  0  0  0
    5.9283    1.5450    0.6861 C   0  0  0  0  0  0  0  0  0  0  0  0
    5.2504    0.4396    0.0775 O   0  0  0  0  0  0  0  0  0  0  0  0
    3.9385    0.4010    0.4626 C   0  0  0  0  0  0  0  0  0  0  0  0
    2.9652    0.7158   -0.4829 C   0  0  0  0  0  0  0  0  0  0  0  0
    1.6142    0.6645   -0.1317 C   0  0  0  0  0  0  0  0  0  0  0  0
    1.2390    0.2754    1.1628 C   0  0  0  0  0  0  0  0  0  0  0  0
   -0.1975    0.1932    1.5636 C   0  0  0  0  0  0  0  0  0  0  0  0
   -0.5002   -0.1864    2.6884 O   0  0  0  0  0  0  0  0  0  0  0  0
   -1.1105    0.5850    0.6214 N   0  0  0  0  0  0  0  0  0  0  0  0
   -2.1603   -0.1589    0.4240 C   0  0  0  0  0  0  0  0  0  0  0  0
   -2.4821   -1.4939    1.0678 C   0  0  0  0  0  0  0  0  0  0  0  0
   -3.1488   -2.4756    0.1287 C   0  0  0  0  0  0  0  0  0  0  0  0
   -2.4240   -3.0356   -0.9356 C   0  0  0  0  0  0  0  0  0  0  0  0
   -3.0345   -3.9328   -1.8149 C   0  0  0  0  0  0  0  0  0  0  0  0
   -4.3791   -4.2757   -1.6269 C   0  0  0  0  0  0  0  0  0  0  0  0
   -5.0254   -5.2197   -2.5474 N   0  0  0  0  0  4  0  0  0  0  0  0
   -6.2019   -5.5339   -2.3174 O   0  0  0  0  0  0  0  0  0  0  0  0
   -4.3581   -5.6462   -3.5003 O   0  0  0  0  0  1  0  0  0  0  0  0
   -5.1124   -3.7267   -0.5676 C   0  0  0  0  0  0  0  0  0  0  0  0
   -4.4947   -2.8293    0.3066 C   0  0  0  0  0  0  0  0  0  0  0  0
   -3.2016    0.3842   -0.5399 C   0  0  0  0  0  0  0  0  0  0  0  0
   -2.9625    0.5776   -1.7169 O   0  0  0  0  0  0  0  0  0  0  0  0
   -4.3418    0.6136    0.1360 O   0  0  0  0  0  0  0  0  0  0  0  0
   -5.4052    1.1757   -0.6414 C   0  0  0  0  0  0  0  0  0  0  0  0
   -5.3822    2.6421   -0.4331 C   0  0  0  0  0  0  0  0  0  0  0  0
   -4.6719    3.6704   -1.0179 C   0  0  0  0  0  0  0  0  0  0  0  0
   -5.0924    4.8602   -0.3770 C   0  0  0  0  0  0  0  0  0  0  0  0
   -6.0306    4.4829    0.5545 C   0  0  0  0  0  0  0  0  0  0  0  0
   -6.2148    3.1380    0.5267 O   0  0  0  0  0  0  0  0  0  0  0  0
    2.2282   -0.0644    2.0977 C   0  0  0  0  0  0  0  0  0  0  0  0
    3.5780   -0.0076    1.7452 C   0  0  0  0  0  0  0  0  0  0  0  0
    9.6572    0.5014   -0.9869 H   0  0  0  0  0  0  0  0  0  0  0  0
   10.1041    1.3428    0.5104 H   0  0  0  0  0  0  0  0  0  0  0  0
   10.1750   -0.4253    0.4330 H   0  0  0  0  0  0  0  0  0  0  0  0
    8.1641    0.2736    1.6803 H   0  0  0  0  0  0  0  0  0  0  0  0
    7.7151   -0.5447    0.1830 H   0  0  0  0  0  0  0  0  0  0  0  0
    7.8483    2.5013    0.5415 H   0  0  0  0  0  0  0  0  0  0  0  0
    7.3503    1.6523   -0.9300 H   0  0  0  0  0  0  0  0  0  0  0  0
    5.9378    1.4430    1.7785 H   0  0  0  0  0  0  0  0  0  0  0  0
    5.4204    2.4808    0.4208 H   0  0  0  0  0  0  0  0  0  0  0  0
    3.2577    1.0068   -1.4883 H   0  0  0  0  0  0  0  0  0  0  0  0
    0.8661    0.9273   -0.8761 H   0  0  0  0  0  0  0  0  0  0  0  0
   -1.5735   -1.9785    1.4374 H   0  0  0  0  0  0  0  0  0  0  0  0
   -3.1181   -1.2998    1.9394 H   0  0  0  0  0  0  0  0  0  0  0  0
   -1.3762   -2.7772   -1.0890 H   0  0  0  0  0  0  0  0  0  0  0  0
   -2.4518   -4.3533   -2.6331 H   0  0  0  0  0  0  0  0  0  0  0  0
   -6.1568   -3.9880   -0.4082 H   0  0  0  0  0  0  0  0  0  0  0  0
   -5.0726   -2.4099    1.1290 H   0  0  0  0  0  0  0  0  0  0  0  0
   -5.3340    0.9173   -1.7036 H   0  0  0  0  0  0  0  0  0  0  0  0
   -6.3426    0.7486   -0.2706 H   0  0  0  0  0  0  0  0  0  0  0  0
   -3.9372    3.5688   -1.8056 H   0  0  0  0  0  0  0  0  0  0  0  0
   -4.7524    5.8684   -0.5668 H   0  0  0  0  0  0  0  0  0  0  0  0
   -6.6274    5.0219    1.2779 H   0  0  0  0  0  0  0  0  0  0  0  0
    1.9515   -0.3795    3.1022 H   0  0  0  0  0  0  0  0  0  0  0  0
    4.3398   -0.2891    2.4670 H   0  0  0  0  0  0  0  0  0  0  0  0
  1  2  1  0
  2  3  1  0
  3  4  1  0
  4  5  1  0
  5  6  1  0
  6  7  2  0
  7  8  1  0
  8  9  2  0
  9 10  1  0
 10 11  2  0
 10 12  1  0
 12 13  2  3
 13 14  1  0
 14 15  1  0
 15 16  2  0
 16 17  1  0
 17 18  2  0
 18 19  1  0
 19 20  2  0
 19 21  1  0
 18 22  1  0
 22 23  2  0
 13 24  1  0
 24 25  2  0
 24 26  1  0
 26 27  1  0
 27 28  1  0
 28 29  2  0
 29 30  1  0
 30 31  2  0
 31 32  1  0
  9 33  1  0
 33 34  2  0
 34  6  1  0
 23 15  1  0
 32 28  1  0
  1 35  1  0
  1 36  1  0
  1 37  1  0
  2 38  1  0
  2 39  1  0
  3 40  1  0
  3 41  1  0
  4 42  1  0
  4 43  1  0
  7 44  1  0
  8 45  1  0
 14 46  1  0
 14 47  1  0
 16 48  1  0
 17 49  1  0
 22 50  1  0
 23 51  1  0
 27 52  1  0
 27 53  1  0
 29 54  1  0
 30 55  1  0
 31 56  1  0
 33 57  1  0
 34 58  1  0
M  CHG  2  19   1  21  -1
M  END
$$$$
