
     RDKit          3D

 62 65  0  0  0  0  0  0  0  0999 V2000
    2.5884   -0.2390    0.0772 C   0  0  0  0  0  0  0  0  0  0  0  0
    1.6150    0.7003    0.7395 C   0  0  0  0  0  0  0  0  0  0  0  0
    2.1223    1.9559    1.1217 C   0  0  0  0  0  0  0  0  0  0  0  0
    1.3190    2.9285    1.7170 C   0  0  0  0  0  0  0  0  0  0  0  0
    1.9637    4.0916    2.0215 O   0  0  0  0  0  0  0  0  0  0  0  0
   -0.0314    2.6883    1.9625 C   0  0  0  0  0  0  0  0  0  0  0  0
   -0.9977    3.6564    2.6291 C   0  0  0  0  0  0  0  0  0  0  0  0
   -1.3047    4.8723    1.7516 C   0  0  0  0  0  0  0  0  0  0  0  0
   -0.5680    4.0595    4.0425 C   0  0  0  0  0  0  0  0  0  0  0  0
   -0.5431    1.4357    1.5587 C   0  0  0  0  0  0  0  0  0  0  0  0
    0.2406    0.4287    0.9339 C   0  0  0  0  0  0  0  0  0  0  0  0
   -0.4405   -0.9206    0.5581 C   0  0  0  0  0  0  0  0  0  0  0  0
   -0.1071   -1.4281   -0.8683 C   0  0  0  0  0  0  0  0  0  0  0  0
   -0.2587   -0.4637   -1.9100 C   0  0  0  0  0  0  0  0  0  0  0  0
    0.0055   -0.7232   -3.2668 C   0  0  0  0  0  0  0  0  0  0  0  0
   -0.1732    0.4006   -4.2746 C   0  0  0  0  0  0  0  0  0  0  0  0
   -1.2521    0.0897   -5.3154 C   0  0  0  0  0  0  0  0  0  0  0  0
    1.1473    0.7966   -4.9400 C   0  0  0  0  0  0  0  0  0  0  0  0
    0.4189   -2.0070   -3.6003 C   0  0  0  0  0  0  0  0  0  0  0  0
    0.6965   -2.3130   -4.9014 O   0  0  0  0  0  0  0  0  0  0  0  0
    0.5493   -2.9913   -2.6207 C   0  0  0  0  0  0  0  0  0  0  0  0
    0.2793   -2.7311   -1.2575 C   0  0  0  0  0  0  0  0  0  0  0  0
    0.4412   -3.9000   -0.3255 C   0  0  0  0  0  0  0  0  0  0  0  0
   -1.8930   -0.7026    0.4355 O   0  0  0  0  0  0  0  0  0  0  0  0
   -2.6329   -1.5179    1.2301 C   0  0  0  0  0  0  0  0  0  0  0  0
   -3.8435   -1.6046    1.2616 O   0  0  0  0  0  0  0  0  0  0  0  0
   -1.6924   -2.2142    2.0851 C   0  0  0  0  0  0  0  0  0  0  0  0
   -1.9883   -3.0586    3.1443 C   0  0  0  0  0  0  0  0  0  0  0  0
   -0.9245   -3.5465    3.8992 C   0  0  0  0  0  0  0  0  0  0  0  0
    0.3894   -3.1651    3.5918 C   0  0  0  0  0  0  0  0  0  0  0  0
    0.6537   -2.3076    2.5162 C   0  0  0  0  0  0  0  0  0  0  0  0
   -0.4046   -1.8537    1.7353 C   0  0  0  0  0  0  0  0  0  0  0  0
    3.6079   -0.0580    0.4373 H   0  0  0  0  0  0  0  0  0  0  0  0
    2.3760   -1.2849    0.3005 H   0  0  0  0  0  0  0  0  0  0  0  0
    2.5819   -0.0875   -1.0062 H   0  0  0  0  0  0  0  0  0  0  0  0
    3.1719    2.1923    0.9500 H   0  0  0  0  0  0  0  0  0  0  0  0
    1.3159    4.7631    2.2746 H   0  0  0  0  0  0  0  0  0  0  0  0
   -1.9568    3.1356    2.7590 H   0  0  0  0  0  0  0  0  0  0  0  0
   -0.4354    5.5179    1.6005 H   0  0  0  0  0  0  0  0  0  0  0  0
   -2.0910    5.4838    2.2081 H   0  0  0  0  0  0  0  0  0  0  0  0
   -1.6588    4.5586    0.7631 H   0  0  0  0  0  0  0  0  0  0  0  0
   -0.3648    3.1739    4.6552 H   0  0  0  0  0  0  0  0  0  0  0  0
   -1.3655    4.6281    4.5338 H   0  0  0  0  0  0  0  0  0  0  0  0
    0.3284    4.6848    4.0550 H   0  0  0  0  0  0  0  0  0  0  0  0
   -1.6005    1.2402    1.7406 H   0  0  0  0  0  0  0  0  0  0  0  0
   -0.5990    0.5392   -1.6425 H   0  0  0  0  0  0  0  0  0  0  0  0
   -0.5213    1.2907   -3.7325 H   0  0  0  0  0  0  0  0  0  0  0  0
   -1.4453    0.9693   -5.9395 H   0  0  0  0  0  0  0  0  0  0  0  0
   -2.1943   -0.1898   -4.8310 H   0  0  0  0  0  0  0  0  0  0  0  0
   -0.9644   -0.7277   -5.9836 H   0  0  0  0  0  0  0  0  0  0  0  0
    1.9088    1.0316   -4.1879 H   0  0  0  0  0  0  0  0  0  0  0  0
    1.5450    0.0035   -5.5808 H   0  0  0  0  0  0  0  0  0  0  0  0
    1.0094    1.6854   -5.5653 H   0  0  0  0  0  0  0  0  0  0  0  0
    0.8930   -3.2603   -4.9704 H   0  0  0  0  0  0  0  0  0  0  0  0
    0.8647   -3.9900   -2.9158 H   0  0  0  0  0  0  0  0  0  0  0  0
   -0.4757   -4.0816    0.2393 H   0  0  0  0  0  0  0  0  0  0  0  0
    1.2970   -3.7458    0.3355 H   0  0  0  0  0  0  0  0  0  0  0  0
    0.6391   -4.8288   -0.8738 H   0  0  0  0  0  0  0  0  0  0  0  0
   -3.0163   -3.3119    3.3852 H   0  0  0  0  0  0  0  0  0  0  0  0
   -1.1137   -4.2072    4.7423 H   0  0  0  0  0  0  0  0  0  0  0  0
    1.2119   -3.5316    4.2033 H   0  0  0  0  0  0  0  0  0  0  0  0
    1.6775   -2.0092    2.3142 H   0  0  0  0  0  0  0  0  0  0  0  0
  1  2  1  0
  2  3  2  0
  3  4  1  0
  4  5  1  0
  4  6  2  0
  6  7  1  0
  7  8  1  0
  7  9  1  0
  6 10  1  0
 10 11  2  0
 11 12  1  0
 12 13  1  0
 13 14  2  0
 14 15  1  0
 15 16  1  0
 16 17  1  0
 16 18  1  0
 15 19  2  0
 19 20  1  0
 19 21  1  0
 21 22  2  0
 22 23  1  0
 12 24  1  0
 24 25  1  0
 25 26  2  0
 25 27  1  0
 27 28  2  0
 28 29  1  0
 29 30  2  0
 30 31  1  0
 31 32  2  0
 11  2  1  0
 32 12  1  0
 22 13  1  0
 32 27  1  0
  1 33  1  0
  1 34  1  0
  1 35  1  0
  3 36  1  0
  5 37  1  0
  7 38  1  0
  8 39  1  0
  8 40  1  0
  8 41  1  0
  9 42  1  0
  9 43  1  0
  9 44  1  0
 10 45  1  0
 14 46  1  0
 16 47  1  0
 17 48  1  0
 17 49  1  0
 17 50  1  0
 18 51  1  0
 18 52  1  0
 18 53  1  0
 20 54  1  0
 21 55  1  0
 23 56  1  0
 23 57  1  0
 23 58  1  0
 28 59  1  0
 29 60  1  0
 30 61  1  0
 31 62  1  0
M  END
$$$$
