
     RDKit          3D

 31 33  0  0  0  0  0  0  0  0999 V2000
   -3.4737   -1.0174    3.3955 O   0  0  0  0  0  0  0  0  0  0  0  0
   -2.4873   -0.5483    2.8576 C   0  0  0  0  0  0  0  0  0  0  0  0
   -1.2773   -0.6411    3.4452 O   0  0  0  0  0  0  0  0  0  0  0  0
   -2.4720    0.1983    1.5740 C   0  0  0  0  0  0  0  0  0  0  0  0
   -3.7224    0.5592    1.0452 C   0  0  0  0  0  0  0  0  0  0  0  0
   -3.8085    1.2681   -0.1536 C   0  0  0  0  0  0  0  0  0  0  0  0
   -2.6476    1.6198   -0.8369 C   0  0  0  0  0  0  0  0  0  0  0  0
   -1.3991    1.2615   -0.3254 C   0  0  0  0  0  0  0  0  0  0  0  0
   -1.3010    0.5576    0.8811 C   0  0  0  0  0  0  0  0  0  0  0  0
    0.0063    0.1536    1.3263 N   0  0  0  0  0  0  0  0  0  0  0  0
    0.6613   -1.2371    0.5775 S   0  0  0  0  0  6  0  0  0  0  0  0
   -0.4088   -1.9143   -0.1197 O   0  0  0  0  0  0  0  0  0  0  0  0
    1.4520   -1.8834    1.6033 O   0  0  0  0  0  0  0  0  0  0  0  0
    1.7986   -0.5831   -0.5878 C   0  0  0  0  0  0  0  0  0  0  0  0
    2.3168    0.7270   -0.4693 C   0  0  0  0  0  0  0  0  0  0  0  0
    3.2345    1.2788   -1.3931 C   0  0  0  0  0  0  0  0  0  0  0  0
    3.7183    0.5697   -2.5046 C   0  0  0  0  0  0  0  0  0  0  0  0
    3.2462   -0.7564   -2.6581 C   0  0  0  0  0  0  0  0  0  0  0  0
    3.5964   -1.5960   -3.6435 N   0  0  0  0  0  0  0  0  0  0  0  0
    2.7851   -3.0159   -3.3617 S   0  0  0  0  0  0  0  0  0  0  0  0
    1.9554   -2.6260   -1.9813 N   0  0  0  0  0  0  0  0  0  0  0  0
    2.2651   -1.3560   -1.6756 C   0  0  0  0  0  0  0  0  0  0  0  0
   -1.4614   -1.1751    4.2507 H   0  0  0  0  0  0  0  0  0  0  0  0
   -4.6386    0.2837    1.5659 H   0  0  0  0  0  0  0  0  0  0  0  0
   -4.7821    1.5387   -0.5562 H   0  0  0  0  0  0  0  0  0  0  0  0
   -2.7142    2.1651   -1.7756 H   0  0  0  0  0  0  0  0  0  0  0  0
   -0.5084    1.5395   -0.8803 H   0  0  0  0  0  0  0  0  0  0  0  0
    0.0420   -0.0232    2.3415 H   0  0  0  0  0  0  0  0  0  0  0  0
    2.0133    1.3518    0.3716 H   0  0  0  0  0  0  0  0  0  0  0  0
    3.5876    2.2986   -1.2330 H   0  0  0  0  0  0  0  0  0  0  0  0
    4.4234    1.0024   -3.2048 H   0  0  0  0  0  0  0  0  0  0  0  0
  1  2  2  0
  2  3  1  0
  2  4  1  0
  4  5  2  0
  5  6  1  0
  6  7  2  0
  7  8  1  0
  8  9  2  0
  9 10  1  0
 10 11  1  0
 11 12  2  0
 11 13  2  0
 11 14  1  0
 14 15  2  0
 15 16  1  0
 16 17  2  0
 17 18  1  0
 18 19  2  0
 19 20  1  0
 20 21  1  0
 21 22  2  0
  9  4  1  0
 22 14  1  0
 22 18  1  0
  3 23  1  0
  5 24  1  0
  6 25  1  0
  7 26  1  0
  8 27  1  0
 10 28  1  0
 15 29  1  0
 16 30  1  0
 17 31  1  0
M  END
$$$$
