
     RDKit          3D

 71 76  0  0  0  0  0  0  0  0999 V2000
   -3.9509   -4.1495    2.7652 C   0  0  0  0  0  0  0  0  0  0  0  0
   -3.0943   -3.1300    2.2678 O   0  0  0  0  0  0  0  0  0  0  0  0
   -3.0166   -2.9861    0.9092 C   0  0  0  0  0  0  0  0  0  0  0  0
   -3.6967   -3.7742   -0.0395 C   0  0  0  0  0  0  0  0  0  0  0  0
   -3.5425   -3.5431   -1.4123 C   0  0  0  0  0  0  0  0  0  0  0  0
   -2.7065   -2.5176   -1.7963 C   0  0  0  0  0  0  0  0  0  0  0  0
   -2.0281   -1.7205   -0.8724 C   0  0  0  0  0  0  0  0  0  0  0  0
   -2.1728   -1.9515    0.4869 C   0  0  0  0  0  0  0  0  0  0  0  0
   -1.2154   -0.7074   -1.6170 C   0  0  1  0  0  0  0  0  0  0  0  0
   -1.5018   -1.0560   -3.1050 C   0  0  0  0  0  0  0  0  0  0  0  0
   -1.0359   -0.5485   -4.1145 O   0  0  0  0  0  0  0  0  0  0  0  0
   -2.4060   -2.1237   -3.0940 N   0  0  0  0  0  0  0  0  0  0  0  0
   -1.6669    0.6590   -1.2462 C   0  0  0  0  0  0  0  0  0  0  0  0
   -0.5489    1.5107   -1.1033 C   0  0  0  0  0  0  0  0  0  0  0  0
   -0.9918    2.7638   -0.7795 C   0  0  0  0  0  0  0  0  0  0  0  0
   -0.3578    3.9099   -0.5684 O   0  0  0  0  0  0  0  0  0  0  0  0
   -2.3743    2.6754   -0.6874 N   0  0  0  0  0  0  0  0  0  0  0  0
   -3.2587    3.7862   -0.3577 C   0  0  0  0  0  0  0  0  0  0  0  0
   -3.5178    3.8754    1.1269 C   0  0  0  0  0  0  0  0  0  0  0  0
   -4.6001    3.1959    1.7046 C   0  0  0  0  0  0  0  0  0  0  0  0
   -4.8341    3.2719    3.0784 C   0  0  0  0  0  0  0  0  0  0  0  0
   -3.9870    4.0238    3.8900 C   0  0  0  0  0  0  0  0  0  0  0  0
   -2.9028    4.6964    3.3298 C   0  0  0  0  0  0  0  0  0  0  0  0
   -2.6674    4.6210    1.9561 C   0  0  0  0  0  0  0  0  0  0  0  0
   -2.7989    1.3899   -0.9942 C   0  0  0  0  0  0  0  0  0  0  0  0
   -4.0867    1.0683   -0.9895 O   0  0  0  0  0  0  0  0  0  0  0  0
    0.6971    0.7689   -1.3940 C   0  0  1  0  0  0  0  0  0  0  0  0
    1.8736    0.9448   -0.4362 C   0  0  0  0  0  0  0  0  0  0  0  0
    2.8763   -0.1245   -0.5753 N   0  0  0  0  0  0  0  0  0  0  0  0
    4.0666    0.0123    0.1112 C   0  0  0  0  0  0  0  0  0  0  0  0
    4.2903    0.9324    0.8874 O   0  0  0  0  0  0  0  0  0  0  0  0
    4.9479   -0.9751   -0.1880 O   0  0  0  0  0  0  0  0  0  0  0  0
    6.2609   -1.0182    0.4267 C   0  0  0  0  0  0  0  0  0  0  0  0
    6.9262   -2.2687   -0.1693 C   0  0  0  0  0  0  0  0  0  0  0  0
    7.0974    0.2079    0.0447 C   0  0  0  0  0  0  0  0  0  0  0  0
    6.1610   -1.1953    1.9459 C   0  0  0  0  0  0  0  0  0  0  0  0
    2.6429   -1.1599   -1.5963 C   0  0  0  0  0  0  0  0  0  0  0  0
    1.1641   -1.6269   -1.7197 C   0  0  0  0  0  0  0  0  0  0  0  0
    0.2147   -0.6303   -1.2673 N   0  0  0  0  0  0  0  0  0  0  0  0
   -4.9907   -3.9692    2.4729 H   0  0  0  0  0  0  0  0  0  0  0  0
   -3.9029   -4.1222    3.8581 H   0  0  0  0  0  0  0  0  0  0  0  0
   -3.6146   -5.1401    2.4419 H   0  0  0  0  0  0  0  0  0  0  0  0
   -4.3536   -4.5825    0.2667 H   0  0  0  0  0  0  0  0  0  0  0  0
   -4.0640   -4.1573   -2.1380 H   0  0  0  0  0  0  0  0  0  0  0  0
   -1.6440   -1.3381    1.2120 H   0  0  0  0  0  0  0  0  0  0  0  0
   -2.7513   -2.5515   -3.9401 H   0  0  0  0  0  0  0  0  0  0  0  0
    0.5965    3.7437   -0.6555 H   0  0  0  0  0  0  0  0  0  0  0  0
   -2.8058    4.7115   -0.7325 H   0  0  0  0  0  0  0  0  0  0  0  0
   -4.1953    3.6567   -0.9128 H   0  0  0  0  0  0  0  0  0  0  0  0
   -5.2619    2.5951    1.0838 H   0  0  0  0  0  0  0  0  0  0  0  0
   -5.6743    2.7390    3.5149 H   0  0  0  0  0  0  0  0  0  0  0  0
   -4.1670    4.0794    4.9601 H   0  0  0  0  0  0  0  0  0  0  0  0
   -2.2355    5.2749    3.9629 H   0  0  0  0  0  0  0  0  0  0  0  0
   -1.8097    5.1400    1.5327 H   0  0  0  0  0  0  0  0  0  0  0  0
   -4.1465    0.1016   -1.0911 H   0  0  0  0  0  0  0  0  0  0  0  0
    1.0042    0.9717   -2.4292 H   0  0  0  0  0  0  0  0  0  0  0  0
    1.5434    0.9438    0.6108 H   0  0  0  0  0  0  0  0  0  0  0  0
    2.3646    1.9096   -0.6130 H   0  0  0  0  0  0  0  0  0  0  0  0
    6.9814   -2.1975   -1.2622 H   0  0  0  0  0  0  0  0  0  0  0  0
    6.3368   -3.1664    0.0518 H   0  0  0  0  0  0  0  0  0  0  0  0
    7.9395   -2.4151    0.2193 H   0  0  0  0  0  0  0  0  0  0  0  0
    7.0824    0.3663   -1.0396 H   0  0  0  0  0  0  0  0  0  0  0  0
    8.1386    0.0951    0.3659 H   0  0  0  0  0  0  0  0  0  0  0  0
    6.7127    1.1247    0.5013 H   0  0  0  0  0  0  0  0  0  0  0  0
    7.1428   -1.3955    2.3887 H   0  0  0  0  0  0  0  0  0  0  0  0
    5.7570   -0.3049    2.4368 H   0  0  0  0  0  0  0  0  0  0  0  0
    5.4895   -2.0241    2.1969 H   0  0  0  0  0  0  0  0  0  0  0  0
    3.2821   -2.0312   -1.4218 H   0  0  0  0  0  0  0  0  0  0  0  0
    2.9588   -0.7130   -2.5476 H   0  0  0  0  0  0  0  0  0  0  0  0
    1.0332   -2.5264   -1.1068 H   0  0  0  0  0  0  0  0  0  0  0  0
    0.9955   -1.9251   -2.7601 H   0  0  0  0  0  0  0  0  0  0  0  0
  1  2  1  0
  2  3  1  0
  3  4  2  0
  4  5  1  0
  5  6  2  0
  6  7  1  0
  7  8  2  0
  7  9  1  0
  9 10  1  0
 10 11  2  0
 10 12  1  0
  9 13  1  0
 13 14  1  0
 14 15  2  0
 15 16  1  0
 15 17  1  0
 17 18  1  0
 18 19  1  0
 19 20  2  0
 20 21  1  0
 21 22  2  0
 22 23  1  0
 23 24  2  0
 17 25  1  0
 25 26  1  0
 14 27  1  0
 27 28  1  0
 28 29  1  0
 29 30  1  0
 30 31  2  0
 30 32  1  0
 32 33  1  0
 33 34  1  0
 33 35  1  0
 33 36  1  0
 29 37  1  0
 37 38  1  0
 38 39  1  0
  8  3  1  0
  9 39  1  6
 12  6  1  0
 25 13  2  0
 39 27  1  0
 24 19  1  0
  1 40  1  0
  1 41  1  0
  1 42  1  0
  4 43  1  0
  5 44  1  0
  8 45  1  0
 12 46  1  0
 16 47  1  0
 18 48  1  0
 18 49  1  0
 20 50  1  0
 21 51  1  0
 22 52  1  0
 23 53  1  0
 24 54  1  0
 26 55  1  0
 27 56  1  6
 28 57  1  0
 28 58  1  0
 34 59  1  0
 34 60  1  0
 34 61  1  0
 35 62  1  0
 35 63  1  0
 35 64  1  0
 36 65  1  0
 36 66  1  0
 36 67  1  0
 37 68  1  0
 37 69  1  0
 38 70  1  0
 38 71  1  0
M  END
$$$$
