
     RDKit          3D

 50 52  0  0  0  0  0  0  0  0999 V2000
   -4.7963   -0.7261    2.7028 C   0  0  0  0  0  0  0  0  0  0  0  0
   -3.5484   -1.4840    2.2612 C   0  0  0  0  0  0  0  0  0  0  0  0
   -2.7229   -0.7581    1.1756 C   0  0  0  0  0  0  0  0  0  0  0  0
   -3.4725   -0.5261   -0.1358 C   0  0  0  0  0  0  0  0  0  0  0  0
   -4.0893   -1.6058   -0.7969 C   0  0  0  0  0  0  0  0  0  0  0  0
   -4.7856   -1.4217   -1.9940 C   0  0  0  0  0  0  0  0  0  0  0  0
   -4.8741   -0.1549   -2.5610 C   0  0  0  0  0  0  0  0  0  0  0  0
   -4.2593    0.9253   -1.9357 C   0  0  0  0  0  0  0  0  0  0  0  0
   -3.5626    0.7421   -0.7376 C   0  0  0  0  0  0  0  0  0  0  0  0
   -2.1420    0.4514    1.7296 N   0  0  0  0  0  0  0  0  0  0  0  0
   -0.7703    0.4325    1.7383 C   0  0  0  0  0  0  0  0  0  0  0  0
   -0.0801    1.3650    2.1148 O   0  0  0  0  0  0  0  0  0  0  0  0
   -0.3489   -0.7742    1.2865 N   0  0  0  0  0  0  0  0  0  0  0  0
    1.0375   -1.1319    1.0960 C   0  0  0  0  0  0  0  0  0  0  0  0
    1.5122   -0.6617   -0.2852 C   0  0  0  0  0  0  0  0  0  0  0  0
    0.7361   -0.1320   -1.0847 O   0  0  0  0  0  0  0  0  0  0  0  0
    2.8573   -0.8692   -0.5924 N   0  0  0  0  0  0  0  0  0  0  0  0
    3.8367   -1.3698    0.3621 C   0  0  0  0  0  0  0  0  0  0  0  0
    3.3803   -0.2862   -1.8282 C   0  0  0  0  0  0  0  0  0  0  0  0
    4.1171    1.0117   -1.5888 C   0  0  0  0  0  0  0  0  0  0  0  0
    3.4118    2.1749   -1.2471 C   0  0  0  0  0  0  0  0  0  0  0  0
    4.0898    3.3712   -1.0095 C   0  0  0  0  0  0  0  0  0  0  0  0
    5.4786    3.4183   -1.1119 C   0  0  0  0  0  0  0  0  0  0  0  0
    6.1910    2.2696   -1.4514 C   0  0  0  0  0  0  0  0  0  0  0  0
    5.5149    1.0712   -1.6881 C   0  0  0  0  0  0  0  0  0  0  0  0
   -1.4118   -1.5555    0.9299 C   0  0  0  0  0  0  0  0  0  0  0  0
   -1.3385   -2.7070    0.5152 O   0  0  0  0  0  0  0  0  0  0  0  0
   -5.4963   -0.5849    1.8740 H   0  0  0  0  0  0  0  0  0  0  0  0
   -5.3167   -1.2895    3.4842 H   0  0  0  0  0  0  0  0  0  0  0  0
   -4.5436    0.2561    3.1137 H   0  0  0  0  0  0  0  0  0  0  0  0
   -2.9224   -1.6547    3.1479 H   0  0  0  0  0  0  0  0  0  0  0  0
   -3.8484   -2.4814    1.9171 H   0  0  0  0  0  0  0  0  0  0  0  0
   -4.0192   -2.6152   -0.3944 H   0  0  0  0  0  0  0  0  0  0  0  0
   -5.2489   -2.2720   -2.4878 H   0  0  0  0  0  0  0  0  0  0  0  0
   -5.4089   -0.0117   -3.4959 H   0  0  0  0  0  0  0  0  0  0  0  0
   -4.3111    1.9136   -2.3857 H   0  0  0  0  0  0  0  0  0  0  0  0
   -3.0803    1.6114   -0.2971 H   0  0  0  0  0  0  0  0  0  0  0  0
   -2.6529    1.2851    1.9824 H   0  0  0  0  0  0  0  0  0  0  0  0
    1.1367   -2.2198    1.1556 H   0  0  0  0  0  0  0  0  0  0  0  0
    1.6376   -0.6427    1.8694 H   0  0  0  0  0  0  0  0  0  0  0  0
    4.2408   -0.5270    0.9302 H   0  0  0  0  0  0  0  0  0  0  0  0
    3.3875   -2.0810    1.0578 H   0  0  0  0  0  0  0  0  0  0  0  0
    4.6436   -1.8793   -0.1728 H   0  0  0  0  0  0  0  0  0  0  0  0
    4.0427   -1.0278   -2.2913 H   0  0  0  0  0  0  0  0  0  0  0  0
    2.5756   -0.1089   -2.5513 H   0  0  0  0  0  0  0  0  0  0  0  0
    2.3260    2.1521   -1.1636 H   0  0  0  0  0  0  0  0  0  0  0  0
    3.5313    4.2651   -0.7439 H   0  0  0  0  0  0  0  0  0  0  0  0
    6.0048    4.3511   -0.9274 H   0  0  0  0  0  0  0  0  0  0  0  0
    7.2741    2.3079   -1.5323 H   0  0  0  0  0  0  0  0  0  0  0  0
    6.0870    0.1846   -1.9510 H   0  0  0  0  0  0  0  0  0  0  0  0
  1  2  1  0
  2  3  1  0
  3  4  1  0
  4  5  2  0
  5  6  1  0
  6  7  2  0
  7  8  1  0
  8  9  2  0
  3 10  1  0
 10 11  1  0
 11 12  2  0
 11 13  1  0
 13 14  1  0
 14 15  1  0
 15 16  2  0
 15 17  1  0
 17 18  1  0
 17 19  1  0
 19 20  1  0
 20 21  2  0
 21 22  1  0
 22 23  2  0
 23 24  1  0
 24 25  2  0
 13 26  1  0
 26 27  2  0
 26  3  1  0
  9  4  1  0
 25 20  1  0
  1 28  1  0
  1 29  1  0
  1 30  1  0
  2 31  1  0
  2 32  1  0
  5 33  1  0
  6 34  1  0
  7 35  1  0
  8 36  1  0
  9 37  1  0
 10 38  1  0
 14 39  1  0
 14 40  1  0
 18 41  1  0
 18 42  1  0
 18 43  1  0
 19 44  1  0
 19 45  1  0
 21 46  1  0
 22 47  1  0
 23 48  1  0
 24 49  1  0
 25 50  1  0
M  END
$$$$
