
     RDKit          3D

 37 38  0  0  0  0  0  0  0  0999 V2000
    3.7700    1.0006    2.7288 C   0  0  0  0  0  0  0  0  0  0  0  0
    4.0993    1.5371    1.3329 C   0  0  0  0  0  0  0  0  0  0  0  0
    5.2879    2.4979    1.4182 C   0  0  0  0  0  0  0  0  0  0  0  0
    4.4131    0.4054    0.3371 C   0  0  0  0  0  0  0  0  0  0  0  0
    3.2266   -0.4564    0.0413 C   0  0  0  0  0  0  0  0  0  0  0  0
    2.9748   -1.6121    0.6232 N   0  0  0  0  0  0  0  0  0  0  0  0
    1.8054   -2.1823    0.1594 N   0  0  0  0  0  0  0  0  0  0  0  0
    1.2095   -1.4175   -0.7238 C   0  0  0  0  0  0  0  0  0  0  0  0
   -0.0054   -1.8898   -1.3784 N   0  0  0  0  0  0  0  0  0  0  0  0
   -1.3739   -1.0722   -0.7853 S   0  0  0  0  0  6  0  0  0  0  0  0
   -1.8010   -1.8220    0.3770 O   0  0  0  0  0  0  0  0  0  0  0  0
   -1.0935    0.3465   -0.7307 O   0  0  0  0  0  0  0  0  0  0  0  0
   -2.5131   -1.3897   -2.1367 C   0  0  0  0  0  0  0  0  0  0  0  0
   -3.8523   -0.7787   -1.8199 C   0  0  0  0  0  0  0  0  0  0  0  0
   -4.8272   -1.5145   -1.1308 C   0  0  0  0  0  0  0  0  0  0  0  0
   -6.0662   -0.9446   -0.8349 C   0  0  0  0  0  0  0  0  0  0  0  0
   -6.3431    0.3649   -1.2216 C   0  0  0  0  0  0  0  0  0  0  0  0
   -5.3802    1.1078   -1.9011 C   0  0  0  0  0  0  0  0  0  0  0  0
   -4.1404    0.5407   -2.1986 C   0  0  0  0  0  0  0  0  0  0  0  0
    2.0693   -0.0065   -1.1503 S   0  0  0  0  0  0  0  0  0  0  0  0
    3.5913    1.8247    3.4280 H   0  0  0  0  0  0  0  0  0  0  0  0
    4.5918    0.3944    3.1251 H   0  0  0  0  0  0  0  0  0  0  0  0
    2.8666    0.3828    2.7155 H   0  0  0  0  0  0  0  0  0  0  0  0
    3.2331    2.1085    0.9755 H   0  0  0  0  0  0  0  0  0  0  0  0
    6.1883    1.9862    1.7753 H   0  0  0  0  0  0  0  0  0  0  0  0
    5.5099    2.9301    0.4366 H   0  0  0  0  0  0  0  0  0  0  0  0
    5.0726    3.3241    2.1041 H   0  0  0  0  0  0  0  0  0  0  0  0
    5.2203   -0.2251    0.7318 H   0  0  0  0  0  0  0  0  0  0  0  0
    4.7907    0.8307   -0.6019 H   0  0  0  0  0  0  0  0  0  0  0  0
   -0.0991   -2.8728   -1.1109 H   0  0  0  0  0  0  0  0  0  0  0  0
   -2.0896   -0.9559   -3.0480 H   0  0  0  0  0  0  0  0  0  0  0  0
   -2.5982   -2.4735   -2.2650 H   0  0  0  0  0  0  0  0  0  0  0  0
   -4.6275   -2.5344   -0.8070 H   0  0  0  0  0  0  0  0  0  0  0  0
   -6.8138   -1.5205   -0.2952 H   0  0  0  0  0  0  0  0  0  0  0  0
   -7.3065    0.8096   -0.9858 H   0  0  0  0  0  0  0  0  0  0  0  0
   -5.5922    2.1333   -2.1932 H   0  0  0  0  0  0  0  0  0  0  0  0
   -3.3972    1.1434   -2.7178 H   0  0  0  0  0  0  0  0  0  0  0  0
  1  2  1  0
  2  3  1  0
  2  4  1  0
  4  5  1  0
  5  6  2  0
  6  7  1  0
  7  8  2  0
  8  9  1  0
  9 10  1  0
 10 11  2  0
 10 12  2  0
 10 13  1  0
 13 14  1  0
 14 15  2  0
 15 16  1  0
 16 17  2  0
 17 18  1  0
 18 19  2  0
  8 20  1  0
 20  5  1  0
 19 14  1  0
  1 21  1  0
  1 22  1  0
  1 23  1  0
  2 24  1  0
  3 25  1  0
  3 26  1  0
  3 27  1  0
  4 28  1  0
  4 29  1  0
  9 30  1  0
 13 31  1  0
 13 32  1  0
 15 33  1  0
 16 34  1  0
 17 35  1  0
 18 36  1  0
 19 37  1  0
M  END
$$$$
