
     RDKit          3D

 58 61  0  0  0  0  0  0  0  0999 V2000
    1.8191   -2.8256   -2.9182 S   0  0  0  0  0  0  0  0  0  0  0  0
    1.8016   -1.8036   -1.5845 C   0  0  0  0  0  0  0  0  0  0  0  0
    2.5998   -0.6802   -1.4898 N   0  0  0  0  0  0  0  0  0  0  0  0
    3.6259   -0.2641   -2.4410 C   0  0  0  0  0  0  0  0  0  0  0  0
    4.3013    1.0451   -2.0205 C   0  0  0  0  0  0  0  0  0  0  0  0
    5.0971    0.9198   -0.7091 C   0  0  0  0  0  0  0  0  0  0  0  0
    4.2279    0.6972    0.4593 N   0  0  0  0  0  0  0  0  0  0  0  0
    3.5650    1.9361    0.9326 C   0  0  0  0  0  0  0  0  0  0  0  0
    4.0819    2.4477    2.2905 C   0  0  0  0  0  0  0  0  0  0  0  0
    3.9699    1.4710    3.3350 O   0  0  0  0  0  0  0  0  0  0  0  0
    4.1937    0.1295    2.8778 C   0  0  0  0  0  0  0  0  0  0  0  0
    4.9763    0.0519    1.5585 C   0  0  0  0  0  0  0  0  0  0  0  0
    0.9893   -1.9840   -0.4586 N   0  0  0  0  0  0  0  0  0  0  0  0
    0.1756   -3.1930   -0.2381 C   0  0  0  0  0  0  0  0  0  0  0  0
   -1.3058   -2.9550   -0.5939 C   0  0  0  0  0  0  0  0  0  0  0  0
   -1.8383   -1.7737    0.1246 N   0  0  0  0  0  0  0  0  0  0  0  0
   -3.1912   -1.5463    0.0901 C   0  0  0  0  0  0  0  0  0  0  0  0
   -3.7211   -0.3409    0.0436 N   0  0  0  0  0  0  0  0  0  0  0  0
   -5.1070   -0.3826    0.0109 C   0  0  0  0  0  0  0  0  0  0  0  0
   -5.8924    0.8481   -0.0764 C   0  0  0  0  0  0  0  0  0  0  0  0
   -7.2447    0.8531   -0.4538 C   0  0  0  0  0  0  0  0  0  0  0  0
   -7.9597    2.0532   -0.5329 C   0  0  0  0  0  0  0  0  0  0  0  0
   -7.3333    3.2624   -0.2383 C   0  0  0  0  0  0  0  0  0  0  0  0
   -5.9917    3.2753    0.1344 C   0  0  0  0  0  0  0  0  0  0  0  0
   -5.2771    2.0766    0.2119 C   0  0  0  0  0  0  0  0  0  0  0  0
   -5.6355   -1.6532    0.0843 C   0  0  0  0  0  0  0  0  0  0  0  0
   -4.3761   -2.8095    0.1651 S   0  0  0  0  0  0  0  0  0  0  0  0
   -0.9992   -0.5602   -0.0283 C   0  0  0  0  0  0  0  0  0  0  0  0
    0.4725   -0.8467    0.3249 C   0  0  0  0  0  0  0  0  0  0  0  0
    2.8564   -0.4479   -0.5315 H   0  0  0  0  0  0  0  0  0  0  0  0
    4.3690   -1.0670   -2.5210 H   0  0  0  0  0  0  0  0  0  0  0  0
    3.1531   -0.1349   -3.4219 H   0  0  0  0  0  0  0  0  0  0  0  0
    3.5531    1.8444   -1.9468 H   0  0  0  0  0  0  0  0  0  0  0  0
    4.9985    1.3405   -2.8138 H   0  0  0  0  0  0  0  0  0  0  0  0
    5.7858    0.0736   -0.8258 H   0  0  0  0  0  0  0  0  0  0  0  0
    5.7231    1.8083   -0.5589 H   0  0  0  0  0  0  0  0  0  0  0  0
    2.5002    1.6949    1.0455 H   0  0  0  0  0  0  0  0  0  0  0  0
    3.6267    2.7454    0.1930 H   0  0  0  0  0  0  0  0  0  0  0  0
    3.5036    3.3235    2.6000 H   0  0  0  0  0  0  0  0  0  0  0  0
    5.1307    2.7610    2.2170 H   0  0  0  0  0  0  0  0  0  0  0  0
    3.2179   -0.3609    2.7762 H   0  0  0  0  0  0  0  0  0  0  0  0
    4.7376   -0.3959    3.6680 H   0  0  0  0  0  0  0  0  0  0  0  0
    5.9540    0.5363    1.6938 H   0  0  0  0  0  0  0  0  0  0  0  0
    5.1532   -1.0007    1.3006 H   0  0  0  0  0  0  0  0  0  0  0  0
    0.2636   -3.4421    0.8282 H   0  0  0  0  0  0  0  0  0  0  0  0
    0.5655   -4.0522   -0.7905 H   0  0  0  0  0  0  0  0  0  0  0  0
   -1.4087   -2.7973   -1.6743 H   0  0  0  0  0  0  0  0  0  0  0  0
   -1.8514   -3.8672   -0.3291 H   0  0  0  0  0  0  0  0  0  0  0  0
   -7.7627   -0.0680   -0.7066 H   0  0  0  0  0  0  0  0  0  0  0  0
   -9.0051    2.0419   -0.8309 H   0  0  0  0  0  0  0  0  0  0  0  0
   -7.8893    4.1943   -0.3015 H   0  0  0  0  0  0  0  0  0  0  0  0
   -5.4964    4.2161    0.3622 H   0  0  0  0  0  0  0  0  0  0  0  0
   -4.2278    2.1059    0.5014 H   0  0  0  0  0  0  0  0  0  0  0  0
   -6.6679   -1.9706    0.0876 H   0  0  0  0  0  0  0  0  0  0  0  0
   -1.3497    0.2404    0.6357 H   0  0  0  0  0  0  0  0  0  0  0  0
   -1.0660   -0.1964   -1.0624 H   0  0  0  0  0  0  0  0  0  0  0  0
    1.0456    0.0669    0.1615 H   0  0  0  0  0  0  0  0  0  0  0  0
    0.5639   -1.1126    1.3842 H   0  0  0  0  0  0  0  0  0  0  0  0
  1  2  2  0
  2  3  1  0
  3  4  1  0
  4  5  1  0
  5  6  1  0
  6  7  1  0
  7  8  1  0
  8  9  1  0
  9 10  1  0
 10 11  1  0
 11 12  1  0
  2 13  1  0
 13 14  1  0
 14 15  1  0
 15 16  1  0
 16 17  1  0
 17 18  2  0
 18 19  1  0
 19 20  1  0
 20 21  2  0
 21 22  1  0
 22 23  2  0
 23 24  1  0
 24 25  2  0
 19 26  2  0
 26 27  1  0
 16 28  1  0
 28 29  1  0
 12  7  1  0
 29 13  1  0
 27 17  1  0
 25 20  1  0
  3 30  1  0
  4 31  1  0
  4 32  1  0
  5 33  1  0
  5 34  1  0
  6 35  1  0
  6 36  1  0
  8 37  1  0
  8 38  1  0
  9 39  1  0
  9 40  1  0
 11 41  1  0
 11 42  1  0
 12 43  1  0
 12 44  1  0
 14 45  1  0
 14 46  1  0
 15 47  1  0
 15 48  1  0
 21 49  1  0
 22 50  1  0
 23 51  1  0
 24 52  1  0
 25 53  1  0
 26 54  1  0
 28 55  1  0
 28 56  1  0
 29 57  1  0
 29 58  1  0
M  END
$$$$
