
     RDKit          3D

 37 39  0  0  0  0  0  0  0  0999 V2000
    6.2036    0.2943    0.3491 C   0  0  0  0  0  0  0  0  0  0  0  0
    4.8397   -0.1597    0.7792 C   0  0  0  0  0  0  0  0  0  0  0  0
    4.6416   -0.7102    2.0514 C   0  0  0  0  0  0  0  0  0  0  0  0
    3.3829   -1.1794    2.4366 C   0  0  0  0  0  0  0  0  0  0  0  0
    2.3108   -1.1012    1.5483 C   0  0  0  0  0  0  0  0  0  0  0  0
    1.0912   -1.5935    1.9178 O   0  0  0  0  0  0  0  0  0  0  0  0
    2.4891   -0.5434    0.2787 C   0  0  0  0  0  0  0  0  0  0  0  0
    1.3939   -0.4450   -0.7135 C   0  0  0  0  0  0  0  0  0  0  0  0
    1.6194   -0.7733   -1.8772 O   0  0  0  0  0  0  0  0  0  0  0  0
    0.0521    0.0750   -0.3633 C   0  0  0  0  0  0  0  0  0  0  0  0
   -0.1640    0.9487    0.6945 C   0  0  0  0  0  0  0  0  0  0  0  0
   -1.3786    1.4586    1.0215 N   0  0  0  0  0  0  0  0  0  0  0  0
   -2.4170    1.0934    0.2432 C   0  0  0  0  0  0  0  0  0  0  0  0
   -2.3084    0.2402   -0.8401 C   0  0  0  0  0  0  0  0  0  0  0  0
   -1.0478   -0.2784   -1.1480 C   0  0  0  0  0  0  0  0  0  0  0  0
   -3.5420   -0.1585   -1.5742 C   0  0  0  0  0  0  0  0  0  0  0  0
   -4.6630    0.7384   -1.3528 N   0  0  0  0  0  0  0  0  0  0  0  0
   -5.8482    0.5167   -2.1594 C   0  0  0  0  0  0  0  0  0  0  0  0
   -4.7804    1.4754   -0.1912 C   0  0  0  0  0  0  0  0  0  0  0  0
   -5.8225    2.0228    0.1638 O   0  0  0  0  0  0  0  0  0  0  0  0
   -3.6564    1.6118    0.5614 N   0  0  0  0  0  0  0  0  0  0  0  0
    3.7597   -0.0969   -0.1107 C   0  0  0  0  0  0  0  0  0  0  0  0
    6.7822    0.6575    1.2050 H   0  0  0  0  0  0  0  0  0  0  0  0
    6.7441   -0.5351   -0.1173 H   0  0  0  0  0  0  0  0  0  0  0  0
    6.1323    1.1190   -0.3678 H   0  0  0  0  0  0  0  0  0  0  0  0
    5.4739   -0.7865    2.7491 H   0  0  0  0  0  0  0  0  0  0  0  0
    3.2643   -1.6095    3.4271 H   0  0  0  0  0  0  0  0  0  0  0  0
    1.1624   -2.0097    2.7941 H   0  0  0  0  0  0  0  0  0  0  0  0
    0.6452    1.2915    1.3322 H   0  0  0  0  0  0  0  0  0  0  0  0
   -0.9194   -0.9587   -1.9874 H   0  0  0  0  0  0  0  0  0  0  0  0
   -3.3387   -0.1769   -2.6511 H   0  0  0  0  0  0  0  0  0  0  0  0
   -3.8481   -1.1611   -1.2531 H   0  0  0  0  0  0  0  0  0  0  0  0
   -6.5743    1.3243   -2.0308 H   0  0  0  0  0  0  0  0  0  0  0  0
   -5.5631    0.4651   -3.2141 H   0  0  0  0  0  0  0  0  0  0  0  0
   -6.3094   -0.4275   -1.8548 H   0  0  0  0  0  0  0  0  0  0  0  0
   -3.7102    2.2136    1.3687 H   0  0  0  0  0  0  0  0  0  0  0  0
    3.9032    0.3000   -1.1150 H   0  0  0  0  0  0  0  0  0  0  0  0
  1  2  1  0
  2  3  2  0
  3  4  1  0
  4  5  2  0
  5  6  1  0
  5  7  1  0
  7  8  1  0
  8  9  2  0
  8 10  1  0
 10 11  2  0
 11 12  1  0
 12 13  2  0
 13 14  1  0
 14 15  2  0
 14 16  1  0
 16 17  1  0
 17 18  1  0
 17 19  1  0
 19 20  2  0
 19 21  1  0
  7 22  2  0
 22  2  1  0
 15 10  1  0
 21 13  1  0
  1 23  1  0
  1 24  1  0
  1 25  1  0
  3 26  1  0
  4 27  1  0
  6 28  1  0
 11 29  1  0
 15 30  1  0
 16 31  1  0
 16 32  1  0
 18 33  1  0
 18 34  1  0
 18 35  1  0
 21 36  1  0
 22 37  1  0
M  END
$$$$
