
     RDKit          3D

 48 51  0  0  0  0  0  0  0  0999 V2000
    3.3452   -0.8170    1.5572 O   0  0  0  0  0  0  0  0  0  0  0  0
    2.1487    0.0012    1.5638 S   0  0  0  0  0  6  0  0  0  0  0  0
    2.1562    1.3440    2.1105 O   0  0  0  0  0  0  0  0  0  0  0  0
    1.4636    0.0425   -0.1030 C   0  0  0  0  0  0  0  0  0  0  0  0
    2.3334    0.8925   -0.9903 C   0  0  0  0  0  0  0  0  0  0  0  0
    3.4570    0.3464   -1.6263 C   0  0  0  0  0  0  0  0  0  0  0  0
    4.2609    1.1413   -2.4458 C   0  0  0  0  0  0  0  0  0  0  0  0
    3.9508    2.4871   -2.6365 C   0  0  0  0  0  0  0  0  0  0  0  0
    2.8375    3.0404   -2.0079 C   0  0  0  0  0  0  0  0  0  0  0  0
    2.0319    2.2487   -1.1889 C   0  0  0  0  0  0  0  0  0  0  0  0
    0.9708   -0.8588    2.4232 N   0  0  0  0  0  0  0  0  0  0  0  0
   -0.2896   -0.1375    2.7518 C   0  0  0  0  0  0  0  0  0  0  0  0
   -1.4461   -1.1015    3.0783 C   0  0  0  0  0  0  0  0  0  0  0  0
   -1.6909   -2.1432    2.0711 N   0  0  0  0  0  0  0  0  0  0  0  0
   -2.8152   -1.9121    1.1632 C   0  0  0  0  0  0  0  0  0  0  0  0
   -2.7026   -0.7148    0.2399 C   0  0  0  0  0  0  0  0  0  0  0  0
   -3.1704    0.5563    0.6517 C   0  0  0  0  0  0  0  0  0  0  0  0
   -3.0471    1.6776   -0.1760 C   0  0  0  0  0  0  0  0  0  0  0  0
   -2.4650    1.5019   -1.4115 C   0  0  0  0  0  0  0  0  0  0  0  0
   -2.0283    0.2702   -1.8338 C   0  0  0  0  0  0  0  0  0  0  0  0
   -2.1371   -0.8523   -1.0403 C   0  0  0  0  0  0  0  0  0  0  0  0
   -1.4913    0.3083   -3.0823 O   0  0  0  0  0  0  0  0  0  0  0  0
   -1.6661    1.7033   -3.4093 C   0  0  0  0  0  0  0  0  0  0  0  0
   -2.2607    2.4720   -2.3430 O   0  0  0  0  0  0  0  0  0  0  0  0
   -0.4691   -2.6353    1.4242 C   0  0  0  0  0  0  0  0  0  0  0  0
    0.8271   -2.3178    2.1924 C   0  0  0  0  0  0  0  0  0  0  0  0
    1.4115   -0.9806   -0.4834 H   0  0  0  0  0  0  0  0  0  0  0  0
    0.4580    0.4615   -0.0493 H   0  0  0  0  0  0  0  0  0  0  0  0
    3.7236   -0.6988   -1.4792 H   0  0  0  0  0  0  0  0  0  0  0  0
    5.1357    0.7125   -2.9278 H   0  0  0  0  0  0  0  0  0  0  0  0
    4.5837    3.1076   -3.2676 H   0  0  0  0  0  0  0  0  0  0  0  0
    2.6015    4.0941   -2.1482 H   0  0  0  0  0  0  0  0  0  0  0  0
    1.1746    2.7030   -0.6955 H   0  0  0  0  0  0  0  0  0  0  0  0
   -0.1026    0.4968    3.6255 H   0  0  0  0  0  0  0  0  0  0  0  0
   -0.5802    0.5148    1.9248 H   0  0  0  0  0  0  0  0  0  0  0  0
   -1.2002   -1.6165    4.0164 H   0  0  0  0  0  0  0  0  0  0  0  0
   -2.3573   -0.5329    3.2997 H   0  0  0  0  0  0  0  0  0  0  0  0
   -2.9794   -2.8127    0.5524 H   0  0  0  0  0  0  0  0  0  0  0  0
   -3.7393   -1.8181    1.7521 H   0  0  0  0  0  0  0  0  0  0  0  0
   -3.6389    0.6749    1.6263 H   0  0  0  0  0  0  0  0  0  0  0  0
   -3.4006    2.6535    0.1399 H   0  0  0  0  0  0  0  0  0  0  0  0
   -1.7899   -1.8109   -1.4099 H   0  0  0  0  0  0  0  0  0  0  0  0
   -2.3113    1.7766   -4.2931 H   0  0  0  0  0  0  0  0  0  0  0  0
   -0.6905    2.1331   -3.6516 H   0  0  0  0  0  0  0  0  0  0  0  0
   -0.5543   -3.7203    1.3050 H   0  0  0  0  0  0  0  0  0  0  0  0
   -0.3569   -2.2188    0.4222 H   0  0  0  0  0  0  0  0  0  0  0  0
    1.6837   -2.7192    1.6418 H   0  0  0  0  0  0  0  0  0  0  0  0
    0.8254   -2.8186    3.1671 H   0  0  0  0  0  0  0  0  0  0  0  0
  1  2  2  0
  2  3  2  0
  2  4  1  0
  4  5  1  0
  5  6  2  0
  6  7  1  0
  7  8  2  0
  8  9  1  0
  9 10  2  0
  2 11  1  0
 11 12  1  0
 12 13  1  0
 13 14  1  0
 14 15  1  0
 15 16  1  0
 16 17  2  0
 17 18  1  0
 18 19  2  0
 19 20  1  0
 20 21  2  0
 20 22  1  0
 22 23  1  0
 23 24  1  0
 14 25  1  0
 25 26  1  0
 10  5  1  0
 26 11  1  0
 21 16  1  0
 24 19  1  0
  4 27  1  0
  4 28  1  0
  6 29  1  0
  7 30  1  0
  8 31  1  0
  9 32  1  0
 10 33  1  0
 12 34  1  0
 12 35  1  0
 13 36  1  0
 13 37  1  0
 15 38  1  0
 15 39  1  0
 17 40  1  0
 18 41  1  0
 21 42  1  0
 23 43  1  0
 23 44  1  0
 25 45  1  0
 25 46  1  0
 26 47  1  0
 26 48  1  0
M  END
$$$$
