
     RDKit          3D

 36 37  0  0  0  0  0  0  0  0999 V2000
    0.7379   -0.9995    2.3572 O   0  0  0  0  0  0  0  0  0  0  0  0
    1.0223   -1.6120    1.3309 C   0  0  0  0  0  0  0  0  0  0  0  0
    0.0070   -2.4819    0.5865 C   0  0  0  0  0  0  0  0  0  0  0  0
   -1.2936   -1.8938    0.5583 O   0  0  0  0  0  0  0  0  0  0  0  0
   -1.4041   -0.8683   -0.3191 C   0  0  0  0  0  0  0  0  0  0  0  0
   -0.5515   -0.4499   -1.0819 O   0  0  0  0  0  0  0  0  0  0  0  0
   -2.7579   -0.3185   -0.2107 C   0  0  0  0  0  0  0  0  0  0  0  0
   -3.8383   -0.9969   -0.7863 C   0  0  0  0  0  0  0  0  0  0  0  0
   -3.6458   -2.4806   -1.6528 Cl  0  0  0  0  0  0  0  0  0  0  0  0
   -5.1293   -0.4694   -0.6804 C   0  0  0  0  0  0  0  0  0  0  0  0
   -5.3419    0.7354   -0.0093 C   0  0  0  0  0  0  0  0  0  0  0  0
   -4.2628    1.4165    0.5548 C   0  0  0  0  0  0  0  0  0  0  0  0
   -2.9681    0.8948    0.4520 C   0  0  0  0  0  0  0  0  0  0  0  0
   -1.6835    1.7957    1.1706 Cl  0  0  0  0  0  0  0  0  0  0  0  0
    2.2750   -1.5845    0.7557 N   0  0  0  0  0  0  0  0  0  0  0  0
    3.3223   -0.6930    1.2317 C   0  0  0  0  0  0  0  0  0  0  0  0
    3.4558    0.5644    0.3656 C   0  0  0  0  0  0  0  0  0  0  0  0
    2.2822    1.5301    0.4262 C   0  0  0  0  0  0  0  0  0  0  0  0
    2.3467    2.1848   -0.9309 C   0  0  0  0  0  0  0  0  0  0  0  0
    2.7564    1.0257   -1.8126 C   0  0  0  0  0  0  0  0  0  0  0  0
    3.6156    0.1880   -1.0227 O   0  0  0  0  0  0  0  0  0  0  0  0
   -0.0683   -3.4322    1.1278 H   0  0  0  0  0  0  0  0  0  0  0  0
    0.3444   -2.7170   -0.4310 H   0  0  0  0  0  0  0  0  0  0  0  0
   -5.9752   -0.9908   -1.1252 H   0  0  0  0  0  0  0  0  0  0  0  0
   -6.3475    1.1433    0.0732 H   0  0  0  0  0  0  0  0  0  0  0  0
   -4.4360    2.3597    1.0691 H   0  0  0  0  0  0  0  0  0  0  0  0
    2.3644   -1.8617   -0.2162 H   0  0  0  0  0  0  0  0  0  0  0  0
    4.2488   -1.2741    1.1650 H   0  0  0  0  0  0  0  0  0  0  0  0
    3.1551   -0.4297    2.2809 H   0  0  0  0  0  0  0  0  0  0  0  0
    4.3727    1.0934    0.6531 H   0  0  0  0  0  0  0  0  0  0  0  0
    2.3620    2.2410    1.2533 H   0  0  0  0  0  0  0  0  0  0  0  0
    1.3281    1.0056    0.5246 H   0  0  0  0  0  0  0  0  0  0  0  0
    3.1253    2.9558   -0.9356 H   0  0  0  0  0  0  0  0  0  0  0  0
    1.4049    2.6451   -1.2384 H   0  0  0  0  0  0  0  0  0  0  0  0
    1.8913    0.4260   -2.1135 H   0  0  0  0  0  0  0  0  0  0  0  0
    3.2856    1.3484   -2.7140 H   0  0  0  0  0  0  0  0  0  0  0  0
  1  2  2  0
  2  3  1  0
  3  4  1  0
  4  5  1  0
  5  6  2  0
  5  7  1  0
  7  8  2  0
  8  9  1  0
  8 10  1  0
 10 11  2  0
 11 12  1  0
 12 13  2  0
 13 14  1  0
  2 15  1  0
 15 16  1  0
 16 17  1  0
 17 18  1  0
 18 19  1  0
 19 20  1  0
 20 21  1  0
 13  7  1  0
 21 17  1  0
  3 22  1  0
  3 23  1  0
 10 24  1  0
 11 25  1  0
 12 26  1  0
 15 27  1  0
 16 28  1  0
 16 29  1  0
 17 30  1  0
 18 31  1  0
 18 32  1  0
 19 33  1  0
 19 34  1  0
 20 35  1  0
 20 36  1  0
M  END
$$$$
