
     RDKit          3D

 50 53  0  0  0  0  0  0  0  0999 V2000
    7.6132    1.9488    0.5374 C   0  0  0  0  0  0  0  0  0  0  0  0
    6.6902    1.0908    1.1967 O   0  0  0  0  0  0  0  0  0  0  0  0
    5.4230    1.0410    0.6872 C   0  0  0  0  0  0  0  0  0  0  0  0
    4.9464    1.7613   -0.4039 C   0  0  0  0  0  0  0  0  0  0  0  0
    3.6162    1.6116   -0.8181 C   0  0  0  0  0  0  0  0  0  0  0  0
    2.7416    0.7318   -0.1551 C   0  0  0  0  0  0  0  0  0  0  0  0
    1.3948    0.6194   -0.6223 N   0  0  0  0  0  0  0  0  0  0  0  0
    0.9400    1.5235   -1.5409 N   0  0  0  0  0  0  0  0  0  0  0  0
   -0.3442    1.2320   -1.7259 C   0  0  0  0  0  0  0  0  0  0  0  0
   -0.7568    0.1363   -0.9612 C   0  0  0  0  0  0  0  0  0  0  0  0
    0.3865   -0.2829   -0.3036 C   0  0  0  0  0  0  0  0  0  0  0  0
    0.4674   -1.5135    0.5391 C   0  0  0  0  0  0  0  0  0  0  0  0
   -0.7492   -2.4590    0.2839 C   0  0  0  0  0  0  0  0  0  0  0  0
   -0.8502   -3.4589    1.4516 C   0  0  0  0  0  0  0  0  0  0  0  0
   -0.5420   -3.2649   -1.0149 C   0  0  0  0  0  0  0  0  0  0  0  0
   -2.0695   -1.6367    0.2128 C   0  0  0  0  0  0  0  0  0  0  0  0
   -2.0753   -0.5548   -0.8941 C   0  0  0  0  0  0  0  0  0  0  0  0
   -3.0915    0.4420   -0.6314 N   0  0  0  0  0  0  0  0  0  0  0  0
   -4.4167    0.2000   -0.9102 C   0  0  0  0  0  0  0  0  0  0  0  0
   -4.8022   -0.8203   -1.4704 O   0  0  0  0  0  0  0  0  0  0  0  0
   -5.3393    1.2358   -0.4801 C   0  0  0  0  0  0  0  0  0  0  0  0
   -6.7508    1.1966   -0.5736 C   0  0  0  0  0  0  0  0  0  0  0  0
   -7.3352    2.2985   -0.0964 N   0  0  0  0  0  0  0  0  0  0  0  0
   -6.3028    3.0578    0.2962 N   0  0  0  0  0  0  0  0  0  0  0  0
   -5.0864    2.4694    0.0920 C   0  0  0  0  0  0  0  0  0  0  0  0
    3.2241    0.0249    0.9488 C   0  0  0  0  0  0  0  0  0  0  0  0
    4.5552    0.1794    1.3593 C   0  0  0  0  0  0  0  0  0  0  0  0
    7.2899    2.9935    0.5934 H   0  0  0  0  0  0  0  0  0  0  0  0
    7.7697    1.6377   -0.5008 H   0  0  0  0  0  0  0  0  0  0  0  0
    8.5730    1.8693    1.0569 H   0  0  0  0  0  0  0  0  0  0  0  0
    5.5758    2.4493   -0.9582 H   0  0  0  0  0  0  0  0  0  0  0  0
    3.2788    2.1897   -1.6778 H   0  0  0  0  0  0  0  0  0  0  0  0
   -0.9230    1.8282   -2.4204 H   0  0  0  0  0  0  0  0  0  0  0  0
    0.4649   -1.2049    1.5921 H   0  0  0  0  0  0  0  0  0  0  0  0
    1.3945   -2.0631    0.3417 H   0  0  0  0  0  0  0  0  0  0  0  0
   -1.6817   -4.1571    1.3038 H   0  0  0  0  0  0  0  0  0  0  0  0
    0.0689   -4.0479    1.5479 H   0  0  0  0  0  0  0  0  0  0  0  0
   -1.0157   -2.9425    2.4037 H   0  0  0  0  0  0  0  0  0  0  0  0
   -1.4017   -3.9150   -1.2131 H   0  0  0  0  0  0  0  0  0  0  0  0
   -0.4060   -2.6209   -1.8891 H   0  0  0  0  0  0  0  0  0  0  0  0
    0.3457   -3.9037   -0.9420 H   0  0  0  0  0  0  0  0  0  0  0  0
   -2.9284   -2.3056    0.0700 H   0  0  0  0  0  0  0  0  0  0  0  0
   -2.2287   -1.1535    1.1884 H   0  0  0  0  0  0  0  0  0  0  0  0
   -2.2848   -1.0259   -1.8624 H   0  0  0  0  0  0  0  0  0  0  0  0
   -2.8529    1.2125   -0.0253 H   0  0  0  0  0  0  0  0  0  0  0  0
   -7.3683    0.4003   -0.9723 H   0  0  0  0  0  0  0  0  0  0  0  0
   -6.5024    3.9702    0.6944 H   0  0  0  0  0  0  0  0  0  0  0  0
   -4.1764    2.9848    0.3610 H   0  0  0  0  0  0  0  0  0  0  0  0
    2.6046   -0.6299    1.5456 H   0  0  0  0  0  0  0  0  0  0  0  0
    4.9174   -0.3753    2.2225 H   0  0  0  0  0  0  0  0  0  0  0  0
  1  2  1  0
  2  3  1  0
  3  4  2  0
  4  5  1  0
  5  6  2  0
  6  7  1  0
  7  8  1  0
  8  9  2  0
  9 10  1  0
 10 11  2  0
 11 12  1  0
 12 13  1  0
 13 14  1  0
 13 15  1  0
 13 16  1  0
 16 17  1  0
 17 18  1  0
 18 19  1  0
 19 20  2  0
 19 21  1  0
 21 22  1  0
 22 23  2  0
 23 24  1  0
 24 25  1  0
  6 26  1  0
 26 27  2  0
 27  3  1  0
 11  7  1  0
 25 21  2  0
 17 10  1  0
  1 28  1  0
  1 29  1  0
  1 30  1  0
  4 31  1  0
  5 32  1  0
  9 33  1  0
 12 34  1  0
 12 35  1  0
 14 36  1  0
 14 37  1  0
 14 38  1  0
 15 39  1  0
 15 40  1  0
 15 41  1  0
 16 42  1  0
 16 43  1  0
 17 44  1  0
 18 45  1  0
 22 46  1  0
 24 47  1  0
 25 48  1  0
 26 49  1  0
 27 50  1  0
M  END
$$$$
