
     RDKit          3D

 44 46  0  0  0  0  0  0  0  0999 V2000
    4.7195    2.1528   -1.2011 C   0  0  0  0  0  0  0  0  0  0  0  0
    4.0423    1.0582   -0.5901 O   0  0  0  0  0  0  0  0  0  0  0  0
    4.7971   -0.0120   -0.1755 C   0  0  0  0  0  0  0  0  0  0  0  0
    6.2014   -0.0027   -0.1765 C   0  0  0  0  0  0  0  0  0  0  0  0
    6.9281   -1.1138    0.2588 C   0  0  0  0  0  0  0  0  0  0  0  0
    6.2645   -2.2498    0.7021 C   0  0  0  0  0  0  0  0  0  0  0  0
    4.8708   -2.2737    0.7128 C   0  0  0  0  0  0  0  0  0  0  0  0
    4.1173   -1.1633    0.2815 C   0  0  0  0  0  0  0  0  0  0  0  0
    2.6175   -1.3174    0.3455 C   0  0  0  0  0  0  0  0  0  0  0  0
    2.1556   -2.4132    0.6526 O   0  0  0  0  0  0  0  0  0  0  0  0
    1.8674   -0.1950    0.0562 N   0  0  0  0  0  0  0  0  0  0  0  0
    0.4664   -0.0578    0.0487 C   0  0  0  0  0  0  0  0  0  0  0  0
   -0.4240   -1.0831    0.3648 C   0  0  0  0  0  0  0  0  0  0  0  0
   -1.8098   -0.8665    0.3316 C   0  0  0  0  0  0  0  0  0  0  0  0
   -2.3267    0.3834   -0.0213 C   0  0  0  0  0  0  0  0  0  0  0  0
   -3.8013    0.6650   -0.0809 C   0  0  0  0  0  0  0  0  0  0  0  0
   -4.1982    1.9007   -0.1908 N   0  0  0  0  0  0  0  0  0  0  0  0
   -5.5326    2.1499   -0.2805 N   0  0  0  0  0  0  0  0  0  0  0  0
   -6.5050    1.2323   -0.5837 C   0  0  0  0  0  0  0  0  0  0  0  0
   -7.6851    1.5496   -0.7050 O   0  0  0  0  0  0  0  0  0  0  0  0
   -6.0131   -0.1651   -0.8332 C   0  0  0  0  0  0  0  0  0  0  0  0
   -4.7958   -0.4855    0.0227 C   0  0  0  0  0  0  0  0  0  0  0  0
   -5.1772   -0.7143    1.4865 C   0  0  0  0  0  0  0  0  0  0  0  0
   -1.4311    1.4149   -0.3316 C   0  0  0  0  0  0  0  0  0  0  0  0
   -0.0495    1.1952   -0.2973 C   0  0  0  0  0  0  0  0  0  0  0  0
    5.3612    2.6697   -0.4793 H   0  0  0  0  0  0  0  0  0  0  0  0
    5.2858    1.8289   -2.0805 H   0  0  0  0  0  0  0  0  0  0  0  0
    3.9604    2.8645   -1.5392 H   0  0  0  0  0  0  0  0  0  0  0  0
    6.7701    0.8606   -0.5079 H   0  0  0  0  0  0  0  0  0  0  0  0
    8.0154   -1.0891    0.2517 H   0  0  0  0  0  0  0  0  0  0  0  0
    6.8258   -3.1168    1.0427 H   0  0  0  0  0  0  0  0  0  0  0  0
    4.3675   -3.1732    1.0656 H   0  0  0  0  0  0  0  0  0  0  0  0
    2.3996    0.6327   -0.1929 H   0  0  0  0  0  0  0  0  0  0  0  0
   -0.0733   -2.0715    0.6465 H   0  0  0  0  0  0  0  0  0  0  0  0
   -2.4503   -1.7006    0.6000 H   0  0  0  0  0  0  0  0  0  0  0  0
   -5.8193    3.1216   -0.2136 H   0  0  0  0  0  0  0  0  0  0  0  0
   -5.7575   -0.2331   -1.8974 H   0  0  0  0  0  0  0  0  0  0  0  0
   -6.8250   -0.8731   -0.6337 H   0  0  0  0  0  0  0  0  0  0  0  0
   -4.3555   -1.4047   -0.3770 H   0  0  0  0  0  0  0  0  0  0  0  0
   -4.2991   -0.9710    2.0881 H   0  0  0  0  0  0  0  0  0  0  0  0
   -5.6237    0.1792    1.9358 H   0  0  0  0  0  0  0  0  0  0  0  0
   -5.8962   -1.5352    1.5765 H   0  0  0  0  0  0  0  0  0  0  0  0
   -1.7981    2.4021   -0.6064 H   0  0  0  0  0  0  0  0  0  0  0  0
    0.6136    2.0200   -0.5461 H   0  0  0  0  0  0  0  0  0  0  0  0
  1  2  1  0
  2  3  1  0
  3  4  2  0
  4  5  1  0
  5  6  2  0
  6  7  1  0
  7  8  2  0
  8  9  1  0
  9 10  2  0
  9 11  1  0
 11 12  1  0
 12 13  2  0
 13 14  1  0
 14 15  2  0
 15 16  1  0
 16 17  2  0
 17 18  1  0
 18 19  1  0
 19 20  2  0
 19 21  1  0
 21 22  1  0
 22 23  1  0
 15 24  1  0
 24 25  2  0
  8  3  1  0
 25 12  1  0
 22 16  1  0
  1 26  1  0
  1 27  1  0
  1 28  1  0
  4 29  1  0
  5 30  1  0
  6 31  1  0
  7 32  1  0
 11 33  1  0
 13 34  1  0
 14 35  1  0
 18 36  1  0
 21 37  1  0
 21 38  1  0
 22 39  1  0
 23 40  1  0
 23 41  1  0
 23 42  1  0
 24 43  1  0
 25 44  1  0
M  END
$$$$
