
     RDKit          3D

 55 58  0  0  0  0  0  0  0  0999 V2000
    0.2418   -0.6183   -2.2675 O   0  0  0  0  0  0  0  0  0  0  0  0
    0.1747   -1.3528   -1.2830 C   0  0  0  0  0  0  0  0  0  0  0  0
    1.3968   -1.5877   -0.4939 C   0  0  0  0  0  0  0  0  0  0  0  0
    2.6036   -0.9512   -0.8229 C   0  0  0  0  0  0  0  0  0  0  0  0
    3.7658   -1.1676   -0.0695 C   0  0  0  0  0  0  0  0  0  0  0  0
    5.0019   -0.5710   -0.3616 N   0  0  0  0  0  0  0  0  0  0  0  0
    5.5526    0.2541    0.7440 C   0  0  0  0  0  0  0  0  0  0  0  0
    7.0045    0.6529    0.4302 C   0  0  0  0  0  0  0  0  0  0  0  0
    7.1090    1.3366   -0.8281 O   0  0  0  0  0  0  0  0  0  0  0  0
    6.6307    0.4914   -1.8869 C   0  0  0  0  0  0  0  0  0  0  0  0
    5.1594    0.1030   -1.6716 C   0  0  0  0  0  0  0  0  0  0  0  0
    3.6705   -2.0676    1.0085 C   0  0  0  0  0  0  0  0  0  0  0  0
    2.4694   -2.7059    1.3387 C   0  0  0  0  0  0  0  0  0  0  0  0
    1.3322   -2.4557    0.5808 C   0  0  0  0  0  0  0  0  0  0  0  0
    0.1310   -3.0833    0.8934 N   0  0  0  0  0  0  0  0  0  0  0  0
   -1.0381   -2.8909    0.2083 C   0  0  0  0  0  0  0  0  0  0  0  0
   -2.3594   -3.7647    0.7645 S   0  0  0  0  0  0  0  0  0  0  0  0
   -1.0024   -1.9988   -0.8634 N   0  0  0  0  0  0  0  0  0  0  0  0
   -2.1952   -1.6907   -1.6707 C   0  0  0  0  0  0  0  0  0  0  0  0
   -2.7961   -0.3047   -1.3846 C   0  0  0  0  0  0  0  0  0  0  0  0
   -3.4183   -0.1994    0.0130 C   0  0  0  0  0  0  0  0  0  0  0  0
   -3.9580    1.1399    0.2978 N   0  0  0  0  0  0  0  0  0  0  0  0
   -5.1913    1.4406   -0.4311 C   0  0  0  0  0  0  0  0  0  0  0  0
   -5.5331    2.9308   -0.2988 C   0  0  0  0  0  0  0  0  0  0  0  0
   -5.2077    3.5075    1.0802 C   0  0  0  0  0  0  0  0  0  0  0  0
   -5.1575    2.4077    2.1287 C   0  0  0  0  0  0  0  0  0  0  0  0
   -4.1445    1.3178    1.7511 C   0  0  0  0  0  0  0  0  0  0  0  0
    2.6056   -0.2721   -1.6708 H   0  0  0  0  0  0  0  0  0  0  0  0
    4.9410    1.1594    0.8510 H   0  0  0  0  0  0  0  0  0  0  0  0
    5.5452   -0.2787    1.7006 H   0  0  0  0  0  0  0  0  0  0  0  0
    7.6575   -0.2280    0.4115 H   0  0  0  0  0  0  0  0  0  0  0  0
    7.3786    1.3286    1.2058 H   0  0  0  0  0  0  0  0  0  0  0  0
    7.2691   -0.3980   -1.9498 H   0  0  0  0  0  0  0  0  0  0  0  0
    6.7350    1.0452   -2.8252 H   0  0  0  0  0  0  0  0  0  0  0  0
    4.5456    1.0124   -1.6951 H   0  0  0  0  0  0  0  0  0  0  0  0
    4.8520   -0.5608   -2.4880 H   0  0  0  0  0  0  0  0  0  0  0  0
    4.5576   -2.3054    1.5919 H   0  0  0  0  0  0  0  0  0  0  0  0
    2.4478   -3.3954    2.1775 H   0  0  0  0  0  0  0  0  0  0  0  0
    0.0934   -3.7292    1.6744 H   0  0  0  0  0  0  0  0  0  0  0  0
   -2.9666   -2.4569   -1.5572 H   0  0  0  0  0  0  0  0  0  0  0  0
   -1.8996   -1.7241   -2.7274 H   0  0  0  0  0  0  0  0  0  0  0  0
   -3.5567   -0.1188   -2.1505 H   0  0  0  0  0  0  0  0  0  0  0  0
   -2.0321    0.4728   -1.5023 H   0  0  0  0  0  0  0  0  0  0  0  0
   -4.1964   -0.9618    0.1434 H   0  0  0  0  0  0  0  0  0  0  0  0
   -2.6271   -0.4128    0.7422 H   0  0  0  0  0  0  0  0  0  0  0  0
   -6.0211    0.8255   -0.0583 H   0  0  0  0  0  0  0  0  0  0  0  0
   -5.0993    1.2236   -1.5001 H   0  0  0  0  0  0  0  0  0  0  0  0
   -6.6012    3.0635   -0.5099 H   0  0  0  0  0  0  0  0  0  0  0  0
   -4.9922    3.5096   -1.0577 H   0  0  0  0  0  0  0  0  0  0  0  0
   -5.9465    4.2691    1.3532 H   0  0  0  0  0  0  0  0  0  0  0  0
   -4.2347    4.0135    1.0419 H   0  0  0  0  0  0  0  0  0  0  0  0
   -6.1555    1.9611    2.2255 H   0  0  0  0  0  0  0  0  0  0  0  0
   -4.9018    2.8284    3.1077 H   0  0  0  0  0  0  0  0  0  0  0  0
   -4.4701    0.3840    2.2285 H   0  0  0  0  0  0  0  0  0  0  0  0
   -3.1702    1.5735    2.1853 H   0  0  0  0  0  0  0  0  0  0  0  0
  1  2  2  0
  2  3  1  0
  3  4  2  0
  4  5  1  0
  5  6  1  0
  6  7  1  0
  7  8  1  0
  8  9  1  0
  9 10  1  0
 10 11  1  0
  5 12  2  0
 12 13  1  0
 13 14  2  0
 14 15  1  0
 15 16  1  0
 16 17  2  0
 16 18  1  0
 18 19  1  0
 19 20  1  0
 20 21  1  0
 21 22  1  0
 22 23  1  0
 23 24  1  0
 24 25  1  0
 25 26  1  0
 26 27  1  0
 18  2  1  0
 27 22  1  0
 14  3  1  0
 11  6  1  0
  4 28  1  0
  7 29  1  0
  7 30  1  0
  8 31  1  0
  8 32  1  0
 10 33  1  0
 10 34  1  0
 11 35  1  0
 11 36  1  0
 12 37  1  0
 13 38  1  0
 15 39  1  0
 19 40  1  0
 19 41  1  0
 20 42  1  0
 20 43  1  0
 21 44  1  0
 21 45  1  0
 23 46  1  0
 23 47  1  0
 24 48  1  0
 24 49  1  0
 25 50  1  0
 25 51  1  0
 26 52  1  0
 26 53  1  0
 27 54  1  0
 27 55  1  0
M  END
$$$$
