
     RDKit          3D

 50 52  0  0  0  0  0  0  0  0999 V2000
   -5.0146   -0.0762   -4.0214 O   0  0  0  0  0  0  0  0  0  0  0  0
   -4.2169   -0.1689   -3.0918 C   0  0  0  0  0  0  0  0  0  0  0  0
   -3.0605   -1.1721   -3.1102 C   0  0  0  0  0  0  0  0  0  0  0  0
   -2.0668   -0.9493   -2.1058 O   0  0  0  0  0  0  0  0  0  0  0  0
   -1.1477   -0.0034   -2.4225 C   0  0  0  0  0  0  0  0  0  0  0  0
   -1.1193    0.6498   -3.4518 O   0  0  0  0  0  0  0  0  0  0  0  0
   -0.1623    0.1592   -1.3187 C   0  0  0  0  0  0  0  0  0  0  0  0
   -0.1456   -0.6823   -0.1950 C   0  0  0  0  0  0  0  0  0  0  0  0
    0.8005   -0.4884    0.8159 C   0  0  0  0  0  0  0  0  0  0  0  0
    1.7321    0.5465    0.6973 C   0  0  0  0  0  0  0  0  0  0  0  0
    2.9411    0.8145    1.9748 S   0  0  0  0  0  6  0  0  0  0  0  0
    2.7771   -0.2200    2.9732 O   0  0  0  0  0  0  0  0  0  0  0  0
    2.8640    2.2158    2.3274 O   0  0  0  0  0  0  0  0  0  0  0  0
    4.4084    0.5387    1.1573 N   0  0  0  0  0  0  0  0  0  0  0  0
    4.6675   -0.8222    0.6226 C   0  0  0  0  0  0  0  0  0  0  0  0
    5.2831   -1.7453    1.6695 C   0  0  0  0  0  0  0  0  0  0  0  0
    6.5124   -1.1223    2.3226 C   0  0  0  0  0  0  0  0  0  0  0  0
    6.1983    0.2709    2.8578 C   0  0  0  0  0  0  0  0  0  0  0  0
    5.6154    1.1555    1.7635 C   0  0  0  0  0  0  0  0  0  0  0  0
    1.7232    1.3950   -0.4134 C   0  0  0  0  0  0  0  0  0  0  0  0
    0.7775    1.1967   -1.4216 C   0  0  0  0  0  0  0  0  0  0  0  0
   -4.3145    0.5670   -1.9323 N   0  0  0  0  0  0  0  0  0  0  0  0
   -5.4359    1.4380   -1.6737 C   0  0  0  0  0  0  0  0  0  0  0  0
   -6.4334    0.6860   -0.8749 C   0  0  0  0  0  0  0  0  0  0  0  0
   -7.5772   -0.0116   -1.2040 C   0  0  0  0  0  0  0  0  0  0  0  0
   -8.0963   -0.5222    0.0095 C   0  0  0  0  0  0  0  0  0  0  0  0
   -7.2356   -0.1088    0.9990 C   0  0  0  0  0  0  0  0  0  0  0  0
   -6.2190    0.6216    0.4722 O   0  0  0  0  0  0  0  0  0  0  0  0
   -2.6107   -1.1898   -4.1097 H   0  0  0  0  0  0  0  0  0  0  0  0
   -3.4886   -2.1625   -2.9228 H   0  0  0  0  0  0  0  0  0  0  0  0
   -0.8618   -1.4943   -0.0914 H   0  0  0  0  0  0  0  0  0  0  0  0
    0.8023   -1.1422    1.6859 H   0  0  0  0  0  0  0  0  0  0  0  0
    5.3493   -0.7219   -0.2314 H   0  0  0  0  0  0  0  0  0  0  0  0
    3.7514   -1.2666    0.2224 H   0  0  0  0  0  0  0  0  0  0  0  0
    4.5461   -1.9842    2.4437 H   0  0  0  0  0  0  0  0  0  0  0  0
    5.5599   -2.6964    1.2003 H   0  0  0  0  0  0  0  0  0  0  0  0
    7.3240   -1.0580    1.5874 H   0  0  0  0  0  0  0  0  0  0  0  0
    6.8674   -1.7639    3.1367 H   0  0  0  0  0  0  0  0  0  0  0  0
    7.1131    0.7272    3.2524 H   0  0  0  0  0  0  0  0  0  0  0  0
    5.4937    0.1919    3.6940 H   0  0  0  0  0  0  0  0  0  0  0  0
    5.3896    2.1517    2.1568 H   0  0  0  0  0  0  0  0  0  0  0  0
    6.3552    1.3092    0.9678 H   0  0  0  0  0  0  0  0  0  0  0  0
    2.4445    2.2061   -0.4941 H   0  0  0  0  0  0  0  0  0  0  0  0
    0.7726    1.8585   -2.2869 H   0  0  0  0  0  0  0  0  0  0  0  0
   -3.7589    0.2779   -1.1375 H   0  0  0  0  0  0  0  0  0  0  0  0
   -5.8715    1.7957   -2.6118 H   0  0  0  0  0  0  0  0  0  0  0  0
   -5.0624    2.3000   -1.1123 H   0  0  0  0  0  0  0  0  0  0  0  0
   -7.9771   -0.1361   -2.2015 H   0  0  0  0  0  0  0  0  0  0  0  0
   -8.9864   -1.1197    0.1466 H   0  0  0  0  0  0  0  0  0  0  0  0
   -7.2065   -0.2446    2.0712 H   0  0  0  0  0  0  0  0  0  0  0  0
  1  2  2  0
  2  3  1  0
  3  4  1  0
  4  5  1  0
  5  6  2  0
  5  7  1  0
  7  8  2  0
  8  9  1  0
  9 10  2  0
 10 11  1  0
 11 12  2  0
 11 13  2  0
 11 14  1  0
 14 15  1  0
 15 16  1  0
 16 17  1  0
 17 18  1  0
 18 19  1  0
 10 20  1  0
 20 21  2  0
  2 22  1  0
 22 23  1  0
 23 24  1  0
 24 25  2  0
 25 26  1  0
 26 27  2  0
 27 28  1  0
 21  7  1  0
 28 24  1  0
 19 14  1  0
  3 29  1  0
  3 30  1  0
  8 31  1  0
  9 32  1  0
 15 33  1  0
 15 34  1  0
 16 35  1  0
 16 36  1  0
 17 37  1  0
 17 38  1  0
 18 39  1  0
 18 40  1  0
 19 41  1  0
 19 42  1  0
 20 43  1  0
 21 44  1  0
 22 45  1  0
 23 46  1  0
 23 47  1  0
 25 48  1  0
 26 49  1  0
 27 50  1  0
M  END
$$$$
