
     RDKit          3D

 51 53  0  0  0  0  0  0  0  0999 V2000
    4.8959    1.1913   -2.4629 O   0  0  0  0  0  0  0  0  0  0  0  0
    4.5590    0.7200   -1.3855 C   0  0  0  0  0  0  0  0  0  0  0  0
    3.2776    0.4014   -1.0077 N   0  0  0  0  0  0  0  0  0  0  0  0
    2.1965    0.4064   -1.9566 C   0  0  0  0  0  0  0  0  0  0  0  0
    0.9139    0.3340   -1.2185 C   0  0  0  0  0  0  0  0  0  0  0  0
   -0.1054    1.2340   -1.0008 C   0  0  0  0  0  0  0  0  0  0  0  0
   -1.0630    0.5661   -0.1981 C   0  0  0  0  0  0  0  0  0  0  0  0
   -0.5845   -0.7125    0.0209 C   0  0  0  0  0  0  0  0  0  0  0  0
   -1.0634   -1.8541    0.7571 C   0  0  0  0  0  0  0  0  0  0  0  0
   -2.2807   -2.1638    1.0998 N   0  0  0  0  0  0  0  0  0  0  0  0
   -3.3205   -1.4253    0.6297 N   0  0  0  0  0  0  0  0  0  0  0  0
   -4.6128   -1.6877    1.0428 C   0  0  0  0  0  0  0  0  0  0  0  0
   -4.9978   -2.4649    1.9058 O   0  0  0  0  0  0  0  0  0  0  0  0
   -5.6454   -0.8489    0.2696 C   0  0  0  0  0  0  0  0  0  0  0  0
   -5.2409   -0.0668   -0.5807 O   0  0  0  0  0  0  0  0  0  0  0  0
   -6.9354   -1.1150    0.6688 N   0  0  0  0  0  0  0  0  0  0  0  0
   -8.1370   -0.5522    0.1938 C   0  0  0  0  0  0  0  0  0  0  0  0
   -8.1720    0.4121   -0.8179 C   0  0  0  0  0  0  0  0  0  0  0  0
   -9.3911    0.9396   -1.2579 C   0  0  0  0  0  0  0  0  0  0  0  0
  -10.5892    0.5106   -0.6926 C   0  0  0  0  0  0  0  0  0  0  0  0
  -10.5726   -0.4483    0.3171 C   0  0  0  0  0  0  0  0  0  0  0  0
   -9.3547   -0.9760    0.7571 C   0  0  0  0  0  0  0  0  0  0  0  0
   -9.4074   -2.2806    2.1411 Br  0  0  0  0  0  0  0  0  0  0  0  0
    0.6352   -0.8433   -0.5884 O   0  0  0  0  0  0  0  0  0  0  0  0
    5.6240    0.4187   -0.3080 C   0  0  0  0  0  0  0  0  0  0  0  0
    5.2715   -0.1257    0.7282 O   0  0  0  0  0  0  0  0  0  0  0  0
    6.8790    0.8277   -0.7018 N   0  0  0  0  0  0  0  0  0  0  0  0
    8.0852    0.7186    0.0096 C   0  0  0  0  0  0  0  0  0  0  0  0
    9.2408    1.2113   -0.6089 C   0  0  0  0  0  0  0  0  0  0  0  0
   10.4783    1.1391    0.0349 C   0  0  0  0  0  0  0  0  0  0  0  0
   10.5705    0.5726    1.3033 C   0  0  0  0  0  0  0  0  0  0  0  0
    9.4262    0.0797    1.9253 C   0  0  0  0  0  0  0  0  0  0  0  0
    8.1871    0.1530    1.2816 C   0  0  0  0  0  0  0  0  0  0  0  0
    3.1805   -0.1263   -0.1434 H   0  0  0  0  0  0  0  0  0  0  0  0
    2.2541    1.3115   -2.5704 H   0  0  0  0  0  0  0  0  0  0  0  0
    2.3159   -0.4602   -2.6155 H   0  0  0  0  0  0  0  0  0  0  0  0
   -0.1458    2.2525   -1.3630 H   0  0  0  0  0  0  0  0  0  0  0  0
   -1.9778    0.9894    0.1931 H   0  0  0  0  0  0  0  0  0  0  0  0
   -0.2801   -2.5600    1.0835 H   0  0  0  0  0  0  0  0  0  0  0  0
   -3.2064   -0.8193   -0.1798 H   0  0  0  0  0  0  0  0  0  0  0  0
   -7.0178   -1.8137    1.4089 H   0  0  0  0  0  0  0  0  0  0  0  0
   -7.2650    0.7801   -1.2880 H   0  0  0  0  0  0  0  0  0  0  0  0
   -9.4006    1.6890   -2.0461 H   0  0  0  0  0  0  0  0  0  0  0  0
  -11.5341    0.9234   -1.0378 H   0  0  0  0  0  0  0  0  0  0  0  0
  -11.5112   -0.7787    0.7542 H   0  0  0  0  0  0  0  0  0  0  0  0
    6.9117    1.2523   -1.6257 H   0  0  0  0  0  0  0  0  0  0  0  0
    9.1945    1.6572   -1.5991 H   0  0  0  0  0  0  0  0  0  0  0  0
   11.3688    1.5244   -0.4545 H   0  0  0  0  0  0  0  0  0  0  0  0
   11.5319    0.5140    1.8067 H   0  0  0  0  0  0  0  0  0  0  0  0
    9.4936   -0.3641    2.9153 H   0  0  0  0  0  0  0  0  0  0  0  0
    7.3207   -0.2426    1.8017 H   0  0  0  0  0  0  0  0  0  0  0  0
  1  2  2  0
  2  3  1  0
  3  4  1  0
  4  5  1  0
  5  6  2  0
  6  7  1  0
  7  8  2  0
  8  9  1  0
  9 10  2  3
 10 11  1  0
 11 12  1  0
 12 13  2  0
 12 14  1  0
 14 15  2  0
 14 16  1  0
 16 17  1  0
 17 18  2  0
 18 19  1  0
 19 20  2  0
 20 21  1  0
 21 22  2  0
 22 23  1  0
  8 24  1  0
  2 25  1  0
 25 26  2  0
 25 27  1  0
 27 28  1  0
 28 29  2  0
 29 30  1  0
 30 31  2  0
 31 32  1  0
 32 33  2  0
 24  5  1  0
 33 28  1  0
 22 17  1  0
  3 34  1  0
  4 35  1  0
  4 36  1  0
  6 37  1  0
  7 38  1  0
  9 39  1  0
 11 40  1  0
 16 41  1  0
 18 42  1  0
 19 43  1  0
 20 44  1  0
 21 45  1  0
 27 46  1  0
 29 47  1  0
 30 48  1  0
 31 49  1  0
 32 50  1  0
 33 51  1  0
M  END
$$$$
