
     RDKit          3D

 46 49  0  0  0  0  0  0  0  0999 V2000
    5.0041   -0.6030    1.0792 C   0  0  0  0  0  0  0  0  0  0  0  0
    4.5718   -0.1495   -0.1047 C   0  0  0  0  0  0  0  0  0  0  0  0
    3.4218   -0.6749   -0.9381 C   0  0  0  0  0  0  0  0  0  0  0  0
    2.5180    0.4856   -1.4486 C   0  0  0  0  0  0  0  0  0  0  0  0
    1.0725    0.1678   -1.3191 N   0  0  0  0  0  0  0  0  0  0  0  0
    0.8149   -1.0986   -2.0341 C   0  0  0  0  0  0  0  0  0  0  0  0
    1.5734   -2.2758   -1.4038 C   0  0  0  0  0  0  0  0  0  0  0  0
    2.5033   -1.7494   -0.2939 C   0  0  0  0  0  0  0  0  0  0  0  0
    1.5911   -1.1077    0.7727 C   0  0  0  0  0  0  0  0  0  0  0  0
    0.7793    0.0415    0.1323 C   0  0  0  0  0  0  0  0  0  0  0  0
   -0.7080   -0.0041    0.3865 C   0  0  0  0  0  0  0  0  0  0  0  0
   -1.4261   -1.1761    0.4404 N   0  0  0  0  0  0  0  0  0  0  0  0
   -2.7562   -0.9326    0.6779 C   0  0  0  0  0  0  0  0  0  0  0  0
   -3.8259   -1.8262    0.8107 C   0  0  0  0  0  0  0  0  0  0  0  0
   -5.0942   -1.2879    1.0446 C   0  0  0  0  0  0  0  0  0  0  0  0
   -5.2812    0.0885    1.1389 C   0  0  0  0  0  0  0  0  0  0  0  0
   -4.1990    0.9658    1.0015 C   0  0  0  0  0  0  0  0  0  0  0  0
   -2.9078    0.4479    0.7678 C   0  0  0  0  0  0  0  0  0  0  0  0
   -1.6141    1.0353    0.5781 C   0  0  0  0  0  0  0  0  0  0  0  0
   -1.3111    2.5014    0.5731 C   0  0  0  0  0  0  0  0  0  0  0  0
   -1.3091    3.0997   -0.8316 C   0  0  0  0  0  0  0  0  0  0  0  0
   -1.1604    4.5177   -0.7648 O   0  0  0  0  0  0  0  0  0  0  0  0
    4.5436   -1.4387    1.5939 H   0  0  0  0  0  0  0  0  0  0  0  0
    5.8570   -0.1386    1.5667 H   0  0  0  0  0  0  0  0  0  0  0  0
    5.1219    0.6808   -0.5498 H   0  0  0  0  0  0  0  0  0  0  0  0
    3.8904   -1.1351   -1.8205 H   0  0  0  0  0  0  0  0  0  0  0  0
    2.7476    0.6866   -2.5035 H   0  0  0  0  0  0  0  0  0  0  0  0
    2.7306    1.4283   -0.9270 H   0  0  0  0  0  0  0  0  0  0  0  0
   -0.2586   -1.3153   -2.0699 H   0  0  0  0  0  0  0  0  0  0  0  0
    1.1107   -0.9897   -3.0858 H   0  0  0  0  0  0  0  0  0  0  0  0
    0.8652   -3.0021   -0.9876 H   0  0  0  0  0  0  0  0  0  0  0  0
    2.1565   -2.7983   -2.1713 H   0  0  0  0  0  0  0  0  0  0  0  0
    3.0797   -2.5781    0.1307 H   0  0  0  0  0  0  0  0  0  0  0  0
    0.9573   -1.8817    1.2189 H   0  0  0  0  0  0  0  0  0  0  0  0
    2.1956   -0.7062    1.5941 H   0  0  0  0  0  0  0  0  0  0  0  0
    1.1221    0.9666    0.6178 H   0  0  0  0  0  0  0  0  0  0  0  0
   -1.0410   -2.0991    0.3075 H   0  0  0  0  0  0  0  0  0  0  0  0
   -3.6828   -2.8989    0.7349 H   0  0  0  0  0  0  0  0  0  0  0  0
   -5.9466   -1.9545    1.1528 H   0  0  0  0  0  0  0  0  0  0  0  0
   -6.2759    0.4879    1.3198 H   0  0  0  0  0  0  0  0  0  0  0  0
   -4.3589    2.0368    1.0758 H   0  0  0  0  0  0  0  0  0  0  0  0
   -0.3455    2.6971    1.0549 H   0  0  0  0  0  0  0  0  0  0  0  0
   -2.0423    3.0350    1.1936 H   0  0  0  0  0  0  0  0  0  0  0  0
   -0.4804    2.7036   -1.4261 H   0  0  0  0  0  0  0  0  0  0  0  0
   -2.2395    2.8785   -1.3659 H   0  0  0  0  0  0  0  0  0  0  0  0
   -1.9635    4.8698   -0.3451 H   0  0  0  0  0  0  0  0  0  0  0  0
  1  2  2  0
  2  3  1  0
  3  4  1  0
  4  5  1  0
  5  6  1  0
  6  7  1  0
  7  8  1  0
  8  9  1  0
  9 10  1  0
 10 11  1  0
 11 12  1  0
 12 13  1  0
 13 14  2  0
 14 15  1  0
 15 16  2  0
 16 17  1  0
 17 18  2  0
 18 19  1  0
 19 20  1  0
 20 21  1  0
 21 22  1  0
  8  3  1  0
 19 11  2  0
 10  5  1  0
 18 13  1  0
  1 23  1  0
  1 24  1  0
  2 25  1  0
  3 26  1  0
  4 27  1  0
  4 28  1  0
  6 29  1  0
  6 30  1  0
  7 31  1  0
  7 32  1  0
  8 33  1  0
  9 34  1  0
  9 35  1  0
 10 36  1  0
 12 37  1  0
 14 38  1  0
 15 39  1  0
 16 40  1  0
 17 41  1  0
 20 42  1  0
 20 43  1  0
 21 44  1  0
 21 45  1  0
 22 46  1  0
M  END
$$$$
