
     RDKit          3D

 51 53  0  0  0  0  0  0  0  0999 V2000
   -6.0582    1.2850   -3.6408 C   0  0  0  0  0  0  0  0  0  0  0  0
   -6.3017    0.7545   -2.3451 O   0  0  0  0  0  0  0  0  0  0  0  0
   -5.3139    1.1240   -1.3847 C   0  0  0  0  0  0  0  0  0  0  0  0
   -4.0807    0.2312   -1.4903 C   0  0  0  0  0  0  0  0  0  0  0  0
   -3.0646    0.5625   -0.4018 C   0  0  0  0  0  0  0  0  0  0  0  0
   -1.8656   -0.2458   -0.4992 N   0  0  0  0  0  0  0  0  0  0  0  0
   -0.6809    0.1166   -1.0876 C   0  0  0  0  0  0  0  0  0  0  0  0
   -0.3497    1.6775   -1.7580 S   0  0  0  0  0  0  0  0  0  0  0  0
    1.4695    1.6333   -1.7762 C   0  0  0  0  0  0  0  0  0  0  0  0
    2.0446    1.5380   -0.3779 C   0  0  0  0  0  0  0  0  0  0  0  0
    1.5228    1.9687    0.6433 O   0  0  0  0  0  0  0  0  0  0  0  0
    3.2746    0.9453   -0.4343 O   0  0  0  0  0  0  0  0  0  0  0  0
    3.9322    0.7351    0.8283 C   0  0  0  0  0  0  0  0  0  0  0  0
    4.6405    2.0245    1.2705 C   0  0  0  0  0  0  0  0  0  0  0  0
    5.8901    1.7778    2.1178 C   0  0  0  0  0  0  0  0  0  0  0  0
    5.8056    0.4678    2.8894 C   0  0  0  0  0  0  0  0  0  0  0  0
    5.6641   -0.7332    1.9528 C   0  0  0  0  0  0  0  0  0  0  0  0
    4.9306   -0.4072    0.6513 C   0  0  0  0  0  0  0  0  0  0  0  0
    0.1512   -0.8953   -1.0881 N   0  0  0  0  0  0  0  0  0  0  0  0
   -0.4867   -1.9526   -0.4982 N   0  0  0  0  0  0  0  0  0  0  0  0
   -1.6951   -1.5647   -0.1282 C   0  0  0  0  0  0  0  0  0  0  0  0
   -2.6298   -2.4732    0.4790 C   0  0  0  0  0  0  0  0  0  0  0  0
   -2.7209   -3.8247    0.1906 C   0  0  0  0  0  0  0  0  0  0  0  0
   -3.7122   -4.4917    0.9660 C   0  0  0  0  0  0  0  0  0  0  0  0
   -4.3385   -3.6338    1.8406 C   0  0  0  0  0  0  0  0  0  0  0  0
   -3.7184   -2.0464    1.7291 S   0  0  0  0  0  0  0  0  0  0  0  0
   -5.1430    0.8674   -4.0704 H   0  0  0  0  0  0  0  0  0  0  0  0
   -5.9968    2.3772   -3.6050 H   0  0  0  0  0  0  0  0  0  0  0  0
   -6.8984    1.0064   -4.2850 H   0  0  0  0  0  0  0  0  0  0  0  0
   -5.0596    2.1844   -1.4854 H   0  0  0  0  0  0  0  0  0  0  0  0
   -5.7719    0.9920   -0.3992 H   0  0  0  0  0  0  0  0  0  0  0  0
   -4.3904   -0.8188   -1.4302 H   0  0  0  0  0  0  0  0  0  0  0  0
   -3.6187    0.3407   -2.4782 H   0  0  0  0  0  0  0  0  0  0  0  0
   -2.7811    1.6186   -0.4632 H   0  0  0  0  0  0  0  0  0  0  0  0
   -3.4851    0.4419    0.5985 H   0  0  0  0  0  0  0  0  0  0  0  0
    1.8017    0.7814   -2.3811 H   0  0  0  0  0  0  0  0  0  0  0  0
    1.8414    2.5527   -2.2359 H   0  0  0  0  0  0  0  0  0  0  0  0
    3.1957    0.4269    1.5833 H   0  0  0  0  0  0  0  0  0  0  0  0
    3.9293    2.6298    1.8462 H   0  0  0  0  0  0  0  0  0  0  0  0
    4.9078    2.6404    0.4022 H   0  0  0  0  0  0  0  0  0  0  0  0
    6.7696    1.7510    1.4625 H   0  0  0  0  0  0  0  0  0  0  0  0
    6.0401    2.6173    2.8064 H   0  0  0  0  0  0  0  0  0  0  0  0
    4.9435    0.5046    3.5660 H   0  0  0  0  0  0  0  0  0  0  0  0
    6.6917    0.3393    3.5194 H   0  0  0  0  0  0  0  0  0  0  0  0
    5.1364   -1.5351    2.4845 H   0  0  0  0  0  0  0  0  0  0  0  0
    6.6570   -1.1301    1.7089 H   0  0  0  0  0  0  0  0  0  0  0  0
    5.6575   -0.1355   -0.1262 H   0  0  0  0  0  0  0  0  0  0  0  0
    4.4249   -1.3025    0.2719 H   0  0  0  0  0  0  0  0  0  0  0  0
   -2.0937   -4.3108   -0.5491 H   0  0  0  0  0  0  0  0  0  0  0  0
   -3.9453   -5.5473    0.8900 H   0  0  0  0  0  0  0  0  0  0  0  0
   -5.1208   -3.8652    2.5502 H   0  0  0  0  0  0  0  0  0  0  0  0
  1  2  1  0
  2  3  1  0
  3  4  1  0
  4  5  1  0
  5  6  1  0
  6  7  1  0
  7  8  1  0
  8  9  1  0
  9 10  1  0
 10 11  2  0
 10 12  1  0
 12 13  1  0
 13 14  1  0
 14 15  1  0
 15 16  1  0
 16 17  1  0
 17 18  1  0
  7 19  2  0
 19 20  1  0
 20 21  2  0
 21 22  1  0
 22 23  2  0
 23 24  1  0
 24 25  2  0
 25 26  1  0
 21  6  1  0
 26 22  1  0
 18 13  1  0
  1 27  1  0
  1 28  1  0
  1 29  1  0
  3 30  1  0
  3 31  1  0
  4 32  1  0
  4 33  1  0
  5 34  1  0
  5 35  1  0
  9 36  1  0
  9 37  1  0
 13 38  1  0
 14 39  1  0
 14 40  1  0
 15 41  1  0
 15 42  1  0
 16 43  1  0
 16 44  1  0
 17 45  1  0
 17 46  1  0
 18 47  1  0
 18 48  1  0
 23 49  1  0
 24 50  1  0
 25 51  1  0
M  END
$$$$
