
     RDKit          3D

 44 46  0  0  0  0  0  0  0  0999 V2000
    1.4539   -2.1647    1.8556 C   0  0  0  0  0  0  0  0  0  0  0  0
    1.4984   -0.7367    1.7356 O   0  0  0  0  0  0  0  0  0  0  0  0
    0.7339   -0.3420    0.6677 C   0  0  0  0  0  0  0  0  0  0  0  0
   -0.5958    0.0085    0.9185 C   0  0  0  0  0  0  0  0  0  0  0  0
   -1.4342    0.3755   -0.1400 C   0  0  0  0  0  0  0  0  0  0  0  0
   -2.8432    0.7086    0.0990 C   0  0  0  0  0  0  0  0  0  0  0  0
   -3.8180   -0.1889    0.3663 C   0  0  0  0  0  0  0  0  0  0  0  0
   -3.5209   -1.5880    0.4362 C   0  0  0  0  0  0  0  0  0  0  0  0
   -3.3076   -2.7289    0.4956 N   0  0  0  0  0  0  0  0  0  0  0  0
   -5.2188    0.2698    0.5829 C   0  0  0  0  0  0  0  0  0  0  0  0
   -6.2901   -0.6225    0.6796 C   0  0  0  0  0  0  0  0  0  0  0  0
   -7.5785   -0.1274    0.8837 C   0  0  0  0  0  0  0  0  0  0  0  0
   -7.7752    1.2429    0.9887 C   0  0  0  0  0  0  0  0  0  0  0  0
   -6.6696    2.0663    0.8846 C   0  0  0  0  0  0  0  0  0  0  0  0
   -5.4112    1.6139    0.6843 N   0  0  0  0  0  0  0  0  0  0  0  0
   -0.9284    0.4055   -1.4441 C   0  0  0  0  0  0  0  0  0  0  0  0
    0.4088    0.0785   -1.6859 C   0  0  0  0  0  0  0  0  0  0  0  0
    1.2532   -0.2694   -0.6293 C   0  0  0  0  0  0  0  0  0  0  0  0
    2.5405   -0.5752   -0.9789 O   0  0  0  0  0  0  0  0  0  0  0  0
    3.5269    0.0576   -0.1573 C   0  0  0  0  0  0  0  0  0  0  0  0
    4.7683    0.2467   -0.9983 C   0  0  0  0  0  0  0  0  0  0  0  0
    5.6371   -0.8322   -1.2294 C   0  0  0  0  0  0  0  0  0  0  0  0
    6.7767   -0.6666   -2.0202 C   0  0  0  0  0  0  0  0  0  0  0  0
    7.0480    0.5754   -2.5907 C   0  0  0  0  0  0  0  0  0  0  0  0
    8.4516    0.7797   -3.5653 Cl  0  0  0  0  0  0  0  0  0  0  0  0
    6.1883    1.6521   -2.3809 C   0  0  0  0  0  0  0  0  0  0  0  0
    5.0480    1.4869   -1.5904 C   0  0  0  0  0  0  0  0  0  0  0  0
    0.4269   -2.5243    2.0093 H   0  0  0  0  0  0  0  0  0  0  0  0
    2.0420   -2.4411    2.7373 H   0  0  0  0  0  0  0  0  0  0  0  0
    1.9024   -2.6503    0.9774 H   0  0  0  0  0  0  0  0  0  0  0  0
   -0.9725   -0.0294    1.9384 H   0  0  0  0  0  0  0  0  0  0  0  0
   -3.0650    1.7742    0.0255 H   0  0  0  0  0  0  0  0  0  0  0  0
   -6.1542   -1.6981    0.5954 H   0  0  0  0  0  0  0  0  0  0  0  0
   -8.4215   -0.8120    0.9583 H   0  0  0  0  0  0  0  0  0  0  0  0
   -8.7642    1.6576    1.1485 H   0  0  0  0  0  0  0  0  0  0  0  0
   -6.7662    3.1460    0.9606 H   0  0  0  0  0  0  0  0  0  0  0  0
   -1.5684    0.6773   -2.2814 H   0  0  0  0  0  0  0  0  0  0  0  0
    0.7962    0.1004   -2.7018 H   0  0  0  0  0  0  0  0  0  0  0  0
    3.7753   -0.5860    0.6954 H   0  0  0  0  0  0  0  0  0  0  0  0
    3.1883    1.0312    0.2231 H   0  0  0  0  0  0  0  0  0  0  0  0
    5.4232   -1.8093   -0.7975 H   0  0  0  0  0  0  0  0  0  0  0  0
    7.4423   -1.5087   -2.1888 H   0  0  0  0  0  0  0  0  0  0  0  0
    6.3962    2.6176   -2.8308 H   0  0  0  0  0  0  0  0  0  0  0  0
    4.3769    2.3294   -1.4427 H   0  0  0  0  0  0  0  0  0  0  0  0
  1  2  1  0
  2  3  1  0
  3  4  2  0
  4  5  1  0
  5  6  1  0
  6  7  2  3
  7  8  1  0
  8  9  3  0
  7 10  1  0
 10 11  2  0
 11 12  1  0
 12 13  2  0
 13 14  1  0
 14 15  2  0
  5 16  2  0
 16 17  1  0
 17 18  2  0
 18 19  1  0
 19 20  1  0
 20 21  1  0
 21 22  2  0
 22 23  1  0
 23 24  2  0
 24 25  1  0
 24 26  1  0
 26 27  2  0
 18  3  1  0
 27 21  1  0
 15 10  1  0
  1 28  1  0
  1 29  1  0
  1 30  1  0
  4 31  1  0
  6 32  1  0
 11 33  1  0
 12 34  1  0
 13 35  1  0
 14 36  1  0
 16 37  1  0
 17 38  1  0
 20 39  1  0
 20 40  1  0
 22 41  1  0
 23 42  1  0
 26 43  1  0
 27 44  1  0
M  END
$$$$
