
     RDKit          3D

 41 42  0  0  0  0  0  0  0  0999 V2000
   -3.9272   -0.3625   -1.2324 C   0  0  0  0  0  0  0  0  0  0  0  0
   -2.7294   -0.3746   -0.3071 C   0  0  0  0  0  0  0  0  0  0  0  0
   -2.5524    0.4452    0.7521 C   0  0  0  0  0  0  0  0  0  0  0  0
   -3.5409    1.4961    1.2024 C   0  0  0  0  0  0  0  0  0  0  0  0
   -1.2966    0.4086    1.6021 C   0  0  0  0  0  0  0  0  0  0  0  0
   -0.3857   -0.8202    1.4716 C   0  0  0  0  0  0  0  0  0  0  0  0
    1.0541   -0.3959    1.1695 C   0  0  0  0  0  0  0  0  0  0  0  0
    1.9409   -0.6240    1.9880 O   0  0  0  0  0  0  0  0  0  0  0  0
    1.2239    0.2169   -0.0625 N   0  0  0  0  0  0  0  0  0  0  0  0
    2.4318    0.6800   -0.6325 C   0  0  0  0  0  0  0  0  0  0  0  0
    3.6731    0.6235    0.0082 C   0  0  0  0  0  0  0  0  0  0  0  0
    4.8380    1.0695   -0.6308 C   0  0  0  0  0  0  0  0  0  0  0  0
    4.7737    1.5961   -1.9172 C   0  0  0  0  0  0  0  0  0  0  0  0
    3.5315    1.6703   -2.5549 C   0  0  0  0  0  0  0  0  0  0  0  0
    3.4436    2.2428   -3.9043 N   0  0  0  0  0  4  0  0  0  0  0  0
    2.3374    2.6839   -4.2613 O   0  0  0  0  0  0  0  0  0  0  0  0
    4.4791    2.2677   -4.5906 O   0  0  0  0  0  1  0  0  0  0  0  0
    2.3639    1.2157   -1.9216 C   0  0  0  0  0  0  0  0  0  0  0  0
   -0.8440   -1.9176    0.5026 C   0  0  0  0  0  0  0  0  0  0  0  0
   -1.5450   -3.0308    1.2598 C   0  0  0  0  0  0  0  0  0  0  0  0
   -2.7304   -3.3038    1.2428 O   0  0  0  0  0  0  0  0  0  0  0  0
   -0.6768   -3.7794    1.9863 O   0  0  0  0  0  0  0  0  0  0  0  0
   -1.7068   -1.4279   -0.6645 C   0  0  0  0  0  0  0  0  0  0  0  0
   -4.5510   -1.2410   -1.0280 H   0  0  0  0  0  0  0  0  0  0  0  0
   -3.5925   -0.3993   -2.2777 H   0  0  0  0  0  0  0  0  0  0  0  0
   -4.5604    0.5262   -1.1344 H   0  0  0  0  0  0  0  0  0  0  0  0
   -3.1082    2.4960    1.0591 H   0  0  0  0  0  0  0  0  0  0  0  0
   -3.7584    1.3734    2.2721 H   0  0  0  0  0  0  0  0  0  0  0  0
   -4.5044    1.4655    0.6839 H   0  0  0  0  0  0  0  0  0  0  0  0
   -0.7318    1.3306    1.3899 H   0  0  0  0  0  0  0  0  0  0  0  0
   -1.5924    0.4925    2.6625 H   0  0  0  0  0  0  0  0  0  0  0  0
   -0.3258   -1.2586    2.4788 H   0  0  0  0  0  0  0  0  0  0  0  0
    0.3890    0.3641   -0.6145 H   0  0  0  0  0  0  0  0  0  0  0  0
    3.7797    0.2195    1.0154 H   0  0  0  0  0  0  0  0  0  0  0  0
    5.7939    1.0052   -0.1164 H   0  0  0  0  0  0  0  0  0  0  0  0
    5.6870    1.9450   -2.3995 H   0  0  0  0  0  0  0  0  0  0  0  0
    1.4073    1.2813   -2.4384 H   0  0  0  0  0  0  0  0  0  0  0  0
    0.0300   -2.4105    0.0422 H   0  0  0  0  0  0  0  0  0  0  0  0
   -1.2323   -4.4623    2.4093 H   0  0  0  0  0  0  0  0  0  0  0  0
   -1.0690   -1.0139   -1.4622 H   0  0  0  0  0  0  0  0  0  0  0  0
   -2.2164   -2.2934   -1.1189 H   0  0  0  0  0  0  0  0  0  0  0  0
  1  2  1  0
  2  3  2  0
  3  4  1  0
  3  5  1  0
  5  6  1  0
  6  7  1  0
  7  8  2  0
  7  9  1  0
  9 10  1  0
 10 11  2  0
 11 12  1  0
 12 13  2  0
 13 14  1  0
 14 15  1  0
 15 16  2  0
 15 17  1  0
 14 18  2  0
  6 19  1  0
 19 20  1  0
 20 21  2  0
 20 22  1  0
 19 23  1  0
 23  2  1  0
 18 10  1  0
  1 24  1  0
  1 25  1  0
  1 26  1  0
  4 27  1  0
  4 28  1  0
  4 29  1  0
  5 30  1  0
  5 31  1  0
  6 32  1  0
  9 33  1  0
 11 34  1  0
 12 35  1  0
 13 36  1  0
 18 37  1  0
 19 38  1  0
 22 39  1  0
 23 40  1  0
 23 41  1  0
M  CHG  2  15   1  17  -1
M  END
$$$$
