
     RDKit          3D

 43 44  0  0  0  0  0  0  0  0999 V2000
   -6.6056    1.3966   -0.3550 C   0  0  0  0  0  0  0  0  0  0  0  0
   -5.7165    0.7693   -1.4199 C   0  0  0  0  0  0  0  0  0  0  0  0
   -4.2308    1.0625   -1.2078 C   0  0  0  0  0  0  0  0  0  0  0  0
   -3.6650    0.3072   -0.0664 C   0  0  0  0  0  0  0  0  0  0  0  0
   -3.1690   -0.9114   -0.0330 N   0  0  0  0  0  0  0  0  0  0  0  0
   -2.7934   -1.1354    1.2715 N   0  0  0  0  0  0  0  0  0  0  0  0
   -3.0732   -0.0336    1.9441 C   0  0  0  0  0  0  0  0  0  0  0  0
   -2.7271    0.1978    3.6280 S   0  0  0  0  0  0  0  0  0  0  0  0
   -1.5378   -1.1463    3.9120 C   0  0  0  0  0  0  0  0  0  0  0  0
   -0.1876   -0.8059    3.2997 C   0  0  0  0  0  0  0  0  0  0  0  0
    0.6579   -0.1981    3.9518 O   0  0  0  0  0  0  0  0  0  0  0  0
   -0.0552   -1.2286    1.9864 N   0  0  0  0  0  0  0  0  0  0  0  0
    1.0523   -1.0460    1.1343 C   0  0  0  0  0  0  0  0  0  0  0  0
    0.8748   -1.3744   -0.2161 C   0  0  0  0  0  0  0  0  0  0  0  0
    1.9165   -1.2041   -1.1337 C   0  0  0  0  0  0  0  0  0  0  0  0
    3.1551   -0.7082   -0.7132 C   0  0  0  0  0  0  0  0  0  0  0  0
    4.2263   -0.5330   -1.7317 C   0  0  0  0  0  0  0  0  0  0  0  0
    4.0569   -0.7241   -2.9252 O   0  0  0  0  0  0  0  0  0  0  0  0
    5.3857   -0.1426   -1.1443 O   0  0  0  0  0  0  0  0  0  0  0  0
    6.5035    0.0374   -2.0280 C   0  0  0  0  0  0  0  0  0  0  0  0
    6.4958    1.4419   -2.6061 C   0  0  0  0  0  0  0  0  0  0  0  0
    3.3374   -0.3892    0.6377 C   0  0  0  0  0  0  0  0  0  0  0  0
    2.2920   -0.5599    1.5544 C   0  0  0  0  0  0  0  0  0  0  0  0
   -3.6380    0.9286    1.1524 O   0  0  0  0  0  0  0  0  0  0  0  0
   -6.3786    1.0047    0.6401 H   0  0  0  0  0  0  0  0  0  0  0  0
   -6.4805    2.4843   -0.3354 H   0  0  0  0  0  0  0  0  0  0  0  0
   -7.6583    1.1829   -0.5658 H   0  0  0  0  0  0  0  0  0  0  0  0
   -5.8944   -0.3150   -1.4507 H   0  0  0  0  0  0  0  0  0  0  0  0
   -6.0165    1.1668   -2.3949 H   0  0  0  0  0  0  0  0  0  0  0  0
   -4.0669    2.1383   -1.0710 H   0  0  0  0  0  0  0  0  0  0  0  0
   -3.6847    0.7714   -2.1133 H   0  0  0  0  0  0  0  0  0  0  0  0
   -1.3960   -1.2677    4.9906 H   0  0  0  0  0  0  0  0  0  0  0  0
   -1.9115   -2.1032    3.5347 H   0  0  0  0  0  0  0  0  0  0  0  0
   -0.8953   -1.5938    1.5375 H   0  0  0  0  0  0  0  0  0  0  0  0
   -0.0795   -1.7572   -0.5755 H   0  0  0  0  0  0  0  0  0  0  0  0
    1.7529   -1.4564   -2.1809 H   0  0  0  0  0  0  0  0  0  0  0  0
    6.5101   -0.7215   -2.8183 H   0  0  0  0  0  0  0  0  0  0  0  0
    7.4110   -0.1116   -1.4344 H   0  0  0  0  0  0  0  0  0  0  0  0
    7.3628    1.5957   -3.2557 H   0  0  0  0  0  0  0  0  0  0  0  0
    5.5844    1.6264   -3.1842 H   0  0  0  0  0  0  0  0  0  0  0  0
    6.5206    2.1879   -1.8058 H   0  0  0  0  0  0  0  0  0  0  0  0
    4.2842    0.0057    0.9968 H   0  0  0  0  0  0  0  0  0  0  0  0
    2.4811   -0.3060    2.5940 H   0  0  0  0  0  0  0  0  0  0  0  0
  1  2  1  0
  2  3  1  0
  3  4  1  0
  4  5  2  0
  5  6  1  0
  6  7  2  0
  7  8  1  0
  8  9  1  0
  9 10  1  0
 10 11  2  0
 10 12  1  0
 12 13  1  0
 13 14  2  0
 14 15  1  0
 15 16  2  0
 16 17  1  0
 17 18  2  0
 17 19  1  0
 19 20  1  0
 20 21  1  0
 16 22  1  0
 22 23  2  0
  7 24  1  0
 24  4  1  0
 23 13  1  0
  1 25  1  0
  1 26  1  0
  1 27  1  0
  2 28  1  0
  2 29  1  0
  3 30  1  0
  3 31  1  0
  9 32  1  0
  9 33  1  0
 12 34  1  0
 14 35  1  0
 15 36  1  0
 20 37  1  0
 20 38  1  0
 21 39  1  0
 21 40  1  0
 21 41  1  0
 22 42  1  0
 23 43  1  0
M  END
$$$$
