
     RDKit          3D

 45 47  0  0  0  0  0  0  0  0999 V2000
    7.2073    0.8894    2.0444 N   0  0  0  0  0  0  0  0  0  0  0  0
    6.0574    0.7512    2.1499 C   0  0  0  0  0  0  0  0  0  0  0  0
    4.6461    0.5724    2.2581 C   0  0  0  0  0  0  0  0  0  0  0  0
    4.0665    0.8730    3.5265 C   0  0  0  0  0  0  0  0  0  0  0  0
    3.5886    1.1259    4.5565 N   0  0  0  0  0  0  0  0  0  0  0  0
    3.9021    0.1481    1.2060 C   0  0  0  0  0  0  0  0  0  0  0  0
    2.4550   -0.0849    1.2867 C   0  0  0  0  0  0  0  0  0  0  0  0
    1.6764   -0.2994    0.2104 C   0  0  0  0  0  0  0  0  0  0  0  0
    0.2562   -0.5813    0.3518 C   0  0  0  0  0  0  0  0  0  0  0  0
   -0.6329   -0.6129   -0.6673 C   0  0  0  0  0  0  0  0  0  0  0  0
   -1.9911   -0.9823   -0.5197 N   0  0  0  0  0  0  0  0  0  0  0  0
   -2.6291   -1.2245    0.7881 C   0  0  0  0  0  0  0  0  0  0  0  0
   -3.0348    0.1005    1.4314 C   0  0  0  0  0  0  0  0  0  0  0  0
   -4.3754    0.6712    0.9618 C   0  0  0  0  0  0  0  0  0  0  0  0
   -4.8227    0.4205   -0.4834 C   0  0  0  0  0  0  0  0  0  0  0  0
   -3.7348    0.4307   -1.5543 C   0  0  0  0  0  0  0  0  0  0  0  0
   -2.9708   -0.8923   -1.6165 C   0  0  0  0  0  0  0  0  0  0  0  0
   -0.1570   -0.2299   -2.0659 C   0  0  0  0  0  0  0  0  0  0  0  0
    1.2290    0.4175   -2.1290 C   0  0  0  0  0  0  0  0  0  0  0  0
    2.2140   -0.2913   -1.2045 C   0  0  0  0  0  0  0  0  0  0  0  0
    3.6000    0.3576   -1.2890 C   0  0  0  0  0  0  0  0  0  0  0  0
    4.5002   -0.1489   -0.1635 C   0  0  0  0  0  0  0  0  0  0  0  0
    1.9901   -0.0880    2.2712 H   0  0  0  0  0  0  0  0  0  0  0  0
   -0.0664   -0.8116    1.3604 H   0  0  0  0  0  0  0  0  0  0  0  0
   -1.9465   -1.7721    1.4484 H   0  0  0  0  0  0  0  0  0  0  0  0
   -3.5016   -1.8787    0.6878 H   0  0  0  0  0  0  0  0  0  0  0  0
   -2.2539    0.8551    1.2838 H   0  0  0  0  0  0  0  0  0  0  0  0
   -3.1080   -0.0625    2.5180 H   0  0  0  0  0  0  0  0  0  0  0  0
   -4.3654    1.7550    1.1488 H   0  0  0  0  0  0  0  0  0  0  0  0
   -5.1634    0.2749    1.6193 H   0  0  0  0  0  0  0  0  0  0  0  0
   -5.5621    1.1906   -0.7352 H   0  0  0  0  0  0  0  0  0  0  0  0
   -5.3655   -0.5314   -0.5272 H   0  0  0  0  0  0  0  0  0  0  0  0
   -4.2234    0.5780   -2.5273 H   0  0  0  0  0  0  0  0  0  0  0  0
   -3.0591    1.2810   -1.4046 H   0  0  0  0  0  0  0  0  0  0  0  0
   -3.6649   -1.7370   -1.5594 H   0  0  0  0  0  0  0  0  0  0  0  0
   -2.4923   -0.9982   -2.5921 H   0  0  0  0  0  0  0  0  0  0  0  0
   -0.8570    0.4887   -2.5161 H   0  0  0  0  0  0  0  0  0  0  0  0
   -0.1537   -1.1330   -2.6903 H   0  0  0  0  0  0  0  0  0  0  0  0
    1.1436    1.4761   -1.8504 H   0  0  0  0  0  0  0  0  0  0  0  0
    1.5893    0.3986   -3.1625 H   0  0  0  0  0  0  0  0  0  0  0  0
    2.3084   -1.3411   -1.5258 H   0  0  0  0  0  0  0  0  0  0  0  0
    4.0559    0.1237   -2.2570 H   0  0  0  0  0  0  0  0  0  0  0  0
    3.5215    1.4500   -1.2336 H   0  0  0  0  0  0  0  0  0  0  0  0
    4.6378   -1.2352   -0.2613 H   0  0  0  0  0  0  0  0  0  0  0  0
    5.4868    0.3068   -0.2942 H   0  0  0  0  0  0  0  0  0  0  0  0
  1  2  3  0
  2  3  1  0
  3  4  1  0
  4  5  3  0
  3  6  2  3
  6  7  1  0
  7  8  2  0
  8  9  1  0
  9 10  2  0
 10 11  1  0
 11 12  1  0
 12 13  1  0
 13 14  1  0
 14 15  1  0
 15 16  1  0
 16 17  1  0
 10 18  1  0
 18 19  1  0
 19 20  1  0
 20 21  1  0
 21 22  1  0
 22  6  1  0
 20  8  1  0
 17 11  1  0
  7 23  1  0
  9 24  1  0
 12 25  1  0
 12 26  1  0
 13 27  1  0
 13 28  1  0
 14 29  1  0
 14 30  1  0
 15 31  1  0
 15 32  1  0
 16 33  1  0
 16 34  1  0
 17 35  1  0
 17 36  1  0
 18 37  1  0
 18 38  1  0
 19 39  1  0
 19 40  1  0
 20 41  1  0
 21 42  1  0
 21 43  1  0
 22 44  1  0
 22 45  1  0
M  END
$$$$
