
     RDKit          3D

 52 55  0  0  0  0  0  0  0  0999 V2000
    7.3338   -0.3941    3.4229 C   0  0  0  0  0  0  0  0  0  0  0  0
    6.1183   -0.5795    2.5668 C   0  0  0  0  0  0  0  0  0  0  0  0
    5.4925   -1.8293    2.5132 C   0  0  0  0  0  0  0  0  0  0  0  0
    4.3449   -2.0378    1.7422 C   0  0  0  0  0  0  0  0  0  0  0  0
    3.8584   -0.9447    1.0356 C   0  0  0  0  0  0  0  0  0  0  0  0
    2.7588   -0.9514    0.2358 O   0  0  0  0  0  0  0  0  0  0  0  0
    2.6249    0.3064   -0.2950 C   0  0  0  0  0  0  0  0  0  0  0  0
    1.5734    0.5752   -1.2690 C   0  0  0  0  0  0  0  0  0  0  0  0
    1.7465    1.4011   -2.1680 O   0  0  0  0  0  0  0  0  0  0  0  0
    0.3496   -0.1103   -1.1694 N   0  0  0  0  0  0  0  0  0  0  0  0
   -0.6921    0.1525   -2.1538 C   0  0  0  0  0  0  0  0  0  0  0  0
   -1.9158    0.7841   -1.4908 C   0  0  0  0  0  0  0  0  0  0  0  0
   -2.4410   -0.0519   -0.2933 C   0  0  0  0  0  0  0  0  0  0  0  0
   -2.3306    0.7659    0.8912 O   0  0  0  0  0  0  0  0  0  0  0  0
   -3.9329   -0.3639   -0.4742 C   0  0  0  0  0  0  0  0  0  0  0  0
   -4.4421   -1.6649   -0.5891 C   0  0  0  0  0  0  0  0  0  0  0  0
   -5.8106   -1.8886   -0.7713 C   0  0  0  0  0  0  0  0  0  0  0  0
   -6.7024   -0.8186   -0.8293 C   0  0  0  0  0  0  0  0  0  0  0  0
   -6.2362    0.4938   -0.6931 C   0  0  0  0  0  0  0  0  0  0  0  0
   -7.1837    1.6706   -0.7210 C   0  0  0  0  0  0  0  0  0  0  0  0
   -7.0731    2.4048   -1.8642 F   0  0  0  0  0  0  0  0  0  0  0  0
   -8.4981    1.3157   -0.6283 F   0  0  0  0  0  0  0  0  0  0  0  0
   -6.9607    2.5378    0.3072 F   0  0  0  0  0  0  0  0  0  0  0  0
   -4.8558    0.7064   -0.5275 C   0  0  0  0  0  0  0  0  0  0  0  0
   -1.5441   -1.2812   -0.0291 C   0  0  0  0  0  0  0  0  0  0  0  0
   -0.0599   -0.8987    0.0020 C   0  0  0  0  0  0  0  0  0  0  0  0
    3.6553    1.1270    0.1735 C   0  0  0  0  0  0  0  0  0  0  0  0
    3.8882    2.5565   -0.1573 C   0  0  0  0  0  0  0  0  0  0  0  0
    4.4424    0.3143    1.0482 C   0  0  0  0  0  0  0  0  0  0  0  0
    5.5906    0.5088    1.8389 C   0  0  0  0  0  0  0  0  0  0  0  0
    7.8514    0.5406    3.1763 H   0  0  0  0  0  0  0  0  0  0  0  0
    7.0473   -0.3634    4.4777 H   0  0  0  0  0  0  0  0  0  0  0  0
    8.0440   -1.2134    3.2671 H   0  0  0  0  0  0  0  0  0  0  0  0
    5.9072   -2.6644    3.0763 H   0  0  0  0  0  0  0  0  0  0  0  0
    3.8520   -3.0028    1.6954 H   0  0  0  0  0  0  0  0  0  0  0  0
   -0.3339    0.8049   -2.9557 H   0  0  0  0  0  0  0  0  0  0  0  0
   -0.9537   -0.8035   -2.6286 H   0  0  0  0  0  0  0  0  0  0  0  0
   -2.6804    0.9020   -2.2715 H   0  0  0  0  0  0  0  0  0  0  0  0
   -1.6545    1.7991   -1.1524 H   0  0  0  0  0  0  0  0  0  0  0  0
   -3.0906    0.5593    1.4630 H   0  0  0  0  0  0  0  0  0  0  0  0
   -3.7950   -2.5357   -0.5424 H   0  0  0  0  0  0  0  0  0  0  0  0
   -6.1837   -2.9069   -0.8664 H   0  0  0  0  0  0  0  0  0  0  0  0
   -7.7651   -1.0138   -0.9706 H   0  0  0  0  0  0  0  0  0  0  0  0
   -4.4909    1.7319   -0.4277 H   0  0  0  0  0  0  0  0  0  0  0  0
   -1.8037   -1.7543    0.9292 H   0  0  0  0  0  0  0  0  0  0  0  0
   -1.6843   -2.0388   -0.8124 H   0  0  0  0  0  0  0  0  0  0  0  0
    0.1716   -0.3225    0.9123 H   0  0  0  0  0  0  0  0  0  0  0  0
    0.5306   -1.8237    0.0191 H   0  0  0  0  0  0  0  0  0  0  0  0
    3.2603    3.1981    0.4692 H   0  0  0  0  0  0  0  0  0  0  0  0
    4.9379    2.8286    0.0137 H   0  0  0  0  0  0  0  0  0  0  0  0
    3.6664    2.7804   -1.2103 H   0  0  0  0  0  0  0  0  0  0  0  0
    6.0685    1.4925    1.8750 H   0  0  0  0  0  0  0  0  0  0  0  0
  1  2  1  0
  2  3  2  0
  3  4  1  0
  4  5  2  0
  5  6  1  0
  6  7  1  0
  7  8  1  0
  8  9  2  0
  8 10  1  0
 10 11  1  0
 11 12  1  0
 12 13  1  0
 13 14  1  0
 13 15  1  0
 15 16  2  0
 16 17  1  0
 17 18  2  0
 18 19  1  0
 19 20  1  0
 20 21  1  0
 20 22  1  0
 20 23  1  0
 19 24  2  0
 13 25  1  0
 25 26  1  0
  7 27  2  0
 27 28  1  0
 27 29  1  0
 29 30  2  0
 30  2  1  0
 29  5  1  0
 26 10  1  0
 24 15  1  0
  1 31  1  0
  1 32  1  0
  1 33  1  0
  3 34  1  0
  4 35  1  0
 11 36  1  0
 11 37  1  0
 12 38  1  0
 12 39  1  0
 14 40  1  0
 16 41  1  0
 17 42  1  0
 18 43  1  0
 24 44  1  0
 25 45  1  0
 25 46  1  0
 26 47  1  0
 26 48  1  0
 28 49  1  0
 28 50  1  0
 28 51  1  0
 30 52  1  0
M  END
$$$$
