
     RDKit          3D

 35 37  0  0  0  0  0  0  0  0999 V2000
   -5.6925    0.4588    0.0205 C   0  0  0  0  0  0  0  0  0  0  0  0
   -4.2586    0.0069    0.0179 C   0  0  0  0  0  0  0  0  0  0  0  0
   -3.2420    0.9584   -0.1714 C   0  0  0  0  0  0  0  0  0  0  0  0
   -1.8975    0.6133   -0.1475 C   0  0  0  0  0  0  0  0  0  0  0  0
   -0.9620    1.5617   -0.3347 N   0  0  0  0  0  0  0  0  0  0  0  0
    0.3267    1.1764   -0.2855 C   0  0  0  0  0  0  0  0  0  0  0  0
    1.3306    2.1081   -0.4751 C   0  0  0  0  0  0  0  0  0  0  0  0
    2.6819    1.7423   -0.4274 C   0  0  0  0  0  0  0  0  0  0  0  0
    3.0822    0.4232   -0.1765 C   0  0  0  0  0  0  0  0  0  0  0  0
    4.4299    0.0491   -0.1448 N   0  0  0  0  0  0  0  0  0  0  0  0
    5.4502    1.0839    0.0222 C   0  0  0  0  0  0  0  0  0  0  0  0
    4.7906   -1.2778    0.3546 C   0  0  0  0  0  0  0  0  0  0  0  0
    2.0388   -0.5046   -0.0041 C   0  0  0  0  0  0  0  0  0  0  0  0
    0.6872   -0.1612   -0.0471 C   0  0  0  0  0  0  0  0  0  0  0  0
   -0.2519   -1.1094    0.1387 N   0  0  0  0  0  0  0  0  0  0  0  0
   -1.5426   -0.7283    0.0871 C   0  0  0  0  0  0  0  0  0  0  0  0
   -2.5487   -1.6695    0.2704 C   0  0  0  0  0  0  0  0  0  0  0  0
   -3.9070   -1.3382    0.1877 C   0  0  0  0  0  0  0  0  0  0  0  0
   -4.8651   -2.3152    0.4920 N   0  0  0  0  0  0  0  0  0  0  0  0
   -6.1806    0.1743    0.9583 H   0  0  0  0  0  0  0  0  0  0  0  0
   -5.7727    1.5471   -0.0725 H   0  0  0  0  0  0  0  0  0  0  0  0
   -6.2310    0.0129   -0.8218 H   0  0  0  0  0  0  0  0  0  0  0  0
   -3.4972    2.0042   -0.3300 H   0  0  0  0  0  0  0  0  0  0  0  0
    1.0619    3.1434   -0.6689 H   0  0  0  0  0  0  0  0  0  0  0  0
    3.4094    2.5295   -0.6004 H   0  0  0  0  0  0  0  0  0  0  0  0
    5.4526    1.7781   -0.8249 H   0  0  0  0  0  0  0  0  0  0  0  0
    5.2980    1.6398    0.9539 H   0  0  0  0  0  0  0  0  0  0  0  0
    6.4559    0.6502    0.0574 H   0  0  0  0  0  0  0  0  0  0  0  0
    5.8734   -1.4396    0.3053 H   0  0  0  0  0  0  0  0  0  0  0  0
    4.4844   -1.4015    1.3992 H   0  0  0  0  0  0  0  0  0  0  0  0
    4.3421   -2.0674   -0.2579 H   0  0  0  0  0  0  0  0  0  0  0  0
    2.2537   -1.5538    0.1750 H   0  0  0  0  0  0  0  0  0  0  0  0
   -2.2534   -2.6949    0.4784 H   0  0  0  0  0  0  0  0  0  0  0  0
   -5.7873   -2.1336    0.1099 H   0  0  0  0  0  0  0  0  0  0  0  0
   -4.5594   -3.2666    0.3090 H   0  0  0  0  0  0  0  0  0  0  0  0
  1  2  1  0
  2  3  2  0
  3  4  1  0
  4  5  2  0
  5  6  1  0
  6  7  2  0
  7  8  1  0
  8  9  2  0
  9 10  1  0
 10 11  1  0
 10 12  1  0
  9 13  1  0
 13 14  2  0
 14 15  1  0
 15 16  2  0
 16 17  1  0
 17 18  2  0
 18 19  1  0
 18  2  1  0
 16  4  1  0
 14  6  1  0
  1 20  1  0
  1 21  1  0
  1 22  1  0
  3 23  1  0
  7 24  1  0
  8 25  1  0
 11 26  1  0
 11 27  1  0
 11 28  1  0
 12 29  1  0
 12 30  1  0
 12 31  1  0
 13 32  1  0
 17 33  1  0
 19 34  1  0
 19 35  1  0
M  END
$$$$
