
     RDKit          3D

 51 54  0  0  0  0  0  0  0  0999 V2000
    3.4948    2.6149    4.5793 C   0  0  0  0  0  0  0  0  0  0  0  0
    2.7090    2.3182    3.3133 C   0  0  0  0  0  0  0  0  0  0  0  0
    1.7041    1.3492    3.6387 O   0  0  0  0  0  0  0  0  0  0  0  0
    0.8026    1.2413    2.6081 C   0  0  0  0  0  0  0  0  0  0  0  0
    1.0000    0.2143    1.6811 C   0  0  0  0  0  0  0  0  0  0  0  0
    0.0925    0.0252    0.6279 C   0  0  0  0  0  0  0  0  0  0  0  0
    0.3252   -1.1246   -0.3534 C   0  0  0  0  0  0  0  0  0  0  0  0
   -0.6044   -2.2985   -0.0289 C   0  0  0  0  0  0  0  0  0  0  0  0
    0.0886   -3.6513   -0.0682 C   0  0  0  0  0  0  0  0  0  0  0  0
    1.3063   -3.7753    0.0355 O   0  0  0  0  0  0  0  0  0  0  0  0
   -0.8157   -4.8678   -0.2271 C   0  0  0  0  0  0  0  0  0  0  0  0
   -2.2430   -4.5556    0.2331 C   0  0  0  0  0  0  0  0  0  0  0  0
   -2.8729   -3.3958   -0.5464 C   0  0  0  0  0  0  0  0  0  0  0  0
   -1.8112   -2.3870   -0.9441 C   0  0  0  0  0  0  0  0  0  0  0  0
   -1.9636   -1.7458   -2.0598 N   0  0  0  0  0  0  0  0  0  0  0  0
   -0.9463   -0.9636   -2.4894 C   0  0  0  0  0  0  0  0  0  0  0  0
   -0.7926   -0.3621   -3.6464 N   0  0  0  0  0  0  0  0  0  0  0  0
    0.4407    0.2709   -3.5583 C   0  0  0  0  0  0  0  0  0  0  0  0
    1.0260    1.0704   -4.6531 C   0  0  0  0  0  0  0  0  0  0  0  0
    2.1120    1.6408   -4.5918 O   0  0  0  0  0  0  0  0  0  0  0  0
    0.2170    1.1087   -5.7593 O   0  0  0  0  0  0  0  0  0  0  0  0
    0.7481    1.8630   -6.8455 C   0  0  0  0  0  0  0  0  0  0  0  0
    1.0515    0.0768   -2.3707 N   0  0  0  0  0  0  0  0  0  0  0  0
    0.1498   -0.6784   -1.7246 N   0  0  0  0  0  0  0  0  0  0  0  0
   -1.0283    0.8716    0.5547 C   0  0  0  0  0  0  0  0  0  0  0  0
   -1.2255    1.8926    1.4955 C   0  0  0  0  0  0  0  0  0  0  0  0
   -0.3129    2.0871    2.5337 C   0  0  0  0  0  0  0  0  0  0  0  0
   -0.4184    3.0426    3.5089 O   0  0  0  0  0  0  0  0  0  0  0  0
   -1.4619    3.9971    3.3759 C   0  0  0  0  0  0  0  0  0  0  0  0
    3.8904    1.6910    5.0228 H   0  0  0  0  0  0  0  0  0  0  0  0
    4.3261    3.2947    4.3682 H   0  0  0  0  0  0  0  0  0  0  0  0
    2.8436    3.0781    5.3338 H   0  0  0  0  0  0  0  0  0  0  0  0
    2.2693    3.2519    2.9333 H   0  0  0  0  0  0  0  0  0  0  0  0
    3.3818    1.9039    2.5503 H   0  0  0  0  0  0  0  0  0  0  0  0
    1.8720   -0.4290    1.7898 H   0  0  0  0  0  0  0  0  0  0  0  0
    1.3811   -1.4173   -0.2882 H   0  0  0  0  0  0  0  0  0  0  0  0
   -0.9790   -2.2068    1.0011 H   0  0  0  0  0  0  0  0  0  0  0  0
   -0.8057   -5.1677   -1.2807 H   0  0  0  0  0  0  0  0  0  0  0  0
   -0.4072   -5.6852    0.3773 H   0  0  0  0  0  0  0  0  0  0  0  0
   -2.8729   -5.4475    0.1392 H   0  0  0  0  0  0  0  0  0  0  0  0
   -2.2266   -4.2985    1.3004 H   0  0  0  0  0  0  0  0  0  0  0  0
   -3.6389   -2.8963    0.0563 H   0  0  0  0  0  0  0  0  0  0  0  0
   -3.3509   -3.7763   -1.4565 H   0  0  0  0  0  0  0  0  0  0  0  0
    0.9063    2.9045   -6.5518 H   0  0  0  0  0  0  0  0  0  0  0  0
    1.6798    1.4151   -7.2029 H   0  0  0  0  0  0  0  0  0  0  0  0
    0.0199    1.8421   -7.6613 H   0  0  0  0  0  0  0  0  0  0  0  0
   -1.7694    0.7597   -0.2362 H   0  0  0  0  0  0  0  0  0  0  0  0
   -2.1085    2.5158    1.3888 H   0  0  0  0  0  0  0  0  0  0  0  0
   -2.4436    3.5210    3.4697 H   0  0  0  0  0  0  0  0  0  0  0  0
   -1.3766    4.5493    2.4337 H   0  0  0  0  0  0  0  0  0  0  0  0
   -1.3623    4.7183    4.1942 H   0  0  0  0  0  0  0  0  0  0  0  0
  1  2  1  0
  2  3  1  0
  3  4  1  0
  4  5  2  0
  5  6  1  0
  6  7  1  0
  7  8  1  0
  8  9  1  0
  9 10  2  0
  9 11  1  0
 11 12  1  0
 12 13  1  0
 13 14  1  0
 14 15  2  0
 15 16  1  0
 16 17  2  0
 17 18  1  0
 18 19  1  0
 19 20  2  0
 19 21  1  0
 21 22  1  0
 18 23  2  0
 23 24  1  0
  6 25  2  0
 25 26  1  0
 26 27  2  0
 27 28  1  0
 28 29  1  0
 27  4  1  0
 24  7  1  0
 14  8  1  0
 24 16  1  0
  1 30  1  0
  1 31  1  0
  1 32  1  0
  2 33  1  0
  2 34  1  0
  5 35  1  0
  7 36  1  0
  8 37  1  0
 11 38  1  0
 11 39  1  0
 12 40  1  0
 12 41  1  0
 13 42  1  0
 13 43  1  0
 22 44  1  0
 22 45  1  0
 22 46  1  0
 25 47  1  0
 26 48  1  0
 29 49  1  0
 29 50  1  0
 29 51  1  0
M  END
$$$$
