
     RDKit          3D

 43 44  0  0  0  0  0  0  0  0999 V2000
    4.0623    3.0538    0.8301 C   0  0  0  0  0  0  0  0  0  0  0  0
    2.9641    2.0127    0.9366 C   0  0  0  0  0  0  0  0  0  0  0  0
    3.5164    0.7339    0.5839 O   0  0  0  0  0  0  0  0  0  0  0  0
    2.6123   -0.2800    0.5883 C   0  0  0  0  0  0  0  0  0  0  0  0
    1.4344   -0.1786    0.9200 O   0  0  0  0  0  0  0  0  0  0  0  0
    3.2639   -1.5920    0.1787 C   0  0  0  0  0  0  0  0  0  0  0  0
    2.2511   -2.4334   -0.4481 N   0  0  0  0  0  0  0  0  0  0  0  0
    2.1167   -2.4335   -1.8222 C   0  0  0  0  0  0  0  0  0  0  0  0
    3.0112   -2.0503   -2.5716 O   0  0  0  0  0  0  0  0  0  0  0  0
    0.8156   -3.0200   -2.3494 C   0  0  0  0  0  0  0  0  0  0  0  0
   -0.6394   -2.4179   -1.4335 S   0  0  0  0  0  0  0  0  0  0  0  0
   -0.5754   -0.7163   -1.7790 C   0  0  0  0  0  0  0  0  0  0  0  0
    0.1691   -0.1688   -2.7121 N   0  0  0  0  0  0  0  0  0  0  0  0
    0.1532    1.1764   -2.4687 N   0  0  0  0  0  0  0  0  0  0  0  0
   -0.5762    1.4623   -1.4003 N   0  0  0  0  0  0  0  0  0  0  0  0
   -1.1325    0.2864   -1.0004 N   0  0  0  0  0  0  0  0  0  0  0  0
   -2.0583    0.2560    0.0697 C   0  0  0  0  0  0  0  0  0  0  0  0
   -1.7642    1.0710    1.1820 C   0  0  0  0  0  0  0  0  0  0  0  0
   -2.5807    1.0643    2.3180 C   0  0  0  0  0  0  0  0  0  0  0  0
   -2.2477    1.9375    3.4926 C   0  0  0  0  0  0  0  0  0  0  0  0
   -3.7240    0.2648    2.3202 C   0  0  0  0  0  0  0  0  0  0  0  0
   -4.0477   -0.5090    1.2030 C   0  0  0  0  0  0  0  0  0  0  0  0
   -3.2413   -0.5073    0.0499 C   0  0  0  0  0  0  0  0  0  0  0  0
   -3.7719   -1.2539   -1.1443 C   0  0  0  0  0  0  0  0  0  0  0  0
    4.4356    3.1187   -0.1973 H   0  0  0  0  0  0  0  0  0  0  0  0
    4.9146    2.7806    1.4615 H   0  0  0  0  0  0  0  0  0  0  0  0
    3.6974    4.0384    1.1354 H   0  0  0  0  0  0  0  0  0  0  0  0
    2.1435    2.2685    0.2530 H   0  0  0  0  0  0  0  0  0  0  0  0
    2.5905    1.9758    1.9681 H   0  0  0  0  0  0  0  0  0  0  0  0
    4.0932   -1.4065   -0.5094 H   0  0  0  0  0  0  0  0  0  0  0  0
    3.6239   -2.0999    1.0771 H   0  0  0  0  0  0  0  0  0  0  0  0
    1.3929   -2.5488    0.0818 H   0  0  0  0  0  0  0  0  0  0  0  0
    0.7097   -2.7735   -3.4112 H   0  0  0  0  0  0  0  0  0  0  0  0
    0.8672   -4.1091   -2.2541 H   0  0  0  0  0  0  0  0  0  0  0  0
   -0.8626    1.6855    1.1876 H   0  0  0  0  0  0  0  0  0  0  0  0
   -2.7176    1.5644    4.4074 H   0  0  0  0  0  0  0  0  0  0  0  0
   -1.1664    1.9539    3.6683 H   0  0  0  0  0  0  0  0  0  0  0  0
   -2.5949    2.9608    3.3107 H   0  0  0  0  0  0  0  0  0  0  0  0
   -4.3832    0.2504    3.1852 H   0  0  0  0  0  0  0  0  0  0  0  0
   -4.9649   -1.0957    1.2249 H   0  0  0  0  0  0  0  0  0  0  0  0
   -3.5971   -2.3282   -1.0353 H   0  0  0  0  0  0  0  0  0  0  0  0
   -3.3395   -0.8995   -2.0835 H   0  0  0  0  0  0  0  0  0  0  0  0
   -4.8534   -1.0936   -1.2357 H   0  0  0  0  0  0  0  0  0  0  0  0
  1  2  1  0
  2  3  1  0
  3  4  1  0
  4  5  2  0
  4  6  1  0
  6  7  1  0
  7  8  1  0
  8  9  2  0
  8 10  1  0
 10 11  1  0
 11 12  1  0
 12 13  2  0
 13 14  1  0
 14 15  2  0
 15 16  1  0
 16 17  1  0
 17 18  2  0
 18 19  1  0
 19 20  1  0
 19 21  2  0
 21 22  1  0
 22 23  2  0
 23 24  1  0
 16 12  1  0
 23 17  1  0
  1 25  1  0
  1 26  1  0
  1 27  1  0
  2 28  1  0
  2 29  1  0
  6 30  1  0
  6 31  1  0
  7 32  1  0
 10 33  1  0
 10 34  1  0
 18 35  1  0
 20 36  1  0
 20 37  1  0
 20 38  1  0
 21 39  1  0
 22 40  1  0
 24 41  1  0
 24 42  1  0
 24 43  1  0
M  END
$$$$
