
     RDKit          3D

 46 47  0  0  0  0  0  0  0  0999 V2000
    6.1637    1.0579   -0.8865 O   0  0  0  0  0  0  0  0  0  0  0  0
    7.0032    0.7709   -0.0476 C   0  0  0  0  0  0  0  0  0  0  0  0
    7.8816    1.6851    0.4023 O   0  0  0  0  0  0  0  0  0  0  0  0
    7.1780   -0.5647    0.6240 C   0  0  0  0  0  0  0  0  0  0  0  0
    6.3166   -1.6394   -0.0275 C   0  0  0  0  0  0  0  0  0  0  0  0
    4.9000   -1.6123    0.5175 C   0  0  0  0  0  0  0  0  0  0  0  0
    4.5603   -2.4046    1.3900 O   0  0  0  0  0  0  0  0  0  0  0  0
    4.1219   -0.6234   -0.0533 N   0  0  0  0  0  0  0  0  0  0  0  0
    2.7759   -0.3167    0.2270 C   0  0  0  0  0  0  0  0  0  0  0  0
    2.2112    0.7617   -0.4706 C   0  0  0  0  0  0  0  0  0  0  0  0
    0.8825    1.1382   -0.2545 C   0  0  0  0  0  0  0  0  0  0  0  0
    0.1089    0.4249    0.6629 C   0  0  0  0  0  0  0  0  0  0  0  0
   -1.5661    0.9195    0.9721 S   0  0  0  0  0  6  0  0  0  0  0  0
   -1.6661    2.3433    0.7375 O   0  0  0  0  0  0  0  0  0  0  0  0
   -1.9912    0.3192    2.2178 O   0  0  0  0  0  0  0  0  0  0  0  0
   -2.3875    0.0984   -0.2450 N   0  0  0  0  0  0  0  0  0  0  0  0
   -2.8980    0.8657   -1.3990 C   0  0  0  0  0  0  0  0  0  0  0  0
   -4.2357    1.5466   -1.0785 C   0  0  0  0  0  0  0  0  0  0  0  0
   -5.3307    0.5586   -0.7405 C   0  0  0  0  0  0  0  0  0  0  0  0
   -5.9868   -0.1524   -1.7535 C   0  0  0  0  0  0  0  0  0  0  0  0
   -6.9692   -1.0922   -1.4285 C   0  0  0  0  0  0  0  0  0  0  0  0
   -7.3014   -1.3303   -0.0919 C   0  0  0  0  0  0  0  0  0  0  0  0
   -6.6565   -0.6263    0.9222 C   0  0  0  0  0  0  0  0  0  0  0  0
   -5.6776    0.3162    0.6004 C   0  0  0  0  0  0  0  0  0  0  0  0
    0.6592   -0.6444    1.3723 C   0  0  0  0  0  0  0  0  0  0  0  0
    1.9899   -1.0151    1.1477 C   0  0  0  0  0  0  0  0  0  0  0  0
    7.6631    2.5197   -0.0689 H   0  0  0  0  0  0  0  0  0  0  0  0
    8.2317   -0.8501    0.5204 H   0  0  0  0  0  0  0  0  0  0  0  0
    6.9398   -0.4539    1.6881 H   0  0  0  0  0  0  0  0  0  0  0  0
    6.7319   -2.6292    0.2034 H   0  0  0  0  0  0  0  0  0  0  0  0
    6.2954   -1.5547   -1.1204 H   0  0  0  0  0  0  0  0  0  0  0  0
    4.5885   -0.0063   -0.7183 H   0  0  0  0  0  0  0  0  0  0  0  0
    2.8011    1.3234   -1.1927 H   0  0  0  0  0  0  0  0  0  0  0  0
    0.4614    1.9809   -0.7994 H   0  0  0  0  0  0  0  0  0  0  0  0
   -3.0274   -0.6003    0.1353 H   0  0  0  0  0  0  0  0  0  0  0  0
   -2.1584    1.6066   -1.7232 H   0  0  0  0  0  0  0  0  0  0  0  0
   -3.0203    0.1648   -2.2344 H   0  0  0  0  0  0  0  0  0  0  0  0
   -4.5552    2.1470   -1.9390 H   0  0  0  0  0  0  0  0  0  0  0  0
   -4.1184    2.2548   -0.2496 H   0  0  0  0  0  0  0  0  0  0  0  0
   -5.7385    0.0201   -2.8012 H   0  0  0  0  0  0  0  0  0  0  0  0
   -7.4733   -1.6437   -2.2159 H   0  0  0  0  0  0  0  0  0  0  0  0
   -8.0653   -2.0636    0.1603 H   0  0  0  0  0  0  0  0  0  0  0  0
   -6.9150   -0.8125    1.9649 H   0  0  0  0  0  0  0  0  0  0  0  0
   -5.1810    0.8570    1.4045 H   0  0  0  0  0  0  0  0  0  0  0  0
    0.0697   -1.1927    2.1054 H   0  0  0  0  0  0  0  0  0  0  0  0
    2.3840   -1.8519    1.7142 H   0  0  0  0  0  0  0  0  0  0  0  0
  1  2  2  0
  2  3  1  0
  2  4  1  0
  4  5  1  0
  5  6  1  0
  6  7  2  0
  6  8  1  0
  8  9  1  0
  9 10  2  0
 10 11  1  0
 11 12  2  0
 12 13  1  0
 13 14  2  0
 13 15  2  0
 13 16  1  0
 16 17  1  0
 17 18  1  0
 18 19  1  0
 19 20  2  0
 20 21  1  0
 21 22  2  0
 22 23  1  0
 23 24  2  0
 12 25  1  0
 25 26  2  0
 26  9  1  0
 24 19  1  0
  3 27  1  0
  4 28  1  0
  4 29  1  0
  5 30  1  0
  5 31  1  0
  8 32  1  0
 10 33  1  0
 11 34  1  0
 16 35  1  0
 17 36  1  0
 17 37  1  0
 18 38  1  0
 18 39  1  0
 20 40  1  0
 21 41  1  0
 22 42  1  0
 23 43  1  0
 24 44  1  0
 25 45  1  0
 26 46  1  0
M  END
$$$$
