
     RDKit          3D

 43 45  0  0  0  0  0  0  0  0999 V2000
    3.9004    0.8332    2.0487 C   0  0  0  0  0  0  0  0  0  0  0  0
    4.0028   -0.0583    0.8123 C   0  0  0  0  0  0  0  0  0  0  0  0
    5.4409   -0.5410    0.6263 C   0  0  0  0  0  0  0  0  0  0  0  0
    2.9253   -1.5360    0.9922 S   0  0  0  0  0  0  0  0  0  0  0  0
    1.3175   -0.8859    0.5544 C   0  0  0  0  0  0  0  0  0  0  0  0
    0.2424   -1.7473    0.5672 C   0  0  0  0  0  0  0  0  0  0  0  0
   -0.9902   -1.2356    0.2148 C   0  0  0  0  0  0  0  0  0  0  0  0
   -2.1234   -2.0467    0.2161 N   0  0  0  0  0  0  0  0  0  0  0  0
   -3.4139   -1.3628    0.0225 C   0  0  0  0  0  0  0  0  0  0  0  0
   -4.5506   -2.3960    0.0916 C   0  0  0  0  0  0  0  0  0  0  0  0
   -4.4667   -3.4227   -0.9094 O   0  0  0  0  0  0  0  0  0  0  0  0
   -3.1457   -3.5924   -1.4401 C   0  0  0  0  0  0  0  0  0  0  0  0
   -2.0308   -3.3856   -0.3992 C   0  0  0  0  0  0  0  0  0  0  0  0
   -1.1218    0.0643   -0.0933 N   0  0  0  0  0  0  0  0  0  0  0  0
   -0.0220    0.8407   -0.0843 C   0  0  0  0  0  0  0  0  0  0  0  0
   -0.1806    2.2660   -0.4423 C   0  0  0  0  0  0  0  0  0  0  0  0
    0.9012    3.1667   -0.3795 C   0  0  0  0  0  0  0  0  0  0  0  0
    0.7536    4.5168   -0.7198 C   0  0  0  0  0  0  0  0  0  0  0  0
   -0.4846    4.9987   -1.1325 C   0  0  0  0  0  0  0  0  0  0  0  0
   -1.5731    4.1337   -1.2042 C   0  0  0  0  0  0  0  0  0  0  0  0
   -1.4209    2.7854   -0.8623 C   0  0  0  0  0  0  0  0  0  0  0  0
    1.2088    0.4056    0.2231 N   0  0  0  0  0  0  0  0  0  0  0  0
    2.8905    1.2352    2.1826 H   0  0  0  0  0  0  0  0  0  0  0  0
    4.1739    0.2897    2.9588 H   0  0  0  0  0  0  0  0  0  0  0  0
    4.5791    1.6883    1.9553 H   0  0  0  0  0  0  0  0  0  0  0  0
    3.7205    0.5018   -0.0853 H   0  0  0  0  0  0  0  0  0  0  0  0
    5.8010   -1.0975    1.5011 H   0  0  0  0  0  0  0  0  0  0  0  0
    5.5348   -1.1865   -0.2554 H   0  0  0  0  0  0  0  0  0  0  0  0
    6.1129    0.3131    0.4796 H   0  0  0  0  0  0  0  0  0  0  0  0
    0.3591   -2.7810    0.8647 H   0  0  0  0  0  0  0  0  0  0  0  0
   -3.5684   -0.6130    0.8077 H   0  0  0  0  0  0  0  0  0  0  0  0
   -3.4372   -0.8624   -0.9552 H   0  0  0  0  0  0  0  0  0  0  0  0
   -4.5519   -2.8926    1.0698 H   0  0  0  0  0  0  0  0  0  0  0  0
   -5.5204   -1.9018   -0.0266 H   0  0  0  0  0  0  0  0  0  0  0  0
   -3.0250   -2.8922   -2.2762 H   0  0  0  0  0  0  0  0  0  0  0  0
   -3.0871   -4.6042   -1.8555 H   0  0  0  0  0  0  0  0  0  0  0  0
   -1.0675   -3.5551   -0.8954 H   0  0  0  0  0  0  0  0  0  0  0  0
   -2.1382   -4.1287    0.4006 H   0  0  0  0  0  0  0  0  0  0  0  0
    1.8814    2.8174   -0.0591 H   0  0  0  0  0  0  0  0  0  0  0  0
    1.6072    5.1875   -0.6599 H   0  0  0  0  0  0  0  0  0  0  0  0
   -0.6007    6.0468   -1.3988 H   0  0  0  0  0  0  0  0  0  0  0  0
   -2.5432    4.5037   -1.5261 H   0  0  0  0  0  0  0  0  0  0  0  0
   -2.2892    2.1307   -0.9290 H   0  0  0  0  0  0  0  0  0  0  0  0
  1  2  1  0
  2  3  1  0
  2  4  1  0
  4  5  1  0
  5  6  2  0
  6  7  1  0
  7  8  1  0
  8  9  1  0
  9 10  1  0
 10 11  1  0
 11 12  1  0
 12 13  1  0
  7 14  2  0
 14 15  1  0
 15 16  1  0
 16 17  2  0
 17 18  1  0
 18 19  2  0
 19 20  1  0
 20 21  2  0
 15 22  2  0
 22  5  1  0
 13  8  1  0
 21 16  1  0
  1 23  1  0
  1 24  1  0
  1 25  1  0
  2 26  1  0
  3 27  1  0
  3 28  1  0
  3 29  1  0
  6 30  1  0
  9 31  1  0
  9 32  1  0
 10 33  1  0
 10 34  1  0
 12 35  1  0
 12 36  1  0
 13 37  1  0
 13 38  1  0
 17 39  1  0
 18 40  1  0
 19 41  1  0
 20 42  1  0
 21 43  1  0
M  END
$$$$
