
     RDKit          3D

 44 47  0  0  0  0  0  0  0  0999 V2000
    2.7448    4.1684   -0.1887 C   0  0  0  0  0  0  0  0  0  0  0  0
    2.0191    2.9483   -0.2835 O   0  0  0  0  0  0  0  0  0  0  0  0
    2.6673    1.8126    0.1124 C   0  0  0  0  0  0  0  0  0  0  0  0
    3.9460    1.7406    0.6474 C   0  0  0  0  0  0  0  0  0  0  0  0
    4.4766    0.4985    1.0166 C   0  0  0  0  0  0  0  0  0  0  0  0
    3.7640   -0.6836    0.8716 C   0  0  0  0  0  0  0  0  0  0  0  0
    4.3451   -1.8312    1.2579 N   0  0  0  0  0  0  0  0  0  0  0  0
    3.6470   -2.9768    1.1216 C   0  0  0  0  0  0  0  0  0  0  0  0
    2.3677   -3.0398    0.6101 C   0  0  0  0  0  0  0  0  0  0  0  0
    1.7601   -1.8507    0.2070 C   0  0  0  0  0  0  0  0  0  0  0  0
    0.3946   -1.9109   -0.3324 C   0  0  0  0  0  0  0  0  0  0  0  0
   -0.6599   -2.1706    0.4547 C   0  0  0  0  0  0  0  0  0  0  0  0
   -2.0283   -2.1761   -0.0783 C   0  0  0  0  0  0  0  0  0  0  0  0
   -2.5478   -3.3958   -0.5100 C   0  0  0  0  0  0  0  0  0  0  0  0
   -3.8291   -3.4127   -1.0193 C   0  0  0  0  0  0  0  0  0  0  0  0
   -4.6086   -2.3179   -1.1248 N   0  0  0  0  0  0  0  0  0  0  0  0
   -4.1112   -1.1400   -0.7120 C   0  0  0  0  0  0  0  0  0  0  0  0
   -4.9124   -0.0135   -0.8186 C   0  0  0  0  0  0  0  0  0  0  0  0
   -4.4669    1.2482   -0.4156 C   0  0  0  0  0  0  0  0  0  0  0  0
   -3.1887    1.4075    0.1063 C   0  0  0  0  0  0  0  0  0  0  0  0
   -2.8630    2.6865    0.4595 O   0  0  0  0  0  0  0  0  0  0  0  0
   -1.4971    2.9361    0.7731 C   0  0  0  0  0  0  0  0  0  0  0  0
   -2.3717    0.2858    0.2363 C   0  0  0  0  0  0  0  0  0  0  0  0
   -2.8134   -1.0001   -0.1743 C   0  0  0  0  0  0  0  0  0  0  0  0
    2.4632   -0.6269    0.3299 C   0  0  0  0  0  0  0  0  0  0  0  0
    1.9369    0.6337   -0.0468 C   0  0  0  0  0  0  0  0  0  0  0  0
    2.9924    4.3990    0.8526 H   0  0  0  0  0  0  0  0  0  0  0  0
    3.6437    4.1434   -0.8136 H   0  0  0  0  0  0  0  0  0  0  0  0
    2.1005    4.9698   -0.5631 H   0  0  0  0  0  0  0  0  0  0  0  0
    4.5614    2.6214    0.7956 H   0  0  0  0  0  0  0  0  0  0  0  0
    5.4800    0.4532    1.4352 H   0  0  0  0  0  0  0  0  0  0  0  0
    4.1646   -3.8745    1.4477 H   0  0  0  0  0  0  0  0  0  0  0  0
    1.8613   -3.9952    0.5263 H   0  0  0  0  0  0  0  0  0  0  0  0
    0.2834   -1.6944   -1.3923 H   0  0  0  0  0  0  0  0  0  0  0  0
   -0.5582   -2.3630    1.5196 H   0  0  0  0  0  0  0  0  0  0  0  0
   -1.9713   -4.3127   -0.4541 H   0  0  0  0  0  0  0  0  0  0  0  0
   -4.2810   -4.3365   -1.3693 H   0  0  0  0  0  0  0  0  0  0  0  0
   -5.9141   -0.1178   -1.2290 H   0  0  0  0  0  0  0  0  0  0  0  0
   -5.1236    2.1085   -0.5171 H   0  0  0  0  0  0  0  0  0  0  0  0
   -1.3817    4.0125    0.9321 H   0  0  0  0  0  0  0  0  0  0  0  0
   -0.8434    2.6499   -0.0569 H   0  0  0  0  0  0  0  0  0  0  0  0
   -1.2079    2.4297    1.6997 H   0  0  0  0  0  0  0  0  0  0  0  0
   -1.3800    0.3834    0.6651 H   0  0  0  0  0  0  0  0  0  0  0  0
    0.9395    0.7037   -0.4744 H   0  0  0  0  0  0  0  0  0  0  0  0
  1  2  1  0
  2  3  1  0
  3  4  2  0
  4  5  1  0
  5  6  2  0
  6  7  1  0
  7  8  2  0
  8  9  1  0
  9 10  2  0
 10 11  1  0
 11 12  2  3
 12 13  1  0
 13 14  2  0
 14 15  1  0
 15 16  2  0
 16 17  1  0
 17 18  2  0
 18 19  1  0
 19 20  2  0
 20 21  1  0
 21 22  1  0
 20 23  1  0
 23 24  2  0
 10 25  1  0
 25 26  2  0
 26  3  1  0
 25  6  1  0
 24 13  1  0
 24 17  1  0
  1 27  1  0
  1 28  1  0
  1 29  1  0
  4 30  1  0
  5 31  1  0
  8 32  1  0
  9 33  1  0
 11 34  1  0
 12 35  1  0
 14 36  1  0
 15 37  1  0
 18 38  1  0
 19 39  1  0
 22 40  1  0
 22 41  1  0
 22 42  1  0
 23 43  1  0
 26 44  1  0
M  END
$$$$
