
     RDKit          3D

 59 62  0  0  0  0  0  0  0  0999 V2000
   10.8319    1.8099    2.5197 C   0  0  0  0  0  0  0  0  0  0  0  0
    9.3920    1.3305    2.4619 C   0  0  0  0  0  0  0  0  0  0  0  0
    8.8181    1.8119    1.2453 O   0  0  0  0  0  0  0  0  0  0  0  0
    7.5188    1.4665    0.9943 C   0  0  0  0  0  0  0  0  0  0  0  0
    6.6955    0.7021    1.8203 C   0  0  0  0  0  0  0  0  0  0  0  0
    5.3826    0.4105    1.4345 C   0  0  0  0  0  0  0  0  0  0  0  0
    4.8735    0.8917    0.2219 C   0  0  0  0  0  0  0  0  0  0  0  0
    3.4712    0.5437   -0.2076 C   0  0  0  0  0  0  0  0  0  0  0  0
    3.4454   -0.7554   -1.0209 C   0  0  0  0  0  0  0  0  0  0  0  0
    2.1158   -1.0713   -1.5076 N   0  0  0  0  0  0  0  0  0  0  0  0
    1.1761   -1.6779   -0.6988 C   0  0  0  0  0  0  0  0  0  0  0  0
    1.4038   -2.0028    0.4634 O   0  0  0  0  0  0  0  0  0  0  0  0
   -0.1554   -1.9336   -1.3821 C   0  0  0  0  0  0  0  0  0  0  0  0
   -1.3178   -1.2651   -0.6926 C   0  0  0  0  0  0  0  0  0  0  0  0
   -2.0695   -1.9624    0.2631 C   0  0  0  0  0  0  0  0  0  0  0  0
   -3.1596   -1.3527    0.8883 C   0  0  0  0  0  0  0  0  0  0  0  0
   -3.5167   -0.0422    0.5666 C   0  0  0  0  0  0  0  0  0  0  0  0
   -4.6336    0.5608    1.1590 N   0  0  0  0  0  0  0  0  0  0  0  0
   -5.7843    0.3300    0.6365 C   0  0  0  0  0  0  0  0  0  0  0  0
   -6.1437   -0.4161   -0.4696 N   0  0  0  0  0  0  0  0  0  0  0  0
   -7.4434   -0.0322   -0.9743 C   0  0  0  0  0  0  0  0  0  0  0  0
   -8.1954   -1.0217   -1.8265 C   0  0  0  0  0  0  0  0  0  0  0  0
   -9.8779   -0.3835   -1.7010 S   0  0  0  0  0  6  0  0  0  0  0  0
  -10.7616   -1.4820   -1.3811 O   0  0  0  0  0  0  0  0  0  0  0  0
  -10.1141    0.4934   -2.8288 O   0  0  0  0  0  0  0  0  0  0  0  0
   -9.6381    0.6374   -0.2278 C   0  0  0  0  0  0  0  0  0  0  0  0
   -8.3095    0.1295    0.2795 C   0  0  0  0  0  0  0  0  0  0  0  0
   -7.2265    1.1096    1.3498 S   0  0  0  0  0  0  0  0  0  0  0  0
   -2.7420    0.6701   -0.3518 C   0  0  0  0  0  0  0  0  0  0  0  0
   -1.6510    0.0652   -0.9807 C   0  0  0  0  0  0  0  0  0  0  0  0
    5.7009    1.6637   -0.6027 C   0  0  0  0  0  0  0  0  0  0  0  0
    7.0131    1.9442   -0.2153 C   0  0  0  0  0  0  0  0  0  0  0  0
   11.3953    1.4427    1.6561 H   0  0  0  0  0  0  0  0  0  0  0  0
   11.3213    1.4636    3.4339 H   0  0  0  0  0  0  0  0  0  0  0  0
   10.8771    2.9032    2.4864 H   0  0  0  0  0  0  0  0  0  0  0  0
    9.3792    0.2331    2.4835 H   0  0  0  0  0  0  0  0  0  0  0  0
    8.8455    1.7316    3.3248 H   0  0  0  0  0  0  0  0  0  0  0  0
    7.0412    0.3119    2.7688 H   0  0  0  0  0  0  0  0  0  0  0  0
    4.7587   -0.2002    2.0892 H   0  0  0  0  0  0  0  0  0  0  0  0
    2.8245    0.4576    0.6771 H   0  0  0  0  0  0  0  0  0  0  0  0
    3.0527    1.3695   -0.8000 H   0  0  0  0  0  0  0  0  0  0  0  0
    4.0943   -0.6778   -1.9046 H   0  0  0  0  0  0  0  0  0  0  0  0
    3.8079   -1.5979   -0.4139 H   0  0  0  0  0  0  0  0  0  0  0  0
    1.8500   -0.7359   -2.4256 H   0  0  0  0  0  0  0  0  0  0  0  0
   -0.3047   -3.0202   -1.4165 H   0  0  0  0  0  0  0  0  0  0  0  0
   -0.1238   -1.6087   -2.4297 H   0  0  0  0  0  0  0  0  0  0  0  0
   -1.8042   -2.9822    0.5327 H   0  0  0  0  0  0  0  0  0  0  0  0
   -3.7369   -1.8996    1.6303 H   0  0  0  0  0  0  0  0  0  0  0  0
   -5.3898   -0.5618   -1.1352 H   0  0  0  0  0  0  0  0  0  0  0  0
   -7.3469    0.9179   -1.5213 H   0  0  0  0  0  0  0  0  0  0  0  0
   -7.8760   -1.0221   -2.8685 H   0  0  0  0  0  0  0  0  0  0  0  0
   -8.1737   -2.0362   -1.4217 H   0  0  0  0  0  0  0  0  0  0  0  0
  -10.4612    0.4717    0.4689 H   0  0  0  0  0  0  0  0  0  0  0  0
   -9.6027    1.6837   -0.5456 H   0  0  0  0  0  0  0  0  0  0  0  0
   -8.4522   -0.8409    0.7788 H   0  0  0  0  0  0  0  0  0  0  0  0
   -2.9924    1.7039   -0.5751 H   0  0  0  0  0  0  0  0  0  0  0  0
   -1.0655    0.6432   -1.6915 H   0  0  0  0  0  0  0  0  0  0  0  0
    5.3333    2.0499   -1.5520 H   0  0  0  0  0  0  0  0  0  0  0  0
    7.6505    2.5387   -0.8641 H   0  0  0  0  0  0  0  0  0  0  0  0
  1  2  1  0
  2  3  1  0
  3  4  1  0
  4  5  2  0
  5  6  1  0
  6  7  2  0
  7  8  1  0
  8  9  1  0
  9 10  1  0
 10 11  1  0
 11 12  2  0
 11 13  1  0
 13 14  1  0
 14 15  2  0
 15 16  1  0
 16 17  2  0
 17 18  1  0
 18 19  2  3
 19 20  1  0
 20 21  1  0
 21 22  1  0
 22 23  1  0
 23 24  2  0
 23 25  2  0
 23 26  1  0
 26 27  1  0
 27 28  1  0
 17 29  1  0
 29 30  2  0
  7 31  1  0
 31 32  2  0
 32  4  1  0
 30 14  1  0
 28 19  1  0
 27 21  1  0
  1 33  1  0
  1 34  1  0
  1 35  1  0
  2 36  1  0
  2 37  1  0
  5 38  1  0
  6 39  1  0
  8 40  1  0
  8 41  1  0
  9 42  1  0
  9 43  1  0
 10 44  1  0
 13 45  1  0
 13 46  1  0
 15 47  1  0
 16 48  1  0
 20 49  1  0
 21 50  1  0
 22 51  1  0
 22 52  1  0
 26 53  1  0
 26 54  1  0
 27 55  1  0
 29 56  1  0
 30 57  1  0
 31 58  1  0
 32 59  1  0
M  END
$$$$
