
     RDKit          3D

 38 40  0  0  0  0  0  0  0  0999 V2000
   -7.0115    0.1787   -2.0281 C   0  0  0  0  0  0  0  0  0  0  0  0
   -5.7968   -0.2282   -1.2478 C   0  0  0  0  0  0  0  0  0  0  0  0
   -5.2590   -1.3235   -1.3326 O   0  0  0  0  0  0  0  0  0  0  0  0
   -5.4132    0.8354   -0.4361 O   0  0  0  0  0  0  0  0  0  0  0  0
   -4.2806    0.6407    0.3681 C   0  0  0  0  0  0  0  0  0  0  0  0
   -4.4223    0.8870    1.7315 C   0  0  0  0  0  0  0  0  0  0  0  0
   -3.3159    0.7526    2.5667 C   0  0  0  0  0  0  0  0  0  0  0  0
   -2.0753    0.3917    2.0319 C   0  0  0  0  0  0  0  0  0  0  0  0
   -1.9243    0.1766    0.6538 C   0  0  0  0  0  0  0  0  0  0  0  0
   -0.6411   -0.2314    0.0648 C   0  0  0  0  0  0  0  0  0  0  0  0
    0.5379    0.3065    0.4186 C   0  0  0  0  0  0  0  0  0  0  0  0
    1.8495   -0.0665   -0.1250 C   0  0  0  0  0  0  0  0  0  0  0  0
    2.0252   -0.6195   -1.3877 C   0  0  0  0  0  0  0  0  0  0  0  0
    3.3166   -0.9134   -1.8193 C   0  0  0  0  0  0  0  0  0  0  0  0
    4.4063   -0.6416   -0.9861 C   0  0  0  0  0  0  0  0  0  0  0  0
    5.7330   -0.9185   -1.3687 C   0  0  0  0  0  0  0  0  0  0  0  0
    6.7931   -0.6286   -0.5078 C   0  0  0  0  0  0  0  0  0  0  0  0
    6.5365   -0.0621    0.7363 C   0  0  0  0  0  0  0  0  0  0  0  0
    5.2206    0.2062    1.1010 C   0  0  0  0  0  0  0  0  0  0  0  0
    4.9933    0.7654    2.3363 O   0  0  0  0  0  0  0  0  0  0  0  0
    4.1375   -0.0687    0.2705 C   0  0  0  0  0  0  0  0  0  0  0  0
    2.8884    0.2212    0.6947 N   0  0  0  0  0  0  0  0  0  0  0  0
   -3.0422    0.3013   -0.1796 C   0  0  0  0  0  0  0  0  0  0  0  0
   -7.3198   -0.6478   -2.6749 H   0  0  0  0  0  0  0  0  0  0  0  0
   -7.8314    0.4100   -1.3436 H   0  0  0  0  0  0  0  0  0  0  0  0
   -6.7770    1.0423   -2.6554 H   0  0  0  0  0  0  0  0  0  0  0  0
   -5.3853    1.1740    2.1428 H   0  0  0  0  0  0  0  0  0  0  0  0
   -3.4158    0.9242    3.6354 H   0  0  0  0  0  0  0  0  0  0  0  0
   -1.2292    0.2718    2.7053 H   0  0  0  0  0  0  0  0  0  0  0  0
   -0.7088   -1.0089   -0.6914 H   0  0  0  0  0  0  0  0  0  0  0  0
    0.5851    1.0795    1.1818 H   0  0  0  0  0  0  0  0  0  0  0  0
    1.1846   -0.8160   -2.0436 H   0  0  0  0  0  0  0  0  0  0  0  0
    3.4644   -1.3486   -2.8043 H   0  0  0  0  0  0  0  0  0  0  0  0
    5.9459   -1.3611   -2.3393 H   0  0  0  0  0  0  0  0  0  0  0  0
    7.8156   -0.8442   -0.8071 H   0  0  0  0  0  0  0  0  0  0  0  0
    7.3482    0.1701    1.4192 H   0  0  0  0  0  0  0  0  0  0  0  0
    4.0175    0.8577    2.3761 H   0  0  0  0  0  0  0  0  0  0  0  0
   -2.9500    0.1354   -1.2493 H   0  0  0  0  0  0  0  0  0  0  0  0
  1  2  1  0
  2  3  2  0
  2  4  1  0
  4  5  1  0
  5  6  2  0
  6  7  1  0
  7  8  2  0
  8  9  1  0
  9 10  1  0
 10 11  2  0
 11 12  1  0
 12 13  2  0
 13 14  1  0
 14 15  2  0
 15 16  1  0
 16 17  2  0
 17 18  1  0
 18 19  2  0
 19 20  1  0
 19 21  1  0
 21 22  2  0
  9 23  2  0
 23  5  1  0
 22 12  1  0
 21 15  1  0
  1 24  1  0
  1 25  1  0
  1 26  1  0
  6 27  1  0
  7 28  1  0
  8 29  1  0
 10 30  1  0
 11 31  1  0
 13 32  1  0
 14 33  1  0
 16 34  1  0
 17 35  1  0
 18 36  1  0
 20 37  1  0
 23 38  1  0
M  END
$$$$
