
     RDKit          3D

 37 39  0  0  0  0  0  0  0  0999 V2000
   -0.4337   -1.0344    2.0665 O   0  0  0  0  0  0  0  0  0  0  0  0
   -0.3457   -1.0488    0.8461 C   0  0  0  0  0  0  0  0  0  0  0  0
    0.7823   -0.4217    0.1100 C   0  0  0  0  0  0  0  0  0  0  0  0
    1.7749    0.2158    0.7460 C   0  0  0  0  0  0  0  0  0  0  0  0
    2.9224    0.8610    0.0949 C   0  0  0  0  0  0  0  0  0  0  0  0
    3.9556    0.0608   -0.4148 C   0  0  0  0  0  0  0  0  0  0  0  0
    5.0622    0.6588   -1.0375 C   0  0  0  0  0  0  0  0  0  0  0  0
    6.1378   -0.1861   -1.5716 N   0  0  0  0  0  4  0  0  0  0  0  0
    7.0918    0.3765   -2.1270 O   0  0  0  0  0  0  0  0  0  0  0  0
    6.0284   -1.4127   -1.4326 O   0  0  0  0  0  1  0  0  0  0  0  0
    5.1524    2.0512   -1.1522 C   0  0  0  0  0  0  0  0  0  0  0  0
    4.1273    2.8464   -0.6397 C   0  0  0  0  0  0  0  0  0  0  0  0
    3.0240    2.2552   -0.0233 C   0  0  0  0  0  0  0  0  0  0  0  0
    2.0700    3.1154    0.4445 O   0  0  0  0  0  0  0  0  0  0  0  0
    0.5817   -0.6416   -1.5782 S   0  0  0  0  0  0  0  0  0  0  0  0
   -0.9148   -1.5495   -1.3771 C   0  0  0  0  0  0  0  0  0  0  0  0
   -1.7287   -2.1893   -2.6847 S   0  0  0  0  0  0  0  0  0  0  0  0
   -1.2371   -1.6290   -0.0379 N   0  0  0  0  0  0  0  0  0  0  0  0
   -2.4327   -2.2784    0.4971 C   0  0  0  0  0  0  0  0  0  0  0  0
   -3.6003   -1.3201    0.6203 C   0  0  0  0  0  0  0  0  0  0  0  0
   -4.6143   -1.2935   -0.3492 C   0  0  0  0  0  0  0  0  0  0  0  0
   -5.6797   -0.3955   -0.2407 C   0  0  0  0  0  0  0  0  0  0  0  0
   -5.7408    0.4810    0.8394 C   0  0  0  0  0  0  0  0  0  0  0  0
   -7.0520    1.5862    0.9721 Cl  0  0  0  0  0  0  0  0  0  0  0  0
   -4.7465    0.4657    1.8136 C   0  0  0  0  0  0  0  0  0  0  0  0
   -3.6809   -0.4314    1.7046 C   0  0  0  0  0  0  0  0  0  0  0  0
    1.7711    0.2849    1.8333 H   0  0  0  0  0  0  0  0  0  0  0  0
    3.8934   -1.0227   -0.3252 H   0  0  0  0  0  0  0  0  0  0  0  0
    6.0044    2.5288   -1.6318 H   0  0  0  0  0  0  0  0  0  0  0  0
    4.1848    3.9296   -0.7217 H   0  0  0  0  0  0  0  0  0  0  0  0
    1.3219    2.6111    0.8031 H   0  0  0  0  0  0  0  0  0  0  0  0
   -2.2107   -2.6944    1.4880 H   0  0  0  0  0  0  0  0  0  0  0  0
   -2.7112   -3.1317   -0.1307 H   0  0  0  0  0  0  0  0  0  0  0  0
   -4.5904   -1.9732   -1.1989 H   0  0  0  0  0  0  0  0  0  0  0  0
   -6.4565   -0.3866   -1.0011 H   0  0  0  0  0  0  0  0  0  0  0  0
   -4.7943    1.1457    2.6602 H   0  0  0  0  0  0  0  0  0  0  0  0
   -2.9161   -0.4335    2.4800 H   0  0  0  0  0  0  0  0  0  0  0  0
  1  2  2  0
  2  3  1  0
  3  4  2  3
  4  5  1  0
  5  6  2  0
  6  7  1  0
  7  8  1  0
  8  9  2  0
  8 10  1  0
  7 11  2  0
 11 12  1  0
 12 13  2  0
 13 14  1  0
  3 15  1  0
 15 16  1  0
 16 17  2  0
 16 18  1  0
 18 19  1  0
 19 20  1  0
 20 21  2  0
 21 22  1  0
 22 23  2  0
 23 24  1  0
 23 25  1  0
 25 26  2  0
 18  2  1  0
 26 20  1  0
 13  5  1  0
  4 27  1  0
  6 28  1  0
 11 29  1  0
 12 30  1  0
 14 31  1  0
 19 32  1  0
 19 33  1  0
 21 34  1  0
 22 35  1  0
 25 36  1  0
 26 37  1  0
M  CHG  2   8   1  10  -1
M  END
$$$$
