
     RDKit          3D

 47 49  0  0  0  0  0  0  0  0999 V2000
    7.3375    1.0101   -0.0151 C   0  0  0  0  0  0  0  0  0  0  0  0
    6.1802    0.1687    0.4495 C   0  0  0  0  0  0  0  0  0  0  0  0
    4.9037    0.4023   -0.0944 C   0  0  0  0  0  0  0  0  0  0  0  0
    3.8016   -0.3416    0.3276 C   0  0  0  0  0  0  0  0  0  0  0  0
    2.5151   -0.2016   -0.1099 O   0  0  0  0  0  0  0  0  0  0  0  0
    2.2691    0.8088   -1.0912 C   0  0  0  0  0  0  0  0  0  0  0  0
    0.8105    0.8283   -1.3461 C   0  0  0  0  0  0  0  0  0  0  0  0
   -0.2037   -0.0954   -1.2775 C   0  0  0  0  0  0  0  0  0  0  0  0
   -1.3781    0.6159   -1.6577 C   0  0  0  0  0  0  0  0  0  0  0  0
   -2.7309    0.0392   -1.7603 C   0  0  0  0  0  0  0  0  0  0  0  0
   -2.8533   -1.1851   -1.8523 O   0  0  0  0  0  0  0  0  0  0  0  0
   -3.8549    0.8777   -1.7706 N   0  0  0  0  0  0  0  0  0  0  0  0
   -3.8173    2.2801   -1.3809 C   0  0  0  0  0  0  0  0  0  0  0  0
   -5.1676    0.2367   -1.7808 C   0  0  0  0  0  0  0  0  0  0  0  0
   -5.7288   -0.0905   -0.4040 C   0  0  0  0  0  0  0  0  0  0  0  0
   -6.9395   -0.7772   -0.3157 C   0  0  0  0  0  0  0  0  0  0  0  0
   -7.4680   -1.0587    0.9417 C   0  0  0  0  0  0  0  0  0  0  0  0
   -6.7825   -0.6541    2.0743 C   0  0  0  0  0  0  0  0  0  0  0  0
   -5.5892    0.0251    1.9049 C   0  0  0  0  0  0  0  0  0  0  0  0
   -5.0549    0.3197    0.7002 N   0  0  0  0  0  0  0  0  0  0  0  0
   -1.0617    1.8868   -1.9782 N   0  0  0  0  0  0  0  0  0  0  0  0
    0.2951    2.0140   -1.7639 O   0  0  0  0  0  0  0  0  0  0  0  0
    3.9742   -1.3307    1.2980 C   0  0  0  0  0  0  0  0  0  0  0  0
    5.2336   -1.5892    1.8579 C   0  0  0  0  0  0  0  0  0  0  0  0
    5.3533   -2.6429    2.9240 C   0  0  0  0  0  0  0  0  0  0  0  0
    6.3370   -0.8319    1.4265 C   0  0  0  0  0  0  0  0  0  0  0  0
    7.9030   -1.1240    2.1151 Cl  0  0  0  0  0  0  0  0  0  0  0  0
    8.1143    0.3815   -0.4606 H   0  0  0  0  0  0  0  0  0  0  0  0
    7.7547    1.5736    0.8246 H   0  0  0  0  0  0  0  0  0  0  0  0
    7.0278    1.7379   -0.7746 H   0  0  0  0  0  0  0  0  0  0  0  0
    4.8001    1.1821   -0.8413 H   0  0  0  0  0  0  0  0  0  0  0  0
    2.5846    1.7914   -0.7177 H   0  0  0  0  0  0  0  0  0  0  0  0
    2.7948    0.5679   -2.0233 H   0  0  0  0  0  0  0  0  0  0  0  0
   -0.1281   -1.1346   -0.9875 H   0  0  0  0  0  0  0  0  0  0  0  0
   -4.8240    2.6510   -1.1722 H   0  0  0  0  0  0  0  0  0  0  0  0
   -3.4100    2.8660   -2.2084 H   0  0  0  0  0  0  0  0  0  0  0  0
   -3.2041    2.4074   -0.4857 H   0  0  0  0  0  0  0  0  0  0  0  0
   -5.1126   -0.6906   -2.3619 H   0  0  0  0  0  0  0  0  0  0  0  0
   -5.8626    0.9034   -2.3042 H   0  0  0  0  0  0  0  0  0  0  0  0
   -7.4678   -1.0869   -1.2105 H   0  0  0  0  0  0  0  0  0  0  0  0
   -8.4107   -1.5887    1.0337 H   0  0  0  0  0  0  0  0  0  0  0  0
   -7.1680   -0.8622    3.0655 H   0  0  0  0  0  0  0  0  0  0  0  0
   -5.0136    0.3638    2.7593 H   0  0  0  0  0  0  0  0  0  0  0  0
    3.1046   -1.9032    1.6265 H   0  0  0  0  0  0  0  0  0  0  0  0
    5.6289   -2.1835    3.8781 H   0  0  0  0  0  0  0  0  0  0  0  0
    6.1014   -3.3947    2.6472 H   0  0  0  0  0  0  0  0  0  0  0  0
    4.4066   -3.1721    3.0713 H   0  0  0  0  0  0  0  0  0  0  0  0
  1  2  1  0
  2  3  2  0
  3  4  1  0
  4  5  1  0
  5  6  1  0
  6  7  1  0
  7  8  2  0
  8  9  1  0
  9 10  1  0
 10 11  2  0
 10 12  1  0
 12 13  1  0
 12 14  1  0
 14 15  1  0
 15 16  2  0
 16 17  1  0
 17 18  2  0
 18 19  1  0
 19 20  2  0
  9 21  2  0
 21 22  1  0
  4 23  2  0
 23 24  1  0
 24 25  1  0
 24 26  2  0
 26 27  1  0
 26  2  1  0
 22  7  1  0
 20 15  1  0
  1 28  1  0
  1 29  1  0
  1 30  1  0
  3 31  1  0
  6 32  1  0
  6 33  1  0
  8 34  1  0
 13 35  1  0
 13 36  1  0
 13 37  1  0
 14 38  1  0
 14 39  1  0
 16 40  1  0
 17 41  1  0
 18 42  1  0
 19 43  1  0
 23 44  1  0
 25 45  1  0
 25 46  1  0
 25 47  1  0
M  END
$$$$
