
     RDKit          3D

 40 44  0  0  0  0  0  0  0  0999 V2000
    6.2030    0.9125    0.5565 C   0  0  0  0  0  0  0  0  0  0  0  0
    5.7070    0.0079    1.4918 C   0  0  0  0  0  0  0  0  0  0  0  0
    4.3762   -0.4129    1.4207 C   0  0  0  0  0  0  0  0  0  0  0  0
    3.5186    0.0636    0.4153 C   0  0  0  0  0  0  0  0  0  0  0  0
    2.1162   -0.3796    0.3414 C   0  0  0  0  0  0  0  0  0  0  0  0
    1.7975   -1.7440    0.2675 C   0  0  0  0  0  0  0  0  0  0  0  0
    0.4746   -2.1989    0.1924 C   0  0  0  0  0  0  0  0  0  0  0  0
   -0.5460   -1.2417    0.2008 C   0  0  0  0  0  0  0  0  0  0  0  0
   -0.2765    0.1369    0.2717 C   0  0  0  0  0  0  0  0  0  0  0  0
    1.0671    0.5601    0.3395 C   0  0  0  0  0  0  0  0  0  0  0  0
   -1.5282    0.8182    0.2361 C   0  0  0  0  0  0  0  0  0  0  0  0
   -2.4970   -0.1501    0.1855 C   0  0  0  0  0  0  0  0  0  0  0  0
   -1.9082   -1.3685    0.1291 N   0  0  0  0  0  0  0  0  0  0  0  0
   -2.7402   -2.5306   -0.0932 C   0  0  0  0  0  0  0  0  0  0  0  0
   -4.1590   -2.2836    0.4462 C   0  0  0  0  0  0  0  0  0  0  0  0
   -4.7362   -0.9391    0.1672 N   0  0  0  0  0  0  0  0  0  0  0  0
   -3.9071    0.0498    0.1143 C   0  0  0  0  0  0  0  0  0  0  0  0
   -4.3625    1.4977    0.0266 C   0  0  0  0  0  0  0  0  0  0  0  0
   -3.2568    2.4441   -0.4939 C   0  0  0  0  0  0  0  0  0  0  0  0
   -1.8953    2.2611    0.2213 C   0  0  0  0  0  0  0  0  0  0  0  0
    4.0389    0.9761   -0.5176 C   0  0  0  0  0  0  0  0  0  0  0  0
    5.3698    1.3970   -0.4487 C   0  0  0  0  0  0  0  0  0  0  0  0
    7.2378    1.2399    0.6110 H   0  0  0  0  0  0  0  0  0  0  0  0
    6.3532   -0.3698    2.2797 H   0  0  0  0  0  0  0  0  0  0  0  0
    4.0046   -1.1115    2.1678 H   0  0  0  0  0  0  0  0  0  0  0  0
    2.5977   -2.4829    0.2531 H   0  0  0  0  0  0  0  0  0  0  0  0
    0.2599   -3.2604    0.1283 H   0  0  0  0  0  0  0  0  0  0  0  0
    1.2864    1.6228    0.4018 H   0  0  0  0  0  0  0  0  0  0  0  0
   -2.2836   -3.3967    0.3945 H   0  0  0  0  0  0  0  0  0  0  0  0
   -2.7628   -2.6955   -1.1762 H   0  0  0  0  0  0  0  0  0  0  0  0
   -4.1666   -2.4244    1.5345 H   0  0  0  0  0  0  0  0  0  0  0  0
   -4.8330   -3.0391    0.0274 H   0  0  0  0  0  0  0  0  0  0  0  0
   -5.2448    1.5580   -0.6196 H   0  0  0  0  0  0  0  0  0  0  0  0
   -4.6664    1.8070    1.0338 H   0  0  0  0  0  0  0  0  0  0  0  0
   -3.1170    2.2543   -1.5668 H   0  0  0  0  0  0  0  0  0  0  0  0
   -3.5862    3.4846   -0.3949 H   0  0  0  0  0  0  0  0  0  0  0  0
   -1.1291    2.8510   -0.2931 H   0  0  0  0  0  0  0  0  0  0  0  0
   -1.9672    2.6280    1.2517 H   0  0  0  0  0  0  0  0  0  0  0  0
    3.4070    1.3580   -1.3170 H   0  0  0  0  0  0  0  0  0  0  0  0
    5.7540    2.1009   -1.1822 H   0  0  0  0  0  0  0  0  0  0  0  0
  1  2  2  0
  2  3  1  0
  3  4  2  0
  4  5  1  0
  5  6  2  0
  6  7  1  0
  7  8  2  0
  8  9  1  0
  9 10  2  0
  9 11  1  0
 11 12  2  0
 12 13  1  0
 13 14  1  0
 14 15  1  0
 15 16  1  0
 16 17  2  0
 17 18  1  0
 18 19  1  0
 19 20  1  0
  4 21  1  0
 21 22  2  0
 22  1  1  0
 10  5  1  0
 20 11  1  0
 13  8  1  0
 17 12  1  0
  1 23  1  0
  2 24  1  0
  3 25  1  0
  6 26  1  0
  7 27  1  0
 10 28  1  0
 14 29  1  0
 14 30  1  0
 15 31  1  0
 15 32  1  0
 18 33  1  0
 18 34  1  0
 19 35  1  0
 19 36  1  0
 20 37  1  0
 20 38  1  0
 21 39  1  0
 22 40  1  0
M  END
$$$$
