
     RDKit          3D

 42 44  0  0  0  0  0  0  0  0999 V2000
    5.6721   -0.9581   -1.7189 C   0  0  0  0  0  0  0  0  0  0  0  0
    4.7508    0.0840   -2.3388 C   0  0  0  0  0  0  0  0  0  0  0  0
    3.4274    0.2611   -1.5929 C   0  0  0  0  0  0  0  0  0  0  0  0
    2.3546   -1.2085   -1.7455 S   0  0  0  0  0  0  0  0  0  0  0  0
    0.9377   -0.6880   -0.7852 C   0  0  0  0  0  0  0  0  0  0  0  0
   -0.1096   -1.5708   -0.6301 C   0  0  0  0  0  0  0  0  0  0  0  0
   -1.1948   -1.1496    0.1088 C   0  0  0  0  0  0  0  0  0  0  0  0
   -2.2806   -1.9645    0.3299 N   0  0  0  0  0  0  0  0  0  0  0  0
   -3.4275   -1.4565    1.0739 C   0  0  0  0  0  0  0  0  0  0  0  0
   -4.4076   -2.6247    1.0338 C   0  0  0  0  0  0  0  0  0  0  0  0
   -4.1614   -3.2171   -0.3446 C   0  0  0  0  0  0  0  0  0  0  0  0
   -2.6491   -3.0836   -0.5296 C   0  0  0  0  0  0  0  0  0  0  0  0
   -1.1985    0.0738    0.6649 N   0  0  0  0  0  0  0  0  0  0  0  0
   -0.1372    0.8773    0.4665 C   0  0  0  0  0  0  0  0  0  0  0  0
   -0.1663    2.2216    1.0805 C   0  0  0  0  0  0  0  0  0  0  0  0
   -1.2553    2.6485    1.8659 C   0  0  0  0  0  0  0  0  0  0  0  0
   -1.2858    3.9200    2.4482 C   0  0  0  0  0  0  0  0  0  0  0  0
   -0.2239    4.7986    2.2583 C   0  0  0  0  0  0  0  0  0  0  0  0
    0.8666    4.4070    1.4880 C   0  0  0  0  0  0  0  0  0  0  0  0
    0.8931    3.1344    0.9075 C   0  0  0  0  0  0  0  0  0  0  0  0
    0.9437    0.5403   -0.2521 N   0  0  0  0  0  0  0  0  0  0  0  0
    5.8647   -0.7334   -0.6649 H   0  0  0  0  0  0  0  0  0  0  0  0
    6.6335   -0.9663   -2.2428 H   0  0  0  0  0  0  0  0  0  0  0  0
    5.2507   -1.9652   -1.7861 H   0  0  0  0  0  0  0  0  0  0  0  0
    4.5691   -0.1622   -3.3920 H   0  0  0  0  0  0  0  0  0  0  0  0
    5.2763    1.0469   -2.3320 H   0  0  0  0  0  0  0  0  0  0  0  0
    3.6236    0.4641   -0.5345 H   0  0  0  0  0  0  0  0  0  0  0  0
    2.8996    1.1227   -2.0160 H   0  0  0  0  0  0  0  0  0  0  0  0
   -0.0669   -2.5603   -1.0631 H   0  0  0  0  0  0  0  0  0  0  0  0
   -3.8616   -0.5828    0.5723 H   0  0  0  0  0  0  0  0  0  0  0  0
   -3.1728   -1.1936    2.1061 H   0  0  0  0  0  0  0  0  0  0  0  0
   -4.1540   -3.3592    1.8077 H   0  0  0  0  0  0  0  0  0  0  0  0
   -5.4437   -2.3090    1.1829 H   0  0  0  0  0  0  0  0  0  0  0  0
   -4.5033   -4.2523   -0.4312 H   0  0  0  0  0  0  0  0  0  0  0  0
   -4.6835   -2.6216   -1.1034 H   0  0  0  0  0  0  0  0  0  0  0  0
   -2.1364   -3.9917   -0.1939 H   0  0  0  0  0  0  0  0  0  0  0  0
   -2.4168   -2.9108   -1.5863 H   0  0  0  0  0  0  0  0  0  0  0  0
   -2.0992    1.9802    2.0314 H   0  0  0  0  0  0  0  0  0  0  0  0
   -2.1404    4.2193    3.0493 H   0  0  0  0  0  0  0  0  0  0  0  0
   -0.2459    5.7867    2.7102 H   0  0  0  0  0  0  0  0  0  0  0  0
    1.6994    5.0886    1.3361 H   0  0  0  0  0  0  0  0  0  0  0  0
    1.7591    2.8547    0.3098 H   0  0  0  0  0  0  0  0  0  0  0  0
  1  2  1  0
  2  3  1  0
  3  4  1  0
  4  5  1  0
  5  6  2  0
  6  7  1  0
  7  8  1  0
  8  9  1  0
  9 10  1  0
 10 11  1  0
 11 12  1  0
  7 13  2  0
 13 14  1  0
 14 15  1  0
 15 16  2  0
 16 17  1  0
 17 18  2  0
 18 19  1  0
 19 20  2  0
 14 21  2  0
 21  5  1  0
 12  8  1  0
 20 15  1  0
  1 22  1  0
  1 23  1  0
  1 24  1  0
  2 25  1  0
  2 26  1  0
  3 27  1  0
  3 28  1  0
  6 29  1  0
  9 30  1  0
  9 31  1  0
 10 32  1  0
 10 33  1  0
 11 34  1  0
 11 35  1  0
 12 36  1  0
 12 37  1  0
 16 38  1  0
 17 39  1  0
 18 40  1  0
 19 41  1  0
 20 42  1  0
M  END
$$$$
