
     RDKit          3D

 40 40  0  0  0  0  0  0  0  0999 V2000
   -2.5084    3.9727    2.1553 C   0  0  0  0  0  0  0  0  0  0  0  0
   -2.1354    2.5518    1.7624 C   0  0  0  0  0  0  0  0  0  0  0  0
   -2.7528    2.1643    0.4164 C   0  0  0  0  0  0  0  0  0  0  0  0
   -2.4289    0.7236    0.0159 C   0  0  0  0  0  0  0  0  0  0  0  0
   -0.9959    0.6169   -0.2483 N   0  0  0  0  0  0  0  0  0  0  0  0
   -0.5465   -0.4644   -0.8157 C   0  0  0  0  0  0  0  0  0  0  0  0
    0.8007   -0.6120   -1.1287 N   0  0  0  0  0  0  0  0  0  0  0  0
    1.6430    0.4754   -1.0625 N   0  0  0  0  0  0  0  0  0  0  0  0
    2.9953    0.3631   -0.6681 C   0  0  0  0  0  0  0  0  0  0  0  0
    3.7272    1.5321   -0.4130 C   0  0  0  0  0  0  0  0  0  0  0  0
    5.0854    1.4744   -0.0857 C   0  0  0  0  0  0  0  0  0  0  0  0
    5.7288    0.2415   -0.0329 C   0  0  0  0  0  0  0  0  0  0  0  0
    7.5648    0.1569    0.4069 Br  0  0  0  0  0  0  0  0  0  0  0  0
    5.0288   -0.9290   -0.3123 C   0  0  0  0  0  0  0  0  0  0  0  0
    3.6702   -0.8643   -0.6398 C   0  0  0  0  0  0  0  0  0  0  0  0
   -1.4493   -1.6485   -1.2032 C   0  0  0  0  0  0  0  0  0  0  0  0
   -1.6085   -1.9749   -2.3657 O   0  0  0  0  0  0  0  0  0  0  0  0
   -1.9123   -2.2577   -0.0945 O   0  0  0  0  0  0  0  0  0  0  0  0
   -2.7359   -3.4091   -0.3191 C   0  0  0  0  0  0  0  0  0  0  0  0
   -1.8743   -4.6529   -0.4301 C   0  0  0  0  0  0  0  0  0  0  0  0
   -2.1506    4.6921    1.4117 H   0  0  0  0  0  0  0  0  0  0  0  0
   -3.5938    4.0829    2.2461 H   0  0  0  0  0  0  0  0  0  0  0  0
   -2.0593    4.2295    3.1198 H   0  0  0  0  0  0  0  0  0  0  0  0
   -2.4796    1.8618    2.5416 H   0  0  0  0  0  0  0  0  0  0  0  0
   -1.0435    2.4712    1.7167 H   0  0  0  0  0  0  0  0  0  0  0  0
   -3.8425    2.2737    0.4758 H   0  0  0  0  0  0  0  0  0  0  0  0
   -2.4008    2.8527   -0.3620 H   0  0  0  0  0  0  0  0  0  0  0  0
   -3.0102    0.4795   -0.8809 H   0  0  0  0  0  0  0  0  0  0  0  0
   -2.7257    0.0469    0.8246 H   0  0  0  0  0  0  0  0  0  0  0  0
    0.9954   -1.2712   -1.8830 H   0  0  0  0  0  0  0  0  0  0  0  0
    1.1895    1.2859   -0.6199 H   0  0  0  0  0  0  0  0  0  0  0  0
    3.2408    2.5032   -0.4687 H   0  0  0  0  0  0  0  0  0  0  0  0
    5.6270    2.3940    0.1178 H   0  0  0  0  0  0  0  0  0  0  0  0
    5.5269   -1.8942   -0.2832 H   0  0  0  0  0  0  0  0  0  0  0  0
    3.1450   -1.7882   -0.8616 H   0  0  0  0  0  0  0  0  0  0  0  0
   -3.4046   -3.4990    0.5434 H   0  0  0  0  0  0  0  0  0  0  0  0
   -3.3684   -3.2806   -1.2053 H   0  0  0  0  0  0  0  0  0  0  0  0
   -1.1976   -4.5860   -1.2879 H   0  0  0  0  0  0  0  0  0  0  0  0
   -2.4951   -5.5460   -0.5436 H   0  0  0  0  0  0  0  0  0  0  0  0
   -1.2487   -4.7680    0.4611 H   0  0  0  0  0  0  0  0  0  0  0  0
  1  2  1  0
  2  3  1  0
  3  4  1  0
  4  5  1  0
  5  6  2  3
  6  7  1  0
  7  8  1  0
  8  9  1  0
  9 10  2  0
 10 11  1  0
 11 12  2  0
 12 13  1  0
 12 14  1  0
 14 15  2  0
  6 16  1  0
 16 17  2  0
 16 18  1  0
 18 19  1  0
 19 20  1  0
 15  9  1  0
  1 21  1  0
  1 22  1  0
  1 23  1  0
  2 24  1  0
  2 25  1  0
  3 26  1  0
  3 27  1  0
  4 28  1  0
  4 29  1  0
  7 30  1  0
  8 31  1  0
 10 32  1  0
 11 33  1  0
 14 34  1  0
 15 35  1  0
 19 36  1  0
 19 37  1  0
 20 38  1  0
 20 39  1  0
 20 40  1  0
M  END
$$$$
