
     RDKit          3D

 70 75  0  0  0  0  0  0  0  0999 V2000
    0.2280   -2.8178   -4.9032 C   0  0  0  0  0  0  0  0  0  0  0  0
    0.0065   -2.7236   -3.4231 C   0  0  0  0  0  0  0  0  0  0  0  0
    0.9532   -3.2323   -2.5302 C   0  0  0  0  0  0  0  0  0  0  0  0
    0.7299   -3.1718   -1.1517 C   0  0  0  0  0  0  0  0  0  0  0  0
   -0.4422   -2.5997   -0.6314 C   0  0  0  0  0  0  0  0  0  0  0  0
   -0.6488   -2.5936    0.8717 C   0  0  0  0  0  0  0  0  0  0  0  0
   -1.4490   -1.4939    1.4084 N   0  0  0  0  0  0  0  0  0  0  0  0
   -2.8294   -1.7027    1.5291 C   0  0  0  0  0  0  0  0  0  0  0  0
   -3.4004   -2.7163    1.1181 O   0  0  0  0  0  0  0  0  0  0  0  0
   -3.6488   -0.5424    2.1107 C   0  0  0  0  0  0  0  0  0  0  0  0
   -4.0326    0.4269    0.9788 C   0  0  0  0  0  0  0  0  0  0  0  0
   -5.0379    1.4696    1.4099 C   0  0  0  0  0  0  0  0  0  0  0  0
   -4.6144    2.7461    1.8045 C   0  0  0  0  0  0  0  0  0  0  0  0
   -5.5427    3.7002    2.2230 C   0  0  0  0  0  0  0  0  0  0  0  0
   -6.9005    3.3877    2.2512 C   0  0  0  0  0  0  0  0  0  0  0  0
   -7.3316    2.1207    1.8624 C   0  0  0  0  0  0  0  0  0  0  0  0
   -6.4053    1.1642    1.4448 C   0  0  0  0  0  0  0  0  0  0  0  0
   -2.9235    0.1089    3.1995 N   0  0  0  0  0  0  0  0  0  0  0  0
   -1.6038    0.4386    2.9070 C   0  0  0  0  0  0  0  0  0  0  0  0
   -1.1428    1.5112    3.5665 N   0  0  0  0  0  0  0  0  0  0  0  0
    0.1412    1.8054    3.3723 C   0  0  0  0  0  0  0  0  0  0  0  0
    0.9800    1.1558    2.5614 N   0  0  0  0  0  0  0  0  0  0  0  0
    0.4884    0.0986    1.8737 C   0  0  0  0  0  0  0  0  0  0  0  0
    1.3509   -0.4721    0.9112 N   0  0  0  0  0  0  0  0  0  0  0  0
    1.3078    0.3676   -0.3211 C   0  0  0  0  0  0  0  0  0  0  0  0
    2.5447    0.1478   -1.2204 C   0  0  0  0  0  0  0  0  0  0  0  0
    3.7910    0.4838   -0.5047 N   0  0  0  0  0  0  0  0  0  0  0  0
    4.9223    0.9079   -1.1798 C   0  0  0  0  0  0  0  0  0  0  0  0
    5.9357    1.6442   -0.5447 C   0  0  0  0  0  0  0  0  0  0  0  0
    7.0833    2.0709   -1.2254 C   0  0  0  0  0  0  0  0  0  0  0  0
    7.2493    1.7674   -2.5707 C   0  0  0  0  0  0  0  0  0  0  0  0
    6.2669    1.0398   -3.2300 C   0  0  0  0  0  0  0  0  0  0  0  0
    5.1225    0.6195   -2.5403 C   0  0  0  0  0  0  0  0  0  0  0  0
    3.7357    0.4108    0.9679 C   0  0  0  0  0  0  0  0  0  0  0  0
    2.7293   -0.6657    1.4346 C   0  0  0  0  0  0  0  0  0  0  0  0
   -0.8346   -0.3428    2.0326 C   0  0  0  0  0  0  0  0  0  0  0  0
   -1.4054   -2.1333   -1.5360 C   0  0  0  0  0  0  0  0  0  0  0  0
   -1.1819   -2.1903   -2.9155 C   0  0  0  0  0  0  0  0  0  0  0  0
   -0.1565   -3.7706   -5.2796 H   0  0  0  0  0  0  0  0  0  0  0  0
    1.2942   -2.7459   -5.1431 H   0  0  0  0  0  0  0  0  0  0  0  0
   -0.2779   -1.9999   -5.4270 H   0  0  0  0  0  0  0  0  0  0  0  0
    1.8731   -3.6808   -2.8993 H   0  0  0  0  0  0  0  0  0  0  0  0
    1.4875   -3.5697   -0.4793 H   0  0  0  0  0  0  0  0  0  0  0  0
    0.3041   -2.6477    1.4092 H   0  0  0  0  0  0  0  0  0  0  0  0
   -1.1506   -3.5395    1.1172 H   0  0  0  0  0  0  0  0  0  0  0  0
   -4.5531   -0.9839    2.5481 H   0  0  0  0  0  0  0  0  0  0  0  0
   -4.4575   -0.1362    0.1366 H   0  0  0  0  0  0  0  0  0  0  0  0
   -3.1475    0.9264    0.5636 H   0  0  0  0  0  0  0  0  0  0  0  0
   -3.5572    3.0047    1.7940 H   0  0  0  0  0  0  0  0  0  0  0  0
   -5.2060    4.6876    2.5283 H   0  0  0  0  0  0  0  0  0  0  0  0
   -7.6229    4.1316    2.5768 H   0  0  0  0  0  0  0  0  0  0  0  0
   -8.3909    1.8772    1.8850 H   0  0  0  0  0  0  0  0  0  0  0  0
   -6.7595    0.1797    1.1459 H   0  0  0  0  0  0  0  0  0  0  0  0
   -3.3871    0.8833    3.6658 H   0  0  0  0  0  0  0  0  0  0  0  0
    0.5406    2.6544    3.9161 H   0  0  0  0  0  0  0  0  0  0  0  0
    1.2646    1.4373   -0.0691 H   0  0  0  0  0  0  0  0  0  0  0  0
    0.4010    0.1392   -0.8902 H   0  0  0  0  0  0  0  0  0  0  0  0
    2.4215    0.7819   -2.1067 H   0  0  0  0  0  0  0  0  0  0  0  0
    2.5959   -0.8951   -1.5488 H   0  0  0  0  0  0  0  0  0  0  0  0
    5.8409    1.9256    0.5001 H   0  0  0  0  0  0  0  0  0  0  0  0
    7.8413    2.6441   -0.6986 H   0  0  0  0  0  0  0  0  0  0  0  0
    8.1383    2.0950   -3.1015 H   0  0  0  0  0  0  0  0  0  0  0  0
    6.3863    0.7902   -4.2808 H   0  0  0  0  0  0  0  0  0  0  0  0
    4.3933    0.0326   -3.0918 H   0  0  0  0  0  0  0  0  0  0  0  0
    4.7143    0.1342    1.3784 H   0  0  0  0  0  0  0  0  0  0  0  0
    3.4639    1.3938    1.3691 H   0  0  0  0  0  0  0  0  0  0  0  0
    3.0710   -1.6389    1.0580 H   0  0  0  0  0  0  0  0  0  0  0  0
    2.7461   -0.7524    2.5289 H   0  0  0  0  0  0  0  0  0  0  0  0
   -2.3502   -1.7297   -1.1844 H   0  0  0  0  0  0  0  0  0  0  0  0
   -1.9519   -1.8239   -3.5912 H   0  0  0  0  0  0  0  0  0  0  0  0
  1  2  1  0
  2  3  2  0
  3  4  1  0
  4  5  2  0
  5  6  1  0
  6  7  1  0
  7  8  1  0
  8  9  2  0
  8 10  1  0
 10 11  1  0
 11 12  1  0
 12 13  2  0
 13 14  1  0
 14 15  2  0
 15 16  1  0
 16 17  2  0
 10 18  1  0
 18 19  1  0
 19 20  2  0
 20 21  1  0
 21 22  2  0
 22 23  1  0
 23 24  1  0
 24 25  1  0
 25 26  1  0
 26 27  1  0
 27 28  1  0
 28 29  2  0
 29 30  1  0
 30 31  2  0
 31 32  1  0
 32 33  2  0
 27 34  1  0
 34 35  1  0
 23 36  2  0
  5 37  1  0
 37 38  2  0
 38  2  1  0
 36  7  1  0
 17 12  1  0
 36 19  1  0
 35 24  1  0
 33 28  1  0
  1 39  1  0
  1 40  1  0
  1 41  1  0
  3 42  1  0
  4 43  1  0
  6 44  1  0
  6 45  1  0
 10 46  1  0
 11 47  1  0
 11 48  1  0
 13 49  1  0
 14 50  1  0
 15 51  1  0
 16 52  1  0
 17 53  1  0
 18 54  1  0
 21 55  1  0
 25 56  1  0
 25 57  1  0
 26 58  1  0
 26 59  1  0
 29 60  1  0
 30 61  1  0
 31 62  1  0
 32 63  1  0
 33 64  1  0
 34 65  1  0
 34 66  1  0
 35 67  1  0
 35 68  1  0
 37 69  1  0
 38 70  1  0
M  END
$$$$
