
     RDKit          3D

 40 41  0  0  0  0  0  0  0  0999 V2000
   -1.3360   -0.1113    1.5902 O   0  0  0  0  0  0  0  0  0  0  0  0
   -1.5121    0.5104    0.5476 C   0  0  0  0  0  0  0  0  0  0  0  0
   -0.3492    0.9498   -0.3486 C   0  0  0  0  0  0  0  0  0  0  0  0
    0.9073    0.5798    0.2143 O   0  0  0  0  0  0  0  0  0  0  0  0
    1.9730    0.9075   -0.5602 C   0  0  0  0  0  0  0  0  0  0  0  0
    1.9054    1.4750   -1.6420 O   0  0  0  0  0  0  0  0  0  0  0  0
    3.2618    0.4796    0.0960 C   0  0  0  0  0  0  0  0  0  0  0  0
    3.4330   -1.0443    0.0786 C   0  0  0  0  0  0  0  0  0  0  0  0
    3.7376   -1.5978   -1.3153 C   0  0  0  0  0  0  0  0  0  0  0  0
    5.2384   -1.3969   -1.5043 C   0  0  0  0  0  0  0  0  0  0  0  0
    5.8357   -1.3142   -0.1003 C   0  0  0  0  0  0  0  0  0  0  0  0
    4.6679   -1.4848    0.8662 C   0  0  0  0  0  0  0  0  0  0  0  0
   -2.7389    0.9007    0.0266 N   0  0  0  0  0  0  0  0  0  0  0  0
   -4.0406    0.6830    0.5551 C   0  0  0  0  0  0  0  0  0  0  0  0
   -4.2340   -0.0111    1.7581 C   0  0  0  0  0  0  0  0  0  0  0  0
   -5.5154   -0.2285    2.2801 C   0  0  0  0  0  0  0  0  0  0  0  0
   -6.6385    0.2432    1.6120 C   0  0  0  0  0  0  0  0  0  0  0  0
   -6.4842    0.9376    0.4156 C   0  0  0  0  0  0  0  0  0  0  0  0
   -5.1962    1.1583   -0.1139 C   0  0  0  0  0  0  0  0  0  0  0  0
   -5.1098    1.8995   -1.3853 N   0  0  0  0  0  4  0  0  0  0  0  0
   -6.1665    2.2675   -1.9175 O   0  0  0  0  0  0  0  0  0  0  0  0
   -3.9833    2.1173   -1.8608 O   0  0  0  0  0  1  0  0  0  0  0  0
   -0.3951    2.0402   -0.4551 H   0  0  0  0  0  0  0  0  0  0  0  0
   -0.4756    0.4645   -1.3238 H   0  0  0  0  0  0  0  0  0  0  0  0
    3.2551    0.8604    1.1248 H   0  0  0  0  0  0  0  0  0  0  0  0
    4.0868    0.9902   -0.4140 H   0  0  0  0  0  0  0  0  0  0  0  0
    2.5329   -1.5186    0.4865 H   0  0  0  0  0  0  0  0  0  0  0  0
    3.1557   -1.1275   -2.1134 H   0  0  0  0  0  0  0  0  0  0  0  0
    3.5137   -2.6719   -1.3371 H   0  0  0  0  0  0  0  0  0  0  0  0
    5.4356   -0.4665   -2.0489 H   0  0  0  0  0  0  0  0  0  0  0  0
    5.6776   -2.2141   -2.0854 H   0  0  0  0  0  0  0  0  0  0  0  0
    6.6017   -2.0792    0.0622 H   0  0  0  0  0  0  0  0  0  0  0  0
    6.3128   -0.3381    0.0444 H   0  0  0  0  0  0  0  0  0  0  0  0
    4.5726   -2.5447    1.1346 H   0  0  0  0  0  0  0  0  0  0  0  0
    4.8139   -0.9225    1.7937 H   0  0  0  0  0  0  0  0  0  0  0  0
   -2.7069    1.4171   -0.8547 H   0  0  0  0  0  0  0  0  0  0  0  0
   -3.4012   -0.4077    2.3321 H   0  0  0  0  0  0  0  0  0  0  0  0
   -5.6272   -0.7719    3.2166 H   0  0  0  0  0  0  0  0  0  0  0  0
   -7.6308    0.0707    2.0227 H   0  0  0  0  0  0  0  0  0  0  0  0
   -7.3767    1.2996   -0.0925 H   0  0  0  0  0  0  0  0  0  0  0  0
  1  2  2  0
  2  3  1  0
  3  4  1  0
  4  5  1  0
  5  6  2  0
  5  7  1  0
  7  8  1  0
  8  9  1  0
  9 10  1  0
 10 11  1  0
 11 12  1  0
  2 13  1  0
 13 14  1  0
 14 15  2  0
 15 16  1  0
 16 17  2  0
 17 18  1  0
 18 19  2  0
 19 20  1  0
 20 21  2  0
 20 22  1  0
 12  8  1  0
 19 14  1  0
  3 23  1  0
  3 24  1  0
  7 25  1  0
  7 26  1  0
  8 27  1  0
  9 28  1  0
  9 29  1  0
 10 30  1  0
 10 31  1  0
 11 32  1  0
 11 33  1  0
 12 34  1  0
 12 35  1  0
 13 36  1  0
 15 37  1  0
 16 38  1  0
 17 39  1  0
 18 40  1  0
M  CHG  2  20   1  22  -1
M  END
$$$$
