
     RDKit          3D

 53 56  0  0  0  0  0  0  0  0999 V2000
    6.2213    1.4502   -3.0360 C   0  0  0  0  0  0  0  0  0  0  0  0
    6.3713    2.6939   -2.3543 O   0  0  0  0  0  0  0  0  0  0  0  0
    5.5533    2.9124   -1.2781 C   0  0  0  0  0  0  0  0  0  0  0  0
    5.7064    4.1585   -0.6720 C   0  0  0  0  0  0  0  0  0  0  0  0
    4.9421    4.5139    0.4461 C   0  0  0  0  0  0  0  0  0  0  0  0
    4.0095    3.6180    0.9849 C   0  0  0  0  0  0  0  0  0  0  0  0
    3.2233    3.9025    2.0745 O   0  0  0  0  0  0  0  0  0  0  0  0
    3.1667    5.2541    2.5105 C   0  0  0  0  0  0  0  0  0  0  0  0
    3.8601    2.3478    0.3894 C   0  0  0  0  0  0  0  0  0  0  0  0
    2.9402    1.3327    0.8977 C   0  0  0  0  0  0  0  0  0  0  0  0
    2.8112    1.0021    2.2329 C   0  0  0  0  0  0  0  0  0  0  0  0
    1.7086   -0.2969    2.4031 S   0  0  0  0  0  0  0  0  0  0  0  0
    1.4822   -0.3155    0.7151 C   0  0  0  0  0  0  0  0  0  0  0  0
    0.6392   -1.1878    0.0776 N   0  0  0  0  0  0  0  0  0  0  0  0
   -0.1116   -2.1900    0.6497 C   0  0  0  0  0  0  0  0  0  0  0  0
   -0.1873   -2.4793    1.8442 O   0  0  0  0  0  0  0  0  0  0  0  0
   -0.9008   -2.9944   -0.3608 C   0  0  0  0  0  0  0  0  0  0  0  0
   -2.3224   -2.7237   -0.2459 N   0  0  0  0  0  0  0  0  0  0  0  0
   -3.1359   -3.1430    0.7869 C   0  0  0  0  0  0  0  0  0  0  0  0
   -2.6792   -3.7280    1.8939 O   0  0  0  0  0  0  0  0  0  0  0  0
   -4.4351   -2.8635    0.4205 C   0  0  0  0  0  0  0  0  0  0  0  0
   -4.3990   -2.1808   -0.8326 C   0  0  0  0  0  0  0  0  0  0  0  0
   -3.0743   -2.0868   -1.2072 C   0  0  0  0  0  0  0  0  0  0  0  0
   -2.4960   -1.5371   -2.2690 O   0  0  0  0  0  0  0  0  0  0  0  0
   -5.6320   -1.6738   -1.5078 C   0  0  0  0  0  0  0  0  0  0  0  0
   -6.8937   -2.3556   -0.9501 C   0  0  0  0  0  0  0  0  0  0  0  0
   -6.8903   -2.3863    0.5880 C   0  0  0  0  0  0  0  0  0  0  0  0
   -5.6973   -3.1839    1.1477 C   0  0  0  0  0  0  0  0  0  0  0  0
    2.1805    0.5564    0.0307 N   0  0  0  0  0  0  0  0  0  0  0  0
    4.6259    2.0140   -0.7496 C   0  0  0  0  0  0  0  0  0  0  0  0
    6.4329    0.6034   -2.3724 H   0  0  0  0  0  0  0  0  0  0  0  0
    6.9532    1.4244   -3.8517 H   0  0  0  0  0  0  0  0  0  0  0  0
    5.2228    1.3673   -3.4828 H   0  0  0  0  0  0  0  0  0  0  0  0
    6.4335    4.8628   -1.0731 H   0  0  0  0  0  0  0  0  0  0  0  0
    5.1126    5.4955    0.8794 H   0  0  0  0  0  0  0  0  0  0  0  0
    2.4082    5.3214    3.2956 H   0  0  0  0  0  0  0  0  0  0  0  0
    4.1218    5.5684    2.9441 H   0  0  0  0  0  0  0  0  0  0  0  0
    2.8641    5.9225    1.6970 H   0  0  0  0  0  0  0  0  0  0  0  0
    3.3025    1.4382    3.0923 H   0  0  0  0  0  0  0  0  0  0  0  0
    0.5741   -1.0083   -0.9150 H   0  0  0  0  0  0  0  0  0  0  0  0
   -0.7429   -4.0634   -0.1664 H   0  0  0  0  0  0  0  0  0  0  0  0
   -0.5712   -2.8009   -1.3873 H   0  0  0  0  0  0  0  0  0  0  0  0
   -1.7888   -3.3737    2.1095 H   0  0  0  0  0  0  0  0  0  0  0  0
   -3.2148   -1.1741   -2.8209 H   0  0  0  0  0  0  0  0  0  0  0  0
   -5.5764   -1.8285   -2.5918 H   0  0  0  0  0  0  0  0  0  0  0  0
   -5.7030   -0.5907   -1.3346 H   0  0  0  0  0  0  0  0  0  0  0  0
   -7.7842   -1.8274   -1.3084 H   0  0  0  0  0  0  0  0  0  0  0  0
   -6.9561   -3.3883   -1.3281 H   0  0  0  0  0  0  0  0  0  0  0  0
   -7.8251   -2.8228    0.9548 H   0  0  0  0  0  0  0  0  0  0  0  0
   -6.8491   -1.3526    0.9633 H   0  0  0  0  0  0  0  0  0  0  0  0
   -5.5898   -2.9779    2.2216 H   0  0  0  0  0  0  0  0  0  0  0  0
   -5.8951   -4.2579    1.0383 H   0  0  0  0  0  0  0  0  0  0  0  0
    4.4839    1.0325   -1.1937 H   0  0  0  0  0  0  0  0  0  0  0  0
  1  2  1  0
  2  3  1  0
  3  4  2  0
  4  5  1  0
  5  6  2  0
  6  7  1  0
  7  8  1  0
  6  9  1  0
  9 10  1  0
 10 11  2  0
 11 12  1  0
 12 13  1  0
 13 14  1  0
 14 15  1  0
 15 16  2  0
 15 17  1  0
 17 18  1  0
 18 19  1  0
 19 20  1  0
 19 21  2  0
 21 22  1  0
 22 23  2  0
 23 24  1  0
 22 25  1  0
 25 26  1  0
 26 27  1  0
 27 28  1  0
 13 29  2  0
  9 30  2  0
 30  3  1  0
 29 10  1  0
 23 18  1  0
 28 21  1  0
  1 31  1  0
  1 32  1  0
  1 33  1  0
  4 34  1  0
  5 35  1  0
  8 36  1  0
  8 37  1  0
  8 38  1  0
 11 39  1  0
 14 40  1  0
 17 41  1  0
 17 42  1  0
 20 43  1  0
 24 44  1  0
 25 45  1  0
 25 46  1  0
 26 47  1  0
 26 48  1  0
 27 49  1  0
 27 50  1  0
 28 51  1  0
 28 52  1  0
 30 53  1  0
M  END
$$$$
