
     RDKit          3D

 50 52  0  0  0  0  0  0  0  0999 V2000
    3.0087    0.4295    0.9565 O   0  0  0  0  0  0  0  0  0  0  0  0
    3.6049   -0.6316    0.8311 C   0  0  0  0  0  0  0  0  0  0  0  0
    5.0080   -0.8194    0.2967 C   0  0  0  0  0  0  0  0  0  0  0  0
    5.6315    0.4429   -0.2528 C   0  0  0  0  0  0  0  0  0  0  0  0
    6.5487    1.1791    0.5133 C   0  0  0  0  0  0  0  0  0  0  0  0
    7.1133    2.3489    0.0025 C   0  0  0  0  0  0  0  0  0  0  0  0
    6.7585    2.7845   -1.2685 C   0  0  0  0  0  0  0  0  0  0  0  0
    7.3017    3.9078   -1.7560 F   0  0  0  0  0  0  0  0  0  0  0  0
    5.8475    2.0739   -2.0398 C   0  0  0  0  0  0  0  0  0  0  0  0
    5.2817    0.9036   -1.5327 C   0  0  0  0  0  0  0  0  0  0  0  0
    3.0907   -1.8496    1.1821 O   0  0  0  0  0  0  0  0  0  0  0  0
    1.7046   -1.8074    1.5287 C   0  0  0  0  0  0  0  0  0  0  0  0
    0.8024   -1.6728    0.2913 C   0  0  0  0  0  0  0  0  0  0  0  0
    1.2728   -1.7374   -0.8474 O   0  0  0  0  0  0  0  0  0  0  0  0
   -0.5600   -1.5134    0.5096 N   0  0  0  0  0  0  0  0  0  0  0  0
   -1.4657   -1.4704   -0.6421 C   0  0  0  0  0  0  0  0  0  0  0  0
   -2.7963   -2.1805   -0.3614 C   0  0  0  0  0  0  0  0  0  0  0  0
   -3.4676   -1.6685    0.8679 N   0  0  0  0  0  0  0  0  0  0  0  0
   -5.1083   -1.2669    0.7688 S   0  0  0  0  0  6  0  0  0  0  0  0
   -5.7690   -2.2767   -0.0298 O   0  0  0  0  0  0  0  0  0  0  0  0
   -5.5693   -0.9398    2.1012 O   0  0  0  0  0  0  0  0  0  0  0  0
   -5.1033    0.2455   -0.1769 C   0  0  0  0  0  0  0  0  0  0  0  0
   -5.0149    1.4749    0.4861 C   0  0  0  0  0  0  0  0  0  0  0  0
   -5.0379    2.6598   -0.2528 C   0  0  0  0  0  0  0  0  0  0  0  0
   -5.1674    2.6100   -1.6414 C   0  0  0  0  0  0  0  0  0  0  0  0
   -5.1968    4.0714   -2.5479 Cl  0  0  0  0  0  0  0  0  0  0  0  0
   -5.2834    1.3852   -2.2998 C   0  0  0  0  0  0  0  0  0  0  0  0
   -5.2608    0.1968   -1.5664 C   0  0  0  0  0  0  0  0  0  0  0  0
   -2.6160   -0.8564    1.7731 C   0  0  0  0  0  0  0  0  0  0  0  0
   -1.1874   -1.4175    1.8324 C   0  0  0  0  0  0  0  0  0  0  0  0
    5.6310   -1.2182    1.1060 H   0  0  0  0  0  0  0  0  0  0  0  0
    4.9807   -1.5715   -0.5012 H   0  0  0  0  0  0  0  0  0  0  0  0
    6.8269    0.8500    1.5119 H   0  0  0  0  0  0  0  0  0  0  0  0
    7.8230    2.9244    0.5878 H   0  0  0  0  0  0  0  0  0  0  0  0
    5.5795    2.4368   -3.0266 H   0  0  0  0  0  0  0  0  0  0  0  0
    4.5595    0.3573   -2.1371 H   0  0  0  0  0  0  0  0  0  0  0  0
    1.5247   -1.0015    2.2463 H   0  0  0  0  0  0  0  0  0  0  0  0
    1.4653   -2.7578    2.0169 H   0  0  0  0  0  0  0  0  0  0  0  0
   -1.6429   -0.4114   -0.8657 H   0  0  0  0  0  0  0  0  0  0  0  0
   -0.9929   -1.9163   -1.5232 H   0  0  0  0  0  0  0  0  0  0  0  0
   -3.4393   -2.0874   -1.2408 H   0  0  0  0  0  0  0  0  0  0  0  0
   -2.6157   -3.2511   -0.2065 H   0  0  0  0  0  0  0  0  0  0  0  0
   -4.9362    1.5194    1.5704 H   0  0  0  0  0  0  0  0  0  0  0  0
   -4.9648    3.6170    0.2580 H   0  0  0  0  0  0  0  0  0  0  0  0
   -5.4026    1.3514   -3.3802 H   0  0  0  0  0  0  0  0  0  0  0  0
   -5.3774   -0.7540   -2.0825 H   0  0  0  0  0  0  0  0  0  0  0  0
   -2.5816    0.1793    1.4193 H   0  0  0  0  0  0  0  0  0  0  0  0
   -3.0360   -0.8666    2.7840 H   0  0  0  0  0  0  0  0  0  0  0  0
   -0.5781   -0.7848    2.4831 H   0  0  0  0  0  0  0  0  0  0  0  0
   -1.1939   -2.4294    2.2544 H   0  0  0  0  0  0  0  0  0  0  0  0
  1  2  2  0
  2  3  1  0
  3  4  1  0
  4  5  2  0
  5  6  1  0
  6  7  2  0
  7  8  1  0
  7  9  1  0
  9 10  2  0
  2 11  1  0
 11 12  1  0
 12 13  1  0
 13 14  2  0
 13 15  1  0
 15 16  1  0
 16 17  1  0
 17 18  1  0
 18 19  1  0
 19 20  2  0
 19 21  2  0
 19 22  1  0
 22 23  2  0
 23 24  1  0
 24 25  2  0
 25 26  1  0
 25 27  1  0
 27 28  2  0
 18 29  1  0
 29 30  1  0
 10  4  1  0
 30 15  1  0
 28 22  1  0
  3 31  1  0
  3 32  1  0
  5 33  1  0
  6 34  1  0
  9 35  1  0
 10 36  1  0
 12 37  1  0
 12 38  1  0
 16 39  1  0
 16 40  1  0
 17 41  1  0
 17 42  1  0
 23 43  1  0
 24 44  1  0
 27 45  1  0
 28 46  1  0
 29 47  1  0
 29 48  1  0
 30 49  1  0
 30 50  1  0
M  END
$$$$
