
     RDKit          3D

 35 37  0  0  0  0  0  0  0  0999 V2000
   -3.1833   -2.4077    0.0921 C   0  0  0  0  0  0  0  0  0  0  0  0
   -3.8183   -1.0489    0.2107 C   0  0  0  0  0  0  0  0  0  0  0  0
   -5.1712   -0.9633    0.5804 C   0  0  0  0  0  0  0  0  0  0  0  0
   -5.8059    0.2728    0.6985 C   0  0  0  0  0  0  0  0  0  0  0  0
   -5.0984    1.4428    0.4478 C   0  0  0  0  0  0  0  0  0  0  0  0
   -3.7567    1.3760    0.0747 C   0  0  0  0  0  0  0  0  0  0  0  0
   -3.1005    0.1373   -0.0571 C   0  0  0  0  0  0  0  0  0  0  0  0
   -1.6399    0.1328   -0.4580 C   0  0  0  0  0  0  0  0  0  0  0  0
   -0.5565    0.2649    0.9957 S   0  0  0  0  0  0  0  0  0  0  0  0
    1.0128    0.2344    0.2281 C   0  0  0  0  0  0  0  0  0  0  0  0
    1.1228    0.1314   -1.0581 N   0  0  0  0  0  0  0  0  0  0  0  0
    2.3893    0.1106   -1.6193 C   0  0  0  0  0  0  0  0  0  0  0  0
    2.5876    0.0128   -2.8250 O   0  0  0  0  0  0  0  0  0  0  0  0
    3.5439    0.2117   -0.7016 C   0  0  0  0  0  0  0  0  0  0  0  0
    3.3264    0.3151    0.6079 C   0  0  0  0  0  0  0  0  0  0  0  0
    2.0626    0.3271    1.0987 N   0  0  0  0  0  0  0  0  0  0  0  0
    4.5902    0.4059    1.3822 C   0  0  0  0  0  0  0  0  0  0  0  0
    5.6233    0.6582    0.2706 C   0  0  0  0  0  0  0  0  0  0  0  0
    4.9804    0.2142   -1.0541 C   0  0  0  0  0  0  0  0  0  0  0  0
   -2.2815   -2.4683    0.7088 H   0  0  0  0  0  0  0  0  0  0  0  0
   -3.8602   -3.1984    0.4334 H   0  0  0  0  0  0  0  0  0  0  0  0
   -2.9296   -2.6166   -0.9519 H   0  0  0  0  0  0  0  0  0  0  0  0
   -5.7431   -1.8667    0.7820 H   0  0  0  0  0  0  0  0  0  0  0  0
   -6.8522    0.3206    0.9879 H   0  0  0  0  0  0  0  0  0  0  0  0
   -5.5891    2.4076    0.5428 H   0  0  0  0  0  0  0  0  0  0  0  0
   -3.2172    2.3023   -0.1140 H   0  0  0  0  0  0  0  0  0  0  0  0
   -1.4505    0.9780   -1.1307 H   0  0  0  0  0  0  0  0  0  0  0  0
   -1.4040   -0.7743   -1.0236 H   0  0  0  0  0  0  0  0  0  0  0  0
    1.8909    0.4062    2.0923 H   0  0  0  0  0  0  0  0  0  0  0  0
    4.7925   -0.5343    1.9056 H   0  0  0  0  0  0  0  0  0  0  0  0
    4.5831    1.2264    2.1057 H   0  0  0  0  0  0  0  0  0  0  0  0
    6.5657    0.1345    0.4628 H   0  0  0  0  0  0  0  0  0  0  0  0
    5.8558    1.7304    0.2236 H   0  0  0  0  0  0  0  0  0  0  0  0
    5.2180    0.9141   -1.8604 H   0  0  0  0  0  0  0  0  0  0  0  0
    5.3125   -0.7896   -1.3382 H   0  0  0  0  0  0  0  0  0  0  0  0
  1  2  1  0
  2  3  2  0
  3  4  1  0
  4  5  2  0
  5  6  1  0
  6  7  2  0
  7  8  1  0
  8  9  1  0
  9 10  1  0
 10 11  2  0
 11 12  1  0
 12 13  2  0
 12 14  1  0
 14 15  2  0
 15 16  1  0
 15 17  1  0
 17 18  1  0
 18 19  1  0
  7  2  1  0
 16 10  1  0
 19 14  1  0
  1 20  1  0
  1 21  1  0
  1 22  1  0
  3 23  1  0
  4 24  1  0
  5 25  1  0
  6 26  1  0
  8 27  1  0
  8 28  1  0
 16 29  1  0
 17 30  1  0
 17 31  1  0
 18 32  1  0
 18 33  1  0
 19 34  1  0
 19 35  1  0
M  END
$$$$
