
     RDKit          3D

 40 44  0  0  0  0  0  0  0  0999 V2000
    5.9830    2.3542    1.2279 O   0  0  0  0  0  0  0  0  0  0  0  0
    6.5131    1.3184    0.8718 C   0  0  0  0  0  0  0  0  0  0  0  0
    7.8165    1.0865    1.1098 O   0  0  0  0  0  0  0  0  0  0  0  0
    5.8509    0.2008    0.1565 C   0  0  0  0  0  0  0  0  0  0  0  0
    6.5461   -0.9530   -0.2195 C   0  0  0  0  0  0  0  0  0  0  0  0
    5.8798   -1.9766   -0.8909 C   0  0  0  0  0  0  0  0  0  0  0  0
    4.5197   -1.8502   -1.1882 C   0  0  0  0  0  0  0  0  0  0  0  0
    3.8021   -0.7013   -0.8207 C   0  0  0  0  0  0  0  0  0  0  0  0
    2.3804   -0.5811   -1.1374 C   0  0  0  0  0  0  0  0  0  0  0  0
    1.4647   -1.3727   -1.7926 C   0  0  0  0  0  0  0  0  0  0  0  0
    0.2343   -0.6712   -1.7639 C   0  0  0  0  0  0  0  0  0  0  0  0
    0.4299    0.5149   -1.0696 C   0  0  0  0  0  0  0  0  0  0  0  0
   -0.4358    1.5988   -0.7660 C   0  0  0  0  0  0  0  0  0  0  0  0
   -1.7264    1.5212   -0.4109 C   0  0  0  0  0  0  0  0  0  0  0  0
   -2.6394    2.9966   -0.0737 S   0  0  0  0  0  0  0  0  0  0  0  0
   -4.0327    2.0613    0.2881 C   0  0  0  0  0  0  0  0  0  0  0  0
   -5.2443    2.3807    0.6471 N   0  0  0  0  0  0  0  0  0  0  0  0
   -5.8694    1.1567    0.7815 C   0  0  0  0  0  0  0  0  0  0  0  0
   -7.1917    0.8705    1.1518 C   0  0  0  0  0  0  0  0  0  0  0  0
   -7.5991   -0.4680    1.2199 C   0  0  0  0  0  0  0  0  0  0  0  0
   -6.7101   -1.5047    0.9259 C   0  0  0  0  0  0  0  0  0  0  0  0
   -5.3864   -1.2456    0.5538 C   0  0  0  0  0  0  0  0  0  0  0  0
   -5.0002    0.0973    0.4917 C   0  0  0  0  0  0  0  0  0  0  0  0
   -3.8239    0.7290    0.1751 N   0  0  0  0  0  0  0  0  0  0  0  0
   -2.5701    0.3003   -0.2061 C   0  0  0  0  0  0  0  0  0  0  0  0
   -2.3091   -0.8813   -0.3185 O   0  0  0  0  0  0  0  0  0  0  0  0
    1.7614    0.5590   -0.7187 O   0  0  0  0  0  0  0  0  0  0  0  0
    4.4864    0.3212   -0.1445 C   0  0  0  0  0  0  0  0  0  0  0  0
    8.1139    1.8940    1.5793 H   0  0  0  0  0  0  0  0  0  0  0  0
    7.6040   -1.0640    0.0057 H   0  0  0  0  0  0  0  0  0  0  0  0
    6.4185   -2.8748   -1.1834 H   0  0  0  0  0  0  0  0  0  0  0  0
    4.0279   -2.6669   -1.7117 H   0  0  0  0  0  0  0  0  0  0  0  0
    1.6505   -2.3353   -2.2466 H   0  0  0  0  0  0  0  0  0  0  0  0
   -0.6940   -1.0032   -2.2084 H   0  0  0  0  0  0  0  0  0  0  0  0
    0.0438    2.5757   -0.7976 H   0  0  0  0  0  0  0  0  0  0  0  0
   -7.8802    1.6772    1.3805 H   0  0  0  0  0  0  0  0  0  0  0  0
   -8.6223   -0.7009    1.5068 H   0  0  0  0  0  0  0  0  0  0  0  0
   -7.0529   -2.5362    0.9878 H   0  0  0  0  0  0  0  0  0  0  0  0
   -4.6955   -2.0524    0.3265 H   0  0  0  0  0  0  0  0  0  0  0  0
    3.9569    1.2251    0.1545 H   0  0  0  0  0  0  0  0  0  0  0  0
  1  2  2  0
  2  3  1  0
  2  4  1  0
  4  5  2  0
  5  6  1  0
  6  7  2  0
  7  8  1  0
  8  9  1  0
  9 10  2  0
 10 11  1  0
 11 12  2  0
 12 13  1  0
 13 14  2  3
 14 15  1  0
 15 16  1  0
 16 17  2  0
 17 18  1  0
 18 19  2  0
 19 20  1  0
 20 21  2  0
 21 22  1  0
 22 23  2  0
 23 24  1  0
 24 25  1  0
 25 26  2  0
 12 27  1  0
  8 28  2  0
 28  4  1  0
 27  9  1  0
 25 14  1  0
 24 16  1  0
 23 18  1  0
  3 29  1  0
  5 30  1  0
  6 31  1  0
  7 32  1  0
 10 33  1  0
 11 34  1  0
 13 35  1  0
 19 36  1  0
 20 37  1  0
 21 38  1  0
 22 39  1  0
 28 40  1  0
M  END
$$$$
