
     RDKit          3D

 48 50  0  0  0  0  0  0  0  0999 V2000
    5.9059   -2.2362   -0.9692 C   0  0  0  0  0  0  0  0  0  0  0  0
    5.3878   -1.3925    0.1855 C   0  0  0  0  0  0  0  0  0  0  0  0
    4.6526   -0.2179   -0.3010 N   0  0  0  0  0  0  0  0  0  0  0  0
    5.4506    0.9800   -0.5956 C   0  0  0  0  0  0  0  0  0  0  0  0
    5.5071    1.2639   -2.0907 C   0  0  0  0  0  0  0  0  0  0  0  0
    3.2644   -0.2269   -0.4056 C   0  0  0  0  0  0  0  0  0  0  0  0
    2.5214   -1.4208   -0.4139 C   0  0  0  0  0  0  0  0  0  0  0  0
    1.1220   -1.4396   -0.5214 C   0  0  0  0  0  0  0  0  0  0  0  0
    0.4088   -0.2486   -0.6187 C   0  0  0  0  0  0  0  0  0  0  0  0
   -1.0480   -0.2425   -0.7684 C   0  0  0  0  0  0  0  0  0  0  0  0
   -1.9751   -0.5283    0.1686 C   0  0  0  0  0  0  0  0  0  0  0  0
   -1.6575   -0.8814    1.5691 C   0  0  0  0  0  0  0  0  0  0  0  0
   -0.5466   -0.8228    2.0798 O   0  0  0  0  0  0  0  0  0  0  0  0
   -2.7296   -1.2783    2.3115 N   0  0  0  0  0  0  0  0  0  0  0  0
   -4.0431   -1.0710    2.0196 C   0  0  0  0  0  0  0  0  0  0  0  0
   -4.8851   -1.2492    2.8987 O   0  0  0  0  0  0  0  0  0  0  0  0
   -4.3399   -0.6615    0.7377 N   0  0  0  0  0  0  0  0  0  0  0  0
   -5.7416   -0.4375    0.4110 C   0  0  0  0  0  0  0  0  0  0  0  0
   -6.1231    0.9424    0.8235 C   0  0  0  0  0  0  0  0  0  0  0  0
   -6.7181    1.4618    1.9554 C   0  0  0  0  0  0  0  0  0  0  0  0
   -6.8066    2.8600    1.7542 C   0  0  0  0  0  0  0  0  0  0  0  0
   -6.2602    3.1044    0.5165 C   0  0  0  0  0  0  0  0  0  0  0  0
   -5.8403    1.9469   -0.0548 O   0  0  0  0  0  0  0  0  0  0  0  0
   -3.4012   -0.4654   -0.2619 C   0  0  0  0  0  0  0  0  0  0  0  0
   -3.7013   -0.2693   -1.4387 O   0  0  0  0  0  0  0  0  0  0  0  0
    1.1122    0.9521   -0.6225 C   0  0  0  0  0  0  0  0  0  0  0  0
    2.5118    0.9552   -0.5164 C   0  0  0  0  0  0  0  0  0  0  0  0
    6.6219   -1.6741   -1.5769 H   0  0  0  0  0  0  0  0  0  0  0  0
    6.4170   -3.1254   -0.5870 H   0  0  0  0  0  0  0  0  0  0  0  0
    5.0956   -2.5648   -1.6269 H   0  0  0  0  0  0  0  0  0  0  0  0
    4.7807   -2.0022    0.8647 H   0  0  0  0  0  0  0  0  0  0  0  0
    6.2407   -1.0692    0.7956 H   0  0  0  0  0  0  0  0  0  0  0  0
    5.0802    1.8510   -0.0440 H   0  0  0  0  0  0  0  0  0  0  0  0
    6.4814    0.8414   -0.2458 H   0  0  0  0  0  0  0  0  0  0  0  0
    5.9167    0.4103   -2.6400 H   0  0  0  0  0  0  0  0  0  0  0  0
    6.1480    2.1299   -2.2846 H   0  0  0  0  0  0  0  0  0  0  0  0
    4.5182    1.4807   -2.5049 H   0  0  0  0  0  0  0  0  0  0  0  0
    3.0168   -2.3848   -0.3557 H   0  0  0  0  0  0  0  0  0  0  0  0
    0.6082   -2.3969   -0.5280 H   0  0  0  0  0  0  0  0  0  0  0  0
   -1.3600    0.0351   -1.7758 H   0  0  0  0  0  0  0  0  0  0  0  0
   -2.5299   -1.4903    3.2791 H   0  0  0  0  0  0  0  0  0  0  0  0
   -5.9222   -0.5705   -0.6612 H   0  0  0  0  0  0  0  0  0  0  0  0
   -6.3667   -1.1695    0.9356 H   0  0  0  0  0  0  0  0  0  0  0  0
   -7.0392    0.8966    2.8204 H   0  0  0  0  0  0  0  0  0  0  0  0
   -7.2156    3.5996    2.4280 H   0  0  0  0  0  0  0  0  0  0  0  0
   -6.1025    3.9986   -0.0706 H   0  0  0  0  0  0  0  0  0  0  0  0
    0.5880    1.9011   -0.7027 H   0  0  0  0  0  0  0  0  0  0  0  0
    2.9955    1.9266   -0.5100 H   0  0  0  0  0  0  0  0  0  0  0  0
  1  2  1  0
  2  3  1  0
  3  4  1  0
  4  5  1  0
  3  6  1  0
  6  7  2  0
  7  8  1  0
  8  9  2  0
  9 10  1  0
 10 11  2  3
 11 12  1  0
 12 13  2  0
 12 14  1  0
 14 15  1  0
 15 16  2  0
 15 17  1  0
 17 18  1  0
 18 19  1  0
 19 20  2  0
 20 21  1  0
 21 22  2  0
 22 23  1  0
 17 24  1  0
 24 25  2  0
  9 26  1  0
 26 27  2  0
 27  6  1  0
 24 11  1  0
 23 19  1  0
  1 28  1  0
  1 29  1  0
  1 30  1  0
  2 31  1  0
  2 32  1  0
  4 33  1  0
  4 34  1  0
  5 35  1  0
  5 36  1  0
  5 37  1  0
  7 38  1  0
  8 39  1  0
 10 40  1  0
 14 41  1  0
 18 42  1  0
 18 43  1  0
 20 44  1  0
 21 45  1  0
 22 46  1  0
 26 47  1  0
 27 48  1  0
M  END
$$$$
