
     RDKit          3D

 50 53  0  0  0  0  0  0  0  0999 V2000
   -4.3096   -4.3141   -2.6242 C   0  0  0  0  0  0  0  0  0  0  0  0
   -3.4983   -3.2111   -3.0059 O   0  0  0  0  0  0  0  0  0  0  0  0
   -2.8930   -2.5100   -2.0000 C   0  0  0  0  0  0  0  0  0  0  0  0
   -3.0412   -2.7413   -0.6332 C   0  0  0  0  0  0  0  0  0  0  0  0
   -2.3612   -1.9430    0.2949 C   0  0  0  0  0  0  0  0  0  0  0  0
   -1.5167   -0.9035   -0.1277 C   0  0  0  0  0  0  0  0  0  0  0  0
   -0.8155   -0.0373    0.9083 C   0  0  0  0  0  0  0  0  0  0  0  0
   -1.5953    1.2553    1.1571 C   0  0  0  0  0  0  0  0  0  0  0  0
   -0.6471    2.2632    0.5693 C   0  0  0  0  0  0  0  0  0  0  0  0
   -1.0155    3.6915    0.4268 C   0  0  0  0  0  0  0  0  0  0  0  0
   -0.1066    4.5689   -0.1779 C   0  0  0  0  0  0  0  0  0  0  0  0
   -0.4245    5.9201   -0.3263 C   0  0  0  0  0  0  0  0  0  0  0  0
   -1.6506    6.4012    0.1293 C   0  0  0  0  0  0  0  0  0  0  0  0
   -2.5593    5.5333    0.7336 C   0  0  0  0  0  0  0  0  0  0  0  0
   -2.2448    4.1799    0.8841 C   0  0  0  0  0  0  0  0  0  0  0  0
    0.5150    1.7930    0.2306 N   0  0  0  0  0  0  0  0  0  0  0  0
    0.4957    0.4489    0.4731 N   0  0  0  0  0  0  0  0  0  0  0  0
    1.6647   -0.3064    0.3934 C   0  0  0  0  0  0  0  0  0  0  0  0
    2.8776    0.2889   -0.0031 C   0  0  0  0  0  0  0  0  0  0  0  0
    4.0689   -0.4394   -0.0938 C   0  0  0  0  0  0  0  0  0  0  0  0
    4.0661   -1.7950    0.2236 C   0  0  0  0  0  0  0  0  0  0  0  0
    5.5580   -2.7297    0.0853 S   0  0  0  0  0  6  0  0  0  0  0  0
    6.2689   -2.4744    1.5855 N   0  0  0  0  0  0  0  0  0  0  0  0
    5.2403   -4.1384    0.0387 O   0  0  0  0  0  0  0  0  0  0  0  0
    6.4310   -2.1013   -0.8785 O   0  0  0  0  0  0  0  0  0  0  0  0
    2.8826   -2.4240    0.6048 C   0  0  0  0  0  0  0  0  0  0  0  0
    1.6986   -1.6796    0.6902 C   0  0  0  0  0  0  0  0  0  0  0  0
   -1.3831   -0.6748   -1.5045 C   0  0  0  0  0  0  0  0  0  0  0  0
   -2.0633   -1.4728   -2.4277 C   0  0  0  0  0  0  0  0  0  0  0  0
   -3.7258   -5.0679   -2.0854 H   0  0  0  0  0  0  0  0  0  0  0  0
   -4.6918   -4.7799   -3.5377 H   0  0  0  0  0  0  0  0  0  0  0  0
   -5.1705   -3.9843   -2.0336 H   0  0  0  0  0  0  0  0  0  0  0  0
   -3.6795   -3.5327   -0.2548 H   0  0  0  0  0  0  0  0  0  0  0  0
   -2.4979   -2.1438    1.3557 H   0  0  0  0  0  0  0  0  0  0  0  0
   -0.7216   -0.5888    1.8527 H   0  0  0  0  0  0  0  0  0  0  0  0
   -1.6973    1.4515    2.2298 H   0  0  0  0  0  0  0  0  0  0  0  0
   -2.5770    1.2866    0.6766 H   0  0  0  0  0  0  0  0  0  0  0  0
    0.8539    4.2053   -0.5382 H   0  0  0  0  0  0  0  0  0  0  0  0
    0.2857    6.5950   -0.7976 H   0  0  0  0  0  0  0  0  0  0  0  0
   -1.8976    7.4538    0.0131 H   0  0  0  0  0  0  0  0  0  0  0  0
   -3.5148    5.9122    1.0887 H   0  0  0  0  0  0  0  0  0  0  0  0
   -2.9724    3.5311    1.3616 H   0  0  0  0  0  0  0  0  0  0  0  0
    2.8966    1.3480   -0.2537 H   0  0  0  0  0  0  0  0  0  0  0  0
    4.9801    0.0604   -0.4126 H   0  0  0  0  0  0  0  0  0  0  0  0
    7.1526   -1.9787    1.4676 H   0  0  0  0  0  0  0  0  0  0  0  0
    6.3534   -3.3613    2.0820 H   0  0  0  0  0  0  0  0  0  0  0  0
    2.8647   -3.4872    0.8328 H   0  0  0  0  0  0  0  0  0  0  0  0
    0.7965   -2.2069    0.9854 H   0  0  0  0  0  0  0  0  0  0  0  0
   -0.7393    0.1236   -1.8712 H   0  0  0  0  0  0  0  0  0  0  0  0
   -1.9400   -1.2841   -3.4914 H   0  0  0  0  0  0  0  0  0  0  0  0
  1  2  1  0
  2  3  1  0
  3  4  2  0
  4  5  1  0
  5  6  2  0
  6  7  1  0
  7  8  1  0
  8  9  1  0
  9 10  1  0
 10 11  2  0
 11 12  1  0
 12 13  2  0
 13 14  1  0
 14 15  2  0
  9 16  2  0
 16 17  1  0
 17 18  1  0
 18 19  2  0
 19 20  1  0
 20 21  2  0
 21 22  1  0
 22 23  1  0
 22 24  2  0
 22 25  2  0
 21 26  1  0
 26 27  2  0
  6 28  1  0
 28 29  2  0
 29  3  1  0
 17  7  1  0
 27 18  1  0
 15 10  1  0
  1 30  1  0
  1 31  1  0
  1 32  1  0
  4 33  1  0
  5 34  1  0
  7 35  1  0
  8 36  1  0
  8 37  1  0
 11 38  1  0
 12 39  1  0
 13 40  1  0
 14 41  1  0
 15 42  1  0
 19 43  1  0
 20 44  1  0
 23 45  1  0
 23 46  1  0
 26 47  1  0
 27 48  1  0
 28 49  1  0
 29 50  1  0
M  END
$$$$
