
     RDKit          3D

 68 69  0  0  0  0  0  0  0  0999 V2000
    8.2538    1.0547   -0.9267 C   0  0  0  0  0  0  0  0  0  0  0  0
    7.1959    1.7942   -0.1214 C   0  0  0  0  0  0  0  0  0  0  0  0
    6.0265    2.3031   -0.9692 C   0  0  0  0  0  0  0  0  0  0  0  0
    5.2421    1.2278   -1.7297 C   0  0  0  0  0  0  0  0  0  0  0  0
    4.6447    0.1144   -0.8681 C   0  0  0  0  0  0  0  0  0  0  0  0
    3.6124    0.6148    0.1390 C   0  0  0  0  0  0  0  0  0  0  0  0
    3.0818   -0.4930    0.8940 O   0  0  0  0  0  0  0  0  0  0  0  0
    2.0509   -1.1749    0.3238 C   0  0  0  0  0  0  0  0  0  0  0  0
    1.5555   -0.9347   -0.7670 O   0  0  0  0  0  0  0  0  0  0  0  0
    1.6112   -2.2993    1.2581 C   0  0  0  0  0  0  0  0  0  0  0  0
    0.4376   -3.2413    0.8003 N   0  0  0  0  0  4  0  0  0  0  0  0
    0.6326   -3.7369   -0.6293 C   0  0  0  0  0  0  0  0  0  0  0  0
    0.4761   -4.4728    1.7207 C   0  0  0  0  0  0  0  0  0  0  0  0
   -0.9477   -2.5919    0.9874 C   0  0  0  0  0  0  0  0  0  0  0  0
   -1.2298   -1.3113    0.1940 C   0  0  0  0  0  0  0  0  0  0  0  0
   -2.5953   -0.9636    0.4339 O   0  0  0  0  0  0  0  0  0  0  0  0
   -2.9874    0.2511   -0.2030 C   0  0  0  0  0  0  0  0  0  0  0  0
   -2.4960    1.5037    0.5545 C   0  0  0  0  0  0  0  0  0  0  0  0
   -3.8103    2.2674    0.8516 C   0  0  0  0  0  0  0  0  0  0  0  0
   -4.5071    1.4984    1.9956 C   0  0  0  0  0  0  0  0  0  0  0  0
   -5.0173    0.2294    1.2923 C   0  0  0  0  0  0  0  0  0  0  0  0
   -4.5380    0.4321   -0.1740 C   0  0  0  0  0  0  0  0  0  0  0  0
   -5.2583   -0.4793   -1.1504 C   0  0  0  0  0  0  0  0  0  0  0  0
   -4.7023    1.9677   -0.3820 C   0  0  0  0  0  0  0  0  0  0  0  0
   -6.1459    2.4989   -0.2630 C   0  0  0  0  0  0  0  0  0  0  0  0
   -4.1497    2.5285   -1.7076 C   0  0  0  0  0  0  0  0  0  0  0  0
    7.8646    0.1161   -1.3320 H   0  0  0  0  0  0  0  0  0  0  0  0
    8.6145    1.6663   -1.7584 H   0  0  0  0  0  0  0  0  0  0  0  0
    9.1105    0.8114   -0.2900 H   0  0  0  0  0  0  0  0  0  0  0  0
    6.8307    1.1489    0.6847 H   0  0  0  0  0  0  0  0  0  0  0  0
    7.6706    2.6554    0.3656 H   0  0  0  0  0  0  0  0  0  0  0  0
    5.3431    2.8651   -0.3209 H   0  0  0  0  0  0  0  0  0  0  0  0
    6.4101    3.0279   -1.6991 H   0  0  0  0  0  0  0  0  0  0  0  0
    5.8901    0.7736   -2.4893 H   0  0  0  0  0  0  0  0  0  0  0  0
    4.4318    1.7207   -2.2834 H   0  0  0  0  0  0  0  0  0  0  0  0
    5.4330   -0.4395   -0.3434 H   0  0  0  0  0  0  0  0  0  0  0  0
    4.1744   -0.6232   -1.5313 H   0  0  0  0  0  0  0  0  0  0  0  0
    2.8036    1.1732   -0.3474 H   0  0  0  0  0  0  0  0  0  0  0  0
    4.0782    1.2856    0.8683 H   0  0  0  0  0  0  0  0  0  0  0  0
    1.2981   -1.8711    2.2153 H   0  0  0  0  0  0  0  0  0  0  0  0
    2.4775   -2.9527    1.4075 H   0  0  0  0  0  0  0  0  0  0  0  0
    0.4623   -2.9283   -1.3378 H   0  0  0  0  0  0  0  0  0  0  0  0
   -0.0918   -4.5354   -0.8167 H   0  0  0  0  0  0  0  0  0  0  0  0
    1.6521   -4.1223   -0.7227 H   0  0  0  0  0  0  0  0  0  0  0  0
   -0.3551   -5.1331    1.4556 H   0  0  0  0  0  0  0  0  0  0  0  0
    0.3813   -4.1318    2.7560 H   0  0  0  0  0  0  0  0  0  0  0  0
    1.4304   -4.9866    1.5727 H   0  0  0  0  0  0  0  0  0  0  0  0
   -1.0616   -2.3859    2.0599 H   0  0  0  0  0  0  0  0  0  0  0  0
   -1.6943   -3.3558    0.7312 H   0  0  0  0  0  0  0  0  0  0  0  0
   -1.0962   -1.4687   -0.8800 H   0  0  0  0  0  0  0  0  0  0  0  0
   -0.5881   -0.4971    0.5387 H   0  0  0  0  0  0  0  0  0  0  0  0
   -2.6207    0.2452   -1.2368 H   0  0  0  0  0  0  0  0  0  0  0  0
   -1.9405    1.2662    1.4680 H   0  0  0  0  0  0  0  0  0  0  0  0
   -1.8391    2.1028   -0.0850 H   0  0  0  0  0  0  0  0  0  0  0  0
   -3.6523    3.3250    1.0758 H   0  0  0  0  0  0  0  0  0  0  0  0
   -5.3409    2.0712    2.4170 H   0  0  0  0  0  0  0  0  0  0  0  0
   -3.8251    1.2592    2.8186 H   0  0  0  0  0  0  0  0  0  0  0  0
   -4.6166   -0.6769    1.7580 H   0  0  0  0  0  0  0  0  0  0  0  0
   -6.1093    0.1597    1.3616 H   0  0  0  0  0  0  0  0  0  0  0  0
   -4.9206   -0.3071   -2.1779 H   0  0  0  0  0  0  0  0  0  0  0  0
   -5.0720   -1.5320   -0.9108 H   0  0  0  0  0  0  0  0  0  0  0  0
   -6.3417   -0.3190   -1.1220 H   0  0  0  0  0  0  0  0  0  0  0  0
   -6.1456    3.5944   -0.2261 H   0  0  0  0  0  0  0  0  0  0  0  0
   -6.6852    2.1562    0.6225 H   0  0  0  0  0  0  0  0  0  0  0  0
   -6.7424    2.1930   -1.1304 H   0  0  0  0  0  0  0  0  0  0  0  0
   -3.1110    2.2636   -1.9184 H   0  0  0  0  0  0  0  0  0  0  0  0
   -4.1959    3.6247   -1.7050 H   0  0  0  0  0  0  0  0  0  0  0  0
   -4.7470    2.1739   -2.5559 H   0  0  0  0  0  0  0  0  0  0  0  0
  1  2  1  0
  2  3  1  0
  3  4  1  0
  4  5  1  0
  5  6  1  0
  6  7  1  0
  7  8  1  0
  8  9  2  0
  8 10  1  0
 10 11  1  0
 11 12  1  0
 11 13  1  0
 11 14  1  0
 14 15  1  0
 15 16  1  0
 16 17  1  0
 17 18  1  0
 18 19  1  0
 19 20  1  0
 20 21  1  0
 21 22  1  0
 22 23  1  0
 22 24  1  0
 24 25  1  0
 24 26  1  0
 22 17  1  0
 24 19  1  0
  1 27  1  0
  1 28  1  0
  1 29  1  0
  2 30  1  0
  2 31  1  0
  3 32  1  0
  3 33  1  0
  4 34  1  0
  4 35  1  0
  5 36  1  0
  5 37  1  0
  6 38  1  0
  6 39  1  0
 10 40  1  0
 10 41  1  0
 12 42  1  0
 12 43  1  0
 12 44  1  0
 13 45  1  0
 13 46  1  0
 13 47  1  0
 14 48  1  0
 14 49  1  0
 15 50  1  0
 15 51  1  0
 17 52  1  0
 18 53  1  0
 18 54  1  0
 19 55  1  0
 20 56  1  0
 20 57  1  0
 21 58  1  0
 21 59  1  0
 23 60  1  0
 23 61  1  0
 23 62  1  0
 25 63  1  0
 25 64  1  0
 25 65  1  0
 26 66  1  0
 26 67  1  0
 26 68  1  0
M  CHG  1  11   1
M  END
$$$$
