
     RDKit          3D

 63 67  0  0  0  0  0  0  0  0999 V2000
    9.5445    2.4581    0.0254 C   0  0  0  0  0  0  0  0  0  0  0  0
    8.9409    1.2977    0.5787 O   0  0  0  0  0  0  0  0  0  0  0  0
    7.5925    1.1275    0.3862 C   0  0  0  0  0  0  0  0  0  0  0  0
    6.7795    2.0053   -0.3351 C   0  0  0  0  0  0  0  0  0  0  0  0
    5.4119    1.7492   -0.4765 C   0  0  0  0  0  0  0  0  0  0  0  0
    4.8260    0.6145    0.0991 C   0  0  0  0  0  0  0  0  0  0  0  0
    3.3868    0.3490   -0.0487 C   0  0  0  0  0  0  0  0  0  0  0  0
    2.5640    0.1778    1.0787 C   0  0  0  0  0  0  0  0  0  0  0  0
    1.1946   -0.0795    0.9445 C   0  0  0  0  0  0  0  0  0  0  0  0
    0.6186   -0.1651   -0.3254 C   0  0  0  0  0  0  0  0  0  0  0  0
    1.4291   -0.0154   -1.4407 C   0  0  0  0  0  0  0  0  0  0  0  0
    2.7985    0.2494   -1.3183 C   0  0  0  0  0  0  0  0  0  0  0  0
    0.7196   -0.1774   -3.0333 S   0  0  0  0  0  6  0  0  0  0  0  0
    1.2394    0.9164   -3.8312 O   0  0  0  0  0  0  0  0  0  0  0  0
    0.8772   -1.5601   -3.4323 O   0  0  0  0  0  0  0  0  0  0  0  0
   -1.0052    0.1068   -2.8701 C   0  0  0  0  0  0  0  0  0  0  0  0
   -1.7422    0.4561   -4.0100 C   0  0  0  0  0  0  0  0  0  0  0  0
   -3.1042    0.7244   -3.8937 C   0  0  0  0  0  0  0  0  0  0  0  0
   -3.7141    0.6689   -2.6411 C   0  0  0  0  0  0  0  0  0  0  0  0
   -2.9616    0.3213   -1.5070 C   0  0  0  0  0  0  0  0  0  0  0  0
   -3.6204    0.4428   -0.1945 C   0  0  0  0  0  0  0  0  0  0  0  0
   -3.2825    1.3517    0.5523 O   0  0  0  0  0  0  0  0  0  0  0  0
   -4.6182   -0.4728    0.0436 N   0  0  0  0  0  0  0  0  0  0  0  0
   -5.4035   -0.4480    1.2709 C   0  0  0  0  0  0  0  0  0  0  0  0
   -5.8314   -1.8767    1.6496 C   0  0  0  0  0  0  0  0  0  0  0  0
   -7.1160   -1.8829    2.4683 C   0  0  0  0  0  0  0  0  0  0  0  0
   -8.2852   -1.2839    1.6847 C   0  0  0  0  0  0  0  0  0  0  0  0
   -7.8612   -0.2043    0.6857 C   0  0  0  0  0  0  0  0  0  0  0  0
   -6.5957    0.5178    1.1352 C   0  0  0  0  0  0  0  0  0  0  0  0
   -1.5980    0.0183   -1.6131 C   0  0  0  0  0  0  0  0  0  0  0  0
   -0.8269   -0.4445   -0.4377 C   0  0  0  0  0  0  0  0  0  0  0  0
   -1.3745   -1.1048    0.4368 O   0  0  0  0  0  0  0  0  0  0  0  0
    5.6512   -0.2654    0.8207 C   0  0  0  0  0  0  0  0  0  0  0  0
    7.0234   -0.0212    0.9685 C   0  0  0  0  0  0  0  0  0  0  0  0
    7.8868   -0.8383    1.6567 O   0  0  0  0  0  0  0  0  0  0  0  0
    7.3529   -2.0093    2.2581 C   0  0  0  0  0  0  0  0  0  0  0  0
    9.4687    2.4591   -1.0671 H   0  0  0  0  0  0  0  0  0  0  0  0
    9.1158    3.3698    0.4539 H   0  0  0  0  0  0  0  0  0  0  0  0
   10.6076    2.4385    0.2847 H   0  0  0  0  0  0  0  0  0  0  0  0
    7.1764    2.9012   -0.8001 H   0  0  0  0  0  0  0  0  0  0  0  0
    4.8028    2.4573   -1.0358 H   0  0  0  0  0  0  0  0  0  0  0  0
    2.9859    0.2543    2.0804 H   0  0  0  0  0  0  0  0  0  0  0  0
    0.5810   -0.2057    1.8359 H   0  0  0  0  0  0  0  0  0  0  0  0
    3.4109    0.3565   -2.2136 H   0  0  0  0  0  0  0  0  0  0  0  0
   -1.2572    0.5240   -4.9832 H   0  0  0  0  0  0  0  0  0  0  0  0
   -3.6833    1.0048   -4.7714 H   0  0  0  0  0  0  0  0  0  0  0  0
   -4.7653    0.9338   -2.5409 H   0  0  0  0  0  0  0  0  0  0  0  0
   -4.8249   -1.1750   -0.6549 H   0  0  0  0  0  0  0  0  0  0  0  0
   -4.7542   -0.0559    2.0647 H   0  0  0  0  0  0  0  0  0  0  0  0
   -5.9848   -2.4887    0.7512 H   0  0  0  0  0  0  0  0  0  0  0  0
   -5.0234   -2.3605    2.2114 H   0  0  0  0  0  0  0  0  0  0  0  0
   -7.3661   -2.9044    2.7780 H   0  0  0  0  0  0  0  0  0  0  0  0
   -6.9600   -1.3066    3.3890 H   0  0  0  0  0  0  0  0  0  0  0  0
   -9.0087   -0.8685    2.3967 H   0  0  0  0  0  0  0  0  0  0  0  0
   -8.8134   -2.0766    1.1413 H   0  0  0  0  0  0  0  0  0  0  0  0
   -8.6802    0.5115    0.5516 H   0  0  0  0  0  0  0  0  0  0  0  0
   -7.6847   -0.6632   -0.2954 H   0  0  0  0  0  0  0  0  0  0  0  0
   -6.7906    0.9829    2.1104 H   0  0  0  0  0  0  0  0  0  0  0  0
   -6.3657    1.3356    0.4415 H   0  0  0  0  0  0  0  0  0  0  0  0
    5.1975   -1.1512    1.2537 H   0  0  0  0  0  0  0  0  0  0  0  0
    8.1728   -2.5303    2.7626 H   0  0  0  0  0  0  0  0  0  0  0  0
    6.9425   -2.6888    1.5042 H   0  0  0  0  0  0  0  0  0  0  0  0
    6.6035   -1.7572    3.0163 H   0  0  0  0  0  0  0  0  0  0  0  0
  1  2  1  0
  2  3  1  0
  3  4  2  0
  4  5  1  0
  5  6  2  0
  6  7  1  0
  7  8  2  0
  8  9  1  0
  9 10  2  0
 10 11  1  0
 11 12  2  0
 11 13  1  0
 13 14  2  0
 13 15  2  0
 13 16  1  0
 16 17  2  0
 17 18  1  0
 18 19  2  0
 19 20  1  0
 20 21  1  0
 21 22  2  0
 21 23  1  0
 23 24  1  0
 24 25  1  0
 25 26  1  0
 26 27  1  0
 27 28  1  0
 28 29  1  0
 20 30  2  0
 30 31  1  0
 31 32  2  0
  6 33  1  0
 33 34  2  0
 34 35  1  0
 35 36  1  0
 34  3  1  0
 12  7  1  0
 30 16  1  0
 31 10  1  0
 29 24  1  0
  1 37  1  0
  1 38  1  0
  1 39  1  0
  4 40  1  0
  5 41  1  0
  8 42  1  0
  9 43  1  0
 12 44  1  0
 17 45  1  0
 18 46  1  0
 19 47  1  0
 23 48  1  0
 24 49  1  0
 25 50  1  0
 25 51  1  0
 26 52  1  0
 26 53  1  0
 27 54  1  0
 27 55  1  0
 28 56  1  0
 28 57  1  0
 29 58  1  0
 29 59  1  0
 33 60  1  0
 36 61  1  0
 36 62  1  0
 36 63  1  0
M  END
$$$$
