
     RDKit          3D

 58 60  0  0  0  0  0  0  0  0999 V2000
    1.5148   -4.0591    1.2599 C   0  0  0  0  0  0  0  0  0  0  0  0
    0.4976   -2.9599    1.5306 C   0  0  0  0  0  0  0  0  0  0  0  0
    1.0988   -1.7119    2.1857 C   0  0  0  0  0  0  0  0  0  0  0  0
    2.1088   -0.9945    1.3362 C   0  0  0  0  0  0  0  0  0  0  0  0
    3.4686   -1.1956    1.5673 N   0  0  0  0  0  0  0  0  0  0  0  0
    4.1520   -0.4706    0.5804 N   0  0  0  0  0  0  0  0  0  0  0  0
    5.5626   -0.4206    0.5649 C   0  0  0  0  0  0  0  0  0  0  0  0
    6.2543    0.2941   -0.4251 C   0  0  0  0  0  0  0  0  0  0  0  0
    7.6550    0.3458   -0.4391 C   0  0  0  0  0  0  0  0  0  0  0  0
    8.3802   -0.3269    0.5481 C   0  0  0  0  0  0  0  0  0  0  0  0
    9.8465   -0.2775    0.5394 N   0  0  0  0  0  4  0  0  0  0  0  0
   10.3912    0.5331   -0.2228 O   0  0  0  0  0  0  0  0  0  0  0  0
   10.4515   -1.0534    1.2931 O   0  0  0  0  0  1  0  0  0  0  0  0
    7.7146   -1.0453    1.5456 C   0  0  0  0  0  0  0  0  0  0  0  0
    6.3142   -1.0865    1.5496 C   0  0  0  0  0  0  0  0  0  0  0  0
    3.2254    0.2245   -0.1997 C   0  0  0  0  0  0  0  0  0  0  0  0
    3.3933    0.9815   -1.1423 O   0  0  0  0  0  0  0  0  0  0  0  0
    1.8816   -0.1279    0.3328 C   0  0  0  0  0  0  0  0  0  0  0  0
    0.6195    0.3611   -0.2375 C   0  0  0  0  0  0  0  0  0  0  0  0
   -0.5405    0.1170    0.2663 N   0  0  0  0  0  0  0  0  0  0  0  0
   -1.6552    0.7127   -0.4821 C   0  0  0  0  0  0  0  0  0  0  0  0
   -2.8531    0.8485    0.4621 C   0  0  0  0  0  0  0  0  0  0  0  0
   -4.0788    1.3741   -0.2435 C   0  0  0  0  0  0  0  0  0  0  0  0
   -4.2169    2.7413   -0.5022 C   0  0  0  0  0  0  0  0  0  0  0  0
   -5.3464    3.2275   -1.1655 C   0  0  0  0  0  0  0  0  0  0  0  0
   -6.3574    2.3530   -1.5783 C   0  0  0  0  0  0  0  0  0  0  0  0
   -7.5027    2.7420   -2.2286 O   0  0  0  0  0  0  0  0  0  0  0  0
   -7.6818    4.1292   -2.4739 C   0  0  0  0  0  0  0  0  0  0  0  0
   -6.2273    0.9725   -1.3249 C   0  0  0  0  0  0  0  0  0  0  0  0
   -7.2583    0.1777   -1.7657 O   0  0  0  0  0  0  0  0  0  0  0  0
   -7.2231   -1.1990   -1.4178 C   0  0  0  0  0  0  0  0  0  0  0  0
   -5.0875    0.4945   -0.6654 C   0  0  0  0  0  0  0  0  0  0  0  0
    1.0058   -4.9612    0.9070 H   0  0  0  0  0  0  0  0  0  0  0  0
    2.0680   -4.3167    2.1682 H   0  0  0  0  0  0  0  0  0  0  0  0
    2.2311   -3.7605    0.4890 H   0  0  0  0  0  0  0  0  0  0  0  0
   -0.2761   -3.3597    2.1975 H   0  0  0  0  0  0  0  0  0  0  0  0
   -0.0033   -2.6959    0.5921 H   0  0  0  0  0  0  0  0  0  0  0  0
    1.5622   -1.9934    3.1405 H   0  0  0  0  0  0  0  0  0  0  0  0
    0.2888   -1.0245    2.4561 H   0  0  0  0  0  0  0  0  0  0  0  0
    3.7030   -2.1897    1.5762 H   0  0  0  0  0  0  0  0  0  0  0  0
    5.7232    0.8259   -1.2117 H   0  0  0  0  0  0  0  0  0  0  0  0
    8.1546    0.9114   -1.2236 H   0  0  0  0  0  0  0  0  0  0  0  0
    8.2630   -1.5668    2.3282 H   0  0  0  0  0  0  0  0  0  0  0  0
    5.8248   -1.6336    2.3518 H   0  0  0  0  0  0  0  0  0  0  0  0
    0.7352    0.9694   -1.1532 H   0  0  0  0  0  0  0  0  0  0  0  0
   -1.3897    1.6986   -0.8876 H   0  0  0  0  0  0  0  0  0  0  0  0
   -1.9121    0.0590   -1.3255 H   0  0  0  0  0  0  0  0  0  0  0  0
   -3.0775   -0.1224    0.9248 H   0  0  0  0  0  0  0  0  0  0  0  0
   -2.6006    1.5175    1.2960 H   0  0  0  0  0  0  0  0  0  0  0  0
   -3.4447    3.4407   -0.1868 H   0  0  0  0  0  0  0  0  0  0  0  0
   -5.4067    4.2960   -1.3434 H   0  0  0  0  0  0  0  0  0  0  0  0
   -8.6512    4.2598   -2.9662 H   0  0  0  0  0  0  0  0  0  0  0  0
   -6.9104    4.5116   -3.1513 H   0  0  0  0  0  0  0  0  0  0  0  0
   -7.7064    4.6992   -1.5382 H   0  0  0  0  0  0  0  0  0  0  0  0
   -7.1991   -1.3344   -0.3310 H   0  0  0  0  0  0  0  0  0  0  0  0
   -6.3803   -1.7052   -1.9002 H   0  0  0  0  0  0  0  0  0  0  0  0
   -8.1430   -1.6614   -1.7887 H   0  0  0  0  0  0  0  0  0  0  0  0
   -4.9601   -0.5654   -0.4677 H   0  0  0  0  0  0  0  0  0  0  0  0
  1  2  1  0
  2  3  1  0
  3  4  1  0
  4  5  1  0
  5  6  1  0
  6  7  1  0
  7  8  2  0
  8  9  1  0
  9 10  2  0
 10 11  1  0
 11 12  2  0
 11 13  1  0
 10 14  1  0
 14 15  2  0
  6 16  1  0
 16 17  2  0
 16 18  1  0
 18 19  1  0
 19 20  2  3
 20 21  1  0
 21 22  1  0
 22 23  1  0
 23 24  2  0
 24 25  1  0
 25 26  2  0
 26 27  1  0
 27 28  1  0
 26 29  1  0
 29 30  1  0
 30 31  1  0
 29 32  2  0
 18  4  2  0
 32 23  1  0
 15  7  1  0
  1 33  1  0
  1 34  1  0
  1 35  1  0
  2 36  1  0
  2 37  1  0
  3 38  1  0
  3 39  1  0
  5 40  1  0
  8 41  1  0
  9 42  1  0
 14 43  1  0
 15 44  1  0
 19 45  1  0
 21 46  1  0
 21 47  1  0
 22 48  1  0
 22 49  1  0
 24 50  1  0
 25 51  1  0
 28 52  1  0
 28 53  1  0
 28 54  1  0
 31 55  1  0
 31 56  1  0
 31 57  1  0
 32 58  1  0
M  CHG  2  11   1  13  -1
M  END
$$$$
