
     RDKit          3D

 45 48  0  0  0  0  0  0  0  0999 V2000
   -5.5653    2.2966    0.2526 C   0  0  0  0  0  0  0  0  0  0  0  0
   -4.4683    1.4580   -0.0782 O   0  0  0  0  0  0  0  0  0  0  0  0
   -4.6948    0.0999   -0.1154 C   0  0  0  0  0  0  0  0  0  0  0  0
   -5.9745   -0.4719   -0.0807 C   0  0  0  0  0  0  0  0  0  0  0  0
   -6.1315   -1.8574   -0.0954 C   0  0  0  0  0  0  0  0  0  0  0  0
   -5.0138   -2.6804   -0.1462 C   0  0  0  0  0  0  0  0  0  0  0  0
   -3.7344   -2.1206   -0.1897 C   0  0  0  0  0  0  0  0  0  0  0  0
   -3.5407   -0.7278   -0.1850 C   0  0  0  0  0  0  0  0  0  0  0  0
   -2.2526   -0.1540   -0.2387 N   0  0  0  0  0  0  0  0  0  0  0  0
   -1.1115   -0.9459    0.2572 C   0  0  0  0  0  0  0  0  0  0  0  0
    0.1304   -0.0447    0.3866 C   0  0  0  0  0  0  0  0  0  0  0  0
    0.4381    0.6604   -0.8705 N   0  0  0  0  0  0  0  0  0  0  0  0
    1.7072    1.1856   -1.1504 C   0  0  0  0  0  0  0  0  0  0  0  0
    1.8362    2.2329   -1.7875 O   0  0  0  0  0  0  0  0  0  0  0  0
    2.9057    0.4607   -0.7044 C   0  0  0  0  0  0  0  0  0  0  0  0
    4.2009    1.0181   -0.5340 C   0  0  0  0  0  0  0  0  0  0  0  0
    5.0186   -0.0279   -0.1614 C   0  0  0  0  0  0  0  0  0  0  0  0
    6.4209   -0.0517    0.1533 C   0  0  0  0  0  0  0  0  0  0  0  0
    7.1642   -1.1648    0.5004 C   0  0  0  0  0  0  0  0  0  0  0  0
    8.5329   -0.8550    0.7537 C   0  0  0  0  0  0  0  0  0  0  0  0
    8.7931    0.4866    0.5925 C   0  0  0  0  0  0  0  0  0  0  0  0
    7.3949    1.3593    0.1398 S   0  0  0  0  0  0  0  0  0  0  0  0
    4.2433   -1.1572   -0.1323 O   0  0  0  0  0  0  0  0  0  0  0  0
    2.9440   -0.8629   -0.4872 N   0  0  0  0  0  0  0  0  0  0  0  0
   -0.7133    1.3735   -1.4396 C   0  0  0  0  0  0  0  0  0  0  0  0
   -1.9703    0.4899   -1.5433 C   0  0  0  0  0  0  0  0  0  0  0  0
   -5.1853    3.3175    0.3574 H   0  0  0  0  0  0  0  0  0  0  0  0
   -6.3099    2.3019   -0.5499 H   0  0  0  0  0  0  0  0  0  0  0  0
   -6.0144    2.0101    1.2094 H   0  0  0  0  0  0  0  0  0  0  0  0
   -6.8708    0.1372   -0.0433 H   0  0  0  0  0  0  0  0  0  0  0  0
   -7.1271   -2.2923   -0.0666 H   0  0  0  0  0  0  0  0  0  0  0  0
   -5.1325   -3.7607   -0.1585 H   0  0  0  0  0  0  0  0  0  0  0  0
   -2.8904   -2.8005   -0.2486 H   0  0  0  0  0  0  0  0  0  0  0  0
   -0.8836   -1.7664   -0.4349 H   0  0  0  0  0  0  0  0  0  0  0  0
   -1.3383   -1.3701    1.2425 H   0  0  0  0  0  0  0  0  0  0  0  0
    0.9684   -0.6362    0.7515 H   0  0  0  0  0  0  0  0  0  0  0  0
   -0.0502    0.7323    1.1409 H   0  0  0  0  0  0  0  0  0  0  0  0
    4.4799    2.0525   -0.6742 H   0  0  0  0  0  0  0  0  0  0  0  0
    6.7463   -2.1627    0.5697 H   0  0  0  0  0  0  0  0  0  0  0  0
    9.2858   -1.5800    1.0386 H   0  0  0  0  0  0  0  0  0  0  0  0
    9.7375    0.9987    0.7180 H   0  0  0  0  0  0  0  0  0  0  0  0
   -0.9109    2.2382   -0.7936 H   0  0  0  0  0  0  0  0  0  0  0  0
   -0.4585    1.7545   -2.4350 H   0  0  0  0  0  0  0  0  0  0  0  0
   -1.8060   -0.2878   -2.3011 H   0  0  0  0  0  0  0  0  0  0  0  0
   -2.7996    1.1148   -1.8917 H   0  0  0  0  0  0  0  0  0  0  0  0
  1  2  1  0
  2  3  1  0
  3  4  2  0
  4  5  1  0
  5  6  2  0
  6  7  1  0
  7  8  2  0
  8  9  1  0
  9 10  1  0
 10 11  1  0
 11 12  1  0
 12 13  1  0
 13 14  2  0
 13 15  1  0
 15 16  1  0
 16 17  2  0
 17 18  1  0
 18 19  2  0
 19 20  1  0
 20 21  2  0
 21 22  1  0
 17 23  1  0
 23 24  1  0
 12 25  1  0
 25 26  1  0
  8  3  1  0
 26  9  1  0
 24 15  2  0
 22 18  1  0
  1 27  1  0
  1 28  1  0
  1 29  1  0
  4 30  1  0
  5 31  1  0
  6 32  1  0
  7 33  1  0
 10 34  1  0
 10 35  1  0
 11 36  1  0
 11 37  1  0
 16 38  1  0
 19 39  1  0
 20 40  1  0
 21 41  1  0
 25 42  1  0
 25 43  1  0
 26 44  1  0
 26 45  1  0
M  END
$$$$
