
     RDKit          3D

 44 46  0  0  0  0  0  0  0  0999 V2000
   -6.7200    1.7574   -1.4786 C   0  0  0  0  0  0  0  0  0  0  0  0
   -5.9298    0.6662   -0.8174 C   0  0  0  0  0  0  0  0  0  0  0  0
   -6.5711   -0.4621   -0.3015 C   0  0  0  0  0  0  0  0  0  0  0  0
   -5.8348   -1.4592    0.3381 C   0  0  0  0  0  0  0  0  0  0  0  0
   -4.4454   -1.3405    0.4802 C   0  0  0  0  0  0  0  0  0  0  0  0
   -3.6706   -2.4284    1.1719 C   0  0  0  0  0  0  0  0  0  0  0  0
   -3.7938   -0.2025   -0.0265 C   0  0  0  0  0  0  0  0  0  0  0  0
   -2.4368   -0.1684    0.1630 O   0  0  0  0  0  0  0  0  0  0  0  0
   -1.7239    0.9457   -0.3696 C   0  0  0  0  0  0  0  0  0  0  0  0
   -0.2895    0.7254   -0.0729 C   0  0  0  0  0  0  0  0  0  0  0  0
    0.4909   -0.3729    0.1893 C   0  0  0  0  0  0  0  0  0  0  0  0
    1.8041    0.1404    0.3811 C   0  0  0  0  0  0  0  0  0  0  0  0
    3.0031   -0.6714    0.6579 C   0  0  0  0  0  0  0  0  0  0  0  0
    2.9638   -1.8856    0.4407 O   0  0  0  0  0  0  0  0  0  0  0  0
    4.1680   -0.0834    1.1682 N   0  0  0  0  0  0  0  0  0  0  0  0
    4.3110    1.3253    1.5149 C   0  0  0  0  0  0  0  0  0  0  0  0
    5.3983   -0.8754    1.1317 C   0  0  0  0  0  0  0  0  0  0  0  0
    6.2271   -0.5050   -0.0676 C   0  0  0  0  0  0  0  0  0  0  0  0
    7.0990    0.4860   -0.0915 N   0  0  0  0  0  0  0  0  0  0  0  0
    7.6800    0.5654   -1.3412 C   0  0  0  0  0  0  0  0  0  0  0  0
    7.2519   -0.3688   -2.2578 C   0  0  0  0  0  0  0  0  0  0  0  0
    6.0774   -1.3872   -1.5395 S   0  0  0  0  0  0  0  0  0  0  0  0
    1.8025    1.4725    0.2029 N   0  0  0  0  0  0  0  0  0  0  0  0
    0.4977    1.8321   -0.0645 O   0  0  0  0  0  0  0  0  0  0  0  0
   -4.5406    0.7944   -0.6658 C   0  0  0  0  0  0  0  0  0  0  0  0
   -7.6905    1.3886   -1.8276 H   0  0  0  0  0  0  0  0  0  0  0  0
   -6.1854    2.1451   -2.3526 H   0  0  0  0  0  0  0  0  0  0  0  0
   -6.8912    2.5757   -0.7718 H   0  0  0  0  0  0  0  0  0  0  0  0
   -7.6490   -0.5745   -0.3933 H   0  0  0  0  0  0  0  0  0  0  0  0
   -6.3543   -2.3314    0.7278 H   0  0  0  0  0  0  0  0  0  0  0  0
   -3.1536   -2.0268    2.0496 H   0  0  0  0  0  0  0  0  0  0  0  0
   -4.3273   -3.2345    1.5147 H   0  0  0  0  0  0  0  0  0  0  0  0
   -2.9375   -2.8654    0.4862 H   0  0  0  0  0  0  0  0  0  0  0  0
   -2.0593    1.8732    0.1091 H   0  0  0  0  0  0  0  0  0  0  0  0
   -1.8569    1.0046   -1.4561 H   0  0  0  0  0  0  0  0  0  0  0  0
    0.1726   -1.4044    0.2401 H   0  0  0  0  0  0  0  0  0  0  0  0
    4.4601    1.9098    0.6023 H   0  0  0  0  0  0  0  0  0  0  0  0
    3.4272    1.6758    2.0532 H   0  0  0  0  0  0  0  0  0  0  0  0
    5.1714    1.4613    2.1775 H   0  0  0  0  0  0  0  0  0  0  0  0
    5.9628   -0.6741    2.0495 H   0  0  0  0  0  0  0  0  0  0  0  0
    5.1797   -1.9484    1.1334 H   0  0  0  0  0  0  0  0  0  0  0  0
    8.4199    1.3328   -1.5335 H   0  0  0  0  0  0  0  0  0  0  0  0
    7.5624   -0.4975   -3.2842 H   0  0  0  0  0  0  0  0  0  0  0  0
   -4.0696    1.6903   -1.0577 H   0  0  0  0  0  0  0  0  0  0  0  0
  1  2  1  0
  2  3  2  0
  3  4  1  0
  4  5  2  0
  5  6  1  0
  5  7  1  0
  7  8  1  0
  8  9  1  0
  9 10  1  0
 10 11  2  0
 11 12  1  0
 12 13  1  0
 13 14  2  0
 13 15  1  0
 15 16  1  0
 15 17  1  0
 17 18  1  0
 18 19  2  0
 19 20  1  0
 20 21  2  0
 21 22  1  0
 12 23  2  0
 23 24  1  0
  7 25  2  0
 25  2  1  0
 24 10  1  0
 22 18  1  0
  1 26  1  0
  1 27  1  0
  1 28  1  0
  3 29  1  0
  4 30  1  0
  6 31  1  0
  6 32  1  0
  6 33  1  0
  9 34  1  0
  9 35  1  0
 11 36  1  0
 16 37  1  0
 16 38  1  0
 16 39  1  0
 17 40  1  0
 17 41  1  0
 20 42  1  0
 21 43  1  0
 25 44  1  0
M  END
$$$$
