
     RDKit          3D

 66 68  0  0  0  0  0  0  0  0999 V2000
   -6.3547    4.9047   -1.2998 C   0  0  0  0  0  0  0  0  0  0  0  0
   -5.7096    3.6431   -1.1700 O   0  0  0  0  0  0  0  0  0  0  0  0
   -4.3045    3.7533   -0.9392 C   0  0  0  0  0  0  0  0  0  0  0  0
   -3.9972    3.9427    0.5505 C   0  0  0  0  0  0  0  0  0  0  0  0
   -2.5709    4.0844    0.8490 N   0  0  0  0  0  0  0  0  0  0  0  0
   -1.5523    3.2944    0.4003 C   0  0  0  0  0  0  0  0  0  0  0  0
   -0.2299    4.1614   -0.1711 S   0  0  0  0  0  0  0  0  0  0  0  0
   -1.6658    1.9139    0.4607 N   0  0  0  0  0  0  0  0  0  0  0  0
   -2.7219    1.2481    1.2451 C   0  0  0  0  0  0  0  0  0  0  0  0
   -2.4583   -0.2140    1.6058 C   0  0  0  0  0  0  0  0  0  0  0  0
   -2.1274   -0.9697    0.3501 C   0  0  0  0  0  0  0  0  0  0  0  0
   -2.6213   -2.2546    0.1008 C   0  0  0  0  0  0  0  0  0  0  0  0
   -2.2967   -2.9164   -1.0890 C   0  0  0  0  0  0  0  0  0  0  0  0
   -2.7405   -4.1733   -1.4214 O   0  0  0  0  0  0  0  0  0  0  0  0
   -3.6705   -4.7976   -0.5459 C   0  0  0  0  0  0  0  0  0  0  0  0
   -1.4523   -2.2904   -2.0293 C   0  0  0  0  0  0  0  0  0  0  0  0
   -1.1794   -3.0098   -3.1671 O   0  0  0  0  0  0  0  0  0  0  0  0
   -0.2565   -2.4515   -4.0919 C   0  0  0  0  0  0  0  0  0  0  0  0
   -0.9511   -1.0100   -1.7657 C   0  0  0  0  0  0  0  0  0  0  0  0
   -1.2849   -0.3431   -0.5785 C   0  0  0  0  0  0  0  0  0  0  0  0
   -0.6862    1.0219   -0.2437 C   0  0  0  0  0  0  0  0  0  0  0  0
    0.6268    0.8142    0.5636 C   0  0  0  0  0  0  0  0  0  0  0  0
    1.6529    0.3478   -0.3247 O   0  0  0  0  0  0  0  0  0  0  0  0
    2.8210   -0.0712    0.2478 C   0  0  0  0  0  0  0  0  0  0  0  0
    3.2186    0.1653    1.5618 C   0  0  0  0  0  0  0  0  0  0  0  0
    4.4496   -0.3180    2.0217 C   0  0  0  0  0  0  0  0  0  0  0  0
    5.3027   -1.0431    1.1766 C   0  0  0  0  0  0  0  0  0  0  0  0
    6.6313   -1.5576    1.7007 C   0  0  0  0  0  0  0  0  0  0  0  0
    6.6934   -3.0871    1.6679 C   0  0  0  0  0  0  0  0  0  0  0  0
    7.8111   -0.9491    0.9384 C   0  0  0  0  0  0  0  0  0  0  0  0
    4.8952   -1.2698   -0.1442 C   0  0  0  0  0  0  0  0  0  0  0  0
    3.6686   -0.7820   -0.6024 C   0  0  0  0  0  0  0  0  0  0  0  0
   -6.2598    5.4907   -0.3824 H   0  0  0  0  0  0  0  0  0  0  0  0
   -7.4170    4.7288   -1.4866 H   0  0  0  0  0  0  0  0  0  0  0  0
   -5.9409    5.4604   -2.1471 H   0  0  0  0  0  0  0  0  0  0  0  0
   -3.8541    2.8206   -1.2937 H   0  0  0  0  0  0  0  0  0  0  0  0
   -3.8727    4.5612   -1.5425 H   0  0  0  0  0  0  0  0  0  0  0  0
   -4.4406    3.1475    1.1531 H   0  0  0  0  0  0  0  0  0  0  0  0
   -4.4709    4.8623    0.9116 H   0  0  0  0  0  0  0  0  0  0  0  0
   -2.2744    5.0549    0.8185 H   0  0  0  0  0  0  0  0  0  0  0  0
   -3.6273    1.2769    0.6292 H   0  0  0  0  0  0  0  0  0  0  0  0
   -2.9015    1.8190    2.1625 H   0  0  0  0  0  0  0  0  0  0  0  0
   -1.6278   -0.2981    2.3139 H   0  0  0  0  0  0  0  0  0  0  0  0
   -3.3488   -0.6305    2.0884 H   0  0  0  0  0  0  0  0  0  0  0  0
   -3.2588   -2.7179    0.8462 H   0  0  0  0  0  0  0  0  0  0  0  0
   -3.2165   -5.0037    0.4306 H   0  0  0  0  0  0  0  0  0  0  0  0
   -3.9537   -5.7580   -0.9886 H   0  0  0  0  0  0  0  0  0  0  0  0
   -4.5833   -4.1989   -0.4415 H   0  0  0  0  0  0  0  0  0  0  0  0
   -0.6494   -1.5281   -4.5306 H   0  0  0  0  0  0  0  0  0  0  0  0
   -0.1204   -3.1716   -4.9044 H   0  0  0  0  0  0  0  0  0  0  0  0
    0.7217   -2.2872   -3.6276 H   0  0  0  0  0  0  0  0  0  0  0  0
   -0.2846   -0.5127   -2.4627 H   0  0  0  0  0  0  0  0  0  0  0  0
   -0.4424    1.5042   -1.1987 H   0  0  0  0  0  0  0  0  0  0  0  0
    0.9554    1.7564    1.0112 H   0  0  0  0  0  0  0  0  0  0  0  0
    0.4695    0.0880    1.3707 H   0  0  0  0  0  0  0  0  0  0  0  0
    2.6022    0.7310    2.2525 H   0  0  0  0  0  0  0  0  0  0  0  0
    4.7374   -0.1181    3.0513 H   0  0  0  0  0  0  0  0  0  0  0  0
    6.7356   -1.2531    2.7508 H   0  0  0  0  0  0  0  0  0  0  0  0
    7.6251   -3.4436    2.1192 H   0  0  0  0  0  0  0  0  0  0  0  0
    5.8606   -3.5236    2.2295 H   0  0  0  0  0  0  0  0  0  0  0  0
    6.6481   -3.4778    0.6459 H   0  0  0  0  0  0  0  0  0  0  0  0
    7.7728    0.1455    0.9670 H   0  0  0  0  0  0  0  0  0  0  0  0
    8.7602   -1.2629    1.3848 H   0  0  0  0  0  0  0  0  0  0  0  0
    7.8221   -1.2551   -0.1133 H   0  0  0  0  0  0  0  0  0  0  0  0
    5.5260   -1.8284   -0.8313 H   0  0  0  0  0  0  0  0  0  0  0  0
    3.3691   -0.9647   -1.6309 H   0  0  0  0  0  0  0  0  0  0  0  0
  1  2  1  0
  2  3  1  0
  3  4  1  0
  4  5  1  0
  5  6  1  0
  6  7  2  0
  6  8  1  0
  8  9  1  0
  9 10  1  0
 10 11  1  0
 11 12  2  0
 12 13  1  0
 13 14  1  0
 14 15  1  0
 13 16  2  0
 16 17  1  0
 17 18  1  0
 16 19  1  0
 19 20  2  0
 20 21  1  0
 21 22  1  0
 22 23  1  0
 23 24  1  0
 24 25  2  0
 25 26  1  0
 26 27  2  0
 27 28  1  0
 28 29  1  0
 28 30  1  0
 27 31  1  0
 31 32  2  0
 21  8  1  0
 32 24  1  0
 20 11  1  0
  1 33  1  0
  1 34  1  0
  1 35  1  0
  3 36  1  0
  3 37  1  0
  4 38  1  0
  4 39  1  0
  5 40  1  0
  9 41  1  0
  9 42  1  0
 10 43  1  0
 10 44  1  0
 12 45  1  0
 15 46  1  0
 15 47  1  0
 15 48  1  0
 18 49  1  0
 18 50  1  0
 18 51  1  0
 19 52  1  0
 21 53  1  0
 22 54  1  0
 22 55  1  0
 25 56  1  0
 26 57  1  0
 28 58  1  0
 29 59  1  0
 29 60  1  0
 29 61  1  0
 30 62  1  0
 30 63  1  0
 30 64  1  0
 31 65  1  0
 32 66  1  0
M  END
$$$$
