
     RDKit          3D

 47 49  0  0  0  0  0  0  0  0999 V2000
   -7.9494    1.0730    1.4527 C   0  0  0  0  0  0  0  0  0  0  0  0
   -7.2990    0.2820    0.4690 O   0  0  0  0  0  0  0  0  0  0  0  0
   -5.9997    0.5955    0.1553 C   0  0  0  0  0  0  0  0  0  0  0  0
   -5.2748    1.6382    0.7406 C   0  0  0  0  0  0  0  0  0  0  0  0
   -3.9529    1.8821    0.3581 C   0  0  0  0  0  0  0  0  0  0  0  0
   -3.3378    1.0847   -0.6092 C   0  0  0  0  0  0  0  0  0  0  0  0
   -1.9564    1.3819   -1.0052 C   0  0  0  0  0  0  0  0  0  0  0  0
   -0.9012    0.5655   -0.8795 C   0  0  0  0  0  0  0  0  0  0  0  0
   -0.8545   -1.0190   -0.2216 S   0  0  0  0  0  0  0  0  0  0  0  0
    0.8793   -1.1773   -0.4759 C   0  0  0  0  0  0  0  0  0  0  0  0
    1.7204   -2.5402   -0.0094 S   0  0  0  0  0  0  0  0  0  0  0  0
    1.3690   -0.0378   -1.0805 N   0  0  0  0  0  0  0  0  0  0  0  0
    2.7769    0.1866   -1.4256 C   0  0  0  0  0  0  0  0  0  0  0  0
    3.5367    0.8572   -0.2872 C   0  0  0  0  0  0  0  0  0  0  0  0
    5.0093    0.9466   -0.6205 C   0  0  0  0  0  0  0  0  0  0  0  0
    5.4192    0.9863   -1.7755 O   0  0  0  0  0  0  0  0  0  0  0  0
    5.8203    1.0563    0.4782 N   0  0  0  0  0  0  0  0  0  0  0  0
    6.4351   -0.0055    0.8747 C   0  0  0  0  0  0  0  0  0  0  0  0
    7.2868   -0.0169    1.9407 N   0  0  0  0  0  0  0  0  0  0  0  0
    7.5724   -1.3209    2.4989 C   0  0  0  0  0  0  0  0  0  0  0  0
    7.5493   -2.2968    1.3271 C   0  0  0  0  0  0  0  0  0  0  0  0
    6.2675   -1.6306    0.2171 S   0  0  0  0  0  0  0  0  0  0  0  0
    0.4619    0.9848   -1.2994 C   0  0  0  0  0  0  0  0  0  0  0  0
    0.7211    2.0925   -1.7489 O   0  0  0  0  0  0  0  0  0  0  0  0
   -4.0646    0.0480   -1.2085 C   0  0  0  0  0  0  0  0  0  0  0  0
   -5.3877   -0.2092   -0.8269 C   0  0  0  0  0  0  0  0  0  0  0  0
   -6.1669   -1.2074   -1.3595 O   0  0  0  0  0  0  0  0  0  0  0  0
   -5.5445   -2.1272   -2.2448 C   0  0  0  0  0  0  0  0  0  0  0  0
   -7.4459    0.9917    2.4216 H   0  0  0  0  0  0  0  0  0  0  0  0
   -8.0272    2.1172    1.1324 H   0  0  0  0  0  0  0  0  0  0  0  0
   -8.9661    0.6867    1.5739 H   0  0  0  0  0  0  0  0  0  0  0  0
   -5.7090    2.2815    1.4984 H   0  0  0  0  0  0  0  0  0  0  0  0
   -3.4095    2.6996    0.8274 H   0  0  0  0  0  0  0  0  0  0  0  0
   -1.8132    2.3806   -1.4171 H   0  0  0  0  0  0  0  0  0  0  0  0
    2.8184    0.8178   -2.3221 H   0  0  0  0  0  0  0  0  0  0  0  0
    3.2451   -0.7664   -1.6945 H   0  0  0  0  0  0  0  0  0  0  0  0
    3.4114    0.2877    0.6404 H   0  0  0  0  0  0  0  0  0  0  0  0
    3.1608    1.8704   -0.1077 H   0  0  0  0  0  0  0  0  0  0  0  0
    7.2242    0.7811    2.5610 H   0  0  0  0  0  0  0  0  0  0  0  0
    8.5438   -1.3299    3.0024 H   0  0  0  0  0  0  0  0  0  0  0  0
    6.8051   -1.5825    3.2372 H   0  0  0  0  0  0  0  0  0  0  0  0
    8.5059   -2.2883    0.7948 H   0  0  0  0  0  0  0  0  0  0  0  0
    7.3226   -3.3186    1.6421 H   0  0  0  0  0  0  0  0  0  0  0  0
   -3.5831   -0.5447   -1.9791 H   0  0  0  0  0  0  0  0  0  0  0  0
   -5.2346   -1.6323   -3.1708 H   0  0  0  0  0  0  0  0  0  0  0  0
   -4.7010   -2.6339   -1.7641 H   0  0  0  0  0  0  0  0  0  0  0  0
   -6.2835   -2.8901   -2.5081 H   0  0  0  0  0  0  0  0  0  0  0  0
  1  2  1  0
  2  3  1  0
  3  4  2  0
  4  5  1  0
  5  6  2  0
  6  7  1  0
  7  8  2  3
  8  9  1  0
  9 10  1  0
 10 11  2  0
 10 12  1  0
 12 13  1  0
 13 14  1  0
 14 15  1  0
 15 16  2  0
 15 17  1  0
 17 18  2  3
 18 19  1  0
 19 20  1  0
 20 21  1  0
 21 22  1  0
 12 23  1  0
 23 24  2  0
  6 25  1  0
 25 26  2  0
 26 27  1  0
 27 28  1  0
 26  3  1  0
 23  8  1  0
 22 18  1  0
  1 29  1  0
  1 30  1  0
  1 31  1  0
  4 32  1  0
  5 33  1  0
  7 34  1  0
 13 35  1  0
 13 36  1  0
 14 37  1  0
 14 38  1  0
 19 39  1  0
 20 40  1  0
 20 41  1  0
 21 42  1  0
 21 43  1  0
 25 44  1  0
 28 45  1  0
 28 46  1  0
 28 47  1  0
M  END
$$$$
