
     RDKit          3D

 30 31  0  0  0  0  0  0  0  0999 V2000
    3.6004    2.0234    0.9251 C   0  0  0  0  0  0  0  0  0  0  0  0
    2.4624    1.1293    0.4841 C   0  0  0  0  0  0  0  0  0  0  0  0
    1.3120    1.6976    0.2632 N   0  0  0  0  0  0  0  0  0  0  0  0
    0.2219    0.9248   -0.0232 N   0  0  0  0  0  0  0  0  0  0  0  0
   -0.9942    1.5391   -0.2768 C   0  0  0  0  0  0  0  0  0  0  0  0
   -1.1819    2.7539   -0.3186 O   0  0  0  0  0  0  0  0  0  0  0  0
   -2.1669    0.6410   -0.4698 C   0  0  0  0  0  0  0  0  0  0  0  0
   -2.0157   -0.6856   -0.8986 C   0  0  0  0  0  0  0  0  0  0  0  0
   -3.1414   -1.4977   -1.0522 C   0  0  0  0  0  0  0  0  0  0  0  0
   -2.9440   -3.1265   -1.5726 Cl  0  0  0  0  0  0  0  0  0  0  0  0
   -4.4189   -1.0056   -0.7931 C   0  0  0  0  0  0  0  0  0  0  0  0
   -4.5783    0.3190   -0.3889 C   0  0  0  0  0  0  0  0  0  0  0  0
   -3.4603    1.1383   -0.2389 C   0  0  0  0  0  0  0  0  0  0  0  0
   -3.7095    2.4304    0.1406 O   0  0  0  0  0  0  0  0  0  0  0  0
    2.7361   -0.2896    0.3320 C   0  0  0  0  0  0  0  0  0  0  0  0
    2.4809   -1.1024   -0.7593 C   0  0  0  0  0  0  0  0  0  0  0  0
    2.8791   -2.4541   -0.5337 C   0  0  0  0  0  0  0  0  0  0  0  0
    3.4258   -2.6055    0.7151 C   0  0  0  0  0  0  0  0  0  0  0  0
    4.0801   -4.2711    1.3848 Br  0  0  0  0  0  0  0  0  0  0  0  0
    3.4701   -1.1671    1.6074 S   0  0  0  0  0  0  0  0  0  0  0  0
    3.4046    3.0580    0.6274 H   0  0  0  0  0  0  0  0  0  0  0  0
    4.5412    1.7005    0.4701 H   0  0  0  0  0  0  0  0  0  0  0  0
    3.6921    1.9857    2.0144 H   0  0  0  0  0  0  0  0  0  0  0  0
    0.2645   -0.0620    0.2029 H   0  0  0  0  0  0  0  0  0  0  0  0
   -1.0409   -1.0949   -1.1427 H   0  0  0  0  0  0  0  0  0  0  0  0
   -5.2930   -1.6405   -0.9134 H   0  0  0  0  0  0  0  0  0  0  0  0
   -5.5714    0.7183   -0.1972 H   0  0  0  0  0  0  0  0  0  0  0  0
   -2.8696    2.9401    0.0616 H   0  0  0  0  0  0  0  0  0  0  0  0
    2.0407   -0.7399   -1.6821 H   0  0  0  0  0  0  0  0  0  0  0  0
    2.7743   -3.2569   -1.2539 H   0  0  0  0  0  0  0  0  0  0  0  0
  1  2  1  0
  2  3  2  3
  3  4  1  0
  4  5  1  0
  5  6  2  0
  5  7  1  0
  7  8  2  0
  8  9  1  0
  9 10  1  0
  9 11  2  0
 11 12  1  0
 12 13  2  0
 13 14  1  0
  2 15  1  0
 15 16  2  0
 16 17  1  0
 17 18  2  0
 18 19  1  0
 18 20  1  0
 13  7  1  0
 20 15  1  0
  1 21  1  0
  1 22  1  0
  1 23  1  0
  4 24  1  0
  8 25  1  0
 11 26  1  0
 12 27  1  0
 14 28  1  0
 16 29  1  0
 17 30  1  0
M  END
$$$$
