
     RDKit          3D

 33 36  0  0  0  0  0  0  0  0999 V2000
    5.2144    0.0891   -0.0192 C   0  0  0  0  0  0  0  0  0  0  0  0
    4.8010   -1.0334    0.6858 C   0  0  0  0  0  0  0  0  0  0  0  0
    3.4369   -1.2741    0.8584 C   0  0  0  0  0  0  0  0  0  0  0  0
    2.4770   -0.4136    0.3396 C   0  0  0  0  0  0  0  0  0  0  0  0
    1.1721   -0.6899    0.5289 N   0  0  0  0  0  0  0  0  0  0  0  0
    0.2677    0.1677    0.0056 C   0  0  0  0  0  0  0  0  0  0  0  0
    0.7139    1.3149   -0.6882 C   0  0  0  0  0  0  0  0  0  0  0  0
    2.0178    1.5996   -0.8982 N   0  0  0  0  0  0  0  0  0  0  0  0
    2.8997    0.7321   -0.3781 C   0  0  0  0  0  0  0  0  0  0  0  0
    4.2601    0.9613   -0.5446 C   0  0  0  0  0  0  0  0  0  0  0  0
   -0.1497    2.2327   -1.2455 O   0  0  0  0  0  0  0  0  0  0  0  0
   -1.4425    2.1861   -0.6309 C   0  0  0  0  0  0  0  0  0  0  0  0
   -1.9966    0.7540   -0.5974 C   0  0  0  0  0  0  0  0  0  0  0  0
   -3.3787    0.7202    0.0598 C   0  0  0  0  0  0  0  0  0  0  0  0
   -3.9249   -0.7030    0.2084 C   0  0  0  0  0  0  0  0  0  0  0  0
   -2.8634   -1.7846    0.0166 C   0  0  0  0  0  0  0  0  0  0  0  0
   -1.5172   -1.4060    0.6333 C   0  0  0  0  0  0  0  0  0  0  0  0
   -1.0901   -0.0897    0.1774 N   0  0  0  0  0  0  0  0  0  0  0  0
    6.2731    0.2901   -0.1622 H   0  0  0  0  0  0  0  0  0  0  0  0
    5.5325   -1.7218    1.1014 H   0  0  0  0  0  0  0  0  0  0  0  0
    3.1115   -2.1528    1.4099 H   0  0  0  0  0  0  0  0  0  0  0  0
    4.5807    1.8418   -1.0965 H   0  0  0  0  0  0  0  0  0  0  0  0
   -2.1047    2.8296   -1.2205 H   0  0  0  0  0  0  0  0  0  0  0  0
   -1.3727    2.6235    0.3742 H   0  0  0  0  0  0  0  0  0  0  0  0
   -2.0543    0.3690   -1.6247 H   0  0  0  0  0  0  0  0  0  0  0  0
   -3.3188    1.1711    1.0598 H   0  0  0  0  0  0  0  0  0  0  0  0
   -4.0900    1.3305   -0.5093 H   0  0  0  0  0  0  0  0  0  0  0  0
   -4.7326   -0.8670   -0.5150 H   0  0  0  0  0  0  0  0  0  0  0  0
   -4.3803   -0.8053    1.2010 H   0  0  0  0  0  0  0  0  0  0  0  0
   -3.2177   -2.7322    0.4382 H   0  0  0  0  0  0  0  0  0  0  0  0
   -2.7260   -1.9568   -1.0591 H   0  0  0  0  0  0  0  0  0  0  0  0
   -1.5998   -1.3935    1.7264 H   0  0  0  0  0  0  0  0  0  0  0  0
   -0.7983   -2.1895    0.3648 H   0  0  0  0  0  0  0  0  0  0  0  0
  1  2  2  0
  2  3  1  0
  3  4  2  0
  4  5  1  0
  5  6  2  0
  6  7  1  0
  7  8  2  0
  8  9  1  0
  9 10  2  0
  7 11  1  0
 11 12  1  0
 12 13  1  0
 13 14  1  0
 14 15  1  0
 15 16  1  0
 16 17  1  0
 17 18  1  0
 10  1  1  0
 18 13  1  0
  9  4  1  0
 18  6  1  0
  1 19  1  0
  2 20  1  0
  3 21  1  0
 10 22  1  0
 12 23  1  0
 12 24  1  0
 13 25  1  0
 14 26  1  0
 14 27  1  0
 15 28  1  0
 15 29  1  0
 16 30  1  0
 16 31  1  0
 17 32  1  0
 17 33  1  0
M  END
$$$$
