
     RDKit          3D

 57 61  0  0  0  0  0  0  0  0999 V2000
   -2.8368    3.5775    2.4114 C   0  0  0  0  0  0  0  0  0  0  0  0
   -3.6090    3.7042    1.2612 C   0  0  0  0  0  0  0  0  0  0  0  0
   -3.8337    2.5935    0.4445 C   0  0  0  0  0  0  0  0  0  0  0  0
   -3.2834    1.3336    0.7546 C   0  0  0  0  0  0  0  0  0  0  0  0
   -3.5988    0.1678   -0.1787 C   0  0  0  0  0  0  0  0  0  0  0  0
   -4.8586   -0.6348    0.1092 C   0  0  0  0  0  0  0  0  0  0  0  0
   -5.3542   -0.8333    1.4088 C   0  0  0  0  0  0  0  0  0  0  0  0
   -6.5158   -1.5783    1.6269 C   0  0  0  0  0  0  0  0  0  0  0  0
   -7.2001   -2.1400    0.5522 C   0  0  0  0  0  0  0  0  0  0  0  0
   -6.7229   -1.9609   -0.7431 C   0  0  0  0  0  0  0  0  0  0  0  0
   -5.5621   -1.2166   -0.9633 C   0  0  0  0  0  0  0  0  0  0  0  0
   -2.4321   -0.7775   -0.2359 C   0  0  0  0  0  0  0  0  0  0  0  0
   -2.2046   -1.7763    0.6367 N   0  0  0  0  0  0  0  0  0  0  0  0
   -1.0159   -2.3453    0.1842 O   0  0  0  0  0  0  0  0  0  0  0  0
   -0.6470   -1.6449   -0.9256 C   0  0  0  0  0  0  0  0  0  0  0  0
    0.6189   -2.0623   -1.5983 C   0  0  0  0  0  0  0  0  0  0  0  0
    1.8297   -1.4383   -1.0238 N   0  0  0  0  0  0  0  0  0  0  0  0
    3.0472   -2.0100   -1.5968 C   0  0  0  0  0  0  0  0  0  0  0  0
    4.2747   -1.5723   -0.7876 C   0  0  0  0  0  0  0  0  0  0  0  0
    4.1603   -0.1284   -0.2604 C   0  0  0  0  0  0  0  0  0  0  0  0
    5.5201    0.5249   -0.1082 C   0  0  0  0  0  0  0  0  0  0  0  0
    6.0547    0.7381    1.1669 C   0  0  0  0  0  0  0  0  0  0  0  0
    7.3039    1.3305    1.2812 C   0  0  0  0  0  0  0  0  0  0  0  0
    8.0519    1.7183    0.2274 N   0  0  0  0  0  0  0  0  0  0  0  0
    7.5249    1.5010   -0.9953 C   0  0  0  0  0  0  0  0  0  0  0  0
    6.2854    0.9162   -1.2118 C   0  0  0  0  0  0  0  0  0  0  0  0
    3.1943    0.6813   -1.1325 C   0  0  0  0  0  0  0  0  0  0  0  0
    1.8027    0.0312   -1.1560 C   0  0  0  0  0  0  0  0  0  0  0  0
   -1.4859   -0.6815   -1.2386 N   0  0  0  0  0  0  0  0  0  0  0  0
   -2.5205    1.2277    1.9316 C   0  0  0  0  0  0  0  0  0  0  0  0
   -2.2956    2.3403    2.7478 C   0  0  0  0  0  0  0  0  0  0  0  0
   -2.6619    4.4401    3.0487 H   0  0  0  0  0  0  0  0  0  0  0  0
   -4.0412    4.6666    0.9998 H   0  0  0  0  0  0  0  0  0  0  0  0
   -4.4510    2.7178   -0.4438 H   0  0  0  0  0  0  0  0  0  0  0  0
   -3.7027    0.5960   -1.1871 H   0  0  0  0  0  0  0  0  0  0  0  0
   -4.8396   -0.4161    2.2712 H   0  0  0  0  0  0  0  0  0  0  0  0
   -6.8825   -1.7224    2.6400 H   0  0  0  0  0  0  0  0  0  0  0  0
   -8.1017   -2.7213    0.7256 H   0  0  0  0  0  0  0  0  0  0  0  0
   -7.2520   -2.4037   -1.5828 H   0  0  0  0  0  0  0  0  0  0  0  0
   -5.2046   -1.0959   -1.9844 H   0  0  0  0  0  0  0  0  0  0  0  0
    0.5454   -1.8430   -2.6712 H   0  0  0  0  0  0  0  0  0  0  0  0
    0.6955   -3.1534   -1.5054 H   0  0  0  0  0  0  0  0  0  0  0  0
    3.0109   -3.1063   -1.5803 H   0  0  0  0  0  0  0  0  0  0  0  0
    3.1590   -1.7140   -2.6483 H   0  0  0  0  0  0  0  0  0  0  0  0
    4.4109   -2.2441    0.0705 H   0  0  0  0  0  0  0  0  0  0  0  0
    5.1627   -1.7060   -1.4179 H   0  0  0  0  0  0  0  0  0  0  0  0
    3.7040   -0.1814    0.7394 H   0  0  0  0  0  0  0  0  0  0  0  0
    5.5137    0.4507    2.0627 H   0  0  0  0  0  0  0  0  0  0  0  0
    7.7479    1.5125    2.2556 H   0  0  0  0  0  0  0  0  0  0  0  0
    8.1457    1.8176   -1.8285 H   0  0  0  0  0  0  0  0  0  0  0  0
    5.9362    0.7686   -2.2277 H   0  0  0  0  0  0  0  0  0  0  0  0
    3.5731    0.7453   -2.1609 H   0  0  0  0  0  0  0  0  0  0  0  0
    3.1099    1.7120   -0.7665 H   0  0  0  0  0  0  0  0  0  0  0  0
    1.3087    0.3433   -2.0855 H   0  0  0  0  0  0  0  0  0  0  0  0
    1.2138    0.4391   -0.3254 H   0  0  0  0  0  0  0  0  0  0  0  0
   -2.0924    0.2770    2.2423 H   0  0  0  0  0  0  0  0  0  0  0  0
   -1.6994    2.2355    3.6508 H   0  0  0  0  0  0  0  0  0  0  0  0
  1  2  2  0
  2  3  1  0
  3  4  2  0
  4  5  1  0
  5  6  1  0
  6  7  2  0
  7  8  1  0
  8  9  2  0
  9 10  1  0
 10 11  2  0
  5 12  1  0
 12 13  2  0
 13 14  1  0
 14 15  1  0
 15 16  1  0
 16 17  1  0
 17 18  1  0
 18 19  1  0
 19 20  1  0
 20 21  1  0
 21 22  2  0
 22 23  1  0
 23 24  2  0
 24 25  1  0
 25 26  2  0
 20 27  1  0
 27 28  1  0
 15 29  2  0
  4 30  1  0
 30 31  2  0
 31  1  1  0
 11  6  1  0
 29 12  1  0
 28 17  1  0
 26 21  1  0
  1 32  1  0
  2 33  1  0
  3 34  1  0
  5 35  1  0
  7 36  1  0
  8 37  1  0
  9 38  1  0
 10 39  1  0
 11 40  1  0
 16 41  1  0
 16 42  1  0
 18 43  1  0
 18 44  1  0
 19 45  1  0
 19 46  1  0
 20 47  1  0
 22 48  1  0
 23 49  1  0
 25 50  1  0
 26 51  1  0
 27 52  1  0
 27 53  1  0
 28 54  1  0
 28 55  1  0
 30 56  1  0
 31 57  1  0
M  END
$$$$
