
     RDKit          3D

 34 35  0  0  0  0  0  0  0  0999 V2000
    1.0455   -1.7300   -0.0855 C   0  0  0  0  0  0  0  0  0  0  0  0
    0.0374   -0.8867   -0.7191 N   0  0  0  0  0  0  0  0  0  0  0  0
    0.2324   -0.1228   -1.8676 C   0  0  0  0  0  0  0  0  0  0  0  0
   -0.7176    0.4597   -2.4026 O   0  0  0  0  0  0  0  0  0  0  0  0
    1.6212    0.0259   -2.4771 C   0  0  0  0  0  0  0  0  0  0  0  0
    2.2613    1.6993   -2.1786 S   0  0  0  0  0  0  0  0  0  0  0  0
    2.4847    1.5950   -0.4278 C   0  0  0  0  0  0  0  0  0  0  0  0
    3.3540    0.6806    0.0385 N   0  0  0  0  0  0  0  0  0  0  0  0
    3.5600    0.6815    1.3693 C   0  0  0  0  0  0  0  0  0  0  0  0
    2.9172    1.5311    2.2372 C   0  0  0  0  0  0  0  0  0  0  0  0
    2.0333    2.4090    1.6581 C   0  0  0  0  0  0  0  0  0  0  0  0
    1.7977    2.4595    0.3349 N   0  0  0  0  0  0  0  0  0  0  0  0
   -1.2762   -0.8755   -0.0525 C   0  0  0  0  0  0  0  0  0  0  0  0
   -1.7317    0.5127    0.4299 C   0  0  0  0  0  0  0  0  0  0  0  0
   -3.1245    0.3172    1.0171 C   0  0  0  0  0  0  0  0  0  0  0  0
   -3.8733   -1.0030    0.0715 S   0  0  0  0  0  6  0  0  0  0  0  0
   -4.8792   -0.4504   -0.8097 O   0  0  0  0  0  0  0  0  0  0  0  0
   -4.1644   -2.0944    0.9807 O   0  0  0  0  0  0  0  0  0  0  0  0
   -2.4301   -1.4452   -0.8778 C   0  0  0  0  0  0  0  0  0  0  0  0
    0.6424   -2.7447   -0.0036 H   0  0  0  0  0  0  0  0  0  0  0  0
    1.9830   -1.7914   -0.6301 H   0  0  0  0  0  0  0  0  0  0  0  0
    1.2404   -1.3420    0.9184 H   0  0  0  0  0  0  0  0  0  0  0  0
    2.3454   -0.7229   -2.1684 H   0  0  0  0  0  0  0  0  0  0  0  0
    1.5081   -0.1034   -3.5597 H   0  0  0  0  0  0  0  0  0  0  0  0
    4.2836   -0.0453    1.7280 H   0  0  0  0  0  0  0  0  0  0  0  0
    3.0996    1.5155    3.3026 H   0  0  0  0  0  0  0  0  0  0  0  0
    1.4764    3.1254    2.2554 H   0  0  0  0  0  0  0  0  0  0  0  0
   -1.1787   -1.5007    0.8477 H   0  0  0  0  0  0  0  0  0  0  0  0
   -1.0434    0.9325    1.1708 H   0  0  0  0  0  0  0  0  0  0  0  0
   -1.7911    1.2300   -0.3948 H   0  0  0  0  0  0  0  0  0  0  0  0
   -3.0675   -0.0102    2.0594 H   0  0  0  0  0  0  0  0  0  0  0  0
   -3.7366    1.2186    0.9436 H   0  0  0  0  0  0  0  0  0  0  0  0
   -2.5348   -0.9935   -1.8659 H   0  0  0  0  0  0  0  0  0  0  0  0
   -2.3745   -2.5318   -0.9781 H   0  0  0  0  0  0  0  0  0  0  0  0
  1  2  1  0
  2  3  1  0
  3  4  2  0
  3  5  1  0
  5  6  1  0
  6  7  1  0
  7  8  2  0
  8  9  1  0
  9 10  2  0
 10 11  1  0
 11 12  2  0
  2 13  1  0
 13 14  1  0
 14 15  1  0
 15 16  1  0
 16 17  2  0
 16 18  2  0
 16 19  1  0
 12  7  1  0
 19 13  1  0
  1 20  1  0
  1 21  1  0
  1 22  1  0
  5 23  1  0
  5 24  1  0
  9 25  1  0
 10 26  1  0
 11 27  1  0
 13 28  1  0
 14 29  1  0
 14 30  1  0
 15 31  1  0
 15 32  1  0
 19 33  1  0
 19 34  1  0
M  END
$$$$
