
     RDKit          3D

 59 62  0  0  0  0  0  0  0  0999 V2000
   -6.6453   -1.8886   -2.4278 C   0  0  0  0  0  0  0  0  0  0  0  0
   -7.2823   -1.6156   -1.1845 O   0  0  0  0  0  0  0  0  0  0  0  0
   -6.5054   -1.0782   -0.1957 C   0  0  0  0  0  0  0  0  0  0  0  0
   -7.1841   -0.7915    0.9869 C   0  0  0  0  0  0  0  0  0  0  0  0
   -6.5034   -0.2398    2.0695 C   0  0  0  0  0  0  0  0  0  0  0  0
   -5.1288    0.0265    1.9690 C   0  0  0  0  0  0  0  0  0  0  0  0
   -4.3966    0.5738    3.0214 C   0  0  0  0  0  0  0  0  0  0  0  0
   -3.0196    0.8250    2.8829 C   0  0  0  0  0  0  0  0  0  0  0  0
   -2.3650    1.3412    4.0444 C   0  0  0  0  0  0  0  0  0  0  0  0
   -1.8546    1.7544    5.0028 N   0  0  0  0  0  0  0  0  0  0  0  0
   -2.3789    0.5222    1.6729 C   0  0  0  0  0  0  0  0  0  0  0  0
   -1.0411    0.7501    1.3486 N   0  0  0  0  0  0  0  0  0  0  0  0
   -0.0867    1.4037    2.2545 C   0  0  0  0  0  0  0  0  0  0  0  0
    1.2310    1.7939    1.5415 C   0  0  0  0  0  0  0  0  0  0  0  0
    1.8826    0.7223    0.7597 N   0  0  0  0  0  0  0  0  0  0  0  0
    2.4328   -0.3205    1.6402 C   0  0  0  0  0  0  0  0  0  0  0  0
    3.2428   -1.3312    0.9068 C   0  0  0  0  0  0  0  0  0  0  0  0
    2.9829   -2.6202    0.7966 N   0  0  0  0  0  0  0  0  0  0  0  0
    4.0234   -3.1647    0.0884 N   0  0  0  0  0  0  0  0  0  0  0  0
    4.9129   -2.2384   -0.2349 N   0  0  0  0  0  0  0  0  0  0  0  0
    4.4108   -1.0828    0.2372 N   0  0  0  0  0  0  0  0  0  0  0  0
    5.1523    0.1420    0.0857 C   0  0  0  0  0  0  0  0  0  0  0  0
    4.8014    0.9991   -1.1374 C   0  0  0  0  0  0  0  0  0  0  0  0
    5.0738    0.3333   -2.5019 C   0  0  0  0  0  0  0  0  0  0  0  0
    3.8452   -0.4142   -3.0281 C   0  0  0  0  0  0  0  0  0  0  0  0
    5.4815    1.3931   -3.5311 C   0  0  0  0  0  0  0  0  0  0  0  0
    0.8707    0.1925   -0.1853 C   0  0  0  0  0  0  0  0  0  0  0  0
   -0.4610   -0.2743    0.4448 C   0  0  0  0  0  0  0  0  0  0  0  0
   -3.1189   -0.0173    0.6640 N   0  0  0  0  0  0  0  0  0  0  0  0
   -4.4361   -0.2594    0.7885 C   0  0  0  0  0  0  0  0  0  0  0  0
   -5.1375   -0.8088   -0.2792 C   0  0  0  0  0  0  0  0  0  0  0  0
   -7.4003   -2.2953   -3.1081 H   0  0  0  0  0  0  0  0  0  0  0  0
   -6.2507   -0.9715   -2.8782 H   0  0  0  0  0  0  0  0  0  0  0  0
   -5.8608   -2.6435   -2.3114 H   0  0  0  0  0  0  0  0  0  0  0  0
   -8.2491   -0.9985    1.0629 H   0  0  0  0  0  0  0  0  0  0  0  0
   -7.0498   -0.0223    2.9842 H   0  0  0  0  0  0  0  0  0  0  0  0
   -4.8953    0.8028    3.9626 H   0  0  0  0  0  0  0  0  0  0  0  0
   -0.5072    2.3422    2.6310 H   0  0  0  0  0  0  0  0  0  0  0  0
    0.1420    0.7432    3.0988 H   0  0  0  0  0  0  0  0  0  0  0  0
    1.0187    2.6244    0.8544 H   0  0  0  0  0  0  0  0  0  0  0  0
    1.9361    2.2012    2.2768 H   0  0  0  0  0  0  0  0  0  0  0  0
    1.6481   -0.8370    2.2044 H   0  0  0  0  0  0  0  0  0  0  0  0
    3.0875    0.1440    2.3885 H   0  0  0  0  0  0  0  0  0  0  0  0
    5.0003    0.7319    0.9969 H   0  0  0  0  0  0  0  0  0  0  0  0
    6.2177   -0.1184    0.0636 H   0  0  0  0  0  0  0  0  0  0  0  0
    3.7586    1.3299   -1.0881 H   0  0  0  0  0  0  0  0  0  0  0  0
    5.4088    1.9102   -1.0550 H   0  0  0  0  0  0  0  0  0  0  0  0
    5.9065   -0.3742   -2.4076 H   0  0  0  0  0  0  0  0  0  0  0  0
    3.5251   -1.2082   -2.3508 H   0  0  0  0  0  0  0  0  0  0  0  0
    4.0630   -0.8795   -3.9957 H   0  0  0  0  0  0  0  0  0  0  0  0
    2.9978    0.2659   -3.1682 H   0  0  0  0  0  0  0  0  0  0  0  0
    4.6933    2.1427   -3.6639 H   0  0  0  0  0  0  0  0  0  0  0  0
    5.6813    0.9339   -4.5052 H   0  0  0  0  0  0  0  0  0  0  0  0
    6.3938    1.9109   -3.2157 H   0  0  0  0  0  0  0  0  0  0  0  0
    1.2920   -0.6204   -0.7883 H   0  0  0  0  0  0  0  0  0  0  0  0
    0.6469    0.9904   -0.9069 H   0  0  0  0  0  0  0  0  0  0  0  0
   -1.1251   -0.5091   -0.3958 H   0  0  0  0  0  0  0  0  0  0  0  0
   -0.3043   -1.2031    1.0077 H   0  0  0  0  0  0  0  0  0  0  0  0
   -4.5740   -1.0200   -1.1820 H   0  0  0  0  0  0  0  0  0  0  0  0
  1  2  1  0
  2  3  1  0
  3  4  2  0
  4  5  1  0
  5  6  2  0
  6  7  1  0
  7  8  2  0
  8  9  1  0
  9 10  3  0
  8 11  1  0
 11 12  1  0
 12 13  1  0
 13 14  1  0
 14 15  1  0
 15 16  1  0
 16 17  1  0
 17 18  2  0
 18 19  1  0
 19 20  2  0
 20 21  1  0
 21 22  1  0
 22 23  1  0
 23 24  1  0
 24 25  1  0
 24 26  1  0
 15 27  1  0
 27 28  1  0
 11 29  2  0
 29 30  1  0
 30 31  2  0
 31  3  1  0
 30  6  1  0
 28 12  1  0
 21 17  1  0
  1 32  1  0
  1 33  1  0
  1 34  1  0
  4 35  1  0
  5 36  1  0
  7 37  1  0
 13 38  1  0
 13 39  1  0
 14 40  1  0
 14 41  1  0
 16 42  1  0
 16 43  1  0
 22 44  1  0
 22 45  1  0
 23 46  1  0
 23 47  1  0
 24 48  1  0
 25 49  1  0
 25 50  1  0
 25 51  1  0
 26 52  1  0
 26 53  1  0
 26 54  1  0
 27 55  1  0
 27 56  1  0
 28 57  1  0
 28 58  1  0
 31 59  1  0
M  END
$$$$
