
     RDKit          3D

 55 57  0  0  0  0  0  0  0  0999 V2000
    0.3392    4.4367    2.5163 C   0  0  0  0  0  0  0  0  0  0  0  0
   -0.2375    3.5176    1.4347 C   0  0  0  0  0  0  0  0  0  0  0  0
   -0.1685    4.2221    0.0783 C   0  0  0  0  0  0  0  0  0  0  0  0
    0.5264    2.1764    1.4336 C   0  0  0  0  0  0  0  0  0  0  0  0
   -0.0643    1.0729    0.5228 C   0  0  0  0  0  0  0  0  0  0  0  0
    0.7701   -0.2080    0.4720 C   0  0  0  0  0  0  0  0  0  0  0  0
    0.3928   -1.2800    0.0064 O   0  0  0  0  0  0  0  0  0  0  0  0
    2.0395   -0.0118    0.9372 O   0  0  0  0  0  0  0  0  0  0  0  0
    2.9039   -1.1289    0.7418 C   0  0  0  0  0  0  0  0  0  0  0  0
    3.3106   -1.2967   -0.7288 C   0  0  0  0  0  0  0  0  0  0  0  0
    3.5101   -0.3156   -1.4413 O   0  0  0  0  0  0  0  0  0  0  0  0
    3.4207   -2.6247   -1.1108 N   0  0  0  0  0  0  0  0  0  0  0  0
    3.7838   -3.1258   -2.3785 C   0  0  0  0  0  0  0  0  0  0  0  0
    4.1780   -2.3247   -3.4529 C   0  0  0  0  0  0  0  0  0  0  0  0
    4.5205   -2.8978   -4.6832 C   0  0  0  0  0  0  0  0  0  0  0  0
    4.4685   -4.2790   -4.8508 C   0  0  0  0  0  0  0  0  0  0  0  0
    4.0818   -5.0818   -3.7822 C   0  0  0  0  0  0  0  0  0  0  0  0
    4.0189   -6.7888   -3.9788 Cl  0  0  0  0  0  0  0  0  0  0  0  0
    3.7421   -4.5153   -2.5518 C   0  0  0  0  0  0  0  0  0  0  0  0
   -1.4521    0.7520    0.8615 N   0  0  0  0  0  0  0  0  0  0  0  0
   -1.8680    0.1572    2.0342 C   0  0  0  0  0  0  0  0  0  0  0  0
   -0.9899   -0.1958    2.9657 O   0  0  0  0  0  0  0  0  0  0  0  0
   -3.2419    0.0391    1.9827 C   0  0  0  0  0  0  0  0  0  0  0  0
   -3.6684    0.5704    0.7261 C   0  0  0  0  0  0  0  0  0  0  0  0
   -2.5415    0.9993    0.0550 C   0  0  0  0  0  0  0  0  0  0  0  0
   -2.3928    1.5602   -1.1389 O   0  0  0  0  0  0  0  0  0  0  0  0
   -5.1007    0.6105    0.3004 C   0  0  0  0  0  0  0  0  0  0  0  0
   -6.0307    0.0558    1.3543 C   0  0  0  0  0  0  0  0  0  0  0  0
   -5.6297   -0.4443    2.5396 C   0  0  0  0  0  0  0  0  0  0  0  0
   -4.1896   -0.5249    2.9917 C   0  0  0  0  0  0  0  0  0  0  0  0
    0.2543    3.9745    3.5053 H   0  0  0  0  0  0  0  0  0  0  0  0
    1.3969    4.6526    2.3326 H   0  0  0  0  0  0  0  0  0  0  0  0
   -0.2011    5.3885    2.5465 H   0  0  0  0  0  0  0  0  0  0  0  0
   -1.2905    3.3421    1.6829 H   0  0  0  0  0  0  0  0  0  0  0  0
   -0.6756    5.1920    0.1205 H   0  0  0  0  0  0  0  0  0  0  0  0
    0.8701    4.3988   -0.2255 H   0  0  0  0  0  0  0  0  0  0  0  0
   -0.6554    3.6362   -0.7067 H   0  0  0  0  0  0  0  0  0  0  0  0
    0.5915    1.8020    2.4641 H   0  0  0  0  0  0  0  0  0  0  0  0
    1.5629    2.3779    1.1276 H   0  0  0  0  0  0  0  0  0  0  0  0
   -0.0500    1.4426   -0.5091 H   0  0  0  0  0  0  0  0  0  0  0  0
    3.8199   -0.9398    1.3108 H   0  0  0  0  0  0  0  0  0  0  0  0
    2.4528   -2.0393    1.1527 H   0  0  0  0  0  0  0  0  0  0  0  0
    3.1218   -3.3172   -0.4351 H   0  0  0  0  0  0  0  0  0  0  0  0
    4.2304   -1.2429   -3.3708 H   0  0  0  0  0  0  0  0  0  0  0  0
    4.8222   -2.2586   -5.5095 H   0  0  0  0  0  0  0  0  0  0  0  0
    4.7308   -4.7184   -5.8098 H   0  0  0  0  0  0  0  0  0  0  0  0
    3.4440   -5.1665   -1.7353 H   0  0  0  0  0  0  0  0  0  0  0  0
   -1.4879   -0.6276    3.6808 H   0  0  0  0  0  0  0  0  0  0  0  0
   -3.2716    1.6042   -1.5542 H   0  0  0  0  0  0  0  0  0  0  0  0
   -5.2227    0.0292   -0.6213 H   0  0  0  0  0  0  0  0  0  0  0  0
   -5.3877    1.6462    0.0845 H   0  0  0  0  0  0  0  0  0  0  0  0
   -7.0912    0.0704    1.1156 H   0  0  0  0  0  0  0  0  0  0  0  0
   -6.3744   -0.8229    3.2353 H   0  0  0  0  0  0  0  0  0  0  0  0
   -4.0839    0.0235    3.9353 H   0  0  0  0  0  0  0  0  0  0  0  0
   -3.9370   -1.5740    3.1829 H   0  0  0  0  0  0  0  0  0  0  0  0
  1  2  1  0
  2  3  1  0
  2  4  1  0
  4  5  1  0
  5  6  1  0
  6  7  2  0
  6  8  1  0
  8  9  1  0
  9 10  1  0
 10 11  2  0
 10 12  1  0
 12 13  1  0
 13 14  2  0
 14 15  1  0
 15 16  2  0
 16 17  1  0
 17 18  1  0
 17 19  2  0
  5 20  1  0
 20 21  1  0
 21 22  1  0
 21 23  2  0
 23 24  1  0
 24 25  2  0
 25 26  1  0
 24 27  1  0
 27 28  1  0
 28 29  2  0
 29 30  1  0
 19 13  1  0
 25 20  1  0
 30 23  1  0
  1 31  1  0
  1 32  1  0
  1 33  1  0
  2 34  1  0
  3 35  1  0
  3 36  1  0
  3 37  1  0
  4 38  1  0
  4 39  1  0
  5 40  1  0
  9 41  1  0
  9 42  1  0
 12 43  1  0
 14 44  1  0
 15 45  1  0
 16 46  1  0
 19 47  1  0
 22 48  1  0
 26 49  1  0
 27 50  1  0
 27 51  1  0
 28 52  1  0
 29 53  1  0
 30 54  1  0
 30 55  1  0
M  END
$$$$
