
     RDKit          3D

 44 47  0  0  0  0  0  0  0  0999 V2000
    2.4986    1.2550    2.4069 C   0  0  0  0  0  0  0  0  0  0  0  0
    2.3995    0.6150    1.0112 C   0  0  0  0  0  0  0  0  0  0  0  0
    2.7077   -0.8855    1.1497 C   0  0  0  0  0  0  0  0  0  0  0  0
    0.9934    0.8819    0.4448 C   0  0  0  0  0  0  0  0  0  0  0  0
    0.8890    0.5318   -1.0492 C   0  0  0  0  0  0  0  0  0  0  0  0
   -0.3272    1.1789   -1.7355 C   0  0  0  0  0  0  0  0  0  0  0  0
   -1.6705    0.5986   -1.2820 C   0  0  0  0  0  0  0  0  0  0  0  0
   -2.2540    1.3170   -0.0749 C   0  0  0  0  0  0  0  0  0  0  0  0
   -2.3966    0.8967    1.2370 C   0  0  0  0  0  0  0  0  0  0  0  0
   -3.0106    1.8769    2.0686 C   0  0  0  0  0  0  0  0  0  0  0  0
   -3.3372    3.0143    1.3686 C   0  0  0  0  0  0  0  0  0  0  0  0
   -2.9131    2.8960   -0.2803 S   0  0  0  0  0  0  0  0  0  0  0  0
   -1.5597   -0.9009   -1.1183 C   0  0  0  0  0  0  0  0  0  0  0  0
   -2.7245   -1.6853   -1.0074 C   0  0  0  0  0  0  0  0  0  0  0  0
   -2.6332   -3.0706   -0.8777 C   0  0  0  0  0  0  0  0  0  0  0  0
   -4.0717   -4.0079   -0.7328 Cl  0  0  0  0  0  0  0  0  0  0  0  0
   -1.3827   -3.6858   -0.8688 C   0  0  0  0  0  0  0  0  0  0  0  0
   -1.2387   -5.0402   -0.7472 O   0  0  0  0  0  0  0  0  0  0  0  0
   -0.2257   -2.9250   -0.9886 C   0  0  0  0  0  0  0  0  0  0  0  0
   -0.3132   -1.5357   -1.1062 C   0  0  0  0  0  0  0  0  0  0  0  0
    0.8795   -0.8853   -1.2408 O   0  0  0  0  0  0  0  0  0  0  0  0
    2.0760    1.0044   -1.7546 N   0  0  0  0  0  0  0  0  0  0  0  0
    3.2864    1.2441   -1.2082 C   0  0  0  0  0  0  0  0  0  0  0  0
    4.6026    1.5824   -2.1610 S   0  0  0  0  0  0  0  0  0  0  0  0
    3.3871    1.2365    0.1402 N   0  0  0  0  0  0  0  0  0  0  0  0
    1.7627    0.8238    3.0946 H   0  0  0  0  0  0  0  0  0  0  0  0
    2.3255    2.3366    2.3604 H   0  0  0  0  0  0  0  0  0  0  0  0
    3.4944    1.1090    2.8415 H   0  0  0  0  0  0  0  0  0  0  0  0
    1.9257   -1.4014    1.7172 H   0  0  0  0  0  0  0  0  0  0  0  0
    3.6579   -1.0396    1.6755 H   0  0  0  0  0  0  0  0  0  0  0  0
    2.8157   -1.3822    0.1811 H   0  0  0  0  0  0  0  0  0  0  0  0
    0.2708    0.3140    1.0373 H   0  0  0  0  0  0  0  0  0  0  0  0
    0.7626    1.9489    0.5703 H   0  0  0  0  0  0  0  0  0  0  0  0
   -0.2467    0.9792   -2.8158 H   0  0  0  0  0  0  0  0  0  0  0  0
   -0.2934    2.2711   -1.6364 H   0  0  0  0  0  0  0  0  0  0  0  0
   -2.3736    0.7621   -2.1138 H   0  0  0  0  0  0  0  0  0  0  0  0
   -2.0744   -0.0736    1.5973 H   0  0  0  0  0  0  0  0  0  0  0  0
   -3.2079    1.7509    3.1263 H   0  0  0  0  0  0  0  0  0  0  0  0
   -3.8130    3.9097    1.7450 H   0  0  0  0  0  0  0  0  0  0  0  0
   -3.7033   -1.2091   -1.0225 H   0  0  0  0  0  0  0  0  0  0  0  0
   -2.1339   -5.4239   -0.6902 H   0  0  0  0  0  0  0  0  0  0  0  0
    0.7457   -3.4128   -0.9907 H   0  0  0  0  0  0  0  0  0  0  0  0
    2.0899    0.8841   -2.7589 H   0  0  0  0  0  0  0  0  0  0  0  0
    4.3338    1.3458    0.4882 H   0  0  0  0  0  0  0  0  0  0  0  0
  1  2  1  0
  2  3  1  0
  2  4  1  0
  4  5  1  0
  5  6  1  0
  6  7  1  0
  7  8  1  0
  8  9  2  0
  9 10  1  0
 10 11  2  0
 11 12  1  0
  7 13  1  0
 13 14  2  0
 14 15  1  0
 15 16  1  0
 15 17  2  0
 17 18  1  0
 17 19  1  0
 19 20  2  0
 20 21  1  0
  5 22  1  0
 22 23  1  0
 23 24  2  0
 23 25  1  0
 25  2  1  0
 21  5  1  0
 12  8  1  0
 20 13  1  0
  1 26  1  0
  1 27  1  0
  1 28  1  0
  3 29  1  0
  3 30  1  0
  3 31  1  0
  4 32  1  0
  4 33  1  0
  6 34  1  0
  6 35  1  0
  7 36  1  0
  9 37  1  0
 10 38  1  0
 11 39  1  0
 14 40  1  0
 18 41  1  0
 19 42  1  0
 22 43  1  0
 25 44  1  0
M  END
$$$$
