
     RDKit          3D

 52 54  0  0  0  0  0  0  0  0999 V2000
    2.0303    1.5905    1.4644 C   0  0  0  0  0  0  0  0  0  0  0  0
    2.1532    0.1641    0.9324 C   0  0  0  0  0  0  0  0  0  0  0  0
    1.0868   -0.2986    0.0206 N   0  0  0  0  0  0  0  0  0  0  0  0
    1.0649    0.4669   -1.2428 C   0  0  0  0  0  0  0  0  0  0  0  0
    2.3254    0.3125   -2.0690 C   0  0  0  0  0  0  0  0  0  0  0  0
    3.1317    1.4196   -2.3693 C   0  0  0  0  0  0  0  0  0  0  0  0
    4.2859    1.2644   -3.1395 C   0  0  0  0  0  0  0  0  0  0  0  0
    4.6430    0.0048   -3.6186 C   0  0  0  0  0  0  0  0  0  0  0  0
    3.8471   -1.1020   -3.3294 C   0  0  0  0  0  0  0  0  0  0  0  0
    2.6935   -0.9495   -2.5599 C   0  0  0  0  0  0  0  0  0  0  0  0
   -0.2623   -0.3973    0.6543 C   0  0  0  0  0  0  0  0  0  0  0  0
   -0.2339   -1.2344    1.9406 C   0  0  0  0  0  0  0  0  0  0  0  0
   -0.5070   -0.6575    3.1879 C   0  0  0  0  0  0  0  0  0  0  0  0
   -0.4600   -1.4558    4.3215 C   0  0  0  0  0  0  0  0  0  0  0  0
   -0.1604   -2.7700    4.3040 N   0  0  0  0  0  0  0  0  0  0  0  0
    0.1139   -3.3117    3.0986 C   0  0  0  0  0  0  0  0  0  0  0  0
    0.0952   -2.5978    1.9116 C   0  0  0  0  0  0  0  0  0  0  0  0
   -1.2984   -0.9783   -0.2899 C   0  0  0  0  0  0  0  0  0  0  0  0
   -1.1437   -2.0890   -0.9958 N   0  0  0  0  0  0  0  0  0  0  0  0
   -2.2779   -2.2588   -1.7284 N   0  0  0  0  0  0  0  0  0  0  0  0
   -3.1305   -1.2778   -1.5041 N   0  0  0  0  0  0  0  0  0  0  0  0
   -2.5425   -0.4624   -0.6009 N   0  0  0  0  0  0  0  0  0  0  0  0
   -3.2418    0.7635   -0.1896 C   0  0  0  0  0  0  0  0  0  0  0  0
   -3.3983    0.8340    1.3396 C   0  0  0  0  0  0  0  0  0  0  0  0
   -4.6796    0.8213   -0.7771 C   0  0  0  0  0  0  0  0  0  0  0  0
   -2.4979    2.0058   -0.7145 C   0  0  0  0  0  0  0  0  0  0  0  0
    1.1032    1.7440    2.0227 H   0  0  0  0  0  0  0  0  0  0  0  0
    2.8608    1.7991    2.1475 H   0  0  0  0  0  0  0  0  0  0  0  0
    2.0778    2.3317    0.6619 H   0  0  0  0  0  0  0  0  0  0  0  0
    2.2396   -0.5186    1.7853 H   0  0  0  0  0  0  0  0  0  0  0  0
    3.1264    0.0668    0.4359 H   0  0  0  0  0  0  0  0  0  0  0  0
    0.2564    0.1299   -1.9024 H   0  0  0  0  0  0  0  0  0  0  0  0
    0.8572    1.5270   -1.0539 H   0  0  0  0  0  0  0  0  0  0  0  0
    2.8685    2.4090   -2.0045 H   0  0  0  0  0  0  0  0  0  0  0  0
    4.9076    2.1262   -3.3671 H   0  0  0  0  0  0  0  0  0  0  0  0
    5.5414   -0.1151   -4.2181 H   0  0  0  0  0  0  0  0  0  0  0  0
    4.1229   -2.0850   -3.7016 H   0  0  0  0  0  0  0  0  0  0  0  0
    2.0767   -1.8187   -2.3355 H   0  0  0  0  0  0  0  0  0  0  0  0
   -0.5632    0.6167    0.9233 H   0  0  0  0  0  0  0  0  0  0  0  0
   -0.7394    0.3958    3.2929 H   0  0  0  0  0  0  0  0  0  0  0  0
   -0.6652   -1.0440    5.3057 H   0  0  0  0  0  0  0  0  0  0  0  0
    0.3605   -4.3696    3.1086 H   0  0  0  0  0  0  0  0  0  0  0  0
    0.3396   -3.0966    0.9774 H   0  0  0  0  0  0  0  0  0  0  0  0
   -3.7940   -0.1052    1.7432 H   0  0  0  0  0  0  0  0  0  0  0  0
   -4.0836    1.6385    1.6316 H   0  0  0  0  0  0  0  0  0  0  0  0
   -2.4540    1.0442    1.8423 H   0  0  0  0  0  0  0  0  0  0  0  0
   -5.2017    1.7322   -0.4608 H   0  0  0  0  0  0  0  0  0  0  0  0
   -5.2818   -0.0333   -0.4458 H   0  0  0  0  0  0  0  0  0  0  0  0
   -4.6686    0.8218   -1.8735 H   0  0  0  0  0  0  0  0  0  0  0  0
   -3.0507    2.9237   -0.4831 H   0  0  0  0  0  0  0  0  0  0  0  0
   -1.5028    2.1151   -0.2763 H   0  0  0  0  0  0  0  0  0  0  0  0
   -2.3702    1.9578   -1.8024 H   0  0  0  0  0  0  0  0  0  0  0  0
  1  2  1  0
  2  3  1  0
  3  4  1  0
  4  5  1  0
  5  6  2  0
  6  7  1  0
  7  8  2  0
  8  9  1  0
  9 10  2  0
  3 11  1  0
 11 12  1  0
 12 13  2  0
 13 14  1  0
 14 15  2  0
 15 16  1  0
 16 17  2  0
 11 18  1  0
 18 19  2  0
 19 20  1  0
 20 21  2  0
 21 22  1  0
 22 23  1  0
 23 24  1  0
 23 25  1  0
 23 26  1  0
 10  5  1  0
 17 12  1  0
 22 18  1  0
  1 27  1  0
  1 28  1  0
  1 29  1  0
  2 30  1  0
  2 31  1  0
  4 32  1  0
  4 33  1  0
  6 34  1  0
  7 35  1  0
  8 36  1  0
  9 37  1  0
 10 38  1  0
 11 39  1  0
 13 40  1  0
 14 41  1  0
 16 42  1  0
 17 43  1  0
 24 44  1  0
 24 45  1  0
 24 46  1  0
 25 47  1  0
 25 48  1  0
 25 49  1  0
 26 50  1  0
 26 51  1  0
 26 52  1  0
M  END
$$$$
