
     RDKit          3D

 40 41  0  0  0  0  0  0  0  0999 V2000
    5.5507    0.6642   -0.8348 C   0  0  0  0  0  0  0  0  0  0  0  0
    5.4667   -0.0416    0.5073 C   0  0  0  0  0  0  0  0  0  0  0  0
    4.4541   -1.0466    0.4868 O   0  0  0  0  0  0  0  0  0  0  0  0
    3.1848   -0.7139    0.8669 C   0  0  0  0  0  0  0  0  0  0  0  0
    2.7067    0.5733    1.1184 C   0  0  0  0  0  0  0  0  0  0  0  0
    1.3729    0.7687    1.4936 C   0  0  0  0  0  0  0  0  0  0  0  0
    0.5115   -0.3269    1.5981 C   0  0  0  0  0  0  0  0  0  0  0  0
   -1.1788   -0.0801    2.1072 S   0  0  0  0  0  6  0  0  0  0  0  0
   -1.2469    1.2051    2.7715 O   0  0  0  0  0  0  0  0  0  0  0  0
   -1.6107   -1.2896    2.7754 O   0  0  0  0  0  0  0  0  0  0  0  0
   -2.0130    0.0441    0.6298 N   0  0  0  0  0  0  0  0  0  0  0  0
   -2.1621   -1.1793   -0.1812 C   0  0  0  0  0  0  0  0  0  0  0  0
   -3.6174   -1.3636   -0.6278 C   0  0  0  0  0  0  0  0  0  0  0  0
   -4.5031   -0.1174   -0.5793 C   0  0  0  0  0  0  0  0  0  0  0  0
   -4.0465    1.0471   -1.4554 C   0  0  0  0  0  0  0  0  0  0  0  0
   -2.5458    1.3291   -1.4810 C   0  0  0  0  0  0  0  0  0  0  0  0
   -1.8521    1.3167   -0.1180 C   0  0  0  0  0  0  0  0  0  0  0  0
    0.9850   -1.6197    1.3703 C   0  0  0  0  0  0  0  0  0  0  0  0
    2.3169   -1.8043    0.9943 C   0  0  0  0  0  0  0  0  0  0  0  0
    6.3725    1.3858   -0.8412 H   0  0  0  0  0  0  0  0  0  0  0  0
    5.7134   -0.0611   -1.6390 H   0  0  0  0  0  0  0  0  0  0  0  0
    4.6216    1.1923   -1.0687 H   0  0  0  0  0  0  0  0  0  0  0  0
    6.4151   -0.5619    0.6836 H   0  0  0  0  0  0  0  0  0  0  0  0
    5.3496    0.6584    1.3419 H   0  0  0  0  0  0  0  0  0  0  0  0
    3.3418    1.4484    1.0314 H   0  0  0  0  0  0  0  0  0  0  0  0
    1.0173    1.7755    1.7033 H   0  0  0  0  0  0  0  0  0  0  0  0
   -1.4854   -1.1493   -1.0423 H   0  0  0  0  0  0  0  0  0  0  0  0
   -1.8702   -2.0735    0.3793 H   0  0  0  0  0  0  0  0  0  0  0  0
   -3.6308   -1.7945   -1.6363 H   0  0  0  0  0  0  0  0  0  0  0  0
   -4.0794   -2.1176    0.0232 H   0  0  0  0  0  0  0  0  0  0  0  0
   -5.5213   -0.3969   -0.8783 H   0  0  0  0  0  0  0  0  0  0  0  0
   -4.5918    0.2250    0.4599 H   0  0  0  0  0  0  0  0  0  0  0  0
   -4.5757    1.9505   -1.1269 H   0  0  0  0  0  0  0  0  0  0  0  0
   -4.3745    0.8652   -2.4867 H   0  0  0  0  0  0  0  0  0  0  0  0
   -2.0587    0.6197   -2.1603 H   0  0  0  0  0  0  0  0  0  0  0  0
   -2.3896    2.3137   -1.9403 H   0  0  0  0  0  0  0  0  0  0  0  0
   -0.7884    1.5172   -0.2804 H   0  0  0  0  0  0  0  0  0  0  0  0
   -2.2632    2.1316    0.4887 H   0  0  0  0  0  0  0  0  0  0  0  0
    0.3354   -2.4833    1.4897 H   0  0  0  0  0  0  0  0  0  0  0  0
    2.6892   -2.8100    0.8103 H   0  0  0  0  0  0  0  0  0  0  0  0
  1  2  1  0
  2  3  1  0
  3  4  1  0
  4  5  2  0
  5  6  1  0
  6  7  2  0
  7  8  1  0
  8  9  2  0
  8 10  2  0
  8 11  1  0
 11 12  1  0
 12 13  1  0
 13 14  1  0
 14 15  1  0
 15 16  1  0
 16 17  1  0
  7 18  1  0
 18 19  2  0
 19  4  1  0
 17 11  1  0
  1 20  1  0
  1 21  1  0
  1 22  1  0
  2 23  1  0
  2 24  1  0
  5 25  1  0
  6 26  1  0
 12 27  1  0
 12 28  1  0
 13 29  1  0
 13 30  1  0
 14 31  1  0
 14 32  1  0
 15 33  1  0
 15 34  1  0
 16 35  1  0
 16 36  1  0
 17 37  1  0
 17 38  1  0
 18 39  1  0
 19 40  1  0
M  END
$$$$
