
     RDKit          3D

 61 63  0  0  0  0  0  0  0  0999 V2000
   -1.6440   -2.4269   -1.6513 C   0  0  0  0  0  0  0  0  0  0  0  0
   -0.4963   -1.4475   -1.4949 C   0  0  0  0  0  0  0  0  0  0  0  0
   -0.8233   -0.5485   -0.4310 O   0  0  0  0  0  0  0  0  0  0  0  0
    0.1733    0.3030   -0.0642 C   0  0  0  0  0  0  0  0  0  0  0  0
    1.2833    0.3127   -0.5853 O   0  0  0  0  0  0  0  0  0  0  0  0
   -0.1925    1.1895    1.0436 C   0  0  0  0  0  0  0  0  0  0  0  0
   -1.5113    1.4121    1.5980 C   0  0  0  0  0  0  0  0  0  0  0  0
   -2.7796    0.8456    1.1688 C   0  0  0  0  0  0  0  0  0  0  0  0
   -3.4324    1.3600    0.0461 C   0  0  0  0  0  0  0  0  0  0  0  0
   -4.6367    0.7945   -0.3827 C   0  0  0  0  0  0  0  0  0  0  0  0
   -5.2127   -0.2910    0.2980 C   0  0  0  0  0  0  0  0  0  0  0  0
   -6.4778   -0.8908   -0.1616 C   0  0  0  0  0  0  0  0  0  0  0  0
   -7.6129   -0.0971   -0.3988 C   0  0  0  0  0  0  0  0  0  0  0  0
   -8.8143   -0.6658   -0.8323 C   0  0  0  0  0  0  0  0  0  0  0  0
   -8.9006   -2.0400   -1.0388 C   0  0  0  0  0  0  0  0  0  0  0  0
   -7.7877   -2.8456   -0.8112 C   0  0  0  0  0  0  0  0  0  0  0  0
   -6.5880   -2.2755   -0.3755 C   0  0  0  0  0  0  0  0  0  0  0  0
   -4.5437   -0.7900    1.4287 C   0  0  0  0  0  0  0  0  0  0  0  0
   -3.3395   -0.2287    1.8631 C   0  0  0  0  0  0  0  0  0  0  0  0
   -1.4870    2.2978    2.6572 C   0  0  0  0  0  0  0  0  0  0  0  0
    0.0854    2.8623    2.9856 S   0  0  0  0  0  0  0  0  0  0  0  0
    0.7564    1.9453    1.7248 C   0  0  0  0  0  0  0  0  0  0  0  0
    2.1134    1.9856    1.4582 N   0  0  0  0  0  0  0  0  0  0  0  0
    3.1119    2.6426    2.1557 C   0  0  0  0  0  0  0  0  0  0  0  0
    2.9984    3.3496    3.1506 O   0  0  0  0  0  0  0  0  0  0  0  0
    4.4911    2.4170    1.5118 C   0  0  0  0  0  0  0  0  0  0  0  0
    4.5330    1.0987    0.8452 N   0  0  0  0  0  0  0  0  0  0  0  0
    5.7918    0.9182    0.1079 C   0  0  0  0  0  0  0  0  0  0  0  0
    5.8346   -0.4846   -0.5448 C   0  0  0  0  0  0  0  0  0  0  0  0
    7.0248   -0.8269   -1.3385 N   0  0  0  0  0  0  0  0  0  0  0  0
    8.2533   -0.8313   -0.5537 C   0  0  0  0  0  0  0  0  0  0  0  0
    7.1599    0.0054   -2.5325 C   0  0  0  0  0  0  0  0  0  0  0  0
   -2.5807   -1.9005   -1.8650 H   0  0  0  0  0  0  0  0  0  0  0  0
   -1.7977   -2.9848   -0.7225 H   0  0  0  0  0  0  0  0  0  0  0  0
   -1.4461   -3.1358   -2.4595 H   0  0  0  0  0  0  0  0  0  0  0  0
    0.4213   -1.9945   -1.2597 H   0  0  0  0  0  0  0  0  0  0  0  0
   -0.3598   -0.8808   -2.4224 H   0  0  0  0  0  0  0  0  0  0  0  0
   -3.0087    2.1944   -0.5063 H   0  0  0  0  0  0  0  0  0  0  0  0
   -5.1203    1.2001   -1.2691 H   0  0  0  0  0  0  0  0  0  0  0  0
   -7.5722    0.9776   -0.2339 H   0  0  0  0  0  0  0  0  0  0  0  0
   -9.6817   -0.0336   -1.0055 H   0  0  0  0  0  0  0  0  0  0  0  0
   -9.8337   -2.4831   -1.3765 H   0  0  0  0  0  0  0  0  0  0  0  0
   -7.8511   -3.9184   -0.9741 H   0  0  0  0  0  0  0  0  0  0  0  0
   -5.7285   -2.9233   -0.2138 H   0  0  0  0  0  0  0  0  0  0  0  0
   -4.9647   -1.6229    1.9883 H   0  0  0  0  0  0  0  0  0  0  0  0
   -2.8423   -0.6412    2.7379 H   0  0  0  0  0  0  0  0  0  0  0  0
   -2.3195    2.6480    3.2533 H   0  0  0  0  0  0  0  0  0  0  0  0
    2.4483    1.4138    0.6764 H   0  0  0  0  0  0  0  0  0  0  0  0
    5.2528    2.4638    2.2970 H   0  0  0  0  0  0  0  0  0  0  0  0
    4.6515    3.2274    0.7940 H   0  0  0  0  0  0  0  0  0  0  0  0
    4.4632    0.3724    1.5619 H   0  0  0  0  0  0  0  0  0  0  0  0
    6.6372    1.0326    0.7945 H   0  0  0  0  0  0  0  0  0  0  0  0
    5.8673    1.6886   -0.6663 H   0  0  0  0  0  0  0  0  0  0  0  0
    4.9483   -0.6081   -1.1818 H   0  0  0  0  0  0  0  0  0  0  0  0
    5.7240   -1.2430    0.2433 H   0  0  0  0  0  0  0  0  0  0  0  0
    9.0797   -1.2382   -1.1464 H   0  0  0  0  0  0  0  0  0  0  0  0
    8.1497   -1.4798    0.3233 H   0  0  0  0  0  0  0  0  0  0  0  0
    8.5435    0.1681   -0.2154 H   0  0  0  0  0  0  0  0  0  0  0  0
    6.2418   -0.0224   -3.1307 H   0  0  0  0  0  0  0  0  0  0  0  0
    7.3874    1.0521   -2.2951 H   0  0  0  0  0  0  0  0  0  0  0  0
    7.9608   -0.3784   -3.1738 H   0  0  0  0  0  0  0  0  0  0  0  0
  1  2  1  0
  2  3  1  0
  3  4  1  0
  4  5  2  0
  4  6  1  0
  6  7  1  0
  7  8  1  0
  8  9  2  0
  9 10  1  0
 10 11  2  0
 11 12  1  0
 12 13  2  0
 13 14  1  0
 14 15  2  0
 15 16  1  0
 16 17  2  0
 11 18  1  0
 18 19  2  0
  7 20  2  0
 20 21  1  0
 21 22  1  0
 22 23  1  0
 23 24  1  0
 24 25  2  0
 24 26  1  0
 26 27  1  0
 27 28  1  0
 28 29  1  0
 29 30  1  0
 30 31  1  0
 30 32  1  0
 22  6  2  0
 19  8  1  0
 17 12  1  0
  1 33  1  0
  1 34  1  0
  1 35  1  0
  2 36  1  0
  2 37  1  0
  9 38  1  0
 10 39  1  0
 13 40  1  0
 14 41  1  0
 15 42  1  0
 16 43  1  0
 17 44  1  0
 18 45  1  0
 19 46  1  0
 20 47  1  0
 23 48  1  0
 26 49  1  0
 26 50  1  0
 27 51  1  0
 28 52  1  0
 28 53  1  0
 29 54  1  0
 29 55  1  0
 31 56  1  0
 31 57  1  0
 31 58  1  0
 32 59  1  0
 32 60  1  0
 32 61  1  0
M  END
$$$$
