
     RDKit          3D

 36 38  0  0  0  0  0  0  0  0999 V2000
   -1.3956    0.5190   -3.0426 C   0  0  0  0  0  0  0  0  0  0  0  0
   -2.1697    0.0879   -1.8463 C   0  0  0  0  0  0  0  0  0  0  0  0
   -3.4615   -0.3929   -1.7717 C   0  0  0  0  0  0  0  0  0  0  0  0
   -3.7572   -0.6710   -0.4120 C   0  0  0  0  0  0  0  0  0  0  0  0
   -4.8942   -1.1718    0.2521 C   0  0  0  0  0  0  0  0  0  0  0  0
   -4.8656   -1.3349    1.6406 C   0  0  0  0  0  0  0  0  0  0  0  0
   -3.7252   -1.0063    2.3668 C   0  0  0  0  0  0  0  0  0  0  0  0
   -2.5848   -0.5076    1.7292 C   0  0  0  0  0  0  0  0  0  0  0  0
   -2.6219   -0.3463    0.3334 C   0  0  0  0  0  0  0  0  0  0  0  0
   -1.6696    0.1121   -0.5608 N   0  0  0  0  0  0  0  0  0  0  0  0
   -0.3286    0.5395   -0.1867 C   0  0  0  0  0  0  0  0  0  0  0  0
    0.6447   -0.6385   -0.1449 C   0  0  0  0  0  0  0  0  0  0  0  0
    1.9785   -0.2606    0.2919 N   0  0  0  0  0  0  0  0  0  0  0  0
    2.8313    0.4517   -0.5346 C   0  0  0  0  0  0  0  0  0  0  0  0
    2.4558    0.8453   -1.6365 O   0  0  0  0  0  0  0  0  0  0  0  0
    4.1602    0.6875   -0.0002 C   0  0  0  0  0  0  0  0  0  0  0  0
    4.7793    0.3647    1.1968 C   0  0  0  0  0  0  0  0  0  0  0  0
    6.1010    0.8744    1.1291 C   0  0  0  0  0  0  0  0  0  0  0  0
    6.2153    1.4788   -0.0998 C   0  0  0  0  0  0  0  0  0  0  0  0
    7.7745    2.3458   -0.7579 Br  0  0  0  0  0  0  0  0  0  0  0  0
    5.0504    1.3720   -0.7874 O   0  0  0  0  0  0  0  0  0  0  0  0
   -0.4494   -0.0260   -3.1147 H   0  0  0  0  0  0  0  0  0  0  0  0
   -1.9606    0.3276   -3.9608 H   0  0  0  0  0  0  0  0  0  0  0  0
   -1.1830    1.5917   -2.9981 H   0  0  0  0  0  0  0  0  0  0  0  0
   -4.1286   -0.5317   -2.6127 H   0  0  0  0  0  0  0  0  0  0  0  0
   -5.7873   -1.4288   -0.3096 H   0  0  0  0  0  0  0  0  0  0  0  0
   -5.7431   -1.7199    2.1537 H   0  0  0  0  0  0  0  0  0  0  0  0
   -3.7210   -1.1368    3.4464 H   0  0  0  0  0  0  0  0  0  0  0  0
   -1.7048   -0.2528    2.3097 H   0  0  0  0  0  0  0  0  0  0  0  0
   -0.3898    1.0315    0.7908 H   0  0  0  0  0  0  0  0  0  0  0  0
   -0.0060    1.3101   -0.8938 H   0  0  0  0  0  0  0  0  0  0  0  0
    0.7272   -1.1059   -1.1331 H   0  0  0  0  0  0  0  0  0  0  0  0
    0.2911   -1.4071    0.5513 H   0  0  0  0  0  0  0  0  0  0  0  0
    2.3235   -0.6389    1.1617 H   0  0  0  0  0  0  0  0  0  0  0  0
    4.3421   -0.1712    2.0268 H   0  0  0  0  0  0  0  0  0  0  0  0
    6.8725    0.8090    1.8837 H   0  0  0  0  0  0  0  0  0  0  0  0
  1  2  1  0
  2  3  2  0
  3  4  1  0
  4  5  2  0
  5  6  1  0
  6  7  2  0
  7  8  1  0
  8  9  2  0
  9 10  1  0
 10 11  1  0
 11 12  1  0
 12 13  1  0
 13 14  1  0
 14 15  2  0
 14 16  1  0
 16 17  2  0
 17 18  1  0
 18 19  2  0
 19 20  1  0
 19 21  1  0
 10  2  1  0
 21 16  1  0
  9  4  1  0
  1 22  1  0
  1 23  1  0
  1 24  1  0
  3 25  1  0
  5 26  1  0
  6 27  1  0
  7 28  1  0
  8 29  1  0
 11 30  1  0
 11 31  1  0
 12 32  1  0
 12 33  1  0
 13 34  1  0
 17 35  1  0
 18 36  1  0
M  END
$$$$
