
     RDKit          3D

 60 64  0  0  0  0  0  0  0  0999 V2000
   -3.4676    3.7623    2.6915 C   0  0  0  0  0  0  0  0  0  0  0  0
   -2.8858    3.4730    1.3195 C   0  0  0  0  0  0  0  0  0  0  0  0
   -2.3000    2.1450    1.2406 N   0  0  0  0  0  0  0  0  0  0  0  0
   -1.0022    1.7945    1.5916 C   0  0  0  0  0  0  0  0  0  0  0  0
   -0.1171    2.6238    2.1337 O   0  0  0  0  0  0  0  0  0  0  0  0
   -0.8682    0.4654    1.2773 C   0  0  0  0  0  0  0  0  0  0  0  0
   -2.1003   -0.0162    0.8295 C   0  0  0  0  0  0  0  0  0  0  0  0
   -2.9811    1.0309    0.7771 C   0  0  0  0  0  0  0  0  0  0  0  0
   -4.2463    1.1035    0.3831 O   0  0  0  0  0  0  0  0  0  0  0  0
   -2.0598   -1.4805    0.5696 C   0  0  0  0  0  0  0  0  0  0  0  0
   -2.3904   -1.7811   -0.9210 C   0  0  0  0  0  0  0  0  0  0  0  0
   -1.6895   -2.4117   -1.7056 O   0  0  0  0  0  0  0  0  0  0  0  0
   -3.6311   -1.2838   -1.2504 O   0  0  0  0  0  0  0  0  0  0  0  0
   -3.9940   -1.5080   -2.6140 C   0  0  0  0  0  0  0  0  0  0  0  0
   -3.0190   -2.2623    1.4841 C   0  0  0  0  0  0  0  0  0  0  0  0
   -2.7841   -3.7721    1.4155 C   0  0  0  0  0  0  0  0  0  0  0  0
   -1.3045   -4.1358    1.2952 C   0  0  0  0  0  0  0  0  0  0  0  0
   -0.3912   -2.9816    1.7008 C   0  0  0  0  0  0  0  0  0  0  0  0
   -0.6068   -1.8113    0.8555 N   0  0  0  0  0  0  0  0  0  0  0  0
    0.1404   -0.6119    1.3593 C   0  0  0  0  0  0  0  0  0  0  0  0
    1.3131   -0.2053    0.4872 C   0  0  0  0  0  0  0  0  0  0  0  0
    2.3401    0.5800    1.0360 C   0  0  0  0  0  0  0  0  0  0  0  0
    3.4408    0.9743    0.2664 C   0  0  0  0  0  0  0  0  0  0  0  0
    3.5567    0.5998   -1.0796 C   0  0  0  0  0  0  0  0  0  0  0  0
    4.7136    1.0177   -1.8898 C   0  0  0  0  0  0  0  0  0  0  0  0
    5.1054    2.3661   -1.9497 C   0  0  0  0  0  0  0  0  0  0  0  0
    6.2022    2.7691   -2.7170 C   0  0  0  0  0  0  0  0  0  0  0  0
    6.9294    1.8261   -3.4388 C   0  0  0  0  0  0  0  0  0  0  0  0
    6.5529    0.4865   -3.3925 C   0  0  0  0  0  0  0  0  0  0  0  0
    7.4496   -0.6811   -4.2844 Cl  0  0  0  0  0  0  0  0  0  0  0  0
    5.4578    0.0822   -2.6276 C   0  0  0  0  0  0  0  0  0  0  0  0
    2.5303   -0.1829   -1.6281 C   0  0  0  0  0  0  0  0  0  0  0  0
    1.4275   -0.5775   -0.8600 C   0  0  0  0  0  0  0  0  0  0  0  0
   -3.9067    4.7648    2.7143 H   0  0  0  0  0  0  0  0  0  0  0  0
   -4.2496    3.0402    2.9485 H   0  0  0  0  0  0  0  0  0  0  0  0
   -2.6975    3.7091    3.4679 H   0  0  0  0  0  0  0  0  0  0  0  0
   -2.1095    4.2007    1.0607 H   0  0  0  0  0  0  0  0  0  0  0  0
   -3.6616    3.5540    0.5504 H   0  0  0  0  0  0  0  0  0  0  0  0
   -0.5101    3.5011    2.2549 H   0  0  0  0  0  0  0  0  0  0  0  0
   -4.4591    0.2534   -0.0489 H   0  0  0  0  0  0  0  0  0  0  0  0
   -4.1514   -2.5767   -2.7907 H   0  0  0  0  0  0  0  0  0  0  0  0
   -4.9296   -0.9773   -2.8079 H   0  0  0  0  0  0  0  0  0  0  0  0
   -3.2296   -1.1139   -3.2893 H   0  0  0  0  0  0  0  0  0  0  0  0
   -2.8908   -1.9347    2.5262 H   0  0  0  0  0  0  0  0  0  0  0  0
   -4.0673   -2.0521    1.2387 H   0  0  0  0  0  0  0  0  0  0  0  0
   -3.3252   -4.1963    0.5619 H   0  0  0  0  0  0  0  0  0  0  0  0
   -3.2137   -4.2397    2.3098 H   0  0  0  0  0  0  0  0  0  0  0  0
   -1.0872   -4.4273    0.2598 H   0  0  0  0  0  0  0  0  0  0  0  0
   -1.0907   -5.0178    1.9103 H   0  0  0  0  0  0  0  0  0  0  0  0
   -0.5632   -2.7473    2.7594 H   0  0  0  0  0  0  0  0  0  0  0  0
    0.6516   -3.3072    1.6062 H   0  0  0  0  0  0  0  0  0  0  0  0
    0.4595   -0.7473    2.4007 H   0  0  0  0  0  0  0  0  0  0  0  0
    2.2805    0.9048    2.0727 H   0  0  0  0  0  0  0  0  0  0  0  0
    4.2140    1.5779    0.7351 H   0  0  0  0  0  0  0  0  0  0  0  0
    4.5421    3.1203   -1.4025 H   0  0  0  0  0  0  0  0  0  0  0  0
    6.4826    3.8178   -2.7535 H   0  0  0  0  0  0  0  0  0  0  0  0
    7.7807    2.1389   -4.0362 H   0  0  0  0  0  0  0  0  0  0  0  0
    5.1851   -0.9712   -2.6005 H   0  0  0  0  0  0  0  0  0  0  0  0
    2.5687   -0.4867   -2.6719 H   0  0  0  0  0  0  0  0  0  0  0  0
    0.6574   -1.1846   -1.3311 H   0  0  0  0  0  0  0  0  0  0  0  0
  1  2  1  0
  2  3  1  0
  3  4  1  0
  4  5  1  0
  4  6  2  0
  6  7  1  0
  7  8  2  0
  8  9  1  0
  7 10  1  0
 10 11  1  0
 11 12  2  0
 11 13  1  0
 13 14  1  0
 10 15  1  0
 15 16  1  0
 16 17  1  0
 17 18  1  0
 18 19  1  0
 19 20  1  0
 20 21  1  0
 21 22  2  0
 22 23  1  0
 23 24  2  0
 24 25  1  0
 25 26  2  0
 26 27  1  0
 27 28  2  0
 28 29  1  0
 29 30  1  0
 29 31  2  0
 24 32  1  0
 32 33  2  0
  8  3  1  0
 19 10  1  0
 33 21  1  0
 20  6  1  0
 31 25  1  0
  1 34  1  0
  1 35  1  0
  1 36  1  0
  2 37  1  0
  2 38  1  0
  5 39  1  0
  9 40  1  0
 14 41  1  0
 14 42  1  0
 14 43  1  0
 15 44  1  0
 15 45  1  0
 16 46  1  0
 16 47  1  0
 17 48  1  0
 17 49  1  0
 18 50  1  0
 18 51  1  0
 20 52  1  0
 22 53  1  0
 23 54  1  0
 26 55  1  0
 27 56  1  0
 28 57  1  0
 31 58  1  0
 32 59  1  0
 33 60  1  0
M  END
$$$$
