
     RDKit          3D

 39 41  0  0  0  0  0  0  0  0999 V2000
    1.2474    4.2504   -1.9950 C   0  0  0  0  0  0  0  0  0  0  0  0
   -0.2392    4.0462   -1.7252 C   0  0  0  0  0  0  0  0  0  0  0  0
   -0.8983    2.5998   -2.6349 S   0  0  0  0  0  0  0  0  0  0  0  0
   -0.5357    1.2632   -1.5036 C   0  0  0  0  0  0  0  0  0  0  0  0
   -1.2116    0.0706   -1.6580 C   0  0  0  0  0  0  0  0  0  0  0  0
   -0.8962   -0.9589   -0.7935 C   0  0  0  0  0  0  0  0  0  0  0  0
   -1.5203   -2.1914   -0.8948 N   0  0  0  0  0  0  0  0  0  0  0  0
   -1.1585   -3.2277    0.0709 C   0  0  0  0  0  0  0  0  0  0  0  0
   -2.1864   -4.3192   -0.2135 C   0  0  0  0  0  0  0  0  0  0  0  0
   -3.4483   -3.5168   -0.5005 C   0  0  0  0  0  0  0  0  0  0  0  0
   -2.9394   -2.2851   -1.2517 C   0  0  0  0  0  0  0  0  0  0  0  0
    0.0636   -0.7954    0.1333 N   0  0  0  0  0  0  0  0  0  0  0  0
    0.6418    0.4140    0.2478 C   0  0  0  0  0  0  0  0  0  0  0  0
    1.6764    0.5949    1.2756 C   0  0  0  0  0  0  0  0  0  0  0  0
    2.8946    1.2171    0.9193 C   0  0  0  0  0  0  0  0  0  0  0  0
    3.9225    1.4065    1.8490 C   0  0  0  0  0  0  0  0  0  0  0  0
    3.7560    0.9765    3.1608 C   0  0  0  0  0  0  0  0  0  0  0  0
    2.5563    0.3747    3.5433 C   0  0  0  0  0  0  0  0  0  0  0  0
    1.5233    0.1885    2.6155 C   0  0  0  0  0  0  0  0  0  0  0  0
    0.0490   -0.4945    3.2318 Cl  0  0  0  0  0  0  0  0  0  0  0  0
    0.3848    1.4625   -0.5494 N   0  0  0  0  0  0  0  0  0  0  0  0
    1.4387    4.3928   -3.0617 H   0  0  0  0  0  0  0  0  0  0  0  0
    1.8554    3.4077   -1.6539 H   0  0  0  0  0  0  0  0  0  0  0  0
    1.6093    5.1453   -1.4729 H   0  0  0  0  0  0  0  0  0  0  0  0
   -0.7842    4.9275   -2.0867 H   0  0  0  0  0  0  0  0  0  0  0  0
   -0.4519    3.9629   -0.6515 H   0  0  0  0  0  0  0  0  0  0  0  0
   -1.9419   -0.0572   -2.4457 H   0  0  0  0  0  0  0  0  0  0  0  0
   -1.2746   -2.8693    1.1047 H   0  0  0  0  0  0  0  0  0  0  0  0
   -0.1351   -3.5958   -0.0762 H   0  0  0  0  0  0  0  0  0  0  0  0
   -2.3062   -5.0140    0.6235 H   0  0  0  0  0  0  0  0  0  0  0  0
   -1.8990   -4.8931   -1.1064 H   0  0  0  0  0  0  0  0  0  0  0  0
   -4.1898   -4.0798   -1.0775 H   0  0  0  0  0  0  0  0  0  0  0  0
   -3.9191   -3.2093    0.4437 H   0  0  0  0  0  0  0  0  0  0  0  0
   -3.0417   -2.4241   -2.3374 H   0  0  0  0  0  0  0  0  0  0  0  0
   -3.5167   -1.4015   -0.9481 H   0  0  0  0  0  0  0  0  0  0  0  0
    3.0466    1.5607   -0.1047 H   0  0  0  0  0  0  0  0  0  0  0  0
    4.8514    1.8873    1.5439 H   0  0  0  0  0  0  0  0  0  0  0  0
    4.5542    1.1211    3.8883 H   0  0  0  0  0  0  0  0  0  0  0  0
    2.4229    0.0631    4.5760 H   0  0  0  0  0  0  0  0  0  0  0  0
  1  2  1  0
  2  3  1  0
  3  4  1  0
  4  5  2  0
  5  6  1  0
  6  7  1  0
  7  8  1  0
  8  9  1  0
  9 10  1  0
 10 11  1  0
  6 12  2  0
 12 13  1  0
 13 14  1  0
 14 15  2  0
 15 16  1  0
 16 17  2  0
 17 18  1  0
 18 19  2  0
 19 20  1  0
 13 21  2  0
 21  4  1  0
 11  7  1  0
 19 14  1  0
  1 22  1  0
  1 23  1  0
  1 24  1  0
  2 25  1  0
  2 26  1  0
  5 27  1  0
  8 28  1  0
  8 29  1  0
  9 30  1  0
  9 31  1  0
 10 32  1  0
 10 33  1  0
 11 34  1  0
 11 35  1  0
 15 36  1  0
 16 37  1  0
 17 38  1  0
 18 39  1  0
M  END
$$$$
