
     RDKit          3D

 49 52  0  0  0  0  0  0  0  0999 V2000
    7.3160    0.0482   -2.3862 C   0  0  0  0  0  0  0  0  0  0  0  0
    7.1228    0.0058   -0.8776 C   0  0  0  0  0  0  0  0  0  0  0  0
    5.6704   -0.1287   -0.5006 C   0  0  0  0  0  0  0  0  0  0  0  0
    4.8625    1.0042   -0.3526 C   0  0  0  0  0  0  0  0  0  0  0  0
    3.5079    0.8808   -0.0131 C   0  0  0  0  0  0  0  0  0  0  0  0
    2.9234   -0.3779    0.1798 C   0  0  0  0  0  0  0  0  0  0  0  0
    1.5067   -0.5822    0.5399 C   0  0  0  0  0  0  0  0  0  0  0  0
    0.5934    0.6231    0.6788 C   0  0  0  0  0  0  0  0  0  0  0  0
   -0.8457    0.3223    0.7657 N   0  0  0  0  0  0  0  0  0  0  0  0
   -1.4133    0.0390   -0.5672 C   0  0  0  0  0  0  0  0  0  0  0  0
   -2.9153   -0.0373   -0.5804 C   0  0  0  0  0  0  0  0  0  0  0  0
   -3.6891    0.4137    0.4245 C   0  0  0  0  0  0  0  0  0  0  0  0
   -5.1614    0.3046    0.3822 C   0  0  0  0  0  0  0  0  0  0  0  0
   -5.8774    0.6418   -0.7767 C   0  0  0  0  0  0  0  0  0  0  0  0
   -7.2716    0.5500   -0.8100 C   0  0  0  0  0  0  0  0  0  0  0  0
   -7.9697    0.1223    0.3164 C   0  0  0  0  0  0  0  0  0  0  0  0
   -7.2748   -0.2099    1.4766 C   0  0  0  0  0  0  0  0  0  0  0  0
   -5.8805   -0.1160    1.5099 C   0  0  0  0  0  0  0  0  0  0  0  0
   -3.0493    1.0397    1.6398 C   0  0  0  0  0  0  0  0  0  0  0  0
   -1.5818    1.4316    1.3932 C   0  0  0  0  0  0  0  0  0  0  0  0
    1.0969   -1.8447    0.7496 C   0  0  0  0  0  0  0  0  0  0  0  0
    1.9566   -3.0266    0.6071 C   0  0  0  0  0  0  0  0  0  0  0  0
    1.5195   -4.1530    0.8146 O   0  0  0  0  0  0  0  0  0  0  0  0
    3.2644   -2.8024    0.2211 O   0  0  0  0  0  0  0  0  0  0  0  0
    3.7479   -1.4946    0.0281 C   0  0  0  0  0  0  0  0  0  0  0  0
    5.0988   -1.3888   -0.3115 C   0  0  0  0  0  0  0  0  0  0  0  0
    6.9367   -0.8638   -2.8603 H   0  0  0  0  0  0  0  0  0  0  0  0
    6.7938    0.9022   -2.8310 H   0  0  0  0  0  0  0  0  0  0  0  0
    8.3797    0.1382   -2.6278 H   0  0  0  0  0  0  0  0  0  0  0  0
    7.6929   -0.8315   -0.4559 H   0  0  0  0  0  0  0  0  0  0  0  0
    7.5378    0.9135   -0.4227 H   0  0  0  0  0  0  0  0  0  0  0  0
    5.2834    1.9973   -0.4977 H   0  0  0  0  0  0  0  0  0  0  0  0
    2.9355    1.7973    0.0997 H   0  0  0  0  0  0  0  0  0  0  0  0
    0.9101    1.1316    1.6002 H   0  0  0  0  0  0  0  0  0  0  0  0
    0.7604    1.3311   -0.1430 H   0  0  0  0  0  0  0  0  0  0  0  0
   -1.1157    0.8045   -1.2964 H   0  0  0  0  0  0  0  0  0  0  0  0
   -1.0297   -0.9214   -0.9293 H   0  0  0  0  0  0  0  0  0  0  0  0
   -3.3565   -0.4982   -1.4600 H   0  0  0  0  0  0  0  0  0  0  0  0
   -5.3559    0.9922   -1.6642 H   0  0  0  0  0  0  0  0  0  0  0  0
   -7.8104    0.8146   -1.7161 H   0  0  0  0  0  0  0  0  0  0  0  0
   -9.0534    0.0474    0.2904 H   0  0  0  0  0  0  0  0  0  0  0  0
   -7.8164   -0.5479    2.3567 H   0  0  0  0  0  0  0  0  0  0  0  0
   -5.3625   -0.3957    2.4240 H   0  0  0  0  0  0  0  0  0  0  0  0
   -3.6003    1.9398    1.9388 H   0  0  0  0  0  0  0  0  0  0  0  0
   -3.0929    0.3309    2.4766 H   0  0  0  0  0  0  0  0  0  0  0  0
   -1.5301    2.3356    0.7711 H   0  0  0  0  0  0  0  0  0  0  0  0
   -1.1384    1.6825    2.3648 H   0  0  0  0  0  0  0  0  0  0  0  0
    0.0786   -2.0740    1.0457 H   0  0  0  0  0  0  0  0  0  0  0  0
    5.6960   -2.2910   -0.4206 H   0  0  0  0  0  0  0  0  0  0  0  0
  1  2  1  0
  2  3  1  0
  3  4  2  0
  4  5  1  0
  5  6  2  0
  6  7  1  0
  7  8  1  0
  8  9  1  0
  9 10  1  0
 10 11  1  0
 11 12  2  0
 12 13  1  0
 13 14  2  0
 14 15  1  0
 15 16  2  0
 16 17  1  0
 17 18  2  0
 12 19  1  0
 19 20  1  0
  7 21  2  0
 21 22  1  0
 22 23  2  0
 22 24  1  0
 24 25  1  0
 25 26  2  0
 26  3  1  0
 25  6  1  0
 20  9  1  0
 18 13  1  0
  1 27  1  0
  1 28  1  0
  1 29  1  0
  2 30  1  0
  2 31  1  0
  4 32  1  0
  5 33  1  0
  8 34  1  0
  8 35  1  0
 10 36  1  0
 10 37  1  0
 11 38  1  0
 14 39  1  0
 15 40  1  0
 16 41  1  0
 17 42  1  0
 18 43  1  0
 19 44  1  0
 19 45  1  0
 20 46  1  0
 20 47  1  0
 21 48  1  0
 26 49  1  0
M  END
$$$$
