
     RDKit          3D

 56 59  0  0  0  0  0  0  0  0999 V2000
    7.6751    1.1236   -1.7981 C   0  0  0  0  0  0  0  0  0  0  0  0
    7.7537    0.8415   -0.4049 O   0  0  0  0  0  0  0  0  0  0  0  0
    6.5204    0.6377    0.1793 C   0  0  0  0  0  0  0  0  0  0  0  0
    6.5241    0.3470    1.5309 C   0  0  0  0  0  0  0  0  0  0  0  0
    5.3014    0.1343    2.1619 C   0  0  0  0  0  0  0  0  0  0  0  0
    4.1084    0.2160    1.4304 C   0  0  0  0  0  0  0  0  0  0  0  0
    2.8317   -0.0254    2.1641 C   0  0  0  0  0  0  0  0  0  0  0  0
    2.8537   -0.2325    3.3744 O   0  0  0  0  0  0  0  0  0  0  0  0
    1.6600   -0.0067    1.4472 N   0  0  0  0  0  0  0  0  0  0  0  0
    0.3662   -0.1344    2.0825 C   0  0  0  0  0  0  0  0  0  0  0  0
   -0.0614    1.2002    2.7396 C   0  0  0  0  0  0  0  0  0  0  0  0
   -1.5798    1.2720    2.9822 C   0  0  0  0  0  0  0  0  0  0  0  0
   -2.3711    1.1777    1.6625 C   0  0  0  0  0  0  0  0  0  0  0  0
   -1.8489    0.0449    0.8447 C   0  0  0  0  0  0  0  0  0  0  0  0
   -0.6213   -0.5580    1.0476 C   0  0  0  0  0  0  0  0  0  0  0  0
   -0.6141   -1.6427    0.1640 C   0  0  0  0  0  0  0  0  0  0  0  0
   -1.7305   -1.7179   -0.5576 N   0  0  0  0  0  0  0  0  0  0  0  0
   -2.4954   -0.6622   -0.1606 N   0  0  0  0  0  0  0  0  0  0  0  0
   -3.7418   -0.3860   -0.8082 C   0  0  0  0  0  0  0  0  0  0  0  0
   -4.1307    0.9556   -0.9629 C   0  0  0  0  0  0  0  0  0  0  0  0
   -5.3035    1.2871   -1.6359 C   0  0  0  0  0  0  0  0  0  0  0  0
   -6.0947    0.2856   -2.1833 C   0  0  0  0  0  0  0  0  0  0  0  0
   -5.7314   -1.0643   -2.0615 C   0  0  0  0  0  0  0  0  0  0  0  0
   -6.6321   -2.0971   -2.6892 C   0  0  0  0  0  0  0  0  0  0  0  0
   -4.5613   -1.4202   -1.3394 C   0  0  0  0  0  0  0  0  0  0  0  0
   -4.2309   -2.8826   -1.1431 C   0  0  0  0  0  0  0  0  0  0  0  0
    4.2158    0.5164    0.0705 C   0  0  0  0  0  0  0  0  0  0  0  0
    3.0597    0.6200   -0.6816 O   0  0  0  0  0  0  0  0  0  0  0  0
    3.2916    0.8701   -2.0659 C   0  0  0  0  0  0  0  0  0  0  0  0
    5.3978    0.7286   -0.5626 N   0  0  0  0  0  0  0  0  0  0  0  0
    7.1217    2.0505   -1.9848 H   0  0  0  0  0  0  0  0  0  0  0  0
    8.6953    1.2652   -2.1677 H   0  0  0  0  0  0  0  0  0  0  0  0
    7.2349    0.2849   -2.3486 H   0  0  0  0  0  0  0  0  0  0  0  0
    7.4560    0.2863    2.0821 H   0  0  0  0  0  0  0  0  0  0  0  0
    5.2828   -0.0968    3.2253 H   0  0  0  0  0  0  0  0  0  0  0  0
    1.6885    0.2771    0.4728 H   0  0  0  0  0  0  0  0  0  0  0  0
    0.4248   -0.9100    2.8566 H   0  0  0  0  0  0  0  0  0  0  0  0
    0.2305    2.0455    2.1010 H   0  0  0  0  0  0  0  0  0  0  0  0
    0.4738    1.3327    3.6875 H   0  0  0  0  0  0  0  0  0  0  0  0
   -1.8312    2.2101    3.4899 H   0  0  0  0  0  0  0  0  0  0  0  0
   -1.8760    0.4542    3.6519 H   0  0  0  0  0  0  0  0  0  0  0  0
   -3.4349    1.0518    1.8891 H   0  0  0  0  0  0  0  0  0  0  0  0
   -2.2392    2.1175    1.1152 H   0  0  0  0  0  0  0  0  0  0  0  0
    0.1535   -2.3934    0.0232 H   0  0  0  0  0  0  0  0  0  0  0  0
   -3.5053    1.7744   -0.6251 H   0  0  0  0  0  0  0  0  0  0  0  0
   -5.5860    2.3295   -1.7579 H   0  0  0  0  0  0  0  0  0  0  0  0
   -6.9991    0.5651   -2.7201 H   0  0  0  0  0  0  0  0  0  0  0  0
   -7.1886   -2.6342   -1.9149 H   0  0  0  0  0  0  0  0  0  0  0  0
   -6.0490   -2.8054   -3.2866 H   0  0  0  0  0  0  0  0  0  0  0  0
   -7.3595   -1.6364   -3.3666 H   0  0  0  0  0  0  0  0  0  0  0  0
   -3.5090   -3.2141   -1.8954 H   0  0  0  0  0  0  0  0  0  0  0  0
   -3.8446   -3.0690   -0.1358 H   0  0  0  0  0  0  0  0  0  0  0  0
   -5.1162   -3.5205   -1.2205 H   0  0  0  0  0  0  0  0  0  0  0  0
    2.3176    0.9091   -2.5630 H   0  0  0  0  0  0  0  0  0  0  0  0
    3.8674    0.0591   -2.5251 H   0  0  0  0  0  0  0  0  0  0  0  0
    3.7811    1.8383   -2.2167 H   0  0  0  0  0  0  0  0  0  0  0  0
  1  2  1  0
  2  3  1  0
  3  4  2  0
  4  5  1  0
  5  6  2  0
  6  7  1  0
  7  8  2  0
  7  9  1  0
  9 10  1  0
 10 11  1  0
 11 12  1  0
 12 13  1  0
 13 14  1  0
 14 15  2  0
 15 16  1  0
 16 17  2  0
 17 18  1  0
 18 19  1  0
 19 20  2  0
 20 21  1  0
 21 22  2  0
 22 23  1  0
 23 24  1  0
 23 25  2  0
 25 26  1  0
  6 27  1  0
 27 28  1  0
 28 29  1  0
 27 30  2  0
 30  3  1  0
 15 10  1  0
 25 19  1  0
 18 14  1  0
  1 31  1  0
  1 32  1  0
  1 33  1  0
  4 34  1  0
  5 35  1  0
  9 36  1  0
 10 37  1  0
 11 38  1  0
 11 39  1  0
 12 40  1  0
 12 41  1  0
 13 42  1  0
 13 43  1  0
 16 44  1  0
 20 45  1  0
 21 46  1  0
 22 47  1  0
 24 48  1  0
 24 49  1  0
 24 50  1  0
 26 51  1  0
 26 52  1  0
 26 53  1  0
 29 54  1  0
 29 55  1  0
 29 56  1  0
M  END
$$$$
