
     RDKit          3D

 50 53  0  0  0  0  0  0  0  0999 V2000
    7.4982    0.3526   -2.3826 C   0  0  0  0  0  0  0  0  0  0  0  0
    6.3269    0.3602   -1.4513 C   0  0  0  0  0  0  0  0  0  0  0  0
    5.0249    0.3668   -1.9487 C   0  0  0  0  0  0  0  0  0  0  0  0
    3.9275    0.3739   -1.1543 N   0  0  0  0  0  0  0  0  0  0  0  0
    4.1933    0.3783    0.1841 C   0  0  0  0  0  0  0  0  0  0  0  0
    3.0255    0.3857    1.1082 C   0  0  0  0  0  0  0  0  0  0  0  0
    3.1707    0.3431    2.3237 O   0  0  0  0  0  0  0  0  0  0  0  0
    1.8018    0.4326    0.4780 N   0  0  0  0  0  0  0  0  0  0  0  0
    0.5553    0.3038    1.1974 C   0  0  0  0  0  0  0  0  0  0  0  0
    0.2704   -1.1780    1.5388 C   0  0  0  0  0  0  0  0  0  0  0  0
   -1.2182   -1.4667    1.8932 C   0  0  0  0  0  0  0  0  0  0  0  0
   -1.6271   -0.7110    3.1742 C   0  0  0  0  0  0  0  0  0  0  0  0
   -1.3806   -2.9753    2.1602 C   0  0  0  0  0  0  0  0  0  0  0  0
   -2.1482   -1.0663    0.7039 C   0  0  0  0  0  0  0  0  0  0  0  0
   -1.7498    0.2488    0.1189 C   0  0  0  0  0  0  0  0  0  0  0  0
   -0.5350    0.8690    0.3545 C   0  0  0  0  0  0  0  0  0  0  0  0
   -0.6439    2.1125   -0.2755 C   0  0  0  0  0  0  0  0  0  0  0  0
   -1.8125    2.2681   -0.8913 N   0  0  0  0  0  0  0  0  0  0  0  0
   -2.4873    1.0946   -0.7018 N   0  0  0  0  0  0  0  0  0  0  0  0
   -3.7602    0.9228   -1.3314 C   0  0  0  0  0  0  0  0  0  0  0  0
   -4.4097   -0.3144   -1.4058 C   0  0  0  0  0  0  0  0  0  0  0  0
   -5.6559   -0.4248   -2.0352 C   0  0  0  0  0  0  0  0  0  0  0  0
   -6.2617    0.6934   -2.6024 C   0  0  0  0  0  0  0  0  0  0  0  0
   -5.6200    1.9263   -2.5508 C   0  0  0  0  0  0  0  0  0  0  0  0
   -4.3761    2.0405   -1.9246 C   0  0  0  0  0  0  0  0  0  0  0  0
    5.4826    0.3700    0.6900 C   0  0  0  0  0  0  0  0  0  0  0  0
    6.5749    0.3604   -0.1170 N   0  0  0  0  0  0  0  0  0  0  0  0
    7.4729   -0.5400   -3.0153 H   0  0  0  0  0  0  0  0  0  0  0  0
    7.4829    1.2440   -3.0173 H   0  0  0  0  0  0  0  0  0  0  0  0
    8.4397    0.3480   -1.8241 H   0  0  0  0  0  0  0  0  0  0  0  0
    4.8283    0.3668   -3.0164 H   0  0  0  0  0  0  0  0  0  0  0  0
    1.8120    0.3521   -0.5360 H   0  0  0  0  0  0  0  0  0  0  0  0
    0.6294    0.8812    2.1272 H   0  0  0  0  0  0  0  0  0  0  0  0
    0.9267   -1.4928    2.3608 H   0  0  0  0  0  0  0  0  0  0  0  0
    0.5494   -1.8052    0.6789 H   0  0  0  0  0  0  0  0  0  0  0  0
   -1.5924    0.3754    3.0475 H   0  0  0  0  0  0  0  0  0  0  0  0
   -0.9647   -0.9684    4.0084 H   0  0  0  0  0  0  0  0  0  0  0  0
   -2.6497   -0.9697    3.4720 H   0  0  0  0  0  0  0  0  0  0  0  0
   -2.4210   -3.2249    2.3967 H   0  0  0  0  0  0  0  0  0  0  0  0
   -1.0867   -3.5673    1.2862 H   0  0  0  0  0  0  0  0  0  0  0  0
   -0.7588   -3.2970    3.0032 H   0  0  0  0  0  0  0  0  0  0  0  0
   -3.1859   -1.0406    1.0547 H   0  0  0  0  0  0  0  0  0  0  0  0
   -2.0670   -1.8265   -0.0831 H   0  0  0  0  0  0  0  0  0  0  0  0
    0.0759    2.9212   -0.3021 H   0  0  0  0  0  0  0  0  0  0  0  0
   -3.9752   -1.2275   -1.0233 H   0  0  0  0  0  0  0  0  0  0  0  0
   -6.1502   -1.3918   -2.0904 H   0  0  0  0  0  0  0  0  0  0  0  0
   -7.2282    0.6023   -3.0910 H   0  0  0  0  0  0  0  0  0  0  0  0
   -6.0828    2.8027   -2.9973 H   0  0  0  0  0  0  0  0  0  0  0  0
   -3.9001    3.0198   -1.8988 H   0  0  0  0  0  0  0  0  0  0  0  0
    5.6798    0.3713    1.7567 H   0  0  0  0  0  0  0  0  0  0  0  0
  1  2  1  0
  2  3  2  0
  3  4  1  0
  4  5  2  0
  5  6  1  0
  6  7  2  0
  6  8  1  0
  8  9  1  0
  9 10  1  0
 10 11  1  0
 11 12  1  0
 11 13  1  0
 11 14  1  0
 14 15  1  0
 15 16  2  0
 16 17  1  0
 17 18  2  0
 18 19  1  0
 19 20  1  0
 20 21  2  0
 21 22  1  0
 22 23  2  0
 23 24  1  0
 24 25  2  0
  5 26  1  0
 26 27  2  0
 27  2  1  0
 16  9  1  0
 25 20  1  0
 19 15  1  0
  1 28  1  0
  1 29  1  0
  1 30  1  0
  3 31  1  0
  8 32  1  0
  9 33  1  0
 10 34  1  0
 10 35  1  0
 12 36  1  0
 12 37  1  0
 12 38  1  0
 13 39  1  0
 13 40  1  0
 13 41  1  0
 14 42  1  0
 14 43  1  0
 17 44  1  0
 21 45  1  0
 22 46  1  0
 23 47  1  0
 24 48  1  0
 25 49  1  0
 26 50  1  0
M  END
$$$$
