
     RDKit          3D

 45 48  0  0  0  0  0  0  0  0999 V2000
   -5.2040   -0.2982   -0.1248 C   0  0  0  0  0  0  0  0  0  0  0  0
   -3.8149   -0.1836    0.1533 O   0  0  0  0  0  0  0  0  0  0  0  0
   -3.1103   -1.3346    0.4106 C   0  0  0  0  0  0  0  0  0  0  0  0
   -3.6969   -2.6095    0.4382 C   0  0  0  0  0  0  0  0  0  0  0  0
   -2.9226   -3.7484    0.6674 C   0  0  0  0  0  0  0  0  0  0  0  0
   -1.5542   -3.6294    0.8677 C   0  0  0  0  0  0  0  0  0  0  0  0
   -0.9613   -2.3672    0.8466 C   0  0  0  0  0  0  0  0  0  0  0  0
   -1.7193   -1.1944    0.6293 C   0  0  0  0  0  0  0  0  0  0  0  0
   -1.0336    0.1106    0.6324 C   0  0  0  0  0  0  0  0  0  0  0  0
   -1.6388    1.1499    1.2476 N   0  0  0  0  0  0  0  0  0  0  0  0
   -0.9663    2.3257    1.2537 C   0  0  0  0  0  0  0  0  0  0  0  0
   -1.6395    3.4773    1.9146 C   0  0  0  0  0  0  0  0  0  0  0  0
   -2.8866    3.2180    2.4156 N   0  0  0  0  0  0  0  0  0  0  0  0
   -1.1196    4.5826    2.0028 O   0  0  0  0  0  0  0  0  0  0  0  0
    0.2663    2.4550    0.6890 C   0  0  0  0  0  0  0  0  0  0  0  0
    1.1466    3.5197    0.5879 N   0  0  0  0  0  0  0  0  0  0  0  0
    2.2979    3.0859   -0.0831 C   0  0  0  0  0  0  0  0  0  0  0  0
    3.2461    3.8174   -0.3166 O   0  0  0  0  0  0  0  0  0  0  0  0
    2.0885    1.7083   -0.4014 N   0  0  0  0  0  0  0  0  0  0  0  0
    2.9882    0.8400   -1.0790 C   0  0  0  0  0  0  0  0  0  0  0  0
    4.3073    1.2457   -1.3382 C   0  0  0  0  0  0  0  0  0  0  0  0
    5.2202    0.4118   -1.9944 C   0  0  0  0  0  0  0  0  0  0  0  0
    4.8337   -0.8535   -2.4185 C   0  0  0  0  0  0  0  0  0  0  0  0
    3.5267   -1.2861   -2.2007 C   0  0  0  0  0  0  0  0  0  0  0  0
    3.0957   -2.6575   -2.6319 C   0  0  0  0  0  0  0  0  0  0  0  0
    2.6239   -0.4420   -1.5259 C   0  0  0  0  0  0  0  0  0  0  0  0
    0.8110    1.3419    0.0961 C   0  0  0  0  0  0  0  0  0  0  0  0
    0.1939    0.1564    0.0652 N   0  0  0  0  0  0  0  0  0  0  0  0
   -5.3799   -0.9012   -1.0215 H   0  0  0  0  0  0  0  0  0  0  0  0
   -5.5885    0.7074   -0.3208 H   0  0  0  0  0  0  0  0  0  0  0  0
   -5.7469   -0.6984    0.7376 H   0  0  0  0  0  0  0  0  0  0  0  0
   -4.7606   -2.7537    0.2786 H   0  0  0  0  0  0  0  0  0  0  0  0
   -3.3911   -4.7295    0.6838 H   0  0  0  0  0  0  0  0  0  0  0  0
   -0.9466   -4.5138    1.0418 H   0  0  0  0  0  0  0  0  0  0  0  0
    0.1139   -2.2944    1.0096 H   0  0  0  0  0  0  0  0  0  0  0  0
   -3.4129    3.9563    2.8598 H   0  0  0  0  0  0  0  0  0  0  0  0
   -3.2963    2.2963    2.2983 H   0  0  0  0  0  0  0  0  0  0  0  0
    0.9923    4.4548    0.9462 H   0  0  0  0  0  0  0  0  0  0  0  0
    4.6774    2.2168   -1.0225 H   0  0  0  0  0  0  0  0  0  0  0  0
    6.2362    0.7578   -2.1678 H   0  0  0  0  0  0  0  0  0  0  0  0
    5.5542   -1.4936   -2.9217 H   0  0  0  0  0  0  0  0  0  0  0  0
    3.7015   -3.0146   -3.4715 H   0  0  0  0  0  0  0  0  0  0  0  0
    2.0525   -2.6503   -2.9648 H   0  0  0  0  0  0  0  0  0  0  0  0
    3.1991   -3.3605   -1.7997 H   0  0  0  0  0  0  0  0  0  0  0  0
    1.6176   -0.8214   -1.3886 H   0  0  0  0  0  0  0  0  0  0  0  0
  1  2  1  0
  2  3  1  0
  3  4  2  0
  4  5  1  0
  5  6  2  0
  6  7  1  0
  7  8  2  0
  8  9  1  0
  9 10  2  0
 10 11  1  0
 11 12  1  0
 12 13  1  0
 12 14  2  0
 11 15  2  0
 15 16  1  0
 16 17  1  0
 17 18  2  0
 17 19  1  0
 19 20  1  0
 20 21  2  0
 21 22  1  0
 22 23  2  0
 23 24  1  0
 24 25  1  0
 24 26  2  0
 19 27  1  0
 27 28  2  0
  8  3  1  0
 28  9  1  0
 27 15  1  0
 26 20  1  0
  1 29  1  0
  1 30  1  0
  1 31  1  0
  4 32  1  0
  5 33  1  0
  6 34  1  0
  7 35  1  0
 13 36  1  0
 13 37  1  0
 16 38  1  0
 21 39  1  0
 22 40  1  0
 23 41  1  0
 25 42  1  0
 25 43  1  0
 25 44  1  0
 26 45  1  0
M  END
$$$$
