
     RDKit          3D

 43 45  0  0  0  0  0  0  0  0999 V2000
   -0.2996   -4.0293   -0.8468 C   0  0  0  0  0  0  0  0  0  0  0  0
   -0.3833   -3.2798    0.4572 C   0  0  0  0  0  0  0  0  0  0  0  0
   -1.1659   -3.6117    1.3470 O   0  0  0  0  0  0  0  0  0  0  0  0
    0.5150   -2.1137    0.6269 C   0  0  0  0  0  0  0  0  0  0  0  0
    0.1209   -0.8930    0.1939 C   0  0  0  0  0  0  0  0  0  0  0  0
   -1.1195   -0.5477   -0.3463 N   0  0  0  0  0  0  0  0  0  0  0  0
   -1.2265   -0.1620   -1.7732 C   0  0  0  0  0  0  0  0  0  0  0  0
   -2.3782    0.8442   -1.9891 C   0  0  0  0  0  0  0  0  0  0  0  0
   -3.6723    0.3400   -1.4872 N   0  0  0  0  0  0  0  0  0  0  0  0
   -4.7251    1.3364   -1.6717 C   0  0  0  0  0  0  0  0  0  0  0  0
   -3.5384   -0.0190   -0.0581 C   0  0  0  0  0  0  0  0  0  0  0  0
   -2.4090   -1.0444    0.1932 C   0  0  0  0  0  0  0  0  0  0  0  0
    1.0321    0.1328    0.2960 N   0  0  0  0  0  0  0  0  0  0  0  0
    2.2327    0.0053    0.9401 C   0  0  0  0  0  0  0  0  0  0  0  0
    3.0818    1.2164    1.1677 C   0  0  0  0  0  0  0  0  0  0  0  0
    4.0216    1.2135    2.2060 C   0  0  0  0  0  0  0  0  0  0  0  0
    4.8168    2.3374    2.4372 C   0  0  0  0  0  0  0  0  0  0  0  0
    4.6820    3.4653    1.6293 C   0  0  0  0  0  0  0  0  0  0  0  0
    3.7565    3.4706    0.5863 C   0  0  0  0  0  0  0  0  0  0  0  0
    2.9573    2.3486    0.3519 C   0  0  0  0  0  0  0  0  0  0  0  0
    2.6642   -1.1398    1.3739 N   0  0  0  0  0  0  0  0  0  0  0  0
    1.9085   -2.2815    1.1747 C   0  0  0  0  0  0  0  0  0  0  0  0
    2.5826   -3.7915    1.5511 S   0  0  0  0  0  0  0  0  0  0  0  0
   -1.2622   -3.9657   -1.3612 H   0  0  0  0  0  0  0  0  0  0  0  0
    0.4704   -3.6052   -1.4978 H   0  0  0  0  0  0  0  0  0  0  0  0
   -0.0491   -5.0746   -0.6475 H   0  0  0  0  0  0  0  0  0  0  0  0
   -1.3936   -1.0629   -2.3770 H   0  0  0  0  0  0  0  0  0  0  0  0
   -0.2929    0.2959   -2.1219 H   0  0  0  0  0  0  0  0  0  0  0  0
   -2.1201    1.7889   -1.4916 H   0  0  0  0  0  0  0  0  0  0  0  0
   -2.4566    1.0493   -3.0633 H   0  0  0  0  0  0  0  0  0  0  0  0
   -5.6882    0.9452   -1.3255 H   0  0  0  0  0  0  0  0  0  0  0  0
   -4.8452    1.5744   -2.7343 H   0  0  0  0  0  0  0  0  0  0  0  0
   -4.5172    2.2668   -1.1310 H   0  0  0  0  0  0  0  0  0  0  0  0
   -4.4798   -0.4525    0.3000 H   0  0  0  0  0  0  0  0  0  0  0  0
   -3.3404    0.8799    0.5411 H   0  0  0  0  0  0  0  0  0  0  0  0
   -2.3297   -1.2049    1.2746 H   0  0  0  0  0  0  0  0  0  0  0  0
   -2.6731   -1.9951   -0.2845 H   0  0  0  0  0  0  0  0  0  0  0  0
    0.6042    1.0443    0.1998 H   0  0  0  0  0  0  0  0  0  0  0  0
    4.1374    0.3378    2.8413 H   0  0  0  0  0  0  0  0  0  0  0  0
    5.5436    2.3288    3.2459 H   0  0  0  0  0  0  0  0  0  0  0  0
    5.3055    4.3380    1.8087 H   0  0  0  0  0  0  0  0  0  0  0  0
    3.6654    4.3470   -0.0507 H   0  0  0  0  0  0  0  0  0  0  0  0
    2.2674    2.3675   -0.4855 H   0  0  0  0  0  0  0  0  0  0  0  0
  1  2  1  0
  2  3  2  0
  2  4  1  0
  4  5  2  0
  5  6  1  0
  6  7  1  0
  7  8  1  0
  8  9  1  0
  9 10  1  0
  9 11  1  0
 11 12  1  0
  5 13  1  0
 13 14  1  0
 14 15  1  0
 15 16  2  0
 16 17  1  0
 17 18  2  0
 18 19  1  0
 19 20  2  0
 14 21  2  0
 21 22  1  0
 22 23  2  0
 22  4  1  0
 12  6  1  0
 20 15  1  0
  1 24  1  0
  1 25  1  0
  1 26  1  0
  7 27  1  0
  7 28  1  0
  8 29  1  0
  8 30  1  0
 10 31  1  0
 10 32  1  0
 10 33  1  0
 11 34  1  0
 11 35  1  0
 12 36  1  0
 12 37  1  0
 13 38  1  0
 16 39  1  0
 17 40  1  0
 18 41  1  0
 19 42  1  0
 20 43  1  0
M  END
$$$$
