
     RDKit          3D

 41 43  0  0  0  0  0  0  0  0999 V2000
   -3.2534   -1.0707   -1.0106 O   0  0  0  0  0  0  0  0  0  0  0  0
   -3.4571   -0.2233   -0.1500 C   0  0  0  0  0  0  0  0  0  0  0  0
   -2.5603    0.7272    0.3056 N   0  0  0  0  0  0  0  0  0  0  0  0
   -1.2084    0.8785   -0.0707 C   0  0  0  0  0  0  0  0  0  0  0  0
   -0.5161    1.9704    0.4627 C   0  0  0  0  0  0  0  0  0  0  0  0
    0.8198    2.1934    0.1282 C   0  0  0  0  0  0  0  0  0  0  0  0
    1.4834    1.3169   -0.7310 C   0  0  0  0  0  0  0  0  0  0  0  0
    0.8198    0.2019   -1.2455 C   0  0  0  0  0  0  0  0  0  0  0  0
    1.4102   -0.7263   -2.1294 N   0  0  0  0  0  0  0  0  0  0  0  0
    2.7241   -0.9832   -2.4374 C   0  0  0  0  0  0  0  0  0  0  0  0
    3.0227   -1.8399   -3.8403 S   0  0  0  0  0  0  0  0  0  0  0  0
    3.6539   -0.5740   -1.5062 N   0  0  0  0  0  0  0  0  0  0  0  0
    5.0449   -0.6662   -1.5362 C   0  0  0  0  0  0  0  0  0  0  0  0
    5.7032   -0.6376   -2.5718 O   0  0  0  0  0  0  0  0  0  0  0  0
    5.6872   -0.6757   -0.2222 C   0  0  0  0  0  0  0  0  0  0  0  0
    7.0477   -0.7042    0.0297 C   0  0  0  0  0  0  0  0  0  0  0  0
    7.3509   -0.7085    1.4215 C   0  0  0  0  0  0  0  0  0  0  0  0
    6.2126   -0.6839    2.1942 C   0  0  0  0  0  0  0  0  0  0  0  0
    4.7930   -0.6554    1.2429 S   0  0  0  0  0  0  0  0  0  0  0  0
   -0.5324    0.0045   -0.9275 C   0  0  0  0  0  0  0  0  0  0  0  0
   -4.8125   -0.1502    0.4653 C   0  0  0  0  0  0  0  0  0  0  0  0
   -4.9920    0.1723    1.8174 C   0  0  0  0  0  0  0  0  0  0  0  0
   -6.2801    0.2294    2.3543 C   0  0  0  0  0  0  0  0  0  0  0  0
   -7.3864   -0.0425    1.5488 C   0  0  0  0  0  0  0  0  0  0  0  0
   -7.2100   -0.3821    0.2076 C   0  0  0  0  0  0  0  0  0  0  0  0
   -5.9250   -0.4417   -0.3334 C   0  0  0  0  0  0  0  0  0  0  0  0
   -2.9266    1.4406    0.9225 H   0  0  0  0  0  0  0  0  0  0  0  0
   -1.0089    2.6729    1.1299 H   0  0  0  0  0  0  0  0  0  0  0  0
    1.3395    3.0642    0.5211 H   0  0  0  0  0  0  0  0  0  0  0  0
    2.4983    1.5673   -1.0233 H   0  0  0  0  0  0  0  0  0  0  0  0
    0.7587   -1.2659   -2.6953 H   0  0  0  0  0  0  0  0  0  0  0  0
    3.2691   -0.5144   -0.5740 H   0  0  0  0  0  0  0  0  0  0  0  0
    7.7903   -0.7226   -0.7612 H   0  0  0  0  0  0  0  0  0  0  0  0
    8.3532   -0.7305    1.8325 H   0  0  0  0  0  0  0  0  0  0  0  0
    6.1464   -0.6829    3.2740 H   0  0  0  0  0  0  0  0  0  0  0  0
   -1.0426   -0.8575   -1.3457 H   0  0  0  0  0  0  0  0  0  0  0  0
   -4.1425    0.3493    2.4709 H   0  0  0  0  0  0  0  0  0  0  0  0
   -6.4229    0.4734    3.4044 H   0  0  0  0  0  0  0  0  0  0  0  0
   -8.3885   -0.0021    1.9699 H   0  0  0  0  0  0  0  0  0  0  0  0
   -8.0720   -0.6062   -0.4161 H   0  0  0  0  0  0  0  0  0  0  0  0
   -5.7913   -0.7148   -1.3785 H   0  0  0  0  0  0  0  0  0  0  0  0
  1  2  2  0
  2  3  1  0
  3  4  1  0
  4  5  2  0
  5  6  1  0
  6  7  2  0
  7  8  1  0
  8  9  1  0
  9 10  1  0
 10 11  2  0
 10 12  1  0
 12 13  1  0
 13 14  2  0
 13 15  1  0
 15 16  2  0
 16 17  1  0
 17 18  2  0
 18 19  1  0
  8 20  2  0
  2 21  1  0
 21 22  2  0
 22 23  1  0
 23 24  2  0
 24 25  1  0
 25 26  2  0
 20  4  1  0
 26 21  1  0
 19 15  1  0
  3 27  1  0
  5 28  1  0
  6 29  1  0
  7 30  1  0
  9 31  1  0
 12 32  1  0
 16 33  1  0
 17 34  1  0
 18 35  1  0
 20 36  1  0
 22 37  1  0
 23 38  1  0
 24 39  1  0
 25 40  1  0
 26 41  1  0
M  END
$$$$
