
     RDKit          3D

 54 58  0  0  0  0  0  0  0  0999 V2000
   -5.4597   -1.7440    0.8815 C   0  0  0  0  0  0  0  0  0  0  0  0
   -4.8195   -2.8259    0.0214 C   0  0  0  0  0  0  0  0  0  0  0  0
   -3.8525   -2.2526   -1.0334 C   0  0  0  0  0  0  0  0  0  0  0  0
   -3.3493   -3.3607   -1.9651 C   0  0  0  0  0  0  0  0  0  0  0  0
   -2.7291   -1.5167   -0.4317 N   0  0  0  0  0  0  0  0  0  0  0  0
   -1.8273   -2.1679    0.4059 C   0  0  0  0  0  0  0  0  0  0  0  0
   -0.8003   -1.6352    0.9968 N   0  0  0  0  0  0  0  0  0  0  0  0
   -0.6521   -0.3190    0.7216 C   0  0  0  0  0  0  0  0  0  0  0  0
   -1.4598    0.4614   -0.0788 C   0  0  0  0  0  0  0  0  0  0  0  0
   -2.5961   -0.1468   -0.7237 C   0  0  0  0  0  0  0  0  0  0  0  0
   -3.3672    0.4742   -1.4484 O   0  0  0  0  0  0  0  0  0  0  0  0
   -0.9410    1.7699   -0.0644 C   0  0  0  0  0  0  0  0  0  0  0  0
   -1.3571    2.9105   -0.6671 N   0  0  0  0  0  0  0  0  0  0  0  0
   -0.5999    3.9882   -0.4095 C   0  0  0  0  0  0  0  0  0  0  0  0
   -0.9575    5.1962   -0.9942 C   0  0  0  0  0  0  0  0  0  0  0  0
   -0.2221    6.3617   -0.7744 C   0  0  0  0  0  0  0  0  0  0  0  0
    0.8948    6.3200    0.0478 C   0  0  0  0  0  0  0  0  0  0  0  0
    1.2661    5.1131    0.6426 C   0  0  0  0  0  0  0  0  0  0  0  0
    0.5444    3.9447    0.4330 C   0  0  0  0  0  0  0  0  0  0  0  0
    0.9632    2.8203    1.0397 N   0  0  0  0  0  0  0  0  0  0  0  0
    0.1868    1.7546    0.7533 C   0  0  0  0  0  0  0  0  0  0  0  0
    0.3625    0.4694    1.2063 N   0  0  0  0  0  0  0  0  0  0  0  0
    1.4301    0.0388    2.0918 C   0  0  0  0  0  0  0  0  0  0  0  0
    2.6328   -0.4400    1.3167 C   0  0  0  0  0  0  0  0  0  0  0  0
    2.7632   -1.7893    0.9610 C   0  0  0  0  0  0  0  0  0  0  0  0
    3.8716   -2.2341    0.2313 C   0  0  0  0  0  0  0  0  0  0  0  0
    4.8629   -1.3336   -0.1575 C   0  0  0  0  0  0  0  0  0  0  0  0
    5.9912   -1.6353   -0.8694 O   0  0  0  0  0  0  0  0  0  0  0  0
    6.1592   -2.9915   -1.2614 C   0  0  0  0  0  0  0  0  0  0  0  0
    4.7326    0.0131    0.1873 C   0  0  0  0  0  0  0  0  0  0  0  0
    3.6275    0.4601    0.9153 C   0  0  0  0  0  0  0  0  0  0  0  0
   -6.1858   -2.1907    1.5682 H   0  0  0  0  0  0  0  0  0  0  0  0
   -5.9862   -1.0110    0.2621 H   0  0  0  0  0  0  0  0  0  0  0  0
   -4.7131   -1.2161    1.4824 H   0  0  0  0  0  0  0  0  0  0  0  0
   -4.3092   -3.5440    0.6734 H   0  0  0  0  0  0  0  0  0  0  0  0
   -5.6185   -3.3792   -0.4875 H   0  0  0  0  0  0  0  0  0  0  0  0
   -4.4325   -1.5649   -1.6605 H   0  0  0  0  0  0  0  0  0  0  0  0
   -2.8162   -4.1456   -1.4192 H   0  0  0  0  0  0  0  0  0  0  0  0
   -4.1860   -3.8312   -2.4924 H   0  0  0  0  0  0  0  0  0  0  0  0
   -2.6641   -2.9523   -2.7159 H   0  0  0  0  0  0  0  0  0  0  0  0
   -2.0368   -3.2372    0.5608 H   0  0  0  0  0  0  0  0  0  0  0  0
   -1.8333    5.2283   -1.6390 H   0  0  0  0  0  0  0  0  0  0  0  0
   -0.5248    7.2933   -1.2457 H   0  0  0  0  0  0  0  0  0  0  0  0
    1.4783    7.2191    0.2285 H   0  0  0  0  0  0  0  0  0  0  0  0
    2.1422    5.0825    1.2862 H   0  0  0  0  0  0  0  0  0  0  0  0
    1.0420   -0.7526    2.7437 H   0  0  0  0  0  0  0  0  0  0  0  0
    1.6964    0.8755    2.7484 H   0  0  0  0  0  0  0  0  0  0  0  0
    1.9938   -2.5053    1.2452 H   0  0  0  0  0  0  0  0  0  0  0  0
    3.9256   -3.2880   -0.0188 H   0  0  0  0  0  0  0  0  0  0  0  0
    6.2420   -3.6474   -0.3885 H   0  0  0  0  0  0  0  0  0  0  0  0
    7.0964   -3.0638   -1.8217 H   0  0  0  0  0  0  0  0  0  0  0  0
    5.3496   -3.3145   -1.9242 H   0  0  0  0  0  0  0  0  0  0  0  0
    5.4967    0.7234   -0.1187 H   0  0  0  0  0  0  0  0  0  0  0  0
    3.5450    1.5178    1.1591 H   0  0  0  0  0  0  0  0  0  0  0  0
  1  2  1  0
  2  3  1  0
  3  4  1  0
  3  5  1  0
  5  6  1  0
  6  7  2  0
  7  8  1  0
  8  9  2  0
  9 10  1  0
 10 11  2  0
  9 12  1  0
 12 13  2  0
 13 14  1  0
 14 15  2  0
 15 16  1  0
 16 17  2  0
 17 18  1  0
 18 19  2  0
 19 20  1  0
 20 21  2  0
 21 22  1  0
 22 23  1  0
 23 24  1  0
 24 25  2  0
 25 26  1  0
 26 27  2  0
 27 28  1  0
 28 29  1  0
 27 30  1  0
 30 31  2  0
 10  5  1  0
 21 12  1  0
 31 24  1  0
 22  8  1  0
 19 14  1  0
  1 32  1  0
  1 33  1  0
  1 34  1  0
  2 35  1  0
  2 36  1  0
  3 37  1  0
  4 38  1  0
  4 39  1  0
  4 40  1  0
  6 41  1  0
 15 42  1  0
 16 43  1  0
 17 44  1  0
 18 45  1  0
 23 46  1  0
 23 47  1  0
 25 48  1  0
 26 49  1  0
 29 50  1  0
 29 51  1  0
 29 52  1  0
 30 53  1  0
 31 54  1  0
M  END
$$$$
