
     RDKit          3D

 53 57  0  0  0  0  0  0  0  0999 V2000
    3.9756   -1.8580    2.0471 C   0  0  0  0  0  0  0  0  0  0  0  0
    4.1614   -0.4410    1.5853 C   0  0  0  0  0  0  0  0  0  0  0  0
    5.1522    0.3390    2.2099 C   0  0  0  0  0  0  0  0  0  0  0  0
    5.3814    1.6611    1.8223 C   0  0  0  0  0  0  0  0  0  0  0  0
    4.6338    2.2269    0.7920 C   0  0  0  0  0  0  0  0  0  0  0  0
    3.6615    1.4679    0.1446 C   0  0  0  0  0  0  0  0  0  0  0  0
    3.4195    0.1409    0.5396 C   0  0  0  0  0  0  0  0  0  0  0  0
    2.1667   -0.7653   -0.3540 S   0  0  0  0  0  6  0  0  0  0  0  0
    2.6925   -2.0873   -0.6264 O   0  0  0  0  0  0  0  0  0  0  0  0
    1.6792    0.0542   -1.4501 O   0  0  0  0  0  0  0  0  0  0  0  0
    0.9231   -0.9610    0.7633 N   0  0  0  0  0  0  0  0  0  0  0  0
    0.1196    0.1995    0.9292 C   0  0  0  0  0  0  0  0  0  0  0  0
    0.6725    1.1972    1.6384 N   0  0  0  0  0  0  0  0  0  0  0  0
   -0.0600    2.3183    1.7273 C   0  0  0  0  0  0  0  0  0  0  0  0
    0.4484    3.4017    2.4299 C   0  0  0  0  0  0  0  0  0  0  0  0
   -0.2677    4.5929    2.5420 C   0  0  0  0  0  0  0  0  0  0  0  0
   -1.5150    4.7021    1.9426 C   0  0  0  0  0  0  0  0  0  0  0  0
   -2.0386    3.6187    1.2374 C   0  0  0  0  0  0  0  0  0  0  0  0
   -1.3370    2.4271    1.1155 C   0  0  0  0  0  0  0  0  0  0  0  0
   -1.8800    1.4081    0.4180 N   0  0  0  0  0  0  0  0  0  0  0  0
   -1.1412    0.2837    0.3073 C   0  0  0  0  0  0  0  0  0  0  0  0
   -1.6269   -0.8455   -0.4114 N   0  0  0  0  0  0  0  0  0  0  0  0
   -2.8672   -1.3360    0.2130 C   0  0  0  0  0  0  0  0  0  0  0  0
   -3.2286   -2.6788   -0.4295 C   0  0  0  0  0  0  0  0  0  0  0  0
   -3.2377   -2.5974   -1.9365 C   0  0  0  0  0  0  0  0  0  0  0  0
   -3.8792   -3.5906   -2.6887 C   0  0  0  0  0  0  0  0  0  0  0  0
   -3.8603   -3.5439   -4.0857 C   0  0  0  0  0  0  0  0  0  0  0  0
   -3.1995   -2.5102   -4.7378 C   0  0  0  0  0  0  0  0  0  0  0  0
   -2.5478   -1.5226   -3.9970 C   0  0  0  0  0  0  0  0  0  0  0  0
   -2.5455   -1.5624   -2.5934 C   0  0  0  0  0  0  0  0  0  0  0  0
   -1.8517   -0.4544   -1.8196 C   0  0  0  0  0  0  0  0  0  0  0  0
    4.4700   -2.0248    3.0091 H   0  0  0  0  0  0  0  0  0  0  0  0
    2.9202   -2.0965    2.2009 H   0  0  0  0  0  0  0  0  0  0  0  0
    4.4132   -2.5550    1.3273 H   0  0  0  0  0  0  0  0  0  0  0  0
    5.7594   -0.0792    3.0126 H   0  0  0  0  0  0  0  0  0  0  0  0
    6.1448    2.2480    2.3297 H   0  0  0  0  0  0  0  0  0  0  0  0
    4.8069    3.2575    0.4906 H   0  0  0  0  0  0  0  0  0  0  0  0
    3.0795    1.9221   -0.6592 H   0  0  0  0  0  0  0  0  0  0  0  0
    0.3551   -1.7530    0.4582 H   0  0  0  0  0  0  0  0  0  0  0  0
    1.4267    3.3150    2.8969 H   0  0  0  0  0  0  0  0  0  0  0  0
    0.1517    5.4291    3.0937 H   0  0  0  0  0  0  0  0  0  0  0  0
   -2.0822    5.6261    2.0195 H   0  0  0  0  0  0  0  0  0  0  0  0
   -3.0134    3.7068    0.7661 H   0  0  0  0  0  0  0  0  0  0  0  0
   -3.6920   -0.6210    0.0812 H   0  0  0  0  0  0  0  0  0  0  0  0
   -2.7264   -1.4915    1.2924 H   0  0  0  0  0  0  0  0  0  0  0  0
   -2.4859   -3.4334   -0.1408 H   0  0  0  0  0  0  0  0  0  0  0  0
   -4.2061   -3.0039   -0.0561 H   0  0  0  0  0  0  0  0  0  0  0  0
   -4.3907   -4.4079   -2.1928 H   0  0  0  0  0  0  0  0  0  0  0  0
   -4.3582   -4.3184   -4.6638 H   0  0  0  0  0  0  0  0  0  0  0  0
   -3.1804   -2.4750   -5.8267 H   0  0  0  0  0  0  0  0  0  0  0  0
   -2.0346   -0.7238   -4.5214 H   0  0  0  0  0  0  0  0  0  0  0  0
   -0.8820   -0.2496   -2.2923 H   0  0  0  0  0  0  0  0  0  0  0  0
   -2.4792    0.4437   -1.8998 H   0  0  0  0  0  0  0  0  0  0  0  0
  1  2  1  0
  2  3  2  0
  3  4  1  0
  4  5  2  0
  5  6  1  0
  6  7  2  0
  7  8  1  0
  8  9  2  0
  8 10  2  0
  8 11  1  0
 11 12  1  0
 12 13  2  0
 13 14  1  0
 14 15  2  0
 15 16  1  0
 16 17  2  0
 17 18  1  0
 18 19  2  0
 19 20  1  0
 20 21  2  0
 21 22  1  0
 22 23  1  0
 23 24  1  0
 24 25  1  0
 25 26  2  0
 26 27  1  0
 27 28  2  0
 28 29  1  0
 29 30  2  0
 30 31  1  0
  7  2  1  0
 21 12  1  0
 31 22  1  0
 19 14  1  0
 30 25  1  0
  1 32  1  0
  1 33  1  0
  1 34  1  0
  3 35  1  0
  4 36  1  0
  5 37  1  0
  6 38  1  0
 11 39  1  0
 15 40  1  0
 16 41  1  0
 17 42  1  0
 18 43  1  0
 23 44  1  0
 23 45  1  0
 24 46  1  0
 24 47  1  0
 26 48  1  0
 27 49  1  0
 28 50  1  0
 29 51  1  0
 31 52  1  0
 31 53  1  0
M  END
$$$$
