
     RDKit          3D

 43 45  0  0  0  0  0  0  0  0999 V2000
   -3.8874   -3.6434    0.5031 C   0  0  0  0  0  0  0  0  0  0  0  0
   -3.6736   -2.3636   -0.1745 N   0  0  0  0  0  0  0  0  0  0  0  0
   -4.5253   -2.2856   -1.3642 C   0  0  0  0  0  0  0  0  0  0  0  0
   -3.9511   -1.2513    0.7558 C   0  0  0  0  0  0  0  0  0  0  0  0
   -3.4730    0.0856    0.2477 C   0  0  0  0  0  0  0  0  0  0  0  0
   -4.3521    1.0987   -0.1735 C   0  0  0  0  0  0  0  0  0  0  0  0
   -5.6995    0.8663   -0.1120 O   0  0  0  0  0  0  0  0  0  0  0  0
   -3.8891    2.3400   -0.6572 C   0  0  0  0  0  0  0  0  0  0  0  0
   -2.5203    2.6022   -0.7329 C   0  0  0  0  0  0  0  0  0  0  0  0
   -1.6656    1.6022   -0.3156 C   0  0  0  0  0  0  0  0  0  0  0  0
   -2.1188    0.3767    0.1644 C   0  0  0  0  0  0  0  0  0  0  0  0
   -1.0897   -0.4624    0.5319 O   0  0  0  0  0  0  0  0  0  0  0  0
    0.0975    0.2300    0.2740 C   0  0  0  0  0  0  0  0  0  0  0  0
    1.2963   -0.3173    0.5152 C   0  0  0  0  0  0  0  0  0  0  0  0
    2.5881    0.2933    0.2862 C   0  0  0  0  0  0  0  0  0  0  0  0
    3.7430   -0.3255    0.5810 C   0  0  0  0  0  0  0  0  0  0  0  0
    5.0762    0.2560    0.3583 C   0  0  0  0  0  0  0  0  0  0  0  0
    5.3338    1.6262    0.4996 C   0  0  0  0  0  0  0  0  0  0  0  0
    6.6227    2.1322    0.3089 C   0  0  0  0  0  0  0  0  0  0  0  0
    7.6701    1.2727   -0.0147 C   0  0  0  0  0  0  0  0  0  0  0  0
    7.4311   -0.0934   -0.1433 C   0  0  0  0  0  0  0  0  0  0  0  0
    6.1424   -0.5992    0.0475 C   0  0  0  0  0  0  0  0  0  0  0  0
   -0.2095    1.5834   -0.2724 C   0  0  0  0  0  0  0  0  0  0  0  0
    0.5306    2.4837   -0.6041 O   0  0  0  0  0  0  0  0  0  0  0  0
   -4.9199   -3.7607    0.8519 H   0  0  0  0  0  0  0  0  0  0  0  0
   -3.2181   -3.7398    1.3653 H   0  0  0  0  0  0  0  0  0  0  0  0
   -3.6524   -4.4782   -0.1668 H   0  0  0  0  0  0  0  0  0  0  0  0
   -4.3180   -1.3796   -1.9430 H   0  0  0  0  0  0  0  0  0  0  0  0
   -4.3205   -3.1268   -2.0365 H   0  0  0  0  0  0  0  0  0  0  0  0
   -5.5920   -2.3017   -1.1126 H   0  0  0  0  0  0  0  0  0  0  0  0
   -3.4262   -1.4274    1.7054 H   0  0  0  0  0  0  0  0  0  0  0  0
   -5.0162   -1.2196    1.0190 H   0  0  0  0  0  0  0  0  0  0  0  0
   -6.1734    1.6456   -0.4475 H   0  0  0  0  0  0  0  0  0  0  0  0
   -4.5877    3.1081   -0.9784 H   0  0  0  0  0  0  0  0  0  0  0  0
   -2.1377    3.5479   -1.1020 H   0  0  0  0  0  0  0  0  0  0  0  0
    1.3062   -1.3268    0.9229 H   0  0  0  0  0  0  0  0  0  0  0  0
    2.6022    1.2871   -0.1558 H   0  0  0  0  0  0  0  0  0  0  0  0
    3.7375   -1.3298    0.9983 H   0  0  0  0  0  0  0  0  0  0  0  0
    4.5375    2.3167    0.7676 H   0  0  0  0  0  0  0  0  0  0  0  0
    6.8064    3.1979    0.4171 H   0  0  0  0  0  0  0  0  0  0  0  0
    8.6718    1.6672   -0.1631 H   0  0  0  0  0  0  0  0  0  0  0  0
    8.2466   -0.7671   -0.3923 H   0  0  0  0  0  0  0  0  0  0  0  0
    5.9772   -1.6689   -0.0589 H   0  0  0  0  0  0  0  0  0  0  0  0
  1  2  1  0
  2  3  1  0
  2  4  1  0
  4  5  1  0
  5  6  2  0
  6  7  1  0
  6  8  1  0
  8  9  2  0
  9 10  1  0
 10 11  2  0
 11 12  1  0
 12 13  1  0
 13 14  2  3
 14 15  1  0
 15 16  2  3
 16 17  1  0
 17 18  2  0
 18 19  1  0
 19 20  2  0
 20 21  1  0
 21 22  2  0
 13 23  1  0
 23 24  2  0
 11  5  1  0
 22 17  1  0
 23 10  1  0
  1 25  1  0
  1 26  1  0
  1 27  1  0
  3 28  1  0
  3 29  1  0
  3 30  1  0
  4 31  1  0
  4 32  1  0
  7 33  1  0
  8 34  1  0
  9 35  1  0
 14 36  1  0
 15 37  1  0
 16 38  1  0
 18 39  1  0
 19 40  1  0
 20 41  1  0
 21 42  1  0
 22 43  1  0
M  END
$$$$
