
     RDKit          3D

 44 46  0  0  0  0  0  0  0  0999 V2000
    6.8377   -2.3459   -1.6672 C   0  0  0  0  0  0  0  0  0  0  0  0
    5.7380   -1.4027   -1.2761 C   0  0  0  0  0  0  0  0  0  0  0  0
    4.6798   -1.1441   -2.1558 C   0  0  0  0  0  0  0  0  0  0  0  0
    3.6713   -0.2404   -1.8077 C   0  0  0  0  0  0  0  0  0  0  0  0
    3.7160    0.4235   -0.5751 C   0  0  0  0  0  0  0  0  0  0  0  0
    2.6695    1.3918   -0.1503 C   0  0  0  0  0  0  0  0  0  0  0  0
    2.7411    2.0600    0.8671 O   0  0  0  0  0  0  0  0  0  0  0  0
    1.6356    1.3894   -1.0289 O   0  0  0  0  0  0  0  0  0  0  0  0
    0.5772    2.2984   -0.7103 C   0  0  0  0  0  0  0  0  0  0  0  0
   -0.4549    1.7471    0.2772 C   0  0  0  0  0  0  0  0  0  0  0  0
   -1.2885    2.4711    0.8137 O   0  0  0  0  0  0  0  0  0  0  0  0
   -0.3923    0.3811    0.4608 N   0  0  0  0  0  0  0  0  0  0  0  0
   -1.3564   -0.3462    1.2746 C   0  0  0  0  0  0  0  0  0  0  0  0
   -2.3986   -1.0825    0.4099 C   0  0  0  0  0  0  0  0  0  0  0  0
   -3.2344   -2.0753    1.2155 C   0  0  0  0  0  0  0  0  0  0  0  0
   -4.0221   -1.4211    2.2124 O   0  0  0  0  0  0  0  0  0  0  0  0
   -4.6804   -0.3405    1.6828 C   0  0  0  0  0  0  0  0  0  0  0  0
   -5.7483    0.1665    2.4208 C   0  0  0  0  0  0  0  0  0  0  0  0
   -6.4679    1.2611    1.9390 C   0  0  0  0  0  0  0  0  0  0  0  0
   -6.1139    1.8501    0.7241 C   0  0  0  0  0  0  0  0  0  0  0  0
   -5.0350    1.3506   -0.0075 C   0  0  0  0  0  0  0  0  0  0  0  0
   -4.3115    0.2624    0.4761 C   0  0  0  0  0  0  0  0  0  0  0  0
   -3.2489   -0.1546   -0.2839 O   0  0  0  0  0  0  0  0  0  0  0  0
    4.7835    0.1797    0.2978 C   0  0  0  0  0  0  0  0  0  0  0  0
    5.7895   -0.7244   -0.0528 C   0  0  0  0  0  0  0  0  0  0  0  0
    7.6284   -1.8014   -2.1923 H   0  0  0  0  0  0  0  0  0  0  0  0
    7.2676   -2.8317   -0.7849 H   0  0  0  0  0  0  0  0  0  0  0  0
    6.4583   -3.1381   -2.3212 H   0  0  0  0  0  0  0  0  0  0  0  0
    4.6361   -1.6439   -3.1216 H   0  0  0  0  0  0  0  0  0  0  0  0
    2.8655   -0.0593   -2.5144 H   0  0  0  0  0  0  0  0  0  0  0  0
    0.0480    2.5123   -1.6450 H   0  0  0  0  0  0  0  0  0  0  0  0
    0.9726    3.2474   -0.3298 H   0  0  0  0  0  0  0  0  0  0  0  0
    0.2953   -0.1343   -0.0741 H   0  0  0  0  0  0  0  0  0  0  0  0
   -1.8317    0.3519    1.9707 H   0  0  0  0  0  0  0  0  0  0  0  0
   -0.7762   -1.0696    1.8574 H   0  0  0  0  0  0  0  0  0  0  0  0
   -1.8665   -1.6446   -0.3677 H   0  0  0  0  0  0  0  0  0  0  0  0
   -3.9101   -2.6397    0.5595 H   0  0  0  0  0  0  0  0  0  0  0  0
   -2.5885   -2.7993    1.7235 H   0  0  0  0  0  0  0  0  0  0  0  0
   -6.0223   -0.2924    3.3663 H   0  0  0  0  0  0  0  0  0  0  0  0
   -7.3016    1.6574    2.5127 H   0  0  0  0  0  0  0  0  0  0  0  0
   -6.6697    2.7069    0.3522 H   0  0  0  0  0  0  0  0  0  0  0  0
   -4.7453    1.8221   -0.9420 H   0  0  0  0  0  0  0  0  0  0  0  0
    4.8394    0.6951    1.2552 H   0  0  0  0  0  0  0  0  0  0  0  0
    6.6146   -0.8939    0.6363 H   0  0  0  0  0  0  0  0  0  0  0  0
  1  2  1  0
  2  3  2  0
  3  4  1  0
  4  5  2  0
  5  6  1  0
  6  7  2  0
  6  8  1  0
  8  9  1  0
  9 10  1  0
 10 11  2  0
 10 12  1  0
 12 13  1  0
 13 14  1  0
 14 15  1  0
 15 16  1  0
 16 17  1  0
 17 18  2  0
 18 19  1  0
 19 20  2  0
 20 21  1  0
 21 22  2  0
 22 23  1  0
  5 24  1  0
 24 25  2  0
 25  2  1  0
 23 14  1  0
 22 17  1  0
  1 26  1  0
  1 27  1  0
  1 28  1  0
  3 29  1  0
  4 30  1  0
  9 31  1  0
  9 32  1  0
 12 33  1  0
 13 34  1  0
 13 35  1  0
 14 36  1  0
 15 37  1  0
 15 38  1  0
 18 39  1  0
 19 40  1  0
 20 41  1  0
 21 42  1  0
 24 43  1  0
 25 44  1  0
M  END
$$$$
