
     RDKit          3D

 55 56  0  0  0  0  0  0  0  0999 V2000
   -4.0787    2.2976    3.0742 C   0  0  0  0  0  0  0  0  0  0  0  0
   -4.5609    2.4363    1.6267 C   0  0  0  0  0  0  0  0  0  0  0  0
   -3.9267    1.4526    0.7642 N   0  0  0  0  0  0  0  0  0  0  0  0
   -2.6341    1.5919    0.3165 C   0  0  0  0  0  0  0  0  0  0  0  0
   -1.9109    2.5349    0.6181 O   0  0  0  0  0  0  0  0  0  0  0  0
   -2.1918    0.4497   -0.5735 C   0  0  0  0  0  0  0  0  0  0  0  0
   -0.7879    0.6936   -1.1114 C   0  0  0  0  0  0  0  0  0  0  0  0
   -0.2323   -0.6920   -2.1642 S   0  0  0  0  0  0  0  0  0  0  0  0
    0.3549   -1.8612   -0.8829 C   0  0  0  0  0  0  0  0  0  0  0  0
    1.7381   -1.4975   -0.3561 C   0  0  0  0  0  0  0  0  0  0  0  0
    2.8453   -1.9188   -1.3016 C   0  0  0  0  0  0  0  0  0  0  0  0
    2.8080   -2.9609   -1.9472 O   0  0  0  0  0  0  0  0  0  0  0  0
    3.9140   -1.0491   -1.3147 N   0  0  0  0  0  0  0  0  0  0  0  0
    5.1476   -1.3581   -2.0216 C   0  0  0  0  0  0  0  0  0  0  0  0
    5.6304   -0.1240   -2.7858 C   0  0  0  0  0  0  0  0  0  0  0  0
    6.1588   -1.9209   -1.0358 C   0  0  0  0  0  0  0  0  0  0  0  0
    7.0343   -1.1100   -0.2972 C   0  0  0  0  0  0  0  0  0  0  0  0
    7.9272   -1.6737    0.6186 C   0  0  0  0  0  0  0  0  0  0  0  0
    7.9496   -3.0525    0.8187 C   0  0  0  0  0  0  0  0  0  0  0  0
    7.0782   -3.8706    0.1051 C   0  0  0  0  0  0  0  0  0  0  0  0
    6.1867   -3.3090   -0.8106 C   0  0  0  0  0  0  0  0  0  0  0  0
   -6.0686    2.3270    1.4801 C   0  0  0  0  0  0  0  0  0  0  0  0
   -6.7385    3.1957    0.6020 C   0  0  0  0  0  0  0  0  0  0  0  0
   -8.1191    3.1017    0.4168 C   0  0  0  0  0  0  0  0  0  0  0  0
   -8.8490    2.1312    1.0988 C   0  0  0  0  0  0  0  0  0  0  0  0
   -8.1994    1.2530    1.9641 C   0  0  0  0  0  0  0  0  0  0  0  0
   -6.8179    1.3445    2.1488 C   0  0  0  0  0  0  0  0  0  0  0  0
   -4.2277    1.2839    3.4621 H   0  0  0  0  0  0  0  0  0  0  0  0
   -4.6055    2.9960    3.7337 H   0  0  0  0  0  0  0  0  0  0  0  0
   -3.0069    2.5109    3.1485 H   0  0  0  0  0  0  0  0  0  0  0  0
   -4.2460    3.4308    1.2830 H   0  0  0  0  0  0  0  0  0  0  0  0
   -4.4788    0.6585    0.4652 H   0  0  0  0  0  0  0  0  0  0  0  0
   -2.9070    0.3625   -1.4004 H   0  0  0  0  0  0  0  0  0  0  0  0
   -2.2334   -0.4692    0.0217 H   0  0  0  0  0  0  0  0  0  0  0  0
   -0.0706    0.8603   -0.3022 H   0  0  0  0  0  0  0  0  0  0  0  0
   -0.7815    1.5973   -1.7306 H   0  0  0  0  0  0  0  0  0  0  0  0
    0.3504   -2.8632   -1.3246 H   0  0  0  0  0  0  0  0  0  0  0  0
   -0.3676   -1.8743   -0.0610 H   0  0  0  0  0  0  0  0  0  0  0  0
    1.8148   -0.4323   -0.1158 H   0  0  0  0  0  0  0  0  0  0  0  0
    1.9160   -2.0448    0.5775 H   0  0  0  0  0  0  0  0  0  0  0  0
    3.9663   -0.3401   -0.5974 H   0  0  0  0  0  0  0  0  0  0  0  0
    4.9434   -2.1287   -2.7767 H   0  0  0  0  0  0  0  0  0  0  0  0
    6.5860   -0.3165   -3.2852 H   0  0  0  0  0  0  0  0  0  0  0  0
    5.7530    0.7461   -2.1315 H   0  0  0  0  0  0  0  0  0  0  0  0
    4.8985    0.1576   -3.5518 H   0  0  0  0  0  0  0  0  0  0  0  0
    7.0374   -0.0314   -0.4218 H   0  0  0  0  0  0  0  0  0  0  0  0
    8.6043   -1.0354    1.1802 H   0  0  0  0  0  0  0  0  0  0  0  0
    8.6454   -3.4892    1.5306 H   0  0  0  0  0  0  0  0  0  0  0  0
    7.0857   -4.9449    0.2644 H   0  0  0  0  0  0  0  0  0  0  0  0
    5.5013   -3.9612   -1.3518 H   0  0  0  0  0  0  0  0  0  0  0  0
   -6.1842    3.9538    0.0512 H   0  0  0  0  0  0  0  0  0  0  0  0
   -8.6229    3.7804   -0.2667 H   0  0  0  0  0  0  0  0  0  0  0  0
   -9.9235    2.0566    0.9532 H   0  0  0  0  0  0  0  0  0  0  0  0
   -8.7685    0.4913    2.4915 H   0  0  0  0  0  0  0  0  0  0  0  0
   -6.3359    0.6339    2.8148 H   0  0  0  0  0  0  0  0  0  0  0  0
  1  2  1  0
  2  3  1  0
  3  4  1  0
  4  5  2  0
  4  6  1  0
  6  7  1  0
  7  8  1  0
  8  9  1  0
  9 10  1  0
 10 11  1  0
 11 12  2  0
 11 13  1  0
 13 14  1  0
 14 15  1  0
 14 16  1  0
 16 17  2  0
 17 18  1  0
 18 19  2  0
 19 20  1  0
 20 21  2  0
  2 22  1  0
 22 23  2  0
 23 24  1  0
 24 25  2  0
 25 26  1  0
 26 27  2  0
 21 16  1  0
 27 22  1  0
  1 28  1  0
  1 29  1  0
  1 30  1  0
  2 31  1  0
  3 32  1  0
  6 33  1  0
  6 34  1  0
  7 35  1  0
  7 36  1  0
  9 37  1  0
  9 38  1  0
 10 39  1  0
 10 40  1  0
 13 41  1  0
 14 42  1  0
 15 43  1  0
 15 44  1  0
 15 45  1  0
 17 46  1  0
 18 47  1  0
 19 48  1  0
 20 49  1  0
 21 50  1  0
 23 51  1  0
 24 52  1  0
 25 53  1  0
 26 54  1  0
 27 55  1  0
M  END
$$$$
