
     RDKit          3D

 37 39  0  0  0  0  0  0  0  0999 V2000
   -0.0918   -3.0280   -2.0651 C   0  0  0  0  0  0  0  0  0  0  0  0
   -1.2882   -2.5093   -2.6330 O   0  0  0  0  0  0  0  0  0  0  0  0
   -1.6387   -1.2187   -2.2449 C   0  0  0  0  0  0  0  0  0  0  0  0
   -2.7507   -0.7180   -2.9350 C   0  0  0  0  0  0  0  0  0  0  0  0
   -3.2415    0.5588   -2.6787 C   0  0  0  0  0  0  0  0  0  0  0  0
   -2.6392    1.3843   -1.7225 C   0  0  0  0  0  0  0  0  0  0  0  0
   -3.0645    2.6495   -1.4123 O   0  0  0  0  0  0  0  0  0  0  0  0
   -3.8744    3.3060   -2.3811 C   0  0  0  0  0  0  0  0  0  0  0  0
   -1.5305    0.8641   -1.0185 C   0  0  0  0  0  0  0  0  0  0  0  0
   -0.5932    1.6214    0.2132 S   0  0  0  0  0  0  0  0  0  0  0  0
    0.4075    0.2237    0.3658 C   0  0  0  0  0  0  0  0  0  0  0  0
    1.4391    0.1209    1.2571 N   0  0  0  0  0  0  0  0  0  0  0  0
    2.0865   -1.1787    1.4384 C   0  0  0  0  0  0  0  0  0  0  0  0
    2.3462   -1.4341    2.9218 C   0  0  0  0  0  0  0  0  0  0  0  0
    3.2381   -0.3616    3.5417 C   0  0  0  0  0  0  0  0  0  0  0  0
    3.1631    0.9713    2.7997 C   0  0  0  0  0  0  0  0  0  0  0  0
    1.7912    1.2068    2.1693 C   0  0  0  0  0  0  0  0  0  0  0  0
    0.0808   -0.7411   -0.4646 N   0  0  0  0  0  0  0  0  0  0  0  0
   -1.0150   -0.4122   -1.2552 C   0  0  0  0  0  0  0  0  0  0  0  0
    0.7715   -2.4016   -2.3146 H   0  0  0  0  0  0  0  0  0  0  0  0
    0.0825   -4.0149   -2.5070 H   0  0  0  0  0  0  0  0  0  0  0  0
   -0.1947   -3.1727   -0.9851 H   0  0  0  0  0  0  0  0  0  0  0  0
   -3.2357   -1.3410   -3.6846 H   0  0  0  0  0  0  0  0  0  0  0  0
   -4.1128    0.8854   -3.2387 H   0  0  0  0  0  0  0  0  0  0  0  0
   -3.4203    3.2697   -3.3777 H   0  0  0  0  0  0  0  0  0  0  0  0
   -4.8849    2.8841   -2.3923 H   0  0  0  0  0  0  0  0  0  0  0  0
   -3.9555    4.3583   -2.0911 H   0  0  0  0  0  0  0  0  0  0  0  0
    3.0297   -1.1949    0.8782 H   0  0  0  0  0  0  0  0  0  0  0  0
    1.4733   -2.0057    1.0599 H   0  0  0  0  0  0  0  0  0  0  0  0
    1.3858   -1.4507    3.4542 H   0  0  0  0  0  0  0  0  0  0  0  0
    2.8004   -2.4209    3.0653 H   0  0  0  0  0  0  0  0  0  0  0  0
    2.9506   -0.2254    4.5918 H   0  0  0  0  0  0  0  0  0  0  0  0
    4.2805   -0.7028    3.5546 H   0  0  0  0  0  0  0  0  0  0  0  0
    3.9270    0.9828    2.0107 H   0  0  0  0  0  0  0  0  0  0  0  0
    3.4111    1.7894    3.4851 H   0  0  0  0  0  0  0  0  0  0  0  0
    1.8347    2.1654    1.6371 H   0  0  0  0  0  0  0  0  0  0  0  0
    1.0319    1.2904    2.9579 H   0  0  0  0  0  0  0  0  0  0  0  0
  1  2  1  0
  2  3  1  0
  3  4  2  0
  4  5  1  0
  5  6  2  0
  6  7  1  0
  7  8  1  0
  6  9  1  0
  9 10  1  0
 10 11  1  0
 11 12  1  0
 12 13  1  0
 13 14  1  0
 14 15  1  0
 15 16  1  0
 16 17  1  0
 11 18  2  0
 18 19  1  0
 19  3  1  0
 19  9  2  0
 17 12  1  0
  1 20  1  0
  1 21  1  0
  1 22  1  0
  4 23  1  0
  5 24  1  0
  8 25  1  0
  8 26  1  0
  8 27  1  0
 13 28  1  0
 13 29  1  0
 14 30  1  0
 14 31  1  0
 15 32  1  0
 15 33  1  0
 16 34  1  0
 16 35  1  0
 17 36  1  0
 17 37  1  0
M  END
$$$$
