
     RDKit          3D

 54 57  0  0  0  0  0  0  0  0999 V2000
   -3.1064   -4.2549   -3.3181 C   0  0  0  0  0  0  0  0  0  0  0  0
   -2.5118   -4.0414   -2.0444 O   0  0  0  0  0  0  0  0  0  0  0  0
   -2.6736   -2.8030   -1.4873 C   0  0  0  0  0  0  0  0  0  0  0  0
   -3.3946   -1.7431   -2.0365 C   0  0  0  0  0  0  0  0  0  0  0  0
   -3.4801   -0.5222   -1.3555 C   0  0  0  0  0  0  0  0  0  0  0  0
   -2.8486   -0.3460   -0.1170 C   0  0  0  0  0  0  0  0  0  0  0  0
   -2.9254    0.9379    0.5914 C   0  0  0  0  0  0  0  0  0  0  0  0
   -4.4574    1.4786    1.1303 S   0  0  0  0  0  0  0  0  0  0  0  0
   -3.8108    2.9055    1.8330 C   0  0  0  0  0  0  0  0  0  0  0  0
   -4.5287    3.9139    2.5072 C   0  0  0  0  0  0  0  0  0  0  0  0
   -3.8380    5.0166    3.0133 C   0  0  0  0  0  0  0  0  0  0  0  0
   -2.4645    5.1196    2.8531 C   0  0  0  0  0  0  0  0  0  0  0  0
   -1.7571    4.1161    2.1846 C   0  0  0  0  0  0  0  0  0  0  0  0
   -2.4272    2.9781    1.6625 C   0  0  0  0  0  0  0  0  0  0  0  0
   -1.9214    1.8270    0.9454 C   0  0  0  0  0  0  0  0  0  0  0  0
   -0.5227    1.5853    0.6054 C   0  0  0  0  0  0  0  0  0  0  0  0
    0.4028    1.3011    1.6153 C   0  0  0  0  0  0  0  0  0  0  0  0
    1.7468    1.0664    1.3006 C   0  0  0  0  0  0  0  0  0  0  0  0
    2.1757    1.1155   -0.0254 C   0  0  0  0  0  0  0  0  0  0  0  0
    3.4487    0.9133   -0.4762 O   0  0  0  0  0  0  0  0  0  0  0  0
    4.4363    0.4087    0.4242 C   0  0  0  0  0  0  0  0  0  0  0  0
    4.3338   -1.1173    0.6330 C   0  0  0  0  0  0  0  0  0  0  0  0
    4.4606   -1.9366   -0.5904 N   0  0  0  0  0  0  0  0  0  0  0  0
    5.7873   -1.8343   -1.1958 C   0  0  0  0  0  0  0  0  0  0  0  0
    4.1481   -3.3363   -0.2965 C   0  0  0  0  0  0  0  0  0  0  0  0
    1.2497    1.4113   -1.0301 C   0  0  0  0  0  0  0  0  0  0  0  0
   -0.0926    1.6448   -0.7220 C   0  0  0  0  0  0  0  0  0  0  0  0
   -2.1266   -1.4135    0.4277 C   0  0  0  0  0  0  0  0  0  0  0  0
   -2.0421   -2.6308   -0.2539 C   0  0  0  0  0  0  0  0  0  0  0  0
   -2.8739   -5.2783   -3.6282 H   0  0  0  0  0  0  0  0  0  0  0  0
   -4.1963   -4.1630   -3.2650 H   0  0  0  0  0  0  0  0  0  0  0  0
   -2.6877   -3.5765   -4.0689 H   0  0  0  0  0  0  0  0  0  0  0  0
   -3.9012   -1.8288   -2.9916 H   0  0  0  0  0  0  0  0  0  0  0  0
   -4.0404    0.2947   -1.8052 H   0  0  0  0  0  0  0  0  0  0  0  0
   -5.6054    3.8368    2.6304 H   0  0  0  0  0  0  0  0  0  0  0  0
   -4.3838    5.8002    3.5334 H   0  0  0  0  0  0  0  0  0  0  0  0
   -1.9334    5.9835    3.2451 H   0  0  0  0  0  0  0  0  0  0  0  0
   -0.6810    4.2144    2.0609 H   0  0  0  0  0  0  0  0  0  0  0  0
    0.0829    1.2543    2.6539 H   0  0  0  0  0  0  0  0  0  0  0  0
    2.4245    0.8494    2.1177 H   0  0  0  0  0  0  0  0  0  0  0  0
    5.4113    0.6599   -0.0071 H   0  0  0  0  0  0  0  0  0  0  0  0
    4.4134    0.9400    1.3824 H   0  0  0  0  0  0  0  0  0  0  0  0
    3.3540   -1.3255    1.0791 H   0  0  0  0  0  0  0  0  0  0  0  0
    5.0892   -1.4212    1.3692 H   0  0  0  0  0  0  0  0  0  0  0  0
    6.5822   -2.1230   -0.4989 H   0  0  0  0  0  0  0  0  0  0  0  0
    5.9850   -0.8181   -1.5501 H   0  0  0  0  0  0  0  0  0  0  0  0
    5.8580   -2.4785   -2.0800 H   0  0  0  0  0  0  0  0  0  0  0  0
    4.8416   -3.7692    0.4334 H   0  0  0  0  0  0  0  0  0  0  0  0
    4.1860   -3.9406   -1.2098 H   0  0  0  0  0  0  0  0  0  0  0  0
    3.1293   -3.4311    0.0957 H   0  0  0  0  0  0  0  0  0  0  0  0
    1.5777    1.4508   -2.0662 H   0  0  0  0  0  0  0  0  0  0  0  0
   -0.7927    1.8679   -1.5230 H   0  0  0  0  0  0  0  0  0  0  0  0
   -1.6239   -1.3075    1.3858 H   0  0  0  0  0  0  0  0  0  0  0  0
   -1.4754   -3.4508    0.1801 H   0  0  0  0  0  0  0  0  0  0  0  0
  1  2  1  0
  2  3  1  0
  3  4  2  0
  4  5  1  0
  5  6  2  0
  6  7  1  0
  7  8  1  0
  8  9  1  0
  9 10  2  0
 10 11  1  0
 11 12  2  0
 12 13  1  0
 13 14  2  0
 14 15  1  0
 15 16  1  0
 16 17  2  0
 17 18  1  0
 18 19  2  0
 19 20  1  0
 20 21  1  0
 21 22  1  0
 22 23  1  0
 23 24  1  0
 23 25  1  0
 19 26  1  0
 26 27  2  0
  6 28  1  0
 28 29  2  0
 29  3  1  0
 15  7  2  0
 27 16  1  0
 14  9  1  0
  1 30  1  0
  1 31  1  0
  1 32  1  0
  4 33  1  0
  5 34  1  0
 10 35  1  0
 11 36  1  0
 12 37  1  0
 13 38  1  0
 17 39  1  0
 18 40  1  0
 21 41  1  0
 21 42  1  0
 22 43  1  0
 22 44  1  0
 24 45  1  0
 24 46  1  0
 24 47  1  0
 25 48  1  0
 25 49  1  0
 25 50  1  0
 26 51  1  0
 27 52  1  0
 28 53  1  0
 29 54  1  0
M  END
$$$$
