
     RDKit          3D

 48 50  0  0  0  0  0  0  0  0999 V2000
    7.6918   -1.4265    2.0935 C   0  0  0  0  0  0  0  0  0  0  0  0
    7.0953   -0.1425    1.5396 C   0  0  0  0  0  0  0  0  0  0  0  0
    5.9480   -0.4295    0.5746 C   0  0  0  0  0  0  0  0  0  0  0  0
    5.3520    0.8599    0.0129 C   0  0  0  0  0  0  0  0  0  0  0  0
    4.3093    0.5668   -0.9168 O   0  0  0  0  0  0  0  0  0  0  0  0
    3.0269    0.4694   -0.4580 C   0  0  0  0  0  0  0  0  0  0  0  0
    2.0598    0.3480   -1.4551 C   0  0  0  0  0  0  0  0  0  0  0  0
    0.7021    0.2352   -1.1314 C   0  0  0  0  0  0  0  0  0  0  0  0
    0.2747    0.2537    0.1982 C   0  0  0  0  0  0  0  0  0  0  0  0
   -1.0712    0.0996    0.5865 N   0  0  0  0  0  0  0  0  0  0  0  0
   -2.1954    0.3420   -0.1584 C   0  0  0  0  0  0  0  0  0  0  0  0
   -2.2450    0.8586   -1.3381 N   0  0  0  0  0  0  0  0  0  0  0  0
   -3.4628    1.0928   -1.8887 C   0  0  0  0  0  0  0  0  0  0  0  0
   -3.4757    1.8665   -3.0019 N   0  0  0  0  0  0  0  0  0  0  0  0
   -4.5854    0.6679   -1.4247 N   0  0  0  0  0  0  0  0  0  0  0  0
   -4.5009   -0.1863   -0.2550 C   0  0  0  0  0  0  0  0  0  0  0  0
   -4.6913   -1.6480   -0.6824 C   0  0  0  0  0  0  0  0  0  0  0  0
   -6.1919   -1.7940   -0.9223 C   0  0  0  0  0  0  0  0  0  0  0  0
   -6.8645   -0.7193   -0.0701 C   0  0  0  0  0  0  0  0  0  0  0  0
   -5.7374    0.0490    0.6177 C   0  0  0  0  0  0  0  0  0  0  0  0
   -3.3082   -0.0231    0.5318 N   0  0  0  0  0  0  0  0  0  0  0  0
    1.2606    0.3434    1.1939 C   0  0  0  0  0  0  0  0  0  0  0  0
    2.6211    0.4574    0.8727 C   0  0  0  0  0  0  0  0  0  0  0  0
    8.5114   -1.1976    2.7819 H   0  0  0  0  0  0  0  0  0  0  0  0
    8.0890   -2.0536    1.2889 H   0  0  0  0  0  0  0  0  0  0  0  0
    6.9400   -2.0043    2.6407 H   0  0  0  0  0  0  0  0  0  0  0  0
    7.8797    0.4267    1.0275 H   0  0  0  0  0  0  0  0  0  0  0  0
    6.7360    0.4749    2.3711 H   0  0  0  0  0  0  0  0  0  0  0  0
    6.2986   -1.0549   -0.2561 H   0  0  0  0  0  0  0  0  0  0  0  0
    5.1719   -1.0161    1.0797 H   0  0  0  0  0  0  0  0  0  0  0  0
    6.1275    1.3886   -0.5542 H   0  0  0  0  0  0  0  0  0  0  0  0
    5.0299    1.5564    0.7957 H   0  0  0  0  0  0  0  0  0  0  0  0
    2.3604    0.3362   -2.5000 H   0  0  0  0  0  0  0  0  0  0  0  0
   -0.0092    0.1211   -1.9447 H   0  0  0  0  0  0  0  0  0  0  0  0
   -1.2152    0.2269    1.5779 H   0  0  0  0  0  0  0  0  0  0  0  0
   -4.3645    2.3312   -3.1240 H   0  0  0  0  0  0  0  0  0  0  0  0
   -2.6733    2.4805   -3.0364 H   0  0  0  0  0  0  0  0  0  0  0  0
   -4.1139   -1.9134   -1.5749 H   0  0  0  0  0  0  0  0  0  0  0  0
   -4.3884   -2.3352    0.1184 H   0  0  0  0  0  0  0  0  0  0  0  0
   -6.5413   -2.7983   -0.6621 H   0  0  0  0  0  0  0  0  0  0  0  0
   -6.4269   -1.6303   -1.9805 H   0  0  0  0  0  0  0  0  0  0  0  0
   -7.5511   -1.1542    0.6635 H   0  0  0  0  0  0  0  0  0  0  0  0
   -7.4514   -0.0497   -0.7093 H   0  0  0  0  0  0  0  0  0  0  0  0
   -5.5888   -0.3600    1.6259 H   0  0  0  0  0  0  0  0  0  0  0  0
   -5.9847    1.1104    0.7305 H   0  0  0  0  0  0  0  0  0  0  0  0
   -3.1589   -0.7782    1.1877 H   0  0  0  0  0  0  0  0  0  0  0  0
    0.9808    0.3287    2.2445 H   0  0  0  0  0  0  0  0  0  0  0  0
    3.3308    0.5208    1.6899 H   0  0  0  0  0  0  0  0  0  0  0  0
  1  2  1  0
  2  3  1  0
  3  4  1  0
  4  5  1  0
  5  6  1  0
  6  7  2  0
  7  8  1  0
  8  9  2  0
  9 10  1  0
 10 11  1  0
 11 12  2  0
 12 13  1  0
 13 14  1  0
 13 15  2  0
 15 16  1  0
 16 17  1  0
 17 18  1  0
 18 19  1  0
 19 20  1  0
 16 21  1  0
  9 22  1  0
 22 23  2  0
 23  6  1  0
 21 11  1  0
 20 16  1  0
  1 24  1  0
  1 25  1  0
  1 26  1  0
  2 27  1  0
  2 28  1  0
  3 29  1  0
  3 30  1  0
  4 31  1  0
  4 32  1  0
  7 33  1  0
  8 34  1  0
 10 35  1  0
 14 36  1  0
 14 37  1  0
 17 38  1  0
 17 39  1  0
 18 40  1  0
 18 41  1  0
 19 42  1  0
 19 43  1  0
 20 44  1  0
 20 45  1  0
 21 46  1  0
 22 47  1  0
 23 48  1  0
M  END
$$$$
