
     RDKit          3D

 41 42  0  0  0  0  0  0  0  0999 V2000
   -7.5154   -2.2769    1.8029 C   0  0  0  0  0  0  0  0  0  0  0  0
   -7.1998   -1.2595    0.8612 O   0  0  0  0  0  0  0  0  0  0  0  0
   -5.9689   -0.6744    0.9758 C   0  0  0  0  0  0  0  0  0  0  0  0
   -5.0219   -0.9395    1.9642 C   0  0  0  0  0  0  0  0  0  0  0  0
   -3.7963   -0.2636    1.9651 C   0  0  0  0  0  0  0  0  0  0  0  0
   -3.5018    0.6876    0.9791 C   0  0  0  0  0  0  0  0  0  0  0  0
   -2.1772    1.4130    0.9840 C   0  0  0  0  0  0  0  0  0  0  0  0
   -1.0102    0.6012    0.4606 C   0  0  0  0  0  0  0  0  0  0  0  0
   -1.0278   -0.5960    0.2034 O   0  0  0  0  0  0  0  0  0  0  0  0
    0.0715    1.4521    0.3514 O   0  0  0  0  0  0  0  0  0  0  0  0
    1.2097    0.7322   -0.0570 N   0  0  0  0  0  0  0  0  0  0  0  0
    2.2425    1.5081   -0.2057 C   0  0  0  0  0  0  0  0  0  0  0  0
    2.1985    2.8712   -0.0102 N   0  0  0  0  0  0  0  0  0  0  0  0
    3.5354    0.8766   -0.6297 C   0  0  0  0  0  0  0  0  0  0  0  0
    3.5321   -0.3979   -1.2095 C   0  0  0  0  0  0  0  0  0  0  0  0
    4.7300   -0.9969   -1.6179 C   0  0  0  0  0  0  0  0  0  0  0  0
    5.9420   -0.3287   -1.4446 C   0  0  0  0  0  0  0  0  0  0  0  0
    7.1773   -0.7972   -1.7973 O   0  0  0  0  0  0  0  0  0  0  0  0
    7.2309   -2.0979   -2.3701 C   0  0  0  0  0  0  0  0  0  0  0  0
    5.9453    0.9393   -0.8569 C   0  0  0  0  0  0  0  0  0  0  0  0
    4.7518    1.5419   -0.4472 C   0  0  0  0  0  0  0  0  0  0  0  0
   -4.4535    0.9447   -0.0144 C   0  0  0  0  0  0  0  0  0  0  0  0
   -5.6769    0.2701   -0.0101 C   0  0  0  0  0  0  0  0  0  0  0  0
   -7.5520   -1.8744    2.8205 H   0  0  0  0  0  0  0  0  0  0  0  0
   -8.5118   -2.6590    1.5607 H   0  0  0  0  0  0  0  0  0  0  0  0
   -6.8122   -3.1134    1.7327 H   0  0  0  0  0  0  0  0  0  0  0  0
   -5.2000   -1.6691    2.7468 H   0  0  0  0  0  0  0  0  0  0  0  0
   -3.0667   -0.4970    2.7381 H   0  0  0  0  0  0  0  0  0  0  0  0
   -2.2636    2.3220    0.3759 H   0  0  0  0  0  0  0  0  0  0  0  0
   -1.9469    1.7253    2.0097 H   0  0  0  0  0  0  0  0  0  0  0  0
    1.2475    3.2198    0.0294 H   0  0  0  0  0  0  0  0  0  0  0  0
    2.7729    3.4165   -0.6436 H   0  0  0  0  0  0  0  0  0  0  0  0
    2.5957   -0.9355   -1.3490 H   0  0  0  0  0  0  0  0  0  0  0  0
    4.6765   -1.9847   -2.0635 H   0  0  0  0  0  0  0  0  0  0  0  0
    6.8595   -2.8538   -1.6701 H   0  0  0  0  0  0  0  0  0  0  0  0
    6.6847   -2.1339   -3.3185 H   0  0  0  0  0  0  0  0  0  0  0  0
    8.2799   -2.3269   -2.5813 H   0  0  0  0  0  0  0  0  0  0  0  0
    6.8893    1.4587   -0.7083 H   0  0  0  0  0  0  0  0  0  0  0  0
    4.7937    2.5148    0.0329 H   0  0  0  0  0  0  0  0  0  0  0  0
   -4.2553    1.6675   -0.8022 H   0  0  0  0  0  0  0  0  0  0  0  0
   -6.4086    0.4779   -0.7871 H   0  0  0  0  0  0  0  0  0  0  0  0
  1  2  1  0
  2  3  1  0
  3  4  2  0
  4  5  1  0
  5  6  2  0
  6  7  1  0
  7  8  1  0
  8  9  2  0
  8 10  1  0
 10 11  1  0
 11 12  2  3
 12 13  1  0
 12 14  1  0
 14 15  2  0
 15 16  1  0
 16 17  2  0
 17 18  1  0
 18 19  1  0
 17 20  1  0
 20 21  2  0
  6 22  1  0
 22 23  2  0
 23  3  1  0
 21 14  1  0
  1 24  1  0
  1 25  1  0
  1 26  1  0
  4 27  1  0
  5 28  1  0
  7 29  1  0
  7 30  1  0
 13 31  1  0
 13 32  1  0
 15 33  1  0
 16 34  1  0
 19 35  1  0
 19 36  1  0
 19 37  1  0
 20 38  1  0
 21 39  1  0
 22 40  1  0
 23 41  1  0
M  END
$$$$
