
     RDKit          3D

 51 54  0  0  0  0  0  0  0  0999 V2000
   -0.1485    0.3461   -2.2446 O   0  0  0  0  0  0  0  0  0  0  0  0
   -0.5235    0.0213   -1.1148 C   0  0  0  0  0  0  0  0  0  0  0  0
    0.3951   -0.7010   -0.2207 C   0  0  0  0  0  0  0  0  0  0  0  0
    1.8080   -0.7747   -0.3605 C   0  0  0  0  0  0  0  0  0  0  0  0
    2.2215   -1.6186    0.6421 C   0  0  0  0  0  0  0  0  0  0  0  0
    3.5221   -2.1674    1.0891 C   0  0  0  0  0  0  0  0  0  0  0  0
    4.4821   -2.0160    0.0405 O   0  0  0  0  0  0  0  0  0  0  0  0
    5.3580   -0.9701    0.1021 C   0  0  0  0  0  0  0  0  0  0  0  0
    5.1995    0.1917    0.8583 C   0  0  0  0  0  0  0  0  0  0  0  0
    6.1694    1.1975    0.8096 C   0  0  0  0  0  0  0  0  0  0  0  0
    7.2965    1.0507    0.0000 C   0  0  0  0  0  0  0  0  0  0  0  0
    7.4637   -0.1049   -0.7768 C   0  0  0  0  0  0  0  0  0  0  0  0
    8.6946   -0.2824   -1.6317 C   0  0  0  0  0  0  0  0  0  0  0  0
    9.7655   -0.7142   -0.9098 F   0  0  0  0  0  0  0  0  0  0  0  0
    8.5325   -1.1881   -2.6370 F   0  0  0  0  0  0  0  0  0  0  0  0
    9.0924    0.8734   -2.2362 F   0  0  0  0  0  0  0  0  0  0  0  0
    6.4827   -1.1077   -0.7171 C   0  0  0  0  0  0  0  0  0  0  0  0
    1.1339   -2.0177    1.3533 O   0  0  0  0  0  0  0  0  0  0  0  0
   -0.0090   -1.4739    0.8040 N   0  0  0  0  0  0  0  0  0  0  0  0
   -1.8317    0.2996   -0.6735 N   0  0  0  0  0  0  0  0  0  0  0  0
   -2.0940    0.7682    0.6868 C   0  0  0  0  0  0  0  0  0  0  0  0
   -3.5171    0.4397    1.1237 C   0  0  0  0  0  0  0  0  0  0  0  0
   -4.5383    0.9821    0.1090 C   0  0  0  0  0  0  0  0  0  0  0  0
   -5.9640    0.6551    0.5048 C   0  0  0  0  0  0  0  0  0  0  0  0
   -6.8858    1.6830    0.7230 C   0  0  0  0  0  0  0  0  0  0  0  0
   -8.1853    1.3538    1.0752 C   0  0  0  0  0  0  0  0  0  0  0  0
   -8.6267    0.0897    1.2257 N   0  0  0  0  0  0  0  0  0  0  0  0
   -7.7264   -0.8908    1.0121 C   0  0  0  0  0  0  0  0  0  0  0  0
   -6.4068   -0.6625    0.6559 C   0  0  0  0  0  0  0  0  0  0  0  0
   -4.2122    0.4718   -1.3020 C   0  0  0  0  0  0  0  0  0  0  0  0
   -2.7692    0.7870   -1.6807 C   0  0  0  0  0  0  0  0  0  0  0  0
    2.4206   -0.2965   -1.1126 H   0  0  0  0  0  0  0  0  0  0  0  0
    3.4137   -3.2466    1.2559 H   0  0  0  0  0  0  0  0  0  0  0  0
    3.8521   -1.7349    2.0417 H   0  0  0  0  0  0  0  0  0  0  0  0
    4.3285    0.3574    1.4845 H   0  0  0  0  0  0  0  0  0  0  0  0
    6.0432    2.1005    1.4065 H   0  0  0  0  0  0  0  0  0  0  0  0
    8.0460    1.8409   -0.0264 H   0  0  0  0  0  0  0  0  0  0  0  0
    6.5948   -2.0130   -1.3126 H   0  0  0  0  0  0  0  0  0  0  0  0
   -1.9444    1.8546    0.6819 H   0  0  0  0  0  0  0  0  0  0  0  0
   -1.3815    0.3792    1.4126 H   0  0  0  0  0  0  0  0  0  0  0  0
   -3.7038    0.8680    2.1150 H   0  0  0  0  0  0  0  0  0  0  0  0
   -3.6149   -0.6487    1.2233 H   0  0  0  0  0  0  0  0  0  0  0  0
   -4.4303    2.0757    0.0926 H   0  0  0  0  0  0  0  0  0  0  0  0
   -6.6080    2.7256    0.6207 H   0  0  0  0  0  0  0  0  0  0  0  0
   -8.9285    2.1240    1.2502 H   0  0  0  0  0  0  0  0  0  0  0  0
   -8.1025   -1.9011    1.1377 H   0  0  0  0  0  0  0  0  0  0  0  0
   -5.7442   -1.5059    0.4993 H   0  0  0  0  0  0  0  0  0  0  0  0
   -4.3613   -0.6144   -1.3548 H   0  0  0  0  0  0  0  0  0  0  0  0
   -4.8914    0.9196   -2.0385 H   0  0  0  0  0  0  0  0  0  0  0  0
   -2.6205    1.8668   -1.7864 H   0  0  0  0  0  0  0  0  0  0  0  0
   -2.5465    0.3285   -2.6490 H   0  0  0  0  0  0  0  0  0  0  0  0
  1  2  2  0
  2  3  1  0
  3  4  1  0
  4  5  2  0
  5  6  1  0
  6  7  1  0
  7  8  1  0
  8  9  2  0
  9 10  1  0
 10 11  2  0
 11 12  1  0
 12 13  1  0
 13 14  1  0
 13 15  1  0
 13 16  1  0
 12 17  2  0
  5 18  1  0
 18 19  1  0
  2 20  1  0
 20 21  1  0
 21 22  1  0
 22 23  1  0
 23 24  1  0
 24 25  2  0
 25 26  1  0
 26 27  2  0
 27 28  1  0
 28 29  2  0
 23 30  1  0
 30 31  1  0
 19  3  2  0
 31 20  1  0
 17  8  1  0
 29 24  1  0
  4 32  1  0
  6 33  1  0
  6 34  1  0
  9 35  1  0
 10 36  1  0
 11 37  1  0
 17 38  1  0
 21 39  1  0
 21 40  1  0
 22 41  1  0
 22 42  1  0
 23 43  1  0
 25 44  1  0
 26 45  1  0
 28 46  1  0
 29 47  1  0
 30 48  1  0
 30 49  1  0
 31 50  1  0
 31 51  1  0
M  END
$$$$
