
     RDKit          3D

 58 60  0  0  0  0  0  0  0  0999 V2000
   -7.1971   -4.2601    2.4828 C   0  0  0  0  0  0  0  0  0  0  0  0
   -5.9984   -4.2398    1.7190 O   0  0  0  0  0  0  0  0  0  0  0  0
   -5.4025   -3.0271    1.4864 C   0  0  0  0  0  0  0  0  0  0  0  0
   -5.8841   -1.8017    1.9675 C   0  0  0  0  0  0  0  0  0  0  0  0
   -5.2007   -0.6143    1.6828 C   0  0  0  0  0  0  0  0  0  0  0  0
   -5.5992    0.6332    2.0966 O   0  0  0  0  0  0  0  0  0  0  0  0
   -6.3472    0.6756    3.3078 C   0  0  0  0  0  0  0  0  0  0  0  0
   -4.0464   -0.6513    0.8843 C   0  0  0  0  0  0  0  0  0  0  0  0
   -3.3161    0.5585    0.6513 N   0  0  0  0  0  0  0  0  0  0  0  0
   -2.0344    0.8774    1.7153 S   0  0  0  0  0  6  0  0  0  0  0  0
   -1.7903    2.3024    1.6602 O   0  0  0  0  0  0  0  0  0  0  0  0
   -2.2514    0.1952    2.9726 O   0  0  0  0  0  0  0  0  0  0  0  0
   -0.6680    0.0991    0.8848 C   0  0  0  0  0  0  0  0  0  0  0  0
   -0.0693   -1.0381    1.4334 C   0  0  0  0  0  0  0  0  0  0  0  0
    0.9997   -1.6425    0.7665 C   0  0  0  0  0  0  0  0  0  0  0  0
    1.4799   -1.1058   -0.4345 C   0  0  0  0  0  0  0  0  0  0  0  0
    2.7601   -1.9476   -1.2302 Cl  0  0  0  0  0  0  0  0  0  0  0  0
    0.8910    0.0507   -0.9602 C   0  0  0  0  0  0  0  0  0  0  0  0
    1.3377    0.6684   -2.2182 C   0  0  0  0  0  0  0  0  0  0  0  0
    0.5907    0.8786   -3.1570 O   0  0  0  0  0  0  0  0  0  0  0  0
    2.6355    1.0257   -2.0985 O   0  0  0  0  0  0  0  0  0  0  0  0
    3.1972    1.7175   -3.2206 C   0  0  0  0  0  0  0  0  0  0  0  0
    3.6672    0.7277   -4.2810 C   0  0  0  0  0  0  0  0  0  0  0  0
    4.3568    2.6470   -2.8111 C   0  0  0  0  0  0  0  0  0  0  0  0
    4.4563    3.7626   -3.3337 O   0  0  0  0  0  0  0  0  0  0  0  0
    5.3012    2.2062   -1.9088 N   0  0  0  0  0  0  0  0  0  0  0  0
    6.4066    3.0656   -1.5172 C   0  0  0  0  0  0  0  0  0  0  0  0
    7.0044    2.3929   -0.2899 C   0  0  0  0  0  0  0  0  0  0  0  0
    6.7125    0.9194   -0.5358 C   0  0  0  0  0  0  0  0  0  0  0  0
    5.3287    0.9531   -1.1695 C   0  0  0  0  0  0  0  0  0  0  0  0
   -0.1935    0.6520   -0.3076 C   0  0  0  0  0  0  0  0  0  0  0  0
   -3.5545   -1.8604    0.4051 C   0  0  0  0  0  0  0  0  0  0  0  0
   -4.2314   -3.0425    0.7075 C   0  0  0  0  0  0  0  0  0  0  0  0
   -3.5775   -4.5210    0.0909 Cl  0  0  0  0  0  0  0  0  0  0  0  0
   -7.0238   -3.8908    3.4989 H   0  0  0  0  0  0  0  0  0  0  0  0
   -7.9917   -3.6944    1.9850 H   0  0  0  0  0  0  0  0  0  0  0  0
   -7.5273   -5.3005    2.5590 H   0  0  0  0  0  0  0  0  0  0  0  0
   -6.7935   -1.7643    2.5537 H   0  0  0  0  0  0  0  0  0  0  0  0
   -7.3795    0.3551    3.1355 H   0  0  0  0  0  0  0  0  0  0  0  0
   -5.8751    0.0782    4.0953 H   0  0  0  0  0  0  0  0  0  0  0  0
   -6.3741    1.7155    3.6475 H   0  0  0  0  0  0  0  0  0  0  0  0
   -3.9103    1.3918    0.6102 H   0  0  0  0  0  0  0  0  0  0  0  0
   -0.4324   -1.4657    2.3667 H   0  0  0  0  0  0  0  0  0  0  0  0
    1.4493   -2.5407    1.1863 H   0  0  0  0  0  0  0  0  0  0  0  0
    2.4354    2.3802   -3.6536 H   0  0  0  0  0  0  0  0  0  0  0  0
    4.1373    1.2457   -5.1236 H   0  0  0  0  0  0  0  0  0  0  0  0
    4.3900    0.0123   -3.8791 H   0  0  0  0  0  0  0  0  0  0  0  0
    2.8264    0.1394   -4.6631 H   0  0  0  0  0  0  0  0  0  0  0  0
    6.0640    4.0848   -1.3135 H   0  0  0  0  0  0  0  0  0  0  0  0
    7.1214    3.0895   -2.3473 H   0  0  0  0  0  0  0  0  0  0  0  0
    6.4819    2.7284    0.6142 H   0  0  0  0  0  0  0  0  0  0  0  0
    8.0700    2.6054   -0.1693 H   0  0  0  0  0  0  0  0  0  0  0  0
    6.7441    0.3173    0.3763 H   0  0  0  0  0  0  0  0  0  0  0  0
    7.4418    0.5106   -1.2455 H   0  0  0  0  0  0  0  0  0  0  0  0
    4.5515    0.9962   -0.3990 H   0  0  0  0  0  0  0  0  0  0  0  0
    5.1527    0.0952   -1.8195 H   0  0  0  0  0  0  0  0  0  0  0  0
   -0.6605    1.5422   -0.7275 H   0  0  0  0  0  0  0  0  0  0  0  0
   -2.6611   -1.8878   -0.2103 H   0  0  0  0  0  0  0  0  0  0  0  0
  1  2  1  0
  2  3  1  0
  3  4  2  0
  4  5  1  0
  5  6  1  0
  6  7  1  0
  5  8  2  0
  8  9  1  0
  9 10  1  0
 10 11  2  0
 10 12  2  0
 10 13  1  0
 13 14  2  0
 14 15  1  0
 15 16  2  0
 16 17  1  0
 16 18  1  0
 18 19  1  0
 19 20  2  0
 19 21  1  0
 21 22  1  0
 22 23  1  0
 22 24  1  0
 24 25  2  0
 24 26  1  0
 26 27  1  0
 27 28  1  0
 28 29  1  0
 29 30  1  0
 18 31  2  0
  8 32  1  0
 32 33  2  0
 33 34  1  0
 33  3  1  0
 31 13  1  0
 30 26  1  0
  1 35  1  0
  1 36  1  0
  1 37  1  0
  4 38  1  0
  7 39  1  0
  7 40  1  0
  7 41  1  0
  9 42  1  0
 14 43  1  0
 15 44  1  0
 22 45  1  0
 23 46  1  0
 23 47  1  0
 23 48  1  0
 27 49  1  0
 27 50  1  0
 28 51  1  0
 28 52  1  0
 29 53  1  0
 29 54  1  0
 30 55  1  0
 30 56  1  0
 31 57  1  0
 32 58  1  0
M  END
$$$$
