
     RDKit          3D

 80 85  0  0  0  0  0  0  0  0999 V2000
    6.4593   -1.9231    0.9565 C   0  0  0  0  0  0  0  0  0  0  0  0
    5.5403   -0.7315    0.6645 C   0  0  0  0  0  0  0  0  0  0  0  0
    5.7810   -0.2494   -0.7701 C   0  0  0  0  0  0  0  0  0  0  0  0
    4.9889    1.0150   -1.0691 C   0  0  0  0  0  0  0  0  0  0  0  0
    3.4671    0.8954   -0.8125 C   0  0  0  0  0  0  0  0  0  0  0  0
    2.9592    2.3479   -0.8057 C   0  0  0  0  0  0  0  0  0  0  0  0
    2.4160    2.9381   -1.7272 O   0  0  0  0  0  0  0  0  0  0  0  0
    3.2581    3.0303    0.3191 O   0  0  0  0  0  0  0  0  0  0  0  0
    2.7848    0.1472   -1.9844 C   0  0  0  0  0  0  0  0  0  0  0  0
    1.2708   -0.0979   -1.7878 C   0  0  0  0  0  0  0  0  0  0  0  0
    0.8972   -0.8258   -0.4566 C   0  0  0  0  0  0  0  0  0  0  0  0
    1.3935   -2.2932   -0.5777 C   0  0  0  0  0  0  0  0  0  0  0  0
    1.6360   -0.0227    0.6446 C   0  0  0  0  0  0  0  0  0  0  0  0
    0.9845    0.7124    1.5686 C   0  0  0  0  0  0  0  0  0  0  0  0
   -0.4904    0.9327    1.6219 C   0  0  0  0  0  0  0  0  0  0  0  0
   -1.2024    0.5299    0.3168 C   0  0  0  0  0  0  0  0  0  0  0  0
   -2.7533    0.7736    0.3828 C   0  0  0  0  0  0  0  0  0  0  0  0
   -3.0225    2.2360   -0.0993 C   0  0  0  0  0  0  0  0  0  0  0  0
   -4.4803    2.6153    0.1405 C   0  0  0  0  0  0  0  0  0  0  0  0
   -5.2758    1.3418    0.4312 C   0  0  0  0  0  0  0  0  0  0  0  0
   -6.6400    1.6881    0.5541 O   0  0  0  0  0  0  0  0  0  0  0  0
   -4.8450    0.8289    1.6995 O   0  0  0  0  0  0  0  0  0  0  0  0
   -3.4122    0.6913    1.7836 C   0  0  0  0  0  0  0  0  0  0  0  0
   -5.0407    0.2528   -0.6660 C   0  0  0  0  0  0  0  0  0  0  0  0
   -5.9812   -0.9558   -0.4317 C   0  0  0  0  0  0  0  0  0  0  0  0
   -5.3718    0.7947   -2.0730 C   0  0  0  0  0  0  0  0  0  0  0  0
   -3.5566   -0.2295   -0.5002 C   0  0  0  0  0  0  0  0  0  0  0  0
   -2.7907   -0.5750   -1.7683 C   0  0  0  0  0  0  0  0  0  0  0  0
   -1.5118   -1.3519   -1.4379 C   0  0  0  0  0  0  0  0  0  0  0  0
   -0.7174   -0.8805   -0.1682 C   0  0  0  0  0  0  0  0  0  0  0  0
   -0.9994   -1.9261    0.9643 C   0  0  0  0  0  0  0  0  0  0  0  0
    3.1574    0.1870    0.5412 C   0  0  0  0  0  0  0  0  0  0  0  0
    4.0379   -1.0603    0.8570 C   0  0  0  0  0  0  0  0  0  0  0  0
    3.7507   -1.5850    2.2733 C   0  0  0  0  0  0  0  0  0  0  0  0
    6.1717   -2.8042    0.3745 H   0  0  0  0  0  0  0  0  0  0  0  0
    6.4407   -2.1878    2.0190 H   0  0  0  0  0  0  0  0  0  0  0  0
    7.4981   -1.6805    0.7100 H   0  0  0  0  0  0  0  0  0  0  0  0
    5.8187    0.0747    1.3571 H   0  0  0  0  0  0  0  0  0  0  0  0
    6.8467   -0.0357   -0.9175 H   0  0  0  0  0  0  0  0  0  0  0  0
    5.5199   -1.0375   -1.4868 H   0  0  0  0  0  0  0  0  0  0  0  0
    5.4122    1.8236   -0.4563 H   0  0  0  0  0  0  0  0  0  0  0  0
    5.1715    1.3143   -2.1094 H   0  0  0  0  0  0  0  0  0  0  0  0
    2.9152    3.9309    0.1379 H   0  0  0  0  0  0  0  0  0  0  0  0
    3.2877   -0.8094   -2.1576 H   0  0  0  0  0  0  0  0  0  0  0  0
    2.9149    0.7109   -2.9174 H   0  0  0  0  0  0  0  0  0  0  0  0
    0.9475   -0.6814   -2.6557 H   0  0  0  0  0  0  0  0  0  0  0  0
    0.7471    0.8611   -1.8573 H   0  0  0  0  0  0  0  0  0  0  0  0
    1.5122   -2.7685    0.4011 H   0  0  0  0  0  0  0  0  0  0  0  0
    0.6969   -2.8995   -1.1664 H   0  0  0  0  0  0  0  0  0  0  0  0
    2.3419   -2.3882   -1.1074 H   0  0  0  0  0  0  0  0  0  0  0  0
    1.5502    1.2890    2.2992 H   0  0  0  0  0  0  0  0  0  0  0  0
   -0.8844    0.3983    2.4920 H   0  0  0  0  0  0  0  0  0  0  0  0
   -0.6637    2.0000    1.8027 H   0  0  0  0  0  0  0  0  0  0  0  0
   -0.8390    1.2277   -0.4519 H   0  0  0  0  0  0  0  0  0  0  0  0
   -2.3806    2.9499    0.4331 H   0  0  0  0  0  0  0  0  0  0  0  0
   -2.7814    2.3420   -1.1638 H   0  0  0  0  0  0  0  0  0  0  0  0
   -4.8888    3.1805   -0.7054 H   0  0  0  0  0  0  0  0  0  0  0  0
   -4.5421    3.2896    1.0053 H   0  0  0  0  0  0  0  0  0  0  0  0
   -6.9959    1.0081    1.1487 H   0  0  0  0  0  0  0  0  0  0  0  0
   -3.2127   -0.2639    2.2789 H   0  0  0  0  0  0  0  0  0  0  0  0
   -3.0519    1.4835    2.4489 H   0  0  0  0  0  0  0  0  0  0  0  0
   -7.0312   -0.6837   -0.5856 H   0  0  0  0  0  0  0  0  0  0  0  0
   -5.7513   -1.7731   -1.1231 H   0  0  0  0  0  0  0  0  0  0  0  0
   -5.8853   -1.3472    0.5858 H   0  0  0  0  0  0  0  0  0  0  0  0
   -6.3734    1.2383   -2.0979 H   0  0  0  0  0  0  0  0  0  0  0  0
   -5.3587   -0.0020   -2.8267 H   0  0  0  0  0  0  0  0  0  0  0  0
   -4.6665    1.5627   -2.4036 H   0  0  0  0  0  0  0  0  0  0  0  0
   -3.6120   -1.1701    0.0640 H   0  0  0  0  0  0  0  0  0  0  0  0
   -2.5333    0.3296   -2.3294 H   0  0  0  0  0  0  0  0  0  0  0  0
   -3.4013   -1.1973   -2.4329 H   0  0  0  0  0  0  0  0  0  0  0  0
   -0.9000   -1.3454   -2.3430 H   0  0  0  0  0  0  0  0  0  0  0  0
   -1.7896   -2.4097   -1.3203 H   0  0  0  0  0  0  0  0  0  0  0  0
   -2.0315   -1.8901    1.3131 H   0  0  0  0  0  0  0  0  0  0  0  0
   -0.8371   -2.9534    0.6218 H   0  0  0  0  0  0  0  0  0  0  0  0
   -0.3553   -1.7820    1.8358 H   0  0  0  0  0  0  0  0  0  0  0  0
    3.4447    0.8968    1.3305 H   0  0  0  0  0  0  0  0  0  0  0  0
    3.8097   -1.8691    0.1625 H   0  0  0  0  0  0  0  0  0  0  0  0
    4.0828   -0.8713    3.0342 H   0  0  0  0  0  0  0  0  0  0  0  0
    4.2619   -2.5362    2.4529 H   0  0  0  0  0  0  0  0  0  0  0  0
    2.6835   -1.7746    2.4284 H   0  0  0  0  0  0  0  0  0  0  0  0
  1  2  1  0
  2  3  1  0
  3  4  1  0
  4  5  1  0
  5  6  1  0
  6  7  2  0
  6  8  1  0
  5  9  1  0
  9 10  1  0
 10 11  1  0
 11 12  1  0
 11 13  1  0
 13 14  2  0
 14 15  1  0
 15 16  1  0
 16 17  1  0
 17 18  1  0
 18 19  1  0
 19 20  1  0
 20 21  1  0
 20 22  1  0
 22 23  1  0
 20 24  1  0
 24 25  1  0
 24 26  1  0
 24 27  1  0
 27 28  1  0
 28 29  1  0
 29 30  1  0
 30 31  1  0
 13 32  1  0
 32 33  1  0
 33 34  1  0
 33  2  1  0
 32  5  1  0
 30 11  1  0
 30 16  1  0
 23 17  1  0
 27 17  1  0
  1 35  1  0
  1 36  1  0
  1 37  1  0
  2 38  1  0
  3 39  1  0
  3 40  1  0
  4 41  1  0
  4 42  1  0
  8 43  1  0
  9 44  1  0
  9 45  1  0
 10 46  1  0
 10 47  1  0
 12 48  1  0
 12 49  1  0
 12 50  1  0
 14 51  1  0
 15 52  1  0
 15 53  1  0
 16 54  1  0
 18 55  1  0
 18 56  1  0
 19 57  1  0
 19 58  1  0
 21 59  1  0
 23 60  1  0
 23 61  1  0
 25 62  1  0
 25 63  1  0
 25 64  1  0
 26 65  1  0
 26 66  1  0
 26 67  1  0
 27 68  1  0
 28 69  1  0
 28 70  1  0
 29 71  1  0
 29 72  1  0
 31 73  1  0
 31 74  1  0
 31 75  1  0
 32 76  1  0
 33 77  1  0
 34 78  1  0
 34 79  1  0
 34 80  1  0
M  END
$$$$
