
     RDKit          3D

 46 48  0  0  0  0  0  0  0  0999 V2000
    7.9473   -1.2561   -0.8480 C   0  0  0  0  0  0  0  0  0  0  0  0
    7.5955   -0.5187    0.3166 O   0  0  0  0  0  0  0  0  0  0  0  0
    6.1839   -0.4301    0.5136 C   0  0  0  0  0  0  0  0  0  0  0  0
    5.5714    0.7129   -0.3036 C   0  0  0  0  0  0  0  0  0  0  0  0
    4.1308    0.8389   -0.0830 N   0  0  0  0  0  0  0  0  0  0  0  0
    3.2848    0.0069   -0.7956 C   0  0  0  0  0  0  0  0  0  0  0  0
    3.6326   -0.8423   -1.6052 O   0  0  0  0  0  0  0  0  0  0  0  0
    1.8714    0.2654   -0.4211 C   0  0  0  0  0  0  0  0  0  0  0  0
    0.8581   -0.4040   -0.9857 C   0  0  0  0  0  0  0  0  0  0  0  0
   -0.5614   -0.2201   -0.6625 C   0  0  0  0  0  0  0  0  0  0  0  0
   -1.2481    0.8601   -1.2200 C   0  0  0  0  0  0  0  0  0  0  0  0
   -2.6030    1.0685   -0.9333 C   0  0  0  0  0  0  0  0  0  0  0  0
   -3.3239    0.2173   -0.0857 C   0  0  0  0  0  0  0  0  0  0  0  0
   -4.6536    0.4264    0.1943 N   0  0  0  0  0  0  0  0  0  0  0  0
   -5.4115   -0.3211    1.1953 C   0  0  0  0  0  0  0  0  0  0  0  0
   -6.6933    0.4900    1.3699 C   0  0  0  0  0  0  0  0  0  0  0  0
   -6.8952    1.1128    0.0001 C   0  0  0  0  0  0  0  0  0  0  0  0
   -5.4730    1.4620   -0.4305 C   0  0  0  0  0  0  0  0  0  0  0  0
   -2.6111   -0.8648    0.4586 C   0  0  0  0  0  0  0  0  0  0  0  0
   -1.2474   -1.1011    0.1851 C   0  0  0  0  0  0  0  0  0  0  0  0
   -0.5646   -2.2826    0.8186 C   0  0  0  0  0  0  0  0  0  0  0  0
    1.7939    1.4740    0.7956 S   0  0  0  0  0  0  0  0  0  0  0  0
    3.5417    1.6708    0.8458 C   0  0  0  0  0  0  0  0  0  0  0  0
    4.2846    2.7299    1.8976 S   0  0  0  0  0  0  0  0  0  0  0  0
    7.5692   -0.7686   -1.7504 H   0  0  0  0  0  0  0  0  0  0  0  0
    7.5659   -2.2796   -0.7833 H   0  0  0  0  0  0  0  0  0  0  0  0
    9.0383   -1.2965   -0.9094 H   0  0  0  0  0  0  0  0  0  0  0  0
    5.7035   -1.3913    0.2944 H   0  0  0  0  0  0  0  0  0  0  0  0
    6.0245   -0.2374    1.5802 H   0  0  0  0  0  0  0  0  0  0  0  0
    6.0823    1.6524   -0.0688 H   0  0  0  0  0  0  0  0  0  0  0  0
    5.7438    0.5398   -1.3721 H   0  0  0  0  0  0  0  0  0  0  0  0
    1.0559   -1.1627   -1.7407 H   0  0  0  0  0  0  0  0  0  0  0  0
   -0.7400    1.5571   -1.8823 H   0  0  0  0  0  0  0  0  0  0  0  0
   -3.0829    1.9305   -1.3872 H   0  0  0  0  0  0  0  0  0  0  0  0
   -4.8852   -0.4013    2.1525 H   0  0  0  0  0  0  0  0  0  0  0  0
   -5.6402   -1.3253    0.8205 H   0  0  0  0  0  0  0  0  0  0  0  0
   -7.5388   -0.1264    1.6876 H   0  0  0  0  0  0  0  0  0  0  0  0
   -6.5412    1.2767    2.1188 H   0  0  0  0  0  0  0  0  0  0  0  0
   -7.5529    1.9861    0.0208 H   0  0  0  0  0  0  0  0  0  0  0  0
   -7.3259    0.3738   -0.6865 H   0  0  0  0  0  0  0  0  0  0  0  0
   -5.1884    2.4494   -0.0492 H   0  0  0  0  0  0  0  0  0  0  0  0
   -5.3978    1.4581   -1.5231 H   0  0  0  0  0  0  0  0  0  0  0  0
   -3.1251   -1.5630    1.1143 H   0  0  0  0  0  0  0  0  0  0  0  0
   -0.1362   -2.9341    0.0501 H   0  0  0  0  0  0  0  0  0  0  0  0
   -1.2655   -2.8871    1.4040 H   0  0  0  0  0  0  0  0  0  0  0  0
    0.2268   -1.9457    1.4957 H   0  0  0  0  0  0  0  0  0  0  0  0
  1  2  1  0
  2  3  1  0
  3  4  1  0
  4  5  1  0
  5  6  1  0
  6  7  2  0
  6  8  1  0
  8  9  2  3
  9 10  1  0
 10 11  2  0
 11 12  1  0
 12 13  2  0
 13 14  1  0
 14 15  1  0
 15 16  1  0
 16 17  1  0
 17 18  1  0
 13 19  1  0
 19 20  2  0
 20 21  1  0
  8 22  1  0
 22 23  1  0
 23 24  2  0
 23  5  1  0
 20 10  1  0
 18 14  1  0
  1 25  1  0
  1 26  1  0
  1 27  1  0
  3 28  1  0
  3 29  1  0
  4 30  1  0
  4 31  1  0
  9 32  1  0
 11 33  1  0
 12 34  1  0
 15 35  1  0
 15 36  1  0
 16 37  1  0
 16 38  1  0
 17 39  1  0
 17 40  1  0
 18 41  1  0
 18 42  1  0
 19 43  1  0
 21 44  1  0
 21 45  1  0
 21 46  1  0
M  END
$$$$
