
     RDKit          3D

 60 63  0  0  0  0  0  0  0  0999 V2000
   -8.0274   -0.3479   -2.2388 C   0  0  0  0  0  0  0  0  0  0  0  0
   -7.7429    0.7214   -1.1873 C   0  0  0  0  0  0  0  0  0  0  0  0
   -9.0384    1.4398   -0.8122 C   0  0  0  0  0  0  0  0  0  0  0  0
   -7.2512    0.1119    0.0112 O   0  0  0  0  0  0  0  0  0  0  0  0
   -5.9099   -0.1014    0.1507 C   0  0  0  0  0  0  0  0  0  0  0  0
   -5.5271   -0.5786    1.4027 C   0  0  0  0  0  0  0  0  0  0  0  0
   -4.1834   -0.8489    1.6868 C   0  0  0  0  0  0  0  0  0  0  0  0
   -3.1739   -0.6517    0.7280 C   0  0  0  0  0  0  0  0  0  0  0  0
   -1.7580   -0.9449    1.0480 C   0  0  0  0  0  0  0  0  0  0  0  0
   -0.6910   -0.3382    0.4090 C   0  0  0  0  0  0  0  0  0  0  0  0
    0.6051   -0.6827    0.7965 C   0  0  0  0  0  0  0  0  0  0  0  0
    1.6977    0.0354    0.1076 C   0  0  0  0  0  0  0  0  0  0  0  0
    1.7723    0.0111   -1.1141 O   0  0  0  0  0  0  0  0  0  0  0  0
    2.5438    0.7497    0.9253 N   0  0  0  0  0  0  0  0  0  0  0  0
    3.5948    1.5878    0.3754 C   0  0  0  0  0  0  0  0  0  0  0  0
    4.8006    0.7681   -0.1241 C   0  0  0  0  0  0  0  0  0  0  0  0
    5.8937    1.6165   -0.6285 N   0  0  0  0  0  0  0  0  0  0  0  0
    5.5979    2.1914   -1.9625 C   0  0  0  0  0  0  0  0  0  0  0  0
    6.3235    1.4837   -3.1183 C   0  0  0  0  0  0  0  0  0  0  0  0
    7.7507    1.5043   -2.9808 O   0  0  0  0  0  0  0  0  0  0  0  0
    8.1835    1.5028   -1.6149 C   0  0  0  0  0  0  0  0  0  0  0  0
    7.1625    0.8556   -0.6675 C   0  0  0  0  0  0  0  0  0  0  0  0
    0.8406   -1.6561    1.7894 C   0  0  0  0  0  0  0  0  0  0  0  0
    2.1185   -2.1201    2.1972 C   0  0  0  0  0  0  0  0  0  0  0  0
    2.2490   -3.0826    3.1965 C   0  0  0  0  0  0  0  0  0  0  0  0
    1.1106   -3.6006    3.7960 C   0  0  0  0  0  0  0  0  0  0  0  0
   -0.1490   -3.1595    3.3842 C   0  0  0  0  0  0  0  0  0  0  0  0
   -0.3062   -2.2043    2.3886 C   0  0  0  0  0  0  0  0  0  0  0  0
   -1.5543   -1.8498    2.0388 N   0  0  0  0  0  0  0  0  0  0  0  0
   -3.5833   -0.1804   -0.5322 C   0  0  0  0  0  0  0  0  0  0  0  0
   -4.9309    0.0932   -0.8183 C   0  0  0  0  0  0  0  0  0  0  0  0
   -7.1159   -0.8853   -2.5164 H   0  0  0  0  0  0  0  0  0  0  0  0
   -8.4538    0.0929   -3.1454 H   0  0  0  0  0  0  0  0  0  0  0  0
   -8.7249   -1.0998   -1.8530 H   0  0  0  0  0  0  0  0  0  0  0  0
   -7.0510    1.4804   -1.5706 H   0  0  0  0  0  0  0  0  0  0  0  0
   -8.8454    2.1952   -0.0427 H   0  0  0  0  0  0  0  0  0  0  0  0
   -9.7694    0.7413   -0.3895 H   0  0  0  0  0  0  0  0  0  0  0  0
   -9.4856    1.9343   -1.6801 H   0  0  0  0  0  0  0  0  0  0  0  0
   -6.2796   -0.7461    2.1693 H   0  0  0  0  0  0  0  0  0  0  0  0
   -3.9273   -1.2217    2.6776 H   0  0  0  0  0  0  0  0  0  0  0  0
   -0.8390    0.4092   -0.3635 H   0  0  0  0  0  0  0  0  0  0  0  0
    2.3502    0.8064    1.9179 H   0  0  0  0  0  0  0  0  0  0  0  0
    3.1579    2.1873   -0.4299 H   0  0  0  0  0  0  0  0  0  0  0  0
    3.9077    2.2704    1.1735 H   0  0  0  0  0  0  0  0  0  0  0  0
    5.1624    0.1833    0.7330 H   0  0  0  0  0  0  0  0  0  0  0  0
    4.4919    0.0384   -0.8833 H   0  0  0  0  0  0  0  0  0  0  0  0
    4.5237    2.2189   -2.1735 H   0  0  0  0  0  0  0  0  0  0  0  0
    5.9346    3.2344   -1.9351 H   0  0  0  0  0  0  0  0  0  0  0  0
    6.0800    1.9706   -4.0680 H   0  0  0  0  0  0  0  0  0  0  0  0
    6.0019    0.4384   -3.1984 H   0  0  0  0  0  0  0  0  0  0  0  0
    9.1334    0.9605   -1.5739 H   0  0  0  0  0  0  0  0  0  0  0  0
    8.3884    2.5388   -1.3186 H   0  0  0  0  0  0  0  0  0  0  0  0
    6.9812   -0.1739   -1.0039 H   0  0  0  0  0  0  0  0  0  0  0  0
    7.5806    0.8096    0.3446 H   0  0  0  0  0  0  0  0  0  0  0  0
    3.0244   -1.7469    1.7239 H   0  0  0  0  0  0  0  0  0  0  0  0
    3.2339   -3.4310    3.4975 H   0  0  0  0  0  0  0  0  0  0  0  0
    1.1932   -4.3549    4.5746 H   0  0  0  0  0  0  0  0  0  0  0  0
   -1.0378   -3.5813    3.8494 H   0  0  0  0  0  0  0  0  0  0  0  0
   -2.8607   -0.0353   -1.3320 H   0  0  0  0  0  0  0  0  0  0  0  0
   -5.1730    0.4411   -1.8162 H   0  0  0  0  0  0  0  0  0  0  0  0
  1  2  1  0
  2  3  1  0
  2  4  1  0
  4  5  1  0
  5  6  2  0
  6  7  1  0
  7  8  2  0
  8  9  1  0
  9 10  2  0
 10 11  1  0
 11 12  1  0
 12 13  2  0
 12 14  1  0
 14 15  1  0
 15 16  1  0
 16 17  1  0
 17 18  1  0
 18 19  1  0
 19 20  1  0
 20 21  1  0
 21 22  1  0
 11 23  2  0
 23 24  1  0
 24 25  2  0
 25 26  1  0
 26 27  2  0
 27 28  1  0
 28 29  2  0
  8 30  1  0
 30 31  2  0
 31  5  1  0
 29  9  1  0
 22 17  1  0
 28 23  1  0
  1 32  1  0
  1 33  1  0
  1 34  1  0
  2 35  1  0
  3 36  1  0
  3 37  1  0
  3 38  1  0
  6 39  1  0
  7 40  1  0
 10 41  1  0
 14 42  1  0
 15 43  1  0
 15 44  1  0
 16 45  1  0
 16 46  1  0
 18 47  1  0
 18 48  1  0
 19 49  1  0
 19 50  1  0
 21 51  1  0
 21 52  1  0
 22 53  1  0
 22 54  1  0
 24 55  1  0
 25 56  1  0
 26 57  1  0
 27 58  1  0
 30 59  1  0
 31 60  1  0
M  END
$$$$
