
     RDKit          3D

 53 56  0  0  0  0  0  0  0  0999 V2000
    8.0083    1.6502   -2.2710 C   0  0  0  0  0  0  0  0  0  0  0  0
    7.1070    0.7774   -2.9422 O   0  0  0  0  0  0  0  0  0  0  0  0
    6.0206    0.3473   -2.2295 C   0  0  0  0  0  0  0  0  0  0  0  0
    5.1690   -0.5162   -2.9231 C   0  0  0  0  0  0  0  0  0  0  0  0
    4.0147   -1.0218   -2.3182 C   0  0  0  0  0  0  0  0  0  0  0  0
    3.6989   -0.6730   -0.9998 C   0  0  0  0  0  0  0  0  0  0  0  0
    2.4439   -1.1781   -0.3402 C   0  0  0  0  0  0  0  0  0  0  0  0
    1.4910   -0.0998   -0.1928 N   0  0  0  0  0  0  0  0  0  0  0  0
    0.4804   -0.1474    0.7523 C   0  0  0  0  0  0  0  0  0  0  0  0
    0.3343   -1.1235    1.4883 O   0  0  0  0  0  0  0  0  0  0  0  0
   -0.4043    1.0954    0.7917 C   0  0  0  0  0  0  0  0  0  0  0  0
    0.3436    2.1628    1.4798 C   0  0  0  0  0  0  0  0  0  0  0  0
    0.9814    3.0127    1.9518 N   0  0  0  0  0  0  0  0  0  0  0  0
   -1.7625    0.8165    1.3982 C   0  0  0  0  0  0  0  0  0  0  0  0
   -2.0373    1.3197    2.6354 N   0  0  0  0  0  0  0  0  0  0  0  0
   -3.2578    1.0824    3.1429 C   0  0  0  0  0  0  0  0  0  0  0  0
   -3.5872    1.5728    4.4002 C   0  0  0  0  0  0  0  0  0  0  0  0
   -4.8474    1.3535    4.9584 C   0  0  0  0  0  0  0  0  0  0  0  0
   -5.7933    0.6302    4.2461 C   0  0  0  0  0  0  0  0  0  0  0  0
   -5.4707    0.1350    2.9807 C   0  0  0  0  0  0  0  0  0  0  0  0
   -4.2184    0.3483    2.4154 C   0  0  0  0  0  0  0  0  0  0  0  0
   -3.9475   -0.1411    1.1895 N   0  0  0  0  0  0  0  0  0  0  0  0
   -2.7162    0.0838    0.6739 C   0  0  0  0  0  0  0  0  0  0  0  0
   -2.4002   -0.4229   -0.6127 N   0  0  0  0  0  0  0  0  0  0  0  0
   -2.1719   -1.8908   -0.5112 C   0  0  0  0  0  0  0  0  0  0  0  0
   -2.9540   -2.5011   -1.6703 C   0  0  0  0  0  0  0  0  0  0  0  0
   -4.1487   -1.5786   -1.7835 C   0  0  0  0  0  0  0  0  0  0  0  0
   -3.5153   -0.2107   -1.5669 C   0  0  0  0  0  0  0  0  0  0  0  0
    4.5582    0.1913   -0.3051 C   0  0  0  0  0  0  0  0  0  0  0  0
    5.7102    0.6995   -0.9155 C   0  0  0  0  0  0  0  0  0  0  0  0
    8.8294    1.8777   -2.9576 H   0  0  0  0  0  0  0  0  0  0  0  0
    7.5210    2.5946   -2.0111 H   0  0  0  0  0  0  0  0  0  0  0  0
    8.4389    1.1708   -1.3856 H   0  0  0  0  0  0  0  0  0  0  0  0
    5.4075   -0.7957   -3.9481 H   0  0  0  0  0  0  0  0  0  0  0  0
    3.3698   -1.6898   -2.8859 H   0  0  0  0  0  0  0  0  0  0  0  0
    1.9665   -1.9614   -0.9398 H   0  0  0  0  0  0  0  0  0  0  0  0
    2.6791   -1.6117    0.6384 H   0  0  0  0  0  0  0  0  0  0  0  0
    1.5490    0.6670   -0.8528 H   0  0  0  0  0  0  0  0  0  0  0  0
   -0.5649    1.4327   -0.2422 H   0  0  0  0  0  0  0  0  0  0  0  0
   -2.8441    2.1403    4.9535 H   0  0  0  0  0  0  0  0  0  0  0  0
   -5.0836    1.7480    5.9428 H   0  0  0  0  0  0  0  0  0  0  0  0
   -6.7792    0.4506    4.6677 H   0  0  0  0  0  0  0  0  0  0  0  0
   -6.2117   -0.4301    2.4201 H   0  0  0  0  0  0  0  0  0  0  0  0
   -1.1058   -2.1190   -0.6140 H   0  0  0  0  0  0  0  0  0  0  0  0
   -2.5238   -2.3181    0.4376 H   0  0  0  0  0  0  0  0  0  0  0  0
   -2.3584   -2.4646   -2.5905 H   0  0  0  0  0  0  0  0  0  0  0  0
   -3.2332   -3.5416   -1.4840 H   0  0  0  0  0  0  0  0  0  0  0  0
   -4.8753   -1.7977   -0.9920 H   0  0  0  0  0  0  0  0  0  0  0  0
   -4.6557   -1.6580   -2.7494 H   0  0  0  0  0  0  0  0  0  0  0  0
   -3.0752    0.1393   -2.5083 H   0  0  0  0  0  0  0  0  0  0  0  0
   -4.2476    0.5455   -1.2600 H   0  0  0  0  0  0  0  0  0  0  0  0
    4.3295    0.4788    0.7205 H   0  0  0  0  0  0  0  0  0  0  0  0
    6.3388    1.3685   -0.3358 H   0  0  0  0  0  0  0  0  0  0  0  0
  1  2  1  0
  2  3  1  0
  3  4  2  0
  4  5  1  0
  5  6  2  0
  6  7  1  0
  7  8  1  0
  8  9  1  0
  9 10  2  0
  9 11  1  0
 11 12  1  0
 12 13  3  0
 11 14  1  0
 14 15  2  0
 15 16  1  0
 16 17  2  0
 17 18  1  0
 18 19  2  0
 19 20  1  0
 20 21  2  0
 21 22  1  0
 22 23  2  0
 23 24  1  0
 24 25  1  0
 25 26  1  0
 26 27  1  0
 27 28  1  0
  6 29  1  0
 29 30  2  0
 30  3  1  0
 23 14  1  0
 28 24  1  0
 21 16  1  0
  1 31  1  0
  1 32  1  0
  1 33  1  0
  4 34  1  0
  5 35  1  0
  7 36  1  0
  7 37  1  0
  8 38  1  0
 11 39  1  0
 17 40  1  0
 18 41  1  0
 19 42  1  0
 20 43  1  0
 25 44  1  0
 25 45  1  0
 26 46  1  0
 26 47  1  0
 27 48  1  0
 27 49  1  0
 28 50  1  0
 28 51  1  0
 29 52  1  0
 30 53  1  0
M  END
$$$$
