
     RDKit          3D

 47 50  0  0  0  0  0  0  0  0999 V2000
   -5.6132   -0.7681    0.1987 O   0  0  0  0  0  0  0  0  0  0  0  0
   -4.5135   -0.1973    0.2927 C   0  0  0  0  0  0  0  0  0  0  0  0
   -4.2392    0.8224    1.4271 C   0  0  0  0  0  0  0  0  0  0  0  0
   -3.6597    0.2619    2.7573 C   0  0  0  0  0  0  0  0  0  0  0  0
   -5.0955    0.2163    3.3076 C   0  0  0  0  0  0  0  0  0  0  0  0
   -5.4549    1.3001    2.2774 C   0  0  0  0  0  0  0  0  0  0  0  0
   -3.5330   -0.4593   -0.6597 N   0  0  0  0  0  0  0  0  0  0  0  0
   -3.8552   -1.3543   -1.7830 C   0  0  0  0  0  0  0  0  0  0  0  0
   -2.6928   -1.2845   -2.7715 C   0  0  0  0  0  0  0  0  0  0  0  0
   -1.6484   -0.5920   -1.9552 C   0  0  0  0  0  0  0  0  0  0  0  0
   -0.3230   -0.3921   -2.3180 C   0  0  0  0  0  0  0  0  0  0  0  0
    0.4964    0.3090   -1.4330 C   0  0  0  0  0  0  0  0  0  0  0  0
    2.1898    0.6250   -1.8778 S   0  0  0  0  0  6  0  0  0  0  0  0
    2.2547    0.6417   -3.3222 O   0  0  0  0  0  0  0  0  0  0  0  0
    2.6668    1.7280   -1.0737 O   0  0  0  0  0  0  0  0  0  0  0  0
    2.9239   -0.7978   -1.3756 N   0  0  0  0  0  0  0  0  0  0  0  0
    3.6425   -0.7623   -0.0887 C   0  0  0  0  0  0  0  0  0  0  0  0
    5.0848   -0.3364   -0.2637 C   0  0  0  0  0  0  0  0  0  0  0  0
    5.7355    0.4011    0.7221 C   0  0  0  0  0  0  0  0  0  0  0  0
    7.0666    0.7558    0.5208 C   0  0  0  0  0  0  0  0  0  0  0  0
    7.7096    0.3636   -0.6488 C   0  0  0  0  0  0  0  0  0  0  0  0
    6.9938   -0.3764   -1.5750 C   0  0  0  0  0  0  0  0  0  0  0  0
    5.7037   -0.7411   -1.4092 N   0  0  0  0  0  0  0  0  0  0  0  0
   -0.0124    0.8081   -0.2246 C   0  0  0  0  0  0  0  0  0  0  0  0
   -1.3557    0.5958    0.1203 C   0  0  0  0  0  0  0  0  0  0  0  0
   -2.1758   -0.0983   -0.7540 C   0  0  0  0  0  0  0  0  0  0  0  0
   -3.7105    1.7021    1.0407 H   0  0  0  0  0  0  0  0  0  0  0  0
   -3.1541   -0.7057    2.6963 H   0  0  0  0  0  0  0  0  0  0  0  0
   -3.0091    0.9695    3.2854 H   0  0  0  0  0  0  0  0  0  0  0  0
   -5.6100   -0.7357    3.1406 H   0  0  0  0  0  0  0  0  0  0  0  0
   -5.2128    0.4992    4.3578 H   0  0  0  0  0  0  0  0  0  0  0  0
   -5.3425    2.3231    2.6542 H   0  0  0  0  0  0  0  0  0  0  0  0
   -6.4427    1.2033    1.8180 H   0  0  0  0  0  0  0  0  0  0  0  0
   -4.8047   -1.0648   -2.2456 H   0  0  0  0  0  0  0  0  0  0  0  0
   -3.9698   -2.3682   -1.3796 H   0  0  0  0  0  0  0  0  0  0  0  0
   -2.3793   -2.2787   -3.1017 H   0  0  0  0  0  0  0  0  0  0  0  0
   -2.9556   -0.6718   -3.6410 H   0  0  0  0  0  0  0  0  0  0  0  0
    0.0617   -0.7693   -3.2625 H   0  0  0  0  0  0  0  0  0  0  0  0
    3.5205   -1.1680   -2.1224 H   0  0  0  0  0  0  0  0  0  0  0  0
    3.1163   -0.1388    0.6434 H   0  0  0  0  0  0  0  0  0  0  0  0
    3.6441   -1.7816    0.3164 H   0  0  0  0  0  0  0  0  0  0  0  0
    5.2205    0.7078    1.6265 H   0  0  0  0  0  0  0  0  0  0  0  0
    7.5983    1.3405    1.2673 H   0  0  0  0  0  0  0  0  0  0  0  0
    8.7450    0.6300   -0.8347 H   0  0  0  0  0  0  0  0  0  0  0  0
    7.4534   -0.7047   -2.5042 H   0  0  0  0  0  0  0  0  0  0  0  0
    0.6306    1.3622    0.4549 H   0  0  0  0  0  0  0  0  0  0  0  0
   -1.6951    0.9805    1.0701 H   0  0  0  0  0  0  0  0  0  0  0  0
  1  2  2  0
  2  3  1  0
  3  4  1  0
  4  5  1  0
  5  6  1  0
  2  7  1  0
  7  8  1  0
  8  9  1  0
  9 10  1  0
 10 11  2  0
 11 12  1  0
 12 13  1  0
 13 14  2  0
 13 15  2  0
 13 16  1  0
 16 17  1  0
 17 18  1  0
 18 19  2  0
 19 20  1  0
 20 21  2  0
 21 22  1  0
 22 23  2  0
 12 24  2  0
 24 25  1  0
 25 26  2  0
  6  3  1  0
 26  7  1  0
 26 10  1  0
 23 18  1  0
  3 27  1  0
  4 28  1  0
  4 29  1  0
  5 30  1  0
  5 31  1  0
  6 32  1  0
  6 33  1  0
  8 34  1  0
  8 35  1  0
  9 36  1  0
  9 37  1  0
 11 38  1  0
 16 39  1  0
 17 40  1  0
 17 41  1  0
 19 42  1  0
 20 43  1  0
 21 44  1  0
 22 45  1  0
 24 46  1  0
 25 47  1  0
M  END
$$$$
