
     RDKit          3D

 51 54  0  0  0  0  0  0  0  0999 V2000
    5.5627    0.1514    2.0555 C   0  0  0  0  0  0  0  0  0  0  0  0
    4.2523    0.8787    1.8133 C   0  0  0  0  0  0  0  0  0  0  0  0
    3.1961    0.0689    2.3429 O   0  0  0  0  0  0  0  0  0  0  0  0
    1.9766    0.4903    1.8730 C   0  0  0  0  0  0  0  0  0  0  0  0
    1.3542   -0.3349    0.9316 C   0  0  0  0  0  0  0  0  0  0  0  0
    0.0942   -0.0025    0.4147 C   0  0  0  0  0  0  0  0  0  0  0  0
   -0.5757   -0.9445   -0.5871 C   0  0  0  0  0  0  0  0  0  0  0  0
   -1.5424   -1.8808    0.1567 C   0  0  0  0  0  0  0  0  0  0  0  0
   -0.9477   -3.2717    0.3313 C   0  0  0  0  0  0  0  0  0  0  0  0
    0.2376   -3.5194    0.1199 O   0  0  0  0  0  0  0  0  0  0  0  0
   -1.8693   -4.3331    0.9009 C   0  0  0  0  0  0  0  0  0  0  0  0
   -3.1899   -4.3617    0.1415 C   0  0  0  0  0  0  0  0  0  0  0  0
   -3.8629   -2.9956    0.1486 C   0  0  0  0  0  0  0  0  0  0  0  0
   -2.9183   -1.9862   -0.4738 C   0  0  0  0  0  0  0  0  0  0  0  0
   -3.3577   -1.2804   -1.4643 N   0  0  0  0  0  0  0  0  0  0  0  0
   -2.5260   -0.3901   -2.0449 C   0  0  0  0  0  0  0  0  0  0  0  0
   -2.7622    0.4215   -3.0491 N   0  0  0  0  0  0  0  0  0  0  0  0
   -1.5538    1.0554   -3.2895 C   0  0  0  0  0  0  0  0  0  0  0  0
   -1.3715    2.0530   -4.3631 C   0  0  0  0  0  0  0  0  0  0  0  0
   -2.2673    2.4136   -5.1226 O   0  0  0  0  0  0  0  0  0  0  0  0
   -0.0912    2.5415   -4.4244 O   0  0  0  0  0  0  0  0  0  0  0  0
    0.1172    3.5045   -5.4550 C   0  0  0  0  0  0  0  0  0  0  0  0
   -0.5746    0.6599   -2.4496 N   0  0  0  0  0  0  0  0  0  0  0  0
   -1.2284   -0.2115   -1.6603 N   0  0  0  0  0  0  0  0  0  0  0  0
   -0.5350    1.1594    0.8917 C   0  0  0  0  0  0  0  0  0  0  0  0
    0.0842    1.9724    1.8507 C   0  0  0  0  0  0  0  0  0  0  0  0
    1.3424    1.6422    2.3593 C   0  0  0  0  0  0  0  0  0  0  0  0
    2.0113    2.3533    3.3190 O   0  0  0  0  0  0  0  0  0  0  0  0
    1.3734    3.5095    3.8433 C   0  0  0  0  0  0  0  0  0  0  0  0
    5.7107   -0.0313    3.1250 H   0  0  0  0  0  0  0  0  0  0  0  0
    5.5572   -0.8263    1.5622 H   0  0  0  0  0  0  0  0  0  0  0  0
    6.4074    0.7334    1.6764 H   0  0  0  0  0  0  0  0  0  0  0  0
    4.2820    1.8482    2.3219 H   0  0  0  0  0  0  0  0  0  0  0  0
    4.1228    1.0392    0.7354 H   0  0  0  0  0  0  0  0  0  0  0  0
    1.8679   -1.2389    0.6074 H   0  0  0  0  0  0  0  0  0  0  0  0
    0.2101   -1.5048   -1.1108 H   0  0  0  0  0  0  0  0  0  0  0  0
   -1.7198   -1.5161    1.1791 H   0  0  0  0  0  0  0  0  0  0  0  0
   -2.0287   -4.1143    1.9622 H   0  0  0  0  0  0  0  0  0  0  0  0
   -1.3778   -5.3086    0.8240 H   0  0  0  0  0  0  0  0  0  0  0  0
   -3.0059   -4.6721   -0.8949 H   0  0  0  0  0  0  0  0  0  0  0  0
   -3.8572   -5.1046    0.5920 H   0  0  0  0  0  0  0  0  0  0  0  0
   -4.8006   -3.0313   -0.4156 H   0  0  0  0  0  0  0  0  0  0  0  0
   -4.0910   -2.6747    1.1708 H   0  0  0  0  0  0  0  0  0  0  0  0
   -0.0666    3.0606   -6.4385 H   0  0  0  0  0  0  0  0  0  0  0  0
   -0.5207    4.3802   -5.2984 H   0  0  0  0  0  0  0  0  0  0  0  0
    1.1613    3.8265   -5.4121 H   0  0  0  0  0  0  0  0  0  0  0  0
   -1.5161    1.4558    0.5233 H   0  0  0  0  0  0  0  0  0  0  0  0
   -0.4499    2.8575    2.1812 H   0  0  0  0  0  0  0  0  0  0  0  0
    0.4329    3.2509    4.3409 H   0  0  0  0  0  0  0  0  0  0  0  0
    2.0381    3.9458    4.5952 H   0  0  0  0  0  0  0  0  0  0  0  0
    1.2156    4.2615    3.0631 H   0  0  0  0  0  0  0  0  0  0  0  0
  1  2  1  0
  2  3  1  0
  3  4  1  0
  4  5  2  0
  5  6  1  0
  6  7  1  0
  7  8  1  0
  8  9  1  0
  9 10  2  0
  9 11  1  0
 11 12  1  0
 12 13  1  0
 13 14  1  0
 14 15  2  0
 15 16  1  0
 16 17  2  0
 17 18  1  0
 18 19  1  0
 19 20  2  0
 19 21  1  0
 21 22  1  0
 18 23  2  0
 23 24  1  0
  6 25  2  0
 25 26  1  0
 26 27  2  0
 27 28  1  0
 28 29  1  0
 27  4  1  0
 24  7  1  0
 14  8  1  0
 24 16  1  0
  1 30  1  0
  1 31  1  0
  1 32  1  0
  2 33  1  0
  2 34  1  0
  5 35  1  0
  7 36  1  0
  8 37  1  0
 11 38  1  0
 11 39  1  0
 12 40  1  0
 12 41  1  0
 13 42  1  0
 13 43  1  0
 22 44  1  0
 22 45  1  0
 22 46  1  0
 25 47  1  0
 26 48  1  0
 29 49  1  0
 29 50  1  0
 29 51  1  0
M  END
$$$$
