
     RDKit          3D

 48 50  0  0  0  0  0  0  0  0999 V2000
    4.2899    0.6343    1.0597 C   0  0  0  0  0  0  0  0  0  0  0  0
    3.9216    0.0543   -0.2578 C   0  0  0  0  0  0  0  0  0  0  0  0
    4.5909    0.2501   -1.4617 C   0  0  0  0  0  0  0  0  0  0  0  0
    5.7658    1.0262   -1.7707 C   0  0  0  0  0  0  0  0  0  0  0  0
    6.4367    1.7012   -1.0022 O   0  0  0  0  0  0  0  0  0  0  0  0
    6.1040    0.9533   -3.0777 O   0  0  0  0  0  0  0  0  0  0  0  0
    3.9615   -0.4452   -2.4595 O   0  0  0  0  0  0  0  0  0  0  0  0
    2.8989   -1.0841   -1.9086 C   0  0  0  0  0  0  0  0  0  0  0  0
    2.0078   -1.9022   -2.6017 C   0  0  0  0  0  0  0  0  0  0  0  0
    0.9711   -2.4712   -1.8564 C   0  0  0  0  0  0  0  0  0  0  0  0
    0.8547   -2.2090   -0.4858 C   0  0  0  0  0  0  0  0  0  0  0  0
   -0.4799   -2.9535    0.4217 S   0  0  0  0  0  6  0  0  0  0  0  0
   -0.2648   -2.7325    1.8340 O   0  0  0  0  0  0  0  0  0  0  0  0
   -0.6948   -4.2761   -0.1215 O   0  0  0  0  0  0  0  0  0  0  0  0
   -1.7808   -2.0230   -0.0659 N   0  0  0  0  0  0  0  0  0  0  0  0
   -1.9970   -0.6787    0.4992 C   0  0  0  0  0  0  0  0  0  0  0  0
   -3.0573   -0.8062    1.6016 C   0  0  0  0  0  0  0  0  0  0  0  0
   -2.9059    0.1652    2.7748 C   0  0  0  0  0  0  0  0  0  0  0  0
   -2.7826    1.6520    2.4473 C   0  0  0  0  0  0  0  0  0  0  0  0
   -3.7859    2.1463    1.4086 C   0  0  0  0  0  0  0  0  0  0  0  0
   -3.1565    2.5922    0.0904 C   0  0  0  0  0  0  0  0  0  0  0  0
   -2.0676    1.7030   -0.5105 C   0  0  0  0  0  0  0  0  0  0  0  0
   -2.4235    0.2257   -0.6768 C   0  0  0  0  0  0  0  0  0  0  0  0
    1.7747   -1.3909    0.1920 C   0  0  0  0  0  0  0  0  0  0  0  0
    2.8217   -0.8108   -0.5490 C   0  0  0  0  0  0  0  0  0  0  0  0
    5.2947    0.3129    1.3520 H   0  0  0  0  0  0  0  0  0  0  0  0
    4.2735    1.7280    1.0144 H   0  0  0  0  0  0  0  0  0  0  0  0
    3.5964    0.3216    1.8461 H   0  0  0  0  0  0  0  0  0  0  0  0
    6.9030    1.5130   -3.1410 H   0  0  0  0  0  0  0  0  0  0  0  0
    2.1222   -2.0854   -3.6636 H   0  0  0  0  0  0  0  0  0  0  0  0
    0.2531   -3.1218   -2.3531 H   0  0  0  0  0  0  0  0  0  0  0  0
   -2.5624   -2.5425   -0.4615 H   0  0  0  0  0  0  0  0  0  0  0  0
   -1.0521   -0.3138    0.9166 H   0  0  0  0  0  0  0  0  0  0  0  0
   -4.0636   -0.7322    1.1727 H   0  0  0  0  0  0  0  0  0  0  0  0
   -3.0180   -1.8146    2.0371 H   0  0  0  0  0  0  0  0  0  0  0  0
   -3.7724    0.0261    3.4346 H   0  0  0  0  0  0  0  0  0  0  0  0
   -2.0301   -0.1279    3.3677 H   0  0  0  0  0  0  0  0  0  0  0  0
   -1.7523    1.8853    2.1605 H   0  0  0  0  0  0  0  0  0  0  0  0
   -2.9475    2.2055    3.3812 H   0  0  0  0  0  0  0  0  0  0  0  0
   -4.5666    1.4041    1.2137 H   0  0  0  0  0  0  0  0  0  0  0  0
   -4.3185    3.0122    1.8240 H   0  0  0  0  0  0  0  0  0  0  0  0
   -3.9607    2.7170   -0.6460 H   0  0  0  0  0  0  0  0  0  0  0  0
   -2.7264    3.5923    0.2321 H   0  0  0  0  0  0  0  0  0  0  0  0
   -1.1293    1.8114    0.0451 H   0  0  0  0  0  0  0  0  0  0  0  0
   -1.8530    2.1086   -1.5088 H   0  0  0  0  0  0  0  0  0  0  0  0
   -3.4878    0.1021   -0.9112 H   0  0  0  0  0  0  0  0  0  0  0  0
   -1.8867   -0.1150   -1.5742 H   0  0  0  0  0  0  0  0  0  0  0  0
    1.6818   -1.2075    1.2588 H   0  0  0  0  0  0  0  0  0  0  0  0
  1  2  1  0
  2  3  2  0
  3  4  1  0
  4  5  2  0
  4  6  1  0
  3  7  1  0
  7  8  1  0
  8  9  2  0
  9 10  1  0
 10 11  2  0
 11 12  1  0
 12 13  2  0
 12 14  2  0
 12 15  1  0
 15 16  1  0
 16 17  1  0
 17 18  1  0
 18 19  1  0
 19 20  1  0
 20 21  1  0
 21 22  1  0
 22 23  1  0
 11 24  1  0
 24 25  2  0
 25  2  1  0
 25  8  1  0
 23 16  1  0
  1 26  1  0
  1 27  1  0
  1 28  1  0
  6 29  1  0
  9 30  1  0
 10 31  1  0
 15 32  1  0
 16 33  1  0
 17 34  1  0
 17 35  1  0
 18 36  1  0
 18 37  1  0
 19 38  1  0
 19 39  1  0
 20 40  1  0
 20 41  1  0
 21 42  1  0
 21 43  1  0
 22 44  1  0
 22 45  1  0
 23 46  1  0
 23 47  1  0
 24 48  1  0
M  END
$$$$
