
     RDKit          3D

 41 42  0  0  0  0  0  0  0  0999 V2000
   -7.1121    0.1170    0.6540 C   0  0  0  0  0  0  0  0  0  0  0  0
   -6.1894   -0.1608   -0.3887 O   0  0  0  0  0  0  0  0  0  0  0  0
   -4.8926   -0.4369   -0.0333 C   0  0  0  0  0  0  0  0  0  0  0  0
   -4.4243   -0.4867    1.2832 C   0  0  0  0  0  0  0  0  0  0  0  0
   -3.0829   -0.7788    1.5497 C   0  0  0  0  0  0  0  0  0  0  0  0
   -2.1889   -1.0357    0.5050 C   0  0  0  0  0  0  0  0  0  0  0  0
   -0.7457   -1.3818    0.7927 C   0  0  0  0  0  0  0  0  0  0  0  0
    0.2590   -0.3289    0.3705 C   0  0  0  0  0  0  0  0  0  0  0  0
    0.0029    0.7003   -0.2416 O   0  0  0  0  0  0  0  0  0  0  0  0
    1.5045   -0.7527    0.7880 O   0  0  0  0  0  0  0  0  0  0  0  0
    2.4904    0.1524    0.3532 N   0  0  0  0  0  0  0  0  0  0  0  0
    3.6793   -0.2106    0.7349 C   0  0  0  0  0  0  0  0  0  0  0  0
    3.9184   -1.3327    1.4981 N   0  0  0  0  0  0  0  0  0  0  0  0
    4.8380    0.6534    0.3339 C   0  0  0  0  0  0  0  0  0  0  0  0
    6.1444    0.1474    0.3436 C   0  0  0  0  0  0  0  0  0  0  0  0
    7.2157    0.9653   -0.0244 C   0  0  0  0  0  0  0  0  0  0  0  0
    6.9873    2.2871   -0.4061 C   0  0  0  0  0  0  0  0  0  0  0  0
    5.6883    2.7930   -0.4278 C   0  0  0  0  0  0  0  0  0  0  0  0
    4.6148    1.9785   -0.0618 C   0  0  0  0  0  0  0  0  0  0  0  0
   -2.6583   -0.9837   -0.8165 C   0  0  0  0  0  0  0  0  0  0  0  0
   -3.9960   -0.6720   -1.0918 C   0  0  0  0  0  0  0  0  0  0  0  0
   -4.5149   -0.6152   -2.3630 O   0  0  0  0  0  0  0  0  0  0  0  0
   -3.5965   -0.2909   -3.3993 C   0  0  0  0  0  0  0  0  0  0  0  0
   -7.2346   -0.7480    1.3140 H   0  0  0  0  0  0  0  0  0  0  0  0
   -8.0836    0.3237    0.1947 H   0  0  0  0  0  0  0  0  0  0  0  0
   -6.8155    1.0075    1.2180 H   0  0  0  0  0  0  0  0  0  0  0  0
   -5.0786   -0.3016    2.1281 H   0  0  0  0  0  0  0  0  0  0  0  0
   -2.7490   -0.8075    2.5847 H   0  0  0  0  0  0  0  0  0  0  0  0
   -0.5036   -2.3185    0.2761 H   0  0  0  0  0  0  0  0  0  0  0  0
   -0.6200   -1.5536    1.8687 H   0  0  0  0  0  0  0  0  0  0  0  0
    4.6648   -1.2386    2.1783 H   0  0  0  0  0  0  0  0  0  0  0  0
    3.0701   -1.6955    1.9178 H   0  0  0  0  0  0  0  0  0  0  0  0
    6.3406   -0.8871    0.6095 H   0  0  0  0  0  0  0  0  0  0  0  0
    8.2281    0.5690   -0.0227 H   0  0  0  0  0  0  0  0  0  0  0  0
    7.8212    2.9217   -0.6960 H   0  0  0  0  0  0  0  0  0  0  0  0
    5.5076    3.8205   -0.7338 H   0  0  0  0  0  0  0  0  0  0  0  0
    3.6051    2.3839   -0.0868 H   0  0  0  0  0  0  0  0  0  0  0  0
   -1.9629   -1.1923   -1.6241 H   0  0  0  0  0  0  0  0  0  0  0  0
   -2.9774   -1.1572   -3.6529 H   0  0  0  0  0  0  0  0  0  0  0  0
   -4.1768   -0.0270   -4.2887 H   0  0  0  0  0  0  0  0  0  0  0  0
   -2.9769    0.5737   -3.1374 H   0  0  0  0  0  0  0  0  0  0  0  0
  1  2  1  0
  2  3  1  0
  3  4  2  0
  4  5  1  0
  5  6  2  0
  6  7  1  0
  7  8  1  0
  8  9  2  0
  8 10  1  0
 10 11  1  0
 11 12  2  3
 12 13  1  0
 12 14  1  0
 14 15  2  0
 15 16  1  0
 16 17  2  0
 17 18  1  0
 18 19  2  0
  6 20  1  0
 20 21  2  0
 21 22  1  0
 22 23  1  0
 21  3  1  0
 19 14  1  0
  1 24  1  0
  1 25  1  0
  1 26  1  0
  4 27  1  0
  5 28  1  0
  7 29  1  0
  7 30  1  0
 13 31  1  0
 13 32  1  0
 15 33  1  0
 16 34  1  0
 17 35  1  0
 18 36  1  0
 19 37  1  0
 20 38  1  0
 23 39  1  0
 23 40  1  0
 23 41  1  0
M  END
$$$$
