
     RDKit          3D

 54 57  0  0  0  0  0  0  0  0999 V2000
    8.4236   -1.7697   -0.1513 C   0  0  0  0  0  0  0  0  0  0  0  0
    7.0812   -1.3938   -0.4286 O   0  0  0  0  0  0  0  0  0  0  0  0
    6.1936   -1.4378    0.6125 C   0  0  0  0  0  0  0  0  0  0  0  0
    6.4854   -1.8393    1.9153 C   0  0  0  0  0  0  0  0  0  0  0  0
    5.4813   -1.8420    2.8835 C   0  0  0  0  0  0  0  0  0  0  0  0
    4.1856   -1.4424    2.5516 C   0  0  0  0  0  0  0  0  0  0  0  0
    3.8780   -1.0321    1.2490 C   0  0  0  0  0  0  0  0  0  0  0  0
    2.5416   -0.6500    0.9967 N   0  0  0  0  0  0  0  0  0  0  0  0
    2.0206   -0.1453   -0.1801 C   0  0  0  0  0  0  0  0  0  0  0  0
    2.6535    0.1473   -1.1891 O   0  0  0  0  0  0  0  0  0  0  0  0
    0.5500    0.1265   -0.1422 C   0  0  0  0  0  0  0  0  0  0  0  0
   -0.3003   -0.6613    0.5387 C   0  0  0  0  0  0  0  0  0  0  0  0
   -1.7319   -0.4071    0.6076 C   0  0  0  0  0  0  0  0  0  0  0  0
   -2.5900   -1.3012    1.4359 C   0  0  0  0  0  0  0  0  0  0  0  0
   -2.0719   -2.2208    2.0746 O   0  0  0  0  0  0  0  0  0  0  0  0
   -3.9430   -1.0184    1.4364 N   0  0  0  0  0  0  0  0  0  0  0  0
   -4.8127   -1.8200    2.1684 C   0  0  0  0  0  0  0  0  0  0  0  0
   -6.1285   -1.5772    2.2096 C   0  0  0  0  0  0  0  0  0  0  0  0
   -6.6732   -0.4603    1.4852 C   0  0  0  0  0  0  0  0  0  0  0  0
   -5.8719    0.3387    0.7707 C   0  0  0  0  0  0  0  0  0  0  0  0
   -4.4066    0.0701    0.7221 C   0  0  0  0  0  0  0  0  0  0  0  0
   -3.6563    0.8599    0.0249 N   0  0  0  0  0  0  0  0  0  0  0  0
   -2.3015    0.6273   -0.0511 C   0  0  0  0  0  0  0  0  0  0  0  0
   -1.4701    1.4664   -0.8313 N   0  0  0  0  0  0  0  0  0  0  0  0
   -2.0604    2.5823   -1.5991 C   0  0  0  0  0  0  0  0  0  0  0  0
   -2.2651    2.2290   -3.0869 C   0  0  0  0  0  0  0  0  0  0  0  0
   -3.3373    1.1576   -3.2939 C   0  0  0  0  0  0  0  0  0  0  0  0
   -2.6432    3.4905   -3.8677 C   0  0  0  0  0  0  0  0  0  0  0  0
   -0.0855    1.2510   -0.9262 C   0  0  0  0  0  0  0  0  0  0  0  0
    0.6458    2.0204   -1.6840 N   0  0  0  0  0  0  0  0  0  0  0  0
    4.8901   -1.0375    0.2867 C   0  0  0  0  0  0  0  0  0  0  0  0
    8.8745   -1.1048    0.5928 H   0  0  0  0  0  0  0  0  0  0  0  0
    8.4828   -2.8162    0.1654 H   0  0  0  0  0  0  0  0  0  0  0  0
    8.9972   -1.6697   -1.0778 H   0  0  0  0  0  0  0  0  0  0  0  0
    7.4804   -2.1568    2.2080 H   0  0  0  0  0  0  0  0  0  0  0  0
    5.7088   -2.1567    3.8989 H   0  0  0  0  0  0  0  0  0  0  0  0
    3.4251   -1.4564    3.3281 H   0  0  0  0  0  0  0  0  0  0  0  0
    1.9232   -0.7037    1.7952 H   0  0  0  0  0  0  0  0  0  0  0  0
    0.0517   -1.5439    1.0664 H   0  0  0  0  0  0  0  0  0  0  0  0
   -4.3784   -2.6577    2.7088 H   0  0  0  0  0  0  0  0  0  0  0  0
   -6.8002   -2.2084    2.7826 H   0  0  0  0  0  0  0  0  0  0  0  0
   -7.7428   -0.2825    1.5325 H   0  0  0  0  0  0  0  0  0  0  0  0
   -6.2412    1.1893    0.2114 H   0  0  0  0  0  0  0  0  0  0  0  0
   -3.0117    2.9088   -1.1600 H   0  0  0  0  0  0  0  0  0  0  0  0
   -1.4072    3.4609   -1.5119 H   0  0  0  0  0  0  0  0  0  0  0  0
   -1.3274    1.8470   -3.5080 H   0  0  0  0  0  0  0  0  0  0  0  0
   -3.4993    0.9733   -4.3616 H   0  0  0  0  0  0  0  0  0  0  0  0
   -4.2944    1.4617   -2.8572 H   0  0  0  0  0  0  0  0  0  0  0  0
   -3.0396    0.2057   -2.8442 H   0  0  0  0  0  0  0  0  0  0  0  0
   -3.5829    3.9179   -3.5015 H   0  0  0  0  0  0  0  0  0  0  0  0
   -2.7646    3.2677   -4.9332 H   0  0  0  0  0  0  0  0  0  0  0  0
   -1.8635    4.2539   -3.7749 H   0  0  0  0  0  0  0  0  0  0  0  0
    1.6289    1.6979   -1.6893 H   0  0  0  0  0  0  0  0  0  0  0  0
    4.6998   -0.7379   -0.7394 H   0  0  0  0  0  0  0  0  0  0  0  0
  1  2  1  0
  2  3  1  0
  3  4  2  0
  4  5  1  0
  5  6  2  0
  6  7  1  0
  7  8  1  0
  8  9  1  0
  9 10  2  0
  9 11  1  0
 11 12  2  0
 12 13  1  0
 13 14  1  0
 14 15  2  0
 14 16  1  0
 16 17  1  0
 17 18  2  0
 18 19  1  0
 19 20  2  0
 20 21  1  0
 21 22  2  0
 22 23  1  0
 23 24  1  0
 24 25  1  0
 25 26  1  0
 26 27  1  0
 26 28  1  0
 24 29  1  0
 29 30  2  3
  7 31  2  0
 31  3  1  0
 29 11  1  0
 23 13  2  0
 21 16  1  0
  1 32  1  0
  1 33  1  0
  1 34  1  0
  4 35  1  0
  5 36  1  0
  6 37  1  0
  8 38  1  0
 12 39  1  0
 17 40  1  0
 18 41  1  0
 19 42  1  0
 20 43  1  0
 25 44  1  0
 25 45  1  0
 26 46  1  0
 27 47  1  0
 27 48  1  0
 27 49  1  0
 28 50  1  0
 28 51  1  0
 28 52  1  0
 30 53  1  0
 31 54  1  0
M  END
$$$$
