
     RDKit          3D

 54 57  0  0  0  0  0  0  0  0999 V2000
   -8.1098    0.8910    2.1021 C   0  0  0  0  0  0  0  0  0  0  0  0
   -7.3520    0.8235    0.9005 O   0  0  0  0  0  0  0  0  0  0  0  0
   -6.0257    0.5176    1.0251 C   0  0  0  0  0  0  0  0  0  0  0  0
   -5.3205    0.4691   -0.1781 C   0  0  0  0  0  0  0  0  0  0  0  0
   -3.9524    0.1664   -0.2052 C   0  0  0  0  0  0  0  0  0  0  0  0
   -3.2673   -0.1027    0.9819 C   0  0  0  0  0  0  0  0  0  0  0  0
   -1.8724   -0.4167    1.0211 N   0  0  0  0  0  0  0  0  0  0  0  0
   -1.2338   -0.4216    2.2293 N   0  0  0  0  0  0  0  0  0  0  0  0
    0.0474   -0.6524    1.9557 C   0  0  0  0  0  0  0  0  0  0  0  0
    0.2752   -0.8374    0.5885 C   0  0  0  0  0  0  0  0  0  0  0  0
   -0.9773   -0.7385    0.0077 C   0  0  0  0  0  0  0  0  0  0  0  0
   -1.2537   -0.9853   -1.4392 C   0  0  0  0  0  0  0  0  0  0  0  0
   -0.0658   -1.7292   -2.1282 C   0  0  0  0  0  0  0  0  0  0  0  0
   -0.1162   -3.2370   -1.8069 C   0  0  0  0  0  0  0  0  0  0  0  0
   -0.1993   -1.5647   -3.6542 C   0  0  0  0  0  0  0  0  0  0  0  0
    1.2931   -1.1183   -1.6756 C   0  0  0  0  0  0  0  0  0  0  0  0
    1.5255   -1.1755   -0.1471 C   0  0  0  0  0  0  0  0  0  0  0  0
    2.5553   -0.2424    0.2490 N   0  0  0  0  0  0  0  0  0  0  0  0
    3.8959   -0.5086    0.0783 C   0  0  0  0  0  0  0  0  0  0  0  0
    4.3383   -1.5830   -0.3095 O   0  0  0  0  0  0  0  0  0  0  0  0
    4.7955    0.6350    0.3949 C   0  0  0  0  0  0  0  0  0  0  0  0
    6.1695    0.4882    0.2993 C   0  0  0  0  0  0  0  0  0  0  0  0
    7.0255    1.5056    0.5761 N   0  0  0  0  0  0  0  0  0  0  0  0
    6.4528    2.6768    0.9531 C   0  0  0  0  0  0  0  0  0  0  0  0
    7.3545    3.8277    1.2722 C   0  0  0  0  0  0  0  0  0  0  0  0
    5.0687    2.8131    1.0442 C   0  0  0  0  0  0  0  0  0  0  0  0
    4.2046    1.8067    0.7686 N   0  0  0  0  0  0  0  0  0  0  0  0
   -3.9796   -0.0355    2.1929 C   0  0  0  0  0  0  0  0  0  0  0  0
   -5.3477    0.2667    2.2141 C   0  0  0  0  0  0  0  0  0  0  0  0
   -8.1251   -0.0766    2.6148 H   0  0  0  0  0  0  0  0  0  0  0  0
   -9.1405    1.1417    1.8334 H   0  0  0  0  0  0  0  0  0  0  0  0
   -7.7358    1.6824    2.7602 H   0  0  0  0  0  0  0  0  0  0  0  0
   -5.8410    0.6797   -1.1100 H   0  0  0  0  0  0  0  0  0  0  0  0
   -3.4686    0.1892   -1.1717 H   0  0  0  0  0  0  0  0  0  0  0  0
    0.7606   -0.6885    2.7697 H   0  0  0  0  0  0  0  0  0  0  0  0
   -1.3972   -0.0134   -1.9278 H   0  0  0  0  0  0  0  0  0  0  0  0
   -2.1678   -1.5757   -1.5681 H   0  0  0  0  0  0  0  0  0  0  0  0
    0.7277   -3.7634   -2.2672 H   0  0  0  0  0  0  0  0  0  0  0  0
   -1.0375   -3.6889   -2.1920 H   0  0  0  0  0  0  0  0  0  0  0  0
   -0.0835   -3.4363   -0.7314 H   0  0  0  0  0  0  0  0  0  0  0  0
    0.6060   -2.0893   -4.1807 H   0  0  0  0  0  0  0  0  0  0  0  0
   -1.1529   -1.9679   -4.0131 H   0  0  0  0  0  0  0  0  0  0  0  0
   -0.1536   -0.5093   -3.9454 H   0  0  0  0  0  0  0  0  0  0  0  0
    2.1260   -1.6184   -2.1872 H   0  0  0  0  0  0  0  0  0  0  0  0
    1.3284   -0.0694   -2.0057 H   0  0  0  0  0  0  0  0  0  0  0  0
    1.8464   -2.1866    0.1321 H   0  0  0  0  0  0  0  0  0  0  0  0
    2.3098    0.7206    0.4658 H   0  0  0  0  0  0  0  0  0  0  0  0
    6.6263   -0.4487   -0.0015 H   0  0  0  0  0  0  0  0  0  0  0  0
    8.4048    3.5464    1.1445 H   0  0  0  0  0  0  0  0  0  0  0  0
    7.1439    4.6699    0.6058 H   0  0  0  0  0  0  0  0  0  0  0  0
    7.2104    4.1448    2.3096 H   0  0  0  0  0  0  0  0  0  0  0  0
    4.6123    3.7506    1.3464 H   0  0  0  0  0  0  0  0  0  0  0  0
   -3.4821   -0.2285    3.1428 H   0  0  0  0  0  0  0  0  0  0  0  0
   -5.8452    0.2971    3.1776 H   0  0  0  0  0  0  0  0  0  0  0  0
  1  2  1  0
  2  3  1  0
  3  4  2  0
  4  5  1  0
  5  6  2  0
  6  7  1  0
  7  8  1  0
  8  9  2  0
  9 10  1  0
 10 11  2  0
 11 12  1  0
 12 13  1  0
 13 14  1  0
 13 15  1  0
 13 16  1  0
 16 17  1  0
 17 18  1  0
 18 19  1  0
 19 20  2  0
 19 21  1  0
 21 22  2  0
 22 23  1  0
 23 24  2  0
 24 25  1  0
 24 26  1  0
 26 27  2  0
  6 28  1  0
 28 29  2  0
 29  3  1  0
 11  7  1  0
 27 21  1  0
 17 10  1  0
  1 30  1  0
  1 31  1  0
  1 32  1  0
  4 33  1  0
  5 34  1  0
  9 35  1  0
 12 36  1  0
 12 37  1  0
 14 38  1  0
 14 39  1  0
 14 40  1  0
 15 41  1  0
 15 42  1  0
 15 43  1  0
 16 44  1  0
 16 45  1  0
 17 46  1  0
 18 47  1  0
 22 48  1  0
 25 49  1  0
 25 50  1  0
 25 51  1  0
 26 52  1  0
 28 53  1  0
 29 54  1  0
M  END
$$$$
