
     RDKit          3D

 40 40  0  0  0  0  0  0  0  0999 V2000
   -4.8437    0.8052   -2.1017 C   0  0  0  0  0  0  0  0  0  0  0  0
   -5.0670    0.2033   -0.7057 C   0  0  0  0  0  0  0  0  0  0  0  0
   -5.4799   -1.2716   -0.8292 C   0  0  0  0  0  0  0  0  0  0  0  0
   -6.2080    0.9737   -0.0182 C   0  0  0  0  0  0  0  0  0  0  0  0
   -3.8623    0.3391    0.1186 N   0  0  0  0  0  0  0  0  0  0  0  0
   -2.6313   -0.2088   -0.1676 C   0  0  0  0  0  0  0  0  0  0  0  0
   -2.3377   -0.8954   -1.1340 O   0  0  0  0  0  0  0  0  0  0  0  0
   -1.5561    0.1272    0.8847 C   0  0  0  0  0  0  0  0  0  0  0  0
   -1.8191    0.8386    1.8477 O   0  0  0  0  0  0  0  0  0  0  0  0
   -0.3230   -0.4294    0.6173 N   0  0  0  0  0  0  0  0  0  0  0  0
    0.7857    0.0370    1.3468 N   0  0  0  0  0  0  0  0  0  0  0  0
    1.9314    0.3405    0.6236 C   0  0  0  0  0  0  0  0  0  0  0  0
    2.0568    0.0426   -0.5616 O   0  0  0  0  0  0  0  0  0  0  0  0
    2.9948    1.0551    1.4634 C   0  0  0  0  0  0  0  0  0  0  0  0
    4.2235    1.3261    0.8127 O   0  0  0  0  0  0  0  0  0  0  0  0
    5.1713    0.3409    0.8031 C   0  0  0  0  0  0  0  0  0  0  0  0
    6.4494    0.7666    0.4306 C   0  0  0  0  0  0  0  0  0  0  0  0
    7.5141   -0.1347    0.3791 C   0  0  0  0  0  0  0  0  0  0  0  0
    7.3036   -1.4746    0.6933 C   0  0  0  0  0  0  0  0  0  0  0  0
    6.0293   -1.9096    1.0525 C   0  0  0  0  0  0  0  0  0  0  0  0
    4.9633   -1.0054    1.1052 C   0  0  0  0  0  0  0  0  0  0  0  0
   -5.7649    0.7807   -2.6950 H   0  0  0  0  0  0  0  0  0  0  0  0
   -4.0787    0.2593   -2.6635 H   0  0  0  0  0  0  0  0  0  0  0  0
   -4.5150    1.8486   -2.0322 H   0  0  0  0  0  0  0  0  0  0  0  0
   -4.7280   -1.8626   -1.3622 H   0  0  0  0  0  0  0  0  0  0  0  0
   -5.6121   -1.7271    0.1590 H   0  0  0  0  0  0  0  0  0  0  0  0
   -6.4241   -1.3739   -1.3763 H   0  0  0  0  0  0  0  0  0  0  0  0
   -5.9559    2.0353    0.0918 H   0  0  0  0  0  0  0  0  0  0  0  0
   -7.1396    0.9073   -0.5916 H   0  0  0  0  0  0  0  0  0  0  0  0
   -6.4019    0.5801    0.9867 H   0  0  0  0  0  0  0  0  0  0  0  0
   -3.9034    0.8971    0.9687 H   0  0  0  0  0  0  0  0  0  0  0  0
   -0.1440   -0.8026   -0.3201 H   0  0  0  0  0  0  0  0  0  0  0  0
    0.5608    0.5485    2.2002 H   0  0  0  0  0  0  0  0  0  0  0  0
    3.1495    0.5237    2.4110 H   0  0  0  0  0  0  0  0  0  0  0  0
    2.5689    2.0309    1.7280 H   0  0  0  0  0  0  0  0  0  0  0  0
    6.6168    1.8109    0.1787 H   0  0  0  0  0  0  0  0  0  0  0  0
    8.5029    0.2101    0.0892 H   0  0  0  0  0  0  0  0  0  0  0  0
    8.1284   -2.1808    0.6495 H   0  0  0  0  0  0  0  0  0  0  0  0
    5.8605   -2.9585    1.2829 H   0  0  0  0  0  0  0  0  0  0  0  0
    3.9848   -1.3935    1.3640 H   0  0  0  0  0  0  0  0  0  0  0  0
  1  2  1  0
  2  3  1  0
  2  4  1  0
  2  5  1  0
  5  6  1  0
  6  7  2  0
  6  8  1  0
  8  9  2  0
  8 10  1  0
 10 11  1  0
 11 12  1  0
 12 13  2  0
 12 14  1  0
 14 15  1  0
 15 16  1  0
 16 17  2  0
 17 18  1  0
 18 19  2  0
 19 20  1  0
 20 21  2  0
 21 16  1  0
  1 22  1  0
  1 23  1  0
  1 24  1  0
  3 25  1  0
  3 26  1  0
  3 27  1  0
  4 28  1  0
  4 29  1  0
  4 30  1  0
  5 31  1  0
 10 32  1  0
 11 33  1  0
 14 34  1  0
 14 35  1  0
 17 36  1  0
 18 37  1  0
 19 38  1  0
 20 39  1  0
 21 40  1  0
M  END
$$$$
