
     RDKit          3D

 40 41  0  0  0  0  0  0  0  0999 V2000
    1.9189   -0.6339    0.7762 O   0  0  0  0  0  0  0  0  0  0  0  0
    1.8730    0.5763    0.6390 C   0  0  0  0  0  0  0  0  0  0  0  0
    2.7315    1.2290   -0.1687 O   0  0  0  0  0  0  0  0  0  0  0  0
    0.8328    1.4947    1.2132 C   0  0  0  0  0  0  0  0  0  0  0  0
   -0.5705    1.2593    0.6340 C   0  0  0  0  0  0  0  0  0  0  0  0
   -1.4301    0.5676    1.6319 N   0  0  0  0  0  0  0  0  0  0  0  0
   -2.1004    1.5078    2.5324 C   0  0  0  0  0  0  0  0  0  0  0  0
   -2.9555    0.7824    3.5108 C   0  0  0  0  0  0  0  0  0  0  0  0
   -2.7862   -0.3662    4.2576 C   0  0  0  0  0  0  0  0  0  0  0  0
   -3.9719   -0.5328    5.0125 C   0  0  0  0  0  0  0  0  0  0  0  0
   -4.7883    0.5226    4.6810 C   0  0  0  0  0  0  0  0  0  0  0  0
   -4.1799    1.3281    3.7727 O   0  0  0  0  0  0  0  0  0  0  0  0
   -0.5871    0.4569   -0.6878 C   0  0  0  0  0  0  0  0  0  0  0  0
   -1.2841   -0.5284   -0.9010 O   0  0  0  0  0  0  0  0  0  0  0  0
    0.2298    1.0374   -1.6110 O   0  0  0  0  0  0  0  0  0  0  0  0
    0.4117    0.3022   -2.8372 C   0  0  0  0  0  0  0  0  0  0  0  0
    1.3917   -0.8602   -2.6419 C   0  0  0  0  0  0  0  0  0  0  0  0
    1.5520   -1.7187   -3.8842 C   0  0  0  0  0  0  0  0  0  0  0  0
    2.9067   -2.3377   -3.6492 C   0  0  0  0  0  0  0  0  0  0  0  0
    3.6750   -1.1918   -3.0261 C   0  0  0  0  0  0  0  0  0  0  0  0
    2.7218   -0.3669   -2.3319 O   0  0  0  0  0  0  0  0  0  0  0  0
    3.0910    0.5305   -0.7702 H   0  0  0  0  0  0  0  0  0  0  0  0
    1.1286    2.5324    1.0048 H   0  0  0  0  0  0  0  0  0  0  0  0
    0.8670    1.4043    2.3054 H   0  0  0  0  0  0  0  0  0  0  0  0
   -1.0332    2.2238    0.3845 H   0  0  0  0  0  0  0  0  0  0  0  0
   -2.1457    0.0307    1.1301 H   0  0  0  0  0  0  0  0  0  0  0  0
   -1.3626    2.0965    3.0890 H   0  0  0  0  0  0  0  0  0  0  0  0
   -2.7207    2.2043    1.9552 H   0  0  0  0  0  0  0  0  0  0  0  0
   -1.9118   -1.0026    4.2450 H   0  0  0  0  0  0  0  0  0  0  0  0
   -4.2044   -1.3257    5.7091 H   0  0  0  0  0  0  0  0  0  0  0  0
   -5.7799    0.8280    4.9864 H   0  0  0  0  0  0  0  0  0  0  0  0
    0.8192    1.0179   -3.5593 H   0  0  0  0  0  0  0  0  0  0  0  0
   -0.5567   -0.0409   -3.2199 H   0  0  0  0  0  0  0  0  0  0  0  0
    1.0919   -1.4814   -1.7902 H   0  0  0  0  0  0  0  0  0  0  0  0
    1.5816   -1.0992   -4.7890 H   0  0  0  0  0  0  0  0  0  0  0  0
    0.7524   -2.4559   -3.9971 H   0  0  0  0  0  0  0  0  0  0  0  0
    3.3782   -2.7233   -4.5569 H   0  0  0  0  0  0  0  0  0  0  0  0
    2.8198   -3.1628   -2.9321 H   0  0  0  0  0  0  0  0  0  0  0  0
    4.1522   -0.5711   -3.7918 H   0  0  0  0  0  0  0  0  0  0  0  0
    4.4423   -1.5331   -2.3254 H   0  0  0  0  0  0  0  0  0  0  0  0
  1  2  2  0
  2  3  1  0
  2  4  1  0
  4  5  1  0
  5  6  1  0
  6  7  1  0
  7  8  1  0
  8  9  2  0
  9 10  1  0
 10 11  2  0
 11 12  1  0
  5 13  1  0
 13 14  2  0
 13 15  1  0
 15 16  1  0
 16 17  1  0
 17 18  1  0
 18 19  1  0
 19 20  1  0
 20 21  1  0
 12  8  1  0
 21 17  1  0
  3 22  1  0
  4 23  1  0
  4 24  1  0
  5 25  1  0
  6 26  1  0
  7 27  1  0
  7 28  1  0
  9 29  1  0
 10 30  1  0
 11 31  1  0
 16 32  1  0
 16 33  1  0
 17 34  1  0
 18 35  1  0
 18 36  1  0
 19 37  1  0
 19 38  1  0
 20 39  1  0
 20 40  1  0
M  END
$$$$
