
     RDKit          3D

 50 52  0  0  0  0  0  0  0  0999 V2000
    3.2474    1.0718    0.2210 O   0  0  0  0  0  0  0  0  0  0  0  0
    3.3215   -0.1488    0.1940 C   0  0  0  0  0  0  0  0  0  0  0  0
    4.5119   -0.9912    0.5995 C   0  0  0  0  0  0  0  0  0  0  0  0
    5.6912   -0.1883    1.0984 C   0  0  0  0  0  0  0  0  0  0  0  0
    6.6655    0.2760    0.2002 C   0  0  0  0  0  0  0  0  0  0  0  0
    7.7464    1.0292    0.6606 C   0  0  0  0  0  0  0  0  0  0  0  0
    7.8510    1.3225    2.0146 C   0  0  0  0  0  0  0  0  0  0  0  0
    8.8891    2.0457    2.4548 F   0  0  0  0  0  0  0  0  0  0  0  0
    6.8938    0.8788    2.9186 C   0  0  0  0  0  0  0  0  0  0  0  0
    5.8114    0.1253    2.4618 C   0  0  0  0  0  0  0  0  0  0  0  0
    2.3120   -0.9658   -0.2205 O   0  0  0  0  0  0  0  0  0  0  0  0
    1.1363   -0.2650   -0.6275 C   0  0  0  0  0  0  0  0  0  0  0  0
    0.0274   -1.2365   -1.0436 C   0  0  0  0  0  0  0  0  0  0  0  0
    0.1839   -2.4572   -0.9767 O   0  0  0  0  0  0  0  0  0  0  0  0
   -1.1627   -0.6759   -1.5187 N   0  0  0  0  0  0  0  0  0  0  0  0
   -1.5351    0.7245   -1.2816 C   0  0  0  0  0  0  0  0  0  0  0  0
   -2.5737    1.2541   -2.2792 C   0  0  0  0  0  0  0  0  0  0  0  0
   -3.7157    0.3289   -2.4440 N   0  0  0  0  0  0  0  0  0  0  0  0
   -5.1911    0.6535   -1.7054 S   0  0  0  0  0  6  0  0  0  0  0  0
   -6.1711   -0.2788   -2.2193 O   0  0  0  0  0  0  0  0  0  0  0  0
   -5.4157    2.0823   -1.7610 O   0  0  0  0  0  0  0  0  0  0  0  0
   -4.9154    0.2355    0.0035 C   0  0  0  0  0  0  0  0  0  0  0  0
   -4.5025    1.2272    0.9007 C   0  0  0  0  0  0  0  0  0  0  0  0
   -4.3175    0.9045    2.2468 C   0  0  0  0  0  0  0  0  0  0  0  0
   -4.5646   -0.3957    2.6895 C   0  0  0  0  0  0  0  0  0  0  0  0
   -4.3319   -0.7896    4.3474 Cl  0  0  0  0  0  0  0  0  0  0  0  0
   -5.0075   -1.3761    1.8008 C   0  0  0  0  0  0  0  0  0  0  0  0
   -5.1956   -1.0593    0.4536 C   0  0  0  0  0  0  0  0  0  0  0  0
   -3.3157   -1.0656   -2.7436 C   0  0  0  0  0  0  0  0  0  0  0  0
   -2.2812   -1.5972   -1.7471 C   0  0  0  0  0  0  0  0  0  0  0  0
    4.1925   -1.6872    1.3846 H   0  0  0  0  0  0  0  0  0  0  0  0
    4.8233   -1.5896   -0.2651 H   0  0  0  0  0  0  0  0  0  0  0  0
    6.5870    0.0580   -0.8627 H   0  0  0  0  0  0  0  0  0  0  0  0
    8.5035    1.3919   -0.0270 H   0  0  0  0  0  0  0  0  0  0  0  0
    6.9942    1.1253    3.9706 H   0  0  0  0  0  0  0  0  0  0  0  0
    5.0625   -0.2114    3.1754 H   0  0  0  0  0  0  0  0  0  0  0  0
    0.7670    0.3335    0.2128 H   0  0  0  0  0  0  0  0  0  0  0  0
    1.3783    0.3667   -1.4896 H   0  0  0  0  0  0  0  0  0  0  0  0
   -0.6516    1.3669   -1.3249 H   0  0  0  0  0  0  0  0  0  0  0  0
   -1.9191    0.7761   -0.2579 H   0  0  0  0  0  0  0  0  0  0  0  0
   -2.9035    2.2523   -1.9761 H   0  0  0  0  0  0  0  0  0  0  0  0
   -2.1047    1.3723   -3.2643 H   0  0  0  0  0  0  0  0  0  0  0  0
   -4.3325    2.2480    0.5644 H   0  0  0  0  0  0  0  0  0  0  0  0
   -3.9933    1.6707    2.9471 H   0  0  0  0  0  0  0  0  0  0  0  0
   -5.2169   -2.3834    2.1533 H   0  0  0  0  0  0  0  0  0  0  0  0
   -5.5627   -1.8209   -0.2315 H   0  0  0  0  0  0  0  0  0  0  0  0
   -4.1807   -1.7348   -2.7748 H   0  0  0  0  0  0  0  0  0  0  0  0
   -2.8866   -1.0716   -3.7536 H   0  0  0  0  0  0  0  0  0  0  0  0
   -2.7419   -1.7784   -0.7708 H   0  0  0  0  0  0  0  0  0  0  0  0
   -1.9066   -2.5618   -2.1073 H   0  0  0  0  0  0  0  0  0  0  0  0
  1  2  2  0
  2  3  1  0
  3  4  1  0
  4  5  2  0
  5  6  1  0
  6  7  2  0
  7  8  1  0
  7  9  1  0
  9 10  2  0
  2 11  1  0
 11 12  1  0
 12 13  1  0
 13 14  2  0
 13 15  1  0
 15 16  1  0
 16 17  1  0
 17 18  1  0
 18 19  1  0
 19 20  2  0
 19 21  2  0
 19 22  1  0
 22 23  2  0
 23 24  1  0
 24 25  2  0
 25 26  1  0
 25 27  1  0
 27 28  2  0
 18 29  1  0
 29 30  1  0
 10  4  1  0
 30 15  1  0
 28 22  1  0
  3 31  1  0
  3 32  1  0
  5 33  1  0
  6 34  1  0
  9 35  1  0
 10 36  1  0
 12 37  1  0
 12 38  1  0
 16 39  1  0
 16 40  1  0
 17 41  1  0
 17 42  1  0
 23 43  1  0
 24 44  1  0
 27 45  1  0
 28 46  1  0
 29 47  1  0
 29 48  1  0
 30 49  1  0
 30 50  1  0
M  END
$$$$
