
     RDKit          3D

 56 59  0  0  0  0  0  0  0  0999 V2000
    7.0441    1.0588    0.6629 C   0  0  0  0  0  0  0  0  0  0  0  0
    6.0917    0.0004    0.1383 C   0  0  0  0  0  0  0  0  0  0  0  0
    4.8221    0.6225   -0.0950 O   0  0  0  0  0  0  0  0  0  0  0  0
    3.8540   -0.3122   -0.3563 C   0  0  0  0  0  0  0  0  0  0  0  0
    2.8257   -0.4448    0.5774 C   0  0  0  0  0  0  0  0  0  0  0  0
    1.7893   -1.3592    0.3519 C   0  0  0  0  0  0  0  0  0  0  0  0
    0.7108   -1.5026    1.3300 C   0  0  0  0  0  0  0  0  0  0  0  0
   -0.4672   -0.8631    1.2942 C   0  0  0  0  0  0  0  0  0  0  0  0
   -1.6753   -1.1170    2.4868 S   0  0  0  0  0  0  0  0  0  0  0  0
   -2.8306   -0.0729    1.6762 C   0  0  0  0  0  0  0  0  0  0  0  0
   -4.0653    0.0869    2.0349 N   0  0  0  0  0  0  0  0  0  0  0  0
   -4.5899   -0.5757    3.1511 C   0  0  0  0  0  0  0  0  0  0  0  0
   -5.1938   -1.8283    3.0074 C   0  0  0  0  0  0  0  0  0  0  0  0
   -5.7362   -2.4838    4.1127 C   0  0  0  0  0  0  0  0  0  0  0  0
   -5.6939   -1.8787    5.3691 C   0  0  0  0  0  0  0  0  0  0  0  0
   -5.1137   -0.6185    5.5172 C   0  0  0  0  0  0  0  0  0  0  0  0
   -4.5696    0.0339    4.4094 C   0  0  0  0  0  0  0  0  0  0  0  0
   -2.2522    0.5244    0.5648 N   0  0  0  0  0  0  0  0  0  0  0  0
   -2.9382    1.4847   -0.2638 C   0  0  0  0  0  0  0  0  0  0  0  0
   -2.6167    1.6379   -1.6238 C   0  0  0  0  0  0  0  0  0  0  0  0
   -3.2691    2.5772   -2.4323 C   0  0  0  0  0  0  0  0  0  0  0  0
   -4.2619    3.3887   -1.8978 C   0  0  0  0  0  0  0  0  0  0  0  0
   -4.6002    3.2599   -0.5561 C   0  0  0  0  0  0  0  0  0  0  0  0
   -3.9442    2.3203    0.2500 C   0  0  0  0  0  0  0  0  0  0  0  0
   -0.9396    0.1375    0.2896 C   0  0  0  0  0  0  0  0  0  0  0  0
   -0.2091    0.5542   -0.6014 O   0  0  0  0  0  0  0  0  0  0  0  0
    1.7878   -2.1390   -0.8127 C   0  0  0  0  0  0  0  0  0  0  0  0
    2.8062   -1.9922   -1.7564 C   0  0  0  0  0  0  0  0  0  0  0  0
    3.8195   -1.0575   -1.5385 C   0  0  0  0  0  0  0  0  0  0  0  0
    4.7826   -0.9024   -2.4981 O   0  0  0  0  0  0  0  0  0  0  0  0
    4.3812    0.0851   -3.4516 C   0  0  0  0  0  0  0  0  0  0  0  0
    4.0927   -0.5514   -4.7983 C   0  0  0  0  0  0  0  0  0  0  0  0
    4.1308   -1.7340   -5.0945 O   0  0  0  0  0  0  0  0  0  0  0  0
    3.7648    0.3654   -5.7396 O   0  0  0  0  0  0  0  0  0  0  0  0
    7.0917    1.9126   -0.0218 H   0  0  0  0  0  0  0  0  0  0  0  0
    8.0488    0.6493    0.7855 H   0  0  0  0  0  0  0  0  0  0  0  0
    6.7031    1.4421    1.6298 H   0  0  0  0  0  0  0  0  0  0  0  0
    5.9999   -0.8062    0.8763 H   0  0  0  0  0  0  0  0  0  0  0  0
    6.5045   -0.4053   -0.7889 H   0  0  0  0  0  0  0  0  0  0  0  0
    2.8376    0.1715    1.4736 H   0  0  0  0  0  0  0  0  0  0  0  0
    0.9324   -2.2037    2.1319 H   0  0  0  0  0  0  0  0  0  0  0  0
   -5.2384   -2.2961    2.0266 H   0  0  0  0  0  0  0  0  0  0  0  0
   -6.1919   -3.4652    3.9918 H   0  0  0  0  0  0  0  0  0  0  0  0
   -6.1188   -2.3868    6.2306 H   0  0  0  0  0  0  0  0  0  0  0  0
   -5.0878   -0.1423    6.4939 H   0  0  0  0  0  0  0  0  0  0  0  0
   -4.1255    1.0186    4.5253 H   0  0  0  0  0  0  0  0  0  0  0  0
   -1.8677    1.0122   -2.1047 H   0  0  0  0  0  0  0  0  0  0  0  0
   -2.9914    2.6707   -3.4786 H   0  0  0  0  0  0  0  0  0  0  0  0
   -4.7679    4.1200   -2.5219 H   0  0  0  0  0  0  0  0  0  0  0  0
   -5.3688    3.8975   -0.1239 H   0  0  0  0  0  0  0  0  0  0  0  0
   -4.2223    2.2961    1.3004 H   0  0  0  0  0  0  0  0  0  0  0  0
    0.9903   -2.8553   -1.0005 H   0  0  0  0  0  0  0  0  0  0  0  0
    2.8011   -2.5923   -2.6630 H   0  0  0  0  0  0  0  0  0  0  0  0
    3.4984    0.6598   -3.1324 H   0  0  0  0  0  0  0  0  0  0  0  0
    5.2221    0.7725   -3.5769 H   0  0  0  0  0  0  0  0  0  0  0  0
    3.6140   -0.1744   -6.5459 H   0  0  0  0  0  0  0  0  0  0  0  0
  1  2  1  0
  2  3  1  0
  3  4  1  0
  4  5  2  0
  5  6  1  0
  6  7  1  0
  7  8  2  3
  8  9  1  0
  9 10  1  0
 10 11  2  3
 11 12  1  0
 12 13  2  0
 13 14  1  0
 14 15  2  0
 15 16  1  0
 16 17  2  0
 10 18  1  0
 18 19  1  0
 19 20  2  0
 20 21  1  0
 21 22  2  0
 22 23  1  0
 23 24  2  0
 18 25  1  0
 25 26  2  0
  6 27  2  0
 27 28  1  0
 28 29  2  0
 29 30  1  0
 30 31  1  0
 31 32  1  0
 32 33  2  0
 32 34  1  0
 29  4  1  0
 25  8  1  0
 17 12  1  0
 24 19  1  0
  1 35  1  0
  1 36  1  0
  1 37  1  0
  2 38  1  0
  2 39  1  0
  5 40  1  0
  7 41  1  0
 13 42  1  0
 14 43  1  0
 15 44  1  0
 16 45  1  0
 17 46  1  0
 20 47  1  0
 21 48  1  0
 22 49  1  0
 23 50  1  0
 24 51  1  0
 27 52  1  0
 28 53  1  0
 31 54  1  0
 31 55  1  0
 34 56  1  0
M  END
$$$$
