
     RDKit          3D

 50 52  0  0  0  0  0  0  0  0999 V2000
   -8.7680    1.5089   -0.2460 C   0  0  0  0  0  0  0  0  0  0  0  0
   -7.9989    0.4172   -0.7291 O   0  0  0  0  0  0  0  0  0  0  0  0
   -6.6449    0.4380   -0.5062 C   0  0  0  0  0  0  0  0  0  0  0  0
   -5.9698    1.4671    0.1598 C   0  0  0  0  0  0  0  0  0  0  0  0
   -4.5855    1.4035    0.3446 C   0  0  0  0  0  0  0  0  0  0  0  0
   -3.8681    0.3014   -0.1299 C   0  0  0  0  0  0  0  0  0  0  0  0
   -2.3949    0.1882    0.0425 C   0  0  0  0  0  0  0  0  0  0  0  0
   -1.7215   -0.4134   -0.7896 O   0  0  0  0  0  0  0  0  0  0  0  0
   -1.8669    0.7526    1.1965 N   0  0  0  0  0  0  0  0  0  0  0  0
   -0.5398    0.8563    1.5965 C   0  0  0  0  0  0  0  0  0  0  0  0
   -0.3024    1.5902    3.0772 S   0  0  0  0  0  0  0  0  0  0  0  0
    0.3661    0.3355    0.7045 N   0  0  0  0  0  0  0  0  0  0  0  0
    1.7748    0.2530    0.6742 C   0  0  0  0  0  0  0  0  0  0  0  0
    2.3289   -0.4298   -0.4125 C   0  0  0  0  0  0  0  0  0  0  0  0
    3.7180   -0.5744   -0.5516 C   0  0  0  0  0  0  0  0  0  0  0  0
    4.6161   -0.0454    0.3818 C   0  0  0  0  0  0  0  0  0  0  0  0
    5.9758   -0.1865    0.2484 N   0  0  0  0  0  0  0  0  0  0  0  0
    6.6323   -0.7763   -0.9154 C   0  0  0  0  0  0  0  0  0  0  0  0
    8.1073   -0.4374   -0.7155 C   0  0  0  0  0  0  0  0  0  0  0  0
    8.2528   -0.4209    0.7958 C   0  0  0  0  0  0  0  0  0  0  0  0
    6.9474    0.2198    1.2609 C   0  0  0  0  0  0  0  0  0  0  0  0
    4.0407    0.6398    1.4600 C   0  0  0  0  0  0  0  0  0  0  0  0
    2.6493    0.7906    1.6078 C   0  0  0  0  0  0  0  0  0  0  0  0
   -4.5340   -0.7231   -0.8153 C   0  0  0  0  0  0  0  0  0  0  0  0
   -5.9188   -0.6641   -1.0041 C   0  0  0  0  0  0  0  0  0  0  0  0
   -6.6536   -1.6265   -1.6514 O   0  0  0  0  0  0  0  0  0  0  0  0
   -5.9499   -2.7109   -2.2413 C   0  0  0  0  0  0  0  0  0  0  0  0
   -9.8145    1.3220   -0.5058 H   0  0  0  0  0  0  0  0  0  0  0  0
   -8.4687    2.4460   -0.7268 H   0  0  0  0  0  0  0  0  0  0  0  0
   -8.7049    1.5850    0.8445 H   0  0  0  0  0  0  0  0  0  0  0  0
   -6.4934    2.3389    0.5391 H   0  0  0  0  0  0  0  0  0  0  0  0
   -4.0892    2.2376    0.8336 H   0  0  0  0  0  0  0  0  0  0  0  0
   -2.5070    1.1234    1.8852 H   0  0  0  0  0  0  0  0  0  0  0  0
   -0.0862   -0.1068   -0.0980 H   0  0  0  0  0  0  0  0  0  0  0  0
    1.6896   -0.8693   -1.1752 H   0  0  0  0  0  0  0  0  0  0  0  0
    4.0792   -1.1257   -1.4147 H   0  0  0  0  0  0  0  0  0  0  0  0
    6.2739   -0.3562   -1.8613 H   0  0  0  0  0  0  0  0  0  0  0  0
    6.4851   -1.8624   -0.9207 H   0  0  0  0  0  0  0  0  0  0  0  0
    8.7719   -1.1575   -1.2006 H   0  0  0  0  0  0  0  0  0  0  0  0
    8.3232    0.5581   -1.1222 H   0  0  0  0  0  0  0  0  0  0  0  0
    8.3239   -1.4476    1.1751 H   0  0  0  0  0  0  0  0  0  0  0  0
    9.1340    0.1312    1.1340 H   0  0  0  0  0  0  0  0  0  0  0  0
    7.0397    1.3118    1.2769 H   0  0  0  0  0  0  0  0  0  0  0  0
    6.6891   -0.1380    2.2634 H   0  0  0  0  0  0  0  0  0  0  0  0
    4.6698    1.0922    2.2217 H   0  0  0  0  0  0  0  0  0  0  0  0
    2.3126    1.3480    2.4706 H   0  0  0  0  0  0  0  0  0  0  0  0
   -3.9490   -1.5594   -1.1866 H   0  0  0  0  0  0  0  0  0  0  0  0
   -5.2414   -2.3587   -2.9983 H   0  0  0  0  0  0  0  0  0  0  0  0
   -5.4482   -3.3156   -1.4788 H   0  0  0  0  0  0  0  0  0  0  0  0
   -6.6819   -3.3506   -2.7435 H   0  0  0  0  0  0  0  0  0  0  0  0
  1  2  1  0
  2  3  1  0
  3  4  2  0
  4  5  1  0
  5  6  2  0
  6  7  1  0
  7  8  2  0
  7  9  1  0
  9 10  1  0
 10 11  2  0
 10 12  1  0
 12 13  1  0
 13 14  2  0
 14 15  1  0
 15 16  2  0
 16 17  1  0
 17 18  1  0
 18 19  1  0
 19 20  1  0
 20 21  1  0
 16 22  1  0
 22 23  2  0
  6 24  1  0
 24 25  2  0
 25 26  1  0
 26 27  1  0
 25  3  1  0
 23 13  1  0
 21 17  1  0
  1 28  1  0
  1 29  1  0
  1 30  1  0
  4 31  1  0
  5 32  1  0
  9 33  1  0
 12 34  1  0
 14 35  1  0
 15 36  1  0
 18 37  1  0
 18 38  1  0
 19 39  1  0
 19 40  1  0
 20 41  1  0
 20 42  1  0
 21 43  1  0
 21 44  1  0
 22 45  1  0
 23 46  1  0
 24 47  1  0
 27 48  1  0
 27 49  1  0
 27 50  1  0
M  END
$$$$
