
     RDKit          3D

 42 45  0  0  0  0  0  0  0  0999 V2000
    8.4904   -0.7306   -0.0777 C   0  0  0  0  0  0  0  0  0  0  0  0
    7.0522   -0.6991    0.1402 N   0  0  0  0  0  0  0  0  0  0  0  0
    6.6269   -0.1921    1.4378 C   0  0  0  0  0  0  0  0  0  0  0  0
    6.2141   -0.9341   -0.9468 C   0  0  0  0  0  0  0  0  0  0  0  0
    6.6623   -1.2116   -2.0638 O   0  0  0  0  0  0  0  0  0  0  0  0
    4.7098   -0.8699   -0.7429 C   0  0  0  0  0  0  0  0  0  0  0  0
    4.1408    0.8475   -0.8953 S   0  0  0  0  0  0  0  0  0  0  0  0
    2.4206    0.6188   -0.6679 C   0  0  0  0  0  0  0  0  0  0  0  0
    1.9239   -0.5227   -0.2535 N   0  0  0  0  0  0  0  0  0  0  0  0
    0.5470   -0.4242   -0.1637 C   0  0  0  0  0  0  0  0  0  0  0  0
   -0.3322   -1.4426    0.2348 C   0  0  0  0  0  0  0  0  0  0  0  0
   -1.7153   -1.1961    0.2786 C   0  0  0  0  0  0  0  0  0  0  0  0
   -2.2682    0.0468   -0.0645 C   0  0  0  0  0  0  0  0  0  0  0  0
   -3.6833    0.2738   -0.0114 N   0  0  0  0  0  0  0  0  0  0  0  0
   -4.3165    1.4406   -0.3995 C   0  0  0  0  0  0  0  0  0  0  0  0
   -3.8923    2.4873   -0.8570 O   0  0  0  0  0  0  0  0  0  0  0  0
   -5.7468    1.2527   -0.1836 C   0  0  0  0  0  0  0  0  0  0  0  0
   -6.8067    2.1123   -0.4081 C   0  0  0  0  0  0  0  0  0  0  0  0
   -8.0884    1.6453   -0.1007 C   0  0  0  0  0  0  0  0  0  0  0  0
   -8.2774    0.3469    0.4155 C   0  0  0  0  0  0  0  0  0  0  0  0
   -7.1871   -0.5008    0.6322 C   0  0  0  0  0  0  0  0  0  0  0  0
   -5.9310   -0.0121    0.3219 C   0  0  0  0  0  0  0  0  0  0  0  0
   -4.6201   -0.6413    0.4347 C   0  0  0  0  0  0  0  0  0  0  0  0
   -4.5148   -1.7738    0.8710 O   0  0  0  0  0  0  0  0  0  0  0  0
   -1.3795    1.0636   -0.4643 C   0  0  0  0  0  0  0  0  0  0  0  0
    0.0083    0.8122   -0.5073 C   0  0  0  0  0  0  0  0  0  0  0  0
    1.2916    1.8716   -0.9538 S   0  0  0  0  0  0  0  0  0  0  0  0
    8.8622    0.2982   -0.1024 H   0  0  0  0  0  0  0  0  0  0  0  0
    8.7570   -1.2263   -1.0149 H   0  0  0  0  0  0  0  0  0  0  0  0
    8.9651   -1.2713    0.7477 H   0  0  0  0  0  0  0  0  0  0  0  0
    7.1185   -0.7762    2.2214 H   0  0  0  0  0  0  0  0  0  0  0  0
    5.5505   -0.2476    1.5923 H   0  0  0  0  0  0  0  0  0  0  0  0
    6.9376    0.8538    1.5179 H   0  0  0  0  0  0  0  0  0  0  0  0
    4.2422   -1.4760   -1.5283 H   0  0  0  0  0  0  0  0  0  0  0  0
    4.4296   -1.3200    0.2132 H   0  0  0  0  0  0  0  0  0  0  0  0
    0.0596   -2.4190    0.5043 H   0  0  0  0  0  0  0  0  0  0  0  0
   -2.3332   -2.0342    0.5887 H   0  0  0  0  0  0  0  0  0  0  0  0
   -6.6464    3.1090   -0.8055 H   0  0  0  0  0  0  0  0  0  0  0  0
   -8.9510    2.2898   -0.2606 H   0  0  0  0  0  0  0  0  0  0  0  0
   -9.2836    0.0018    0.6458 H   0  0  0  0  0  0  0  0  0  0  0  0
   -7.3175   -1.5050    1.0236 H   0  0  0  0  0  0  0  0  0  0  0  0
   -1.7187    2.0545   -0.7426 H   0  0  0  0  0  0  0  0  0  0  0  0
  1  2  1  0
  2  3  1  0
  2  4  1  0
  4  5  2  0
  4  6  1  0
  6  7  1  0
  7  8  1  0
  8  9  2  0
  9 10  1  0
 10 11  2  0
 11 12  1  0
 12 13  2  0
 13 14  1  0
 14 15  1  0
 15 16  2  0
 15 17  1  0
 17 18  2  0
 18 19  1  0
 19 20  2  0
 20 21  1  0
 21 22  2  0
 22 23  1  0
 23 24  2  0
 13 25  1  0
 25 26  2  0
 26 27  1  0
 27  8  1  0
 26 10  1  0
 23 14  1  0
 22 17  1  0
  1 28  1  0
  1 29  1  0
  1 30  1  0
  3 31  1  0
  3 32  1  0
  3 33  1  0
  6 34  1  0
  6 35  1  0
 11 36  1  0
 12 37  1  0
 18 38  1  0
 19 39  1  0
 20 40  1  0
 21 41  1  0
 25 42  1  0
M  END
$$$$
