
     RDKit          3D

 54 56  0  0  0  0  0  0  0  0999 V2000
    6.6982    2.3795    0.1322 C   0  0  0  0  0  0  0  0  0  0  0  0
    6.2874    0.9609   -0.2459 C   0  0  0  0  0  0  0  0  0  0  0  0
    4.8409    0.8201   -0.4699 N   0  0  0  0  0  0  0  0  0  0  0  0
    4.0603    0.9966    0.7782 C   0  0  0  0  0  0  0  0  0  0  0  0
    2.5422    0.7774    0.5735 C   0  0  0  0  0  0  0  0  0  0  0  0
    2.2868   -0.5636    0.0047 N   0  0  0  0  0  0  0  0  0  0  0  0
    0.9141   -0.8624   -0.1201 C   0  0  0  0  0  0  0  0  0  0  0  0
    0.5257   -2.1577   -0.4003 C   0  0  0  0  0  0  0  0  0  0  0  0
   -0.8251   -2.4083   -0.4924 C   0  0  0  0  0  0  0  0  0  0  0  0
   -1.3552   -4.0757   -0.8622 S   0  0  0  0  0  0  0  0  0  0  0  0
   -3.1675   -3.9699   -0.5882 C   0  0  0  0  0  0  0  0  0  0  0  0
   -3.4889   -3.9624    0.9038 C   0  0  0  0  0  0  0  0  0  0  0  0
   -3.8197   -5.1767   -1.2622 C   0  0  0  0  0  0  0  0  0  0  0  0
   -1.7535   -1.4570   -0.3316 N   0  0  0  0  0  0  0  0  0  0  0  0
   -1.3030   -0.2270   -0.0419 C   0  0  0  0  0  0  0  0  0  0  0  0
   -2.3024    0.8423    0.1623 C   0  0  0  0  0  0  0  0  0  0  0  0
   -3.6834    0.5827    0.0995 C   0  0  0  0  0  0  0  0  0  0  0  0
   -4.6275    1.5982    0.2942 C   0  0  0  0  0  0  0  0  0  0  0  0
   -4.2227    2.9061    0.5568 C   0  0  0  0  0  0  0  0  0  0  0  0
   -5.2430    3.7997    0.7265 O   0  0  0  0  0  0  0  0  0  0  0  0
   -4.8779    5.1501    0.9807 C   0  0  0  0  0  0  0  0  0  0  0  0
   -2.8613    3.1901    0.6238 C   0  0  0  0  0  0  0  0  0  0  0  0
   -1.9177    2.1703    0.4290 C   0  0  0  0  0  0  0  0  0  0  0  0
   -0.0026    0.0986    0.0772 N   0  0  0  0  0  0  0  0  0  0  0  0
    3.0349   -0.7694   -1.2549 C   0  0  0  0  0  0  0  0  0  0  0  0
    4.5450   -0.5206   -1.0296 C   0  0  0  0  0  0  0  0  0  0  0  0
    7.7903    2.4616    0.1378 H   0  0  0  0  0  0  0  0  0  0  0  0
    6.3119    3.1087   -0.5871 H   0  0  0  0  0  0  0  0  0  0  0  0
    6.3450    2.6543    1.1300 H   0  0  0  0  0  0  0  0  0  0  0  0
    6.6419    0.2587    0.5186 H   0  0  0  0  0  0  0  0  0  0  0  0
    6.8155    0.7135   -1.1753 H   0  0  0  0  0  0  0  0  0  0  0  0
    4.1920    2.0136    1.1627 H   0  0  0  0  0  0  0  0  0  0  0  0
    4.4195    0.3016    1.5489 H   0  0  0  0  0  0  0  0  0  0  0  0
    2.1539    1.5631   -0.0890 H   0  0  0  0  0  0  0  0  0  0  0  0
    2.0510    0.8749    1.5499 H   0  0  0  0  0  0  0  0  0  0  0  0
    1.2537   -2.9493   -0.5152 H   0  0  0  0  0  0  0  0  0  0  0  0
   -3.5614   -3.0670   -1.0652 H   0  0  0  0  0  0  0  0  0  0  0  0
   -3.0555   -3.0963    1.4133 H   0  0  0  0  0  0  0  0  0  0  0  0
   -3.1258   -4.8684    1.4017 H   0  0  0  0  0  0  0  0  0  0  0  0
   -4.5730   -3.9163    1.0557 H   0  0  0  0  0  0  0  0  0  0  0  0
   -4.9074   -5.1431   -1.1328 H   0  0  0  0  0  0  0  0  0  0  0  0
   -3.6213   -5.1874   -2.3398 H   0  0  0  0  0  0  0  0  0  0  0  0
   -3.4687   -6.1235   -0.8364 H   0  0  0  0  0  0  0  0  0  0  0  0
   -4.0415   -0.4251   -0.1040 H   0  0  0  0  0  0  0  0  0  0  0  0
   -5.6877    1.3630    0.2390 H   0  0  0  0  0  0  0  0  0  0  0  0
   -4.3220    5.2389    1.9200 H   0  0  0  0  0  0  0  0  0  0  0  0
   -4.3105    5.5702    0.1436 H   0  0  0  0  0  0  0  0  0  0  0  0
   -5.7990    5.7316    1.0830 H   0  0  0  0  0  0  0  0  0  0  0  0
   -2.4927    4.1903    0.8253 H   0  0  0  0  0  0  0  0  0  0  0  0
   -0.8602    2.4260    0.4868 H   0  0  0  0  0  0  0  0  0  0  0  0
    2.6621   -0.0883   -2.0317 H   0  0  0  0  0  0  0  0  0  0  0  0
    2.9186   -1.7946   -1.6250 H   0  0  0  0  0  0  0  0  0  0  0  0
    5.0525   -0.6313   -1.9956 H   0  0  0  0  0  0  0  0  0  0  0  0
    4.9347   -1.3012   -0.3621 H   0  0  0  0  0  0  0  0  0  0  0  0
  1  2  1  0
  2  3  1  0
  3  4  1  0
  4  5  1  0
  5  6  1  0
  6  7  1  0
  7  8  2  0
  8  9  1  0
  9 10  1  0
 10 11  1  0
 11 12  1  0
 11 13  1  0
  9 14  2  0
 14 15  1  0
 15 16  1  0
 16 17  2  0
 17 18  1  0
 18 19  2  0
 19 20  1  0
 20 21  1  0
 19 22  1  0
 22 23  2  0
 15 24  2  0
  6 25  1  0
 25 26  1  0
 26  3  1  0
 24  7  1  0
 23 16  1  0
  1 27  1  0
  1 28  1  0
  1 29  1  0
  2 30  1  0
  2 31  1  0
  4 32  1  0
  4 33  1  0
  5 34  1  0
  5 35  1  0
  8 36  1  0
 11 37  1  0
 12 38  1  0
 12 39  1  0
 12 40  1  0
 13 41  1  0
 13 42  1  0
 13 43  1  0
 17 44  1  0
 18 45  1  0
 21 46  1  0
 21 47  1  0
 21 48  1  0
 22 49  1  0
 23 50  1  0
 25 51  1  0
 25 52  1  0
 26 53  1  0
 26 54  1  0
M  END
$$$$
