
     RDKit          3D

 35 38  0  0  0  0  0  0  0  0999 V2000
   -0.6459    2.2107    1.7888 O   0  0  0  0  0  0  0  0  0  0  0  0
   -0.8589    0.9268    1.0229 P   0  0  0  0  0  5  0  0  0  0  0  0
   -1.7852    0.9050   -0.3254 N   0  0  0  0  0  0  0  0  0  0  0  0
   -2.0318    1.9818   -1.0923 C   0  0  0  0  0  0  0  0  0  0  0  0
   -3.0810    2.0003   -1.8886 N   0  0  0  0  0  0  0  0  0  0  0  0
   -3.1515    3.1962   -2.5753 C   0  0  0  0  0  0  0  0  0  0  0  0
   -2.1302    4.0819   -2.3253 C   0  0  0  0  0  0  0  0  0  0  0  0
   -1.0595    3.4032   -1.1804 S   0  0  0  0  0  0  0  0  0  0  0  0
   -1.1234   -0.5002    2.0695 C   0  0  0  0  0  0  0  0  0  0  0  0
   -1.3162   -1.7860    1.5365 C   0  0  0  0  0  0  0  0  0  0  0  0
   -1.5354   -2.8778    2.3758 C   0  0  0  0  0  0  0  0  0  0  0  0
   -1.5870   -2.6958    3.7562 C   0  0  0  0  0  0  0  0  0  0  0  0
   -1.4045   -1.4269    4.3017 C   0  0  0  0  0  0  0  0  0  0  0  0
   -1.1711   -0.3365    3.4639 C   0  0  0  0  0  0  0  0  0  0  0  0
    0.5933    0.4459    0.0946 C   0  0  0  0  0  0  0  0  0  0  0  0
    0.6291   -0.5849   -0.7331 N   0  0  0  0  0  0  0  0  0  0  0  0
    1.8935   -0.7028   -1.2819 C   0  0  0  0  0  0  0  0  0  0  0  0
    2.3000   -1.6785   -2.2141 C   0  0  0  0  0  0  0  0  0  0  0  0
    3.6128   -1.6782   -2.6936 C   0  0  0  0  0  0  0  0  0  0  0  0
    4.5218   -0.7223   -2.2558 C   0  0  0  0  0  0  0  0  0  0  0  0
    4.1443    0.2555   -1.3300 C   0  0  0  0  0  0  0  0  0  0  0  0
    2.8210    0.2478   -0.8582 C   0  0  0  0  0  0  0  0  0  0  0  0
    2.0685    1.3045    0.2697 S   0  0  0  0  0  0  0  0  0  0  0  0
   -2.4761    0.1778   -0.4214 H   0  0  0  0  0  0  0  0  0  0  0  0
   -3.9781    3.3720   -3.2501 H   0  0  0  0  0  0  0  0  0  0  0  0
   -1.9729    5.0659   -2.7465 H   0  0  0  0  0  0  0  0  0  0  0  0
   -1.2759   -1.9468    0.4593 H   0  0  0  0  0  0  0  0  0  0  0  0
   -1.6594   -3.8724    1.9547 H   0  0  0  0  0  0  0  0  0  0  0  0
   -1.7679   -3.5488    4.4071 H   0  0  0  0  0  0  0  0  0  0  0  0
   -1.4419   -1.2899    5.3800 H   0  0  0  0  0  0  0  0  0  0  0  0
   -1.0329    0.6525    3.9009 H   0  0  0  0  0  0  0  0  0  0  0  0
    1.5877   -2.4213   -2.5570 H   0  0  0  0  0  0  0  0  0  0  0  0
    3.9195   -2.4263   -3.4235 H   0  0  0  0  0  0  0  0  0  0  0  0
    5.5399   -0.7322   -2.6413 H   0  0  0  0  0  0  0  0  0  0  0  0
    4.8554    0.9999   -0.9877 H   0  0  0  0  0  0  0  0  0  0  0  0
  1  2  2  0
  2  3  1  0
  3  4  1  0
  4  5  2  0
  5  6  1  0
  6  7  2  0
  7  8  1  0
  2  9  1  0
  9 10  2  0
 10 11  1  0
 11 12  2  0
 12 13  1  0
 13 14  2  0
  2 15  1  0
 15 16  2  0
 16 17  1  0
 17 18  2  0
 18 19  1  0
 19 20  2  0
 20 21  1  0
 21 22  2  0
 22 23  1  0
  8  4  1  0
 14  9  1  0
 23 15  1  0
 22 17  1  0
  3 24  1  0
  6 25  1  0
  7 26  1  0
 10 27  1  0
 11 28  1  0
 12 29  1  0
 13 30  1  0
 14 31  1  0
 18 32  1  0
 19 33  1  0
 20 34  1  0
 21 35  1  0
M  END
$$$$
