
     RDKit          3D

 52 54  0  0  0  0  0  0  0  0999 V2000
    1.2269   -2.4640   -0.9659 C   0  0  0  0  0  0  0  0  0  0  0  0
    1.8506   -1.3085   -0.1885 C   0  0  0  0  0  0  0  0  0  0  0  0
    1.0402   -0.0785   -0.1879 N   0  0  0  0  0  0  0  0  0  0  0  0
    1.8484    1.0681    0.2766 C   0  0  0  0  0  0  0  0  0  0  0  0
    2.8395    1.5432   -0.7687 C   0  0  0  0  0  0  0  0  0  0  0  0
    4.2189    1.5159   -0.5185 C   0  0  0  0  0  0  0  0  0  0  0  0
    5.1214    1.9657   -1.4843 C   0  0  0  0  0  0  0  0  0  0  0  0
    4.6548    2.4505   -2.7053 C   0  0  0  0  0  0  0  0  0  0  0  0
    3.2857    2.4880   -2.9626 C   0  0  0  0  0  0  0  0  0  0  0  0
    2.3822    2.0385   -1.9992 C   0  0  0  0  0  0  0  0  0  0  0  0
   -0.2762   -0.1923    0.4942 C   0  0  0  0  0  0  0  0  0  0  0  0
   -0.2170   -0.2416    2.0242 C   0  0  0  0  0  0  0  0  0  0  0  0
   -0.0701   -1.4721    2.6825 C   0  0  0  0  0  0  0  0  0  0  0  0
   -0.0143   -1.4970    4.0679 C   0  0  0  0  0  0  0  0  0  0  0  0
   -0.0944   -0.3961    4.8402 N   0  0  0  0  0  0  0  0  0  0  0  0
   -0.2306    0.7832    4.2000 C   0  0  0  0  0  0  0  0  0  0  0  0
   -0.2937    0.9097    2.8205 C   0  0  0  0  0  0  0  0  0  0  0  0
   -1.2750    0.8216   -0.0351 C   0  0  0  0  0  0  0  0  0  0  0  0
   -1.0765    2.1286   -0.1207 N   0  0  0  0  0  0  0  0  0  0  0  0
   -2.2113    2.6776   -0.6308 N   0  0  0  0  0  0  0  0  0  0  0  0
   -3.1160    1.7472   -0.8631 N   0  0  0  0  0  0  0  0  0  0  0  0
   -2.5568    0.5730   -0.4940 N   0  0  0  0  0  0  0  0  0  0  0  0
   -3.3338   -0.6652   -0.6567 C   0  0  0  0  0  0  0  0  0  0  0  0
   -2.7225   -1.5347   -1.7707 C   0  0  0  0  0  0  0  0  0  0  0  0
   -3.4273   -1.4542    0.6636 C   0  0  0  0  0  0  0  0  0  0  0  0
   -4.7989   -0.3629   -1.0807 C   0  0  0  0  0  0  0  0  0  0  0  0
    1.9622   -3.2664   -1.0897 H   0  0  0  0  0  0  0  0  0  0  0  0
    0.3660   -2.8952   -0.4480 H   0  0  0  0  0  0  0  0  0  0  0  0
    0.9131   -2.1439   -1.9650 H   0  0  0  0  0  0  0  0  0  0  0  0
    2.8126   -1.1145   -0.6775 H   0  0  0  0  0  0  0  0  0  0  0  0
    2.0905   -1.6329    0.8303 H   0  0  0  0  0  0  0  0  0  0  0  0
    1.2372    1.9447    0.5120 H   0  0  0  0  0  0  0  0  0  0  0  0
    2.3724    0.8166    1.2085 H   0  0  0  0  0  0  0  0  0  0  0  0
    4.5988    1.1436    0.4297 H   0  0  0  0  0  0  0  0  0  0  0  0
    6.1890    1.9406   -1.2831 H   0  0  0  0  0  0  0  0  0  0  0  0
    5.3578    2.8024   -3.4554 H   0  0  0  0  0  0  0  0  0  0  0  0
    2.9188    2.8696   -3.9116 H   0  0  0  0  0  0  0  0  0  0  0  0
    1.3135    2.0746   -2.2045 H   0  0  0  0  0  0  0  0  0  0  0  0
   -0.6867   -1.1534    0.1905 H   0  0  0  0  0  0  0  0  0  0  0  0
    0.0025   -2.4046    2.1324 H   0  0  0  0  0  0  0  0  0  0  0  0
    0.1001   -2.4327    4.6079 H   0  0  0  0  0  0  0  0  0  0  0  0
   -0.2896    1.6569    4.8433 H   0  0  0  0  0  0  0  0  0  0  0  0
   -0.4011    1.9006    2.3884 H   0  0  0  0  0  0  0  0  0  0  0  0
   -1.7077   -1.8631   -1.5372 H   0  0  0  0  0  0  0  0  0  0  0  0
   -3.3213   -2.4369   -1.9409 H   0  0  0  0  0  0  0  0  0  0  0  0
   -2.6725   -0.9832   -2.7171 H   0  0  0  0  0  0  0  0  0  0  0  0
   -4.1598   -2.2666    0.5873 H   0  0  0  0  0  0  0  0  0  0  0  0
   -3.7346   -0.8052    1.4917 H   0  0  0  0  0  0  0  0  0  0  0  0
   -2.4835   -1.9258    0.9415 H   0  0  0  0  0  0  0  0  0  0  0  0
   -4.8424    0.1645   -2.0412 H   0  0  0  0  0  0  0  0  0  0  0  0
   -5.3775   -1.2873   -1.1958 H   0  0  0  0  0  0  0  0  0  0  0  0
   -5.3120    0.2543   -0.3335 H   0  0  0  0  0  0  0  0  0  0  0  0
  1  2  1  0
  2  3  1  0
  3  4  1  0
  4  5  1  0
  5  6  2  0
  6  7  1  0
  7  8  2  0
  8  9  1  0
  9 10  2  0
  3 11  1  0
 11 12  1  0
 12 13  2  0
 13 14  1  0
 14 15  2  0
 15 16  1  0
 16 17  2  0
 11 18  1  0
 18 19  2  0
 19 20  1  0
 20 21  2  0
 21 22  1  0
 22 23  1  0
 23 24  1  0
 23 25  1  0
 23 26  1  0
 10  5  1  0
 17 12  1  0
 22 18  1  0
  1 27  1  0
  1 28  1  0
  1 29  1  0
  2 30  1  0
  2 31  1  0
  4 32  1  0
  4 33  1  0
  6 34  1  0
  7 35  1  0
  8 36  1  0
  9 37  1  0
 10 38  1  0
 11 39  1  0
 13 40  1  0
 14 41  1  0
 16 42  1  0
 17 43  1  0
 24 44  1  0
 24 45  1  0
 24 46  1  0
 25 47  1  0
 25 48  1  0
 25 49  1  0
 26 50  1  0
 26 51  1  0
 26 52  1  0
M  END
$$$$
