
     RDKit          3D

 57 59  0  0  0  0  0  0  0  0999 V2000
   -8.0939    1.0404    2.0810 C   0  0  0  0  0  0  0  0  0  0  0  0
   -6.9709    0.2235    1.5112 C   0  0  0  0  0  0  0  0  0  0  0  0
   -6.8831    0.0095    0.1288 C   0  0  0  0  0  0  0  0  0  0  0  0
   -5.8610   -0.7794   -0.4017 C   0  0  0  0  0  0  0  0  0  0  0  0
   -4.9184   -1.3531    0.4553 C   0  0  0  0  0  0  0  0  0  0  0  0
   -3.6279   -2.3808   -0.2147 S   0  0  0  0  0  6  0  0  0  0  0  0
   -4.0834   -2.8728   -1.4983 O   0  0  0  0  0  0  0  0  0  0  0  0
   -3.2120   -3.2955    0.8277 O   0  0  0  0  0  0  0  0  0  0  0  0
   -2.3548   -1.2768   -0.4927 N   0  0  0  0  0  0  0  0  0  0  0  0
   -2.5694   -0.2830   -1.5719 C   0  0  0  0  0  0  0  0  0  0  0  0
   -1.2185    0.2790   -2.0045 C   0  0  0  0  0  0  0  0  0  0  0  0
   -0.4771    0.8853   -0.8091 C   0  0  0  0  0  0  0  0  0  0  0  0
    0.8776    1.4489   -1.2089 C   0  0  0  0  0  0  0  0  0  0  0  0
    1.1658    2.6260   -1.0063 O   0  0  0  0  0  0  0  0  0  0  0  0
    1.7451    0.5601   -1.8027 N   0  0  0  0  0  0  0  0  0  0  0  0
    3.1478    0.9231   -1.9731 C   0  0  0  0  0  0  0  0  0  0  0  0
    3.7312    0.2395   -3.2021 C   0  0  0  0  0  0  0  0  0  0  0  0
    3.9239    0.4793   -0.7119 C   0  0  0  0  0  0  0  0  0  0  0  0
    3.4976   -0.4263    0.0031 O   0  0  0  0  0  0  0  0  0  0  0  0
    5.1206    1.1602   -0.5501 N   0  0  0  0  0  0  0  0  0  0  0  0
    6.0914    0.9657    0.4538 C   0  0  0  0  0  0  0  0  0  0  0  0
    6.0126   -0.0244    1.4379 C   0  0  0  0  0  0  0  0  0  0  0  0
    7.0234   -0.1521    2.3965 C   0  0  0  0  0  0  0  0  0  0  0  0
    8.1117    0.7091    2.3693 C   0  0  0  0  0  0  0  0  0  0  0  0
    9.0783    0.5849    3.2875 F   0  0  0  0  0  0  0  0  0  0  0  0
    8.2102    1.6976    1.4002 C   0  0  0  0  0  0  0  0  0  0  0  0
    7.2007    1.8254    0.4425 C   0  0  0  0  0  0  0  0  0  0  0  0
   -0.3480   -0.1340    0.3274 C   0  0  0  0  0  0  0  0  0  0  0  0
   -1.7151   -0.6922    0.7115 C   0  0  0  0  0  0  0  0  0  0  0  0
   -5.0169   -1.1806    1.8384 C   0  0  0  0  0  0  0  0  0  0  0  0
   -6.0414   -0.3905    2.3620 C   0  0  0  0  0  0  0  0  0  0  0  0
   -7.7845    1.5367    3.0069 H   0  0  0  0  0  0  0  0  0  0  0  0
   -8.9536    0.3976    2.2936 H   0  0  0  0  0  0  0  0  0  0  0  0
   -8.4014    1.8237    1.3802 H   0  0  0  0  0  0  0  0  0  0  0  0
   -7.6182    0.4501   -0.5420 H   0  0  0  0  0  0  0  0  0  0  0  0
   -5.8132   -0.9478   -1.4752 H   0  0  0  0  0  0  0  0  0  0  0  0
   -3.0415   -0.7508   -2.4413 H   0  0  0  0  0  0  0  0  0  0  0  0
   -3.2202    0.5246   -1.2192 H   0  0  0  0  0  0  0  0  0  0  0  0
   -1.3640    1.0388   -2.7817 H   0  0  0  0  0  0  0  0  0  0  0  0
   -0.6246   -0.5244   -2.4584 H   0  0  0  0  0  0  0  0  0  0  0  0
   -1.0686    1.7356   -0.4406 H   0  0  0  0  0  0  0  0  0  0  0  0
    1.5848   -0.4223   -1.6070 H   0  0  0  0  0  0  0  0  0  0  0  0
    3.2320    2.0103   -2.0819 H   0  0  0  0  0  0  0  0  0  0  0  0
    3.1743    0.5186   -4.1029 H   0  0  0  0  0  0  0  0  0  0  0  0
    4.7802    0.5170   -3.3489 H   0  0  0  0  0  0  0  0  0  0  0  0
    3.6873   -0.8516   -3.1080 H   0  0  0  0  0  0  0  0  0  0  0  0
    5.2983    1.9232   -1.1922 H   0  0  0  0  0  0  0  0  0  0  0  0
    5.1785   -0.7169    1.4898 H   0  0  0  0  0  0  0  0  0  0  0  0
    6.9627   -0.9199    3.1614 H   0  0  0  0  0  0  0  0  0  0  0  0
    9.0687    2.3615    1.3959 H   0  0  0  0  0  0  0  0  0  0  0  0
    7.2952    2.6066   -0.3073 H   0  0  0  0  0  0  0  0  0  0  0  0
    0.3053   -0.9638    0.0310 H   0  0  0  0  0  0  0  0  0  0  0  0
    0.1205    0.3348    1.2011 H   0  0  0  0  0  0  0  0  0  0  0  0
   -2.3449    0.1027    1.1260 H   0  0  0  0  0  0  0  0  0  0  0  0
   -1.5713   -1.4553    1.4827 H   0  0  0  0  0  0  0  0  0  0  0  0
   -4.3107   -1.6617    2.5114 H   0  0  0  0  0  0  0  0  0  0  0  0
   -6.1171   -0.2630    3.4402 H   0  0  0  0  0  0  0  0  0  0  0  0
  1  2  1  0
  2  3  2  0
  3  4  1  0
  4  5  2  0
  5  6  1  0
  6  7  2  0
  6  8  2  0
  6  9  1  0
  9 10  1  0
 10 11  1  0
 11 12  1  0
 12 13  1  0
 13 14  2  0
 13 15  1  0
 15 16  1  0
 16 17  1  0
 16 18  1  0
 18 19  2  0
 18 20  1  0
 20 21  1  0
 21 22  2  0
 22 23  1  0
 23 24  2  0
 24 25  1  0
 24 26  1  0
 26 27  2  0
 12 28  1  0
 28 29  1  0
  5 30  1  0
 30 31  2  0
 31  2  1  0
 29  9  1  0
 27 21  1  0
  1 32  1  0
  1 33  1  0
  1 34  1  0
  3 35  1  0
  4 36  1  0
 10 37  1  0
 10 38  1  0
 11 39  1  0
 11 40  1  0
 12 41  1  0
 15 42  1  0
 16 43  1  0
 17 44  1  0
 17 45  1  0
 17 46  1  0
 20 47  1  0
 22 48  1  0
 23 49  1  0
 26 50  1  0
 27 51  1  0
 28 52  1  0
 28 53  1  0
 29 54  1  0
 29 55  1  0
 30 56  1  0
 31 57  1  0
M  END
$$$$
