
     RDKit          3D

 51 54  0  0  0  0  0  0  0  0999 V2000
    5.5278   -4.1041    1.1629 C   0  0  0  0  0  0  0  0  0  0  0  0
    5.0605   -2.8266    0.5308 C   0  0  0  0  0  0  0  0  0  0  0  0
    3.7379   -2.3997    0.6904 C   0  0  0  0  0  0  0  0  0  0  0  0
    3.2941   -1.2262    0.0771 C   0  0  0  0  0  0  0  0  0  0  0  0
    4.1621   -0.4656   -0.7192 C   0  0  0  0  0  0  0  0  0  0  0  0
    3.6772    0.8082   -1.3644 C   0  0  0  0  0  0  0  0  0  0  0  0
    3.4878    1.8503   -0.3657 N   0  0  0  0  0  0  0  0  0  0  0  0
    2.4745    3.1264   -0.7168 S   0  0  0  0  0  6  0  0  0  0  0  0
    2.7230    4.1453    0.2775 O   0  0  0  0  0  0  0  0  0  0  0  0
    2.5766    3.3976   -2.1338 O   0  0  0  0  0  0  0  0  0  0  0  0
    0.8782    2.4283   -0.3789 C   0  0  0  0  0  0  0  0  0  0  0  0
    0.5766    2.0251    0.9325 C   0  0  0  0  0  0  0  0  0  0  0  0
   -0.6646    1.4476    1.2231 C   0  0  0  0  0  0  0  0  0  0  0  0
   -1.5889    1.2955    0.1999 C   0  0  0  0  0  0  0  0  0  0  0  0
   -1.2770    1.7104   -1.0998 C   0  0  0  0  0  0  0  0  0  0  0  0
   -0.0484    2.2751   -1.4126 C   0  0  0  0  0  0  0  0  0  0  0  0
   -2.3867    1.3934   -2.0466 C   0  0  0  0  0  0  0  0  0  0  0  0
   -3.5096    1.0092   -1.0781 C   0  0  0  0  0  0  0  0  0  0  0  0
   -2.8979    0.7543    0.2380 N   0  0  0  0  0  0  0  0  0  0  0  0
   -3.4940    0.1838    1.3631 C   0  0  0  0  0  0  0  0  0  0  0  0
   -2.8831    0.0909    2.4426 O   0  0  0  0  0  0  0  0  0  0  0  0
   -4.9207   -0.3868    1.3077 C   0  0  0  0  0  0  0  0  0  0  0  0
   -6.1312    0.3131    0.6526 C   0  0  0  0  0  0  0  0  0  0  0  0
   -6.6755   -1.0877    0.3041 C   0  0  0  0  0  0  0  0  0  0  0  0
   -5.2343   -1.6201    0.4278 C   0  0  0  0  0  0  0  0  0  0  0  0
    5.4837   -0.8985   -0.8840 C   0  0  0  0  0  0  0  0  0  0  0  0
    5.9261   -2.0734   -0.2704 C   0  0  0  0  0  0  0  0  0  0  0  0
    4.9965   -4.2926    2.1017 H   0  0  0  0  0  0  0  0  0  0  0  0
    5.3537   -4.9435    0.4828 H   0  0  0  0  0  0  0  0  0  0  0  0
    6.5960   -4.0551    1.3991 H   0  0  0  0  0  0  0  0  0  0  0  0
    3.0436   -2.9761    1.2981 H   0  0  0  0  0  0  0  0  0  0  0  0
    2.2648   -0.9052    0.2263 H   0  0  0  0  0  0  0  0  0  0  0  0
    2.7453    0.5919   -1.8990 H   0  0  0  0  0  0  0  0  0  0  0  0
    4.4069    1.1533   -2.1057 H   0  0  0  0  0  0  0  0  0  0  0  0
    4.2531    2.0664    0.2691 H   0  0  0  0  0  0  0  0  0  0  0  0
    1.3062    2.1563    1.7293 H   0  0  0  0  0  0  0  0  0  0  0  0
   -0.8767    1.1445    2.2427 H   0  0  0  0  0  0  0  0  0  0  0  0
    0.1830    2.5785   -2.4295 H   0  0  0  0  0  0  0  0  0  0  0  0
   -2.6674    2.2447   -2.6730 H   0  0  0  0  0  0  0  0  0  0  0  0
   -2.1077    0.5432   -2.6779 H   0  0  0  0  0  0  0  0  0  0  0  0
   -4.1940    1.8568   -0.9579 H   0  0  0  0  0  0  0  0  0  0  0  0
   -4.0718    0.1484   -1.4411 H   0  0  0  0  0  0  0  0  0  0  0  0
   -5.2047   -0.6271    2.3505 H   0  0  0  0  0  0  0  0  0  0  0  0
   -6.7587    0.8916    1.3378 H   0  0  0  0  0  0  0  0  0  0  0  0
   -5.9475    0.9249   -0.2301 H   0  0  0  0  0  0  0  0  0  0  0  0
   -7.1338   -1.1868   -0.6831 H   0  0  0  0  0  0  0  0  0  0  0  0
   -7.3595   -1.4930    1.0585 H   0  0  0  0  0  0  0  0  0  0  0  0
   -5.1415   -2.5875    0.9305 H   0  0  0  0  0  0  0  0  0  0  0  0
   -4.6948   -1.6763   -0.5214 H   0  0  0  0  0  0  0  0  0  0  0  0
    6.1807   -0.3270   -1.4931 H   0  0  0  0  0  0  0  0  0  0  0  0
    6.9542   -2.3961   -0.4196 H   0  0  0  0  0  0  0  0  0  0  0  0
  1  2  1  0
  2  3  2  0
  3  4  1  0
  4  5  2  0
  5  6  1  0
  6  7  1  0
  7  8  1  0
  8  9  2  0
  8 10  2  0
  8 11  1  0
 11 12  2  0
 12 13  1  0
 13 14  2  0
 14 15  1  0
 15 16  2  0
 15 17  1  0
 17 18  1  0
 18 19  1  0
 19 20  1  0
 20 21  2  0
 20 22  1  0
 22 23  1  0
 23 24  1  0
 24 25  1  0
  5 26  1  0
 26 27  2  0
 27  2  1  0
 16 11  1  0
 25 22  1  0
 19 14  1  0
  1 28  1  0
  1 29  1  0
  1 30  1  0
  3 31  1  0
  4 32  1  0
  6 33  1  0
  6 34  1  0
  7 35  1  0
 12 36  1  0
 13 37  1  0
 16 38  1  0
 17 39  1  0
 17 40  1  0
 18 41  1  0
 18 42  1  0
 22 43  1  0
 23 44  1  0
 23 45  1  0
 24 46  1  0
 24 47  1  0
 25 48  1  0
 25 49  1  0
 26 50  1  0
 27 51  1  0
M  END
$$$$
