
     RDKit          3D

 36 38  0  0  0  0  0  0  0  0999 V2000
   -1.3748    0.4095   -3.0695 C   0  0  0  0  0  0  0  0  0  0  0  0
   -2.1455   -0.0395   -1.8776 C   0  0  0  0  0  0  0  0  0  0  0  0
   -3.5126   -0.1238   -1.7055 C   0  0  0  0  0  0  0  0  0  0  0  0
   -3.7694   -0.6065   -0.3961 C   0  0  0  0  0  0  0  0  0  0  0  0
   -4.9486   -0.8850    0.3227 C   0  0  0  0  0  0  0  0  0  0  0  0
   -4.8601   -1.3632    1.6337 C   0  0  0  0  0  0  0  0  0  0  0  0
   -3.6192   -1.5650    2.2295 C   0  0  0  0  0  0  0  0  0  0  0  0
   -2.4353   -1.2955    1.5356 C   0  0  0  0  0  0  0  0  0  0  0  0
   -2.5329   -0.8155    0.2181 C   0  0  0  0  0  0  0  0  0  0  0  0
   -1.5605   -0.4628   -0.7021 N   0  0  0  0  0  0  0  0  0  0  0  0
   -0.1278   -0.5187   -0.4468 C   0  0  0  0  0  0  0  0  0  0  0  0
    0.3775    0.7702    0.2013 C   0  0  0  0  0  0  0  0  0  0  0  0
    1.7917    0.7244    0.5340 N   0  0  0  0  0  0  0  0  0  0  0  0
    2.7647    0.8031   -0.4482 C   0  0  0  0  0  0  0  0  0  0  0  0
    2.4562    0.8429   -1.6371 O   0  0  0  0  0  0  0  0  0  0  0  0
    4.1334    0.8290    0.0345 C   0  0  0  0  0  0  0  0  0  0  0  0
    4.7020    0.7724    1.2970 C   0  0  0  0  0  0  0  0  0  0  0  0
    6.1075    0.8401    1.1206 C   0  0  0  0  0  0  0  0  0  0  0  0
    6.3189    0.9328   -0.2341 C   0  0  0  0  0  0  0  0  0  0  0  0
    8.0198    1.0530   -1.0758 Br  0  0  0  0  0  0  0  0  0  0  0  0
    5.1350    0.9261   -0.8971 O   0  0  0  0  0  0  0  0  0  0  0  0
   -0.8012   -0.4210   -3.4929 H   0  0  0  0  0  0  0  0  0  0  0  0
   -2.0472    0.7834   -3.8488 H   0  0  0  0  0  0  0  0  0  0  0  0
   -0.6856    1.2184   -2.8088 H   0  0  0  0  0  0  0  0  0  0  0  0
   -4.2554    0.1368   -2.4483 H   0  0  0  0  0  0  0  0  0  0  0  0
   -5.9198   -0.7304   -0.1379 H   0  0  0  0  0  0  0  0  0  0  0  0
   -5.7696   -1.5797    2.1883 H   0  0  0  0  0  0  0  0  0  0  0  0
   -3.5686   -1.9400    3.2490 H   0  0  0  0  0  0  0  0  0  0  0  0
   -1.4755   -1.4613    2.0126 H   0  0  0  0  0  0  0  0  0  0  0  0
    0.0683   -1.3836    0.1972 H   0  0  0  0  0  0  0  0  0  0  0  0
    0.3800   -0.7251   -1.3940 H   0  0  0  0  0  0  0  0  0  0  0  0
    0.2088    1.6270   -0.4613 H   0  0  0  0  0  0  0  0  0  0  0  0
   -0.1597    0.9691    1.1354 H   0  0  0  0  0  0  0  0  0  0  0  0
    2.0571    0.7655    1.5069 H   0  0  0  0  0  0  0  0  0  0  0  0
    4.1786    0.6904    2.2386 H   0  0  0  0  0  0  0  0  0  0  0  0
    6.8699    0.8225    1.8870 H   0  0  0  0  0  0  0  0  0  0  0  0
  1  2  1  0
  2  3  2  0
  3  4  1  0
  4  5  2  0
  5  6  1  0
  6  7  2  0
  7  8  1  0
  8  9  2  0
  9 10  1  0
 10 11  1  0
 11 12  1  0
 12 13  1  0
 13 14  1  0
 14 15  2  0
 14 16  1  0
 16 17  2  0
 17 18  1  0
 18 19  2  0
 19 20  1  0
 19 21  1  0
 10  2  1  0
 21 16  1  0
  9  4  1  0
  1 22  1  0
  1 23  1  0
  1 24  1  0
  3 25  1  0
  5 26  1  0
  6 27  1  0
  7 28  1  0
  8 29  1  0
 11 30  1  0
 11 31  1  0
 12 32  1  0
 12 33  1  0
 13 34  1  0
 17 35  1  0
 18 36  1  0
M  END
$$$$
