
     RDKit          3D

 56 60  0  0  0  0  0  0  0  0999 V2000
    7.8787   -0.6282   -1.2317 C   0  0  0  0  0  0  0  0  0  0  0  0
    6.4290   -0.3369   -1.3464 C   0  0  0  0  0  0  0  0  0  0  0  0
    5.5965   -1.2543   -1.8554 N   0  0  0  0  0  0  0  0  0  0  0  0
    4.3771   -0.6724   -1.7951 N   0  0  0  0  0  0  0  0  0  0  0  0
    3.2218   -1.4161   -2.2895 C   0  0  0  0  0  0  0  0  0  0  0  0
    2.3973   -1.9963   -1.1653 C   0  0  0  0  0  0  0  0  0  0  0  0
    2.9257   -3.0058   -0.3451 C   0  0  0  0  0  0  0  0  0  0  0  0
    2.1608   -3.5671    0.6785 C   0  0  0  0  0  0  0  0  0  0  0  0
    0.8590   -3.1211    0.9012 C   0  0  0  0  0  0  0  0  0  0  0  0
    0.3230   -2.1036    0.1063 C   0  0  0  0  0  0  0  0  0  0  0  0
   -1.0662   -1.6450    0.3787 C   0  0  0  0  0  0  0  0  0  0  0  0
   -1.8959   -2.4416    0.7965 O   0  0  0  0  0  0  0  0  0  0  0  0
   -1.2993   -0.3010    0.1645 N   0  0  0  0  0  0  0  0  0  0  0  0
   -2.5659    0.3769    0.4651 C   0  0  0  0  0  0  0  0  0  0  0  0
   -2.4299    1.8670    0.0478 C   0  0  0  0  0  0  0  0  0  0  0  0
   -3.7228    2.6435    0.3428 C   0  0  0  0  0  0  0  0  0  0  0  0
   -4.0253    2.5655    1.8475 C   0  0  0  0  0  0  0  0  0  0  0  0
   -4.1922    1.0985    2.2745 C   0  0  0  0  0  0  0  0  0  0  0  0
   -5.3463    0.4667    1.4776 C   0  0  0  0  0  0  0  0  0  0  0  0
   -5.0515    0.5398   -0.0305 C   0  0  0  0  0  0  0  0  0  0  0  0
   -4.8808    2.0100   -0.4433 C   0  0  0  0  0  0  0  0  0  0  0  0
   -3.7513   -0.2277   -0.3295 C   0  0  0  0  0  0  0  0  0  0  0  0
   -2.8915    0.3312    1.9781 C   0  0  0  0  0  0  0  0  0  0  0  0
    1.0846   -1.5540   -0.9355 C   0  0  0  0  0  0  0  0  0  0  0  0
    4.4072    0.6078   -1.2884 C   0  0  0  0  0  0  0  0  0  0  0  0
    3.2054    1.4611   -1.1292 C   0  0  0  0  0  0  0  0  0  0  0  0
    5.7301    0.8306   -0.9838 C   0  0  0  0  0  0  0  0  0  0  0  0
    6.4993    2.3648   -0.2326 Br  0  0  0  0  0  0  0  0  0  0  0  0
    8.2016   -0.5630   -0.1876 H   0  0  0  0  0  0  0  0  0  0  0  0
    8.1163   -1.6346   -1.5933 H   0  0  0  0  0  0  0  0  0  0  0  0
    8.4614    0.0864   -1.8217 H   0  0  0  0  0  0  0  0  0  0  0  0
    2.6368   -0.7327   -2.9145 H   0  0  0  0  0  0  0  0  0  0  0  0
    3.5837   -2.2186   -2.9434 H   0  0  0  0  0  0  0  0  0  0  0  0
    3.9426   -3.3652   -0.5054 H   0  0  0  0  0  0  0  0  0  0  0  0
    2.5795   -4.3545    1.3008 H   0  0  0  0  0  0  0  0  0  0  0  0
    0.2634   -3.5641    1.6968 H   0  0  0  0  0  0  0  0  0  0  0  0
   -0.4835    0.2901    0.0770 H   0  0  0  0  0  0  0  0  0  0  0  0
   -2.1893    1.9386   -1.0215 H   0  0  0  0  0  0  0  0  0  0  0  0
   -1.5910    2.3337    0.5817 H   0  0  0  0  0  0  0  0  0  0  0  0
   -3.6023    3.6906    0.0437 H   0  0  0  0  0  0  0  0  0  0  0  0
   -4.9388    3.1283    2.0758 H   0  0  0  0  0  0  0  0  0  0  0  0
   -3.2129    3.0322    2.4182 H   0  0  0  0  0  0  0  0  0  0  0  0
   -4.4129    1.0491    3.3467 H   0  0  0  0  0  0  0  0  0  0  0  0
   -6.2845    0.9898    1.7003 H   0  0  0  0  0  0  0  0  0  0  0  0
   -5.4842   -0.5779    1.7824 H   0  0  0  0  0  0  0  0  0  0  0  0
   -5.8803    0.0933   -0.5912 H   0  0  0  0  0  0  0  0  0  0  0  0
   -4.6841    2.0767   -1.5204 H   0  0  0  0  0  0  0  0  0  0  0  0
   -5.8091    2.5629   -0.2544 H   0  0  0  0  0  0  0  0  0  0  0  0
   -3.5381   -0.1973   -1.4061 H   0  0  0  0  0  0  0  0  0  0  0  0
   -3.8990   -1.2836   -0.0762 H   0  0  0  0  0  0  0  0  0  0  0  0
   -2.9990   -0.7039    2.3236 H   0  0  0  0  0  0  0  0  0  0  0  0
   -2.0634    0.7629    2.5555 H   0  0  0  0  0  0  0  0  0  0  0  0
    0.6475   -0.7992   -1.5850 H   0  0  0  0  0  0  0  0  0  0  0  0
    3.4765    2.5011   -0.9241 H   0  0  0  0  0  0  0  0  0  0  0  0
    2.5945    1.4599   -2.0372 H   0  0  0  0  0  0  0  0  0  0  0  0
    2.5922    1.1066   -0.2948 H   0  0  0  0  0  0  0  0  0  0  0  0
  1  2  1  0
  2  3  2  0
  3  4  1  0
  4  5  1  0
  5  6  1  0
  6  7  2  0
  7  8  1  0
  8  9  2  0
  9 10  1  0
 10 11  1  0
 11 12  2  0
 11 13  1  0
 13 14  1  0
 14 15  1  0
 15 16  1  0
 16 17  1  0
 17 18  1  0
 18 19  1  0
 19 20  1  0
 20 21  1  0
 20 22  1  0
 18 23  1  0
 10 24  2  0
  4 25  1  0
 25 26  1  0
 25 27  2  0
 27 28  1  0
 27  2  1  0
 24  6  1  0
 22 14  1  0
 23 14  1  0
 21 16  1  0
  1 29  1  0
  1 30  1  0
  1 31  1  0
  5 32  1  0
  5 33  1  0
  7 34  1  0
  8 35  1  0
  9 36  1  0
 13 37  1  0
 15 38  1  0
 15 39  1  0
 16 40  1  0
 17 41  1  0
 17 42  1  0
 18 43  1  0
 19 44  1  0
 19 45  1  0
 20 46  1  0
 21 47  1  0
 21 48  1  0
 22 49  1  0
 22 50  1  0
 23 51  1  0
 23 52  1  0
 24 53  1  0
 26 54  1  0
 26 55  1  0
 26 56  1  0
M  END
$$$$
