
     RDKit          3D

 48 51  0  0  0  0  0  0  0  0999 V2000
    2.2159   -2.7471   -2.1587 O   0  0  0  0  0  0  0  0  0  0  0  0
    2.7149   -1.6175   -1.3956 S   0  0  0  0  0  6  0  0  0  0  0  0
    3.1781   -0.4323   -2.0876 O   0  0  0  0  0  0  0  0  0  0  0  0
    4.0030   -2.2750   -0.3226 C   0  0  0  0  0  0  0  0  0  0  0  0
    4.5489   -1.2556    0.6388 C   0  0  0  0  0  0  0  0  0  0  0  0
    4.1990   -1.3048    1.9969 C   0  0  0  0  0  0  0  0  0  0  0  0
    4.7092   -0.3664    2.8952 C   0  0  0  0  0  0  0  0  0  0  0  0
    5.5790    0.6260    2.4487 C   0  0  0  0  0  0  0  0  0  0  0  0
    5.9422    0.6796    1.1048 C   0  0  0  0  0  0  0  0  0  0  0  0
    5.4341   -0.2580    0.2045 C   0  0  0  0  0  0  0  0  0  0  0  0
    1.4746   -1.1570   -0.3305 N   0  0  0  0  0  0  0  0  0  0  0  0
    1.5968    0.1962    0.3070 C   0  0  0  0  0  0  0  0  0  0  0  0
    0.5718    1.1840   -0.2773 C   0  0  0  0  0  0  0  0  0  0  0  0
   -0.8306    0.7859   -0.0241 N   0  0  0  0  0  0  0  0  0  0  0  0
   -1.7222    1.4450   -0.9914 C   0  0  0  0  0  0  0  0  0  0  0  0
   -3.1844    1.3813   -0.5963 C   0  0  0  0  0  0  0  0  0  0  0  0
   -3.6004    1.8239    0.6827 C   0  0  0  0  0  0  0  0  0  0  0  0
   -4.9470    1.7888    1.0576 C   0  0  0  0  0  0  0  0  0  0  0  0
   -5.8544    1.3148    0.1368 C   0  0  0  0  0  0  0  0  0  0  0  0
   -5.4640    0.8893   -1.1107 C   0  0  0  0  0  0  0  0  0  0  0  0
   -4.1436    0.9121   -1.5092 C   0  0  0  0  0  0  0  0  0  0  0  0
   -6.5123    0.4631   -1.8654 O   0  0  0  0  0  0  0  0  0  0  0  0
   -7.6069    0.6693   -0.9484 C   0  0  0  0  0  0  0  0  0  0  0  0
   -7.1971    1.2093    0.3248 O   0  0  0  0  0  0  0  0  0  0  0  0
   -0.9739   -0.6870   -0.0208 C   0  0  0  0  0  0  0  0  0  0  0  0
    0.0924   -1.4387   -0.8383 C   0  0  0  0  0  0  0  0  0  0  0  0
    3.5784   -3.1393    0.1996 H   0  0  0  0  0  0  0  0  0  0  0  0
    4.8021   -2.6461   -0.9738 H   0  0  0  0  0  0  0  0  0  0  0  0
    3.5201   -2.0717    2.3655 H   0  0  0  0  0  0  0  0  0  0  0  0
    4.4295   -0.4108    3.9448 H   0  0  0  0  0  0  0  0  0  0  0  0
    5.9772    1.3561    3.1488 H   0  0  0  0  0  0  0  0  0  0  0  0
    6.6228    1.4523    0.7558 H   0  0  0  0  0  0  0  0  0  0  0  0
    5.7278   -0.1963   -0.8425 H   0  0  0  0  0  0  0  0  0  0  0  0
    2.5957    0.6174    0.1737 H   0  0  0  0  0  0  0  0  0  0  0  0
    1.4452    0.0790    1.3867 H   0  0  0  0  0  0  0  0  0  0  0  0
    0.7605    1.2735   -1.3560 H   0  0  0  0  0  0  0  0  0  0  0  0
    0.7368    2.1735    0.1645 H   0  0  0  0  0  0  0  0  0  0  0  0
   -1.5771    1.0226   -1.9945 H   0  0  0  0  0  0  0  0  0  0  0  0
   -1.4715    2.5122   -1.0624 H   0  0  0  0  0  0  0  0  0  0  0  0
   -2.8592    2.1913    1.3908 H   0  0  0  0  0  0  0  0  0  0  0  0
   -5.2660    2.1225    2.0382 H   0  0  0  0  0  0  0  0  0  0  0  0
   -3.8681    0.5727   -2.5018 H   0  0  0  0  0  0  0  0  0  0  0  0
   -8.3232    1.3602   -1.4079 H   0  0  0  0  0  0  0  0  0  0  0  0
   -8.1061   -0.2914   -0.7773 H   0  0  0  0  0  0  0  0  0  0  0  0
   -1.9698   -1.0039   -0.3503 H   0  0  0  0  0  0  0  0  0  0  0  0
   -0.8957   -1.0123    1.0250 H   0  0  0  0  0  0  0  0  0  0  0  0
    0.0102   -1.1509   -1.8934 H   0  0  0  0  0  0  0  0  0  0  0  0
   -0.0926   -2.5154   -0.7545 H   0  0  0  0  0  0  0  0  0  0  0  0
  1  2  2  0
  2  3  2  0
  2  4  1  0
  4  5  1  0
  5  6  2  0
  6  7  1  0
  7  8  2  0
  8  9  1  0
  9 10  2  0
  2 11  1  0
 11 12  1  0
 12 13  1  0
 13 14  1  0
 14 15  1  0
 15 16  1  0
 16 17  2  0
 17 18  1  0
 18 19  2  0
 19 20  1  0
 20 21  2  0
 20 22  1  0
 22 23  1  0
 23 24  1  0
 14 25  1  0
 25 26  1  0
 10  5  1  0
 26 11  1  0
 21 16  1  0
 24 19  1  0
  4 27  1  0
  4 28  1  0
  6 29  1  0
  7 30  1  0
  8 31  1  0
  9 32  1  0
 10 33  1  0
 12 34  1  0
 12 35  1  0
 13 36  1  0
 13 37  1  0
 15 38  1  0
 15 39  1  0
 17 40  1  0
 18 41  1  0
 21 42  1  0
 23 43  1  0
 23 44  1  0
 25 45  1  0
 25 46  1  0
 26 47  1  0
 26 48  1  0
M  END
$$$$
