
     RDKit          3D

 41 42  0  0  0  0  0  0  0  0999 V2000
   -6.1927    1.0268   -0.7692 C   0  0  0  0  0  0  0  0  0  0  0  0
   -6.4488    0.7971    0.7025 C   0  0  0  0  0  0  0  0  0  0  0  0
   -7.6170    0.7996    1.1038 O   0  0  0  0  0  0  0  0  0  0  0  0
   -5.3604    0.6665    1.5665 N   0  0  0  0  0  0  0  0  0  0  0  0
   -5.6288    0.8192    2.9944 C   0  0  0  0  0  0  0  0  0  0  0  0
   -4.0125    0.3942    1.1799 C   0  0  0  0  0  0  0  0  0  0  0  0
   -2.9420    0.9345    1.8991 C   0  0  0  0  0  0  0  0  0  0  0  0
   -1.6176    0.6545    1.5369 C   0  0  0  0  0  0  0  0  0  0  0  0
   -1.3190   -0.1892    0.4593 C   0  0  0  0  0  0  0  0  0  0  0  0
    0.0526   -0.3900    0.1927 N   0  0  0  0  0  0  0  0  0  0  0  0
    0.7479   -1.1290   -0.7356 C   0  0  0  0  0  0  0  0  0  0  0  0
    0.1952   -2.1324   -1.9497 S   0  0  0  0  0  0  0  0  0  0  0  0
    2.1301   -1.0172   -0.6455 N   0  0  0  0  0  0  0  0  0  0  0  0
    2.8855   -0.2705    0.2365 C   0  0  0  0  0  0  0  0  0  0  0  0
    2.4226    0.3642    1.1798 O   0  0  0  0  0  0  0  0  0  0  0  0
    4.3532   -0.3365    0.0400 C   0  0  0  0  0  0  0  0  0  0  0  0
    4.9294   -0.3747   -1.1696 C   0  0  0  0  0  0  0  0  0  0  0  0
    6.3409   -0.4046   -1.3455 C   0  0  0  0  0  0  0  0  0  0  0  0
    7.3922   -0.3875   -0.4332 C   0  0  0  0  0  0  0  0  0  0  0  0
    8.6062   -0.4366   -1.1603 C   0  0  0  0  0  0  0  0  0  0  0  0
    8.2477   -0.4820   -2.4817 C   0  0  0  0  0  0  0  0  0  0  0  0
    6.8996   -0.4643   -2.6046 O   0  0  0  0  0  0  0  0  0  0  0  0
   -2.3826   -0.7505   -0.2388 C   0  0  0  0  0  0  0  0  0  0  0  0
   -3.7112   -0.4674    0.1216 C   0  0  0  0  0  0  0  0  0  0  0  0
   -6.9796    1.6815   -1.1593 H   0  0  0  0  0  0  0  0  0  0  0  0
   -5.2445    1.5379   -0.9487 H   0  0  0  0  0  0  0  0  0  0  0  0
   -6.2373    0.0795   -1.3106 H   0  0  0  0  0  0  0  0  0  0  0  0
   -6.6747    0.6061    3.2335 H   0  0  0  0  0  0  0  0  0  0  0  0
   -5.4177    1.8535    3.2843 H   0  0  0  0  0  0  0  0  0  0  0  0
   -5.0096    0.1287    3.5765 H   0  0  0  0  0  0  0  0  0  0  0  0
   -3.1092    1.6097    2.7338 H   0  0  0  0  0  0  0  0  0  0  0  0
   -0.8189    1.1141    2.1166 H   0  0  0  0  0  0  0  0  0  0  0  0
    0.6695    0.1133    0.8333 H   0  0  0  0  0  0  0  0  0  0  0  0
    2.6129   -1.5846   -1.3290 H   0  0  0  0  0  0  0  0  0  0  0  0
    4.9215   -0.2753    0.9617 H   0  0  0  0  0  0  0  0  0  0  0  0
    4.3404   -0.3643   -2.0821 H   0  0  0  0  0  0  0  0  0  0  0  0
    7.2986   -0.3422    0.6430 H   0  0  0  0  0  0  0  0  0  0  0  0
    9.6135   -0.4375   -0.7685 H   0  0  0  0  0  0  0  0  0  0  0  0
    8.8021   -0.5270   -3.4088 H   0  0  0  0  0  0  0  0  0  0  0  0
   -2.2413   -1.4308   -1.0676 H   0  0  0  0  0  0  0  0  0  0  0  0
   -4.4964   -0.9869   -0.4199 H   0  0  0  0  0  0  0  0  0  0  0  0
  1  2  1  0
  2  3  2  0
  2  4  1  0
  4  5  1  0
  4  6  1  0
  6  7  2  0
  7  8  1  0
  8  9  2  0
  9 10  1  0
 10 11  1  0
 11 12  2  0
 11 13  1  0
 13 14  1  0
 14 15  2  0
 14 16  1  0
 16 17  2  3
 17 18  1  0
 18 19  2  0
 19 20  1  0
 20 21  2  0
 21 22  1  0
  9 23  1  0
 23 24  2  0
 24  6  1  0
 22 18  1  0
  1 25  1  0
  1 26  1  0
  1 27  1  0
  5 28  1  0
  5 29  1  0
  5 30  1  0
  7 31  1  0
  8 32  1  0
 10 33  1  0
 13 34  1  0
 16 35  1  0
 17 36  1  0
 19 37  1  0
 20 38  1  0
 21 39  1  0
 23 40  1  0
 24 41  1  0
M  END
$$$$
