
     RDKit          3D

 31 34  0  0  0  0  0  0  0  0999 V2000
   -0.7041   -2.5345    2.4076 N   0  0  0  0  0  0  0  0  0  0  0  0
   -0.5013   -1.7081    1.6177 C   0  0  0  0  0  0  0  0  0  0  0  0
   -0.2802   -0.6826    0.6557 C   0  0  0  0  0  0  0  0  0  0  0  0
   -1.1688   -0.4048   -0.3185 C   0  0  0  0  0  0  0  0  0  0  0  0
   -0.9708    0.6842   -1.3510 C   0  0  0  0  0  0  0  0  0  0  0  0
   -0.0615    1.4823   -1.4497 O   0  0  0  0  0  0  0  0  0  0  0  0
   -2.0830    0.6191   -2.1691 N   0  0  0  0  0  0  0  0  0  0  0  0
   -2.9659   -0.3686   -1.7571 C   0  0  0  0  0  0  0  0  0  0  0  0
   -4.1745   -0.6775   -2.3534 C   0  0  0  0  0  0  0  0  0  0  0  0
   -4.9226   -1.7052   -1.7821 C   0  0  0  0  0  0  0  0  0  0  0  0
   -4.4429   -2.3777   -0.6510 C   0  0  0  0  0  0  0  0  0  0  0  0
   -5.1816   -3.3614   -0.1209 F   0  0  0  0  0  0  0  0  0  0  0  0
   -3.2192   -2.0538   -0.0597 C   0  0  0  0  0  0  0  0  0  0  0  0
   -2.4731   -1.0330   -0.6244 C   0  0  0  0  0  0  0  0  0  0  0  0
    0.9649    0.0060    0.7444 C   0  0  0  0  0  0  0  0  0  0  0  0
    2.0781   -0.3396    0.1294 N   0  0  0  0  0  0  0  0  0  0  0  0
    3.0994    0.5422    0.4424 C   0  0  0  0  0  0  0  0  0  0  0  0
    4.4165    0.4906   -0.0573 C   0  0  0  0  0  0  0  0  0  0  0  0
    5.3538    1.4455    0.3502 C   0  0  0  0  0  0  0  0  0  0  0  0
    4.9947    2.4461    1.2476 C   0  0  0  0  0  0  0  0  0  0  0  0
    3.6951    2.5177    1.7589 C   0  0  0  0  0  0  0  0  0  0  0  0
    2.7620    1.5537    1.3416 C   0  0  0  0  0  0  0  0  0  0  0  0
    1.1114    1.3762    1.7913 S   0  0  0  0  0  0  0  0  0  0  0  0
   -2.2151    1.2447   -2.9504 H   0  0  0  0  0  0  0  0  0  0  0  0
   -4.5334   -0.1480   -3.2288 H   0  0  0  0  0  0  0  0  0  0  0  0
   -5.8805   -1.9948   -2.2050 H   0  0  0  0  0  0  0  0  0  0  0  0
   -2.9059   -2.6140    0.8125 H   0  0  0  0  0  0  0  0  0  0  0  0
    4.6918   -0.2912   -0.7581 H   0  0  0  0  0  0  0  0  0  0  0  0
    6.3680    1.4032   -0.0397 H   0  0  0  0  0  0  0  0  0  0  0  0
    5.7328    3.1837    1.5558 H   0  0  0  0  0  0  0  0  0  0  0  0
    3.4160    3.2997    2.4585 H   0  0  0  0  0  0  0  0  0  0  0  0
  1  2  3  0
  2  3  1  0
  3  4  2  3
  4  5  1  0
  5  6  2  0
  5  7  1  0
  7  8  1  0
  8  9  2  0
  9 10  1  0
 10 11  2  0
 11 12  1  0
 11 13  1  0
 13 14  2  0
  3 15  1  0
 15 16  2  0
 16 17  1  0
 17 18  2  0
 18 19  1  0
 19 20  2  0
 20 21  1  0
 21 22  2  0
 22 23  1  0
 14  4  1  0
 23 15  1  0
 14  8  1  0
 22 17  1  0
  7 24  1  0
  9 25  1  0
 10 26  1  0
 13 27  1  0
 18 28  1  0
 19 29  1  0
 20 30  1  0
 21 31  1  0
M  END
$$$$
