
     RDKit          3D

 44 47  0  0  0  0  0  0  0  0999 V2000
    6.5006   -1.3364   -1.1373 C   0  0  0  0  0  0  0  0  0  0  0  0
    5.1031   -1.5555   -0.9865 O   0  0  0  0  0  0  0  0  0  0  0  0
    4.4489   -0.7690   -0.0808 C   0  0  0  0  0  0  0  0  0  0  0  0
    5.0156    0.2279    0.7012 C   0  0  0  0  0  0  0  0  0  0  0  0
    4.2134    0.9576    1.5863 C   0  0  0  0  0  0  0  0  0  0  0  0
    2.8524    0.7213    1.7177 C   0  0  0  0  0  0  0  0  0  0  0  0
    2.1579    1.4726    2.5870 N   0  0  0  0  0  0  0  0  0  0  0  0
    0.8345    1.2456    2.7087 C   0  0  0  0  0  0  0  0  0  0  0  0
    0.1530    0.2801    1.9981 C   0  0  0  0  0  0  0  0  0  0  0  0
    0.8694   -0.5024    1.0916 C   0  0  0  0  0  0  0  0  0  0  0  0
    0.1495   -1.5409    0.3336 C   0  0  0  0  0  0  0  0  0  0  0  0
   -0.7953   -1.3222   -0.5963 C   0  0  0  0  0  0  0  0  0  0  0  0
   -1.2771   -0.0019   -1.0382 C   0  0  0  0  0  0  0  0  0  0  0  0
   -0.4009    0.8177   -1.7511 C   0  0  0  0  0  0  0  0  0  0  0  0
   -0.8535    2.0516   -2.1668 C   0  0  0  0  0  0  0  0  0  0  0  0
   -2.0988    2.5111   -1.9319 N   0  0  0  0  0  0  0  0  0  0  0  0
   -2.9466    1.7260   -1.2481 C   0  0  0  0  0  0  0  0  0  0  0  0
   -4.2249    2.2017   -1.0014 C   0  0  0  0  0  0  0  0  0  0  0  0
   -5.1656    1.4509   -0.2922 C   0  0  0  0  0  0  0  0  0  0  0  0
   -4.8380    0.1895    0.1909 C   0  0  0  0  0  0  0  0  0  0  0  0
   -5.8396   -0.4432    0.8709 O   0  0  0  0  0  0  0  0  0  0  0  0
   -5.5595   -1.7426    1.3760 C   0  0  0  0  0  0  0  0  0  0  0  0
   -3.5583   -0.3094   -0.0469 C   0  0  0  0  0  0  0  0  0  0  0  0
   -2.5948    0.4451   -0.7687 C   0  0  0  0  0  0  0  0  0  0  0  0
    2.2616   -0.2915    0.9335 C   0  0  0  0  0  0  0  0  0  0  0  0
    3.0811   -1.0229    0.0379 C   0  0  0  0  0  0  0  0  0  0  0  0
    7.0345   -1.5359   -0.2023 H   0  0  0  0  0  0  0  0  0  0  0  0
    6.8700   -2.0408   -1.8888 H   0  0  0  0  0  0  0  0  0  0  0  0
    6.7040   -0.3238   -1.5012 H   0  0  0  0  0  0  0  0  0  0  0  0
    6.0717    0.4707    0.6530 H   0  0  0  0  0  0  0  0  0  0  0  0
    4.6669    1.7389    2.1930 H   0  0  0  0  0  0  0  0  0  0  0  0
    0.3188    1.8844    3.4202 H   0  0  0  0  0  0  0  0  0  0  0  0
   -0.9131    0.1487    2.1477 H   0  0  0  0  0  0  0  0  0  0  0  0
    0.4410   -2.5629    0.5675 H   0  0  0  0  0  0  0  0  0  0  0  0
   -1.2656   -2.1703   -1.0897 H   0  0  0  0  0  0  0  0  0  0  0  0
    0.6144    0.5082   -1.9754 H   0  0  0  0  0  0  0  0  0  0  0  0
   -0.2070    2.7277   -2.7190 H   0  0  0  0  0  0  0  0  0  0  0  0
   -4.4990    3.1876   -1.3699 H   0  0  0  0  0  0  0  0  0  0  0  0
   -6.1581    1.8592   -0.1181 H   0  0  0  0  0  0  0  0  0  0  0  0
   -6.4591   -2.1058    1.8821 H   0  0  0  0  0  0  0  0  0  0  0  0
   -4.7511   -1.7129    2.1141 H   0  0  0  0  0  0  0  0  0  0  0  0
   -5.3291   -2.4406    0.5643 H   0  0  0  0  0  0  0  0  0  0  0  0
   -3.2784   -1.2893    0.3249 H   0  0  0  0  0  0  0  0  0  0  0  0
    2.6509   -1.8041   -0.5851 H   0  0  0  0  0  0  0  0  0  0  0  0
  1  2  1  0
  2  3  1  0
  3  4  2  0
  4  5  1  0
  5  6  2  0
  6  7  1  0
  7  8  2  0
  8  9  1  0
  9 10  2  0
 10 11  1  0
 11 12  2  3
 12 13  1  0
 13 14  2  0
 14 15  1  0
 15 16  2  0
 16 17  1  0
 17 18  2  0
 18 19  1  0
 19 20  2  0
 20 21  1  0
 21 22  1  0
 20 23  1  0
 23 24  2  0
 10 25  1  0
 25 26  2  0
 26  3  1  0
 25  6  1  0
 24 13  1  0
 24 17  1  0
  1 27  1  0
  1 28  1  0
  1 29  1  0
  4 30  1  0
  5 31  1  0
  8 32  1  0
  9 33  1  0
 11 34  1  0
 12 35  1  0
 14 36  1  0
 15 37  1  0
 18 38  1  0
 19 39  1  0
 22 40  1  0
 22 41  1  0
 22 42  1  0
 23 43  1  0
 26 44  1  0
M  END
$$$$
