
     RDKit          3D

 42 45  0  0  0  0  0  0  0  0999 V2000
    6.5623   -0.5743    3.5519 O   0  0  0  0  0  0  0  0  0  0  0  0
    5.3641   -0.4990    3.3442 C   0  0  0  0  0  0  0  0  0  0  0  0
    4.4789   -0.7231    4.3343 O   0  0  0  0  0  0  0  0  0  0  0  0
    4.6810   -0.1629    2.0467 C   0  0  0  0  0  0  0  0  0  0  0  0
    5.6888   -0.0134    0.9069 C   0  0  0  0  0  0  0  0  0  0  0  0
    5.0538    0.4574   -0.4055 C   0  0  0  0  0  0  0  0  0  0  0  0
    4.1453   -0.5290   -0.9975 N   0  0  0  0  0  0  0  0  0  0  0  0
    2.7859   -0.4257   -0.7376 C   0  0  0  0  0  0  0  0  0  0  0  0
    2.2785    0.4484   -0.0505 O   0  0  0  0  0  0  0  0  0  0  0  0
    2.0334   -1.5218   -1.4142 C   0  0  0  0  0  0  0  0  0  0  0  0
    0.7222   -1.7995   -1.4156 C   0  0  0  0  0  0  0  0  0  0  0  0
   -0.2976   -1.1121   -0.7053 C   0  0  0  0  0  0  0  0  0  0  0  0
   -0.3472   -0.5939    0.5807 C   0  0  0  0  0  0  0  0  0  0  0  0
   -1.6366   -0.0477    0.7814 C   0  0  0  0  0  0  0  0  0  0  0  0
   -2.3549   -0.2667   -0.3776 C   0  0  0  0  0  0  0  0  0  0  0  0
   -3.7163    0.1001   -0.6584 C   0  0  0  0  0  0  0  0  0  0  0  0
   -4.4746    0.7148    0.2251 N   0  0  0  0  0  0  0  0  0  0  0  0
   -5.7302    0.9438   -0.3122 C   0  0  0  0  0  0  0  0  0  0  0  0
   -6.8049    1.5803    0.3415 C   0  0  0  0  0  0  0  0  0  0  0  0
   -8.0245    1.7459   -0.3232 C   0  0  0  0  0  0  0  0  0  0  0  0
   -8.1845    1.2863   -1.6266 C   0  0  0  0  0  0  0  0  0  0  0  0
   -7.1343    0.6518   -2.2973 C   0  0  0  0  0  0  0  0  0  0  0  0
   -5.9139    0.4909   -1.6200 C   0  0  0  0  0  0  0  0  0  0  0  0
   -4.4548   -0.2389   -2.1682 S   0  0  0  0  0  0  0  0  0  0  0  0
   -1.5431   -0.9260   -1.2630 O   0  0  0  0  0  0  0  0  0  0  0  0
    3.1442   -2.4891   -2.3274 S   0  0  0  0  0  0  0  0  0  0  0  0
    4.5437   -1.5568   -1.8252 C   0  0  0  0  0  0  0  0  0  0  0  0
    6.0855   -1.9402   -2.3329 S   0  0  0  0  0  0  0  0  0  0  0  0
    5.0365   -0.9197    5.1164 H   0  0  0  0  0  0  0  0  0  0  0  0
    3.9762   -0.9698    1.8210 H   0  0  0  0  0  0  0  0  0  0  0  0
    4.1294    0.7728    2.1868 H   0  0  0  0  0  0  0  0  0  0  0  0
    6.4527    0.7194    1.1968 H   0  0  0  0  0  0  0  0  0  0  0  0
    6.2137   -0.9646    0.7594 H   0  0  0  0  0  0  0  0  0  0  0  0
    5.8476    0.6841   -1.1253 H   0  0  0  0  0  0  0  0  0  0  0  0
    4.5139    1.3964   -0.2356 H   0  0  0  0  0  0  0  0  0  0  0  0
    0.3590   -2.6130   -2.0408 H   0  0  0  0  0  0  0  0  0  0  0  0
    0.4580   -0.6050    1.3026 H   0  0  0  0  0  0  0  0  0  0  0  0
   -2.0116    0.4455    1.6682 H   0  0  0  0  0  0  0  0  0  0  0  0
   -6.6759    1.9376    1.3584 H   0  0  0  0  0  0  0  0  0  0  0  0
   -8.8508    2.2377    0.1849 H   0  0  0  0  0  0  0  0  0  0  0  0
   -9.1385    1.4217   -2.1324 H   0  0  0  0  0  0  0  0  0  0  0  0
   -7.2603    0.2937   -3.3146 H   0  0  0  0  0  0  0  0  0  0  0  0
  1  2  2  0
  2  3  1  0
  2  4  1  0
  4  5  1  0
  5  6  1  0
  6  7  1  0
  7  8  1  0
  8  9  2  0
  8 10  1  0
 10 11  2  3
 11 12  1  0
 12 13  2  0
 13 14  1  0
 14 15  2  0
 15 16  1  0
 16 17  2  0
 17 18  1  0
 18 19  2  0
 19 20  1  0
 20 21  2  0
 21 22  1  0
 22 23  2  0
 23 24  1  0
 15 25  1  0
 10 26  1  0
 26 27  1  0
 27 28  2  0
 27  7  1  0
 25 12  1  0
 24 16  1  0
 23 18  1  0
  3 29  1  0
  4 30  1  0
  4 31  1  0
  5 32  1  0
  5 33  1  0
  6 34  1  0
  6 35  1  0
 11 36  1  0
 13 37  1  0
 14 38  1  0
 19 39  1  0
 20 40  1  0
 21 41  1  0
 22 42  1  0
M  END
$$$$
