
     RDKit          3D

 40 41  0  0  0  0  0  0  0  0999 V2000
    0.0615    1.9117   -2.8885 O   0  0  0  0  0  0  0  0  0  0  0  0
   -0.4160    2.4028   -1.8797 C   0  0  0  0  0  0  0  0  0  0  0  0
   -0.0905    3.6506   -1.4986 O   0  0  0  0  0  0  0  0  0  0  0  0
   -1.3752    1.7329   -0.9415 C   0  0  0  0  0  0  0  0  0  0  0  0
   -0.6642    1.3115    0.3409 C   0  0  0  0  0  0  0  0  0  0  0  0
   -1.6926    0.8999    1.3346 N   0  0  0  0  0  0  0  0  0  0  0  0
   -1.1271    0.7895    2.6845 C   0  0  0  0  0  0  0  0  0  0  0  0
   -2.1812    0.3663    3.6450 C   0  0  0  0  0  0  0  0  0  0  0  0
   -3.2970    0.9915    4.1644 C   0  0  0  0  0  0  0  0  0  0  0  0
   -3.9079    0.0594    5.0370 C   0  0  0  0  0  0  0  0  0  0  0  0
   -3.1291   -1.0733    4.9935 C   0  0  0  0  0  0  0  0  0  0  0  0
   -2.0780   -0.8968    4.1521 O   0  0  0  0  0  0  0  0  0  0  0  0
    0.2713    0.1340    0.0220 C   0  0  0  0  0  0  0  0  0  0  0  0
   -0.0494   -1.0448    0.1066 O   0  0  0  0  0  0  0  0  0  0  0  0
    1.4845    0.5961   -0.3838 O   0  0  0  0  0  0  0  0  0  0  0  0
    2.4695   -0.3931   -0.7241 C   0  0  0  0  0  0  0  0  0  0  0  0
    2.6535   -0.4975   -2.2434 C   0  0  0  0  0  0  0  0  0  0  0  0
    1.4789   -1.1275   -2.9799 C   0  0  0  0  0  0  0  0  0  0  0  0
    1.8378   -2.5919   -2.9803 C   0  0  0  0  0  0  0  0  0  0  0  0
    3.3384   -2.5411   -3.1555 C   0  0  0  0  0  0  0  0  0  0  0  0
    3.7920   -1.3450   -2.5055 O   0  0  0  0  0  0  0  0  0  0  0  0
    0.5229    3.9696   -2.1947 H   0  0  0  0  0  0  0  0  0  0  0  0
   -2.1922    2.4369   -0.7403 H   0  0  0  0  0  0  0  0  0  0  0  0
   -1.8182    0.8750   -1.4625 H   0  0  0  0  0  0  0  0  0  0  0  0
   -0.0757    2.1407    0.7528 H   0  0  0  0  0  0  0  0  0  0  0  0
   -2.0351   -0.0318    1.0742 H   0  0  0  0  0  0  0  0  0  0  0  0
   -0.2994    0.0712    2.7082 H   0  0  0  0  0  0  0  0  0  0  0  0
   -0.7333    1.7610    3.0060 H   0  0  0  0  0  0  0  0  0  0  0  0
   -3.6264    1.9940    3.9295 H   0  0  0  0  0  0  0  0  0  0  0  0
   -4.8069    0.1931    5.6216 H   0  0  0  0  0  0  0  0  0  0  0  0
   -3.1840   -2.0399    5.4747 H   0  0  0  0  0  0  0  0  0  0  0  0
    2.2604   -1.3709   -0.2735 H   0  0  0  0  0  0  0  0  0  0  0  0
    3.4136   -0.0649   -0.2732 H   0  0  0  0  0  0  0  0  0  0  0  0
    2.8565    0.5003   -2.6488 H   0  0  0  0  0  0  0  0  0  0  0  0
    1.4633   -0.7639   -4.0153 H   0  0  0  0  0  0  0  0  0  0  0  0
    0.4994   -0.9202   -2.5455 H   0  0  0  0  0  0  0  0  0  0  0  0
    1.5852   -3.0399   -2.0124 H   0  0  0  0  0  0  0  0  0  0  0  0
    1.3368   -3.1662   -3.7640 H   0  0  0  0  0  0  0  0  0  0  0  0
    3.6117   -2.4695   -4.2139 H   0  0  0  0  0  0  0  0  0  0  0  0
    3.8425   -3.4097   -2.7229 H   0  0  0  0  0  0  0  0  0  0  0  0
  1  2  2  0
  2  3  1  0
  2  4  1  0
  4  5  1  0
  5  6  1  0
  6  7  1  0
  7  8  1  0
  8  9  2  0
  9 10  1  0
 10 11  2  0
 11 12  1  0
  5 13  1  0
 13 14  2  0
 13 15  1  0
 15 16  1  0
 16 17  1  0
 17 18  1  0
 18 19  1  0
 19 20  1  0
 20 21  1  0
 12  8  1  0
 21 17  1  0
  3 22  1  0
  4 23  1  0
  4 24  1  0
  5 25  1  0
  6 26  1  0
  7 27  1  0
  7 28  1  0
  9 29  1  0
 10 30  1  0
 11 31  1  0
 16 32  1  0
 16 33  1  0
 17 34  1  0
 18 35  1  0
 18 36  1  0
 19 37  1  0
 19 38  1  0
 20 39  1  0
 20 40  1  0
M  END
$$$$
