
     RDKit          3D

 47 49  0  0  0  0  0  0  0  0999 V2000
    5.8289   -3.1570    0.0203 C   0  0  0  0  0  0  0  0  0  0  0  0
    4.7212   -2.7063    0.9667 C   0  0  0  0  0  0  0  0  0  0  0  0
    4.2500   -1.3503    0.6624 N   0  0  0  0  0  0  0  0  0  0  0  0
    3.5288   -0.7821    1.8228 C   0  0  0  0  0  0  0  0  0  0  0  0
    2.5832    0.3838    1.4605 C   0  0  0  0  0  0  0  0  0  0  0  0
    1.5053   -0.0634    0.5471 N   0  0  0  0  0  0  0  0  0  0  0  0
    0.2367    0.5415    0.5085 C   0  0  0  0  0  0  0  0  0  0  0  0
   -0.8441   -0.0230   -0.0717 C   0  0  0  0  0  0  0  0  0  0  0  0
   -2.1729    0.5711   -0.1068 C   0  0  0  0  0  0  0  0  0  0  0  0
   -3.1629    0.0077   -0.8256 C   0  0  0  0  0  0  0  0  0  0  0  0
   -4.5274    0.5438   -0.8997 C   0  0  0  0  0  0  0  0  0  0  0  0
   -5.4765    0.0371   -1.7282 C   0  0  0  0  0  0  0  0  0  0  0  0
   -5.2154   -1.0524   -2.6111 C   0  0  0  0  0  0  0  0  0  0  0  0
   -4.9910   -1.9410   -3.3235 N   0  0  0  0  0  0  0  0  0  0  0  0
   -6.8015    0.5645   -1.7529 C   0  0  0  0  0  0  0  0  0  0  0  0
   -7.8765    1.0021   -1.7620 N   0  0  0  0  0  0  0  0  0  0  0  0
   -4.7984    1.7118    0.0414 C   0  0  0  0  0  0  0  0  0  0  0  0
   -3.5861    2.6307    0.1848 C   0  0  0  0  0  0  0  0  0  0  0  0
   -2.3717    1.8427    0.6882 C   0  0  0  0  0  0  0  0  0  0  0  0
   -1.1123    2.7093    0.6449 C   0  0  0  0  0  0  0  0  0  0  0  0
    0.1015    1.9216    1.1411 C   0  0  0  0  0  0  0  0  0  0  0  0
    1.8846   -1.2058   -0.3174 C   0  0  0  0  0  0  0  0  0  0  0  0
    3.4118   -1.2785   -0.5544 C   0  0  0  0  0  0  0  0  0  0  0  0
    6.6634   -2.4476    0.0265 H   0  0  0  0  0  0  0  0  0  0  0  0
    5.4772   -3.2639   -1.0097 H   0  0  0  0  0  0  0  0  0  0  0  0
    6.2163   -4.1306    0.3384 H   0  0  0  0  0  0  0  0  0  0  0  0
    5.1454   -2.7254    1.9790 H   0  0  0  0  0  0  0  0  0  0  0  0
    3.8943   -3.4272    0.9534 H   0  0  0  0  0  0  0  0  0  0  0  0
    4.2664   -0.4282    2.5525 H   0  0  0  0  0  0  0  0  0  0  0  0
    2.9292   -1.5594    2.3170 H   0  0  0  0  0  0  0  0  0  0  0  0
    2.1571    0.7654    2.3953 H   0  0  0  0  0  0  0  0  0  0  0  0
    3.1456    1.1990    0.9897 H   0  0  0  0  0  0  0  0  0  0  0  0
   -0.7494   -1.0001   -0.5365 H   0  0  0  0  0  0  0  0  0  0  0  0
   -2.9378   -0.8970   -1.3897 H   0  0  0  0  0  0  0  0  0  0  0  0
   -5.6397    2.3250   -0.2989 H   0  0  0  0  0  0  0  0  0  0  0  0
   -5.0720    1.3120    1.0268 H   0  0  0  0  0  0  0  0  0  0  0  0
   -3.8197    3.4412    0.8857 H   0  0  0  0  0  0  0  0  0  0  0  0
   -3.3666    3.1013   -0.7832 H   0  0  0  0  0  0  0  0  0  0  0  0
   -2.5571    1.5548    1.7333 H   0  0  0  0  0  0  0  0  0  0  0  0
   -0.9251    3.0578   -0.3800 H   0  0  0  0  0  0  0  0  0  0  0  0
   -1.2430    3.6047    1.2644 H   0  0  0  0  0  0  0  0  0  0  0  0
    0.9931    2.5238    0.9285 H   0  0  0  0  0  0  0  0  0  0  0  0
    0.0364    1.8043    2.2301 H   0  0  0  0  0  0  0  0  0  0  0  0
    1.5315   -2.1372    0.1413 H   0  0  0  0  0  0  0  0  0  0  0  0
    1.4064   -1.1101   -1.2994 H   0  0  0  0  0  0  0  0  0  0  0  0
    3.6210   -2.1029   -1.2445 H   0  0  0  0  0  0  0  0  0  0  0  0
    3.7118   -0.3671   -1.0885 H   0  0  0  0  0  0  0  0  0  0  0  0
  1  2  1  0
  2  3  1  0
  3  4  1  0
  4  5  1  0
  5  6  1  0
  6  7  1  0
  7  8  2  0
  8  9  1  0
  9 10  2  0
 10 11  1  0
 11 12  2  3
 12 13  1  0
 13 14  3  0
 12 15  1  0
 15 16  3  0
 11 17  1  0
 17 18  1  0
 18 19  1  0
 19 20  1  0
 20 21  1  0
  6 22  1  0
 22 23  1  0
 23  3  1  0
 21  7  1  0
 19  9  1  0
  1 24  1  0
  1 25  1  0
  1 26  1  0
  2 27  1  0
  2 28  1  0
  4 29  1  0
  4 30  1  0
  5 31  1  0
  5 32  1  0
  8 33  1  0
 10 34  1  0
 17 35  1  0
 17 36  1  0
 18 37  1  0
 18 38  1  0
 19 39  1  0
 20 40  1  0
 20 41  1  0
 21 42  1  0
 21 43  1  0
 22 44  1  0
 22 45  1  0
 23 46  1  0
 23 47  1  0
M  END
$$$$
