
     RDKit          3D

 54 57  0  0  0  0  0  0  0  0999 V2000
    7.6978    4.2598    0.2154 C   0  0  0  0  0  0  0  0  0  0  0  0
    7.6552    2.8409    0.1354 O   0  0  0  0  0  0  0  0  0  0  0  0
    6.4232    2.2542    0.2137 C   0  0  0  0  0  0  0  0  0  0  0  0
    6.4310    0.8628    0.1394 C   0  0  0  0  0  0  0  0  0  0  0  0
    5.2360    0.1375    0.2077 C   0  0  0  0  0  0  0  0  0  0  0  0
    3.9941    0.7793    0.3572 C   0  0  0  0  0  0  0  0  0  0  0  0
    2.7426   -0.0062    0.4323 C   0  0  0  0  0  0  0  0  0  0  0  0
    1.6177    0.4217    1.1151 C   0  0  0  0  0  0  0  0  0  0  0  0
    0.4831   -0.3913    1.1111 C   0  0  0  0  0  0  0  0  0  0  0  0
   -0.7031    0.1537    1.8061 C   0  0  0  0  0  0  0  0  0  0  0  0
   -0.6215    0.5100    2.9742 O   0  0  0  0  0  0  0  0  0  0  0  0
   -1.8321    0.2761    1.0348 N   0  0  0  0  0  0  0  0  0  0  0  0
   -3.0989    0.7113    1.5906 C   0  0  0  0  0  0  0  0  0  0  0  0
   -4.1122    1.0360    0.4788 C   0  0  0  0  0  0  0  0  0  0  0  0
   -4.2378   -0.0409   -0.5282 N   0  0  0  0  0  0  0  0  0  0  0  0
   -4.8063   -1.2753    0.0648 C   0  0  0  0  0  0  0  0  0  0  0  0
   -5.4945   -2.1567   -0.9885 C   0  0  0  0  0  0  0  0  0  0  0  0
   -6.6294   -1.5152   -1.5852 O   0  0  0  0  0  0  0  0  0  0  0  0
   -6.5078   -0.0875   -1.6358 C   0  0  0  0  0  0  0  0  0  0  0  0
   -5.0491    0.3930   -1.6894 C   0  0  0  0  0  0  0  0  0  0  0  0
    0.4861   -1.6500    0.4737 C   0  0  0  0  0  0  0  0  0  0  0  0
   -0.5886   -2.5770    0.4828 C   0  0  0  0  0  0  0  0  0  0  0  0
   -0.4944   -3.7959   -0.1857 C   0  0  0  0  0  0  0  0  0  0  0  0
    0.6736   -4.1120   -0.8630 C   0  0  0  0  0  0  0  0  0  0  0  0
    1.7419   -3.2123   -0.8556 C   0  0  0  0  0  0  0  0  0  0  0  0
    1.6744   -1.9932   -0.1942 C   0  0  0  0  0  0  0  0  0  0  0  0
    2.7564   -1.1967   -0.2186 N   0  0  0  0  0  0  0  0  0  0  0  0
    4.0081    2.1846    0.4215 C   0  0  0  0  0  0  0  0  0  0  0  0
    5.2052    2.9143    0.3527 C   0  0  0  0  0  0  0  0  0  0  0  0
    7.1588    4.7186   -0.6201 H   0  0  0  0  0  0  0  0  0  0  0  0
    7.3118    4.6131    1.1774 H   0  0  0  0  0  0  0  0  0  0  0  0
    8.7456    4.5674    0.1443 H   0  0  0  0  0  0  0  0  0  0  0  0
    7.3734    0.3327    0.0264 H   0  0  0  0  0  0  0  0  0  0  0  0
    5.2816   -0.9489    0.1458 H   0  0  0  0  0  0  0  0  0  0  0  0
    1.6026    1.3638    1.6533 H   0  0  0  0  0  0  0  0  0  0  0  0
   -1.8566   -0.0874    0.0868 H   0  0  0  0  0  0  0  0  0  0  0  0
   -3.4668   -0.0885    2.2426 H   0  0  0  0  0  0  0  0  0  0  0  0
   -2.9264    1.5942    2.2160 H   0  0  0  0  0  0  0  0  0  0  0  0
   -3.7482    1.9399   -0.0271 H   0  0  0  0  0  0  0  0  0  0  0  0
   -5.0846    1.2845    0.9216 H   0  0  0  0  0  0  0  0  0  0  0  0
   -5.5503   -1.0227    0.8317 H   0  0  0  0  0  0  0  0  0  0  0  0
   -4.0056   -1.8469    0.5454 H   0  0  0  0  0  0  0  0  0  0  0  0
   -4.7951   -2.4345   -1.7857 H   0  0  0  0  0  0  0  0  0  0  0  0
   -5.8481   -3.0853   -0.5289 H   0  0  0  0  0  0  0  0  0  0  0  0
   -7.0487    0.2545   -2.5240 H   0  0  0  0  0  0  0  0  0  0  0  0
   -7.0214    0.3297   -0.7619 H   0  0  0  0  0  0  0  0  0  0  0  0
   -5.0154    1.4803   -1.8246 H   0  0  0  0  0  0  0  0  0  0  0  0
   -4.5784   -0.0391   -2.5817 H   0  0  0  0  0  0  0  0  0  0  0  0
   -1.5036   -2.3617    1.0302 H   0  0  0  0  0  0  0  0  0  0  0  0
   -1.3254   -4.4963   -0.1697 H   0  0  0  0  0  0  0  0  0  0  0  0
    0.7659   -5.0592   -1.3883 H   0  0  0  0  0  0  0  0  0  0  0  0
    2.6602   -3.4734   -1.3779 H   0  0  0  0  0  0  0  0  0  0  0  0
    3.0795    2.7442    0.5102 H   0  0  0  0  0  0  0  0  0  0  0  0
    5.1445    3.9961    0.4066 H   0  0  0  0  0  0  0  0  0  0  0  0
  1  2  1  0
  2  3  1  0
  3  4  2  0
  4  5  1  0
  5  6  2  0
  6  7  1  0
  7  8  2  0
  8  9  1  0
  9 10  1  0
 10 11  2  0
 10 12  1  0
 12 13  1  0
 13 14  1  0
 14 15  1  0
 15 16  1  0
 16 17  1  0
 17 18  1  0
 18 19  1  0
 19 20  1  0
  9 21  2  0
 21 22  1  0
 22 23  2  0
 23 24  1  0
 24 25  2  0
 25 26  1  0
 26 27  2  0
  6 28  1  0
 28 29  2  0
 29  3  1  0
 27  7  1  0
 20 15  1  0
 26 21  1  0
  1 30  1  0
  1 31  1  0
  1 32  1  0
  4 33  1  0
  5 34  1  0
  8 35  1  0
 12 36  1  0
 13 37  1  0
 13 38  1  0
 14 39  1  0
 14 40  1  0
 16 41  1  0
 16 42  1  0
 17 43  1  0
 17 44  1  0
 19 45  1  0
 19 46  1  0
 20 47  1  0
 20 48  1  0
 22 49  1  0
 23 50  1  0
 24 51  1  0
 25 52  1  0
 28 53  1  0
 29 54  1  0
M  END
$$$$
