
     RDKit          3D

 52 54  0  0  0  0  0  0  0  0999 V2000
   -3.7585   -0.6761    3.7566 C   0  0  0  0  0  0  0  0  0  0  0  0
   -4.1146   -0.1477    2.3753 C   0  0  0  0  0  0  0  0  0  0  0  0
   -2.8815   -0.0769    1.4710 C   0  0  0  0  0  0  0  0  0  0  0  0
   -3.1916    0.4822    0.0753 C   0  0  0  0  0  0  0  0  0  0  0  0
   -3.3796   -0.5547   -1.0610 C   0  0  0  0  0  0  0  0  0  0  0  0
   -4.5628   -1.4986   -0.7646 C   0  0  0  0  0  0  0  0  0  0  0  0
   -5.0131   -2.3151   -1.9693 C   0  0  0  0  0  0  0  0  0  0  0  0
   -2.0889   -1.3477   -1.3916 C   0  0  0  0  0  0  0  0  0  0  0  0
   -0.9672   -0.4956   -1.8060 N   0  0  0  0  0  0  0  0  0  0  0  0
    0.0274   -0.1994   -0.8836 C   0  0  0  0  0  0  0  0  0  0  0  0
    0.0767   -0.6416    0.2549 O   0  0  0  0  0  0  0  0  0  0  0  0
    1.0455    0.7093   -1.4860 C   0  0  0  0  0  0  0  0  0  0  0  0
    2.1207    1.2746   -0.9155 C   0  0  0  0  0  0  0  0  0  0  0  0
    2.5689    1.2100    0.4370 C   0  0  0  0  0  0  0  0  0  0  0  0
    1.7878    1.3365    1.5607 C   0  0  0  0  0  0  0  0  0  0  0  0
    2.6411    1.2715    2.6187 N   0  0  0  0  0  0  0  0  0  0  0  0
    3.9310    1.1833    2.2668 N   0  0  0  0  0  0  0  0  0  0  0  0
    3.9119    1.1163    0.9238 C   0  0  0  0  0  0  0  0  0  0  0  0
    5.1585    0.9817    0.1678 C   0  0  0  0  0  0  0  0  0  0  0  0
    5.2545    0.0996   -0.9174 C   0  0  0  0  0  0  0  0  0  0  0  0
    6.4476   -0.0116   -1.6364 C   0  0  0  0  0  0  0  0  0  0  0  0
    7.5559    0.7520   -1.2732 C   0  0  0  0  0  0  0  0  0  0  0  0
    7.4764    1.6218   -0.1872 C   0  0  0  0  0  0  0  0  0  0  0  0
    6.2844    1.7334    0.5322 C   0  0  0  0  0  0  0  0  0  0  0  0
    0.6718    0.9595   -3.1560 S   0  0  0  0  0  0  0  0  0  0  0  0
   -0.7961   -0.0011   -3.0821 C   0  0  0  0  0  0  0  0  0  0  0  0
   -1.7649   -0.2260   -4.4222 S   0  0  0  0  0  0  0  0  0  0  0  0
   -3.0220   -0.0309    4.2461 H   0  0  0  0  0  0  0  0  0  0  0  0
   -3.3432   -1.6870    3.6944 H   0  0  0  0  0  0  0  0  0  0  0  0
   -4.6507   -0.7137    4.3894 H   0  0  0  0  0  0  0  0  0  0  0  0
   -4.5566    0.8502    2.4785 H   0  0  0  0  0  0  0  0  0  0  0  0
   -4.8790   -0.7955    1.9364 H   0  0  0  0  0  0  0  0  0  0  0  0
   -2.4075   -1.0612    1.4120 H   0  0  0  0  0  0  0  0  0  0  0  0
   -2.1518    0.5901    1.9484 H   0  0  0  0  0  0  0  0  0  0  0  0
   -2.3781    1.1606   -0.2101 H   0  0  0  0  0  0  0  0  0  0  0  0
   -4.0853    1.1181    0.1234 H   0  0  0  0  0  0  0  0  0  0  0  0
   -3.6504    0.0318   -1.9485 H   0  0  0  0  0  0  0  0  0  0  0  0
   -5.4205   -0.9028   -0.4290 H   0  0  0  0  0  0  0  0  0  0  0  0
   -4.3074   -2.1858    0.0502 H   0  0  0  0  0  0  0  0  0  0  0  0
   -4.2582   -3.0477   -2.2677 H   0  0  0  0  0  0  0  0  0  0  0  0
   -5.2291   -1.6683   -2.8253 H   0  0  0  0  0  0  0  0  0  0  0  0
   -5.9263   -2.8678   -1.7250 H   0  0  0  0  0  0  0  0  0  0  0  0
   -1.7890   -1.9574   -0.5326 H   0  0  0  0  0  0  0  0  0  0  0  0
   -2.2790   -2.0533   -2.2060 H   0  0  0  0  0  0  0  0  0  0  0  0
    2.7682    1.8684   -1.5622 H   0  0  0  0  0  0  0  0  0  0  0  0
    0.7237    1.4530    1.7085 H   0  0  0  0  0  0  0  0  0  0  0  0
    2.4147    1.3035    3.6070 H   0  0  0  0  0  0  0  0  0  0  0  0
    4.4108   -0.5242   -1.2004 H   0  0  0  0  0  0  0  0  0  0  0  0
    6.5145   -0.7012   -2.4739 H   0  0  0  0  0  0  0  0  0  0  0  0
    8.4850    0.6619   -1.8300 H   0  0  0  0  0  0  0  0  0  0  0  0
    8.3420    2.2102    0.1054 H   0  0  0  0  0  0  0  0  0  0  0  0
    6.2340    2.4094    1.3835 H   0  0  0  0  0  0  0  0  0  0  0  0
  1  2  1  0
  2  3  1  0
  3  4  1  0
  4  5  1  0
  5  6  1  0
  6  7  1  0
  5  8  1  0
  8  9  1  0
  9 10  1  0
 10 11  2  0
 10 12  1  0
 12 13  2  3
 13 14  1  0
 14 15  2  0
 15 16  1  0
 16 17  1  0
 17 18  2  0
 18 19  1  0
 19 20  2  0
 20 21  1  0
 21 22  2  0
 22 23  1  0
 23 24  2  0
 12 25  1  0
 25 26  1  0
 26 27  2  0
 26  9  1  0
 18 14  1  0
 24 19  1  0
  1 28  1  0
  1 29  1  0
  1 30  1  0
  2 31  1  0
  2 32  1  0
  3 33  1  0
  3 34  1  0
  4 35  1  0
  4 36  1  0
  5 37  1  0
  6 38  1  0
  6 39  1  0
  7 40  1  0
  7 41  1  0
  7 42  1  0
  8 43  1  0
  8 44  1  0
 13 45  1  0
 15 46  1  0
 16 47  1  0
 20 48  1  0
 21 49  1  0
 22 50  1  0
 23 51  1  0
 24 52  1  0
M  END
$$$$
