
     RDKit          3D

 50 52  0  0  0  0  0  0  0  0999 V2000
   -6.5041   -1.2911   -0.1595 C   0  0  0  0  0  0  0  0  0  0  0  0
   -5.3934   -0.2446   -0.2017 C   0  0  0  0  0  0  0  0  0  0  0  0
   -4.8727   -0.0568   -1.6317 C   0  0  0  0  0  0  0  0  0  0  0  0
   -3.7166    0.9386   -1.6786 C   0  0  0  0  0  0  0  0  0  0  0  0
   -2.6542    0.5850   -0.7392 N   0  0  0  0  0  0  0  0  0  0  0  0
   -1.3775    1.0709   -1.0380 C   0  0  0  0  0  0  0  0  0  0  0  0
   -1.1189    1.7763   -2.0094 O   0  0  0  0  0  0  0  0  0  0  0  0
   -0.2448    0.6770   -0.1709 C   0  0  0  0  0  0  0  0  0  0  0  0
    0.6411    1.6609    0.2794 C   0  0  0  0  0  0  0  0  0  0  0  0
    1.7387    1.3062    1.0690 C   0  0  0  0  0  0  0  0  0  0  0  0
    1.9802   -0.0418    1.3804 C   0  0  0  0  0  0  0  0  0  0  0  0
    3.3210   -0.4199    2.4915 S   0  0  0  0  0  6  0  0  0  0  0  0
    2.8705   -1.5408    3.2950 O   0  0  0  0  0  0  0  0  0  0  0  0
    3.6485    0.8255    3.1629 O   0  0  0  0  0  0  0  0  0  0  0  0
    4.7255   -0.9327    1.5081 C   0  0  0  0  0  0  0  0  0  0  0  0
    4.8467   -0.1096    0.2569 C   0  0  0  0  0  0  0  0  0  0  0  0
    4.4075   -0.6054   -0.9799 C   0  0  0  0  0  0  0  0  0  0  0  0
    4.4910    0.1858   -2.1283 C   0  0  0  0  0  0  0  0  0  0  0  0
    5.0236    1.4729   -2.0578 C   0  0  0  0  0  0  0  0  0  0  0  0
    5.4825    1.9672   -0.8392 C   0  0  0  0  0  0  0  0  0  0  0  0
    5.3949    1.1753    0.3009 C   0  0  0  0  0  0  0  0  0  0  0  0
    5.8492    1.6638    1.4617 F   0  0  0  0  0  0  0  0  0  0  0  0
    1.0938   -1.0155    0.9107 C   0  0  0  0  0  0  0  0  0  0  0  0
    1.3083   -2.4297    1.1409 N   0  0  0  0  0  4  0  0  0  0  0  0
    0.3796   -3.0660    1.6523 O   0  0  0  0  0  0  0  0  0  0  0  0
    2.3747   -2.9003    0.7247 O   0  0  0  0  0  1  0  0  0  0  0  0
   -0.0152   -0.6691    0.1252 C   0  0  0  0  0  0  0  0  0  0  0  0
   -3.0962    0.3728    0.6430 C   0  0  0  0  0  0  0  0  0  0  0  0
   -4.2353   -0.6387    0.7234 C   0  0  0  0  0  0  0  0  0  0  0  0
   -6.1446   -2.2689   -0.4977 H   0  0  0  0  0  0  0  0  0  0  0  0
   -7.3392   -0.9962   -0.8035 H   0  0  0  0  0  0  0  0  0  0  0  0
   -6.8899   -1.4061    0.8588 H   0  0  0  0  0  0  0  0  0  0  0  0
   -5.8111    0.7093    0.1468 H   0  0  0  0  0  0  0  0  0  0  0  0
   -5.6803    0.2903   -2.2867 H   0  0  0  0  0  0  0  0  0  0  0  0
   -4.5302   -1.0219   -2.0275 H   0  0  0  0  0  0  0  0  0  0  0  0
   -4.0633    1.9480   -1.4251 H   0  0  0  0  0  0  0  0  0  0  0  0
   -3.3160    0.9767   -2.6980 H   0  0  0  0  0  0  0  0  0  0  0  0
    0.4729    2.7055    0.0202 H   0  0  0  0  0  0  0  0  0  0  0  0
    2.3976    2.0934    1.4359 H   0  0  0  0  0  0  0  0  0  0  0  0
    5.6188   -0.8284    2.1333 H   0  0  0  0  0  0  0  0  0  0  0  0
    4.6218   -1.9949    1.2753 H   0  0  0  0  0  0  0  0  0  0  0  0
    4.0000   -1.6118   -1.0655 H   0  0  0  0  0  0  0  0  0  0  0  0
    4.1437   -0.2039   -3.0832 H   0  0  0  0  0  0  0  0  0  0  0  0
    5.0883    2.0857   -2.9538 H   0  0  0  0  0  0  0  0  0  0  0  0
    5.9100    2.9628   -0.7701 H   0  0  0  0  0  0  0  0  0  0  0  0
   -0.6864   -1.4332   -0.2642 H   0  0  0  0  0  0  0  0  0  0  0  0
   -3.4223    1.3468    1.0291 H   0  0  0  0  0  0  0  0  0  0  0  0
   -2.2746    0.0465    1.2838 H   0  0  0  0  0  0  0  0  0  0  0  0
   -4.5871   -0.7110    1.7591 H   0  0  0  0  0  0  0  0  0  0  0  0
   -3.8568   -1.6298    0.4412 H   0  0  0  0  0  0  0  0  0  0  0  0
  1  2  1  0
  2  3  1  0
  3  4  1  0
  4  5  1  0
  5  6  1  0
  6  7  2  0
  6  8  1  0
  8  9  2  0
  9 10  1  0
 10 11  2  0
 11 12  1  0
 12 13  2  0
 12 14  2  0
 12 15  1  0
 15 16  1  0
 16 17  2  0
 17 18  1  0
 18 19  2  0
 19 20  1  0
 20 21  2  0
 21 22  1  0
 11 23  1  0
 23 24  1  0
 24 25  2  0
 24 26  1  0
 23 27  2  0
  5 28  1  0
 28 29  1  0
 29  2  1  0
 27  8  1  0
 21 16  1  0
  1 30  1  0
  1 31  1  0
  1 32  1  0
  2 33  1  0
  3 34  1  0
  3 35  1  0
  4 36  1  0
  4 37  1  0
  9 38  1  0
 10 39  1  0
 15 40  1  0
 15 41  1  0
 17 42  1  0
 18 43  1  0
 19 44  1  0
 20 45  1  0
 27 46  1  0
 28 47  1  0
 28 48  1  0
 29 49  1  0
 29 50  1  0
M  CHG  2  24   1  26  -1
M  END
$$$$
