
     RDKit          3D

 64 67  0  0  0  0  0  0  0  0999 V2000
    4.5108   -4.2169    0.8570 C   0  0  0  0  0  0  0  0  0  0  0  0
    5.4001   -3.2895    0.0846 C   0  0  0  0  0  0  0  0  0  0  0  0
    5.2354   -1.9242    0.1855 C   0  0  0  0  0  0  0  0  0  0  0  0
    6.1079   -1.1597   -0.5494 C   0  0  0  0  0  0  0  0  0  0  0  0
    6.0617    0.2400   -0.6834 N   0  0  0  0  0  0  0  0  0  0  0  0
    5.5000    1.2506    0.5111 S   0  0  0  0  0  6  0  0  0  0  0  0
    5.9828    2.5778    0.1957 O   0  0  0  0  0  0  0  0  0  0  0  0
    5.7362    0.6472    1.8045 O   0  0  0  0  0  0  0  0  0  0  0  0
    3.7484    1.2730    0.2101 C   0  0  0  0  0  0  0  0  0  0  0  0
    2.8586    0.9046    1.2192 C   0  0  0  0  0  0  0  0  0  0  0  0
    1.4830    0.9059    0.9638 C   0  0  0  0  0  0  0  0  0  0  0  0
    0.9916    1.2794   -0.2904 C   0  0  0  0  0  0  0  0  0  0  0  0
   -0.3787    1.3065   -0.6243 N   0  0  0  0  0  0  0  0  0  0  0  0
   -1.4447    0.8560    0.1469 C   0  0  0  0  0  0  0  0  0  0  0  0
   -1.3432    0.2907    1.2336 O   0  0  0  0  0  0  0  0  0  0  0  0
   -2.8208    1.1105   -0.5228 C   0  0  0  0  0  0  0  0  0  0  0  0
   -3.1038    2.6170   -0.6722 C   0  0  0  0  0  0  0  0  0  0  0  0
   -4.4712    2.9627   -1.2975 C   0  0  0  0  0  0  0  0  0  0  0  0
   -4.6275    2.3907   -2.7071 C   0  0  0  0  0  0  0  0  0  0  0  0
   -4.6532    4.4825   -1.3321 C   0  0  0  0  0  0  0  0  0  0  0  0
   -3.8338    0.3684    0.2196 N   0  0  0  0  0  0  0  0  0  0  0  0
   -4.1465   -0.9306   -0.0817 C   0  0  0  0  0  0  0  0  0  0  0  0
   -3.7683   -1.6066   -1.0199 O   0  0  0  0  0  0  0  0  0  0  0  0
   -5.0493   -1.4010    0.9650 C   0  0  0  0  0  0  0  0  0  0  0  0
   -5.6806   -2.6189    1.1245 C   0  0  0  0  0  0  0  0  0  0  0  0
   -6.4909   -2.7741    2.2537 C   0  0  0  0  0  0  0  0  0  0  0  0
   -6.6448   -1.7246    3.1839 C   0  0  0  0  0  0  0  0  0  0  0  0
   -5.9915   -0.5017    3.0000 C   0  0  0  0  0  0  0  0  0  0  0  0
   -5.2000   -0.3722    1.8756 C   0  0  0  0  0  0  0  0  0  0  0  0
   -4.3958    0.7549    1.4073 C   0  0  0  0  0  0  0  0  0  0  0  0
   -4.2979    1.8076    2.0079 O   0  0  0  0  0  0  0  0  0  0  0  0
    1.8987    1.6698   -1.2869 C   0  0  0  0  0  0  0  0  0  0  0  0
    3.2748    1.6668   -1.0424 C   0  0  0  0  0  0  0  0  0  0  0  0
    7.0315   -1.6688   -1.3757 N   0  0  0  0  0  0  0  0  0  0  0  0
    7.1280   -3.0080   -1.4025 C   0  0  0  0  0  0  0  0  0  0  0  0
    8.1483   -3.6158   -2.3127 C   0  0  0  0  0  0  0  0  0  0  0  0
    6.3400   -3.8450   -0.7053 N   0  0  0  0  0  0  0  0  0  0  0  0
    4.7851   -5.2610    0.6757 H   0  0  0  0  0  0  0  0  0  0  0  0
    4.6017   -4.0225    1.9302 H   0  0  0  0  0  0  0  0  0  0  0  0
    3.4681   -4.0805    0.5535 H   0  0  0  0  0  0  0  0  0  0  0  0
    4.4644   -1.5095    0.8154 H   0  0  0  0  0  0  0  0  0  0  0  0
    6.8251    0.6211   -1.2368 H   0  0  0  0  0  0  0  0  0  0  0  0
    3.2166    0.6188    2.2063 H   0  0  0  0  0  0  0  0  0  0  0  0
    0.8201    0.6205    1.7755 H   0  0  0  0  0  0  0  0  0  0  0  0
   -0.5946    1.6321   -1.5585 H   0  0  0  0  0  0  0  0  0  0  0  0
   -2.7501    0.6594   -1.5211 H   0  0  0  0  0  0  0  0  0  0  0  0
   -2.3158    3.0714   -1.2873 H   0  0  0  0  0  0  0  0  0  0  0  0
   -3.0176    3.1072    0.3055 H   0  0  0  0  0  0  0  0  0  0  0  0
   -5.2722    2.5514   -0.6724 H   0  0  0  0  0  0  0  0  0  0  0  0
   -5.5741    2.7134   -3.1539 H   0  0  0  0  0  0  0  0  0  0  0  0
   -3.8146    2.7216   -3.3623 H   0  0  0  0  0  0  0  0  0  0  0  0
   -4.6328    1.2967   -2.6950 H   0  0  0  0  0  0  0  0  0  0  0  0
   -5.6347    4.7478   -1.7388 H   0  0  0  0  0  0  0  0  0  0  0  0
   -3.8887    4.9613   -1.9533 H   0  0  0  0  0  0  0  0  0  0  0  0
   -4.5858    4.9051   -0.3242 H   0  0  0  0  0  0  0  0  0  0  0  0
   -5.5482   -3.4194    0.4042 H   0  0  0  0  0  0  0  0  0  0  0  0
   -7.0071   -3.7179    2.4215 H   0  0  0  0  0  0  0  0  0  0  0  0
   -7.2773   -1.8716    4.0577 H   0  0  0  0  0  0  0  0  0  0  0  0
   -6.0951    0.3123    3.7103 H   0  0  0  0  0  0  0  0  0  0  0  0
    1.5494    1.9773   -2.2697 H   0  0  0  0  0  0  0  0  0  0  0  0
    3.9652    1.9720   -1.8255 H   0  0  0  0  0  0  0  0  0  0  0  0
    7.6854   -3.8616   -3.2729 H   0  0  0  0  0  0  0  0  0  0  0  0
    8.9747   -2.9201   -2.4872 H   0  0  0  0  0  0  0  0  0  0  0  0
    8.5577   -4.5305   -1.8727 H   0  0  0  0  0  0  0  0  0  0  0  0
  1  2  1  0
  2  3  2  0
  3  4  1  0
  4  5  1  0
  5  6  1  0
  6  7  2  0
  6  8  2  0
  6  9  1  0
  9 10  2  0
 10 11  1  0
 11 12  2  0
 12 13  1  0
 13 14  1  0
 14 15  2  0
 14 16  1  0
 16 17  1  0
 17 18  1  0
 18 19  1  0
 18 20  1  0
 16 21  1  0
 21 22  1  0
 22 23  2  0
 22 24  1  0
 24 25  2  0
 25 26  1  0
 26 27  2  0
 27 28  1  0
 28 29  2  0
 29 30  1  0
 30 31  2  0
 12 32  1  0
 32 33  2  0
  4 34  2  0
 34 35  1  0
 35 36  1  0
 35 37  2  0
 37  2  1  0
 33  9  1  0
 30 21  1  0
 29 24  1  0
  1 38  1  0
  1 39  1  0
  1 40  1  0
  3 41  1  0
  5 42  1  0
 10 43  1  0
 11 44  1  0
 13 45  1  0
 16 46  1  0
 17 47  1  0
 17 48  1  0
 18 49  1  0
 19 50  1  0
 19 51  1  0
 19 52  1  0
 20 53  1  0
 20 54  1  0
 20 55  1  0
 25 56  1  0
 26 57  1  0
 27 58  1  0
 28 59  1  0
 32 60  1  0
 33 61  1  0
 36 62  1  0
 36 63  1  0
 36 64  1  0
M  END
$$$$
