
     RDKit          3D

 37 39  0  0  0  0  0  0  0  0999 V2000
   -1.3901    3.3073   -2.4105 C   0  0  0  0  0  0  0  0  0  0  0  0
   -0.8395    2.2589   -1.4575 C   0  0  0  0  0  0  0  0  0  0  0  0
    0.3894    1.9056   -1.6913 N   0  0  0  0  0  0  0  0  0  0  0  0
    1.0617    1.0608   -0.8666 N   0  0  0  0  0  0  0  0  0  0  0  0
    2.3037    0.5824   -1.2663 C   0  0  0  0  0  0  0  0  0  0  0  0
    2.8043    0.7387   -2.3758 O   0  0  0  0  0  0  0  0  0  0  0  0
    3.0679   -0.1668   -0.2301 C   0  0  0  0  0  0  0  0  0  0  0  0
    4.4685   -0.1334   -0.2798 C   0  0  0  0  0  0  0  0  0  0  0  0
    5.2244   -0.8287    0.6660 C   0  0  0  0  0  0  0  0  0  0  0  0
    4.5836   -1.5693    1.6591 C   0  0  0  0  0  0  0  0  0  0  0  0
    3.1907   -1.6171    1.6969 C   0  0  0  0  0  0  0  0  0  0  0  0
    2.3992   -2.5491    2.9090 Cl  0  0  0  0  0  0  0  0  0  0  0  0
    2.4280   -0.9246    0.7574 C   0  0  0  0  0  0  0  0  0  0  0  0
   -1.8148    1.7259   -0.4275 C   0  0  0  0  0  0  0  0  0  0  0  0
   -1.3196    0.7715    0.6299 C   0  0  0  0  0  0  0  0  0  0  0  0
   -0.3838    0.9419    1.3939 O   0  0  0  0  0  0  0  0  0  0  0  0
   -2.1228   -0.4474    0.5988 C   0  0  0  0  0  0  0  0  0  0  0  0
   -2.0097   -1.5770    1.3885 C   0  0  0  0  0  0  0  0  0  0  0  0
   -2.9048   -2.6230    1.1461 C   0  0  0  0  0  0  0  0  0  0  0  0
   -3.8794   -2.5189    0.1339 C   0  0  0  0  0  0  0  0  0  0  0  0
   -3.9751   -1.3671   -0.6528 C   0  0  0  0  0  0  0  0  0  0  0  0
   -3.0800   -0.3452   -0.3974 C   0  0  0  0  0  0  0  0  0  0  0  0
   -2.9587    0.9511   -1.0601 C   0  0  0  0  0  0  0  0  0  0  0  0
   -3.6969    1.3195   -1.9551 O   0  0  0  0  0  0  0  0  0  0  0  0
   -0.5792    3.9330   -2.7951 H   0  0  0  0  0  0  0  0  0  0  0  0
   -2.1099    3.9471   -1.8933 H   0  0  0  0  0  0  0  0  0  0  0  0
   -1.8810    2.8107   -3.2514 H   0  0  0  0  0  0  0  0  0  0  0  0
    0.8691    1.1142    0.1354 H   0  0  0  0  0  0  0  0  0  0  0  0
    4.9720    0.4380   -1.0587 H   0  0  0  0  0  0  0  0  0  0  0  0
    6.3106   -0.7950    0.6239 H   0  0  0  0  0  0  0  0  0  0  0  0
    5.1744   -2.1120    2.3927 H   0  0  0  0  0  0  0  0  0  0  0  0
    1.3467   -1.0026    0.7911 H   0  0  0  0  0  0  0  0  0  0  0  0
   -2.2578    2.5787    0.1026 H   0  0  0  0  0  0  0  0  0  0  0  0
   -1.2558   -1.6510    2.1667 H   0  0  0  0  0  0  0  0  0  0  0  0
   -2.8491   -3.5311    1.7447 H   0  0  0  0  0  0  0  0  0  0  0  0
   -4.5648   -3.3477   -0.0376 H   0  0  0  0  0  0  0  0  0  0  0  0
   -4.7216   -1.2784   -1.4367 H   0  0  0  0  0  0  0  0  0  0  0  0
  1  2  1  0
  2  3  2  3
  3  4  1  0
  4  5  1  0
  5  6  2  0
  5  7  1  0
  7  8  2  0
  8  9  1  0
  9 10  2  0
 10 11  1  0
 11 12  1  0
 11 13  2  0
  2 14  1  0
 14 15  1  0
 15 16  2  0
 15 17  1  0
 17 18  2  0
 18 19  1  0
 19 20  2  0
 20 21  1  0
 21 22  2  0
 22 23  1  0
 23 24  2  0
 13  7  1  0
 23 14  1  0
 22 17  1  0
  1 25  1  0
  1 26  1  0
  1 27  1  0
  4 28  1  0
  8 29  1  0
  9 30  1  0
 10 31  1  0
 13 32  1  0
 14 33  1  0
 18 34  1  0
 19 35  1  0
 20 36  1  0
 21 37  1  0
M  END
$$$$
