
     RDKit          3D

 52 54  0  0  0  0  0  0  0  0999 V2000
    6.6252    2.1823    3.9111 C   0  0  0  0  0  0  0  0  0  0  0  0
    6.7232    2.3285    2.4024 C   0  0  0  0  0  0  0  0  0  0  0  0
    5.7347    1.5135    1.7656 O   0  0  0  0  0  0  0  0  0  0  0  0
    4.5098    2.0844    1.5964 C   0  0  0  0  0  0  0  0  0  0  0  0
    4.2203    3.2141    1.9705 O   0  0  0  0  0  0  0  0  0  0  0  0
    3.6208    1.2354    0.9545 N   0  0  0  0  0  0  0  0  0  0  0  0
    2.2240    1.6356    0.8036 C   0  0  0  0  0  0  0  0  0  0  0  0
    1.2847    0.4606    1.0661 C   0  0  0  0  0  0  0  0  0  0  0  0
    1.5932   -0.7407    0.1496 C   0  0  0  0  0  0  0  0  0  0  0  0
    0.5822   -0.8933   -0.8915 N   0  0  0  0  0  0  0  0  0  0  0  0
   -0.6451   -1.4646   -0.5976 C   0  0  0  0  0  0  0  0  0  0  0  0
   -0.9044   -1.9648    0.4961 O   0  0  0  0  0  0  0  0  0  0  0  0
   -1.6568   -1.4049   -1.7488 C   0  0  0  0  0  0  0  0  0  0  0  0
   -2.9022   -0.7771   -1.3153 N   0  0  0  0  0  0  0  0  0  0  0  0
   -2.8658    0.6019   -1.1396 C   0  0  0  0  0  0  0  0  0  0  0  0
   -1.8694    1.2677   -1.4202 O   0  0  0  0  0  0  0  0  0  0  0  0
   -4.0668    1.2556   -0.5000 C   0  0  0  0  0  0  0  0  0  0  0  0
   -5.1594    1.5734   -1.4998 C   0  0  0  0  0  0  0  0  0  0  0  0
   -5.6051    0.2416   -2.6534 S   0  0  0  0  0  0  0  0  0  0  0  0
   -5.3425   -1.2000   -1.6228 C   0  0  0  0  0  0  0  0  0  0  0  0
   -6.4448   -2.0567   -1.4452 C   0  0  0  0  0  0  0  0  0  0  0  0
   -6.2965   -3.2876   -0.8104 C   0  0  0  0  0  0  0  0  0  0  0  0
   -5.0437   -3.6814   -0.3526 C   0  0  0  0  0  0  0  0  0  0  0  0
   -3.9420   -2.8399   -0.5251 C   0  0  0  0  0  0  0  0  0  0  0  0
   -4.0677   -1.5883   -1.1509 C   0  0  0  0  0  0  0  0  0  0  0  0
    2.9956   -0.6776   -0.4770 C   0  0  0  0  0  0  0  0  0  0  0  0
    4.0042   -0.1024    0.5094 C   0  0  0  0  0  0  0  0  0  0  0  0
    7.4535    2.6961    4.4141 H   0  0  0  0  0  0  0  0  0  0  0  0
    5.6799    2.5928    4.2825 H   0  0  0  0  0  0  0  0  0  0  0  0
    6.6435    1.1244    4.1988 H   0  0  0  0  0  0  0  0  0  0  0  0
    6.6411    3.3733    2.0890 H   0  0  0  0  0  0  0  0  0  0  0  0
    7.6986    1.9705    2.0586 H   0  0  0  0  0  0  0  0  0  0  0  0
    1.9824    2.4580    1.4878 H   0  0  0  0  0  0  0  0  0  0  0  0
    2.0907    2.0133   -0.2184 H   0  0  0  0  0  0  0  0  0  0  0  0
    0.2432    0.7874    0.9726 H   0  0  0  0  0  0  0  0  0  0  0  0
    1.4219    0.1363    2.1071 H   0  0  0  0  0  0  0  0  0  0  0  0
    1.5465   -1.6490    0.7693 H   0  0  0  0  0  0  0  0  0  0  0  0
    0.5851   -0.2027   -1.6435 H   0  0  0  0  0  0  0  0  0  0  0  0
   -1.2517   -0.8226   -2.5850 H   0  0  0  0  0  0  0  0  0  0  0  0
   -1.8279   -2.4196   -2.1204 H   0  0  0  0  0  0  0  0  0  0  0  0
   -3.7330    2.1837   -0.0152 H   0  0  0  0  0  0  0  0  0  0  0  0
   -4.4426    0.6271    0.3153 H   0  0  0  0  0  0  0  0  0  0  0  0
   -4.8536    2.4260   -2.1171 H   0  0  0  0  0  0  0  0  0  0  0  0
   -6.0674    1.8775   -0.9657 H   0  0  0  0  0  0  0  0  0  0  0  0
   -7.4256   -1.7800   -1.8305 H   0  0  0  0  0  0  0  0  0  0  0  0
   -7.1507   -3.9462   -0.6887 H   0  0  0  0  0  0  0  0  0  0  0  0
   -4.9141   -4.6427    0.1377 H   0  0  0  0  0  0  0  0  0  0  0  0
   -2.9858   -3.1758   -0.1295 H   0  0  0  0  0  0  0  0  0  0  0  0
    2.9844   -0.0563   -1.3847 H   0  0  0  0  0  0  0  0  0  0  0  0
    3.3060   -1.6842   -0.7955 H   0  0  0  0  0  0  0  0  0  0  0  0
    5.0006   -0.0652    0.0515 H   0  0  0  0  0  0  0  0  0  0  0  0
    4.0696   -0.7376    1.4022 H   0  0  0  0  0  0  0  0  0  0  0  0
  1  2  1  0
  2  3  1  0
  3  4  1  0
  4  5  2  0
  4  6  1  0
  6  7  1  0
  7  8  1  0
  8  9  1  0
  9 10  1  0
 10 11  1  0
 11 12  2  0
 11 13  1  0
 13 14  1  0
 14 15  1  0
 15 16  2  0
 15 17  1  0
 17 18  1  0
 18 19  1  0
 19 20  1  0
 20 21  2  0
 21 22  1  0
 22 23  2  0
 23 24  1  0
 24 25  2  0
  9 26  1  0
 26 27  1  0
 27  6  1  0
 25 14  1  0
 25 20  1  0
  1 28  1  0
  1 29  1  0
  1 30  1  0
  2 31  1  0
  2 32  1  0
  7 33  1  0
  7 34  1  0
  8 35  1  0
  8 36  1  0
  9 37  1  0
 10 38  1  0
 13 39  1  0
 13 40  1  0
 17 41  1  0
 17 42  1  0
 18 43  1  0
 18 44  1  0
 21 45  1  0
 22 46  1  0
 23 47  1  0
 24 48  1  0
 26 49  1  0
 26 50  1  0
 27 51  1  0
 27 52  1  0
M  END
$$$$
