
     RDKit          3D

 44 46  0  0  0  0  0  0  0  0999 V2000
    7.6652   -0.3834   -1.5803 C   0  0  0  0  0  0  0  0  0  0  0  0
    7.1230   -0.8450   -0.2407 C   0  0  0  0  0  0  0  0  0  0  0  0
    5.7075   -0.6158   -0.1747 O   0  0  0  0  0  0  0  0  0  0  0  0
    5.3292    0.6141    0.2540 C   0  0  0  0  0  0  0  0  0  0  0  0
    6.0766    1.5242    0.5751 O   0  0  0  0  0  0  0  0  0  0  0  0
    3.8450    0.7245    0.2810 C   0  0  0  0  0  0  0  0  0  0  0  0
    3.2778    1.9348    0.6930 C   0  0  0  0  0  0  0  0  0  0  0  0
    1.8874    2.0838    0.7350 C   0  0  0  0  0  0  0  0  0  0  0  0
    1.0338    1.0340    0.3672 C   0  0  0  0  0  0  0  0  0  0  0  0
   -0.3539    1.2588    0.4143 N   0  0  0  0  0  0  0  0  0  0  0  0
   -1.4243    0.5354   -0.1242 C   0  0  0  0  0  0  0  0  0  0  0  0
   -1.3656   -0.0437   -1.3750 C   0  0  0  0  0  0  0  0  0  0  0  0
   -2.4907   -0.7103   -1.8119 C   0  0  0  0  0  0  0  0  0  0  0  0
   -2.5082   -1.3624   -3.1609 C   0  0  0  0  0  0  0  0  0  0  0  0
   -3.6074   -0.7958   -1.0672 N   0  0  0  0  0  0  0  0  0  0  0  0
   -3.5923   -0.1838    0.1324 C   0  0  0  0  0  0  0  0  0  0  0  0
   -4.8152   -0.2559    0.9599 C   0  0  0  0  0  0  0  0  0  0  0  0
   -4.8830    0.3502    2.2300 C   0  0  0  0  0  0  0  0  0  0  0  0
   -6.0397    0.2824    3.0142 C   0  0  0  0  0  0  0  0  0  0  0  0
   -7.1604   -0.3956    2.5453 C   0  0  0  0  0  0  0  0  0  0  0  0
   -7.1253   -1.0046    1.2950 C   0  0  0  0  0  0  0  0  0  0  0  0
   -5.9667   -0.9345    0.5141 C   0  0  0  0  0  0  0  0  0  0  0  0
   -2.5355    0.4897    0.6271 N   0  0  0  0  0  0  0  0  0  0  0  0
    1.6108   -0.1730   -0.0426 C   0  0  0  0  0  0  0  0  0  0  0  0
    3.0026   -0.3310   -0.0853 C   0  0  0  0  0  0  0  0  0  0  0  0
    8.7324   -0.6071   -1.6646 H   0  0  0  0  0  0  0  0  0  0  0  0
    7.1345   -0.8776   -2.4007 H   0  0  0  0  0  0  0  0  0  0  0  0
    7.5224    0.6938   -1.7119 H   0  0  0  0  0  0  0  0  0  0  0  0
    7.2774   -1.9236   -0.1329 H   0  0  0  0  0  0  0  0  0  0  0  0
    7.6450   -0.3604    0.5924 H   0  0  0  0  0  0  0  0  0  0  0  0
    3.9134    2.7704    0.9808 H   0  0  0  0  0  0  0  0  0  0  0  0
    1.4709    3.0396    1.0468 H   0  0  0  0  0  0  0  0  0  0  0  0
   -0.6528    1.6436    1.3068 H   0  0  0  0  0  0  0  0  0  0  0  0
   -0.4868    0.0434   -1.9999 H   0  0  0  0  0  0  0  0  0  0  0  0
   -1.7186   -2.1175   -3.2267 H   0  0  0  0  0  0  0  0  0  0  0  0
   -3.4679   -1.8569   -3.3426 H   0  0  0  0  0  0  0  0  0  0  0  0
   -2.3566   -0.6139   -3.9449 H   0  0  0  0  0  0  0  0  0  0  0  0
   -4.0211    0.8874    2.6224 H   0  0  0  0  0  0  0  0  0  0  0  0
   -6.0606    0.7604    3.9901 H   0  0  0  0  0  0  0  0  0  0  0  0
   -8.0597   -0.4491    3.1531 H   0  0  0  0  0  0  0  0  0  0  0  0
   -7.9973   -1.5358    0.9223 H   0  0  0  0  0  0  0  0  0  0  0  0
   -5.9671   -1.4201   -0.4608 H   0  0  0  0  0  0  0  0  0  0  0  0
    0.9909   -1.0262   -0.3042 H   0  0  0  0  0  0  0  0  0  0  0  0
    3.4106   -1.2884   -0.4003 H   0  0  0  0  0  0  0  0  0  0  0  0
  1  2  1  0
  2  3  1  0
  3  4  1  0
  4  5  2  0
  4  6  1  0
  6  7  2  0
  7  8  1  0
  8  9  2  0
  9 10  1  0
 10 11  1  0
 11 12  2  0
 12 13  1  0
 13 14  1  0
 13 15  2  0
 15 16  1  0
 16 17  1  0
 17 18  2  0
 18 19  1  0
 19 20  2  0
 20 21  1  0
 21 22  2  0
 16 23  2  0
  9 24  1  0
 24 25  2  0
 25  6  1  0
 23 11  1  0
 22 17  1  0
  1 26  1  0
  1 27  1  0
  1 28  1  0
  2 29  1  0
  2 30  1  0
  7 31  1  0
  8 32  1  0
 10 33  1  0
 12 34  1  0
 14 35  1  0
 14 36  1  0
 14 37  1  0
 18 38  1  0
 19 39  1  0
 20 40  1  0
 21 41  1  0
 22 42  1  0
 24 43  1  0
 25 44  1  0
M  END
$$$$
