
     RDKit          3D

 58 60  0  0  0  0  0  0  0  0999 V2000
    9.7710    0.9605    0.6201 C   0  0  0  0  0  0  0  0  0  0  0  0
    8.2859    0.9111    0.9469 C   0  0  0  0  0  0  0  0  0  0  0  0
    7.4851    0.2657   -0.1879 C   0  0  0  0  0  0  0  0  0  0  0  0
    5.9955    0.1713    0.1374 C   0  0  0  0  0  0  0  0  0  0  0  0
    5.4622    1.4960    0.2706 O   0  0  0  0  0  0  0  0  0  0  0  0
    4.1152    1.4391    0.4983 C   0  0  0  0  0  0  0  0  0  0  0  0
    3.2368    1.5382   -0.5780 C   0  0  0  0  0  0  0  0  0  0  0  0
    1.8583    1.5056   -0.3505 C   0  0  0  0  0  0  0  0  0  0  0  0
    1.3650    1.3961    0.9581 C   0  0  0  0  0  0  0  0  0  0  0  0
   -0.1039    1.3525    1.2338 C   0  0  0  0  0  0  0  0  0  0  0  0
   -0.5092    1.2757    2.3874 O   0  0  0  0  0  0  0  0  0  0  0  0
   -0.9259    1.4132    0.1403 N   0  0  0  0  0  0  0  0  0  0  0  0
   -1.9296    0.5893    0.0672 C   0  0  0  0  0  0  0  0  0  0  0  0
   -2.3001   -0.5255    1.0242 C   0  0  0  0  0  0  0  0  0  0  0  0
   -2.6862   -1.8052    0.3130 C   0  0  0  0  0  0  0  0  0  0  0  0
   -1.7019   -2.5782   -0.3254 C   0  0  0  0  0  0  0  0  0  0  0  0
   -2.0483   -3.7542   -0.9939 C   0  0  0  0  0  0  0  0  0  0  0  0
   -3.3883   -4.1632   -1.0223 C   0  0  0  0  0  0  0  0  0  0  0  0
   -3.7502   -5.4063   -1.7127 N   0  0  0  0  0  4  0  0  0  0  0  0
   -2.8427   -6.0440   -2.2648 O   0  0  0  0  0  0  0  0  0  0  0  0
   -4.9416   -5.7517   -1.6957 O   0  0  0  0  0  1  0  0  0  0  0  0
   -4.3813   -3.3971   -0.3969 C   0  0  0  0  0  0  0  0  0  0  0  0
   -4.0264   -2.2209    0.2696 C   0  0  0  0  0  0  0  0  0  0  0  0
   -2.8803    0.7752   -1.1009 C   0  0  0  0  0  0  0  0  0  0  0  0
   -2.5770    0.5234   -2.2512 O   0  0  0  0  0  0  0  0  0  0  0  0
   -4.0508    1.2319   -0.6214 O   0  0  0  0  0  0  0  0  0  0  0  0
   -5.0691    1.3413   -1.6148 C   0  0  0  0  0  0  0  0  0  0  0  0
   -6.3295    1.5760   -0.8729 C   0  0  0  0  0  0  0  0  0  0  0  0
   -7.0423    2.7102   -0.5470 C   0  0  0  0  0  0  0  0  0  0  0  0
   -8.1700    2.2748    0.1890 C   0  0  0  0  0  0  0  0  0  0  0  0
   -8.0738    0.9070    0.2638 C   0  0  0  0  0  0  0  0  0  0  0  0
   -6.9580    0.4727   -0.3754 O   0  0  0  0  0  0  0  0  0  0  0  0
    2.2620    1.3230    2.0340 C   0  0  0  0  0  0  0  0  0  0  0  0
    3.6394    1.3532    1.8040 C   0  0  0  0  0  0  0  0  0  0  0  0
    9.9547    1.5499   -0.2855 H   0  0  0  0  0  0  0  0  0  0  0  0
   10.1738   -0.0460    0.4643 H   0  0  0  0  0  0  0  0  0  0  0  0
   10.3252    1.4205    1.4438 H   0  0  0  0  0  0  0  0  0  0  0  0
    8.1411    0.3427    1.8728 H   0  0  0  0  0  0  0  0  0  0  0  0
    7.9286    1.9285    1.1311 H   0  0  0  0  0  0  0  0  0  0  0  0
    7.6189    0.8587   -1.0984 H   0  0  0  0  0  0  0  0  0  0  0  0
    7.8711   -0.7406   -0.3886 H   0  0  0  0  0  0  0  0  0  0  0  0
    5.8520   -0.3919    1.0668 H   0  0  0  0  0  0  0  0  0  0  0  0
    5.4885   -0.3559   -0.6795 H   0  0  0  0  0  0  0  0  0  0  0  0
    3.6219    1.6452   -1.5876 H   0  0  0  0  0  0  0  0  0  0  0  0
    1.1812    1.5829   -1.1980 H   0  0  0  0  0  0  0  0  0  0  0  0
   -1.4751   -0.7731    1.6978 H   0  0  0  0  0  0  0  0  0  0  0  0
   -3.1244   -0.1665    1.6509 H   0  0  0  0  0  0  0  0  0  0  0  0
   -0.6565   -2.2683   -0.3082 H   0  0  0  0  0  0  0  0  0  0  0  0
   -1.2672   -4.3384   -1.4804 H   0  0  0  0  0  0  0  0  0  0  0  0
   -5.4253   -3.6995   -0.4181 H   0  0  0  0  0  0  0  0  0  0  0  0
   -4.8058   -1.6277    0.7464 H   0  0  0  0  0  0  0  0  0  0  0  0
   -5.1487    0.4179   -2.2006 H   0  0  0  0  0  0  0  0  0  0  0  0
   -4.8493    2.1851   -2.2781 H   0  0  0  0  0  0  0  0  0  0  0  0
   -6.7785    3.7250   -0.8083 H   0  0  0  0  0  0  0  0  0  0  0  0
   -8.9561    2.8836    0.6111 H   0  0  0  0  0  0  0  0  0  0  0  0
   -8.6869    0.1353    0.7069 H   0  0  0  0  0  0  0  0  0  0  0  0
    1.8929    1.2596    3.0561 H   0  0  0  0  0  0  0  0  0  0  0  0
    4.3339    1.3161    2.6377 H   0  0  0  0  0  0  0  0  0  0  0  0
  1  2  1  0
  2  3  1  0
  3  4  1  0
  4  5  1  0
  5  6  1  0
  6  7  2  0
  7  8  1  0
  8  9  2  0
  9 10  1  0
 10 11  2  0
 10 12  1  0
 12 13  2  3
 13 14  1  0
 14 15  1  0
 15 16  2  0
 16 17  1  0
 17 18  2  0
 18 19  1  0
 19 20  2  0
 19 21  1  0
 18 22  1  0
 22 23  2  0
 13 24  1  0
 24 25  2  0
 24 26  1  0
 26 27  1  0
 27 28  1  0
 28 29  2  0
 29 30  1  0
 30 31  2  0
 31 32  1  0
  9 33  1  0
 33 34  2  0
 34  6  1  0
 23 15  1  0
 32 28  1  0
  1 35  1  0
  1 36  1  0
  1 37  1  0
  2 38  1  0
  2 39  1  0
  3 40  1  0
  3 41  1  0
  4 42  1  0
  4 43  1  0
  7 44  1  0
  8 45  1  0
 14 46  1  0
 14 47  1  0
 16 48  1  0
 17 49  1  0
 22 50  1  0
 23 51  1  0
 27 52  1  0
 27 53  1  0
 29 54  1  0
 30 55  1  0
 31 56  1  0
 33 57  1  0
 34 58  1  0
M  CHG  2  19   1  21  -1
M  END
$$$$
