
     RDKit          3D

 44 46  0  0  0  0  0  0  0  0999 V2000
    6.8272    1.7526   -0.9868 C   0  0  0  0  0  0  0  0  0  0  0  0
    5.5731    0.9262   -0.9896 C   0  0  0  0  0  0  0  0  0  0  0  0
    4.6685    1.0110   -2.0523 C   0  0  0  0  0  0  0  0  0  0  0  0
    3.5139    0.2214   -2.0616 C   0  0  0  0  0  0  0  0  0  0  0  0
    3.2604   -0.6740   -1.0163 C   0  0  0  0  0  0  0  0  0  0  0  0
    2.0156   -1.4875   -1.0716 C   0  0  0  0  0  0  0  0  0  0  0  0
    1.1045   -1.2902   -1.8672 O   0  0  0  0  0  0  0  0  0  0  0  0
    2.0449   -2.4628   -0.1336 O   0  0  0  0  0  0  0  0  0  0  0  0
    0.9074   -3.3219   -0.1117 C   0  0  0  0  0  0  0  0  0  0  0  0
   -0.3005   -2.6896    0.5844 C   0  0  0  0  0  0  0  0  0  0  0  0
   -0.5463   -2.8665    1.7781 O   0  0  0  0  0  0  0  0  0  0  0  0
   -1.0825   -1.9043   -0.2331 N   0  0  0  0  0  0  0  0  0  0  0  0
   -2.2523   -1.2025    0.2755 C   0  0  0  0  0  0  0  0  0  0  0  0
   -1.8906    0.0627    1.0809 C   0  0  0  0  0  0  0  0  0  0  0  0
   -2.3971    0.0175    2.5217 C   0  0  0  0  0  0  0  0  0  0  0  0
   -3.8260   -0.0679    2.5789 O   0  0  0  0  0  0  0  0  0  0  0  0
   -4.4156    0.8261    1.7248 C   0  0  0  0  0  0  0  0  0  0  0  0
   -5.7788    1.0572    1.9034 C   0  0  0  0  0  0  0  0  0  0  0  0
   -6.4452    1.9600    1.0729 C   0  0  0  0  0  0  0  0  0  0  0  0
   -5.7453    2.6321    0.0676 C   0  0  0  0  0  0  0  0  0  0  0  0
   -4.3850    2.3828   -0.1214 C   0  0  0  0  0  0  0  0  0  0  0  0
   -3.7246    1.4669    0.6948 C   0  0  0  0  0  0  0  0  0  0  0  0
   -2.4012    1.2330    0.4109 O   0  0  0  0  0  0  0  0  0  0  0  0
    4.1701   -0.7700    0.0428 C   0  0  0  0  0  0  0  0  0  0  0  0
    5.3219    0.0225    0.0502 C   0  0  0  0  0  0  0  0  0  0  0  0
    7.6341    1.2102   -1.4920 H   0  0  0  0  0  0  0  0  0  0  0  0
    7.1379    1.9783    0.0375 H   0  0  0  0  0  0  0  0  0  0  0  0
    6.6659    2.7040   -1.4951 H   0  0  0  0  0  0  0  0  0  0  0  0
    4.8529    1.6950   -2.8791 H   0  0  0  0  0  0  0  0  0  0  0  0
    2.8186    0.3099   -2.8916 H   0  0  0  0  0  0  0  0  0  0  0  0
    0.6371   -3.6538   -1.1238 H   0  0  0  0  0  0  0  0  0  0  0  0
    1.1869   -4.2222    0.4519 H   0  0  0  0  0  0  0  0  0  0  0  0
   -0.6777   -1.5986   -1.1241 H   0  0  0  0  0  0  0  0  0  0  0  0
   -2.8669   -0.9663   -0.6007 H   0  0  0  0  0  0  0  0  0  0  0  0
   -2.8096   -1.9177    0.8939 H   0  0  0  0  0  0  0  0  0  0  0  0
   -0.8026    0.1888    1.1111 H   0  0  0  0  0  0  0  0  0  0  0  0
   -2.0850    0.9138    3.0745 H   0  0  0  0  0  0  0  0  0  0  0  0
   -1.9897   -0.8509    3.0494 H   0  0  0  0  0  0  0  0  0  0  0  0
   -6.3280    0.5273    2.6763 H   0  0  0  0  0  0  0  0  0  0  0  0
   -7.5097    2.1324    1.2019 H   0  0  0  0  0  0  0  0  0  0  0  0
   -6.2614    3.3424   -0.5797 H   0  0  0  0  0  0  0  0  0  0  0  0
   -3.8427    2.8907   -0.9115 H   0  0  0  0  0  0  0  0  0  0  0  0
    3.9980   -1.4508    0.8760 H   0  0  0  0  0  0  0  0  0  0  0  0
    6.0252   -0.0673    0.8799 H   0  0  0  0  0  0  0  0  0  0  0  0
  1  2  1  0
  2  3  2  0
  3  4  1  0
  4  5  2  0
  5  6  1  0
  6  7  2  0
  6  8  1  0
  8  9  1  0
  9 10  1  0
 10 11  2  0
 10 12  1  0
 12 13  1  0
 13 14  1  0
 14 15  1  0
 15 16  1  0
 16 17  1  0
 17 18  2  0
 18 19  1  0
 19 20  2  0
 20 21  1  0
 21 22  2  0
 22 23  1  0
  5 24  1  0
 24 25  2  0
 25  2  1  0
 23 14  1  0
 22 17  1  0
  1 26  1  0
  1 27  1  0
  1 28  1  0
  3 29  1  0
  4 30  1  0
  9 31  1  0
  9 32  1  0
 12 33  1  0
 13 34  1  0
 13 35  1  0
 14 36  1  0
 15 37  1  0
 15 38  1  0
 18 39  1  0
 19 40  1  0
 20 41  1  0
 21 42  1  0
 24 43  1  0
 25 44  1  0
M  END
$$$$
