
     RDKit          3D

 60 64  0  0  0  0  0  0  0  0999 V2000
    8.0338    0.5846    0.3669 C   0  0  0  0  0  0  0  0  0  0  0  0
    6.6435    0.4408    0.1115 O   0  0  0  0  0  0  0  0  0  0  0  0
    6.1215   -0.8271    0.0861 C   0  0  0  0  0  0  0  0  0  0  0  0
    6.9111   -1.9861    0.0484 C   0  0  0  0  0  0  0  0  0  0  0  0
    6.3214   -3.2505   -0.0121 C   0  0  0  0  0  0  0  0  0  0  0  0
    4.9379   -3.3724   -0.0410 C   0  0  0  0  0  0  0  0  0  0  0  0
    4.1422   -2.2271   -0.0083 C   0  0  0  0  0  0  0  0  0  0  0  0
    4.7149   -0.9407    0.0565 C   0  0  0  0  0  0  0  0  0  0  0  0
    3.8404    0.2347    0.1079 C   0  0  0  0  0  0  0  0  0  0  0  0
    4.0525    1.4393    0.5996 N   0  0  0  0  0  0  0  0  0  0  0  0
    2.8731    2.1046    0.3575 C   0  0  0  0  0  0  0  0  0  0  0  0
    2.7283    3.4798    0.7026 C   0  0  0  0  0  0  0  0  0  0  0  0
    2.5804    4.5967    0.9893 N   0  0  0  0  0  0  0  0  0  0  0  0
    1.9526    1.2737   -0.2548 C   0  0  0  0  0  0  0  0  0  0  0  0
    0.6659    1.3767   -0.7049 N   0  0  0  0  0  0  0  0  0  0  0  0
   -0.3176    2.1183    0.1106 C   0  0  0  0  0  0  0  0  0  0  0  0
   -1.0514    1.1604    1.0843 C   0  0  0  0  0  0  0  0  0  0  0  0
   -1.7056   -0.0206    0.4509 N   0  0  0  0  0  0  0  0  0  0  0  0
   -2.9197    0.3575   -0.3365 C   0  0  0  0  0  0  0  0  0  0  0  0
   -3.9754    1.1022    0.4929 C   0  0  0  0  0  0  0  0  0  0  0  0
   -4.3795    0.6444    1.7591 C   0  0  0  0  0  0  0  0  0  0  0  0
   -5.3489    1.3315    2.4916 C   0  0  0  0  0  0  0  0  0  0  0  0
   -5.9330    2.4824    1.9681 C   0  0  0  0  0  0  0  0  0  0  0  0
   -5.5511    2.9465    0.7114 C   0  0  0  0  0  0  0  0  0  0  0  0
   -4.5815    2.2609   -0.0233 C   0  0  0  0  0  0  0  0  0  0  0  0
   -3.5793   -0.8318   -1.0492 C   0  0  0  0  0  0  0  0  0  0  0  0
   -3.9786   -0.7092   -2.3917 C   0  0  0  0  0  0  0  0  0  0  0  0
   -4.5911   -1.7752   -3.0539 C   0  0  0  0  0  0  0  0  0  0  0  0
   -4.8185   -2.9756   -2.3844 C   0  0  0  0  0  0  0  0  0  0  0  0
   -4.4369   -3.1119   -1.0518 C   0  0  0  0  0  0  0  0  0  0  0  0
   -3.8249   -2.0476   -0.3876 C   0  0  0  0  0  0  0  0  0  0  0  0
   -0.6733   -0.6985   -0.3856 C   0  0  0  0  0  0  0  0  0  0  0  0
    0.0613    0.2172   -1.3938 C   0  0  0  0  0  0  0  0  0  0  0  0
    2.5870    0.0697   -0.4253 O   0  0  0  0  0  0  0  0  0  0  0  0
    8.3205    0.0951    1.3037 H   0  0  0  0  0  0  0  0  0  0  0  0
    8.6264    0.2103   -0.4740 H   0  0  0  0  0  0  0  0  0  0  0  0
    8.2454    1.6532    0.4719 H   0  0  0  0  0  0  0  0  0  0  0  0
    7.9953   -1.9374    0.0537 H   0  0  0  0  0  0  0  0  0  0  0  0
    6.9465   -4.1398   -0.0411 H   0  0  0  0  0  0  0  0  0  0  0  0
    4.4765   -4.3556   -0.0883 H   0  0  0  0  0  0  0  0  0  0  0  0
    3.0603   -2.3467   -0.0241 H   0  0  0  0  0  0  0  0  0  0  0  0
    0.1425    2.9275    0.6841 H   0  0  0  0  0  0  0  0  0  0  0  0
   -1.0382    2.5995   -0.5609 H   0  0  0  0  0  0  0  0  0  0  0  0
   -1.7591    1.7361    1.6894 H   0  0  0  0  0  0  0  0  0  0  0  0
   -0.3184    0.7753    1.8067 H   0  0  0  0  0  0  0  0  0  0  0  0
   -2.5943    1.0509   -1.1224 H   0  0  0  0  0  0  0  0  0  0  0  0
   -3.9289   -0.2497    2.1840 H   0  0  0  0  0  0  0  0  0  0  0  0
   -5.6479    0.9660    3.4704 H   0  0  0  0  0  0  0  0  0  0  0  0
   -6.6893    3.0153    2.5383 H   0  0  0  0  0  0  0  0  0  0  0  0
   -6.0121    3.8411    0.3009 H   0  0  0  0  0  0  0  0  0  0  0  0
   -4.3055    2.6366   -1.0058 H   0  0  0  0  0  0  0  0  0  0  0  0
   -3.8206    0.2219   -2.9309 H   0  0  0  0  0  0  0  0  0  0  0  0
   -4.8967   -1.6669   -4.0914 H   0  0  0  0  0  0  0  0  0  0  0  0
   -5.2984   -3.8035   -2.8995 H   0  0  0  0  0  0  0  0  0  0  0  0
   -4.6177   -4.0459   -0.5263 H   0  0  0  0  0  0  0  0  0  0  0  0
   -3.5294   -2.1707    0.6521 H   0  0  0  0  0  0  0  0  0  0  0  0
    0.0687   -1.1290    0.3006 H   0  0  0  0  0  0  0  0  0  0  0  0
   -1.0890   -1.5598   -0.9181 H   0  0  0  0  0  0  0  0  0  0  0  0
    0.8062   -0.3605   -1.9543 H   0  0  0  0  0  0  0  0  0  0  0  0
   -0.6438    0.5893   -2.1465 H   0  0  0  0  0  0  0  0  0  0  0  0
  1  2  1  0
  2  3  1  0
  3  4  2  0
  4  5  1  0
  5  6  2  0
  6  7  1  0
  7  8  2  0
  8  9  1  0
  9 10  2  0
 10 11  1  0
 11 12  1  0
 12 13  3  0
 11 14  2  0
 14 15  1  0
 15 16  1  0
 16 17  1  0
 17 18  1  0
 18 19  1  0
 19 20  1  0
 20 21  2  0
 21 22  1  0
 22 23  2  0
 23 24  1  0
 24 25  2  0
 19 26  1  0
 26 27  2  0
 27 28  1  0
 28 29  2  0
 29 30  1  0
 30 31  2  0
 18 32  1  0
 32 33  1  0
 14 34  1  0
  8  3  1  0
 34  9  1  0
 33 15  1  0
 25 20  1  0
 31 26  1  0
  1 35  1  0
  1 36  1  0
  1 37  1  0
  4 38  1  0
  5 39  1  0
  6 40  1  0
  7 41  1  0
 16 42  1  0
 16 43  1  0
 17 44  1  0
 17 45  1  0
 19 46  1  0
 21 47  1  0
 22 48  1  0
 23 49  1  0
 24 50  1  0
 25 51  1  0
 27 52  1  0
 28 53  1  0
 29 54  1  0
 30 55  1  0
 31 56  1  0
 32 57  1  0
 32 58  1  0
 33 59  1  0
 33 60  1  0
M  END
$$$$
