
     RDKit          3D

 41 43  0  0  0  0  0  0  0  0999 V2000
    0.6914    1.1213   -2.8991 Cl  0  0  0  0  0  0  0  0  0  0  0  0
    2.4010    0.8724   -2.9629 C   0  0  0  0  0  0  0  0  0  0  0  0
    3.1207    1.5856   -3.9274 C   0  0  0  0  0  0  0  0  0  0  0  0
    4.5036    1.4372   -4.0251 C   0  0  0  0  0  0  0  0  0  0  0  0
    5.1709    0.5782   -3.1568 C   0  0  0  0  0  0  0  0  0  0  0  0
    4.4561   -0.1351   -2.1929 C   0  0  0  0  0  0  0  0  0  0  0  0
    3.0588   -0.0052   -2.0851 C   0  0  0  0  0  0  0  0  0  0  0  0
    2.3326   -0.7882   -1.0177 C   0  0  0  0  0  0  0  0  0  0  0  0
    2.1257    0.1946    0.4986 S   0  0  0  0  0  0  0  0  0  0  0  0
    1.1403   -0.8894    1.4158 C   0  0  0  0  0  0  0  0  0  0  0  0
    1.0208   -2.1871    1.2415 N   0  0  0  0  0  0  0  0  0  0  0  0
    0.1633   -2.6595    2.2141 N   0  0  0  0  0  0  0  0  0  0  0  0
   -0.2138   -1.6320    2.9451 C   0  0  0  0  0  0  0  0  0  0  0  0
    0.3521   -0.4853    2.4648 N   0  0  0  0  0  0  0  0  0  0  0  0
    0.1939    0.8388    3.0122 N   0  0  0  0  0  0  0  0  0  0  0  0
   -1.0891    1.4249    2.6189 C   0  0  0  0  0  0  0  0  0  0  0  0
   -1.1423    1.7968    1.1652 C   0  0  0  0  0  0  0  0  0  0  0  0
   -1.9508    1.2805    0.2250 C   0  0  0  0  0  0  0  0  0  0  0  0
   -2.9315    0.2240    0.4680 C   0  0  0  0  0  0  0  0  0  0  0  0
   -2.6034   -1.1089    0.2028 C   0  0  0  0  0  0  0  0  0  0  0  0
   -3.5257   -2.1237    0.4631 C   0  0  0  0  0  0  0  0  0  0  0  0
   -4.7820   -1.8099    0.9798 C   0  0  0  0  0  0  0  0  0  0  0  0
   -5.1174   -0.4813    1.2386 C   0  0  0  0  0  0  0  0  0  0  0  0
   -4.1939    0.5346    0.9846 C   0  0  0  0  0  0  0  0  0  0  0  0
    2.6075    2.2621   -4.6064 H   0  0  0  0  0  0  0  0  0  0  0  0
    5.0593    1.9939   -4.7755 H   0  0  0  0  0  0  0  0  0  0  0  0
    6.2501    0.4639   -3.2272 H   0  0  0  0  0  0  0  0  0  0  0  0
    4.9986   -0.7967   -1.5192 H   0  0  0  0  0  0  0  0  0  0  0  0
    2.9010   -1.6950   -0.7776 H   0  0  0  0  0  0  0  0  0  0  0  0
    1.3602   -1.1299   -1.3894 H   0  0  0  0  0  0  0  0  0  0  0  0
   -0.8777   -1.6544    3.7958 H   0  0  0  0  0  0  0  0  0  0  0  0
    0.9473    1.4466    2.6920 H   0  0  0  0  0  0  0  0  0  0  0  0
   -1.9149    0.7712    2.9203 H   0  0  0  0  0  0  0  0  0  0  0  0
   -1.2247    2.3460    3.1985 H   0  0  0  0  0  0  0  0  0  0  0  0
   -0.4526    2.5794    0.8528 H   0  0  0  0  0  0  0  0  0  0  0  0
   -1.8894    1.6315   -0.8029 H   0  0  0  0  0  0  0  0  0  0  0  0
   -1.6264   -1.3713   -0.1977 H   0  0  0  0  0  0  0  0  0  0  0  0
   -3.2588   -3.1589    0.2647 H   0  0  0  0  0  0  0  0  0  0  0  0
   -5.4990   -2.6018    1.1802 H   0  0  0  0  0  0  0  0  0  0  0  0
   -6.0976   -0.2367    1.6394 H   0  0  0  0  0  0  0  0  0  0  0  0
   -4.4642    1.5671    1.1922 H   0  0  0  0  0  0  0  0  0  0  0  0
  1  2  1  0
  2  3  2  0
  3  4  1  0
  4  5  2  0
  5  6  1  0
  6  7  2  0
  7  8  1  0
  8  9  1  0
  9 10  1  0
 10 11  2  0
 11 12  1  0
 12 13  2  0
 13 14  1  0
 14 15  1  0
 15 16  1  0
 16 17  1  0
 17 18  2  3
 18 19  1  0
 19 20  2  0
 20 21  1  0
 21 22  2  0
 22 23  1  0
 23 24  2  0
  7  2  1  0
 14 10  1  0
 24 19  1  0
  3 25  1  0
  4 26  1  0
  5 27  1  0
  6 28  1  0
  8 29  1  0
  8 30  1  0
 13 31  1  0
 15 32  1  0
 16 33  1  0
 16 34  1  0
 17 35  1  0
 18 36  1  0
 20 37  1  0
 21 38  1  0
 22 39  1  0
 23 40  1  0
 24 41  1  0
M  END
$$$$
