
     RDKit          3D

 55 59  0  0  0  0  0  0  0  0999 V2000
   -2.1293   -1.8855   -0.8445 C   0  0  0  0  0  0  0  0  0  0  0  0
   -2.7109   -0.5677   -0.4230 C   0  0  0  0  0  0  0  0  0  0  0  0
   -4.0709   -0.3849   -0.1835 C   0  0  0  0  0  0  0  0  0  0  0  0
   -5.0736   -1.4498   -0.2942 C   0  0  0  0  0  0  0  0  0  0  0  0
   -5.9357   -1.5090   -1.4000 C   0  0  0  0  0  0  0  0  0  0  0  0
   -6.8971   -2.5162   -1.5101 C   0  0  0  0  0  0  0  0  0  0  0  0
   -7.0183   -3.4725   -0.5030 C   0  0  0  0  0  0  0  0  0  0  0  0
   -6.1789   -3.4154    0.6061 C   0  0  0  0  0  0  0  0  0  0  0  0
   -6.3384   -4.5867    1.8596 Cl  0  0  0  0  0  0  0  0  0  0  0  0
   -5.2134   -2.4147    0.7175 C   0  0  0  0  0  0  0  0  0  0  0  0
   -4.6012    0.8102    0.1795 N   0  0  0  0  0  0  0  0  0  0  0  0
   -3.8047    1.8767    0.3344 C   0  0  0  0  0  0  0  0  0  0  0  0
   -4.3860    3.0850    0.6966 C   0  0  0  0  0  0  0  0  0  0  0  0
   -3.6306    4.2465    0.8696 C   0  0  0  0  0  0  0  0  0  0  0  0
   -2.2583    4.2062    0.6793 C   0  0  0  0  0  0  0  0  0  0  0  0
   -1.6518    3.0039    0.3193 C   0  0  0  0  0  0  0  0  0  0  0  0
   -2.4154    1.8200    0.1420 C   0  0  0  0  0  0  0  0  0  0  0  0
   -1.8915    0.5595   -0.2328 C   0  0  0  0  0  0  0  0  0  0  0  0
   -0.4442    0.4244   -0.4655 C   0  0  0  0  0  0  0  0  0  0  0  0
    0.0821    0.3809   -1.5643 O   0  0  0  0  0  0  0  0  0  0  0  0
    0.1834    0.3235    0.7324 O   0  0  0  0  0  0  0  0  0  0  0  0
    1.5999    0.1718    0.6176 C   0  0  0  0  0  0  0  0  0  0  0  0
    2.2769    1.3796   -0.0362 C   0  0  0  0  0  0  0  0  0  0  0  0
    2.0066    2.5259    0.3350 O   0  0  0  0  0  0  0  0  0  0  0  0
    3.2424    1.0824   -1.1670 C   0  0  0  0  0  0  0  0  0  0  0  0
    3.5341    2.2887   -1.9525 C   0  0  0  0  0  0  0  0  0  0  0  0
    3.8634    3.1927   -2.6033 N   0  0  0  0  0  0  0  0  0  0  0  0
    4.4882    0.4768   -0.5870 C   0  0  0  0  0  0  0  0  0  0  0  0
    4.5201   -0.5103    0.2916 N   0  0  0  0  0  0  0  0  0  0  0  0
    5.8470   -0.7954    0.4957 C   0  0  0  0  0  0  0  0  0  0  0  0
    6.4423   -1.7624    1.3184 C   0  0  0  0  0  0  0  0  0  0  0  0
    7.8379   -1.8649    1.3285 C   0  0  0  0  0  0  0  0  0  0  0  0
    8.6221   -1.0205    0.5385 C   0  0  0  0  0  0  0  0  0  0  0  0
    8.0433   -0.0467   -0.2844 C   0  0  0  0  0  0  0  0  0  0  0  0
    6.6509    0.0308   -0.2771 C   0  0  0  0  0  0  0  0  0  0  0  0
    5.7704    0.8413   -0.9464 N   0  0  0  0  0  0  0  0  0  0  0  0
   -1.5216   -2.3035   -0.0376 H   0  0  0  0  0  0  0  0  0  0  0  0
   -1.5075   -1.7599   -1.7345 H   0  0  0  0  0  0  0  0  0  0  0  0
   -2.8908   -2.6229   -1.1096 H   0  0  0  0  0  0  0  0  0  0  0  0
   -5.8614   -0.7573   -2.1832 H   0  0  0  0  0  0  0  0  0  0  0  0
   -7.5558   -2.5460   -2.3759 H   0  0  0  0  0  0  0  0  0  0  0  0
   -7.7724   -4.2505   -0.5865 H   0  0  0  0  0  0  0  0  0  0  0  0
   -4.5727   -2.3761    1.5942 H   0  0  0  0  0  0  0  0  0  0  0  0
   -5.4628    3.1244    0.8460 H   0  0  0  0  0  0  0  0  0  0  0  0
   -4.1184    5.1767    1.1495 H   0  0  0  0  0  0  0  0  0  0  0  0
   -1.6583    5.1051    0.8069 H   0  0  0  0  0  0  0  0  0  0  0  0
   -0.5739    3.0054    0.1750 H   0  0  0  0  0  0  0  0  0  0  0  0
    2.0104    0.0679    1.6263 H   0  0  0  0  0  0  0  0  0  0  0  0
    1.8177   -0.7529    0.0738 H   0  0  0  0  0  0  0  0  0  0  0  0
    2.7727    0.3478   -1.8312 H   0  0  0  0  0  0  0  0  0  0  0  0
    5.8298   -2.4192    1.9252 H   0  0  0  0  0  0  0  0  0  0  0  0
    8.3147   -2.6153    1.9558 H   0  0  0  0  0  0  0  0  0  0  0  0
    9.7044   -1.1229    0.5620 H   0  0  0  0  0  0  0  0  0  0  0  0
    8.6531    0.6090   -0.8955 H   0  0  0  0  0  0  0  0  0  0  0  0
    6.0318    1.5661   -1.6078 H   0  0  0  0  0  0  0  0  0  0  0  0
  1  2  1  0
  2  3  2  0
  3  4  1  0
  4  5  2  0
  5  6  1  0
  6  7  2  0
  7  8  1  0
  8  9  1  0
  8 10  2  0
  3 11  1  0
 11 12  2  0
 12 13  1  0
 13 14  2  0
 14 15  1  0
 15 16  2  0
 16 17  1  0
 17 18  2  0
 18 19  1  0
 19 20  2  0
 19 21  1  0
 21 22  1  0
 22 23  1  0
 23 24  2  0
 23 25  1  0
 25 26  1  0
 26 27  3  0
 25 28  1  0
 28 29  2  0
 29 30  1  0
 30 31  2  0
 31 32  1  0
 32 33  2  0
 33 34  1  0
 34 35  2  0
 35 36  1  0
 18  2  1  0
 36 28  1  0
 10  4  1  0
 17 12  1  0
 35 30  1  0
  1 37  1  0
  1 38  1  0
  1 39  1  0
  5 40  1  0
  6 41  1  0
  7 42  1  0
 10 43  1  0
 13 44  1  0
 14 45  1  0
 15 46  1  0
 16 47  1  0
 22 48  1  0
 22 49  1  0
 25 50  1  0
 31 51  1  0
 32 52  1  0
 33 53  1  0
 34 54  1  0
 36 55  1  0
M  END
$$$$
