
     RDKit          3D

 45 46  0  0  0  0  0  0  0  0999 V2000
    4.8793   -3.0273   -1.1707 C   0  0  0  0  0  0  0  0  0  0  0  0
    4.0551   -2.4901   -0.0378 C   0  0  0  0  0  0  0  0  0  0  0  0
    4.3013   -2.9000    1.2759 C   0  0  0  0  0  0  0  0  0  0  0  0
    3.5374   -2.3892    2.3225 C   0  0  0  0  0  0  0  0  0  0  0  0
    2.5389   -1.4480    2.0644 C   0  0  0  0  0  0  0  0  0  0  0  0
    2.3081   -0.9887    0.7618 C   0  0  0  0  0  0  0  0  0  0  0  0
    1.2619   -0.0535    0.5861 N   0  0  0  0  0  0  0  0  0  0  0  0
    1.0043    0.8520   -0.4385 C   0  0  0  0  0  0  0  0  0  0  0  0
    2.1972    1.4780   -1.4515 S   0  0  0  0  0  0  0  0  0  0  0  0
   -0.3590    1.2383   -0.5003 N   0  0  0  0  0  0  0  0  0  0  0  0
   -1.4098    0.5955    0.3204 C   0  0  0  0  0  0  0  0  0  0  0  0
   -1.6850    1.3783    1.6231 C   0  0  0  0  0  0  0  0  0  0  0  0
   -2.4388    0.6080    2.6291 N   0  0  0  0  0  0  0  0  0  0  0  0
   -2.4991    1.3540    3.8900 C   0  0  0  0  0  0  0  0  0  0  0  0
   -3.7978    0.3003    2.1746 C   0  0  0  0  0  0  0  0  0  0  0  0
   -0.8450    2.3045   -1.4005 C   0  0  0  0  0  0  0  0  0  0  0  0
   -1.5850    1.7159   -2.5695 C   0  0  0  0  0  0  0  0  0  0  0  0
   -1.1706    0.7471   -3.4644 C   0  0  0  0  0  0  0  0  0  0  0  0
   -2.1573    0.4549   -4.4494 C   0  0  0  0  0  0  0  0  0  0  0  0
   -3.2926    1.2141   -4.2817 C   0  0  0  0  0  0  0  0  0  0  0  0
   -3.1654    2.2720   -2.9457 S   0  0  0  0  0  0  0  0  0  0  0  0
    3.0580   -1.5315   -0.2843 C   0  0  0  0  0  0  0  0  0  0  0  0
    5.7259   -2.3619   -1.3652 H   0  0  0  0  0  0  0  0  0  0  0  0
    5.2624   -4.0265   -0.9382 H   0  0  0  0  0  0  0  0  0  0  0  0
    4.2785   -3.1147   -2.0821 H   0  0  0  0  0  0  0  0  0  0  0  0
    5.0818   -3.6267    1.4890 H   0  0  0  0  0  0  0  0  0  0  0  0
    3.7201   -2.7219    3.3408 H   0  0  0  0  0  0  0  0  0  0  0  0
    1.9574   -1.0667    2.8997 H   0  0  0  0  0  0  0  0  0  0  0  0
    0.7076    0.0940    1.4179 H   0  0  0  0  0  0  0  0  0  0  0  0
   -1.1164   -0.4349    0.5494 H   0  0  0  0  0  0  0  0  0  0  0  0
   -2.3251    0.5165   -0.2755 H   0  0  0  0  0  0  0  0  0  0  0  0
   -2.2007    2.3180    1.3853 H   0  0  0  0  0  0  0  0  0  0  0  0
   -0.7182    1.6635    2.0575 H   0  0  0  0  0  0  0  0  0  0  0  0
   -1.4904    1.5448    4.2732 H   0  0  0  0  0  0  0  0  0  0  0  0
   -3.0143    2.3149    3.7778 H   0  0  0  0  0  0  0  0  0  0  0  0
   -3.0184    0.7705    4.6585 H   0  0  0  0  0  0  0  0  0  0  0  0
   -3.7820   -0.3515    1.2954 H   0  0  0  0  0  0  0  0  0  0  0  0
   -4.3655    1.2048    1.9281 H   0  0  0  0  0  0  0  0  0  0  0  0
   -4.3464   -0.2489    2.9483 H   0  0  0  0  0  0  0  0  0  0  0  0
   -1.4891    2.9639   -0.8068 H   0  0  0  0  0  0  0  0  0  0  0  0
   -0.0343    2.9360   -1.7710 H   0  0  0  0  0  0  0  0  0  0  0  0
   -0.2014    0.2650   -3.4129 H   0  0  0  0  0  0  0  0  0  0  0  0
   -2.0371   -0.2739   -5.2416 H   0  0  0  0  0  0  0  0  0  0  0  0
   -4.1916    1.2015   -4.8824 H   0  0  0  0  0  0  0  0  0  0  0  0
    2.8612   -1.2505   -1.3139 H   0  0  0  0  0  0  0  0  0  0  0  0
  1  2  1  0
  2  3  2  0
  3  4  1  0
  4  5  2  0
  5  6  1  0
  6  7  1  0
  7  8  1  0
  8  9  2  0
  8 10  1  0
 10 11  1  0
 11 12  1  0
 12 13  1  0
 13 14  1  0
 13 15  1  0
 10 16  1  0
 16 17  1  0
 17 18  2  0
 18 19  1  0
 19 20  2  0
 20 21  1  0
  6 22  2  0
 22  2  1  0
 21 17  1  0
  1 23  1  0
  1 24  1  0
  1 25  1  0
  3 26  1  0
  4 27  1  0
  5 28  1  0
  7 29  1  0
 11 30  1  0
 11 31  1  0
 12 32  1  0
 12 33  1  0
 14 34  1  0
 14 35  1  0
 14 36  1  0
 15 37  1  0
 15 38  1  0
 15 39  1  0
 16 40  1  0
 16 41  1  0
 18 42  1  0
 19 43  1  0
 20 44  1  0
 22 45  1  0
M  END
$$$$
