
     RDKit          3D

 46 48  0  0  0  0  0  0  0  0999 V2000
    5.4450   -2.0332   -4.1591 C   0  0  0  0  0  0  0  0  0  0  0  0
    4.2776   -2.4368   -3.2780 C   0  0  0  0  0  0  0  0  0  0  0  0
    4.1261   -1.4413   -2.2580 O   0  0  0  0  0  0  0  0  0  0  0  0
    3.1611   -1.7105   -1.3438 C   0  0  0  0  0  0  0  0  0  0  0  0
    2.4565   -2.7110   -1.3326 O   0  0  0  0  0  0  0  0  0  0  0  0
    3.0548   -0.6164   -0.3287 C   0  0  0  0  0  0  0  0  0  0  0  0
    3.9619    0.4600   -0.3600 C   0  0  0  0  0  0  0  0  0  0  0  0
    3.8758    1.4870    0.5779 C   0  0  0  0  0  0  0  0  0  0  0  0
    2.8886    1.4475    1.5559 C   0  0  0  0  0  0  0  0  0  0  0  0
    1.9833    0.3830    1.6015 C   0  0  0  0  0  0  0  0  0  0  0  0
    2.0473   -0.6598    0.6682 C   0  0  0  0  0  0  0  0  0  0  0  0
    1.1282   -1.7390    0.6876 N   0  0  0  0  0  0  0  0  0  0  0  0
    0.0760   -1.9659    1.5534 C   0  0  0  0  0  0  0  0  0  0  0  0
   -0.2191   -1.3017    2.5445 O   0  0  0  0  0  0  0  0  0  0  0  0
   -0.7409   -3.1965    1.1903 C   0  0  0  0  0  0  0  0  0  0  0  0
   -1.7113   -2.9428   -0.3282 S   0  0  0  0  0  0  0  0  0  0  0  0
   -2.5198   -1.4127    0.0648 C   0  0  0  0  0  0  0  0  0  0  0  0
   -3.3525   -1.2731    1.1600 C   0  0  0  0  0  0  0  0  0  0  0  0
   -3.9176   -0.0254    1.4241 C   0  0  0  0  0  0  0  0  0  0  0  0
   -3.6418    1.0444    0.5788 C   0  0  0  0  0  0  0  0  0  0  0  0
   -4.1714    2.4018    0.7702 C   0  0  0  0  0  0  0  0  0  0  0  0
   -4.4982    2.9274    2.0312 C   0  0  0  0  0  0  0  0  0  0  0  0
   -4.9934    4.2271    2.1546 C   0  0  0  0  0  0  0  0  0  0  0  0
   -5.1571    4.9804    1.0065 C   0  0  0  0  0  0  0  0  0  0  0  0
   -4.8580    4.5285   -0.2283 N   0  0  0  0  0  0  0  0  0  0  0  0
   -4.3692    3.2632   -0.3128 C   0  0  0  0  0  0  0  0  0  0  0  0
   -2.8462    0.8583   -0.4978 N   0  0  0  0  0  0  0  0  0  0  0  0
   -2.2805   -0.3728   -0.7541 N   0  0  0  0  0  0  0  0  0  0  0  0
    5.2683   -1.0490   -4.6056 H   0  0  0  0  0  0  0  0  0  0  0  0
    6.3639   -1.9547   -3.5676 H   0  0  0  0  0  0  0  0  0  0  0  0
    5.5999   -2.7611   -4.9621 H   0  0  0  0  0  0  0  0  0  0  0  0
    3.3610   -2.4891   -3.8774 H   0  0  0  0  0  0  0  0  0  0  0  0
    4.4783   -3.4140   -2.8228 H   0  0  0  0  0  0  0  0  0  0  0  0
    4.7428    0.5156   -1.1164 H   0  0  0  0  0  0  0  0  0  0  0  0
    4.5725    2.3188    0.5405 H   0  0  0  0  0  0  0  0  0  0  0  0
    2.8108    2.2489    2.2866 H   0  0  0  0  0  0  0  0  0  0  0  0
    1.2274    0.4071    2.3815 H   0  0  0  0  0  0  0  0  0  0  0  0
    1.2368   -2.4100   -0.0788 H   0  0  0  0  0  0  0  0  0  0  0  0
   -0.0682   -4.0488    1.0501 H   0  0  0  0  0  0  0  0  0  0  0  0
   -1.4095   -3.4434    2.0214 H   0  0  0  0  0  0  0  0  0  0  0  0
   -3.5600   -2.1101    1.8176 H   0  0  0  0  0  0  0  0  0  0  0  0
   -4.5727    0.0872    2.2814 H   0  0  0  0  0  0  0  0  0  0  0  0
   -4.3480    2.3447    2.9365 H   0  0  0  0  0  0  0  0  0  0  0  0
   -5.2386    4.6422    3.1267 H   0  0  0  0  0  0  0  0  0  0  0  0
   -5.5367    5.9978    1.0497 H   0  0  0  0  0  0  0  0  0  0  0  0
   -4.1335    2.9481   -1.3277 H   0  0  0  0  0  0  0  0  0  0  0  0
  1  2  1  0
  2  3  1  0
  3  4  1  0
  4  5  2  0
  4  6  1  0
  6  7  2  0
  7  8  1  0
  8  9  2  0
  9 10  1  0
 10 11  2  0
 11 12  1  0
 12 13  1  0
 13 14  2  0
 13 15  1  0
 15 16  1  0
 16 17  1  0
 17 18  2  0
 18 19  1  0
 19 20  2  0
 20 21  1  0
 21 22  2  0
 22 23  1  0
 23 24  2  0
 24 25  1  0
 25 26  2  0
 20 27  1  0
 27 28  2  0
 11  6  1  0
 28 17  1  0
 26 21  1  0
  1 29  1  0
  1 30  1  0
  1 31  1  0
  2 32  1  0
  2 33  1  0
  7 34  1  0
  8 35  1  0
  9 36  1  0
 10 37  1  0
 12 38  1  0
 15 39  1  0
 15 40  1  0
 18 41  1  0
 19 42  1  0
 22 43  1  0
 23 44  1  0
 24 45  1  0
 26 46  1  0
M  END
$$$$
