
     RDKit          3D

 52 54  0  0  0  0  0  0  0  0999 V2000
   -6.3222   -1.6272    2.7838 C   0  0  0  0  0  0  0  0  0  0  0  0
   -4.9134   -2.1036    3.1022 C   0  0  0  0  0  0  0  0  0  0  0  0
   -4.0095   -2.2037    1.8698 C   0  0  0  0  0  0  0  0  0  0  0  0
   -3.7427   -0.8506    1.2067 C   0  0  0  0  0  0  0  0  0  0  0  0
   -2.6363   -0.8732    0.1228 C   0  0  0  0  0  0  0  0  0  0  0  0
   -2.9875   -1.8009   -1.0620 C   0  0  0  0  0  0  0  0  0  0  0  0
   -2.3619   -3.1856   -0.9394 C   0  0  0  0  0  0  0  0  0  0  0  0
   -2.4071    0.5879   -0.3505 C   0  0  0  0  0  0  0  0  0  0  0  0
   -1.2286    0.7508   -1.2107 N   0  0  0  0  0  0  0  0  0  0  0  0
    0.0287    0.6253   -0.6333 C   0  0  0  0  0  0  0  0  0  0  0  0
    0.2299    0.4309    0.5570 O   0  0  0  0  0  0  0  0  0  0  0  0
    1.0964    0.8087   -1.6582 C   0  0  0  0  0  0  0  0  0  0  0  0
    2.4273    0.6970   -1.5268 C   0  0  0  0  0  0  0  0  0  0  0  0
    3.1984    0.3217   -0.3872 C   0  0  0  0  0  0  0  0  0  0  0  0
    2.9268   -0.7126    0.4761 C   0  0  0  0  0  0  0  0  0  0  0  0
    3.9548   -0.7360    1.3672 N   0  0  0  0  0  0  0  0  0  0  0  0
    4.9145    0.1623    1.1076 N   0  0  0  0  0  0  0  0  0  0  0  0
    4.4584    0.8472    0.0440 C   0  0  0  0  0  0  0  0  0  0  0  0
    5.2376    1.9511   -0.5198 C   0  0  0  0  0  0  0  0  0  0  0  0
    4.6201    3.1487   -0.9063 C   0  0  0  0  0  0  0  0  0  0  0  0
    5.3746    4.1907   -1.4522 C   0  0  0  0  0  0  0  0  0  0  0  0
    6.7522    4.0473   -1.6100 C   0  0  0  0  0  0  0  0  0  0  0  0
    7.3790    2.8666   -1.2161 C   0  0  0  0  0  0  0  0  0  0  0  0
    6.6258    1.8248   -0.6701 C   0  0  0  0  0  0  0  0  0  0  0  0
    0.3711    1.2530   -3.1639 S   0  0  0  0  0  0  0  0  0  0  0  0
   -1.2644    1.1398   -2.5331 C   0  0  0  0  0  0  0  0  0  0  0  0
   -2.5918    1.4807   -3.4854 S   0  0  0  0  0  0  0  0  0  0  0  0
   -6.9440   -1.6657    3.6840 H   0  0  0  0  0  0  0  0  0  0  0  0
   -6.7888   -2.2605    2.0226 H   0  0  0  0  0  0  0  0  0  0  0  0
   -6.3243   -0.5941    2.4241 H   0  0  0  0  0  0  0  0  0  0  0  0
   -4.9769   -3.0946    3.5673 H   0  0  0  0  0  0  0  0  0  0  0  0
   -4.4612   -1.4347    3.8437 H   0  0  0  0  0  0  0  0  0  0  0  0
   -4.4696   -2.8900    1.1505 H   0  0  0  0  0  0  0  0  0  0  0  0
   -3.0564   -2.6473    2.1818 H   0  0  0  0  0  0  0  0  0  0  0  0
   -4.6710   -0.4696    0.7634 H   0  0  0  0  0  0  0  0  0  0  0  0
   -3.4516   -0.1351    1.9868 H   0  0  0  0  0  0  0  0  0  0  0  0
   -1.7135   -1.2334    0.5937 H   0  0  0  0  0  0  0  0  0  0  0  0
   -2.6256   -1.3812   -2.0050 H   0  0  0  0  0  0  0  0  0  0  0  0
   -4.0745   -1.8961   -1.1680 H   0  0  0  0  0  0  0  0  0  0  0  0
   -2.6973   -3.7151   -0.0453 H   0  0  0  0  0  0  0  0  0  0  0  0
   -1.2697   -3.1150   -0.9046 H   0  0  0  0  0  0  0  0  0  0  0  0
   -2.6300   -3.7953   -1.8084 H   0  0  0  0  0  0  0  0  0  0  0  0
   -3.3092    0.9612   -0.8438 H   0  0  0  0  0  0  0  0  0  0  0  0
   -2.2435    1.2281    0.5263 H   0  0  0  0  0  0  0  0  0  0  0  0
    3.0312    0.9319   -2.4045 H   0  0  0  0  0  0  0  0  0  0  0  0
    2.1096   -1.4159    0.5486 H   0  0  0  0  0  0  0  0  0  0  0  0
    4.0776   -1.3521    2.1637 H   0  0  0  0  0  0  0  0  0  0  0  0
    3.5516    3.2910   -0.7671 H   0  0  0  0  0  0  0  0  0  0  0  0
    4.8881    5.1174   -1.7454 H   0  0  0  0  0  0  0  0  0  0  0  0
    7.3392    4.8597   -2.0307 H   0  0  0  0  0  0  0  0  0  0  0  0
    8.4544    2.7560   -1.3275 H   0  0  0  0  0  0  0  0  0  0  0  0
    7.1249    0.9095   -0.3581 H   0  0  0  0  0  0  0  0  0  0  0  0
  1  2  1  0
  2  3  1  0
  3  4  1  0
  4  5  1  0
  5  6  1  0
  6  7  1  0
  5  8  1  0
  8  9  1  0
  9 10  1  0
 10 11  2  0
 10 12  1  0
 12 13  2  3
 13 14  1  0
 14 15  2  0
 15 16  1  0
 16 17  1  0
 17 18  2  0
 18 19  1  0
 19 20  2  0
 20 21  1  0
 21 22  2  0
 22 23  1  0
 23 24  2  0
 12 25  1  0
 25 26  1  0
 26 27  2  0
 26  9  1  0
 18 14  1  0
 24 19  1  0
  1 28  1  0
  1 29  1  0
  1 30  1  0
  2 31  1  0
  2 32  1  0
  3 33  1  0
  3 34  1  0
  4 35  1  0
  4 36  1  0
  5 37  1  0
  6 38  1  0
  6 39  1  0
  7 40  1  0
  7 41  1  0
  7 42  1  0
  8 43  1  0
  8 44  1  0
 13 45  1  0
 15 46  1  0
 16 47  1  0
 20 48  1  0
 21 49  1  0
 22 50  1  0
 23 51  1  0
 24 52  1  0
M  END
$$$$
