
     RDKit          3D

 38 39  0  0  0  0  0  0  0  0999 V2000
   -3.8592   -1.3469    1.9090 O   0  0  0  0  0  0  0  0  0  0  0  0
   -3.8849   -1.8439    0.7956 C   0  0  0  0  0  0  0  0  0  0  0  0
   -4.8477   -1.5108   -0.0855 O   0  0  0  0  0  0  0  0  0  0  0  0
   -2.9174   -2.8545    0.2509 C   0  0  0  0  0  0  0  0  0  0  0  0
   -2.1189   -2.2880   -0.9153 C   0  0  0  0  0  0  0  0  0  0  0  0
   -1.0860   -1.2852   -0.4244 C   0  0  0  0  0  0  0  0  0  0  0  0
   -0.0619   -1.7488    0.2360 N   0  0  0  0  0  0  0  0  0  0  0  0
    0.9436   -0.8760    0.5561 N   0  0  0  0  0  0  0  0  0  0  0  0
    1.7611   -0.3570   -0.4460 C   0  0  0  0  0  0  0  0  0  0  0  0
    1.5617   -0.3943   -1.6550 O   0  0  0  0  0  0  0  0  0  0  0  0
    3.0141    0.2346    0.0603 C   0  0  0  0  0  0  0  0  0  0  0  0
    3.9903   -0.6365    0.5672 C   0  0  0  0  0  0  0  0  0  0  0  0
    5.1945   -0.1252    1.0509 C   0  0  0  0  0  0  0  0  0  0  0  0
    5.4277    1.2496    1.0217 C   0  0  0  0  0  0  0  0  0  0  0  0
    4.4587    2.1167    0.5096 C   0  0  0  0  0  0  0  0  0  0  0  0
    3.2482    1.6123    0.0228 C   0  0  0  0  0  0  0  0  0  0  0  0
    1.9759    2.8535   -0.6365 Br  0  0  0  0  0  0  0  0  0  0  0  0
   -1.3917    0.1462   -0.6717 C   0  0  0  0  0  0  0  0  0  0  0  0
   -1.6332    0.9867    0.4189 C   0  0  0  0  0  0  0  0  0  0  0  0
   -1.9650    2.3229    0.1986 C   0  0  0  0  0  0  0  0  0  0  0  0
   -2.0559    2.8125   -1.1057 C   0  0  0  0  0  0  0  0  0  0  0  0
   -1.8139    1.9692   -2.1919 C   0  0  0  0  0  0  0  0  0  0  0  0
   -1.4847    0.6306   -1.9778 C   0  0  0  0  0  0  0  0  0  0  0  0
   -5.3867   -0.8417    0.3861 H   0  0  0  0  0  0  0  0  0  0  0  0
   -3.4915   -3.7320   -0.0656 H   0  0  0  0  0  0  0  0  0  0  0  0
   -2.2629   -3.1782    1.0677 H   0  0  0  0  0  0  0  0  0  0  0  0
   -2.7775   -1.8336   -1.6626 H   0  0  0  0  0  0  0  0  0  0  0  0
   -1.5767   -3.1001   -1.4152 H   0  0  0  0  0  0  0  0  0  0  0  0
    1.3974   -1.0895    1.4391 H   0  0  0  0  0  0  0  0  0  0  0  0
    3.8229   -1.7120    0.5671 H   0  0  0  0  0  0  0  0  0  0  0  0
    5.9558   -0.7981    1.4403 H   0  0  0  0  0  0  0  0  0  0  0  0
    6.3697    1.6486    1.3920 H   0  0  0  0  0  0  0  0  0  0  0  0
    4.6598    3.1864    0.4901 H   0  0  0  0  0  0  0  0  0  0  0  0
   -1.5740    0.6002    1.4329 H   0  0  0  0  0  0  0  0  0  0  0  0
   -2.1486    2.9834    1.0424 H   0  0  0  0  0  0  0  0  0  0  0  0
   -2.3058    3.8576   -1.2753 H   0  0  0  0  0  0  0  0  0  0  0  0
   -1.8682    2.3587   -3.2049 H   0  0  0  0  0  0  0  0  0  0  0  0
   -1.2692   -0.0174   -2.8232 H   0  0  0  0  0  0  0  0  0  0  0  0
  1  2  2  0
  2  3  1  0
  2  4  1  0
  4  5  1  0
  5  6  1  0
  6  7  2  3
  7  8  1  0
  8  9  1  0
  9 10  2  0
  9 11  1  0
 11 12  2  0
 12 13  1  0
 13 14  2  0
 14 15  1  0
 15 16  2  0
 16 17  1  0
  6 18  1  0
 18 19  2  0
 19 20  1  0
 20 21  2  0
 21 22  1  0
 22 23  2  0
 16 11  1  0
 23 18  1  0
  3 24  1  0
  4 25  1  0
  4 26  1  0
  5 27  1  0
  5 28  1  0
  8 29  1  0
 12 30  1  0
 13 31  1  0
 14 32  1  0
 15 33  1  0
 19 34  1  0
 20 35  1  0
 21 36  1  0
 22 37  1  0
 23 38  1  0
M  END
$$$$
