
     RDKit          3D

 51 54  0  0  0  0  0  0  0  0999 V2000
    4.2096    1.9643    2.2588 C   0  0  0  0  0  0  0  0  0  0  0  0
    2.9313    1.3742    1.6912 C   0  0  0  0  0  0  0  0  0  0  0  0
    1.8843    1.6092    2.6321 O   0  0  0  0  0  0  0  0  0  0  0  0
    0.5988    1.4393    2.1796 C   0  0  0  0  0  0  0  0  0  0  0  0
    0.2563    0.5657    1.1393 C   0  0  0  0  0  0  0  0  0  0  0  0
   -1.0819    0.4181    0.7313 C   0  0  0  0  0  0  0  0  0  0  0  0
   -1.4942   -0.5575   -0.3721 C   0  0  0  0  0  0  0  0  0  0  0  0
   -1.3123   -2.0056    0.0949 C   0  0  0  0  0  0  0  0  0  0  0  0
   -2.4922   -2.9021   -0.2408 C   0  0  0  0  0  0  0  0  0  0  0  0
   -3.6206   -2.4610   -0.4436 O   0  0  0  0  0  0  0  0  0  0  0  0
   -2.2106   -4.3985   -0.2872 C   0  0  0  0  0  0  0  0  0  0  0  0
   -0.9965   -4.7516    0.5751 C   0  0  0  0  0  0  0  0  0  0  0  0
    0.2764   -4.0297    0.1237 C   0  0  0  0  0  0  0  0  0  0  0  0
   -0.0640   -2.6699   -0.4556 C   0  0  0  0  0  0  0  0  0  0  0  0
    0.6747   -2.2140   -1.4169 N   0  0  0  0  0  0  0  0  0  0  0  0
    0.2842   -1.0767   -2.0366 C   0  0  0  0  0  0  0  0  0  0  0  0
    0.7565   -0.5235   -3.1291 N   0  0  0  0  0  0  0  0  0  0  0  0
   -0.0426    0.5934   -3.3366 C   0  0  0  0  0  0  0  0  0  0  0  0
    0.1302    1.5172   -4.4750 C   0  0  0  0  0  0  0  0  0  0  0  0
   -0.5652    2.5101   -4.6750 O   0  0  0  0  0  0  0  0  0  0  0  0
    1.1628    1.1430   -5.2948 O   0  0  0  0  0  0  0  0  0  0  0  0
    1.3657    2.0078   -6.4102 C   0  0  0  0  0  0  0  0  0  0  0  0
   -0.9971    0.7438   -2.3950 N   0  0  0  0  0  0  0  0  0  0  0  0
   -0.7444   -0.2976   -1.5879 N   0  0  0  0  0  0  0  0  0  0  0  0
   -2.0694    1.1571    1.3972 C   0  0  0  0  0  0  0  0  0  0  0  0
   -1.7346    2.0188    2.4461 C   0  0  0  0  0  0  0  0  0  0  0  0
   -0.4048    2.1621    2.8496 C   0  0  0  0  0  0  0  0  0  0  0  0
    0.0160    2.9752    3.8715 O   0  0  0  0  0  0  0  0  0  0  0  0
   -0.9628    3.7695    4.5258 C   0  0  0  0  0  0  0  0  0  0  0  0
    4.0932    3.0395    2.4315 H   0  0  0  0  0  0  0  0  0  0  0  0
    4.4472    1.5105    3.2269 H   0  0  0  0  0  0  0  0  0  0  0  0
    5.0495    1.8047    1.5769 H   0  0  0  0  0  0  0  0  0  0  0  0
    3.0686    0.2967    1.5484 H   0  0  0  0  0  0  0  0  0  0  0  0
    2.7102    1.8546    0.7302 H   0  0  0  0  0  0  0  0  0  0  0  0
    1.0324   -0.0118    0.6471 H   0  0  0  0  0  0  0  0  0  0  0  0
   -2.5386   -0.3522   -0.6374 H   0  0  0  0  0  0  0  0  0  0  0  0
   -1.2441   -2.0394    1.1918 H   0  0  0  0  0  0  0  0  0  0  0  0
   -3.0923   -4.9283    0.0882 H   0  0  0  0  0  0  0  0  0  0  0  0
   -2.0434   -4.6860   -1.3307 H   0  0  0  0  0  0  0  0  0  0  0  0
   -1.2074   -4.4798    1.6177 H   0  0  0  0  0  0  0  0  0  0  0  0
   -0.8280   -5.8343    0.5637 H   0  0  0  0  0  0  0  0  0  0  0  0
    0.7852   -4.6205   -0.6468 H   0  0  0  0  0  0  0  0  0  0  0  0
    0.9664   -3.9010    0.9635 H   0  0  0  0  0  0  0  0  0  0  0  0
    1.6264    3.0151   -6.0721 H   0  0  0  0  0  0  0  0  0  0  0  0
    2.1999    1.6141   -6.9969 H   0  0  0  0  0  0  0  0  0  0  0  0
    0.4766    2.0302   -7.0475 H   0  0  0  0  0  0  0  0  0  0  0  0
   -3.1163    1.0706    1.1079 H   0  0  0  0  0  0  0  0  0  0  0  0
   -2.5391    2.5638    2.9285 H   0  0  0  0  0  0  0  0  0  0  0  0
   -1.7035    3.1437    5.0343 H   0  0  0  0  0  0  0  0  0  0  0  0
   -0.4539    4.3664    5.2886 H   0  0  0  0  0  0  0  0  0  0  0  0
   -1.4422    4.4624    3.8264 H   0  0  0  0  0  0  0  0  0  0  0  0
  1  2  1  0
  2  3  1  0
  3  4  1  0
  4  5  2  0
  5  6  1  0
  6  7  1  0
  7  8  1  0
  8  9  1  0
  9 10  2  0
  9 11  1  0
 11 12  1  0
 12 13  1  0
 13 14  1  0
 14 15  2  0
 15 16  1  0
 16 17  2  0
 17 18  1  0
 18 19  1  0
 19 20  2  0
 19 21  1  0
 21 22  1  0
 18 23  2  0
 23 24  1  0
  6 25  2  0
 25 26  1  0
 26 27  2  0
 27 28  1  0
 28 29  1  0
 27  4  1  0
 24  7  1  0
 14  8  1  0
 24 16  1  0
  1 30  1  0
  1 31  1  0
  1 32  1  0
  2 33  1  0
  2 34  1  0
  5 35  1  0
  7 36  1  0
  8 37  1  0
 11 38  1  0
 11 39  1  0
 12 40  1  0
 12 41  1  0
 13 42  1  0
 13 43  1  0
 22 44  1  0
 22 45  1  0
 22 46  1  0
 25 47  1  0
 26 48  1  0
 29 49  1  0
 29 50  1  0
 29 51  1  0
M  END
$$$$
