
     RDKit          3D

 42 45  0  0  0  0  0  0  0  0999 V2000
    5.9128   -0.5696   -2.0103 C   0  0  0  0  0  0  0  0  0  0  0  0
    6.0274    0.7835   -1.3215 C   0  0  0  0  0  0  0  0  0  0  0  0
    4.9039    1.0358   -0.3567 C   0  0  0  0  0  0  0  0  0  0  0  0
    3.7232    0.4996   -0.4412 N   0  0  0  0  0  0  0  0  0  0  0  0
    2.9443    0.9841    0.5978 N   0  0  0  0  0  0  0  0  0  0  0  0
    1.6365    0.5875    0.7916 C   0  0  0  0  0  0  0  0  0  0  0  0
    1.0752   -0.3042    0.0288 N   0  0  0  0  0  0  0  0  0  0  0  0
    0.9320    1.2375    1.9467 C   0  0  0  0  0  0  0  0  0  0  0  0
   -0.3717    1.0762    2.2520 C   0  0  0  0  0  0  0  0  0  0  0  0
   -1.3457    0.3084    1.5519 C   0  0  0  0  0  0  0  0  0  0  0  0
   -1.8473   -0.9667    1.8758 C   0  0  0  0  0  0  0  0  0  0  0  0
   -1.4722   -1.8366    3.0170 C   0  0  0  0  0  0  0  0  0  0  0  0
   -2.7592   -1.3799    0.9914 N   0  0  0  0  0  0  0  0  0  0  0  0
   -2.8825   -0.3589    0.0798 N   0  0  0  0  0  0  0  0  0  0  0  0
   -3.8566   -0.5086   -0.9620 C   0  0  0  0  0  0  0  0  0  0  0  0
   -4.3284    0.5593   -1.7350 C   0  0  0  0  0  0  0  0  0  0  0  0
   -5.2866    0.3457   -2.7347 C   0  0  0  0  0  0  0  0  0  0  0  0
   -5.7897   -0.9314   -2.9694 C   0  0  0  0  0  0  0  0  0  0  0  0
   -5.3433   -2.0007   -2.1992 C   0  0  0  0  0  0  0  0  0  0  0  0
   -4.3892   -1.7911   -1.1999 C   0  0  0  0  0  0  0  0  0  0  0  0
   -2.0097    0.6693    0.4051 C   0  0  0  0  0  0  0  0  0  0  0  0
   -1.7573    2.0674   -0.5432 Cl  0  0  0  0  0  0  0  0  0  0  0  0
    1.7348    2.1592    2.8412 C   0  0  0  0  0  0  0  0  0  0  0  0
    1.2327    2.6336    3.8546 O   0  0  0  0  0  0  0  0  0  0  0  0
    3.0373    2.4481    2.4878 N   0  0  0  0  0  0  0  0  0  0  0  0
    3.5380    1.8786    1.4506 C   0  0  0  0  0  0  0  0  0  0  0  0
    5.1831    2.1805    0.9476 S   0  0  0  0  0  0  0  0  0  0  0  0
    5.8860   -1.3844   -1.2770 H   0  0  0  0  0  0  0  0  0  0  0  0
    6.7678   -0.7347   -2.6738 H   0  0  0  0  0  0  0  0  0  0  0  0
    5.0007   -0.6283   -2.6152 H   0  0  0  0  0  0  0  0  0  0  0  0
    6.9874    0.8377   -0.7879 H   0  0  0  0  0  0  0  0  0  0  0  0
    6.0164    1.5859   -2.0726 H   0  0  0  0  0  0  0  0  0  0  0  0
    1.7815   -0.5758   -0.6719 H   0  0  0  0  0  0  0  0  0  0  0  0
   -0.7672    1.5897    3.1289 H   0  0  0  0  0  0  0  0  0  0  0  0
   -2.0202   -2.7841    2.9986 H   0  0  0  0  0  0  0  0  0  0  0  0
   -1.6993   -1.3380    3.9652 H   0  0  0  0  0  0  0  0  0  0  0  0
   -0.4008   -2.0579    2.9927 H   0  0  0  0  0  0  0  0  0  0  0  0
   -4.0190    1.5838   -1.5768 H   0  0  0  0  0  0  0  0  0  0  0  0
   -5.6474    1.1857   -3.3251 H   0  0  0  0  0  0  0  0  0  0  0  0
   -6.5341   -1.0904   -3.7446 H   0  0  0  0  0  0  0  0  0  0  0  0
   -5.7354   -2.9995   -2.3699 H   0  0  0  0  0  0  0  0  0  0  0  0
   -4.0583   -2.6509   -0.6171 H   0  0  0  0  0  0  0  0  0  0  0  0
  1  2  1  0
  2  3  1  0
  3  4  2  0
  4  5  1  0
  5  6  1  0
  6  7  2  3
  6  8  1  0
  8  9  2  3
  9 10  1  0
 10 11  1  0
 11 12  1  0
 11 13  2  0
 13 14  1  0
 14 15  1  0
 15 16  2  0
 16 17  1  0
 17 18  2  0
 18 19  1  0
 19 20  2  0
 14 21  1  0
 21 22  1  0
  8 23  1  0
 23 24  2  0
 23 25  1  0
 25 26  2  0
 26 27  1  0
 27  3  1  0
 26  5  1  0
 21 10  2  0
 20 15  1  0
  1 28  1  0
  1 29  1  0
  1 30  1  0
  2 31  1  0
  2 32  1  0
  7 33  1  0
  9 34  1  0
 12 35  1  0
 12 36  1  0
 12 37  1  0
 16 38  1  0
 17 39  1  0
 18 40  1  0
 19 41  1  0
 20 42  1  0
M  END
$$$$
