
     RDKit          3D

 54 55  0  0  0  0  0  0  0  0999 V2000
   -1.2731   -2.0445   -0.2859 C   0  0  0  0  0  0  0  0  0  0  0  0
   -1.7530   -0.7042   -0.2943 O   0  0  0  0  0  0  0  0  0  0  0  0
   -0.8774    0.2756   -0.6807 C   0  0  0  0  0  0  0  0  0  0  0  0
    0.5013    0.0931   -0.8332 C   0  0  0  0  0  0  0  0  0  0  0  0
    1.3371    1.1631   -1.2024 C   0  0  0  0  0  0  0  0  0  0  0  0
    2.8277    0.9444   -1.3418 C   0  0  0  0  0  0  0  0  0  0  0  0
    3.3940    0.7054   -0.0217 N   0  0  0  0  0  0  0  0  0  0  0  0
    4.7740    0.5510    0.1283 C   0  0  0  0  0  0  0  0  0  0  0  0
    5.6295    0.1548   -0.9068 C   0  0  0  0  0  0  0  0  0  0  0  0
    6.9970   -0.0557   -0.6803 C   0  0  0  0  0  0  0  0  0  0  0  0
    7.5293    0.0990    0.6020 C   0  0  0  0  0  0  0  0  0  0  0  0
    8.9666   -0.1203    0.8955 C   0  0  0  0  0  0  0  0  0  0  0  0
    9.4956   -0.0197    1.9872 O   0  0  0  0  0  0  0  0  0  0  0  0
    9.6782   -0.4590   -0.1950 O   0  0  0  0  0  0  0  0  0  0  0  0
    6.6823    0.4543    1.6534 C   0  0  0  0  0  0  0  0  0  0  0  0
    5.3187    0.6630    1.4161 C   0  0  0  0  0  0  0  0  0  0  0  0
    0.7774    2.4317   -1.4025 C   0  0  0  0  0  0  0  0  0  0  0  0
   -0.5977    2.6235   -1.2484 C   0  0  0  0  0  0  0  0  0  0  0  0
   -1.2948    4.3664   -1.5287 Br  0  0  0  0  0  0  0  0  0  0  0  0
   -1.4278    1.5492   -0.9074 C   0  0  0  0  0  0  0  0  0  0  0  0
   -2.7707    1.7823   -0.7316 O   0  0  0  0  0  0  0  0  0  0  0  0
   -3.5700    1.1392   -1.7302 C   0  0  0  0  0  0  0  0  0  0  0  0
   -4.5944    0.1756   -1.1246 C   0  0  0  0  0  0  0  0  0  0  0  0
   -5.1703   -0.6665   -1.8082 O   0  0  0  0  0  0  0  0  0  0  0  0
   -4.8259    0.3848    0.2216 N   0  0  0  0  0  0  0  0  0  0  0  0
   -5.6697   -0.4592    1.0754 C   0  0  0  0  0  0  0  0  0  0  0  0
   -5.0979   -1.8823    1.1635 C   0  0  0  0  0  0  0  0  0  0  0  0
   -5.6766    0.1540    2.4875 C   0  0  0  0  0  0  0  0  0  0  0  0
   -7.1182   -0.5029    0.5617 C   0  0  0  0  0  0  0  0  0  0  0  0
   -2.1238   -2.7036   -0.0860 H   0  0  0  0  0  0  0  0  0  0  0  0
   -0.8585   -2.3260   -1.2596 H   0  0  0  0  0  0  0  0  0  0  0  0
   -0.5417   -2.1930    0.5157 H   0  0  0  0  0  0  0  0  0  0  0  0
    0.9666   -0.8720   -0.6469 H   0  0  0  0  0  0  0  0  0  0  0  0
    2.9860    0.0856   -2.0056 H   0  0  0  0  0  0  0  0  0  0  0  0
    3.2948    1.8212   -1.8075 H   0  0  0  0  0  0  0  0  0  0  0  0
    3.0045    1.3247    0.6851 H   0  0  0  0  0  0  0  0  0  0  0  0
    5.2562   -0.0050   -1.9134 H   0  0  0  0  0  0  0  0  0  0  0  0
    7.6321   -0.3514   -1.5118 H   0  0  0  0  0  0  0  0  0  0  0  0
   10.5858   -0.5813    0.1528 H   0  0  0  0  0  0  0  0  0  0  0  0
    7.0732    0.5615    2.6637 H   0  0  0  0  0  0  0  0  0  0  0  0
    4.6783    0.9151    2.2588 H   0  0  0  0  0  0  0  0  0  0  0  0
    1.4150    3.2721   -1.6715 H   0  0  0  0  0  0  0  0  0  0  0  0
   -4.1305    1.9206   -2.2539 H   0  0  0  0  0  0  0  0  0  0  0  0
   -2.9749    0.5924   -2.4729 H   0  0  0  0  0  0  0  0  0  0  0  0
   -4.1030    0.9381    0.6742 H   0  0  0  0  0  0  0  0  0  0  0  0
   -5.0833   -2.3776    0.1880 H   0  0  0  0  0  0  0  0  0  0  0  0
   -5.6906   -2.5068    1.8427 H   0  0  0  0  0  0  0  0  0  0  0  0
   -4.0671   -1.8677    1.5372 H   0  0  0  0  0  0  0  0  0  0  0  0
   -6.2852   -0.4385    3.1784 H   0  0  0  0  0  0  0  0  0  0  0  0
   -4.6608    0.2072    2.8974 H   0  0  0  0  0  0  0  0  0  0  0  0
   -6.0744    1.1746    2.4763 H   0  0  0  0  0  0  0  0  0  0  0  0
   -7.7699   -1.0447    1.2575 H   0  0  0  0  0  0  0  0  0  0  0  0
   -7.5227    0.5076    0.4410 H   0  0  0  0  0  0  0  0  0  0  0  0
   -7.1969   -1.0059   -0.4080 H   0  0  0  0  0  0  0  0  0  0  0  0
  1  2  1  0
  2  3  1  0
  3  4  2  0
  4  5  1  0
  5  6  1  0
  6  7  1  0
  7  8  1  0
  8  9  2  0
  9 10  1  0
 10 11  2  0
 11 12  1  0
 12 13  2  0
 12 14  1  0
 11 15  1  0
 15 16  2  0
  5 17  2  0
 17 18  1  0
 18 19  1  0
 18 20  2  0
 20 21  1  0
 21 22  1  0
 22 23  1  0
 23 24  2  0
 23 25  1  0
 25 26  1  0
 26 27  1  0
 26 28  1  0
 26 29  1  0
 20  3  1  0
 16  8  1  0
  1 30  1  0
  1 31  1  0
  1 32  1  0
  4 33  1  0
  6 34  1  0
  6 35  1  0
  7 36  1  0
  9 37  1  0
 10 38  1  0
 14 39  1  0
 15 40  1  0
 16 41  1  0
 17 42  1  0
 22 43  1  0
 22 44  1  0
 25 45  1  0
 27 46  1  0
 27 47  1  0
 27 48  1  0
 28 49  1  0
 28 50  1  0
 28 51  1  0
 29 52  1  0
 29 53  1  0
 29 54  1  0
M  END
$$$$
