
     RDKit          3D

 47 50  0  0  0  0  0  0  0  0999 V2000
    1.8793    4.6121   -5.2348 C   0  0  0  0  0  0  0  0  0  0  0  0
    1.5877    4.2045   -3.8194 C   0  0  0  0  0  0  0  0  0  0  0  0
    2.4088    4.6469   -2.7768 C   0  0  0  0  0  0  0  0  0  0  0  0
    2.1466    4.3091   -1.4446 C   0  0  0  0  0  0  0  0  0  0  0  0
    1.0229    3.5186   -1.1848 C   0  0  0  0  0  0  0  0  0  0  0  0
    0.5316    3.0427    0.0137 N   0  0  0  0  0  0  0  0  0  0  0  0
   -0.5992    2.3131   -0.2137 C   0  0  0  0  0  0  0  0  0  0  0  0
   -1.4294    1.6366    0.7361 C   0  0  0  0  0  0  0  0  0  0  0  0
   -1.1920    1.6167    1.9423 O   0  0  0  0  0  0  0  0  0  0  0  0
   -2.5233    0.9810    0.1427 N   0  0  0  0  0  0  0  0  0  0  0  0
   -3.4734    0.2749    0.9920 C   0  0  0  0  0  0  0  0  0  0  0  0
   -2.9165   -1.0883    1.3952 C   0  0  0  0  0  0  0  0  0  0  0  0
   -3.2552   -2.1357    0.8496 O   0  0  0  0  0  0  0  0  0  0  0  0
   -1.9874   -1.0422    2.4185 N   0  0  0  0  0  0  0  0  0  0  0  0
   -1.2669   -2.2261    2.8421 C   0  0  0  0  0  0  0  0  0  0  0  0
   -0.1247   -2.5760    1.8852 C   0  0  0  0  0  0  0  0  0  0  0  0
    0.6397   -3.7921    2.3464 C   0  0  0  0  0  0  0  0  0  0  0  0
    1.7911   -3.6554    3.1340 C   0  0  0  0  0  0  0  0  0  0  0  0
    2.4843   -4.7858    3.5726 C   0  0  0  0  0  0  0  0  0  0  0  0
    2.0266   -6.0562    3.2288 C   0  0  0  0  0  0  0  0  0  0  0  0
    2.8814   -7.4478    3.7709 Cl  0  0  0  0  0  0  0  0  0  0  0  0
    0.8808   -6.2067    2.4512 C   0  0  0  0  0  0  0  0  0  0  0  0
    0.1876   -5.0768    2.0123 C   0  0  0  0  0  0  0  0  0  0  0  0
   -2.7962    0.9785   -1.2369 N   0  0  0  0  0  0  0  0  0  0  0  0
   -1.9983    1.6052   -2.0537 C   0  0  0  0  0  0  0  0  0  0  0  0
   -0.8484    2.3119   -1.5633 C   0  0  0  0  0  0  0  0  0  0  0  0
    0.1689    3.0685   -2.1980 C   0  0  0  0  0  0  0  0  0  0  0  0
    0.4552    3.4235   -3.5319 C   0  0  0  0  0  0  0  0  0  0  0  0
    2.9560    4.7362   -5.3918 H   0  0  0  0  0  0  0  0  0  0  0  0
    1.5350    3.8483   -5.9400 H   0  0  0  0  0  0  0  0  0  0  0  0
    1.3767    5.5570   -5.4626 H   0  0  0  0  0  0  0  0  0  0  0  0
    3.2759    5.2679   -2.9960 H   0  0  0  0  0  0  0  0  0  0  0  0
    2.7962    4.6556   -0.6471 H   0  0  0  0  0  0  0  0  0  0  0  0
    0.9425    3.2090    0.9233 H   0  0  0  0  0  0  0  0  0  0  0  0
   -4.4196    0.1351    0.4586 H   0  0  0  0  0  0  0  0  0  0  0  0
   -3.6746    0.8663    1.8922 H   0  0  0  0  0  0  0  0  0  0  0  0
   -1.6045   -0.1300    2.6680 H   0  0  0  0  0  0  0  0  0  0  0  0
   -0.8822   -2.0230    3.8476 H   0  0  0  0  0  0  0  0  0  0  0  0
   -1.9763   -3.0586    2.9173 H   0  0  0  0  0  0  0  0  0  0  0  0
   -0.5092   -2.7523    0.8725 H   0  0  0  0  0  0  0  0  0  0  0  0
    0.5591   -1.7222    1.7918 H   0  0  0  0  0  0  0  0  0  0  0  0
    2.1564   -2.6685    3.4099 H   0  0  0  0  0  0  0  0  0  0  0  0
    3.3773   -4.6689    4.1804 H   0  0  0  0  0  0  0  0  0  0  0  0
    0.5214   -7.1966    2.1838 H   0  0  0  0  0  0  0  0  0  0  0  0
   -0.7089   -5.2026    1.4070 H   0  0  0  0  0  0  0  0  0  0  0  0
   -2.2057    1.6007   -3.1353 H   0  0  0  0  0  0  0  0  0  0  0  0
   -0.1970    3.0920   -4.3354 H   0  0  0  0  0  0  0  0  0  0  0  0
  1  2  1  0
  2  3  2  0
  3  4  1  0
  4  5  2  0
  5  6  1  0
  6  7  1  0
  7  8  1  0
  8  9  2  0
  8 10  1  0
 10 11  1  0
 11 12  1  0
 12 13  2  0
 12 14  1  0
 14 15  1  0
 15 16  1  0
 16 17  1  0
 17 18  2  0
 18 19  1  0
 19 20  2  0
 20 21  1  0
 20 22  1  0
 22 23  2  0
 10 24  1  0
 24 25  2  0
 25 26  1  0
 26 27  1  0
 27 28  2  0
 28  2  1  0
 27  5  1  0
 26  7  2  0
 23 17  1  0
  1 29  1  0
  1 30  1  0
  1 31  1  0
  3 32  1  0
  4 33  1  0
  6 34  1  0
 11 35  1  0
 11 36  1  0
 14 37  1  0
 15 38  1  0
 15 39  1  0
 16 40  1  0
 16 41  1  0
 18 42  1  0
 19 43  1  0
 22 44  1  0
 23 45  1  0
 25 46  1  0
 28 47  1  0
M  END
$$$$
