
     RDKit          3D

 33 34  0  0  0  0  0  0  0  0999 V2000
    7.3524    0.6361   -0.1744 C   0  0  0  0  0  0  0  0  0  0  0  0
    6.7009   -0.6634    0.2822 C   0  0  0  0  0  0  0  0  0  0  0  0
    5.1797   -0.6808    0.1331 C   0  0  0  0  0  0  0  0  0  0  0  0
    4.3592    0.4535    1.2961 S   0  0  0  0  0  0  0  0  0  0  0  0
    2.6834    0.1939    0.8678 C   0  0  0  0  0  0  0  0  0  0  0  0
    2.3011   -0.6784   -0.0388 N   0  0  0  0  0  0  0  0  0  0  0  0
    0.9259   -0.6992   -0.1897 N   0  0  0  0  0  0  0  0  0  0  0  0
    0.3395    0.1684    0.5969 C   0  0  0  0  0  0  0  0  0  0  0  0
   -0.9855    0.4670    0.7676 N   0  0  0  0  0  0  0  0  0  0  0  0
   -1.9591   -0.0324   -0.0748 C   0  0  0  0  0  0  0  0  0  0  0  0
   -1.7422   -0.7194   -1.0633 O   0  0  0  0  0  0  0  0  0  0  0  0
   -3.2183    0.3632    0.3611 N   0  0  0  0  0  0  0  0  0  0  0  0
   -4.4526    0.1600   -0.2919 C   0  0  0  0  0  0  0  0  0  0  0  0
   -5.6151    0.4850    0.4192 C   0  0  0  0  0  0  0  0  0  0  0  0
   -6.8764    0.3271   -0.1627 C   0  0  0  0  0  0  0  0  0  0  0  0
   -6.9871   -0.1531   -1.4646 C   0  0  0  0  0  0  0  0  0  0  0  0
   -5.8378   -0.4711   -2.1822 C   0  0  0  0  0  0  0  0  0  0  0  0
   -4.5757   -0.3145   -1.5991 C   0  0  0  0  0  0  0  0  0  0  0  0
    1.3954    1.0603    1.5999 S   0  0  0  0  0  0  0  0  0  0  0  0
    7.0759    0.8775   -1.2053 H   0  0  0  0  0  0  0  0  0  0  0  0
    8.4423    0.5402   -0.1337 H   0  0  0  0  0  0  0  0  0  0  0  0
    7.0697    1.4779    0.4642 H   0  0  0  0  0  0  0  0  0  0  0  0
    7.1099   -1.4773   -0.3293 H   0  0  0  0  0  0  0  0  0  0  0  0
    6.9914   -0.8745    1.3189 H   0  0  0  0  0  0  0  0  0  0  0  0
    4.9033   -0.4160   -0.8934 H   0  0  0  0  0  0  0  0  0  0  0  0
    4.8210   -1.6971    0.3278 H   0  0  0  0  0  0  0  0  0  0  0  0
   -1.2036    1.2193    1.3969 H   0  0  0  0  0  0  0  0  0  0  0  0
   -3.2774    0.6933    1.3108 H   0  0  0  0  0  0  0  0  0  0  0  0
   -5.5599    0.8618    1.4367 H   0  0  0  0  0  0  0  0  0  0  0  0
   -7.7708    0.5798    0.4007 H   0  0  0  0  0  0  0  0  0  0  0  0
   -7.9654   -0.2769   -1.9219 H   0  0  0  0  0  0  0  0  0  0  0  0
   -5.9169   -0.8420   -3.2019 H   0  0  0  0  0  0  0  0  0  0  0  0
   -3.7071   -0.5679   -2.1991 H   0  0  0  0  0  0  0  0  0  0  0  0
  1  2  1  0
  2  3  1  0
  3  4  1  0
  4  5  1  0
  5  6  2  0
  6  7  1  0
  7  8  2  0
  8  9  1  0
  9 10  1  0
 10 11  2  0
 10 12  1  0
 12 13  1  0
 13 14  2  0
 14 15  1  0
 15 16  2  0
 16 17  1  0
 17 18  2  0
  8 19  1  0
 19  5  1  0
 18 13  1  0
  1 20  1  0
  1 21  1  0
  1 22  1  0
  2 23  1  0
  2 24  1  0
  3 25  1  0
  3 26  1  0
  9 27  1  0
 12 28  1  0
 14 29  1  0
 15 30  1  0
 16 31  1  0
 17 32  1  0
 18 33  1  0
M  END
$$$$
