
     RDKit          3D

 55 56  0  0  0  0  0  0  0  0999 V2000
   -4.0839    2.2718    3.0746 C   0  0  0  0  0  0  0  0  0  0  0  0
   -4.5607    2.4291    1.6269 C   0  0  0  0  0  0  0  0  0  0  0  0
   -3.9360    1.4479    0.7547 N   0  0  0  0  0  0  0  0  0  0  0  0
   -2.6320    1.5668    0.3324 C   0  0  0  0  0  0  0  0  0  0  0  0
   -1.8876    2.4746    0.6829 O   0  0  0  0  0  0  0  0  0  0  0  0
   -2.2045    0.4445   -0.5898 C   0  0  0  0  0  0  0  0  0  0  0  0
   -0.7959    0.6842   -1.1173 C   0  0  0  0  0  0  0  0  0  0  0  0
   -0.2475   -0.6923   -2.1864 S   0  0  0  0  0  0  0  0  0  0  0  0
    0.3244   -1.8837   -0.9176 C   0  0  0  0  0  0  0  0  0  0  0  0
    1.7089   -1.5414   -0.3798 C   0  0  0  0  0  0  0  0  0  0  0  0
    2.8180   -1.9404   -1.3335 C   0  0  0  0  0  0  0  0  0  0  0  0
    2.7592   -2.9378   -2.0446 O   0  0  0  0  0  0  0  0  0  0  0  0
    3.9140   -1.1089   -1.2730 N   0  0  0  0  0  0  0  0  0  0  0  0
    5.1431   -1.3996   -1.9933 C   0  0  0  0  0  0  0  0  0  0  0  0
    5.5897   -0.1668   -2.7806 C   0  0  0  0  0  0  0  0  0  0  0  0
    6.1808   -1.9255   -1.0156 C   0  0  0  0  0  0  0  0  0  0  0  0
    7.0087   -1.0793   -0.2610 C   0  0  0  0  0  0  0  0  0  0  0  0
    7.9316   -1.6077    0.6458 C   0  0  0  0  0  0  0  0  0  0  0  0
    8.0327   -2.9859    0.8195 C   0  0  0  0  0  0  0  0  0  0  0  0
    7.2065   -3.8388    0.0925 C   0  0  0  0  0  0  0  0  0  0  0  0
    6.2845   -3.3124   -0.8141 C   0  0  0  0  0  0  0  0  0  0  0  0
   -6.0697    2.3388    1.4791 C   0  0  0  0  0  0  0  0  0  0  0  0
   -6.7315    3.2308    0.6194 C   0  0  0  0  0  0  0  0  0  0  0  0
   -8.1145    3.1611    0.4441 C   0  0  0  0  0  0  0  0  0  0  0  0
   -8.8555    2.1936    1.1181 C   0  0  0  0  0  0  0  0  0  0  0  0
   -8.2124    1.2878    1.9570 C   0  0  0  0  0  0  0  0  0  0  0  0
   -6.8287    1.3557    2.1337 C   0  0  0  0  0  0  0  0  0  0  0  0
   -4.2409    1.2548    3.4510 H   0  0  0  0  0  0  0  0  0  0  0  0
   -4.6069    2.9685    3.7394 H   0  0  0  0  0  0  0  0  0  0  0  0
   -3.0109    2.4763    3.1555 H   0  0  0  0  0  0  0  0  0  0  0  0
   -4.2342    3.4228    1.2927 H   0  0  0  0  0  0  0  0  0  0  0  0
   -4.5144    0.7016    0.3908 H   0  0  0  0  0  0  0  0  0  0  0  0
   -2.9177    0.3901   -1.4211 H   0  0  0  0  0  0  0  0  0  0  0  0
   -2.2613   -0.4900   -0.0206 H   0  0  0  0  0  0  0  0  0  0  0  0
   -0.7818    1.5953   -1.7262 H   0  0  0  0  0  0  0  0  0  0  0  0
   -0.0792    0.8360   -0.3045 H   0  0  0  0  0  0  0  0  0  0  0  0
   -0.4015   -1.9007   -0.0991 H   0  0  0  0  0  0  0  0  0  0  0  0
    0.3118   -2.8796   -1.3725 H   0  0  0  0  0  0  0  0  0  0  0  0
    1.8828   -2.1143    0.5397 H   0  0  0  0  0  0  0  0  0  0  0  0
    1.7887   -0.4827   -0.1130 H   0  0  0  0  0  0  0  0  0  0  0  0
    3.9679   -0.4277   -0.5290 H   0  0  0  0  0  0  0  0  0  0  0  0
    4.9475   -2.1837   -2.7362 H   0  0  0  0  0  0  0  0  0  0  0  0
    4.8375    0.0946   -3.5348 H   0  0  0  0  0  0  0  0  0  0  0  0
    5.7121    0.7128   -2.1390 H   0  0  0  0  0  0  0  0  0  0  0  0
    6.5381   -0.3499   -3.2968 H   0  0  0  0  0  0  0  0  0  0  0  0
    6.9471    0.0009   -0.3645 H   0  0  0  0  0  0  0  0  0  0  0  0
    8.5710   -0.9414    1.2187 H   0  0  0  0  0  0  0  0  0  0  0  0
    8.7495   -3.3952    1.5259 H   0  0  0  0  0  0  0  0  0  0  0  0
    7.2760   -4.9150    0.2308 H   0  0  0  0  0  0  0  0  0  0  0  0
    5.6352   -3.9929   -1.3634 H   0  0  0  0  0  0  0  0  0  0  0  0
   -6.1687    3.9892    0.0769 H   0  0  0  0  0  0  0  0  0  0  0  0
   -8.6131    3.8642   -0.2182 H   0  0  0  0  0  0  0  0  0  0  0  0
   -9.9326    2.1417    0.9839 H   0  0  0  0  0  0  0  0  0  0  0  0
   -8.7907    0.5281    2.4788 H   0  0  0  0  0  0  0  0  0  0  0  0
   -6.3534    0.6303    2.7908 H   0  0  0  0  0  0  0  0  0  0  0  0
  1  2  1  0
  2  3  1  0
  3  4  1  0
  4  5  2  0
  4  6  1  0
  6  7  1  0
  7  8  1  0
  8  9  1  0
  9 10  1  0
 10 11  1  0
 11 12  2  0
 11 13  1  0
 13 14  1  0
 14 15  1  0
 14 16  1  0
 16 17  2  0
 17 18  1  0
 18 19  2  0
 19 20  1  0
 20 21  2  0
  2 22  1  0
 22 23  2  0
 23 24  1  0
 24 25  2  0
 25 26  1  0
 26 27  2  0
 21 16  1  0
 27 22  1  0
  1 28  1  0
  1 29  1  0
  1 30  1  0
  2 31  1  0
  3 32  1  0
  6 33  1  0
  6 34  1  0
  7 35  1  0
  7 36  1  0
  9 37  1  0
  9 38  1  0
 10 39  1  0
 10 40  1  0
 13 41  1  0
 14 42  1  0
 15 43  1  0
 15 44  1  0
 15 45  1  0
 17 46  1  0
 18 47  1  0
 19 48  1  0
 20 49  1  0
 21 50  1  0
 23 51  1  0
 24 52  1  0
 25 53  1  0
 26 54  1  0
 27 55  1  0
M  END
$$$$
