
     RDKit          3D

 40 42  0  0  0  0  0  0  0  0999 V2000
    4.1988   -3.4662   -1.4089 C   0  0  0  0  0  0  0  0  0  0  0  0
    2.9720   -2.6319   -1.2053 C   0  0  0  0  0  0  0  0  0  0  0  0
    1.8588   -3.0787   -0.9686 O   0  0  0  0  0  0  0  0  0  0  0  0
    3.2807   -1.3107   -1.3056 O   0  0  0  0  0  0  0  0  0  0  0  0
    2.1687   -0.4062   -1.1736 C   0  0  0  0  0  0  0  0  0  0  0  0
    1.7788   -0.2076    0.2948 C   0  0  0  0  0  0  0  0  0  0  0  0
    0.6758    0.7506    0.4344 N   0  0  0  0  0  0  0  0  0  0  0  0
    0.9426    2.1087    0.5587 C   0  0  0  0  0  0  0  0  0  0  0  0
    2.1434    2.6029    0.5411 N   0  0  0  0  0  0  0  0  0  0  0  0
    2.3694    3.9455    0.6645 C   0  0  0  0  0  0  0  0  0  0  0  0
    3.4172    4.4655    0.2965 O   0  0  0  0  0  0  0  0  0  0  0  0
    1.3999    4.7413    1.2005 N   0  0  0  0  0  0  0  0  0  0  0  0
    0.0821    4.5063    0.9561 C   0  0  0  0  0  0  0  0  0  0  0  0
   -0.7604    5.3842    0.8761 O   0  0  0  0  0  0  0  0  0  0  0  0
   -0.2253    3.0528    0.7171 C   0  0  0  0  0  0  0  0  0  0  0  0
   -1.4569    2.6482    0.6622 N   0  0  0  0  0  0  0  0  0  0  0  0
   -1.7009    1.2794    0.4416 C   0  0  0  0  0  0  0  0  0  0  0  0
   -3.0415    0.8895    0.3388 C   0  0  0  0  0  0  0  0  0  0  0  0
   -3.4031   -0.4445    0.1157 C   0  0  0  0  0  0  0  0  0  0  0  0
   -4.8583   -0.8076    0.0106 C   0  0  0  0  0  0  0  0  0  0  0  0
   -2.3902   -1.4078   -0.0099 C   0  0  0  0  0  0  0  0  0  0  0  0
   -2.7146   -2.8574   -0.2569 C   0  0  0  0  0  0  0  0  0  0  0  0
   -1.0416   -1.0139    0.0974 C   0  0  0  0  0  0  0  0  0  0  0  0
   -0.6661    0.3218    0.3247 C   0  0  0  0  0  0  0  0  0  0  0  0
    4.6273   -3.2619   -2.3933 H   0  0  0  0  0  0  0  0  0  0  0  0
    4.9255   -3.2545   -0.6208 H   0  0  0  0  0  0  0  0  0  0  0  0
    3.9286   -4.5251   -1.3616 H   0  0  0  0  0  0  0  0  0  0  0  0
    1.3257   -0.7545   -1.7825 H   0  0  0  0  0  0  0  0  0  0  0  0
    2.4875    0.5478   -1.6083 H   0  0  0  0  0  0  0  0  0  0  0  0
    2.6624    0.1476    0.8423 H   0  0  0  0  0  0  0  0  0  0  0  0
    1.5563   -1.1586    0.7911 H   0  0  0  0  0  0  0  0  0  0  0  0
    1.6471    5.7204    1.1999 H   0  0  0  0  0  0  0  0  0  0  0  0
   -3.8093    1.6551    0.4357 H   0  0  0  0  0  0  0  0  0  0  0  0
   -5.1245   -1.5408    0.7786 H   0  0  0  0  0  0  0  0  0  0  0  0
   -5.5027    0.0663    0.1540 H   0  0  0  0  0  0  0  0  0  0  0  0
   -5.0765   -1.2197   -0.9797 H   0  0  0  0  0  0  0  0  0  0  0  0
   -3.3034   -3.2610    0.5729 H   0  0  0  0  0  0  0  0  0  0  0  0
   -3.2747   -2.9676   -1.1909 H   0  0  0  0  0  0  0  0  0  0  0  0
   -1.8080   -3.4655   -0.3443 H   0  0  0  0  0  0  0  0  0  0  0  0
   -0.2907   -1.7921   -0.0118 H   0  0  0  0  0  0  0  0  0  0  0  0
  1  2  1  0
  2  3  2  0
  2  4  1  0
  4  5  1  0
  5  6  1  0
  6  7  1  0
  7  8  1  0
  8  9  2  0
  9 10  1  0
 10 11  2  0
 10 12  1  0
 12 13  1  0
 13 14  2  0
 13 15  1  0
 15 16  2  0
 16 17  1  0
 17 18  2  0
 18 19  1  0
 19 20  1  0
 19 21  2  0
 21 22  1  0
 21 23  1  0
 23 24  2  0
 24  7  1  0
 15  8  1  0
 24 17  1  0
  1 25  1  0
  1 26  1  0
  1 27  1  0
  5 28  1  0
  5 29  1  0
  6 30  1  0
  6 31  1  0
 12 32  1  0
 18 33  1  0
 20 34  1  0
 20 35  1  0
 20 36  1  0
 22 37  1  0
 22 38  1  0
 22 39  1  0
 23 40  1  0
M  END
$$$$
