
     RDKit          3D

 28 29  0  0  0  0  0  0  0  0999 V2000
   -5.7401    2.6826   -0.7852 O   0  0  0  0  0  0  0  0  0  0  0  0
   -5.0319    2.1468    0.0775 N   0  0  0  0  0  4  0  0  0  0  0  0
   -5.0993    2.3417    1.3050 O   0  0  0  0  0  1  0  0  0  0  0  0
   -3.9803    1.2614   -0.3805 C   0  0  0  0  0  0  0  0  0  0  0  0
   -2.6576    1.6361   -0.0996 C   0  0  0  0  0  0  0  0  0  0  0  0
   -1.6218    0.7885   -0.4992 C   0  0  0  0  0  0  0  0  0  0  0  0
   -0.2300    1.1751   -0.1887 C   0  0  0  0  0  0  0  0  0  0  0  0
    0.7592    0.3637   -0.3818 N   0  0  0  0  0  0  0  0  0  0  0  0
    1.9645    0.9063   -0.0340 N   0  0  0  0  0  0  0  0  0  0  0  0
    2.9974    0.0209    0.3488 C   0  0  0  0  0  0  0  0  0  0  0  0
    2.7281   -1.1214    1.1078 C   0  0  0  0  0  0  0  0  0  0  0  0
    3.7829   -1.9511    1.4958 C   0  0  0  0  0  0  0  0  0  0  0  0
    5.0789   -1.6189    1.1210 C   0  0  0  0  0  0  0  0  0  0  0  0
    5.2661   -0.4499    0.3923 C   0  0  0  0  0  0  0  0  0  0  0  0
    4.2584    0.3718    0.0023 N   0  0  0  0  0  0  0  0  0  0  0  0
   -1.9069   -0.4042   -1.1771 C   0  0  0  0  0  0  0  0  0  0  0  0
   -3.2323   -0.7632   -1.4473 C   0  0  0  0  0  0  0  0  0  0  0  0
   -4.2834    0.0653   -1.0413 C   0  0  0  0  0  0  0  0  0  0  0  0
   -5.8914   -0.4760   -1.3561 Cl  0  0  0  0  0  0  0  0  0  0  0  0
   -2.4421    2.5608    0.4399 H   0  0  0  0  0  0  0  0  0  0  0  0
   -0.0690    2.1782    0.2397 H   0  0  0  0  0  0  0  0  0  0  0  0
    2.3969    1.5616   -0.6984 H   0  0  0  0  0  0  0  0  0  0  0  0
    1.7091   -1.3521    1.4001 H   0  0  0  0  0  0  0  0  0  0  0  0
    3.5883   -2.8371    2.0943 H   0  0  0  0  0  0  0  0  0  0  0  0
    5.9260   -2.2343    1.4144 H   0  0  0  0  0  0  0  0  0  0  0  0
    6.2674   -0.1134    0.1151 H   0  0  0  0  0  0  0  0  0  0  0  0
   -1.1006   -1.0629   -1.4962 H   0  0  0  0  0  0  0  0  0  0  0  0
   -3.4365   -1.6989   -1.9687 H   0  0  0  0  0  0  0  0  0  0  0  0
  1  2  2  0
  2  3  1  0
  2  4  1  0
  4  5  2  0
  5  6  1  0
  6  7  1  0
  7  8  2  3
  8  9  1  0
  9 10  1  0
 10 11  2  0
 11 12  1  0
 12 13  2  0
 13 14  1  0
 14 15  2  0
  6 16  2  0
 16 17  1  0
 17 18  2  0
 18 19  1  0
 18  4  1  0
 15 10  1  0
  5 20  1  0
  7 21  1  0
  9 22  1  0
 11 23  1  0
 12 24  1  0
 13 25  1  0
 14 26  1  0
 16 27  1  0
 17 28  1  0
M  CHG  2   2   1   3  -1
M  END
$$$$
