
     RDKit          3D

 44 47  0  0  0  0  0  0  0  0999 V2000
    6.0985   -0.3811    0.7712 C   0  0  0  0  0  0  0  0  0  0  0  0
    5.2050   -0.3919   -0.4600 C   0  0  0  0  0  0  0  0  0  0  0  0
    3.7558   -0.2803   -0.0942 C   0  0  0  0  0  0  0  0  0  0  0  0
    2.8706   -1.2960    0.2103 C   0  0  0  0  0  0  0  0  0  0  0  0
    1.5669   -0.7977    0.5012 C   0  0  0  0  0  0  0  0  0  0  0  0
    0.3682   -1.5211    0.8641 C   0  0  0  0  0  0  0  0  0  0  0  0
    0.3965   -2.7341    1.0572 O   0  0  0  0  0  0  0  0  0  0  0  0
   -0.7753   -0.7215    1.0085 N   0  0  0  0  0  0  0  0  0  0  0  0
   -2.0116   -1.4538    1.2913 C   0  0  0  0  0  0  0  0  0  0  0  0
   -2.6057   -2.0993    0.0553 C   0  0  0  0  0  0  0  0  0  0  0  0
   -2.5081   -3.4867   -0.1342 C   0  0  0  0  0  0  0  0  0  0  0  0
   -3.0448   -4.0912   -1.2724 C   0  0  0  0  0  0  0  0  0  0  0  0
   -3.6829   -3.3167   -2.2377 C   0  0  0  0  0  0  0  0  0  0  0  0
   -3.7826   -1.9384   -2.0655 C   0  0  0  0  0  0  0  0  0  0  0  0
   -3.2486   -1.3328   -0.9260 C   0  0  0  0  0  0  0  0  0  0  0  0
   -0.6789    0.6684    0.9198 C   0  0  0  0  0  0  0  0  0  0  0  0
   -2.1089    1.6358    1.2640 S   0  0  0  0  0  0  0  0  0  0  0  0
   -1.9366    3.0211    0.1097 C   0  0  0  0  0  0  0  0  0  0  0  0
   -0.9936    4.1156    0.5550 C   0  0  0  0  0  0  0  0  0  0  0  0
   -0.5610    4.7147   -0.7621 C   0  0  0  0  0  0  0  0  0  0  0  0
   -0.6136    3.6586   -1.7226 O   0  0  0  0  0  0  0  0  0  0  0  0
   -1.4072    2.6500   -1.2503 C   0  0  0  0  0  0  0  0  0  0  0  0
   -1.6830    1.6447   -1.8870 O   0  0  0  0  0  0  0  0  0  0  0  0
    0.4061    1.3271    0.6529 N   0  0  0  0  0  0  0  0  0  0  0  0
    1.4979    0.5683    0.4180 C   0  0  0  0  0  0  0  0  0  0  0  0
    2.9946    1.2556   -0.0182 S   0  0  0  0  0  0  0  0  0  0  0  0
    5.8555   -1.2096    1.4454 H   0  0  0  0  0  0  0  0  0  0  0  0
    7.1484   -0.4794    0.4778 H   0  0  0  0  0  0  0  0  0  0  0  0
    5.9897    0.5524    1.3338 H   0  0  0  0  0  0  0  0  0  0  0  0
    5.3668   -1.3249   -1.0137 H   0  0  0  0  0  0  0  0  0  0  0  0
    5.4981    0.4228   -1.1330 H   0  0  0  0  0  0  0  0  0  0  0  0
    3.1374   -2.3469    0.2220 H   0  0  0  0  0  0  0  0  0  0  0  0
   -2.7740   -0.8259    1.7589 H   0  0  0  0  0  0  0  0  0  0  0  0
   -1.7922   -2.2279    2.0388 H   0  0  0  0  0  0  0  0  0  0  0  0
   -1.9966   -4.1079    0.5994 H   0  0  0  0  0  0  0  0  0  0  0  0
   -2.9552   -5.1657   -1.4088 H   0  0  0  0  0  0  0  0  0  0  0  0
   -4.0941   -3.7850   -3.1278 H   0  0  0  0  0  0  0  0  0  0  0  0
   -4.2681   -1.3288   -2.8235 H   0  0  0  0  0  0  0  0  0  0  0  0
   -3.3348   -0.2544   -0.8254 H   0  0  0  0  0  0  0  0  0  0  0  0
   -2.9345    3.4479   -0.0471 H   0  0  0  0  0  0  0  0  0  0  0  0
   -0.1154    3.7338    1.0847 H   0  0  0  0  0  0  0  0  0  0  0  0
   -1.4686    4.8551    1.2074 H   0  0  0  0  0  0  0  0  0  0  0  0
    0.4559    5.1148   -0.7125 H   0  0  0  0  0  0  0  0  0  0  0  0
   -1.2361    5.5124   -1.0899 H   0  0  0  0  0  0  0  0  0  0  0  0
  1  2  1  0
  2  3  1  0
  3  4  2  0
  4  5  1  0
  5  6  1  0
  6  7  2  0
  6  8  1  0
  8  9  1  0
  9 10  1  0
 10 11  2  0
 11 12  1  0
 12 13  2  0
 13 14  1  0
 14 15  2  0
  8 16  1  0
 16 17  1  0
 17 18  1  0
 18 19  1  0
 19 20  1  0
 20 21  1  0
 21 22  1  0
 22 23  2  0
 16 24  2  0
 24 25  1  0
 25 26  1  0
 26  3  1  0
 25  5  2  0
 15 10  1  0
 22 18  1  0
  1 27  1  0
  1 28  1  0
  1 29  1  0
  2 30  1  0
  2 31  1  0
  4 32  1  0
  9 33  1  0
  9 34  1  0
 11 35  1  0
 12 36  1  0
 13 37  1  0
 14 38  1  0
 15 39  1  0
 18 40  1  0
 19 41  1  0
 19 42  1  0
 20 43  1  0
 20 44  1  0
M  END
$$$$
