
     RDKit          3D

 54 56  0  0  0  0  0  0  0  0999 V2000
    6.8786    1.1162   -1.3380 C   0  0  0  0  0  0  0  0  0  0  0  0
    5.8113    1.6056   -0.3638 C   0  0  0  0  0  0  0  0  0  0  0  0
    5.1714    0.5168    0.3880 N   0  0  0  0  0  0  0  0  0  0  0  0
    4.2528    1.0465    1.4263 C   0  0  0  0  0  0  0  0  0  0  0  0
    2.7472    0.9072    1.1063 C   0  0  0  0  0  0  0  0  0  0  0  0
    2.4004   -0.5087    0.8995 N   0  0  0  0  0  0  0  0  0  0  0  0
    1.0575   -0.7879    0.6675 C   0  0  0  0  0  0  0  0  0  0  0  0
    0.5971   -2.0891    0.6463 C   0  0  0  0  0  0  0  0  0  0  0  0
   -0.7482   -2.2869    0.4183 C   0  0  0  0  0  0  0  0  0  0  0  0
   -1.3667   -3.9660    0.3973 S   0  0  0  0  0  0  0  0  0  0  0  0
   -3.0541   -3.7375   -0.2916 C   0  0  0  0  0  0  0  0  0  0  0  0
   -4.0423   -3.3873    0.8194 C   0  0  0  0  0  0  0  0  0  0  0  0
   -3.4672   -5.0383   -0.9798 C   0  0  0  0  0  0  0  0  0  0  0  0
   -1.6101   -1.2804    0.2297 N   0  0  0  0  0  0  0  0  0  0  0  0
   -1.0977   -0.0424    0.2929 C   0  0  0  0  0  0  0  0  0  0  0  0
   -2.0221    1.0967    0.1159 C   0  0  0  0  0  0  0  0  0  0  0  0
   -3.3990    0.9030   -0.1108 C   0  0  0  0  0  0  0  0  0  0  0  0
   -4.2822    1.9814   -0.2724 C   0  0  0  0  0  0  0  0  0  0  0  0
   -3.8077    3.2893   -0.2121 C   0  0  0  0  0  0  0  0  0  0  0  0
   -4.5542    4.4263   -0.3491 O   0  0  0  0  0  0  0  0  0  0  0  0
   -5.9542    4.2575   -0.5380 C   0  0  0  0  0  0  0  0  0  0  0  0
   -2.4473    3.5055    0.0058 C   0  0  0  0  0  0  0  0  0  0  0  0
   -1.5690    2.4273    0.1682 C   0  0  0  0  0  0  0  0  0  0  0  0
    0.2020    0.2341    0.5089 N   0  0  0  0  0  0  0  0  0  0  0  0
    3.4252   -1.3259    0.2240 C   0  0  0  0  0  0  0  0  0  0  0  0
    4.4750   -0.4441   -0.4960 C   0  0  0  0  0  0  0  0  0  0  0  0
    7.6057    0.4675   -0.8351 H   0  0  0  0  0  0  0  0  0  0  0  0
    7.4246    1.9702   -1.7556 H   0  0  0  0  0  0  0  0  0  0  0  0
    6.4402    0.5631   -2.1754 H   0  0  0  0  0  0  0  0  0  0  0  0
    6.3112    2.2791    0.3440 H   0  0  0  0  0  0  0  0  0  0  0  0
    5.0659    2.2024   -0.9049 H   0  0  0  0  0  0  0  0  0  0  0  0
    4.4753    2.0941    1.6652 H   0  0  0  0  0  0  0  0  0  0  0  0
    4.4597    0.4830    2.3463 H   0  0  0  0  0  0  0  0  0  0  0  0
    2.5083    1.5025    0.2150 H   0  0  0  0  0  0  0  0  0  0  0  0
    2.1766    1.3121    1.9515 H   0  0  0  0  0  0  0  0  0  0  0  0
    1.2602   -2.9241    0.8262 H   0  0  0  0  0  0  0  0  0  0  0  0
   -3.0472   -2.9476   -1.0485 H   0  0  0  0  0  0  0  0  0  0  0  0
   -3.7642   -2.4663    1.3431 H   0  0  0  0  0  0  0  0  0  0  0  0
   -5.0418   -3.2275    0.3967 H   0  0  0  0  0  0  0  0  0  0  0  0
   -4.1273   -4.1903    1.5636 H   0  0  0  0  0  0  0  0  0  0  0  0
   -3.5157   -5.8770   -0.2759 H   0  0  0  0  0  0  0  0  0  0  0  0
   -4.4579   -4.9326   -1.4382 H   0  0  0  0  0  0  0  0  0  0  0  0
   -2.7645   -5.3041   -1.7798 H   0  0  0  0  0  0  0  0  0  0  0  0
   -3.8037   -0.1076   -0.1624 H   0  0  0  0  0  0  0  0  0  0  0  0
   -5.3316    1.7579   -0.4434 H   0  0  0  0  0  0  0  0  0  0  0  0
   -6.4114    3.7418    0.3129 H   0  0  0  0  0  0  0  0  0  0  0  0
   -6.1637    3.7347   -1.4766 H   0  0  0  0  0  0  0  0  0  0  0  0
   -6.4054    5.2524   -0.6045 H   0  0  0  0  0  0  0  0  0  0  0  0
   -2.0638    4.5215    0.0533 H   0  0  0  0  0  0  0  0  0  0  0  0
   -0.5154    2.6382    0.3391 H   0  0  0  0  0  0  0  0  0  0  0  0
    2.9891   -1.9959   -0.5269 H   0  0  0  0  0  0  0  0  0  0  0  0
    3.9219   -1.9526    0.9744 H   0  0  0  0  0  0  0  0  0  0  0  0
    3.9627    0.0915   -1.3073 H   0  0  0  0  0  0  0  0  0  0  0  0
    5.2159   -1.1054   -0.9593 H   0  0  0  0  0  0  0  0  0  0  0  0
  1  2  1  0
  2  3  1  0
  3  4  1  0
  4  5  1  0
  5  6  1  0
  6  7  1  0
  7  8  2  0
  8  9  1  0
  9 10  1  0
 10 11  1  0
 11 12  1  0
 11 13  1  0
  9 14  2  0
 14 15  1  0
 15 16  1  0
 16 17  2  0
 17 18  1  0
 18 19  2  0
 19 20  1  0
 20 21  1  0
 19 22  1  0
 22 23  2  0
 15 24  2  0
  6 25  1  0
 25 26  1  0
 26  3  1  0
 24  7  1  0
 23 16  1  0
  1 27  1  0
  1 28  1  0
  1 29  1  0
  2 30  1  0
  2 31  1  0
  4 32  1  0
  4 33  1  0
  5 34  1  0
  5 35  1  0
  8 36  1  0
 11 37  1  0
 12 38  1  0
 12 39  1  0
 12 40  1  0
 13 41  1  0
 13 42  1  0
 13 43  1  0
 17 44  1  0
 18 45  1  0
 21 46  1  0
 21 47  1  0
 21 48  1  0
 22 49  1  0
 23 50  1  0
 25 51  1  0
 25 52  1  0
 26 53  1  0
 26 54  1  0
M  END
$$$$
