
     RDKit          3D

 80 86  0  0  0  0  0  0  0  0999 V2000
   -5.2919   -1.9130    1.4324 C   0  0  0  0  0  0  0  0  0  0  0  0
   -3.9863   -1.2300    1.7170 C   0  0  0  0  0  0  0  0  0  0  0  0
   -3.7802   -0.5460    2.9416 C   0  0  0  0  0  0  0  0  0  0  0  0
   -4.9982   -0.4593    4.1739 Cl  0  0  0  0  0  0  0  0  0  0  0  0
   -2.5668    0.0974    3.2435 C   0  0  0  0  0  0  0  0  0  0  0  0
   -1.5173    0.0839    2.3372 C   0  0  0  0  0  0  0  0  0  0  0  0
   -1.7034   -0.5810    1.1336 C   0  0  0  0  0  0  0  0  0  0  0  0
   -2.9085   -1.2459    0.8185 C   0  0  0  0  0  0  0  0  0  0  0  0
   -2.7522   -1.8636   -0.4519 N   0  0  0  0  0  0  0  0  0  0  0  0
   -3.7174   -2.6434   -1.1885 C   0  0  0  0  0  0  0  0  0  0  0  0
   -4.7343   -1.8521   -1.9854 C   0  0  0  0  0  0  0  0  0  0  0  0
   -4.5558   -0.5038   -2.3291 C   0  0  0  0  0  0  0  0  0  0  0  0
   -5.5165    0.1732   -3.0844 C   0  0  0  0  0  0  0  0  0  0  0  0
   -6.6614   -0.4899   -3.5184 C   0  0  0  0  0  0  0  0  0  0  0  0
   -6.8461   -1.8330   -3.2017 C   0  0  0  0  0  0  0  0  0  0  0  0
   -5.8881   -2.5102   -2.4447 C   0  0  0  0  0  0  0  0  0  0  0  0
   -1.4705   -1.6273   -0.9942 C   0  0  0  0  0  0  0  0  0  0  0  0
   -1.0370   -2.0637   -2.0539 O   0  0  0  0  0  0  0  0  0  0  0  0
   -0.7255   -0.7397    0.0116 C   0  0  1  0  0  0  0  0  0  0  0  0
   -0.3850    0.5948   -0.5493 C   0  0  0  0  0  0  0  0  0  0  0  0
    0.9969    0.6883   -0.7725 C   0  0  0  0  0  0  0  0  0  0  0  0
    1.2839    1.9130   -1.3039 C   0  0  0  0  0  0  0  0  0  0  0  0
    2.4563    2.3572   -1.7529 O   0  0  0  0  0  0  0  0  0  0  0  0
    0.0656    2.6161   -1.3854 N   0  0  0  0  0  0  0  0  0  0  0  0
   -0.0972    3.9438   -1.8779 C   0  0  0  0  0  0  0  0  0  0  0  0
    0.8482    4.9294   -1.5647 C   0  0  0  0  0  0  0  0  0  0  0  0
    0.6844    6.2285   -2.0483 C   0  0  0  0  0  0  0  0  0  0  0  0
   -0.4153    6.5457   -2.8449 C   0  0  0  0  0  0  0  0  0  0  0  0
   -1.3563    5.5663   -3.1600 C   0  0  0  0  0  0  0  0  0  0  0  0
   -1.2020    4.2655   -2.6778 C   0  0  0  0  0  0  0  0  0  0  0  0
   -0.9660    1.7810   -0.9106 C   0  0  0  0  0  0  0  0  0  0  0  0
   -2.2422    2.1436   -0.7885 O   0  0  0  0  0  0  0  0  0  0  0  0
    1.6632   -0.5871   -0.4451 C   0  0  1  0  0  0  0  0  0  0  0  0
    2.9616   -0.5329    0.3596 C   0  0  0  0  0  0  0  0  0  0  0  0
    3.2577   -1.8212    1.0213 N   0  0  0  0  0  0  0  0  0  0  0  0
    4.4175   -2.0196    1.7418 C   0  0  0  0  0  0  0  0  0  0  0  0
    4.7512   -3.1018    2.2065 O   0  0  0  0  0  0  0  0  0  0  0  0
    5.1356   -0.8737    1.8652 O   0  0  0  0  0  0  0  0  0  0  0  0
    6.3965   -0.8525    2.5808 C   0  0  0  0  0  0  0  0  0  0  0  0
    7.4386   -1.7473    1.9008 C   0  0  0  0  0  0  0  0  0  0  0  0
    6.8696    0.6064    2.4877 C   0  0  0  0  0  0  0  0  0  0  0  0
    6.2068   -1.2115    4.0586 C   0  0  0  0  0  0  0  0  0  0  0  0
    2.3866   -2.9622    0.7120 C   0  0  0  0  0  0  0  0  0  0  0  0
    0.8702   -2.6183    0.6948 C   0  0  0  0  0  0  0  0  0  0  0  0
    0.6176   -1.2201    0.4029 N   0  0  0  0  0  0  0  0  0  0  0  0
   -5.7093   -1.5611    0.4880 H   0  0  0  0  0  0  0  0  0  0  0  0
   -5.1554   -2.9978    1.4145 H   0  0  0  0  0  0  0  0  0  0  0  0
   -6.0669   -1.7105    2.1749 H   0  0  0  0  0  0  0  0  0  0  0  0
   -2.4404    0.6109    4.1940 H   0  0  0  0  0  0  0  0  0  0  0  0
   -0.5756    0.5762    2.5619 H   0  0  0  0  0  0  0  0  0  0  0  0
   -3.1773   -3.2738   -1.9067 H   0  0  0  0  0  0  0  0  0  0  0  0
   -4.2103   -3.3361   -0.5015 H   0  0  0  0  0  0  0  0  0  0  0  0
   -3.6697    0.0417   -2.0138 H   0  0  0  0  0  0  0  0  0  0  0  0
   -5.3645    1.2195   -3.3361 H   0  0  0  0  0  0  0  0  0  0  0  0
   -7.4053    0.0381   -4.1090 H   0  0  0  0  0  0  0  0  0  0  0  0
   -7.7340   -2.3553   -3.5481 H   0  0  0  0  0  0  0  0  0  0  0  0
   -6.0479   -3.5617   -2.2147 H   0  0  0  0  0  0  0  0  0  0  0  0
    2.2977    3.0614   -2.4078 H   0  0  0  0  0  0  0  0  0  0  0  0
    1.6923    4.7190   -0.9100 H   0  0  0  0  0  0  0  0  0  0  0  0
    1.4103    6.9982   -1.7960 H   0  0  0  0  0  0  0  0  0  0  0  0
   -0.5386    7.5583   -3.2221 H   0  0  0  0  0  0  0  0  0  0  0  0
   -2.2056    5.8143   -3.7926 H   0  0  0  0  0  0  0  0  0  0  0  0
   -1.9259    3.5093   -2.9771 H   0  0  0  0  0  0  0  0  0  0  0  0
   -2.2911    3.1149   -0.7315 H   0  0  0  0  0  0  0  0  0  0  0  0
    1.8024   -1.1686   -1.3667 H   0  0  0  0  0  0  0  0  0  0  0  0
    2.9151    0.2335    1.1440 H   0  0  0  0  0  0  0  0  0  0  0  0
    3.8044   -0.2769   -0.2937 H   0  0  0  0  0  0  0  0  0  0  0  0
    7.1930   -2.8092    1.9978 H   0  0  0  0  0  0  0  0  0  0  0  0
    8.4336   -1.6011    2.3352 H   0  0  0  0  0  0  0  0  0  0  0  0
    7.4923   -1.5339    0.8270 H   0  0  0  0  0  0  0  0  0  0  0  0
    7.8281    0.7571    2.9957 H   0  0  0  0  0  0  0  0  0  0  0  0
    6.9802    0.9138    1.4409 H   0  0  0  0  0  0  0  0  0  0  0  0
    6.1315    1.2847    2.9318 H   0  0  0  0  0  0  0  0  0  0  0  0
    5.9369   -2.2630    4.1933 H   0  0  0  0  0  0  0  0  0  0  0  0
    5.3972   -0.6205    4.5014 H   0  0  0  0  0  0  0  0  0  0  0  0
    7.1228   -1.0336    4.6324 H   0  0  0  0  0  0  0  0  0  0  0  0
    2.6897   -3.3090   -0.2839 H   0  0  0  0  0  0  0  0  0  0  0  0
    2.5684   -3.7876    1.4088 H   0  0  0  0  0  0  0  0  0  0  0  0
    0.4515   -2.8445    1.6820 H   0  0  0  0  0  0  0  0  0  0  0  0
    0.3840   -3.2907   -0.0198 H   0  0  0  0  0  0  0  0  0  0  0  0
  1  2  1  0
  2  3  2  0
  3  4  1  0
  3  5  1  0
  5  6  2  0
  6  7  1  0
  7  8  2  0
  8  9  1  0
  9 10  1  0
 10 11  1  0
 11 12  2  0
 12 13  1  0
 13 14  2  0
 14 15  1  0
 15 16  2  0
  9 17  1  0
 17 18  2  0
 17 19  1  0
 19 20  1  0
 20 21  1  0
 21 22  2  0
 22 23  1  0
 22 24  1  0
 24 25  1  0
 25 26  2  0
 26 27  1  0
 27 28  2  0
 28 29  1  0
 29 30  2  0
 24 31  1  0
 31 32  1  0
 21 33  1  0
 33 34  1  0
 34 35  1  0
 35 36  1  0
 36 37  2  0
 36 38  1  0
 38 39  1  0
 39 40  1  0
 39 41  1  0
 39 42  1  0
 35 43  1  0
 43 44  1  0
 44 45  1  0
  8  2  1  0
 16 11  1  0
 19 45  1  1
 19  7  1  0
 31 20  2  0
 45 33  1  0
 30 25  1  0
  1 46  1  0
  1 47  1  0
  1 48  1  0
  5 49  1  0
  6 50  1  0
 10 51  1  0
 10 52  1  0
 12 53  1  0
 13 54  1  0
 14 55  1  0
 15 56  1  0
 16 57  1  0
 23 58  1  0
 26 59  1  0
 27 60  1  0
 28 61  1  0
 29 62  1  0
 30 63  1  0
 32 64  1  0
 33 65  1  6
 34 66  1  0
 34 67  1  0
 40 68  1  0
 40 69  1  0
 40 70  1  0
 41 71  1  0
 41 72  1  0
 41 73  1  0
 42 74  1  0
 42 75  1  0
 42 76  1  0
 43 77  1  0
 43 78  1  0
 44 79  1  0
 44 80  1  0
M  END
$$$$
