
     RDKit          3D

 66 68  0  0  0  0  0  0  0  0999 V2000
    4.1466   -0.1582   -2.8178 C   0  0  0  0  0  0  0  0  0  0  0  0
    3.2727    0.3848   -3.9403 C   0  0  0  0  0  0  0  0  0  0  0  0
    2.0477    1.1235   -3.4121 C   0  0  0  0  0  0  0  0  0  0  0  0
    1.2080    0.2111   -2.7232 O   0  0  0  0  0  0  0  0  0  0  0  0
    0.1433    0.8189   -1.6537 P   0  0  0  0  0  5  0  0  0  0  0  0
   -0.4821    2.0751   -2.2187 O   0  0  0  0  0  0  0  0  0  0  0  0
    1.0669    1.0290   -0.1541 C   0  0  0  0  0  0  0  0  0  0  0  0
    1.9268    0.0412    0.3238 C   0  0  0  0  0  0  0  0  0  0  0  0
    2.6413    0.2260    1.5169 C   0  0  0  0  0  0  0  0  0  0  0  0
    2.5270    1.3939    2.2910 C   0  0  0  0  0  0  0  0  0  0  0  0
    3.2544    1.5774    3.4731 N   0  0  0  0  0  0  0  0  0  0  0  0
    2.8990    2.6810    4.3632 C   0  0  0  0  0  0  0  0  0  0  0  0
    3.8655    0.4158    4.1168 C   0  0  0  0  0  0  0  0  0  0  0  0
    1.6699    2.3828    1.7767 C   0  0  0  0  0  0  0  0  0  0  0  0
    0.9514    2.2064    0.5843 C   0  0  0  0  0  0  0  0  0  0  0  0
   -1.1253   -0.5252   -1.4732 C   0  0  0  0  0  0  0  0  0  0  0  0
   -0.5095   -1.8012   -1.0435 N   0  0  0  0  0  0  0  0  0  0  0  0
   -0.0583   -2.7697   -1.9399 C   0  0  0  0  0  0  0  0  0  0  0  0
    0.1164   -2.5755   -3.3117 C   0  0  0  0  0  0  0  0  0  0  0  0
    0.6461   -3.5831   -4.1271 C   0  0  0  0  0  0  0  0  0  0  0  0
    1.0318   -4.8014   -3.5789 C   0  0  0  0  0  0  0  0  0  0  0  0
    0.8949   -5.0081   -2.2121 C   0  0  0  0  0  0  0  0  0  0  0  0
    0.3644   -3.9974   -1.4053 C   0  0  0  0  0  0  0  0  0  0  0  0
   -2.2353   -0.1552   -0.4901 C   0  0  0  0  0  0  0  0  0  0  0  0
   -3.4983    0.2142   -0.9579 C   0  0  0  0  0  0  0  0  0  0  0  0
   -4.5203    0.5707   -0.0631 C   0  0  0  0  0  0  0  0  0  0  0  0
   -4.3316    0.5868    1.3304 C   0  0  0  0  0  0  0  0  0  0  0  0
   -5.3638    0.9295    2.2110 N   0  0  0  0  0  0  0  0  0  0  0  0
   -6.4499    1.7726    1.7132 C   0  0  0  0  0  0  0  0  0  0  0  0
   -5.0804    1.0331    3.6408 C   0  0  0  0  0  0  0  0  0  0  0  0
   -3.0568    0.2024    1.7771 C   0  0  0  0  0  0  0  0  0  0  0  0
   -2.0257   -0.1491    0.8928 C   0  0  0  0  0  0  0  0  0  0  0  0
    4.4699    0.6469   -2.1509 H   0  0  0  0  0  0  0  0  0  0  0  0
    3.6078   -0.9059   -2.2267 H   0  0  0  0  0  0  0  0  0  0  0  0
    5.0394   -0.6399   -3.2309 H   0  0  0  0  0  0  0  0  0  0  0  0
    2.9563   -0.4585   -4.5646 H   0  0  0  0  0  0  0  0  0  0  0  0
    3.8644    1.0610   -4.5671 H   0  0  0  0  0  0  0  0  0  0  0  0
    1.4789    1.5372   -4.2488 H   0  0  0  0  0  0  0  0  0  0  0  0
    2.3443    1.9456   -2.7532 H   0  0  0  0  0  0  0  0  0  0  0  0
    2.0506   -0.8860   -0.2336 H   0  0  0  0  0  0  0  0  0  0  0  0
    3.3019   -0.5823    1.8172 H   0  0  0  0  0  0  0  0  0  0  0  0
    3.5555    2.7111    5.2415 H   0  0  0  0  0  0  0  0  0  0  0  0
    1.8699    2.5812    4.7231 H   0  0  0  0  0  0  0  0  0  0  0  0
    3.0211    3.6493    3.8660 H   0  0  0  0  0  0  0  0  0  0  0  0
    3.1073   -0.3307    4.3788 H   0  0  0  0  0  0  0  0  0  0  0  0
    4.3860    0.6979    5.0391 H   0  0  0  0  0  0  0  0  0  0  0  0
    4.6250   -0.0409    3.4722 H   0  0  0  0  0  0  0  0  0  0  0  0
    1.5355    3.3305    2.2888 H   0  0  0  0  0  0  0  0  0  0  0  0
    0.2974    3.0024    0.2307 H   0  0  0  0  0  0  0  0  0  0  0  0
   -1.5902   -0.6484   -2.4585 H   0  0  0  0  0  0  0  0  0  0  0  0
   -1.0391   -2.2455   -0.2957 H   0  0  0  0  0  0  0  0  0  0  0  0
   -0.1508   -1.6405   -3.7919 H   0  0  0  0  0  0  0  0  0  0  0  0
    0.7633   -3.4048   -5.1915 H   0  0  0  0  0  0  0  0  0  0  0  0
    1.4489   -5.5808   -4.2107 H   0  0  0  0  0  0  0  0  0  0  0  0
    1.2076   -5.9495   -1.7693 H   0  0  0  0  0  0  0  0  0  0  0  0
    0.2890   -4.1729   -0.3344 H   0  0  0  0  0  0  0  0  0  0  0  0
   -3.7114    0.2324   -2.0254 H   0  0  0  0  0  0  0  0  0  0  0  0
   -5.4836    0.8273   -0.4961 H   0  0  0  0  0  0  0  0  0  0  0  0
   -7.0652    1.2318    0.9860 H   0  0  0  0  0  0  0  0  0  0  0  0
   -6.0613    2.6893    1.2577 H   0  0  0  0  0  0  0  0  0  0  0  0
   -7.1303    2.0716    2.5195 H   0  0  0  0  0  0  0  0  0  0  0  0
   -4.7124    0.0782    4.0386 H   0  0  0  0  0  0  0  0  0  0  0  0
   -5.9890    1.2686    4.2090 H   0  0  0  0  0  0  0  0  0  0  0  0
   -4.3463    1.8219    3.8434 H   0  0  0  0  0  0  0  0  0  0  0  0
   -2.8190    0.1722    2.8363 H   0  0  0  0  0  0  0  0  0  0  0  0
   -1.0585   -0.4218    1.3126 H   0  0  0  0  0  0  0  0  0  0  0  0
  1  2  1  0
  2  3  1  0
  3  4  1  0
  4  5  1  0
  5  6  2  0
  5  7  1  0
  7  8  2  0
  8  9  1  0
  9 10  2  0
 10 11  1  0
 11 12  1  0
 11 13  1  0
 10 14  1  0
 14 15  2  0
  5 16  1  0
 16 17  1  0
 17 18  1  0
 18 19  2  0
 19 20  1  0
 20 21  2  0
 21 22  1  0
 22 23  2  0
 16 24  1  0
 24 25  2  0
 25 26  1  0
 26 27  2  0
 27 28  1  0
 28 29  1  0
 28 30  1  0
 27 31  1  0
 31 32  2  0
 15  7  1  0
 23 18  1  0
 32 24  1  0
  1 33  1  0
  1 34  1  0
  1 35  1  0
  2 36  1  0
  2 37  1  0
  3 38  1  0
  3 39  1  0
  8 40  1  0
  9 41  1  0
 12 42  1  0
 12 43  1  0
 12 44  1  0
 13 45  1  0
 13 46  1  0
 13 47  1  0
 14 48  1  0
 15 49  1  0
 16 50  1  0
 17 51  1  0
 19 52  1  0
 20 53  1  0
 21 54  1  0
 22 55  1  0
 23 56  1  0
 25 57  1  0
 26 58  1  0
 29 59  1  0
 29 60  1  0
 29 61  1  0
 30 62  1  0
 30 63  1  0
 30 64  1  0
 31 65  1  0
 32 66  1  0
M  END
$$$$
