
     RDKit          3D

 48 50  0  0  0  0  0  0  0  0999 V2000
    2.9113    0.6210    1.6098 C   0  0  0  0  0  0  0  0  0  0  0  0
    1.6306    1.0178    1.5513 C   0  0  0  0  0  0  0  0  0  0  0  0
    1.0634    2.1609    2.2794 C   0  0  0  0  0  0  0  0  0  0  0  0
    1.7678    3.0215    3.2552 C   0  0  0  0  0  0  0  0  0  0  0  0
    2.9124    2.8563    3.6472 O   0  0  0  0  0  0  0  0  0  0  0  0
    0.9520    4.0369    3.6662 O   0  0  0  0  0  0  0  0  0  0  0  0
    1.5619    4.9198    4.6121 C   0  0  0  0  0  0  0  0  0  0  0  0
   -0.2217    2.2902    1.8939 C   0  0  0  0  0  0  0  0  0  0  0  0
   -1.1545    3.2107    2.2870 O   0  0  0  0  0  0  0  0  0  0  0  0
   -0.5806    1.2430    0.9344 C   0  0  0  0  0  0  0  0  0  0  0  0
   -1.8318    1.1445    0.4445 C   0  0  0  0  0  0  0  0  0  0  0  0
   -2.3791    0.1146   -0.4426 C   0  0  0  0  0  0  0  0  0  0  0  0
   -2.4362   -1.2279   -0.0486 C   0  0  0  0  0  0  0  0  0  0  0  0
   -2.9656   -2.1952   -0.9065 C   0  0  0  0  0  0  0  0  0  0  0  0
   -3.4539   -1.8109   -2.1511 C   0  0  0  0  0  0  0  0  0  0  0  0
   -3.9746   -2.7226   -3.0214 O   0  0  0  0  0  0  0  0  0  0  0  0
   -3.4286   -0.4790   -2.5467 C   0  0  0  0  0  0  0  0  0  0  0  0
   -2.8957    0.4860   -1.6901 C   0  0  0  0  0  0  0  0  0  0  0  0
    0.5876    0.4833    0.7664 N   0  0  0  0  0  0  0  0  0  0  0  0
    0.7985   -0.4993   -0.2369 C   0  0  0  0  0  0  0  0  0  0  0  0
    0.6562   -0.1903   -1.5972 C   0  0  0  0  0  0  0  0  0  0  0  0
    0.8333   -1.1681   -2.5848 C   0  0  0  0  0  0  0  0  0  0  0  0
    0.6694   -0.8167   -4.0333 C   0  0  0  0  0  0  0  0  0  0  0  0
    1.2051   -2.4632   -2.2046 C   0  0  0  0  0  0  0  0  0  0  0  0
    1.3824   -2.7909   -0.8553 C   0  0  0  0  0  0  0  0  0  0  0  0
    1.7368   -4.1911   -0.4527 C   0  0  0  0  0  0  0  0  0  0  0  0
    1.1631   -1.8081    0.1186 C   0  0  0  0  0  0  0  0  0  0  0  0
    3.6524    1.1104    2.2312 H   0  0  0  0  0  0  0  0  0  0  0  0
    3.2753   -0.2114    1.0179 H   0  0  0  0  0  0  0  0  0  0  0  0
    1.8313    4.3773    5.5237 H   0  0  0  0  0  0  0  0  0  0  0  0
    0.8324    5.6919    4.8715 H   0  0  0  0  0  0  0  0  0  0  0  0
    2.4390    5.4053    4.1729 H   0  0  0  0  0  0  0  0  0  0  0  0
   -0.7173    3.8176    2.9157 H   0  0  0  0  0  0  0  0  0  0  0  0
   -2.5717    1.8904    0.7315 H   0  0  0  0  0  0  0  0  0  0  0  0
   -2.0521   -1.5291    0.9230 H   0  0  0  0  0  0  0  0  0  0  0  0
   -2.9821   -3.2319   -0.5878 H   0  0  0  0  0  0  0  0  0  0  0  0
   -3.8963   -3.6040   -2.6215 H   0  0  0  0  0  0  0  0  0  0  0  0
   -3.8181   -0.1928   -3.5189 H   0  0  0  0  0  0  0  0  0  0  0  0
   -2.8739    1.5253   -2.0083 H   0  0  0  0  0  0  0  0  0  0  0  0
    0.3899    0.8239   -1.8857 H   0  0  0  0  0  0  0  0  0  0  0  0
    1.6225   -0.4708   -4.4446 H   0  0  0  0  0  0  0  0  0  0  0  0
   -0.0795   -0.0280   -4.1616 H   0  0  0  0  0  0  0  0  0  0  0  0
    0.3282   -1.6833   -4.6094 H   0  0  0  0  0  0  0  0  0  0  0  0
    1.3536   -3.2244   -2.9681 H   0  0  0  0  0  0  0  0  0  0  0  0
    2.3226   -4.1950    0.4725 H   0  0  0  0  0  0  0  0  0  0  0  0
    0.8258   -4.7774   -0.2975 H   0  0  0  0  0  0  0  0  0  0  0  0
    2.3442   -4.6776   -1.2231 H   0  0  0  0  0  0  0  0  0  0  0  0
    1.2641   -2.0596    1.1721 H   0  0  0  0  0  0  0  0  0  0  0  0
  1  2  2  0
  2  3  1  0
  3  4  1  0
  4  5  2  0
  4  6  1  0
  6  7  1  0
  3  8  2  0
  8  9  1  0
  8 10  1  0
 10 11  2  3
 11 12  1  0
 12 13  2  0
 13 14  1  0
 14 15  2  0
 15 16  1  0
 15 17  1  0
 17 18  2  0
 10 19  1  0
 19 20  1  0
 20 21  2  0
 21 22  1  0
 22 23  1  0
 22 24  2  0
 24 25  1  0
 25 26  1  0
 25 27  2  0
 19  2  1  0
 27 20  1  0
 18 12  1  0
  1 28  1  0
  1 29  1  0
  7 30  1  0
  7 31  1  0
  7 32  1  0
  9 33  1  0
 11 34  1  0
 13 35  1  0
 14 36  1  0
 16 37  1  0
 17 38  1  0
 18 39  1  0
 21 40  1  0
 23 41  1  0
 23 42  1  0
 23 43  1  0
 24 44  1  0
 26 45  1  0
 26 46  1  0
 26 47  1  0
 27 48  1  0
M  END
$$$$
