
     RDKit          3D

 42 43  0  0  0  0  0  0  0  0999 V2000
   -2.1873    3.7062   -1.2504 C   0  0  0  0  0  0  0  0  0  0  0  0
   -2.2731    2.2717   -0.8195 C   0  0  0  0  0  0  0  0  0  0  0  0
   -2.1288    1.2352   -1.7481 C   0  0  0  0  0  0  0  0  0  0  0  0
   -2.2071   -0.1028   -1.3437 C   0  0  0  0  0  0  0  0  0  0  0  0
   -2.4236   -0.4166   -0.0024 C   0  0  0  0  0  0  0  0  0  0  0  0
   -2.5723   -1.6799    0.5023 O   0  0  0  0  0  0  0  0  0  0  0  0
   -1.8342   -2.7136   -0.1378 C   0  0  0  0  0  0  0  0  0  0  0  0
   -0.3391   -2.6077    0.1453 C   0  0  0  0  0  0  0  0  0  0  0  0
    0.5085   -2.5637   -0.7461 O   0  0  0  0  0  0  0  0  0  0  0  0
   -0.0507   -2.5937    1.4997 N   0  0  0  0  0  0  0  0  0  0  0  0
    1.2540   -2.2576    1.9233 N   0  0  0  0  0  0  0  0  0  0  0  0
    1.3359   -1.5228    3.0977 C   0  0  0  0  0  0  0  0  0  0  0  0
    0.3500   -1.3240    3.8097 O   0  0  0  0  0  0  0  0  0  0  0  0
    2.7212   -0.9981    3.4309 C   0  0  0  0  0  0  0  0  0  0  0  0
    2.8042    0.8057    3.2057 S   0  0  0  0  0  0  0  0  0  0  0  0
    2.4805    0.8899    1.4675 C   0  0  0  0  0  0  0  0  0  0  0  0
    1.8199    1.9599    1.0106 N   0  0  0  0  0  0  0  0  0  0  0  0
    1.4980    1.9405   -0.2978 C   0  0  0  0  0  0  0  0  0  0  0  0
    1.8222    0.9091   -1.1518 C   0  0  0  0  0  0  0  0  0  0  0  0
    1.4175    0.9390   -2.5150 C   0  0  0  0  0  0  0  0  0  0  0  0
    1.0927    0.9641   -3.6293 N   0  0  0  0  0  0  0  0  0  0  0  0
    2.5512   -0.1264   -0.5973 C   0  0  0  0  0  0  0  0  0  0  0  0
    2.8711   -1.2987   -1.2884 N   0  0  0  0  0  0  0  0  0  0  0  0
    2.8606   -0.1520    0.7103 N   0  0  0  0  0  0  0  0  0  0  0  0
   -2.5568    0.6144    0.9284 C   0  0  0  0  0  0  0  0  0  0  0  0
   -2.4682    1.9498    0.5271 C   0  0  0  0  0  0  0  0  0  0  0  0
   -2.8974    4.3214   -0.6876 H   0  0  0  0  0  0  0  0  0  0  0  0
   -2.4340    3.8145   -2.3118 H   0  0  0  0  0  0  0  0  0  0  0  0
   -1.1762    4.0895   -1.0854 H   0  0  0  0  0  0  0  0  0  0  0  0
   -1.9717    1.4598   -2.8024 H   0  0  0  0  0  0  0  0  0  0  0  0
   -2.1277   -0.8664   -2.1104 H   0  0  0  0  0  0  0  0  0  0  0  0
   -2.1776   -3.6666    0.2822 H   0  0  0  0  0  0  0  0  0  0  0  0
   -2.0260   -2.7718   -1.2132 H   0  0  0  0  0  0  0  0  0  0  0  0
   -0.7901   -2.3152    2.1522 H   0  0  0  0  0  0  0  0  0  0  0  0
    1.9409   -2.0816    1.1817 H   0  0  0  0  0  0  0  0  0  0  0  0
    3.4921   -1.5029    2.8400 H   0  0  0  0  0  0  0  0  0  0  0  0
    2.9228   -1.2323    4.4812 H   0  0  0  0  0  0  0  0  0  0  0  0
    0.9403    2.8087   -0.6392 H   0  0  0  0  0  0  0  0  0  0  0  0
    3.2325   -1.1253   -2.2220 H   0  0  0  0  0  0  0  0  0  0  0  0
    2.0226   -1.8769   -1.3821 H   0  0  0  0  0  0  0  0  0  0  0  0
   -2.7292    0.3817    1.9769 H   0  0  0  0  0  0  0  0  0  0  0  0
   -2.5678    2.7354    1.2736 H   0  0  0  0  0  0  0  0  0  0  0  0
  1  2  1  0
  2  3  2  0
  3  4  1  0
  4  5  2  0
  5  6  1  0
  6  7  1  0
  7  8  1  0
  8  9  2  0
  8 10  1  0
 10 11  1  0
 11 12  1  0
 12 13  2  0
 12 14  1  0
 14 15  1  0
 15 16  1  0
 16 17  2  0
 17 18  1  0
 18 19  2  0
 19 20  1  0
 20 21  3  0
 19 22  1  0
 22 23  1  0
 22 24  2  0
  5 25  1  0
 25 26  2  0
 26  2  1  0
 24 16  1  0
  1 27  1  0
  1 28  1  0
  1 29  1  0
  3 30  1  0
  4 31  1  0
  7 32  1  0
  7 33  1  0
 10 34  1  0
 11 35  1  0
 14 36  1  0
 14 37  1  0
 18 38  1  0
 23 39  1  0
 23 40  1  0
 25 41  1  0
 26 42  1  0
M  END
$$$$
