
     RDKit          3D

 44 47  0  0  0  0  0  0  0  0999 V2000
    3.6455   -0.2342    2.2465 C   0  0  0  0  0  0  0  0  0  0  0  0
    3.0159   -0.0846    0.8506 C   0  0  0  0  0  0  0  0  0  0  0  0
    3.1596   -1.4269    0.1147 C   0  0  0  0  0  0  0  0  0  0  0  0
    1.5486    0.3498    1.0145 C   0  0  0  0  0  0  0  0  0  0  0  0
    0.9300    0.8057   -0.3216 C   0  0  0  0  0  0  0  0  0  0  0  0
   -0.3764    1.5865   -0.1205 C   0  0  0  0  0  0  0  0  0  0  0  0
   -1.4578    0.7046    0.5132 C   0  0  0  0  0  0  0  0  0  0  0  0
   -2.7910    1.4261    0.4607 C   0  0  0  0  0  0  0  0  0  0  0  0
   -3.6045    1.6758   -0.6305 C   0  0  0  0  0  0  0  0  0  0  0  0
   -4.7851    2.3902   -0.2780 C   0  0  0  0  0  0  0  0  0  0  0  0
   -4.8356    2.6695    1.0685 C   0  0  0  0  0  0  0  0  0  0  0  0
   -3.4670    2.0739    1.8999 S   0  0  0  0  0  0  0  0  0  0  0  0
   -1.4732   -0.6593   -0.1492 C   0  0  0  0  0  0  0  0  0  0  0  0
   -2.5243   -1.5667    0.0779 C   0  0  0  0  0  0  0  0  0  0  0  0
   -2.5324   -2.8201   -0.5398 C   0  0  0  0  0  0  0  0  0  0  0  0
   -3.8577   -3.8819   -0.2363 Cl  0  0  0  0  0  0  0  0  0  0  0  0
   -1.4820   -3.1864   -1.3825 C   0  0  0  0  0  0  0  0  0  0  0  0
   -1.4883   -4.4089   -1.9955 O   0  0  0  0  0  0  0  0  0  0  0  0
   -0.4194   -2.3107   -1.5927 C   0  0  0  0  0  0  0  0  0  0  0  0
   -0.4075   -1.0640   -0.9606 C   0  0  0  0  0  0  0  0  0  0  0  0
    0.6994   -0.2985   -1.2029 O   0  0  0  0  0  0  0  0  0  0  0  0
    1.8600    1.6746   -1.0276 N   0  0  0  0  0  0  0  0  0  0  0  0
    3.2040    1.6614   -0.8987 C   0  0  0  0  0  0  0  0  0  0  0  0
    4.1701    2.5307   -1.9306 S   0  0  0  0  0  0  0  0  0  0  0  0
    3.7376    0.9498    0.1205 N   0  0  0  0  0  0  0  0  0  0  0  0
    3.1261   -0.9974    2.8366 H   0  0  0  0  0  0  0  0  0  0  0  0
    3.6055    0.7095    2.8028 H   0  0  0  0  0  0  0  0  0  0  0  0
    4.7017   -0.5202    2.1778 H   0  0  0  0  0  0  0  0  0  0  0  0
    2.5406   -2.2028    0.5778 H   0  0  0  0  0  0  0  0  0  0  0  0
    2.8910   -1.3557   -0.9432 H   0  0  0  0  0  0  0  0  0  0  0  0
    4.2002   -1.7730    0.1380 H   0  0  0  0  0  0  0  0  0  0  0  0
    1.5100    1.1944    1.7172 H   0  0  0  0  0  0  0  0  0  0  0  0
    0.9784   -0.4696    1.4674 H   0  0  0  0  0  0  0  0  0  0  0  0
   -0.2087    2.4836    0.4906 H   0  0  0  0  0  0  0  0  0  0  0  0
   -0.7247    1.9470   -1.1004 H   0  0  0  0  0  0  0  0  0  0  0  0
   -1.1875    0.5288    1.5639 H   0  0  0  0  0  0  0  0  0  0  0  0
   -3.3671    1.3552   -1.6386 H   0  0  0  0  0  0  0  0  0  0  0  0
   -5.5587    2.6841   -0.9771 H   0  0  0  0  0  0  0  0  0  0  0  0
   -5.6117    3.1966    1.6064 H   0  0  0  0  0  0  0  0  0  0  0  0
   -3.3504   -1.2946    0.7328 H   0  0  0  0  0  0  0  0  0  0  0  0
   -0.7069   -4.4900   -2.5663 H   0  0  0  0  0  0  0  0  0  0  0  0
    0.4147   -2.5848   -2.2322 H   0  0  0  0  0  0  0  0  0  0  0  0
    1.5266    2.1109   -1.8775 H   0  0  0  0  0  0  0  0  0  0  0  0
    4.7521    0.9217    0.1241 H   0  0  0  0  0  0  0  0  0  0  0  0
  1  2  1  0
  2  3  1  0
  2  4  1  0
  4  5  1  0
  5  6  1  0
  6  7  1  0
  7  8  1  0
  8  9  2  0
  9 10  1  0
 10 11  2  0
 11 12  1  0
  7 13  1  0
 13 14  2  0
 14 15  1  0
 15 16  1  0
 15 17  2  0
 17 18  1  0
 17 19  1  0
 19 20  2  0
 20 21  1  0
  5 22  1  0
 22 23  1  0
 23 24  2  0
 23 25  1  0
 25  2  1  0
 21  5  1  0
 12  8  1  0
 20 13  1  0
  1 26  1  0
  1 27  1  0
  1 28  1  0
  3 29  1  0
  3 30  1  0
  3 31  1  0
  4 32  1  0
  4 33  1  0
  6 34  1  0
  6 35  1  0
  7 36  1  0
  9 37  1  0
 10 38  1  0
 11 39  1  0
 14 40  1  0
 18 41  1  0
 19 42  1  0
 22 43  1  0
 25 44  1  0
M  END
$$$$
