
     RDKit          3D

 58 61  0  0  0  0  0  0  0  0999 V2000
    0.1683   -2.6935   -0.2072 O   0  0  0  0  0  0  0  0  0  0  0  0
   -0.3523   -1.8051    0.4637 C   0  0  0  0  0  0  0  0  0  0  0  0
    0.4854   -0.9700    1.4425 C   0  0  0  0  0  0  0  0  0  0  0  0
    0.7430    0.3788    0.8885 N   0  0  0  0  0  0  0  0  0  0  0  0
    1.5917    0.3338   -0.3276 C   0  0  0  0  0  0  0  0  0  0  0  0
    3.0606   -0.0780   -0.0857 C   0  0  0  0  0  0  0  0  0  0  0  0
    3.6993    0.8385    0.9170 N   0  0  0  0  0  0  0  0  0  0  0  0
    5.3493    0.4794    1.2554 S   0  0  0  0  0  6  0  0  0  0  0  0
    5.3877   -0.9247    1.6050 O   0  0  0  0  0  0  0  0  0  0  0  0
    5.8335    1.4955    2.1671 O   0  0  0  0  0  0  0  0  0  0  0  0
    6.1570    0.7486   -0.2850 C   0  0  0  0  0  0  0  0  0  0  0  0
    5.8913    1.9211   -1.0058 C   0  0  0  0  0  0  0  0  0  0  0  0
    6.5221    2.1337   -2.2330 C   0  0  0  0  0  0  0  0  0  0  0  0
    7.4153    1.1834   -2.7332 C   0  0  0  0  0  0  0  0  0  0  0  0
    7.6858    0.0250   -2.0010 C   0  0  0  0  0  0  0  0  0  0  0  0
    7.0568   -0.1878   -0.7764 C   0  0  0  0  0  0  0  0  0  0  0  0
    7.3686   -1.2957   -0.0899 F   0  0  0  0  0  0  0  0  0  0  0  0
    2.8862    0.8952    2.1794 C   0  0  0  0  0  0  0  0  0  0  0  0
    1.4110    1.2449    1.8838 C   0  0  0  0  0  0  0  0  0  0  0  0
   -1.6764   -1.4135    0.4303 N   0  0  0  0  0  0  0  0  0  0  0  0
   -2.7513   -1.9743   -0.2995 C   0  0  0  0  0  0  0  0  0  0  0  0
   -2.5757   -3.0595   -1.1667 C   0  0  0  0  0  0  0  0  0  0  0  0
   -3.6603   -3.6208   -1.8475 C   0  0  0  0  0  0  0  0  0  0  0  0
   -4.9409   -3.1122   -1.6657 C   0  0  0  0  0  0  0  0  0  0  0  0
   -5.1393   -2.0281   -0.8120 C   0  0  0  0  0  0  0  0  0  0  0  0
   -4.0514   -1.4363   -0.1443 C   0  0  0  0  0  0  0  0  0  0  0  0
   -4.2926   -0.2712    0.7628 C   0  0  0  0  0  0  0  0  0  0  0  0
   -3.5230   -0.0470    1.6991 O   0  0  0  0  0  0  0  0  0  0  0  0
   -5.4466    0.6408    0.5693 C   0  0  0  0  0  0  0  0  0  0  0  0
   -6.1874    1.0293    1.6922 C   0  0  0  0  0  0  0  0  0  0  0  0
   -7.2871    1.8777    1.5407 C   0  0  0  0  0  0  0  0  0  0  0  0
   -7.6374    2.3467    0.2737 C   0  0  0  0  0  0  0  0  0  0  0  0
   -6.8792    1.9871   -0.8433 C   0  0  0  0  0  0  0  0  0  0  0  0
   -5.7768    1.1392   -0.6977 C   0  0  0  0  0  0  0  0  0  0  0  0
   -0.0850   -0.8921    2.3785 H   0  0  0  0  0  0  0  0  0  0  0  0
    1.4012   -1.5253    1.6766 H   0  0  0  0  0  0  0  0  0  0  0  0
    1.5823    1.3413   -0.7716 H   0  0  0  0  0  0  0  0  0  0  0  0
    1.1474   -0.3162   -1.0904 H   0  0  0  0  0  0  0  0  0  0  0  0
    3.1180   -1.1178    0.2539 H   0  0  0  0  0  0  0  0  0  0  0  0
    3.5921   -0.0022   -1.0400 H   0  0  0  0  0  0  0  0  0  0  0  0
    5.2035    2.6668   -0.6111 H   0  0  0  0  0  0  0  0  0  0  0  0
    6.3247    3.0443   -2.7940 H   0  0  0  0  0  0  0  0  0  0  0  0
    7.9134    1.3490   -3.6857 H   0  0  0  0  0  0  0  0  0  0  0  0
    8.3942   -0.7118   -2.3721 H   0  0  0  0  0  0  0  0  0  0  0  0
    3.2941    1.6736    2.8334 H   0  0  0  0  0  0  0  0  0  0  0  0
    2.9479   -0.0640    2.7065 H   0  0  0  0  0  0  0  0  0  0  0  0
    0.8405    1.2462    2.8225 H   0  0  0  0  0  0  0  0  0  0  0  0
    1.3664    2.2778    1.5101 H   0  0  0  0  0  0  0  0  0  0  0  0
   -1.9314   -0.6432    1.0556 H   0  0  0  0  0  0  0  0  0  0  0  0
   -1.5993   -3.5047   -1.3322 H   0  0  0  0  0  0  0  0  0  0  0  0
   -3.4981   -4.4691   -2.5094 H   0  0  0  0  0  0  0  0  0  0  0  0
   -5.7852   -3.5649   -2.1808 H   0  0  0  0  0  0  0  0  0  0  0  0
   -6.1562   -1.6703   -0.6670 H   0  0  0  0  0  0  0  0  0  0  0  0
   -5.9120    0.6706    2.6820 H   0  0  0  0  0  0  0  0  0  0  0  0
   -7.8722    2.1713    2.4120 H   0  0  0  0  0  0  0  0  0  0  0  0
   -8.4963    3.0064    0.1588 H   0  0  0  0  0  0  0  0  0  0  0  0
   -7.1459    2.3672   -1.8266 H   0  0  0  0  0  0  0  0  0  0  0  0
   -5.1793    0.8860   -1.5732 H   0  0  0  0  0  0  0  0  0  0  0  0
  1  2  2  0
  2  3  1  0
  3  4  1  0
  4  5  1  0
  5  6  1  0
  6  7  1  0
  7  8  1  0
  8  9  2  0
  8 10  2  0
  8 11  1  0
 11 12  2  0
 12 13  1  0
 13 14  2  0
 14 15  1  0
 15 16  2  0
 16 17  1  0
  7 18  1  0
 18 19  1  0
  2 20  1  0
 20 21  1  0
 21 22  2  0
 22 23  1  0
 23 24  2  0
 24 25  1  0
 25 26  2  0
 26 27  1  0
 27 28  2  0
 27 29  1  0
 29 30  2  0
 30 31  1  0
 31 32  2  0
 32 33  1  0
 33 34  2  0
 19  4  1  0
 26 21  1  0
 34 29  1  0
 16 11  1  0
  3 35  1  0
  3 36  1  0
  5 37  1  0
  5 38  1  0
  6 39  1  0
  6 40  1  0
 12 41  1  0
 13 42  1  0
 14 43  1  0
 15 44  1  0
 18 45  1  0
 18 46  1  0
 19 47  1  0
 19 48  1  0
 20 49  1  0
 22 50  1  0
 23 51  1  0
 24 52  1  0
 25 53  1  0
 30 54  1  0
 31 55  1  0
 32 56  1  0
 33 57  1  0
 34 58  1  0
M  END
$$$$
