
     RDKit          3D

 55 57  0  0  0  0  0  0  0  0999 V2000
    2.4187   -1.1402   -3.9366 N   0  0  0  0  0  0  0  0  0  0  0  0
    2.7547   -0.3117   -2.9323 C   0  0  0  0  0  0  0  0  0  0  0  0
    3.7649    0.5042   -3.0034 N   0  0  0  0  0  0  0  0  0  0  0  0
    3.7283    1.2434   -1.7062 C   0  0  0  0  0  0  0  0  0  0  0  0
    2.6595    0.5622   -0.8194 C   0  0  0  0  0  0  0  0  0  0  0  0
    3.2815   -0.2233    0.3470 C   0  0  0  0  0  0  0  0  0  0  0  0
    3.7884    0.6697    1.4565 C   0  0  0  0  0  0  0  0  0  0  0  0
    2.8869    1.3142    2.3163 C   0  0  0  0  0  0  0  0  0  0  0  0
    3.3542    2.1465    3.3341 C   0  0  0  0  0  0  0  0  0  0  0  0
    4.7207    2.3355    3.4966 C   0  0  0  0  0  0  0  0  0  0  0  0
    5.1330    3.1577    4.5030 O   0  0  0  0  0  0  0  0  0  0  0  0
    5.6319    1.7031    2.6577 C   0  0  0  0  0  0  0  0  0  0  0  0
    5.1644    0.8695    1.6391 C   0  0  0  0  0  0  0  0  0  0  0  0
    2.0426   -0.3428   -1.7815 N   0  0  0  0  0  0  0  0  0  0  0  0
    0.7352   -0.9136   -1.5404 C   0  0  0  0  0  0  0  0  0  0  0  0
   -0.3635    0.0248   -2.0461 C   0  0  0  0  0  0  0  0  0  0  0  0
   -1.7709   -0.5723   -1.9454 C   0  0  0  0  0  0  0  0  0  0  0  0
   -2.2281   -0.8039   -0.4998 C   0  0  0  0  0  0  0  0  0  0  0  0
   -3.6819   -1.3120   -0.3985 C   0  0  0  0  0  0  0  0  0  0  0  0
   -3.9169   -1.9217    0.9993 C   0  0  0  0  0  0  0  0  0  0  0  0
   -5.3999   -2.0034    1.3356 C   0  0  0  0  0  0  0  0  0  0  0  0
   -6.0431   -0.6175    1.3864 C   0  0  0  0  0  0  0  0  0  0  0  0
   -5.3322    0.4129    0.5089 C   0  0  0  0  0  0  0  0  0  0  0  0
   -4.7235   -0.2231   -0.7364 C   0  0  0  0  0  0  0  0  0  0  0  0
    1.4294   -1.1760   -4.1308 H   0  0  0  0  0  0  0  0  0  0  0  0
    2.9498   -0.9116   -4.7703 H   0  0  0  0  0  0  0  0  0  0  0  0
    4.7264    1.2428   -1.2591 H   0  0  0  0  0  0  0  0  0  0  0  0
    3.4488    2.2836   -1.9091 H   0  0  0  0  0  0  0  0  0  0  0  0
    1.9393    1.3071   -0.4609 H   0  0  0  0  0  0  0  0  0  0  0  0
    2.5425   -0.9075    0.7837 H   0  0  0  0  0  0  0  0  0  0  0  0
    4.0899   -0.8716   -0.0168 H   0  0  0  0  0  0  0  0  0  0  0  0
    1.8149    1.1698    2.2035 H   0  0  0  0  0  0  0  0  0  0  0  0
    2.6549    2.6444    3.9997 H   0  0  0  0  0  0  0  0  0  0  0  0
    6.1037    3.1907    4.4960 H   0  0  0  0  0  0  0  0  0  0  0  0
    6.7012    1.8436    2.7787 H   0  0  0  0  0  0  0  0  0  0  0  0
    5.8828    0.3770    0.9863 H   0  0  0  0  0  0  0  0  0  0  0  0
    0.6544   -1.8914   -2.0293 H   0  0  0  0  0  0  0  0  0  0  0  0
    0.6058   -1.0956   -0.4686 H   0  0  0  0  0  0  0  0  0  0  0  0
   -0.3272    0.9731   -1.4957 H   0  0  0  0  0  0  0  0  0  0  0  0
   -0.1749    0.2751   -3.0976 H   0  0  0  0  0  0  0  0  0  0  0  0
   -2.4592    0.1117   -2.4528 H   0  0  0  0  0  0  0  0  0  0  0  0
   -1.8068   -1.5191   -2.4981 H   0  0  0  0  0  0  0  0  0  0  0  0
   -1.5671   -1.5474   -0.0387 H   0  0  0  0  0  0  0  0  0  0  0  0
   -2.1188    0.1220    0.0786 H   0  0  0  0  0  0  0  0  0  0  0  0
   -3.8032   -2.1176   -1.1358 H   0  0  0  0  0  0  0  0  0  0  0  0
   -3.4729   -2.9238    1.0369 H   0  0  0  0  0  0  0  0  0  0  0  0
   -3.4079   -1.3266    1.7688 H   0  0  0  0  0  0  0  0  0  0  0  0
   -5.9082   -2.6143    0.5788 H   0  0  0  0  0  0  0  0  0  0  0  0
   -5.5453   -2.5118    2.2954 H   0  0  0  0  0  0  0  0  0  0  0  0
   -7.0932   -0.7053    1.0821 H   0  0  0  0  0  0  0  0  0  0  0  0
   -6.0548   -0.2501    2.4198 H   0  0  0  0  0  0  0  0  0  0  0  0
   -6.0396    1.2002    0.2244 H   0  0  0  0  0  0  0  0  0  0  0  0
   -4.5391    0.9022    1.0882 H   0  0  0  0  0  0  0  0  0  0  0  0
   -4.2984    0.5610   -1.3702 H   0  0  0  0  0  0  0  0  0  0  0  0
   -5.5321   -0.6808   -1.3216 H   0  0  0  0  0  0  0  0  0  0  0  0
  1  2  1  0
  2  3  2  0
  3  4  1  0
  4  5  1  0
  5  6  1  0
  6  7  1  0
  7  8  2  0
  8  9  1  0
  9 10  2  0
 10 11  1  0
 10 12  1  0
 12 13  2  0
  5 14  1  0
 14 15  1  0
 15 16  1  0
 16 17  1  0
 17 18  1  0
 18 19  1  0
 19 20  1  0
 20 21  1  0
 21 22  1  0
 22 23  1  0
 23 24  1  0
 14  2  1  0
 24 19  1  0
 13  7  1  0
  1 25  1  0
  1 26  1  0
  4 27  1  0
  4 28  1  0
  5 29  1  0
  6 30  1  0
  6 31  1  0
  8 32  1  0
  9 33  1  0
 11 34  1  0
 12 35  1  0
 13 36  1  0
 15 37  1  0
 15 38  1  0
 16 39  1  0
 16 40  1  0
 17 41  1  0
 17 42  1  0
 18 43  1  0
 18 44  1  0
 19 45  1  0
 20 46  1  0
 20 47  1  0
 21 48  1  0
 21 49  1  0
 22 50  1  0
 22 51  1  0
 23 52  1  0
 23 53  1  0
 24 54  1  0
 24 55  1  0
M  END
$$$$
