
     RDKit          3D

 39 41  0  0  0  0  0  0  0  0999 V2000
   -3.8230   -2.3433    1.0867 C   0  0  0  0  0  0  0  0  0  0  0  0
   -3.6124   -2.5699   -0.4008 C   0  0  0  0  0  0  0  0  0  0  0  0
   -1.9473   -3.2248   -0.7574 S   0  0  0  0  0  0  0  0  0  0  0  0
   -0.9369   -1.7558   -0.6058 C   0  0  0  0  0  0  0  0  0  0  0  0
    0.4341   -1.9009   -0.6228 C   0  0  0  0  0  0  0  0  0  0  0  0
    1.1989   -0.7592   -0.5092 C   0  0  0  0  0  0  0  0  0  0  0  0
    2.5724   -0.8022   -0.5264 N   0  0  0  0  0  0  0  0  0  0  0  0
    3.3429    0.4240   -0.3562 C   0  0  0  0  0  0  0  0  0  0  0  0
    4.7864   -0.0674   -0.3992 C   0  0  0  0  0  0  0  0  0  0  0  0
    4.6972   -1.4226    0.2841 C   0  0  0  0  0  0  0  0  0  0  0  0
    3.3621   -1.9852   -0.2057 C   0  0  0  0  0  0  0  0  0  0  0  0
    0.6058    0.4426   -0.4090 N   0  0  0  0  0  0  0  0  0  0  0  0
   -0.7381    0.5004   -0.4059 C   0  0  0  0  0  0  0  0  0  0  0  0
   -1.3697    1.8320   -0.2859 C   0  0  0  0  0  0  0  0  0  0  0  0
   -0.5947    3.0081   -0.1983 C   0  0  0  0  0  0  0  0  0  0  0  0
   -1.1893    4.2689   -0.0836 C   0  0  0  0  0  0  0  0  0  0  0  0
   -2.5723    4.3725   -0.0548 C   0  0  0  0  0  0  0  0  0  0  0  0
   -3.1435    5.5788    0.0551 F   0  0  0  0  0  0  0  0  0  0  0  0
   -3.3707    3.2412   -0.1387 C   0  0  0  0  0  0  0  0  0  0  0  0
   -2.7725    1.9819   -0.2534 C   0  0  0  0  0  0  0  0  0  0  0  0
   -1.5434   -0.5671   -0.4990 N   0  0  0  0  0  0  0  0  0  0  0  0
   -3.1430   -1.5870    1.4903 H   0  0  0  0  0  0  0  0  0  0  0  0
   -4.8454   -1.9945    1.2666 H   0  0  0  0  0  0  0  0  0  0  0  0
   -3.6864   -3.2697    1.6550 H   0  0  0  0  0  0  0  0  0  0  0  0
   -3.8058   -1.6577   -0.9736 H   0  0  0  0  0  0  0  0  0  0  0  0
   -4.3325   -3.3184   -0.7484 H   0  0  0  0  0  0  0  0  0  0  0  0
    0.8846   -2.8773   -0.7346 H   0  0  0  0  0  0  0  0  0  0  0  0
    3.1532    1.1514   -1.1527 H   0  0  0  0  0  0  0  0  0  0  0  0
    3.1294    0.8852    0.6159 H   0  0  0  0  0  0  0  0  0  0  0  0
    5.1131   -0.1931   -1.4386 H   0  0  0  0  0  0  0  0  0  0  0  0
    5.4780    0.6167    0.1000 H   0  0  0  0  0  0  0  0  0  0  0  0
    4.6685   -1.2887    1.3724 H   0  0  0  0  0  0  0  0  0  0  0  0
    5.5397   -2.0774    0.0445 H   0  0  0  0  0  0  0  0  0  0  0  0
    3.5045   -2.5906   -1.1075 H   0  0  0  0  0  0  0  0  0  0  0  0
    2.9099   -2.6060    0.5756 H   0  0  0  0  0  0  0  0  0  0  0  0
    0.4926    2.9448   -0.2204 H   0  0  0  0  0  0  0  0  0  0  0  0
   -0.5797    5.1643   -0.0177 H   0  0  0  0  0  0  0  0  0  0  0  0
   -4.4511    3.3409   -0.1152 H   0  0  0  0  0  0  0  0  0  0  0  0
   -3.4153    1.1052   -0.3186 H   0  0  0  0  0  0  0  0  0  0  0  0
  1  2  1  0
  2  3  1  0
  3  4  1  0
  4  5  2  0
  5  6  1  0
  6  7  1  0
  7  8  1  0
  8  9  1  0
  9 10  1  0
 10 11  1  0
  6 12  2  0
 12 13  1  0
 13 14  1  0
 14 15  2  0
 15 16  1  0
 16 17  2  0
 17 18  1  0
 17 19  1  0
 19 20  2  0
 13 21  2  0
 21  4  1  0
 11  7  1  0
 20 14  1  0
  1 22  1  0
  1 23  1  0
  1 24  1  0
  2 25  1  0
  2 26  1  0
  5 27  1  0
  8 28  1  0
  8 29  1  0
  9 30  1  0
  9 31  1  0
 10 32  1  0
 10 33  1  0
 11 34  1  0
 11 35  1  0
 15 36  1  0
 16 37  1  0
 19 38  1  0
 20 39  1  0
M  END
$$$$
