
     RDKit          3D

 43 45  0  0  0  0  0  0  0  0999 V2000
   -6.6326   -0.2696   -1.3714 C   0  0  0  0  0  0  0  0  0  0  0  0
   -6.3214    0.2731   -0.1867 C   0  0  0  0  0  0  0  0  0  0  0  0
   -5.8013   -0.5017    0.9929 C   0  0  0  0  0  0  0  0  0  0  0  0
   -4.3827   -0.2251    1.1506 N   0  0  0  0  0  0  0  0  0  0  0  0
   -4.0177    0.8900    1.8896 C   0  0  0  0  0  0  0  0  0  0  0  0
   -4.8163    1.6520    2.4308 O   0  0  0  0  0  0  0  0  0  0  0  0
   -2.6834    1.1325    2.0037 N   0  0  0  0  0  0  0  0  0  0  0  0
   -1.7041    0.3430    1.4308 C   0  0  0  0  0  0  0  0  0  0  0  0
   -0.4215    0.7126    1.6207 N   0  0  0  0  0  0  0  0  0  0  0  0
    0.5216   -0.0755    1.0586 C   0  0  0  0  0  0  0  0  0  0  0  0
    1.8620    0.2434    1.2116 C   0  0  0  0  0  0  0  0  0  0  0  0
    2.8741   -0.5286    0.6307 C   0  0  0  0  0  0  0  0  0  0  0  0
    4.2101   -0.1906    0.8526 N   0  0  0  0  0  0  0  0  0  0  0  0
    4.7979    0.7498    0.1915 C   0  0  0  0  0  0  0  0  0  0  0  0
    4.4572    1.6048   -0.8438 N   0  0  0  0  0  0  0  0  0  0  0  0
    3.3712    1.3199   -1.7697 C   0  0  0  0  0  0  0  0  0  0  0  0
    5.4613    2.5400   -1.3425 C   0  0  0  0  0  0  0  0  0  0  0  0
    2.5322   -1.6831   -0.0849 C   0  0  0  0  0  0  0  0  0  0  0  0
    3.5947   -2.5750   -0.6618 C   0  0  0  0  0  0  0  0  0  0  0  0
    1.1773   -2.0091   -0.2425 C   0  0  0  0  0  0  0  0  0  0  0  0
    0.1713   -1.2276    0.3082 C   0  0  0  0  0  0  0  0  0  0  0  0
   -1.1131   -1.5808    0.1225 N   0  0  0  0  0  0  0  0  0  0  0  0
   -2.0415   -0.7758    0.6977 C   0  0  0  0  0  0  0  0  0  0  0  0
   -3.4762   -1.1017    0.5427 C   0  0  0  0  0  0  0  0  0  0  0  0
   -3.8141   -2.1020   -0.0873 O   0  0  0  0  0  0  0  0  0  0  0  0
   -7.0145    0.3421   -2.1828 H   0  0  0  0  0  0  0  0  0  0  0  0
   -6.4998   -1.3315   -1.5619 H   0  0  0  0  0  0  0  0  0  0  0  0
   -6.4676    1.3413   -0.0379 H   0  0  0  0  0  0  0  0  0  0  0  0
   -5.9678   -1.5770    0.8627 H   0  0  0  0  0  0  0  0  0  0  0  0
   -6.3494   -0.1997    1.8926 H   0  0  0  0  0  0  0  0  0  0  0  0
   -2.3888    1.9404    2.5344 H   0  0  0  0  0  0  0  0  0  0  0  0
    2.1367    1.1183    1.7952 H   0  0  0  0  0  0  0  0  0  0  0  0
    5.8355    0.9408    0.5214 H   0  0  0  0  0  0  0  0  0  0  0  0
    2.4007    1.4334   -1.2809 H   0  0  0  0  0  0  0  0  0  0  0  0
    3.3714    2.0121   -2.6196 H   0  0  0  0  0  0  0  0  0  0  0  0
    3.4636    0.3098   -2.1801 H   0  0  0  0  0  0  0  0  0  0  0  0
    4.9913    3.3892   -1.8499 H   0  0  0  0  0  0  0  0  0  0  0  0
    6.0598    2.9502   -0.5217 H   0  0  0  0  0  0  0  0  0  0  0  0
    6.1319    2.0369   -2.0466 H   0  0  0  0  0  0  0  0  0  0  0  0
    4.2136   -2.9930    0.1386 H   0  0  0  0  0  0  0  0  0  0  0  0
    3.1573   -3.4122   -1.2160 H   0  0  0  0  0  0  0  0  0  0  0  0
    4.2286   -2.0161   -1.3573 H   0  0  0  0  0  0  0  0  0  0  0  0
    0.8925   -2.8998   -0.7997 H   0  0  0  0  0  0  0  0  0  0  0  0
  1  2  2  0
  2  3  1  0
  3  4  1  0
  4  5  1  0
  5  6  2  0
  5  7  1  0
  7  8  1  0
  8  9  2  0
  9 10  1  0
 10 11  2  0
 11 12  1  0
 12 13  1  0
 13 14  2  3
 14 15  1  0
 15 16  1  0
 15 17  1  0
 12 18  2  0
 18 19  1  0
 18 20  1  0
 20 21  2  0
 21 22  1  0
 22 23  2  0
 23 24  1  0
 24 25  2  0
 24  4  1  0
 23  8  1  0
 21 10  1  0
  1 26  1  0
  1 27  1  0
  2 28  1  0
  3 29  1  0
  3 30  1  0
  7 31  1  0
 11 32  1  0
 14 33  1  0
 16 34  1  0
 16 35  1  0
 16 36  1  0
 17 37  1  0
 17 38  1  0
 17 39  1  0
 19 40  1  0
 19 41  1  0
 19 42  1  0
 20 43  1  0
M  END
$$$$
