
     RDKit          3D

 57 60  0  0  0  0  0  0  0  0999 V2000
   -6.7209   -1.4235   -3.9681 C   0  0  0  0  0  0  0  0  0  0  0  0
   -5.3619   -1.1657   -3.3877 C   0  0  0  0  0  0  0  0  0  0  0  0
   -5.0902    0.0437   -2.7380 C   0  0  0  0  0  0  0  0  0  0  0  0
   -3.8168    0.3043   -2.2250 C   0  0  0  0  0  0  0  0  0  0  0  0
   -2.7960   -0.6415   -2.3673 C   0  0  0  0  0  0  0  0  0  0  0  0
   -1.4960   -0.3712   -1.8464 N   0  0  0  0  0  0  0  0  0  0  0  0
   -0.2886   -0.5859   -2.5117 C   0  0  0  0  0  0  0  0  0  0  0  0
   -0.1655   -1.0476   -3.9238 C   0  0  0  0  0  0  0  0  0  0  0  0
    0.7354   -0.1614   -1.6874 C   0  0  0  0  0  0  0  0  0  0  0  0
    0.1660    0.3007   -0.4789 C   0  0  0  0  0  0  0  0  0  0  0  0
    0.8956    0.8045    0.6677 C   0  0  0  0  0  0  0  0  0  0  0  0
    0.7166    2.0530    0.7580 O   0  0  0  0  0  1  0  0  0  0  0  0
    1.6790   -0.0270    1.4151 C   0  0  0  0  0  0  0  0  0  0  0  0
    2.5504    0.5044    2.5868 C   0  0  0  0  0  0  0  0  0  0  0  0
    3.1843   -0.5702    3.7315 S   0  0  0  0  0  0  0  0  0  0  0  0
    2.6985    1.8853    2.5877 N   0  0  0  0  0  0  0  0  0  0  0  0
    3.4390    2.8092    3.3547 C   0  0  0  0  0  0  0  0  0  0  0  0
    4.4676    2.4923    4.2442 C   0  0  0  0  0  0  0  0  0  0  0  0
    5.1418    3.5006    4.9442 C   0  0  0  0  0  0  0  0  0  0  0  0
    4.7963    4.8320    4.7496 C   0  0  0  0  0  0  0  0  0  0  0  0
    5.4600    5.7775    5.4308 F   0  0  0  0  0  0  0  0  0  0  0  0
    3.7865    5.1694    3.8569 C   0  0  0  0  0  0  0  0  0  0  0  0
    3.3572    6.8170    3.6012 Cl  0  0  0  0  0  0  0  0  0  0  0  0
    3.1148    4.1634    3.1590 C   0  0  0  0  0  0  0  0  0  0  0  0
    1.6947   -1.5032    1.0781 N   0  0  0  0  0  4  0  0  0  0  0  0
    2.8425   -2.0700    0.6487 C   0  0  0  0  0  0  0  0  0  0  0  0
    2.8873   -3.4235    0.3314 C   0  0  0  0  0  0  0  0  0  0  0  0
    1.7360   -4.1909    0.4602 C   0  0  0  0  0  0  0  0  0  0  0  0
    0.5639   -3.5916    0.9041 C   0  0  0  0  0  0  0  0  0  0  0  0
    0.5670   -2.2355    1.2115 C   0  0  0  0  0  0  0  0  0  0  0  0
   -1.2111    0.1454   -0.5809 C   0  0  0  0  0  0  0  0  0  0  0  0
   -2.2455    0.4394    0.4582 C   0  0  0  0  0  0  0  0  0  0  0  0
   -3.0565   -1.8450   -3.0315 C   0  0  0  0  0  0  0  0  0  0  0  0
   -4.3328   -2.1020   -3.5406 C   0  0  0  0  0  0  0  0  0  0  0  0
   -7.5017   -0.9824   -3.3396 H   0  0  0  0  0  0  0  0  0  0  0  0
   -6.9237   -2.4976   -4.0316 H   0  0  0  0  0  0  0  0  0  0  0  0
   -6.7866   -0.9927   -4.9716 H   0  0  0  0  0  0  0  0  0  0  0  0
   -5.8664    0.7993   -2.6355 H   0  0  0  0  0  0  0  0  0  0  0  0
   -3.6275    1.2696   -1.7615 H   0  0  0  0  0  0  0  0  0  0  0  0
   -0.9393   -0.6132   -4.5638 H   0  0  0  0  0  0  0  0  0  0  0  0
   -0.2160   -2.1388   -3.9808 H   0  0  0  0  0  0  0  0  0  0  0  0
    0.8012   -0.7443   -4.3414 H   0  0  0  0  0  0  0  0  0  0  0  0
    1.7842   -0.1416   -1.9521 H   0  0  0  0  0  0  0  0  0  0  0  0
    2.0559    2.3343    1.9051 H   0  0  0  0  0  0  0  0  0  0  0  0
    4.8002    1.4763    4.4102 H   0  0  0  0  0  0  0  0  0  0  0  0
    5.9402    3.2505    5.6363 H   0  0  0  0  0  0  0  0  0  0  0  0
    2.3233    4.4393    2.4625 H   0  0  0  0  0  0  0  0  0  0  0  0
    3.7081   -1.4231    0.5460 H   0  0  0  0  0  0  0  0  0  0  0  0
    3.8132   -3.8717   -0.0188 H   0  0  0  0  0  0  0  0  0  0  0  0
    1.7510   -5.2506    0.2133 H   0  0  0  0  0  0  0  0  0  0  0  0
   -0.3495   -4.1707    1.0104 H   0  0  0  0  0  0  0  0  0  0  0  0
   -0.3182   -1.7222    1.5733 H   0  0  0  0  0  0  0  0  0  0  0  0
   -3.0675   -0.2822    0.4289 H   0  0  0  0  0  0  0  0  0  0  0  0
   -2.6458    1.4493    0.3293 H   0  0  0  0  0  0  0  0  0  0  0  0
   -1.8206    0.3789    1.4657 H   0  0  0  0  0  0  0  0  0  0  0  0
   -2.2934   -2.6104   -3.1325 H   0  0  0  0  0  0  0  0  0  0  0  0
   -4.5202   -3.0423   -4.0544 H   0  0  0  0  0  0  0  0  0  0  0  0
  1  2  1  0
  2  3  2  0
  3  4  1  0
  4  5  2  0
  5  6  1  0
  6  7  1  0
  7  8  1  0
  7  9  2  0
  9 10  1  0
 10 11  1  0
 11 12  1  0
 11 13  2  3
 13 14  1  0
 14 15  2  0
 14 16  1  0
 16 17  1  0
 17 18  2  0
 18 19  1  0
 19 20  2  0
 20 21  1  0
 20 22  1  0
 22 23  1  0
 22 24  2  0
 13 25  1  0
 25 26  2  0
 26 27  1  0
 27 28  2  0
 28 29  1  0
 29 30  2  0
 10 31  2  0
 31 32  1  0
  5 33  1  0
 33 34  2  0
 34  2  1  0
 31  6  1  0
 24 17  1  0
 30 25  1  0
  1 35  1  0
  1 36  1  0
  1 37  1  0
  3 38  1  0
  4 39  1  0
  8 40  1  0
  8 41  1  0
  8 42  1  0
  9 43  1  0
 16 44  1  0
 18 45  1  0
 19 46  1  0
 24 47  1  0
 26 48  1  0
 27 49  1  0
 28 50  1  0
 29 51  1  0
 30 52  1  0
 32 53  1  0
 32 54  1  0
 32 55  1  0
 33 56  1  0
 34 57  1  0
M  CHG  2  12  -1  25   1
M  END
$$$$
