
     RDKit          3D

 56 59  0  0  0  0  0  0  0  0999 V2000
    2.5461    2.1941    1.2375 C   0  0  0  0  0  0  0  0  0  0  0  0
    2.4343    0.6719    1.3325 C   0  0  0  0  0  0  0  0  0  0  0  0
    3.6614    0.0515    2.0362 C   0  0  0  0  0  0  0  0  0  0  0  0
    5.0097    0.2803    1.3376 C   0  0  0  0  0  0  0  0  0  0  0  0
    5.1047   -0.1548   -0.1067 C   0  0  0  0  0  0  0  0  0  0  0  0
    4.4780   -1.3172   -0.5788 C   0  0  0  0  0  0  0  0  0  0  0  0
    4.5865   -1.6882   -1.9208 C   0  0  0  0  0  0  0  0  0  0  0  0
    5.3385   -0.9142   -2.8046 C   0  0  0  0  0  0  0  0  0  0  0  0
    5.9960    0.2231   -2.3424 C   0  0  0  0  0  0  0  0  0  0  0  0
    5.8829    0.5982   -1.0019 C   0  0  0  0  0  0  0  0  0  0  0  0
    1.2000    0.3207    2.0382 N   0  0  0  0  0  0  0  0  0  0  0  0
    0.6990   -0.9709    2.0089 C   0  0  0  0  0  0  0  0  0  0  0  0
    1.2881   -1.9260    1.5073 O   0  0  0  0  0  0  0  0  0  0  0  0
   -0.6894   -1.1095    2.6371 C   0  0  0  0  0  0  0  0  0  0  0  0
   -1.7363   -1.0596    1.6672 O   0  0  0  0  0  0  0  0  0  0  0  0
   -1.9502    0.1706    1.1387 C   0  0  0  0  0  0  0  0  0  0  0  0
   -1.3731    1.2033    1.4409 O   0  0  0  0  0  0  0  0  0  0  0  0
   -3.0384    0.0728    0.1470 C   0  0  0  0  0  0  0  0  0  0  0  0
   -2.7742   -0.5457   -1.1089 C   0  0  0  0  0  0  0  0  0  0  0  0
   -1.5233   -1.0934   -1.4936 C   0  0  0  0  0  0  0  0  0  0  0  0
   -1.3366   -1.6913   -2.7430 C   0  0  0  0  0  0  0  0  0  0  0  0
   -2.3903   -1.7537   -3.6446 C   0  0  0  0  0  0  0  0  0  0  0  0
   -3.6287   -1.2194   -3.2949 C   0  0  0  0  0  0  0  0  0  0  0  0
   -3.8323   -0.6161   -2.0402 C   0  0  0  0  0  0  0  0  0  0  0  0
   -5.0874   -0.0815   -1.7103 C   0  0  0  0  0  0  0  0  0  0  0  0
   -5.3381    0.5305   -0.4720 C   0  0  0  0  0  0  0  0  0  0  0  0
   -6.6115    1.0505   -0.1829 C   0  0  0  0  0  0  0  0  0  0  0  0
   -6.8816    1.6555    1.0437 C   0  0  0  0  0  0  0  0  0  0  0  0
   -5.8810    1.7506    1.9981 C   0  0  0  0  0  0  0  0  0  0  0  0
   -4.6103    1.2412    1.7239 C   0  0  0  0  0  0  0  0  0  0  0  0
   -4.3069    0.6205    0.4856 C   0  0  0  0  0  0  0  0  0  0  0  0
    2.6635    2.6460    2.2295 H   0  0  0  0  0  0  0  0  0  0  0  0
    3.3945    2.4968    0.6170 H   0  0  0  0  0  0  0  0  0  0  0  0
    1.6420    2.6213    0.7872 H   0  0  0  0  0  0  0  0  0  0  0  0
    2.3312    0.2680    0.3191 H   0  0  0  0  0  0  0  0  0  0  0  0
    3.7293    0.4551    3.0557 H   0  0  0  0  0  0  0  0  0  0  0  0
    3.5177   -1.0267    2.1691 H   0  0  0  0  0  0  0  0  0  0  0  0
    5.7843   -0.2615    1.8961 H   0  0  0  0  0  0  0  0  0  0  0  0
    5.2686    1.3436    1.4179 H   0  0  0  0  0  0  0  0  0  0  0  0
    3.8804   -1.9400    0.0849 H   0  0  0  0  0  0  0  0  0  0  0  0
    4.0750   -2.5775   -2.2758 H   0  0  0  0  0  0  0  0  0  0  0  0
    5.4196   -1.2031   -3.8489 H   0  0  0  0  0  0  0  0  0  0  0  0
    6.5959    0.8204   -3.0252 H   0  0  0  0  0  0  0  0  0  0  0  0
    6.4123    1.4842   -0.6601 H   0  0  0  0  0  0  0  0  0  0  0  0
    0.4719    1.0358    2.0470 H   0  0  0  0  0  0  0  0  0  0  0  0
   -0.7359   -2.0818    3.1418 H   0  0  0  0  0  0  0  0  0  0  0  0
   -0.8446   -0.3481    3.4126 H   0  0  0  0  0  0  0  0  0  0  0  0
   -0.6690   -1.0693   -0.8195 H   0  0  0  0  0  0  0  0  0  0  0  0
   -0.3670   -2.1074   -3.0047 H   0  0  0  0  0  0  0  0  0  0  0  0
   -2.2507   -2.2182   -4.6197 H   0  0  0  0  0  0  0  0  0  0  0  0
   -4.4410   -1.2792   -4.0167 H   0  0  0  0  0  0  0  0  0  0  0  0
   -5.8937   -0.1466   -2.4376 H   0  0  0  0  0  0  0  0  0  0  0  0
   -7.4109    0.9861   -0.9172 H   0  0  0  0  0  0  0  0  0  0  0  0
   -7.8729    2.0503    1.2503 H   0  0  0  0  0  0  0  0  0  0  0  0
   -6.0840    2.2195    2.9570 H   0  0  0  0  0  0  0  0  0  0  0  0
   -3.8521    1.3384    2.4965 H   0  0  0  0  0  0  0  0  0  0  0  0
  1  2  1  0
  2  3  1  0
  3  4  1  0
  4  5  1  0
  5  6  2  0
  6  7  1  0
  7  8  2  0
  8  9  1  0
  9 10  2  0
  2 11  1  0
 11 12  1  0
 12 13  2  0
 12 14  1  0
 14 15  1  0
 15 16  1  0
 16 17  2  0
 16 18  1  0
 18 19  1  0
 19 20  2  0
 20 21  1  0
 21 22  2  0
 22 23  1  0
 23 24  2  0
 24 25  1  0
 25 26  2  0
 26 27  1  0
 27 28  2  0
 28 29  1  0
 29 30  2  0
 30 31  1  0
 10  5  1  0
 31 18  2  0
 24 19  1  0
 31 26  1  0
  1 32  1  0
  1 33  1  0
  1 34  1  0
  2 35  1  0
  3 36  1  0
  3 37  1  0
  4 38  1  0
  4 39  1  0
  6 40  1  0
  7 41  1  0
  8 42  1  0
  9 43  1  0
 10 44  1  0
 11 45  1  0
 14 46  1  0
 14 47  1  0
 20 48  1  0
 21 49  1  0
 22 50  1  0
 23 51  1  0
 25 52  1  0
 27 53  1  0
 28 54  1  0
 29 55  1  0
 30 56  1  0
M  END
$$$$
