
     RDKit          3D

 42 43  0  0  0  0  0  0  0  0999 V2000
    2.9728    0.0842    2.8658 C   0  0  0  0  0  0  0  0  0  0  0  0
    3.0075    0.8534    1.5579 C   0  0  0  0  0  0  0  0  0  0  0  0
    1.9526    1.3013    0.9343 N   0  0  0  0  0  0  0  0  0  0  0  0
    0.7121    0.9454    1.3968 N   0  0  0  0  0  0  0  0  0  0  0  0
    0.2789   -0.3801    1.2994 C   0  0  0  0  0  0  0  0  0  0  0  0
    0.9973   -1.3483    1.0635 O   0  0  0  0  0  0  0  0  0  0  0  0
   -1.2034   -0.5145    1.5941 C   0  0  0  0  0  0  0  0  0  0  0  0
   -1.8107   -1.7932    1.0163 C   0  0  0  0  0  0  0  0  0  0  0  0
   -1.7109   -1.8925   -0.5096 C   0  0  0  0  0  0  0  0  0  0  0  0
   -2.2027   -0.6811   -1.1601 N   0  0  0  0  0  0  0  0  0  0  0  0
   -3.5407   -0.5347   -1.5326 C   0  0  0  0  0  0  0  0  0  0  0  0
   -4.5877   -1.3173   -1.0353 C   0  0  0  0  0  0  0  0  0  0  0  0
   -5.9173   -1.0673   -1.3961 C   0  0  0  0  0  0  0  0  0  0  0  0
   -6.2262   -0.0085   -2.2438 C   0  0  0  0  0  0  0  0  0  0  0  0
   -5.2060    0.8058   -2.7218 C   0  0  0  0  0  0  0  0  0  0  0  0
   -3.8806    0.5491   -2.3579 C   0  0  0  0  0  0  0  0  0  0  0  0
    4.3512    1.1453    0.9667 C   0  0  0  0  0  0  0  0  0  0  0  0
    4.4902    2.2190    0.0856 C   0  0  0  0  0  0  0  0  0  0  0  0
    5.7408    2.4676   -0.4498 C   0  0  0  0  0  0  0  0  0  0  0  0
    6.8352    1.7280   -0.1717 N   0  0  0  0  0  0  0  0  0  0  0  0
    6.6700    0.6858    0.6697 C   0  0  0  0  0  0  0  0  0  0  0  0
    5.4619    0.3544    1.2592 C   0  0  0  0  0  0  0  0  0  0  0  0
    3.8288    0.3542    3.4918 H   0  0  0  0  0  0  0  0  0  0  0  0
    2.0758    0.3229    3.4429 H   0  0  0  0  0  0  0  0  0  0  0  0
    3.0033   -0.9899    2.6667 H   0  0  0  0  0  0  0  0  0  0  0  0
    0.0011    1.6313    1.1546 H   0  0  0  0  0  0  0  0  0  0  0  0
   -1.3161   -0.5254    2.6848 H   0  0  0  0  0  0  0  0  0  0  0  0
   -1.7439    0.3631    1.2228 H   0  0  0  0  0  0  0  0  0  0  0  0
   -2.8603   -1.8390    1.3269 H   0  0  0  0  0  0  0  0  0  0  0  0
   -1.3201   -2.6705    1.4556 H   0  0  0  0  0  0  0  0  0  0  0  0
   -2.2257   -2.7887   -0.8758 H   0  0  0  0  0  0  0  0  0  0  0  0
   -0.6615   -2.0240   -0.7966 H   0  0  0  0  0  0  0  0  0  0  0  0
   -1.5799   -0.3677   -1.9034 H   0  0  0  0  0  0  0  0  0  0  0  0
   -4.3976   -2.1462   -0.3621 H   0  0  0  0  0  0  0  0  0  0  0  0
   -6.7103   -1.7002   -1.0062 H   0  0  0  0  0  0  0  0  0  0  0  0
   -7.2582    0.1870   -2.5215 H   0  0  0  0  0  0  0  0  0  0  0  0
   -5.4368    1.6457   -3.3713 H   0  0  0  0  0  0  0  0  0  0  0  0
   -3.1031    1.2133   -2.7277 H   0  0  0  0  0  0  0  0  0  0  0  0
    3.6489    2.8502   -0.1789 H   0  0  0  0  0  0  0  0  0  0  0  0
    5.9010    3.2927   -1.1381 H   0  0  0  0  0  0  0  0  0  0  0  0
    7.5653    0.1005    0.8608 H   0  0  0  0  0  0  0  0  0  0  0  0
    5.4049   -0.5108    1.9086 H   0  0  0  0  0  0  0  0  0  0  0  0
  1  2  1  0
  2  3  2  3
  3  4  1  0
  4  5  1  0
  5  6  2  0
  5  7  1  0
  7  8  1  0
  8  9  1  0
  9 10  1  0
 10 11  1  0
 11 12  2  0
 12 13  1  0
 13 14  2  0
 14 15  1  0
 15 16  2  0
  2 17  1  0
 17 18  2  0
 18 19  1  0
 19 20  2  0
 20 21  1  0
 21 22  2  0
 16 11  1  0
 22 17  1  0
  1 23  1  0
  1 24  1  0
  1 25  1  0
  4 26  1  0
  7 27  1  0
  7 28  1  0
  8 29  1  0
  8 30  1  0
  9 31  1  0
  9 32  1  0
 10 33  1  0
 12 34  1  0
 13 35  1  0
 14 36  1  0
 15 37  1  0
 16 38  1  0
 18 39  1  0
 19 40  1  0
 21 41  1  0
 22 42  1  0
M  END
$$$$
