
     RDKit          3D

 49 51  0  0  0  0  0  0  0  0999 V2000
   -0.5085    3.9080    0.4256 N   0  0  0  0  0  0  0  0  0  0  0  0
    0.5793    3.1335    0.5939 C   0  0  0  0  0  0  0  0  0  0  0  0
    1.7438    3.6234    0.8968 N   0  0  0  0  0  0  0  0  0  0  0  0
    2.6216    2.4252    1.0074 C   0  0  0  0  0  0  0  0  0  0  0  0
    1.8121    1.2299    0.4623 C   0  0  0  0  0  0  0  0  0  0  0  0
    1.8870   -0.0128    1.3555 C   0  0  0  0  0  0  0  0  0  0  0  0
    3.2426   -0.6778    1.3223 C   0  0  0  0  0  0  0  0  0  0  0  0
    4.1342   -0.5311    2.3940 C   0  0  0  0  0  0  0  0  0  0  0  0
    5.3915   -1.1356    2.3539 C   0  0  0  0  0  0  0  0  0  0  0  0
    5.7604   -1.8877    1.2457 C   0  0  0  0  0  0  0  0  0  0  0  0
    6.9974   -2.4603    1.2499 O   0  0  0  0  0  0  0  0  0  0  0  0
    4.8908   -2.0473    0.1723 C   0  0  0  0  0  0  0  0  0  0  0  0
    3.6325   -1.4419    0.2117 C   0  0  0  0  0  0  0  0  0  0  0  0
    0.4535    1.7864    0.4345 N   0  0  0  0  0  0  0  0  0  0  0  0
   -0.5083    1.1697   -0.4772 C   0  0  0  0  0  0  0  0  0  0  0  0
   -1.7694    0.7462    0.2831 C   0  0  0  0  0  0  0  0  0  0  0  0
   -2.7525    0.0238   -0.6078 C   0  0  0  0  0  0  0  0  0  0  0  0
   -2.8355   -1.3749   -0.5874 C   0  0  0  0  0  0  0  0  0  0  0  0
   -3.7416   -2.0580   -1.4148 C   0  0  0  0  0  0  0  0  0  0  0  0
   -3.8073   -3.5672   -1.3748 C   0  0  0  0  0  0  0  0  0  0  0  0
   -4.8729   -4.0820   -2.0479 F   0  0  0  0  0  0  0  0  0  0  0  0
   -3.8960   -4.0535   -0.1058 F   0  0  0  0  0  0  0  0  0  0  0  0
   -2.7024   -4.1451   -1.9215 F   0  0  0  0  0  0  0  0  0  0  0  0
   -4.5604   -1.3176   -2.2823 C   0  0  0  0  0  0  0  0  0  0  0  0
   -4.4838    0.0843   -2.3287 C   0  0  0  0  0  0  0  0  0  0  0  0
   -5.3877    0.8731   -3.2481 C   0  0  0  0  0  0  0  0  0  0  0  0
   -4.8413    2.0540   -3.6498 F   0  0  0  0  0  0  0  0  0  0  0  0
   -6.5735    1.1877   -2.6595 F   0  0  0  0  0  0  0  0  0  0  0  0
   -5.7009    0.2004   -4.3900 F   0  0  0  0  0  0  0  0  0  0  0  0
   -3.5805    0.7437   -1.4802 C   0  0  0  0  0  0  0  0  0  0  0  0
   -1.2965    3.5851    0.9700 H   0  0  0  0  0  0  0  0  0  0  0  0
   -0.2810    4.8637    0.6849 H   0  0  0  0  0  0  0  0  0  0  0  0
    2.9042    2.2996    2.0583 H   0  0  0  0  0  0  0  0  0  0  0  0
    3.5348    2.5767    0.4222 H   0  0  0  0  0  0  0  0  0  0  0  0
    2.1447    1.0104   -0.5609 H   0  0  0  0  0  0  0  0  0  0  0  0
    1.6150    0.2415    2.3887 H   0  0  0  0  0  0  0  0  0  0  0  0
    1.1388   -0.7510    1.0377 H   0  0  0  0  0  0  0  0  0  0  0  0
    3.8591    0.0543    3.2688 H   0  0  0  0  0  0  0  0  0  0  0  0
    6.0811   -1.0204    3.1855 H   0  0  0  0  0  0  0  0  0  0  0  0
    7.1152   -2.9524    0.4207 H   0  0  0  0  0  0  0  0  0  0  0  0
    5.1713   -2.6343   -0.6963 H   0  0  0  0  0  0  0  0  0  0  0  0
    2.9565   -1.5733   -0.6307 H   0  0  0  0  0  0  0  0  0  0  0  0
   -0.0651    0.2840   -0.9510 H   0  0  0  0  0  0  0  0  0  0  0  0
   -0.7554    1.8536   -1.2990 H   0  0  0  0  0  0  0  0  0  0  0  0
   -2.2686    1.6145    0.7292 H   0  0  0  0  0  0  0  0  0  0  0  0
   -1.4948    0.1021    1.1287 H   0  0  0  0  0  0  0  0  0  0  0  0
   -2.1939   -1.9464    0.0842 H   0  0  0  0  0  0  0  0  0  0  0  0
   -5.2672   -1.8374   -2.9318 H   0  0  0  0  0  0  0  0  0  0  0  0
   -3.5224    1.8332   -1.5034 H   0  0  0  0  0  0  0  0  0  0  0  0
  1  2  1  0
  2  3  2  0
  3  4  1  0
  4  5  1  0
  5  6  1  0
  6  7  1  0
  7  8  2  0
  8  9  1  0
  9 10  2  0
 10 11  1  0
 10 12  1  0
 12 13  2  0
  5 14  1  0
 14 15  1  0
 15 16  1  0
 16 17  1  0
 17 18  2  0
 18 19  1  0
 19 20  1  0
 20 21  1  0
 20 22  1  0
 20 23  1  0
 19 24  2  0
 24 25  1  0
 25 26  1  0
 26 27  1  0
 26 28  1  0
 26 29  1  0
 25 30  2  0
 14  2  1  0
 30 17  1  0
 13  7  1  0
  1 31  1  0
  1 32  1  0
  4 33  1  0
  4 34  1  0
  5 35  1  0
  6 36  1  0
  6 37  1  0
  8 38  1  0
  9 39  1  0
 11 40  1  0
 12 41  1  0
 13 42  1  0
 15 43  1  0
 15 44  1  0
 16 45  1  0
 16 46  1  0
 18 47  1  0
 24 48  1  0
 30 49  1  0
M  END
$$$$
