
     RDKit          3D

 52 54  0  0  0  0  0  0  0  0999 V2000
    1.5579   -0.2604    2.2967 O   0  0  0  0  0  0  0  0  0  0  0  0
    1.4103   -0.4697    1.0965 C   0  0  0  0  0  0  0  0  0  0  0  0
    2.0114   -1.4543    0.3321 N   0  0  0  0  0  0  0  0  0  0  0  0
    2.9988   -2.3747    0.7335 C   0  0  0  0  0  0  0  0  0  0  0  0
    3.4107   -2.5448    2.0588 C   0  0  0  0  0  0  0  0  0  0  0  0
    4.4263   -3.4541    2.3740 C   0  0  0  0  0  0  0  0  0  0  0  0
    5.0390   -4.2011    1.3685 C   0  0  0  0  0  0  0  0  0  0  0  0
    4.6258   -4.0500    0.0424 C   0  0  0  0  0  0  0  0  0  0  0  0
    3.6068   -3.1451   -0.2709 C   0  0  0  0  0  0  0  0  0  0  0  0
    0.5004    0.3803    0.2511 C   0  0  0  0  0  0  0  0  0  0  0  0
    0.2737    1.6529    0.6134 C   0  0  0  0  0  0  0  0  0  0  0  0
   -0.5547    2.5932   -0.2208 C   0  0  0  0  0  0  0  0  0  0  0  0
    0.1497    3.9253   -0.4398 C   0  0  0  0  0  0  0  0  0  0  0  0
   -0.4741    5.1237   -0.0580 C   0  0  0  0  0  0  0  0  0  0  0  0
    0.1715    6.3497   -0.2356 C   0  0  0  0  0  0  0  0  0  0  0  0
    1.4446    6.3954   -0.8006 C   0  0  0  0  0  0  0  0  0  0  0  0
    2.0739    5.2152   -1.1905 C   0  0  0  0  0  0  0  0  0  0  0  0
    1.4318    3.9887   -1.0134 C   0  0  0  0  0  0  0  0  0  0  0  0
   -0.9499    1.9519   -1.5624 C   0  0  0  0  0  0  0  0  0  0  0  0
   -1.2280    0.4648   -1.3607 C   0  0  0  0  0  0  0  0  0  0  0  0
   -2.3711    0.3144   -0.5095 O   0  0  0  0  0  0  0  0  0  0  0  0
   -2.6557   -1.0451   -0.1882 C   0  0  0  0  0  0  0  0  0  0  0  0
   -3.9416   -1.0721    0.6354 C   0  0  0  0  0  0  0  0  0  0  0  0
   -4.2159   -2.4158    1.3054 C   0  0  0  0  0  0  0  0  0  0  0  0
   -4.3180   -3.5882    0.3397 C   0  0  0  0  0  0  0  0  0  0  0  0
   -4.6911   -4.7651    1.0528 O   0  0  0  0  0  0  0  0  0  0  0  0
   -0.0497   -0.2028   -0.8807 O   0  0  0  0  0  0  0  0  0  0  0  0
    1.7744   -1.4398   -0.6537 H   0  0  0  0  0  0  0  0  0  0  0  0
    2.9590   -1.9820    2.8732 H   0  0  0  0  0  0  0  0  0  0  0  0
    4.7444   -3.5696    3.4113 H   0  0  0  0  0  0  0  0  0  0  0  0
    5.8353   -4.8980    1.6155 H   0  0  0  0  0  0  0  0  0  0  0  0
    5.1036   -4.6287   -0.7455 H   0  0  0  0  0  0  0  0  0  0  0  0
    3.3126   -3.0365   -1.3132 H   0  0  0  0  0  0  0  0  0  0  0  0
    0.7085    2.0441    1.5310 H   0  0  0  0  0  0  0  0  0  0  0  0
   -1.4743    2.7770    0.3535 H   0  0  0  0  0  0  0  0  0  0  0  0
   -1.4670    5.1112    0.3845 H   0  0  0  0  0  0  0  0  0  0  0  0
   -0.3194    7.2698    0.0717 H   0  0  0  0  0  0  0  0  0  0  0  0
    1.9498    7.3477   -0.9251 H   0  0  0  0  0  0  0  0  0  0  0  0
    3.0668    5.2477   -1.6341 H   0  0  0  0  0  0  0  0  0  0  0  0
    1.9456    3.0778   -1.3183 H   0  0  0  0  0  0  0  0  0  0  0  0
   -0.1442    2.0588   -2.2996 H   0  0  0  0  0  0  0  0  0  0  0  0
   -1.8335    2.4639   -1.9621 H   0  0  0  0  0  0  0  0  0  0  0  0
   -1.4738    0.0202   -2.3329 H   0  0  0  0  0  0  0  0  0  0  0  0
   -2.7719   -1.6276   -1.1086 H   0  0  0  0  0  0  0  0  0  0  0  0
   -1.8332   -1.4631    0.4016 H   0  0  0  0  0  0  0  0  0  0  0  0
   -4.7886   -0.7771   -0.0032 H   0  0  0  0  0  0  0  0  0  0  0  0
   -3.8822   -0.2987    1.4174 H   0  0  0  0  0  0  0  0  0  0  0  0
   -5.1457   -2.3463    1.8852 H   0  0  0  0  0  0  0  0  0  0  0  0
   -3.4327   -2.6202    2.0400 H   0  0  0  0  0  0  0  0  0  0  0  0
   -3.3639   -3.7882   -0.1584 H   0  0  0  0  0  0  0  0  0  0  0  0
   -5.0795   -3.4037   -0.4276 H   0  0  0  0  0  0  0  0  0  0  0  0
   -4.0731   -4.8507    1.8001 H   0  0  0  0  0  0  0  0  0  0  0  0
  1  2  2  0
  2  3  1  0
  3  4  1  0
  4  5  2  0
  5  6  1  0
  6  7  2  0
  7  8  1  0
  8  9  2  0
  2 10  1  0
 10 11  2  0
 11 12  1  0
 12 13  1  0
 13 14  2  0
 14 15  1  0
 15 16  2  0
 16 17  1  0
 17 18  2  0
 12 19  1  0
 19 20  1  0
 20 21  1  0
 21 22  1  0
 22 23  1  0
 23 24  1  0
 24 25  1  0
 25 26  1  0
 20 27  1  0
  9  4  1  0
 27 10  1  0
 18 13  1  0
  3 28  1  0
  5 29  1  0
  6 30  1  0
  7 31  1  0
  8 32  1  0
  9 33  1  0
 11 34  1  0
 12 35  1  0
 14 36  1  0
 15 37  1  0
 16 38  1  0
 17 39  1  0
 18 40  1  0
 19 41  1  0
 19 42  1  0
 20 43  1  0
 22 44  1  0
 22 45  1  0
 23 46  1  0
 23 47  1  0
 24 48  1  0
 24 49  1  0
 25 50  1  0
 25 51  1  0
 26 52  1  0
M  END
$$$$
