
     RDKit          3D

 40 41  0  0  0  0  0  0  0  0999 V2000
   -5.0392    2.2626    1.8290 C   0  0  0  0  0  0  0  0  0  0  0  0
   -4.1096    1.6655    0.8151 C   0  0  0  0  0  0  0  0  0  0  0  0
   -3.2779    0.5951    1.1570 C   0  0  0  0  0  0  0  0  0  0  0  0
   -2.4319    0.0142    0.2045 C   0  0  0  0  0  0  0  0  0  0  0  0
   -2.3999    0.4974   -1.1044 C   0  0  0  0  0  0  0  0  0  0  0  0
   -1.5926   -0.0325   -2.1310 N   0  0  0  0  0  0  0  0  0  0  0  0
   -0.5015   -0.8606   -2.1074 C   0  0  0  0  0  0  0  0  0  0  0  0
   -0.0449   -1.5564   -3.5658 S   0  0  0  0  0  0  0  0  0  0  0  0
    0.1285   -1.0345   -0.8987 N   0  0  0  0  0  0  0  0  0  0  0  0
    1.4171   -1.6634   -0.8616 N   0  0  0  0  0  0  0  0  0  0  0  0
    1.3462   -2.9357   -0.1329 C   0  0  0  0  0  0  0  0  0  0  0  0
    2.3552   -0.7994   -0.2234 C   0  0  0  0  0  0  0  0  0  0  0  0
    1.8833    0.1150    0.6727 N   0  0  0  0  0  0  0  0  0  0  0  0
    2.7948    0.9262    1.2618 C   0  0  0  0  0  0  0  0  0  0  0  0
    2.2993    1.9345    2.2494 C   0  0  0  0  0  0  0  0  0  0  0  0
    4.1469    0.8317    0.9662 C   0  0  0  0  0  0  0  0  0  0  0  0
    4.6410   -0.0526    0.0735 N   0  0  0  0  0  0  0  0  0  0  0  0
    3.7267   -0.8578   -0.5353 C   0  0  0  0  0  0  0  0  0  0  0  0
    4.2597   -1.7901   -1.5818 C   0  0  0  0  0  0  0  0  0  0  0  0
   -3.2653    1.5400   -1.4555 C   0  0  0  0  0  0  0  0  0  0  0  0
   -4.1101    2.1221   -0.5053 C   0  0  0  0  0  0  0  0  0  0  0  0
   -5.2220    3.3210    1.6157 H   0  0  0  0  0  0  0  0  0  0  0  0
   -5.9949    1.7295    1.8206 H   0  0  0  0  0  0  0  0  0  0  0  0
   -4.6096    2.2039    2.8346 H   0  0  0  0  0  0  0  0  0  0  0  0
   -3.2903    0.1926    2.1678 H   0  0  0  0  0  0  0  0  0  0  0  0
   -1.8505   -0.8484    0.5124 H   0  0  0  0  0  0  0  0  0  0  0  0
   -1.8678    0.2085   -3.0772 H   0  0  0  0  0  0  0  0  0  0  0  0
    0.0949   -0.2305   -0.2662 H   0  0  0  0  0  0  0  0  0  0  0  0
    2.3124   -3.4498   -0.1171 H   0  0  0  0  0  0  0  0  0  0  0  0
    0.6366   -3.6076   -0.6290 H   0  0  0  0  0  0  0  0  0  0  0  0
    1.0093   -2.7937    0.9017 H   0  0  0  0  0  0  0  0  0  0  0  0
    1.2114    1.8729    2.3558 H   0  0  0  0  0  0  0  0  0  0  0  0
    2.7483    1.7555    3.2313 H   0  0  0  0  0  0  0  0  0  0  0  0
    2.5519    2.9462    1.9173 H   0  0  0  0  0  0  0  0  0  0  0  0
    4.8806    1.4758    1.4391 H   0  0  0  0  0  0  0  0  0  0  0  0
    4.2256   -2.8247   -1.2306 H   0  0  0  0  0  0  0  0  0  0  0  0
    5.3031   -1.5508   -1.8138 H   0  0  0  0  0  0  0  0  0  0  0  0
    3.6879   -1.6996   -2.5105 H   0  0  0  0  0  0  0  0  0  0  0  0
   -3.2845    1.9257   -2.4719 H   0  0  0  0  0  0  0  0  0  0  0  0
   -4.7677    2.9348   -0.8059 H   0  0  0  0  0  0  0  0  0  0  0  0
  1  2  1  0
  2  3  2  0
  3  4  1  0
  4  5  2  0
  5  6  1  0
  6  7  1  0
  7  8  2  0
  7  9  1  0
  9 10  1  0
 10 11  1  0
 10 12  1  0
 12 13  2  0
 13 14  1  0
 14 15  1  0
 14 16  2  0
 16 17  1  0
 17 18  2  0
 18 19  1  0
  5 20  1  0
 20 21  2  0
 21  2  1  0
 18 12  1  0
  1 22  1  0
  1 23  1  0
  1 24  1  0
  3 25  1  0
  4 26  1  0
  6 27  1  0
  9 28  1  0
 11 29  1  0
 11 30  1  0
 11 31  1  0
 15 32  1  0
 15 33  1  0
 15 34  1  0
 16 35  1  0
 19 36  1  0
 19 37  1  0
 19 38  1  0
 20 39  1  0
 21 40  1  0
M  END
$$$$
