
     RDKit          3D

 48 50  0  0  0  0  0  0  0  0999 V2000
    4.0144    3.1018    0.1079 C   0  0  0  0  0  0  0  0  0  0  0  0
    3.1346    1.8981    0.1513 C   0  0  0  0  0  0  0  0  0  0  0  0
    1.8790    1.8136    0.7178 C   0  0  0  0  0  0  0  0  0  0  0  0
    1.3394    0.5337    0.4416 C   0  0  0  0  0  0  0  0  0  0  0  0
    0.0157    0.0855    0.8510 C   0  0  0  0  0  0  0  0  0  0  0  0
   -0.4303   -1.0667    0.4656 N   0  0  0  0  0  0  0  0  0  0  0  0
   -1.7004   -1.4385    0.8328 N   0  0  0  0  0  0  0  0  0  0  0  0
   -2.7916   -0.5723    0.9589 C   0  0  0  0  0  0  0  0  0  0  0  0
   -2.7303    0.6491    0.8906 O   0  0  0  0  0  0  0  0  0  0  0  0
   -4.0661   -1.3497    1.2218 C   0  0  0  0  0  0  0  0  0  0  0  0
   -5.3449   -0.5195    1.3203 C   0  0  0  0  0  0  0  0  0  0  0  0
   -5.3281    0.5322    2.4274 C   0  0  0  0  0  0  0  0  0  0  0  0
   -6.4091   -1.4550    1.6342 O   0  0  0  0  0  0  0  0  0  0  0  0
   -7.4731   -1.1098    0.7474 C   0  0  0  0  0  0  0  0  0  0  0  0
   -6.7507   -0.6167   -0.4735 C   0  0  0  0  0  0  0  0  0  0  0  0
   -5.6460    0.1070    0.0634 O   0  0  0  0  0  0  0  0  0  0  0  0
    2.3210   -0.1696   -0.2511 C   0  0  0  0  0  0  0  0  0  0  0  0
    2.3172   -1.6145   -0.6417 C   0  0  0  0  0  0  0  0  0  0  0  0
    3.3998    0.6870   -0.4805 N   0  0  0  0  0  0  0  0  0  0  0  0
    4.5597    0.3854   -1.2538 C   0  0  0  0  0  0  0  0  0  0  0  0
    4.4236   -0.2416   -2.4986 C   0  0  0  0  0  0  0  0  0  0  0  0
    5.5566   -0.5282   -3.2645 C   0  0  0  0  0  0  0  0  0  0  0  0
    6.8288   -0.1935   -2.7927 C   0  0  0  0  0  0  0  0  0  0  0  0
    8.1837   -0.5775   -3.7932 Cl  0  0  0  0  0  0  0  0  0  0  0  0
    6.9666    0.4311   -1.5480 C   0  0  0  0  0  0  0  0  0  0  0  0
    8.5080    0.8641   -0.8964 Cl  0  0  0  0  0  0  0  0  0  0  0  0
    5.8333    0.7216   -0.7797 C   0  0  0  0  0  0  0  0  0  0  0  0
    4.4607    3.2439   -0.8809 H   0  0  0  0  0  0  0  0  0  0  0  0
    4.8066    3.0308    0.8588 H   0  0  0  0  0  0  0  0  0  0  0  0
    3.4357    4.0056    0.3294 H   0  0  0  0  0  0  0  0  0  0  0  0
    1.3817    2.6166    1.2495 H   0  0  0  0  0  0  0  0  0  0  0  0
   -0.5406    0.7753    1.5066 H   0  0  0  0  0  0  0  0  0  0  0  0
   -1.8967   -2.4154    0.6337 H   0  0  0  0  0  0  0  0  0  0  0  0
   -3.9289   -1.9260    2.1460 H   0  0  0  0  0  0  0  0  0  0  0  0
   -4.1793   -2.0787    0.4079 H   0  0  0  0  0  0  0  0  0  0  0  0
   -5.0613    0.0864    3.3913 H   0  0  0  0  0  0  0  0  0  0  0  0
   -4.6475    1.3592    2.2109 H   0  0  0  0  0  0  0  0  0  0  0  0
   -6.3232    0.9766    2.5473 H   0  0  0  0  0  0  0  0  0  0  0  0
   -8.1118   -1.9750    0.5543 H   0  0  0  0  0  0  0  0  0  0  0  0
   -8.0676   -0.3177    1.2151 H   0  0  0  0  0  0  0  0  0  0  0  0
   -6.3554   -1.4462   -1.0696 H   0  0  0  0  0  0  0  0  0  0  0  0
   -7.3627    0.0261   -1.1109 H   0  0  0  0  0  0  0  0  0  0  0  0
    1.7798   -1.7542   -1.5846 H   0  0  0  0  0  0  0  0  0  0  0  0
    1.8313   -2.2244    0.1263 H   0  0  0  0  0  0  0  0  0  0  0  0
    3.3266   -2.0230   -0.7436 H   0  0  0  0  0  0  0  0  0  0  0  0
    3.4424   -0.4795   -2.9046 H   0  0  0  0  0  0  0  0  0  0  0  0
    5.4384   -1.0065   -4.2343 H   0  0  0  0  0  0  0  0  0  0  0  0
    5.9611    1.1690    0.2022 H   0  0  0  0  0  0  0  0  0  0  0  0
  1  2  1  0
  2  3  2  0
  3  4  1  0
  4  5  1  0
  5  6  2  3
  6  7  1  0
  7  8  1  0
  8  9  2  0
  8 10  1  0
 10 11  1  0
 11 12  1  0
 11 13  1  0
 13 14  1  0
 14 15  1  0
 15 16  1  0
  4 17  2  0
 17 18  1  0
 17 19  1  0
 19 20  1  0
 20 21  2  0
 21 22  1  0
 22 23  2  0
 23 24  1  0
 23 25  1  0
 25 26  1  0
 25 27  2  0
 19  2  1  0
 27 20  1  0
 16 11  1  0
  1 28  1  0
  1 29  1  0
  1 30  1  0
  3 31  1  0
  5 32  1  0
  7 33  1  0
 10 34  1  0
 10 35  1  0
 12 36  1  0
 12 37  1  0
 12 38  1  0
 14 39  1  0
 14 40  1  0
 15 41  1  0
 15 42  1  0
 18 43  1  0
 18 44  1  0
 18 45  1  0
 21 46  1  0
 22 47  1  0
 27 48  1  0
M  END
$$$$
