
     RDKit          3D

 46 48  0  0  0  0  0  0  0  0999 V2000
   -3.9345    0.3985   -1.0154 C   0  0  0  0  0  0  0  0  0  0  0  0
   -3.6313   -0.9902   -0.6025 C   0  0  0  0  0  0  0  0  0  0  0  0
   -4.1991   -1.9575   -1.3827 O   0  0  0  0  0  0  0  0  0  0  0  0
   -3.7731   -3.1558   -0.9152 C   0  0  0  0  0  0  0  0  0  0  0  0
   -2.9341   -2.9760    0.1582 C   0  0  0  0  0  0  0  0  0  0  0  0
   -2.8661   -1.5681    0.4023 C   0  0  0  0  0  0  0  0  0  0  0  0
   -2.1051   -0.9271    1.4648 C   0  0  0  0  0  0  0  0  0  0  0  0
   -1.1308   -1.4745    1.9754 O   0  0  0  0  0  0  0  0  0  0  0  0
   -2.5670    0.3027    1.8742 N   0  0  0  0  0  0  0  0  0  0  0  0
   -1.8288    1.1215    2.8092 C   0  0  0  0  0  0  0  0  0  0  0  0
   -0.8268    1.9763    2.0777 C   0  0  0  0  0  0  0  0  0  0  0  0
   -1.1870    3.2218    1.5521 C   0  0  0  0  0  0  0  0  0  0  0  0
   -0.2620    3.9761    0.8277 C   0  0  0  0  0  0  0  0  0  0  0  0
    1.0264    3.4867    0.6091 C   0  0  0  0  0  0  0  0  0  0  0  0
    1.4063    2.2385    1.1197 C   0  0  0  0  0  0  0  0  0  0  0  0
    2.7790    1.6747    0.8563 C   0  0  0  0  0  0  0  0  0  0  0  0
    2.7042    0.5555   -0.0553 N   0  0  0  0  0  0  0  0  0  0  0  0
    3.8557   -0.0143   -0.5476 C   0  0  0  0  0  0  0  0  0  0  0  0
    4.9706    0.4500   -0.3192 O   0  0  0  0  0  0  0  0  0  0  0  0
    3.6791   -1.2376   -1.3217 C   0  0  0  0  0  0  0  0  0  0  0  0
    4.7121   -2.1798   -1.6289 C   0  0  0  0  0  0  0  0  0  0  0  0
    4.1344   -3.1787   -2.3724 C   0  0  0  0  0  0  0  0  0  0  0  0
    2.8190   -2.9207   -2.5607 O   0  0  0  0  0  0  0  0  0  0  0  0
    2.5404   -1.7358   -1.9408 C   0  0  0  0  0  0  0  0  0  0  0  0
    1.1423   -1.2727   -2.0948 C   0  0  0  0  0  0  0  0  0  0  0  0
    0.4724    1.4962    1.8573 C   0  0  0  0  0  0  0  0  0  0  0  0
   -4.7369    0.8137   -0.3988 H   0  0  0  0  0  0  0  0  0  0  0  0
   -4.2550    0.4377   -2.0602 H   0  0  0  0  0  0  0  0  0  0  0  0
   -3.0506    1.0378   -0.9123 H   0  0  0  0  0  0  0  0  0  0  0  0
   -4.1443   -4.0245   -1.4414 H   0  0  0  0  0  0  0  0  0  0  0  0
   -2.4418   -3.7548    0.7261 H   0  0  0  0  0  0  0  0  0  0  0  0
   -3.3731    0.7084    1.4272 H   0  0  0  0  0  0  0  0  0  0  0  0
   -1.3276    0.4910    3.5549 H   0  0  0  0  0  0  0  0  0  0  0  0
   -2.5475    1.7509    3.3464 H   0  0  0  0  0  0  0  0  0  0  0  0
   -2.1901    3.6122    1.6995 H   0  0  0  0  0  0  0  0  0  0  0  0
   -0.5461    4.9493    0.4274 H   0  0  0  0  0  0  0  0  0  0  0  0
    1.7305    4.0830    0.0311 H   0  0  0  0  0  0  0  0  0  0  0  0
    3.4503    2.4346    0.4364 H   0  0  0  0  0  0  0  0  0  0  0  0
    3.2309    1.3301    1.7964 H   0  0  0  0  0  0  0  0  0  0  0  0
    1.8775   -0.0245   -0.0018 H   0  0  0  0  0  0  0  0  0  0  0  0
    5.7490   -2.1224   -1.3224 H   0  0  0  0  0  0  0  0  0  0  0  0
    4.5026   -4.0904   -2.8185 H   0  0  0  0  0  0  0  0  0  0  0  0
    1.1027   -0.1932   -2.2709 H   0  0  0  0  0  0  0  0  0  0  0  0
    0.6596   -1.7611   -2.9473 H   0  0  0  0  0  0  0  0  0  0  0  0
    0.5597   -1.5064   -1.1989 H   0  0  0  0  0  0  0  0  0  0  0  0
    0.7537    0.5194    2.2538 H   0  0  0  0  0  0  0  0  0  0  0  0
  1  2  1  0
  2  3  1  0
  3  4  1  0
  4  5  2  0
  5  6  1  0
  6  7  1  0
  7  8  2  0
  7  9  1  0
  9 10  1  0
 10 11  1  0
 11 12  2  0
 12 13  1  0
 13 14  2  0
 14 15  1  0
 15 16  1  0
 16 17  1  0
 17 18  1  0
 18 19  2  0
 18 20  1  0
 20 21  1  0
 21 22  2  0
 22 23  1  0
 23 24  1  0
 24 25  1  0
 15 26  2  0
  6  2  2  0
 26 11  1  0
 24 20  2  0
  1 27  1  0
  1 28  1  0
  1 29  1  0
  4 30  1  0
  5 31  1  0
  9 32  1  0
 10 33  1  0
 10 34  1  0
 12 35  1  0
 13 36  1  0
 14 37  1  0
 16 38  1  0
 16 39  1  0
 17 40  1  0
 21 41  1  0
 22 42  1  0
 25 43  1  0
 25 44  1  0
 25 45  1  0
 26 46  1  0
M  END
$$$$
