
     RDKit          3D

 51 54  0  0  0  0  0  0  0  0999 V2000
   -0.0886    1.2032    2.3763 O   0  0  0  0  0  0  0  0  0  0  0  0
   -0.3847    0.2019    1.7190 C   0  0  0  0  0  0  0  0  0  0  0  0
    0.6612   -0.7901    1.4111 C   0  0  0  0  0  0  0  0  0  0  0  0
    2.0604   -0.5808    1.5478 C   0  0  0  0  0  0  0  0  0  0  0  0
    2.6389   -1.7718    1.1865 C   0  0  0  0  0  0  0  0  0  0  0  0
    4.0256   -2.2803    1.0933 C   0  0  0  0  0  0  0  0  0  0  0  0
    4.9367   -1.1782    1.0605 O   0  0  0  0  0  0  0  0  0  0  0  0
    5.2733   -0.6435   -0.1527 C   0  0  0  0  0  0  0  0  0  0  0  0
    4.6346   -0.8891   -1.3679 C   0  0  0  0  0  0  0  0  0  0  0  0
    5.0801   -0.2610   -2.5339 C   0  0  0  0  0  0  0  0  0  0  0  0
    6.1600    0.6212   -2.4901 C   0  0  0  0  0  0  0  0  0  0  0  0
    6.8014    0.8946   -1.2744 C   0  0  0  0  0  0  0  0  0  0  0  0
    7.9785    1.8356   -1.2223 C   0  0  0  0  0  0  0  0  0  0  0  0
    8.1458    2.4237   -0.0048 F   0  0  0  0  0  0  0  0  0  0  0  0
    9.1551    1.2084   -1.5000 F   0  0  0  0  0  0  0  0  0  0  0  0
    7.8808    2.8588   -2.1173 F   0  0  0  0  0  0  0  0  0  0  0  0
    6.3490    0.2498   -0.1122 C   0  0  0  0  0  0  0  0  0  0  0  0
    1.6582   -2.6537    0.8614 O   0  0  0  0  0  0  0  0  0  0  0  0
    0.4260   -2.0535    1.0154 N   0  0  0  0  0  0  0  0  0  0  0  0
   -1.7015    0.0109    1.2693 N   0  0  0  0  0  0  0  0  0  0  0  0
   -2.7273    0.9379    1.7411 C   0  0  0  0  0  0  0  0  0  0  0  0
   -4.0908    0.2624    1.8476 C   0  0  0  0  0  0  0  0  0  0  0  0
   -4.5393   -0.3862    0.5227 C   0  0  0  0  0  0  0  0  0  0  0  0
   -5.7097    0.3353   -0.1215 C   0  0  0  0  0  0  0  0  0  0  0  0
   -6.8835   -0.3641   -0.4249 C   0  0  0  0  0  0  0  0  0  0  0  0
   -7.9382    0.3161   -1.0156 C   0  0  0  0  0  0  0  0  0  0  0  0
   -7.9053    1.6280   -1.3263 N   0  0  0  0  0  0  0  0  0  0  0  0
   -6.7651    2.2880   -1.0327 C   0  0  0  0  0  0  0  0  0  0  0  0
   -5.6581    1.6964   -0.4417 C   0  0  0  0  0  0  0  0  0  0  0  0
   -3.3798   -0.5459   -0.4743 C   0  0  0  0  0  0  0  0  0  0  0  0
   -2.0914   -0.9495    0.2349 C   0  0  0  0  0  0  0  0  0  0  0  0
    2.5615    0.3197    1.8735 H   0  0  0  0  0  0  0  0  0  0  0  0
    4.1746   -2.9675    0.2531 H   0  0  0  0  0  0  0  0  0  0  0  0
    4.2500   -2.8476    2.0033 H   0  0  0  0  0  0  0  0  0  0  0  0
    3.7787   -1.5523   -1.4469 H   0  0  0  0  0  0  0  0  0  0  0  0
    4.5787   -0.4577   -3.4792 H   0  0  0  0  0  0  0  0  0  0  0  0
    6.4955    1.1021   -3.4084 H   0  0  0  0  0  0  0  0  0  0  0  0
    6.8394    0.4447    0.8417 H   0  0  0  0  0  0  0  0  0  0  0  0
   -2.4483    1.3410    2.7218 H   0  0  0  0  0  0  0  0  0  0  0  0
   -2.7575    1.7811    1.0407 H   0  0  0  0  0  0  0  0  0  0  0  0
   -4.0127   -0.5307    2.6046 H   0  0  0  0  0  0  0  0  0  0  0  0
   -4.8337    0.9719    2.2319 H   0  0  0  0  0  0  0  0  0  0  0  0
   -4.8813   -1.3968    0.7845 H   0  0  0  0  0  0  0  0  0  0  0  0
   -6.9866   -1.4216   -0.2071 H   0  0  0  0  0  0  0  0  0  0  0  0
   -8.8650   -0.1944   -1.2595 H   0  0  0  0  0  0  0  0  0  0  0  0
   -6.7611    3.3422   -1.2938 H   0  0  0  0  0  0  0  0  0  0  0  0
   -4.7777    2.2968   -0.2420 H   0  0  0  0  0  0  0  0  0  0  0  0
   -3.2003    0.3912   -1.0171 H   0  0  0  0  0  0  0  0  0  0  0  0
   -3.6394   -1.2944   -1.2328 H   0  0  0  0  0  0  0  0  0  0  0  0
   -1.2940   -1.0288   -0.5099 H   0  0  0  0  0  0  0  0  0  0  0  0
   -2.2231   -1.9232    0.7186 H   0  0  0  0  0  0  0  0  0  0  0  0
  1  2  2  0
  2  3  1  0
  3  4  1  0
  4  5  2  0
  5  6  1  0
  6  7  1  0
  7  8  1  0
  8  9  2  0
  9 10  1  0
 10 11  2  0
 11 12  1  0
 12 13  1  0
 13 14  1  0
 13 15  1  0
 13 16  1  0
 12 17  2  0
  5 18  1  0
 18 19  1  0
  2 20  1  0
 20 21  1  0
 21 22  1  0
 22 23  1  0
 23 24  1  0
 24 25  2  0
 25 26  1  0
 26 27  2  0
 27 28  1  0
 28 29  2  0
 23 30  1  0
 30 31  1  0
 19  3  2  0
 31 20  1  0
 17  8  1  0
 29 24  1  0
  4 32  1  0
  6 33  1  0
  6 34  1  0
  9 35  1  0
 10 36  1  0
 11 37  1  0
 17 38  1  0
 21 39  1  0
 21 40  1  0
 22 41  1  0
 22 42  1  0
 23 43  1  0
 25 44  1  0
 26 45  1  0
 28 46  1  0
 29 47  1  0
 30 48  1  0
 30 49  1  0
 31 50  1  0
 31 51  1  0
M  END
$$$$
