
     RDKit          3D

 43 44  0  0  0  0  0  0  0  0999 V2000
   -5.5207    2.7269    0.3373 C   0  0  0  0  0  0  0  0  0  0  0  0
   -4.5763    2.6114   -0.8444 C   0  0  0  0  0  0  0  0  0  0  0  0
   -3.4079    1.8692   -0.4733 O   0  0  0  0  0  0  0  0  0  0  0  0
   -3.4937    0.5093   -0.5849 C   0  0  0  0  0  0  0  0  0  0  0  0
   -4.4996   -0.0823   -0.9610 O   0  0  0  0  0  0  0  0  0  0  0  0
   -2.2496   -0.1820   -0.2074 C   0  0  0  0  0  0  0  0  0  0  0  0
   -1.1197    0.5002    0.0373 N   0  0  0  0  0  0  0  0  0  0  0  0
   -0.1339   -0.4239    0.1477 N   0  0  0  0  0  0  0  0  0  0  0  0
    1.2230    0.0265    0.1784 C   0  0  0  0  0  0  0  0  0  0  0  0
    1.4820    1.3847    0.4210 C   0  0  0  0  0  0  0  0  0  0  0  0
    2.7955    1.8633    0.4554 C   0  0  0  0  0  0  0  0  0  0  0  0
    3.8741    1.0064    0.2379 C   0  0  0  0  0  0  0  0  0  0  0  0
    5.0981    1.6086    0.2966 O   0  0  0  0  0  0  0  0  0  0  0  0
    6.2705    0.7991    0.2253 C   0  0  0  0  0  0  0  0  0  0  0  0
    6.7205    0.6292   -1.2153 C   0  0  0  0  0  0  0  0  0  0  0  0
    3.6218   -0.3361   -0.0349 C   0  0  0  0  0  0  0  0  0  0  0  0
    2.3055   -0.8238   -0.0690 C   0  0  0  0  0  0  0  0  0  0  0  0
   -0.6689   -1.7026    0.2175 C   0  0  0  0  0  0  0  0  0  0  0  0
    0.0811   -2.9350    0.5872 C   0  0  0  0  0  0  0  0  0  0  0  0
   -2.0283   -1.5786   -0.0624 C   0  0  0  0  0  0  0  0  0  0  0  0
   -2.9606   -2.6999   -0.1539 C   0  0  0  0  0  0  0  0  0  0  0  0
   -4.3368   -2.5855    0.4488 C   0  0  0  0  0  0  0  0  0  0  0  0
   -2.6131   -3.7598   -0.6773 O   0  0  0  0  0  0  0  0  0  0  0  0
   -6.3886    3.3412    0.0815 H   0  0  0  0  0  0  0  0  0  0  0  0
   -5.0098    3.1767    1.1950 H   0  0  0  0  0  0  0  0  0  0  0  0
   -5.8725    1.7412    0.6576 H   0  0  0  0  0  0  0  0  0  0  0  0
   -4.2398    3.6091   -1.1447 H   0  0  0  0  0  0  0  0  0  0  0  0
   -5.0732    2.1653   -1.7136 H   0  0  0  0  0  0  0  0  0  0  0  0
    0.6712    2.0895    0.5987 H   0  0  0  0  0  0  0  0  0  0  0  0
    2.9758    2.9174    0.6539 H   0  0  0  0  0  0  0  0  0  0  0  0
    7.0531    1.3398    0.7696 H   0  0  0  0  0  0  0  0  0  0  0  0
    6.1534   -0.1593    0.7431 H   0  0  0  0  0  0  0  0  0  0  0  0
    6.8708    1.6060   -1.6870 H   0  0  0  0  0  0  0  0  0  0  0  0
    5.9685    0.1030   -1.8107 H   0  0  0  0  0  0  0  0  0  0  0  0
    7.6580    0.0680   -1.2636 H   0  0  0  0  0  0  0  0  0  0  0  0
    4.4235   -1.0348   -0.2496 H   0  0  0  0  0  0  0  0  0  0  0  0
    2.1752   -1.8640   -0.3425 H   0  0  0  0  0  0  0  0  0  0  0  0
    0.5317   -3.3946   -0.2975 H   0  0  0  0  0  0  0  0  0  0  0  0
   -0.5849   -3.6764    1.0414 H   0  0  0  0  0  0  0  0  0  0  0  0
    0.8545   -2.7312    1.3335 H   0  0  0  0  0  0  0  0  0  0  0  0
   -5.0799   -2.4773   -0.3444 H   0  0  0  0  0  0  0  0  0  0  0  0
   -4.5497   -3.4984    1.0137 H   0  0  0  0  0  0  0  0  0  0  0  0
   -4.4005   -1.7462    1.1459 H   0  0  0  0  0  0  0  0  0  0  0  0
  1  2  1  0
  2  3  1  0
  3  4  1  0
  4  5  2  0
  4  6  1  0
  6  7  2  0
  7  8  1  0
  8  9  1  0
  9 10  2  0
 10 11  1  0
 11 12  2  0
 12 13  1  0
 13 14  1  0
 14 15  1  0
 12 16  1  0
 16 17  2  0
  8 18  1  0
 18 19  1  0
 18 20  2  0
 20 21  1  0
 21 22  1  0
 21 23  2  0
 20  6  1  0
 17  9  1  0
  1 24  1  0
  1 25  1  0
  1 26  1  0
  2 27  1  0
  2 28  1  0
 10 29  1  0
 11 30  1  0
 14 31  1  0
 14 32  1  0
 15 33  1  0
 15 34  1  0
 15 35  1  0
 16 36  1  0
 17 37  1  0
 19 38  1  0
 19 39  1  0
 19 40  1  0
 22 41  1  0
 22 42  1  0
 22 43  1  0
M  END
$$$$
