
     RDKit          3D

 29 31  0  0  0  0  0  0  0  0999 V2000
    6.3526   -0.5275   -0.2949 C   0  0  0  0  0  0  0  0  0  0  0  0
    5.1831   -1.2548    0.0598 O   0  0  0  0  0  0  0  0  0  0  0  0
    3.9828   -0.6091   -0.0718 C   0  0  0  0  0  0  0  0  0  0  0  0
    3.8070    0.6985   -0.5183 C   0  0  0  0  0  0  0  0  0  0  0  0
    2.5229    1.2544   -0.6112 C   0  0  0  0  0  0  0  0  0  0  0  0
    1.3966    0.4889   -0.2516 C   0  0  0  0  0  0  0  0  0  0  0  0
    0.0773    0.9085   -0.2930 N   0  0  0  0  0  0  0  0  0  0  0  0
   -0.7071   -0.0643    0.1058 C   0  0  0  0  0  0  0  0  0  0  0  0
   -2.0644    0.1226    0.1557 N   0  0  0  0  0  0  0  0  0  0  0  0
   -3.0314   -0.8011    0.4947 C   0  0  0  0  0  0  0  0  0  0  0  0
   -2.8039   -1.9742    0.7727 O   0  0  0  0  0  0  0  0  0  0  0  0
   -4.3911   -0.2508    0.4767 C   0  0  0  0  0  0  0  0  0  0  0  0
   -4.8335    1.0631    0.4911 C   0  0  0  0  0  0  0  0  0  0  0  0
   -6.2566    1.1666    0.4597 C   0  0  0  0  0  0  0  0  0  0  0  0
   -6.8622   -0.0675    0.4301 C   0  0  0  0  0  0  0  0  0  0  0  0
   -5.7236   -1.3393    0.4475 S   0  0  0  0  0  0  0  0  0  0  0  0
    0.0614   -1.5096    0.5609 S   0  0  0  0  0  0  0  0  0  0  0  0
    1.5923   -0.8182    0.1934 C   0  0  0  0  0  0  0  0  0  0  0  0
    2.8737   -1.3838    0.2902 C   0  0  0  0  0  0  0  0  0  0  0  0
    6.4791    0.3523    0.3447 H   0  0  0  0  0  0  0  0  0  0  0  0
    7.2147   -1.1821   -0.1346 H   0  0  0  0  0  0  0  0  0  0  0  0
    6.3382   -0.2489   -1.3537 H   0  0  0  0  0  0  0  0  0  0  0  0
    4.6472    1.3227   -0.8055 H   0  0  0  0  0  0  0  0  0  0  0  0
    2.3876    2.2737   -0.9595 H   0  0  0  0  0  0  0  0  0  0  0  0
   -2.3348    1.0429   -0.1519 H   0  0  0  0  0  0  0  0  0  0  0  0
   -4.1840    1.9282    0.5383 H   0  0  0  0  0  0  0  0  0  0  0  0
   -6.8074    2.0997    0.4659 H   0  0  0  0  0  0  0  0  0  0  0  0
   -7.9211   -0.2871    0.4064 H   0  0  0  0  0  0  0  0  0  0  0  0
    3.0049   -2.4041    0.6392 H   0  0  0  0  0  0  0  0  0  0  0  0
  1  2  1  0
  2  3  1  0
  3  4  2  0
  4  5  1  0
  5  6  2  0
  6  7  1  0
  7  8  2  0
  8  9  1  0
  9 10  1  0
 10 11  2  0
 10 12  1  0
 12 13  2  0
 13 14  1  0
 14 15  2  0
 15 16  1  0
  8 17  1  0
 17 18  1  0
 18 19  2  0
 19  3  1  0
 18  6  1  0
 16 12  1  0
  1 20  1  0
  1 21  1  0
  1 22  1  0
  4 23  1  0
  5 24  1  0
  9 25  1  0
 13 26  1  0
 14 27  1  0
 15 28  1  0
 19 29  1  0
M  END
$$$$
