
     RDKit          3D

 53 58  0  0  0  0  0  0  0  0999 V2000
    0.9779    0.0183   -1.5728 C   0  0  0  0  0  0  0  0  0  0  0  0
    0.4892   -0.4959   -0.2079 C   0  0  0  0  0  0  0  0  0  0  0  0
    1.3067   -1.7236    0.2868 C   0  0  0  0  0  0  0  0  0  0  0  0
    0.8166   -2.8168    0.5687 O   0  0  0  0  0  0  0  0  0  0  0  0
    2.6665   -1.6221    0.3951 N   0  0  0  0  0  0  0  0  0  0  0  0
    3.4739   -0.4797    0.4222 C   0  0  0  0  0  0  0  0  0  0  0  0
    4.8232   -0.6731    0.0818 C   0  0  0  0  0  0  0  0  0  0  0  0
    5.7139    0.4009    0.0613 C   0  0  0  0  0  0  0  0  0  0  0  0
    5.2647    1.6662    0.4076 C   0  0  0  0  0  0  0  0  0  0  0  0
    6.1202    2.6957    0.3963 F   0  0  0  0  0  0  0  0  0  0  0  0
    3.9466    1.8731    0.7881 C   0  0  0  0  0  0  0  0  0  0  0  0
    3.0399    0.7994    0.7999 C   0  0  0  0  0  0  0  0  0  0  0  0
    1.7163    1.0776    1.3967 C   0  0  0  0  0  0  0  0  0  0  0  0
    1.6992    1.8094    2.3857 O   0  0  0  0  0  0  0  0  0  0  0  0
    0.5695    0.5166    0.8717 N   0  0  0  0  0  0  0  0  0  0  0  0
   -0.7263    0.7040    1.5470 C   0  0  0  0  0  0  0  0  0  0  0  0
   -1.4647    1.9675    1.1258 C   0  0  0  0  0  0  0  0  0  0  0  0
   -0.8631    3.2360    1.1990 C   0  0  0  0  0  0  0  0  0  0  0  0
   -1.5499    4.3834    0.7944 C   0  0  0  0  0  0  0  0  0  0  0  0
   -0.7759    5.9182    0.8797 Cl  0  0  0  0  0  0  0  0  0  0  0  0
   -2.8529    4.2959    0.3189 C   0  0  0  0  0  0  0  0  0  0  0  0
   -3.4747    3.0518    0.2620 C   0  0  0  0  0  0  0  0  0  0  0  0
   -2.7938    1.9043    0.6796 C   0  0  0  0  0  0  0  0  0  0  0  0
   -3.5041    0.7403    0.5698 O   0  0  0  0  0  0  0  0  0  0  0  0
   -2.9977   -0.3323    1.3590 C   0  0  0  0  0  0  0  0  0  0  0  0
   -1.5107   -0.5579    1.1626 C   0  0  0  0  0  0  0  0  0  0  0  0
   -1.0570   -0.7766   -0.3011 C   0  0  0  0  0  0  0  0  0  0  0  0
   -1.5508   -2.0150   -1.0273 C   0  0  0  0  0  0  0  0  0  0  0  0
   -1.8891   -3.2064   -0.3707 C   0  0  0  0  0  0  0  0  0  0  0  0
   -2.3608   -4.3131   -1.0824 C   0  0  0  0  0  0  0  0  0  0  0  0
   -2.5117   -4.2457   -2.4639 C   0  0  0  0  0  0  0  0  0  0  0  0
   -2.1908   -3.0706   -3.1351 C   0  0  0  0  0  0  0  0  0  0  0  0
   -1.7169   -1.9663   -2.4231 C   0  0  0  0  0  0  0  0  0  0  0  0
    0.9498   -0.7796   -2.3222 H   0  0  0  0  0  0  0  0  0  0  0  0
    0.3540    0.8465   -1.9283 H   0  0  0  0  0  0  0  0  0  0  0  0
    2.0008    0.3968   -1.5687 H   0  0  0  0  0  0  0  0  0  0  0  0
    3.1162   -2.5265    0.4885 H   0  0  0  0  0  0  0  0  0  0  0  0
    5.1913   -1.6588   -0.1961 H   0  0  0  0  0  0  0  0  0  0  0  0
    6.7535    0.2573   -0.2178 H   0  0  0  0  0  0  0  0  0  0  0  0
    3.6382    2.8669    1.1039 H   0  0  0  0  0  0  0  0  0  0  0  0
   -0.5807    0.7426    2.6340 H   0  0  0  0  0  0  0  0  0  0  0  0
    0.1481    3.3487    1.5767 H   0  0  0  0  0  0  0  0  0  0  0  0
   -3.3885    5.1851   -0.0004 H   0  0  0  0  0  0  0  0  0  0  0  0
   -4.4962    2.9719   -0.1015 H   0  0  0  0  0  0  0  0  0  0  0  0
   -3.5607   -1.2291    1.0811 H   0  0  0  0  0  0  0  0  0  0  0  0
   -3.2273   -0.1342    2.4141 H   0  0  0  0  0  0  0  0  0  0  0  0
   -1.1819   -1.3934    1.7933 H   0  0  0  0  0  0  0  0  0  0  0  0
   -1.4914    0.0525   -0.8808 H   0  0  0  0  0  0  0  0  0  0  0  0
   -1.7687   -3.3074    0.7051 H   0  0  0  0  0  0  0  0  0  0  0  0
   -2.6042   -5.2309   -0.5534 H   0  0  0  0  0  0  0  0  0  0  0  0
   -2.8791   -5.1070   -3.0148 H   0  0  0  0  0  0  0  0  0  0  0  0
   -2.3139   -3.0099   -4.2132 H   0  0  0  0  0  0  0  0  0  0  0  0
   -1.4925   -1.0552   -2.9743 H   0  0  0  0  0  0  0  0  0  0  0  0
  1  2  1  0
  2  3  1  0
  3  4  2  0
  3  5  1  0
  5  6  1  0
  6  7  2  0
  7  8  1  0
  8  9  2  0
  9 10  1  0
  9 11  1  0
 11 12  2  0
 12 13  1  0
 13 14  2  0
 13 15  1  0
 15 16  1  0
 16 17  1  0
 17 18  2  0
 18 19  1  0
 19 20  1  0
 19 21  2  0
 21 22  1  0
 22 23  2  0
 23 24  1  0
 24 25  1  0
 25 26  1  0
 26 27  1  0
 27 28  1  0
 28 29  2  0
 29 30  1  0
 30 31  2  0
 31 32  1  0
 32 33  2  0
 15  2  1  0
 26 16  1  0
 33 28  1  0
 27  2  1  0
 12  6  1  0
 23 17  1  0
  1 34  1  0
  1 35  1  0
  1 36  1  0
  5 37  1  0
  7 38  1  0
  8 39  1  0
 11 40  1  0
 16 41  1  0
 18 42  1  0
 21 43  1  0
 22 44  1  0
 25 45  1  0
 25 46  1  0
 26 47  1  0
 27 48  1  0
 29 49  1  0
 30 50  1  0
 31 51  1  0
 32 52  1  0
 33 53  1  0
M  END
$$$$
