
     RDKit          3D

 47 48  0  0  0  0  0  0  0  0999 V2000
    4.2813   -3.1431    0.9573 C   0  0  0  0  0  0  0  0  0  0  0  0
    4.0646   -2.5159   -0.4072 C   0  0  0  0  0  0  0  0  0  0  0  0
    3.2942   -1.3243   -0.2321 O   0  0  0  0  0  0  0  0  0  0  0  0
    3.1363   -0.5704   -1.3523 C   0  0  0  0  0  0  0  0  0  0  0  0
    3.5839   -0.8755   -2.4515 O   0  0  0  0  0  0  0  0  0  0  0  0
    2.3229    0.6259   -1.1163 C   0  0  0  0  0  0  0  0  0  0  0  0
    1.7297    1.3914   -2.1156 C   0  0  0  0  0  0  0  0  0  0  0  0
    1.7682    1.2463   -3.5965 C   0  0  0  0  0  0  0  0  0  0  0  0
    1.0194    2.3985   -1.5184 N   0  0  0  0  0  0  0  0  0  0  0  0
    1.1484    2.3269   -0.1545 C   0  0  0  0  0  0  0  0  0  0  0  0
    0.5068    3.3415    0.7225 C   0  0  0  0  0  0  0  0  0  0  0  0
    1.9548    1.2325    0.1359 C   0  0  0  0  0  0  0  0  0  0  0  0
    2.3787    0.8142    1.4748 C   0  0  0  0  0  0  0  0  0  0  0  0
    3.5746    0.6960    1.7495 O   0  0  0  0  0  0  0  0  0  0  0  0
    1.3142    0.6124    2.5581 C   0  0  0  0  0  0  0  0  0  0  0  0
   -0.0131    0.3500    2.1074 O   0  0  0  0  0  0  0  0  0  0  0  0
   -0.1997   -0.8925    1.6055 C   0  0  0  0  0  0  0  0  0  0  0  0
    0.6323   -1.7852    1.5727 O   0  0  0  0  0  0  0  0  0  0  0  0
   -1.5644   -1.0726    1.0733 C   0  0  0  0  0  0  0  0  0  0  0  0
   -2.4913   -0.1033    1.0210 C   0  0  0  0  0  0  0  0  0  0  0  0
   -3.8483   -0.3005    0.4931 C   0  0  0  0  0  0  0  0  0  0  0  0
   -4.9116    0.3855    1.0951 C   0  0  0  0  0  0  0  0  0  0  0  0
   -6.2162    0.2440    0.6135 C   0  0  0  0  0  0  0  0  0  0  0  0
   -6.4630   -0.5786   -0.4815 C   0  0  0  0  0  0  0  0  0  0  0  0
   -8.0672   -0.7544   -1.0732 Cl  0  0  0  0  0  0  0  0  0  0  0  0
   -5.4163   -1.2547   -1.1026 C   0  0  0  0  0  0  0  0  0  0  0  0
   -4.1113   -1.1097   -0.6208 C   0  0  0  0  0  0  0  0  0  0  0  0
    4.8167   -2.4508    1.6172 H   0  0  0  0  0  0  0  0  0  0  0  0
    4.8583   -4.0682    0.8721 H   0  0  0  0  0  0  0  0  0  0  0  0
    3.3224   -3.3641    1.4392 H   0  0  0  0  0  0  0  0  0  0  0  0
    5.0337   -2.2782   -0.8626 H   0  0  0  0  0  0  0  0  0  0  0  0
    3.5152   -3.2108   -1.0518 H   0  0  0  0  0  0  0  0  0  0  0  0
    1.3989    0.2596   -3.8906 H   0  0  0  0  0  0  0  0  0  0  0  0
    1.1454    1.9980   -4.0923 H   0  0  0  0  0  0  0  0  0  0  0  0
    2.7930    1.3600   -3.9641 H   0  0  0  0  0  0  0  0  0  0  0  0
    0.4921    3.1053   -2.0152 H   0  0  0  0  0  0  0  0  0  0  0  0
    1.1439    3.5736    1.5812 H   0  0  0  0  0  0  0  0  0  0  0  0
   -0.4553    2.9720    1.0920 H   0  0  0  0  0  0  0  0  0  0  0  0
    0.3262    4.2773    0.1812 H   0  0  0  0  0  0  0  0  0  0  0  0
    1.2752    1.5345    3.1492 H   0  0  0  0  0  0  0  0  0  0  0  0
    1.6441   -0.1872    3.2337 H   0  0  0  0  0  0  0  0  0  0  0  0
   -1.7610   -2.0790    0.7185 H   0  0  0  0  0  0  0  0  0  0  0  0
   -2.2760    0.8936    1.3963 H   0  0  0  0  0  0  0  0  0  0  0  0
   -4.7370    1.0283    1.9542 H   0  0  0  0  0  0  0  0  0  0  0  0
   -7.0307    0.7757    1.0975 H   0  0  0  0  0  0  0  0  0  0  0  0
   -5.6061   -1.8926   -1.9620 H   0  0  0  0  0  0  0  0  0  0  0  0
   -3.3069   -1.6315   -1.1339 H   0  0  0  0  0  0  0  0  0  0  0  0
  1  2  1  0
  2  3  1  0
  3  4  1  0
  4  5  2  0
  4  6  1  0
  6  7  2  0
  7  8  1  0
  7  9  1  0
  9 10  1  0
 10 11  1  0
 10 12  2  0
 12 13  1  0
 13 14  2  0
 13 15  1  0
 15 16  1  0
 16 17  1  0
 17 18  2  0
 17 19  1  0
 19 20  2  3
 20 21  1  0
 21 22  2  0
 22 23  1  0
 23 24  2  0
 24 25  1  0
 24 26  1  0
 26 27  2  0
 12  6  1  0
 27 21  1  0
  1 28  1  0
  1 29  1  0
  1 30  1  0
  2 31  1  0
  2 32  1  0
  8 33  1  0
  8 34  1  0
  8 35  1  0
  9 36  1  0
 11 37  1  0
 11 38  1  0
 11 39  1  0
 15 40  1  0
 15 41  1  0
 19 42  1  0
 20 43  1  0
 22 44  1  0
 23 45  1  0
 26 46  1  0
 27 47  1  0
M  END
$$$$
