
     RDKit          3D

 52 54  0  0  0  0  0  0  0  0999 V2000
    3.1557    0.3509   -3.3799 C   0  0  0  0  0  0  0  0  0  0  0  0
    2.8058    1.0160   -2.0504 C   0  0  0  0  0  0  0  0  0  0  0  0
    3.7570    0.6004   -0.9148 C   0  0  0  0  0  0  0  0  0  0  0  0
    5.1867    1.1098   -1.1149 C   0  0  0  0  0  0  0  0  0  0  0  0
    6.0696    0.7559    0.0569 C   0  0  0  0  0  0  0  0  0  0  0  0
    6.1147    1.5855    1.1855 C   0  0  0  0  0  0  0  0  0  0  0  0
    6.9177    1.2516    2.2769 C   0  0  0  0  0  0  0  0  0  0  0  0
    7.6791    0.0846    2.2523 C   0  0  0  0  0  0  0  0  0  0  0  0
    7.6362   -0.7507    1.1374 C   0  0  0  0  0  0  0  0  0  0  0  0
    6.8333   -0.4187    0.0449 C   0  0  0  0  0  0  0  0  0  0  0  0
    1.4292    0.6812   -1.6961 N   0  0  0  0  0  0  0  0  0  0  0  0
    0.6763    1.5091   -0.8860 C   0  0  0  0  0  0  0  0  0  0  0  0
    1.0665    2.5983   -0.4807 O   0  0  0  0  0  0  0  0  0  0  0  0
   -0.6594    0.9948   -0.4732 C   0  0  0  0  0  0  0  0  0  0  0  0
   -1.3781    0.0775   -1.2460 C   0  0  0  0  0  0  0  0  0  0  0  0
   -2.6311   -0.3796   -0.8157 C   0  0  0  0  0  0  0  0  0  0  0  0
   -3.1853    0.0811    0.3804 C   0  0  0  0  0  0  0  0  0  0  0  0
   -4.4360   -0.3350    0.8826 N   0  0  0  0  0  0  0  0  0  0  0  0
   -5.3379   -1.1935    0.2801 C   0  0  0  0  0  0  0  0  0  0  0  0
   -5.2403   -1.7057   -0.8280 O   0  0  0  0  0  0  0  0  0  0  0  0
   -6.5641   -1.4747    1.0778 C   0  0  0  0  0  0  0  0  0  0  0  0
   -6.5180   -1.6197    2.4719 C   0  0  0  0  0  0  0  0  0  0  0  0
   -7.6892   -1.8876    3.1840 C   0  0  0  0  0  0  0  0  0  0  0  0
   -8.9029   -2.0192    2.5078 C   0  0  0  0  0  0  0  0  0  0  0  0
   -8.9413   -1.8925    1.1193 C   0  0  0  0  0  0  0  0  0  0  0  0
  -10.5864   -2.0850    0.2080 Br  0  0  0  0  0  0  0  0  0  0  0  0
   -7.7790   -1.6265    0.3988 C   0  0  0  0  0  0  0  0  0  0  0  0
   -2.4680    1.0114    1.1431 C   0  0  0  0  0  0  0  0  0  0  0  0
   -1.2164    1.4691    0.7183 C   0  0  0  0  0  0  0  0  0  0  0  0
    3.1546   -0.7411   -3.2898 H   0  0  0  0  0  0  0  0  0  0  0  0
    2.4218    0.6172   -4.1489 H   0  0  0  0  0  0  0  0  0  0  0  0
    4.1391    0.6650   -3.7413 H   0  0  0  0  0  0  0  0  0  0  0  0
    2.8594    2.1040   -2.1804 H   0  0  0  0  0  0  0  0  0  0  0  0
    3.3711    0.9858    0.0386 H   0  0  0  0  0  0  0  0  0  0  0  0
    3.7580   -0.4934   -0.8134 H   0  0  0  0  0  0  0  0  0  0  0  0
    5.6247    0.6911   -2.0281 H   0  0  0  0  0  0  0  0  0  0  0  0
    5.1859    2.1988   -1.2497 H   0  0  0  0  0  0  0  0  0  0  0  0
    5.5204    2.4963    1.2204 H   0  0  0  0  0  0  0  0  0  0  0  0
    6.9472    1.9021    3.1469 H   0  0  0  0  0  0  0  0  0  0  0  0
    8.3041   -0.1746    3.1025 H   0  0  0  0  0  0  0  0  0  0  0  0
    8.2278   -1.6621    1.1190 H   0  0  0  0  0  0  0  0  0  0  0  0
    6.8078   -1.0824   -0.8161 H   0  0  0  0  0  0  0  0  0  0  0  0
    1.1548   -0.2892   -1.7711 H   0  0  0  0  0  0  0  0  0  0  0  0
   -0.9985   -0.2765   -2.2002 H   0  0  0  0  0  0  0  0  0  0  0  0
   -3.1527   -1.0928   -1.4470 H   0  0  0  0  0  0  0  0  0  0  0  0
   -4.7232    0.0984    1.7505 H   0  0  0  0  0  0  0  0  0  0  0  0
   -5.5769   -1.5593    3.0123 H   0  0  0  0  0  0  0  0  0  0  0  0
   -7.6559   -2.0060    4.2647 H   0  0  0  0  0  0  0  0  0  0  0  0
   -9.8099   -2.2308    3.0692 H   0  0  0  0  0  0  0  0  0  0  0  0
   -7.8089   -1.5348   -0.6850 H   0  0  0  0  0  0  0  0  0  0  0  0
   -2.8692    1.3988    2.0761 H   0  0  0  0  0  0  0  0  0  0  0  0
   -0.6755    2.1965    1.3211 H   0  0  0  0  0  0  0  0  0  0  0  0
  1  2  1  0
  2  3  1  0
  3  4  1  0
  4  5  1  0
  5  6  2  0
  6  7  1  0
  7  8  2  0
  8  9  1  0
  9 10  2  0
  2 11  1  0
 11 12  1  0
 12 13  2  0
 12 14  1  0
 14 15  2  0
 15 16  1  0
 16 17  2  0
 17 18  1  0
 18 19  1  0
 19 20  2  0
 19 21  1  0
 21 22  2  0
 22 23  1  0
 23 24  2  0
 24 25  1  0
 25 26  1  0
 25 27  2  0
 17 28  1  0
 28 29  2  0
 10  5  1  0
 29 14  1  0
 27 21  1  0
  1 30  1  0
  1 31  1  0
  1 32  1  0
  2 33  1  0
  3 34  1  0
  3 35  1  0
  4 36  1  0
  4 37  1  0
  6 38  1  0
  7 39  1  0
  8 40  1  0
  9 41  1  0
 10 42  1  0
 11 43  1  0
 15 44  1  0
 16 45  1  0
 18 46  1  0
 22 47  1  0
 23 48  1  0
 24 49  1  0
 27 50  1  0
 28 51  1  0
 29 52  1  0
M  END
$$$$
