
     RDKit          3D

 44 46  0  0  0  0  0  0  0  0999 V2000
    7.2614    1.0614   -2.2682 C   0  0  0  0  0  0  0  0  0  0  0  0
    6.0635    0.6094   -1.4858 C   0  0  0  0  0  0  0  0  0  0  0  0
    5.3195    1.5209   -0.7258 C   0  0  0  0  0  0  0  0  0  0  0  0
    4.1845    1.0984   -0.0229 C   0  0  0  0  0  0  0  0  0  0  0  0
    3.7754   -0.2408   -0.0797 C   0  0  0  0  0  0  0  0  0  0  0  0
    2.5573   -0.6432    0.6757 C   0  0  0  0  0  0  0  0  0  0  0  0
    1.8709    0.1252    1.3339 O   0  0  0  0  0  0  0  0  0  0  0  0
    2.3149   -1.9670    0.5182 O   0  0  0  0  0  0  0  0  0  0  0  0
    1.1411   -2.4590    1.1677 C   0  0  0  0  0  0  0  0  0  0  0  0
   -0.1403   -2.0916    0.4175 C   0  0  0  0  0  0  0  0  0  0  0  0
   -0.6496   -2.8338   -0.4172 O   0  0  0  0  0  0  0  0  0  0  0  0
   -0.6683   -0.8667    0.7658 N   0  0  0  0  0  0  0  0  0  0  0  0
   -1.7626   -0.2544    0.0301 C   0  0  0  0  0  0  0  0  0  0  0  0
   -3.0946   -1.0351    0.0282 C   0  0  0  0  0  0  0  0  0  0  0  0
   -3.6036   -1.4089    1.4181 C   0  0  0  0  0  0  0  0  0  0  0  0
   -3.9007   -0.2509    2.2035 O   0  0  0  0  0  0  0  0  0  0  0  0
   -4.6836    0.6244    1.4971 C   0  0  0  0  0  0  0  0  0  0  0  0
   -5.3870    1.5768    2.2337 C   0  0  0  0  0  0  0  0  0  0  0  0
   -6.2109    2.4923    1.5781 C   0  0  0  0  0  0  0  0  0  0  0  0
   -6.3220    2.4588    0.1857 C   0  0  0  0  0  0  0  0  0  0  0  0
   -5.6082    1.5101   -0.5524 C   0  0  0  0  0  0  0  0  0  0  0  0
   -4.7798    0.6014    0.1029 C   0  0  0  0  0  0  0  0  0  0  0  0
   -4.0892   -0.2769   -0.6904 O   0  0  0  0  0  0  0  0  0  0  0  0
    4.5115   -1.1518   -0.8497 C   0  0  0  0  0  0  0  0  0  0  0  0
    5.6460   -0.7268   -1.5504 C   0  0  0  0  0  0  0  0  0  0  0  0
    7.6745    1.9865   -1.8548 H   0  0  0  0  0  0  0  0  0  0  0  0
    8.0540    0.3083   -2.2327 H   0  0  0  0  0  0  0  0  0  0  0  0
    6.9838    1.2383   -3.3120 H   0  0  0  0  0  0  0  0  0  0  0  0
    5.6165    2.5678   -0.6757 H   0  0  0  0  0  0  0  0  0  0  0  0
    3.6218    1.8217    0.5668 H   0  0  0  0  0  0  0  0  0  0  0  0
    1.0923   -2.1171    2.2087 H   0  0  0  0  0  0  0  0  0  0  0  0
    1.2101   -3.5508    1.1994 H   0  0  0  0  0  0  0  0  0  0  0  0
   -0.0233   -0.2270    1.2344 H   0  0  0  0  0  0  0  0  0  0  0  0
   -1.4277   -0.1123   -1.0054 H   0  0  0  0  0  0  0  0  0  0  0  0
   -1.8992    0.7501    0.4446 H   0  0  0  0  0  0  0  0  0  0  0  0
   -2.9641   -1.9622   -0.5401 H   0  0  0  0  0  0  0  0  0  0  0  0
   -2.8626   -2.0018    1.9632 H   0  0  0  0  0  0  0  0  0  0  0  0
   -4.5169   -2.0166    1.3470 H   0  0  0  0  0  0  0  0  0  0  0  0
   -5.3020    1.5969    3.3161 H   0  0  0  0  0  0  0  0  0  0  0  0
   -6.7660    3.2303    2.1532 H   0  0  0  0  0  0  0  0  0  0  0  0
   -6.9638    3.1721   -0.3253 H   0  0  0  0  0  0  0  0  0  0  0  0
   -5.6884    1.4880   -1.6369 H   0  0  0  0  0  0  0  0  0  0  0  0
    4.2135   -2.1957   -0.9182 H   0  0  0  0  0  0  0  0  0  0  0  0
    6.2019   -1.4488   -2.1494 H   0  0  0  0  0  0  0  0  0  0  0  0
  1  2  1  0
  2  3  2  0
  3  4  1  0
  4  5  2  0
  5  6  1  0
  6  7  2  0
  6  8  1  0
  8  9  1  0
  9 10  1  0
 10 11  2  0
 10 12  1  0
 12 13  1  0
 13 14  1  0
 14 15  1  0
 15 16  1  0
 16 17  1  0
 17 18  2  0
 18 19  1  0
 19 20  2  0
 20 21  1  0
 21 22  2  0
 22 23  1  0
  5 24  1  0
 24 25  2  0
 25  2  1  0
 23 14  1  0
 22 17  1  0
  1 26  1  0
  1 27  1  0
  1 28  1  0
  3 29  1  0
  4 30  1  0
  9 31  1  0
  9 32  1  0
 12 33  1  0
 13 34  1  0
 13 35  1  0
 14 36  1  0
 15 37  1  0
 15 38  1  0
 18 39  1  0
 19 40  1  0
 20 41  1  0
 21 42  1  0
 24 43  1  0
 25 44  1  0
M  END
$$$$
