
     RDKit          3D

 60 64  0  0  0  0  0  0  0  0999 V2000
   -8.4458   -1.0403    3.7984 C   0  0  0  0  0  0  0  0  0  0  0  0
   -7.2936   -1.1717    2.8461 C   0  0  0  0  0  0  0  0  0  0  0  0
   -7.2959   -2.1417    1.8419 C   0  0  0  0  0  0  0  0  0  0  0  0
   -6.2151   -2.2478    0.9613 C   0  0  0  0  0  0  0  0  0  0  0  0
   -5.1032   -1.3961    1.0590 C   0  0  0  0  0  0  0  0  0  0  0  0
   -4.0726   -1.5381    0.1190 N   0  0  0  0  0  0  0  0  0  0  0  0
   -2.9516   -0.7779   -0.2013 C   0  0  0  0  0  0  0  0  0  0  0  0
   -2.0956   -1.3660   -1.0216 N   0  0  0  0  0  0  0  0  0  0  0  0
   -1.0345   -0.6331   -1.3247 C   0  0  0  0  0  0  0  0  0  0  0  0
   -0.1272   -1.2348   -2.1725 O   0  0  0  0  0  0  0  0  0  0  0  0
    1.1944   -1.1448   -1.8153 C   0  0  0  0  0  0  0  0  0  0  0  0
    1.6490   -1.2512   -0.5057 C   0  0  0  0  0  0  0  0  0  0  0  0
    3.0214   -1.2550   -0.2747 C   0  0  0  0  0  0  0  0  0  0  0  0
    3.8708   -1.1727   -1.3581 C   0  0  0  0  0  0  0  0  0  0  0  0
    5.2215   -1.2094   -1.0928 O   0  0  0  0  0  0  0  0  0  0  0  0
    6.0193   -1.3410   -2.2758 C   0  0  0  0  0  0  0  0  0  0  0  0
    7.4672   -1.5162   -1.8768 C   0  0  0  0  0  0  0  0  0  0  0  0
    8.4824   -0.8492   -2.5760 C   0  0  0  0  0  0  0  0  0  0  0  0
    9.8224   -1.0269   -2.2298 C   0  0  0  0  0  0  0  0  0  0  0  0
   10.1624   -1.8794   -1.1865 C   0  0  0  0  0  0  0  0  0  0  0  0
    9.1653   -2.5622   -0.4928 C   0  0  0  0  0  0  0  0  0  0  0  0
    7.8258   -2.3863   -0.8394 C   0  0  0  0  0  0  0  0  0  0  0  0
    3.4121   -1.0761   -2.6248 N   0  0  0  0  0  0  0  0  0  0  0  0
    2.0593   -1.0765   -2.8553 N   0  0  0  0  0  0  0  0  0  0  0  0
   -0.7985    0.6110   -0.9257 N   0  0  0  0  0  0  0  0  0  0  0  0
   -1.7154    1.1330   -0.1264 C   0  0  0  0  0  0  0  0  0  0  0  0
   -1.5289    2.4213    0.3471 N   0  0  0  0  0  0  0  0  0  0  0  0
   -0.7335    3.3482   -0.4719 C   0  0  0  0  0  0  0  0  0  0  0  0
   -1.5837    4.5693   -0.8647 C   0  0  0  0  0  0  0  0  0  0  0  0
   -2.1050    5.3005    0.2555 O   0  0  0  0  0  0  0  0  0  0  0  0
   -2.3285    4.4841    1.4148 C   0  0  0  0  0  0  0  0  0  0  0  0
   -2.6534    3.0225    1.0745 C   0  0  0  0  0  0  0  0  0  0  0  0
   -2.7848    0.4516    0.2736 N   0  0  0  0  0  0  0  0  0  0  0  0
   -5.1239   -0.4144    2.0532 C   0  0  0  0  0  0  0  0  0  0  0  0
   -6.1993   -0.3069    2.9438 C   0  0  0  0  0  0  0  0  0  0  0  0
   -8.9366   -0.0700    3.6721 H   0  0  0  0  0  0  0  0  0  0  0  0
   -8.0968   -1.1357    4.8357 H   0  0  0  0  0  0  0  0  0  0  0  0
   -9.1984   -1.8189    3.6292 H   0  0  0  0  0  0  0  0  0  0  0  0
   -8.1362   -2.8243    1.7318 H   0  0  0  0  0  0  0  0  0  0  0  0
   -6.2524   -3.0106    0.1831 H   0  0  0  0  0  0  0  0  0  0  0  0
   -4.0264   -2.4281   -0.3552 H   0  0  0  0  0  0  0  0  0  0  0  0
    0.9644   -1.3483    0.3319 H   0  0  0  0  0  0  0  0  0  0  0  0
    3.4141   -1.3486    0.7320 H   0  0  0  0  0  0  0  0  0  0  0  0
    5.7222   -2.2252   -2.8572 H   0  0  0  0  0  0  0  0  0  0  0  0
    5.9110   -0.4358   -2.8888 H   0  0  0  0  0  0  0  0  0  0  0  0
    8.2389   -0.1851   -3.3974 H   0  0  0  0  0  0  0  0  0  0  0  0
   10.6005   -0.4992   -2.7754 H   0  0  0  0  0  0  0  0  0  0  0  0
   11.2051   -2.0156   -0.9157 H   0  0  0  0  0  0  0  0  0  0  0  0
    9.4282   -3.2316    0.3189 H   0  0  0  0  0  0  0  0  0  0  0  0
    7.0597   -2.9292   -0.2911 H   0  0  0  0  0  0  0  0  0  0  0  0
    0.1223    3.6775    0.1305 H   0  0  0  0  0  0  0  0  0  0  0  0
   -0.3349    2.8967   -1.3894 H   0  0  0  0  0  0  0  0  0  0  0  0
   -0.9928    5.2671   -1.4606 H   0  0  0  0  0  0  0  0  0  0  0  0
   -2.4323    4.2561   -1.4794 H   0  0  0  0  0  0  0  0  0  0  0  0
   -3.1490    4.9363    1.9810 H   0  0  0  0  0  0  0  0  0  0  0  0
   -1.4301    4.5424    2.0386 H   0  0  0  0  0  0  0  0  0  0  0  0
   -3.5581    2.9995    0.4580 H   0  0  0  0  0  0  0  0  0  0  0  0
   -2.8433    2.4750    2.0020 H   0  0  0  0  0  0  0  0  0  0  0  0
   -4.2924    0.2737    2.1718 H   0  0  0  0  0  0  0  0  0  0  0  0
   -6.1702    0.4581    3.7179 H   0  0  0  0  0  0  0  0  0  0  0  0
  1  2  1  0
  2  3  2  0
  3  4  1  0
  4  5  2  0
  5  6  1  0
  6  7  1  0
  7  8  2  0
  8  9  1  0
  9 10  1  0
 10 11  1  0
 11 12  2  0
 12 13  1  0
 13 14  2  0
 14 15  1  0
 15 16  1  0
 16 17  1  0
 17 18  2  0
 18 19  1  0
 19 20  2  0
 20 21  1  0
 21 22  2  0
 14 23  1  0
 23 24  2  0
  9 25  2  0
 25 26  1  0
 26 27  1  0
 27 28  1  0
 28 29  1  0
 29 30  1  0
 30 31  1  0
 31 32  1  0
 26 33  2  0
  5 34  1  0
 34 35  2  0
 35  2  1  0
 33  7  1  0
 24 11  1  0
 32 27  1  0
 22 17  1  0
  1 36  1  0
  1 37  1  0
  1 38  1  0
  3 39  1  0
  4 40  1  0
  6 41  1  0
 12 42  1  0
 13 43  1  0
 16 44  1  0
 16 45  1  0
 18 46  1  0
 19 47  1  0
 20 48  1  0
 21 49  1  0
 22 50  1  0
 28 51  1  0
 28 52  1  0
 29 53  1  0
 29 54  1  0
 31 55  1  0
 31 56  1  0
 32 57  1  0
 32 58  1  0
 34 59  1  0
 35 60  1  0
M  END
$$$$
