
     RDKit          3D

 37 38  0  0  0  0  0  0  0  0999 V2000
    3.5567   -0.1388    1.9534 C   0  0  0  0  0  0  0  0  0  0  0  0
    4.1060    0.6984    0.7949 C   0  0  0  0  0  0  0  0  0  0  0  0
    5.6249    0.8310    0.9309 C   0  0  0  0  0  0  0  0  0  0  0  0
    3.7558    0.0906   -0.5759 C   0  0  0  0  0  0  0  0  0  0  0  0
    2.2886    0.1172   -0.8674 C   0  0  0  0  0  0  0  0  0  0  0  0
    1.4650   -0.8939   -0.6708 N   0  0  0  0  0  0  0  0  0  0  0  0
    0.1703   -0.5849   -1.0343 N   0  0  0  0  0  0  0  0  0  0  0  0
    0.0637    0.6538   -1.4489 C   0  0  0  0  0  0  0  0  0  0  0  0
   -1.2149    1.1740   -1.8888 N   0  0  0  0  0  0  0  0  0  0  0  0
   -2.0127    2.0197   -0.6690 S   0  0  0  0  0  6  0  0  0  0  0  0
   -1.0565    2.8668    0.0161 O   0  0  0  0  0  0  0  0  0  0  0  0
   -3.1817    2.6166   -1.2844 O   0  0  0  0  0  0  0  0  0  0  0  0
   -2.5539    0.7452    0.4930 C   0  0  0  0  0  0  0  0  0  0  0  0
   -3.3467   -0.3322   -0.2038 C   0  0  0  0  0  0  0  0  0  0  0  0
   -2.8187   -1.6248   -0.3384 C   0  0  0  0  0  0  0  0  0  0  0  0
   -3.5428   -2.6261   -0.9877 C   0  0  0  0  0  0  0  0  0  0  0  0
   -4.8086   -2.3527   -1.4991 C   0  0  0  0  0  0  0  0  0  0  0  0
   -5.3544   -1.0799   -1.3548 C   0  0  0  0  0  0  0  0  0  0  0  0
   -4.6316   -0.0774   -0.7059 C   0  0  0  0  0  0  0  0  0  0  0  0
    1.5332    1.5166   -1.5251 S   0  0  0  0  0  0  0  0  0  0  0  0
    3.8547    0.2900    2.9163 H   0  0  0  0  0  0  0  0  0  0  0  0
    3.9306   -1.1676    1.9124 H   0  0  0  0  0  0  0  0  0  0  0  0
    2.4629   -0.1730    1.9370 H   0  0  0  0  0  0  0  0  0  0  0  0
    3.6748    1.7050    0.8692 H   0  0  0  0  0  0  0  0  0  0  0  0
    6.1164   -0.1461    0.8710 H   0  0  0  0  0  0  0  0  0  0  0  0
    5.8917    1.2866    1.8904 H   0  0  0  0  0  0  0  0  0  0  0  0
    6.0327    1.4655    0.1369 H   0  0  0  0  0  0  0  0  0  0  0  0
    4.2896    0.6298   -1.3692 H   0  0  0  0  0  0  0  0  0  0  0  0
    4.1079   -0.9480   -0.6239 H   0  0  0  0  0  0  0  0  0  0  0  0
   -1.8115    0.4366   -2.2659 H   0  0  0  0  0  0  0  0  0  0  0  0
   -1.6635    0.3472    0.9894 H   0  0  0  0  0  0  0  0  0  0  0  0
   -3.1685    1.2399    1.2525 H   0  0  0  0  0  0  0  0  0  0  0  0
   -1.8360   -1.8713    0.0623 H   0  0  0  0  0  0  0  0  0  0  0  0
   -3.1186   -3.6222   -1.0895 H   0  0  0  0  0  0  0  0  0  0  0  0
   -5.3731   -3.1334   -2.0024 H   0  0  0  0  0  0  0  0  0  0  0  0
   -6.3464   -0.8663   -1.7456 H   0  0  0  0  0  0  0  0  0  0  0  0
   -5.0852    0.9080   -0.6021 H   0  0  0  0  0  0  0  0  0  0  0  0
  1  2  1  0
  2  3  1  0
  2  4  1  0
  4  5  1  0
  5  6  2  0
  6  7  1  0
  7  8  2  0
  8  9  1  0
  9 10  1  0
 10 11  2  0
 10 12  2  0
 10 13  1  0
 13 14  1  0
 14 15  2  0
 15 16  1  0
 16 17  2  0
 17 18  1  0
 18 19  2  0
  8 20  1  0
 20  5  1  0
 19 14  1  0
  1 21  1  0
  1 22  1  0
  1 23  1  0
  2 24  1  0
  3 25  1  0
  3 26  1  0
  3 27  1  0
  4 28  1  0
  4 29  1  0
  9 30  1  0
 13 31  1  0
 13 32  1  0
 15 33  1  0
 16 34  1  0
 17 35  1  0
 18 36  1  0
 19 37  1  0
M  END
$$$$
