
     RDKit          3D

 32 34  0  0  0  0  0  0  0  0999 V2000
    3.2524   -0.8701   -2.0329 O   0  0  0  0  0  0  0  0  0  0  0  0
    3.9212   -0.2800   -0.9921 C   0  0  0  0  0  0  0  0  0  0  0  0
    5.3182   -0.2108   -1.0448 C   0  0  0  0  0  0  0  0  0  0  0  0
    6.2923   -0.9126   -2.5154 Br  0  0  0  0  0  0  0  0  0  0  0  0
    6.0368    0.3844   -0.0051 C   0  0  0  0  0  0  0  0  0  0  0  0
    5.3538    0.9124    1.0886 C   0  0  0  0  0  0  0  0  0  0  0  0
    6.3237    1.7244    2.4942 Br  0  0  0  0  0  0  0  0  0  0  0  0
    3.9628    0.8509    1.1583 C   0  0  0  0  0  0  0  0  0  0  0  0
    3.2444    0.2527    0.1162 C   0  0  0  0  0  0  0  0  0  0  0  0
    1.7702    0.2144    0.2439 C   0  0  0  0  0  0  0  0  0  0  0  0
    1.0318   -0.3254   -0.6728 N   0  0  0  0  0  0  0  0  0  0  0  0
   -0.3069   -0.2941   -0.4288 C   0  0  0  0  0  0  0  0  0  0  0  0
   -0.9397    0.2549    0.5923 N   0  0  0  0  0  0  0  0  0  0  0  0
   -2.2989    0.0634    0.4712 C   0  0  0  0  0  0  0  0  0  0  0  0
   -2.6997   -0.6263   -0.6516 C   0  0  0  0  0  0  0  0  0  0  0  0
   -1.3511   -1.0612   -1.5860 S   0  0  0  0  0  0  0  0  0  0  0  0
   -4.1072   -0.9775   -0.9936 C   0  0  0  0  0  0  0  0  0  0  0  0
   -5.0830   -0.1470   -0.1382 C   0  0  0  0  0  0  0  0  0  0  0  0
   -4.6398   -0.0627    1.3338 C   0  0  0  0  0  0  0  0  0  0  0  0
   -3.2573    0.5978    1.4807 C   0  0  0  0  0  0  0  0  0  0  0  0
    2.2904   -0.8417   -1.8396 H   0  0  0  0  0  0  0  0  0  0  0  0
    7.1219    0.4361   -0.0506 H   0  0  0  0  0  0  0  0  0  0  0  0
    3.4451    1.2680    2.0191 H   0  0  0  0  0  0  0  0  0  0  0  0
    1.3503    0.6702    1.1615 H   0  0  0  0  0  0  0  0  0  0  0  0
   -4.3128   -0.8026   -2.0554 H   0  0  0  0  0  0  0  0  0  0  0  0
   -4.2682   -2.0441   -0.7947 H   0  0  0  0  0  0  0  0  0  0  0  0
   -6.0856   -0.5845   -0.2029 H   0  0  0  0  0  0  0  0  0  0  0  0
   -5.1521    0.8696   -0.5467 H   0  0  0  0  0  0  0  0  0  0  0  0
   -5.3776    0.5017    1.9151 H   0  0  0  0  0  0  0  0  0  0  0  0
   -4.6075   -1.0762    1.7537 H   0  0  0  0  0  0  0  0  0  0  0  0
   -2.8745    0.4359    2.4941 H   0  0  0  0  0  0  0  0  0  0  0  0
   -3.3531    1.6802    1.3318 H   0  0  0  0  0  0  0  0  0  0  0  0
  1  2  1  0
  2  3  2  0
  3  4  1  0
  3  5  1  0
  5  6  2  0
  6  7  1  0
  6  8  1  0
  8  9  2  0
  9 10  1  0
 10 11  2  3
 11 12  1  0
 12 13  2  0
 13 14  1  0
 14 15  2  0
 15 16  1  0
 15 17  1  0
 17 18  1  0
 18 19  1  0
 19 20  1  0
  9  2  1  0
 16 12  1  0
 20 14  1  0
  1 21  1  0
  5 22  1  0
  8 23  1  0
 10 24  1  0
 17 25  1  0
 17 26  1  0
 18 27  1  0
 18 28  1  0
 19 29  1  0
 19 30  1  0
 20 31  1  0
 20 32  1  0
M  END
$$$$
