
     RDKit          3D

 62 66  0  0  0  0  0  0  0  0999 V2000
   -0.8187   -5.6901   -0.3776 C   0  0  0  0  0  0  0  0  0  0  0  0
   -1.1267   -4.5350    0.3920 O   0  0  0  0  0  0  0  0  0  0  0  0
   -2.1825   -3.7743   -0.0310 C   0  0  0  0  0  0  0  0  0  0  0  0
   -3.0144   -4.0570   -1.1147 C   0  0  0  0  0  0  0  0  0  0  0  0
   -4.0626   -3.1919   -1.4387 C   0  0  0  0  0  0  0  0  0  0  0  0
   -4.2837   -2.0413   -0.6813 C   0  0  0  0  0  0  0  0  0  0  0  0
   -3.4587   -1.7453    0.4103 C   0  0  0  0  0  0  0  0  0  0  0  0
   -3.6716   -0.5287    1.2028 C   0  0  0  0  0  0  0  0  0  0  0  0
   -5.1068   -0.3980    2.1249 S   0  0  0  0  0  0  0  0  0  0  0  0
   -4.6775    1.1446    2.7449 C   0  0  0  0  0  0  0  0  0  0  0  0
   -5.4287    1.9349    3.6340 C   0  0  0  0  0  0  0  0  0  0  0  0
   -4.9211    3.1758    4.0269 C   0  0  0  0  0  0  0  0  0  0  0  0
   -3.6983    3.6358    3.5533 C   0  0  0  0  0  0  0  0  0  0  0  0
   -3.3322    4.8690    4.0195 O   0  0  0  0  0  0  0  0  0  0  0  0
   -2.1051    5.4014    3.5361 C   0  0  0  0  0  0  0  0  0  0  0  0
   -2.9591    2.8408    2.6726 C   0  0  0  0  0  0  0  0  0  0  0  0
   -3.4417    1.5683    2.2549 C   0  0  0  0  0  0  0  0  0  0  0  0
   -2.8619    0.5846    1.3653 C   0  0  0  0  0  0  0  0  0  0  0  0
   -1.5776    0.7078    0.6846 C   0  0  0  0  0  0  0  0  0  0  0  0
   -1.5237    0.9406   -0.6918 C   0  0  0  0  0  0  0  0  0  0  0  0
   -0.2869    1.0660   -1.3286 C   0  0  0  0  0  0  0  0  0  0  0  0
    0.9036    0.9601   -0.6046 C   0  0  0  0  0  0  0  0  0  0  0  0
    2.0388    1.1073   -1.3517 O   0  0  0  0  0  0  0  0  0  0  0  0
    3.2877    0.8771   -0.6953 C   0  0  0  0  0  0  0  0  0  0  0  0
    4.4394    1.0405   -1.7079 C   0  0  0  0  0  0  0  0  0  0  0  0
    4.4809   -0.0097   -2.7476 N   0  0  0  0  0  0  0  0  0  0  0  0
    5.4193    0.3375   -3.8256 C   0  0  0  0  0  0  0  0  0  0  0  0
    6.7887   -0.1161   -3.3453 C   0  0  0  0  0  0  0  0  0  0  0  0
    6.5041   -1.2216   -2.3387 C   0  0  0  0  0  0  0  0  0  0  0  0
    4.9857   -1.2950   -2.2438 C   0  0  0  0  0  0  0  0  0  0  0  0
    0.8489    0.7329    0.7711 C   0  0  0  0  0  0  0  0  0  0  0  0
   -0.3879    0.6090    1.4142 C   0  0  0  0  0  0  0  0  0  0  0  0
   -2.4106   -2.6207    0.7257 C   0  0  0  0  0  0  0  0  0  0  0  0
    0.0566   -6.1681    0.0727 H   0  0  0  0  0  0  0  0  0  0  0  0
   -0.5587   -5.4222   -1.4071 H   0  0  0  0  0  0  0  0  0  0  0  0
   -1.6418   -6.4117   -0.3518 H   0  0  0  0  0  0  0  0  0  0  0  0
   -2.8754   -4.9411   -1.7276 H   0  0  0  0  0  0  0  0  0  0  0  0
   -4.7074   -3.4144   -2.2852 H   0  0  0  0  0  0  0  0  0  0  0  0
   -5.0992   -1.3744   -0.9517 H   0  0  0  0  0  0  0  0  0  0  0  0
   -6.3881    1.5904    4.0090 H   0  0  0  0  0  0  0  0  0  0  0  0
   -5.4972    3.7927    4.7132 H   0  0  0  0  0  0  0  0  0  0  0  0
   -1.9678    6.3882    3.9888 H   0  0  0  0  0  0  0  0  0  0  0  0
   -2.1328    5.5347    2.4495 H   0  0  0  0  0  0  0  0  0  0  0  0
   -1.2580    4.7764    3.8375 H   0  0  0  0  0  0  0  0  0  0  0  0
   -2.0029    3.1711    2.2818 H   0  0  0  0  0  0  0  0  0  0  0  0
   -2.4363    1.0236   -1.2765 H   0  0  0  0  0  0  0  0  0  0  0  0
   -0.2486    1.2418   -2.4011 H   0  0  0  0  0  0  0  0  0  0  0  0
    3.3068   -0.1190   -0.2404 H   0  0  0  0  0  0  0  0  0  0  0  0
    3.4239    1.6318    0.0892 H   0  0  0  0  0  0  0  0  0  0  0  0
    4.2909    2.0093   -2.2024 H   0  0  0  0  0  0  0  0  0  0  0  0
    5.3894    1.0946   -1.1626 H   0  0  0  0  0  0  0  0  0  0  0  0
    5.4011    1.3971   -4.1029 H   0  0  0  0  0  0  0  0  0  0  0  0
    5.1407   -0.2271   -4.7245 H   0  0  0  0  0  0  0  0  0  0  0  0
    7.3200    0.7070   -2.8536 H   0  0  0  0  0  0  0  0  0  0  0  0
    7.4108   -0.4701   -4.1734 H   0  0  0  0  0  0  0  0  0  0  0  0
    6.9289   -2.1780   -2.6601 H   0  0  0  0  0  0  0  0  0  0  0  0
    6.9456   -0.9661   -1.3688 H   0  0  0  0  0  0  0  0  0  0  0  0
    4.6195   -2.0914   -2.9043 H   0  0  0  0  0  0  0  0  0  0  0  0
    4.6486   -1.5512   -1.2352 H   0  0  0  0  0  0  0  0  0  0  0  0
    1.7466    0.6470    1.3733 H   0  0  0  0  0  0  0  0  0  0  0  0
   -0.4156    0.4272    2.4864 H   0  0  0  0  0  0  0  0  0  0  0  0
   -1.7586   -2.4076    1.5697 H   0  0  0  0  0  0  0  0  0  0  0  0
  1  2  1  0
  2  3  1  0
  3  4  2  0
  4  5  1  0
  5  6  2  0
  6  7  1  0
  7  8  1  0
  8  9  1  0
  9 10  1  0
 10 11  2  0
 11 12  1  0
 12 13  2  0
 13 14  1  0
 14 15  1  0
 13 16  1  0
 16 17  2  0
 17 18  1  0
 18 19  1  0
 19 20  2  0
 20 21  1  0
 21 22  2  0
 22 23  1  0
 23 24  1  0
 24 25  1  0
 25 26  1  0
 26 27  1  0
 27 28  1  0
 28 29  1  0
 29 30  1  0
 22 31  1  0
 31 32  2  0
  7 33  2  0
 33  3  1  0
 18  8  2  0
 32 19  1  0
 17 10  1  0
 30 26  1  0
  1 34  1  0
  1 35  1  0
  1 36  1  0
  4 37  1  0
  5 38  1  0
  6 39  1  0
 11 40  1  0
 12 41  1  0
 15 42  1  0
 15 43  1  0
 15 44  1  0
 16 45  1  0
 20 46  1  0
 21 47  1  0
 24 48  1  0
 24 49  1  0
 25 50  1  0
 25 51  1  0
 27 52  1  0
 27 53  1  0
 28 54  1  0
 28 55  1  0
 29 56  1  0
 29 57  1  0
 30 58  1  0
 30 59  1  0
 31 60  1  0
 32 61  1  0
 33 62  1  0
M  END
$$$$
