
     RDKit          3D

 46 49  0  0  0  0  0  0  0  0999 V2000
    5.7066   -1.3356   -3.5326 O   0  0  0  0  0  0  0  0  0  0  0  0
    5.1490   -0.6525   -2.6613 N   0  0  0  0  0  4  0  0  0  0  0  0
    5.1228    0.5868   -2.6520 O   0  0  0  0  0  1  0  0  0  0  0  0
    4.4730   -1.3596   -1.5667 C   0  0  0  0  0  0  0  0  0  0  0  0
    4.4265   -2.7592   -1.5696 C   0  0  0  0  0  0  0  0  0  0  0  0
    3.7746   -3.4250   -0.5318 C   0  0  0  0  0  0  0  0  0  0  0  0
    3.1759   -2.6998    0.5013 C   0  0  0  0  0  0  0  0  0  0  0  0
    3.2247   -1.2975    0.5156 C   0  0  0  0  0  0  0  0  0  0  0  0
    2.5551   -0.5129    1.6234 C   0  0  0  0  0  0  0  0  0  0  0  0
    1.1938   -0.0154    1.2500 C   0  0  0  0  0  0  0  0  0  0  0  0
   -0.2023   -1.0703    1.2462 S   0  0  0  0  0  0  0  0  0  0  0  0
   -1.2743    0.2692    0.6916 C   0  0  0  0  0  0  0  0  0  0  0  0
   -2.5468    0.1358    0.4696 N   0  0  0  0  0  0  0  0  0  0  0  0
   -3.1852   -1.0974    0.6407 C   0  0  0  0  0  0  0  0  0  0  0  0
   -3.7932   -1.4121    1.8588 C   0  0  0  0  0  0  0  0  0  0  0  0
   -4.4565   -2.6295    2.0248 C   0  0  0  0  0  0  0  0  0  0  0  0
   -4.5270   -3.5337    0.9658 C   0  0  0  0  0  0  0  0  0  0  0  0
   -3.9417   -3.2180   -0.2598 C   0  0  0  0  0  0  0  0  0  0  0  0
   -3.2794   -1.9996   -0.4227 C   0  0  0  0  0  0  0  0  0  0  0  0
   -0.4947    1.4322    0.5768 N   0  0  0  0  0  0  0  0  0  0  0  0
   -1.0837    2.7059    0.3283 C   0  0  0  0  0  0  0  0  0  0  0  0
   -2.0257    2.8813   -0.6983 C   0  0  0  0  0  0  0  0  0  0  0  0
   -2.5913    4.1336   -0.9551 C   0  0  0  0  0  0  0  0  0  0  0  0
   -2.2283    5.2349   -0.1852 C   0  0  0  0  0  0  0  0  0  0  0  0
   -1.3053    5.0843    0.8454 C   0  0  0  0  0  0  0  0  0  0  0  0
   -0.7410    3.8314    1.1006 C   0  0  0  0  0  0  0  0  0  0  0  0
    0.8556    1.2335    0.8842 C   0  0  0  0  0  0  0  0  0  0  0  0
    1.8007    2.2197    0.7308 O   0  0  0  0  0  0  0  0  0  0  0  0
    3.8761   -0.6266   -0.5313 C   0  0  0  0  0  0  0  0  0  0  0  0
    4.8845   -3.3398   -2.3676 H   0  0  0  0  0  0  0  0  0  0  0  0
    3.7268   -4.5119   -0.5282 H   0  0  0  0  0  0  0  0  0  0  0  0
    2.6617   -3.2383    1.2964 H   0  0  0  0  0  0  0  0  0  0  0  0
    3.2105    0.3230    1.9018 H   0  0  0  0  0  0  0  0  0  0  0  0
    2.4921   -1.1286    2.5303 H   0  0  0  0  0  0  0  0  0  0  0  0
   -3.7494   -0.7025    2.6802 H   0  0  0  0  0  0  0  0  0  0  0  0
   -4.9214   -2.8680    2.9775 H   0  0  0  0  0  0  0  0  0  0  0  0
   -5.0451   -4.4807    1.0931 H   0  0  0  0  0  0  0  0  0  0  0  0
   -4.0046   -3.9162   -1.0900 H   0  0  0  0  0  0  0  0  0  0  0  0
   -2.8339   -1.7502   -1.3812 H   0  0  0  0  0  0  0  0  0  0  0  0
   -2.3263    2.0392   -1.3188 H   0  0  0  0  0  0  0  0  0  0  0  0
   -3.3196    4.2434   -1.7548 H   0  0  0  0  0  0  0  0  0  0  0  0
   -2.6733    6.2070   -0.3821 H   0  0  0  0  0  0  0  0  0  0  0  0
   -1.0327    5.9387    1.4599 H   0  0  0  0  0  0  0  0  0  0  0  0
   -0.0476    3.7362    1.9342 H   0  0  0  0  0  0  0  0  0  0  0  0
    1.4119    2.8825    0.1325 H   0  0  0  0  0  0  0  0  0  0  0  0
    3.9082    0.4622   -0.5300 H   0  0  0  0  0  0  0  0  0  0  0  0
  1  2  2  0
  2  3  1  0
  2  4  1  0
  4  5  2  0
  5  6  1  0
  6  7  2  0
  7  8  1  0
  8  9  1  0
  9 10  1  0
 10 11  1  0
 11 12  1  0
 12 13  2  3
 13 14  1  0
 14 15  2  0
 15 16  1  0
 16 17  2  0
 17 18  1  0
 18 19  2  0
 12 20  1  0
 20 21  1  0
 21 22  2  0
 22 23  1  0
 23 24  2  0
 24 25  1  0
 25 26  2  0
 20 27  1  0
 27 28  1  0
  8 29  2  0
 29  4  1  0
 27 10  2  0
 19 14  1  0
 26 21  1  0
  5 30  1  0
  6 31  1  0
  7 32  1  0
  9 33  1  0
  9 34  1  0
 15 35  1  0
 16 36  1  0
 17 37  1  0
 18 38  1  0
 19 39  1  0
 22 40  1  0
 23 41  1  0
 24 42  1  0
 25 43  1  0
 26 44  1  0
 28 45  1  0
 29 46  1  0
M  CHG  2   2   1   3  -1
M  END
$$$$
