
     RDKit          3D

 45 46  0  0  0  0  0  0  0  0999 V2000
    7.9565    0.4549    1.5442 C   0  0  0  0  0  0  0  0  0  0  0  0
    7.3631   -0.4197    0.4541 C   0  0  0  0  0  0  0  0  0  0  0  0
    5.9239   -0.5613    0.5881 N   0  0  0  0  0  0  0  0  0  0  0  0
    5.4450   -1.5370    1.3817 N   0  0  0  0  0  0  0  0  0  0  0  0
    4.1218   -1.4128    1.2748 C   0  0  0  0  0  0  0  0  0  0  0  0
    3.7391   -0.3556    0.4221 C   0  0  0  0  0  0  0  0  0  0  0  0
    2.4050    0.0721    0.0687 C   0  0  0  0  0  0  0  0  0  0  0  0
    1.4008   -0.5648    0.5797 N   0  0  0  0  0  0  0  0  0  0  0  0
    0.1309   -0.1879    0.2222 N   0  0  0  0  0  0  0  0  0  0  0  0
   -0.2582    0.2956   -1.0224 C   0  0  0  0  0  0  0  0  0  0  0  0
    0.4953    0.6174   -1.9394 O   0  0  0  0  0  0  0  0  0  0  0  0
   -1.7756    0.4307   -1.1609 C   0  0  0  0  0  0  0  0  0  0  0  0
   -2.4518   -0.2217   -0.0898 O   0  0  0  0  0  0  0  0  0  0  0  0
   -3.8184   -0.1552   -0.0873 C   0  0  0  0  0  0  0  0  0  0  0  0
   -4.4288   -0.7889    0.9986 C   0  0  0  0  0  0  0  0  0  0  0  0
   -5.8222   -0.8022    1.1357 C   0  0  0  0  0  0  0  0  0  0  0  0
   -6.4653   -1.5219    2.2838 C   0  0  0  0  0  0  0  0  0  0  0  0
   -6.6066   -0.1870    0.1542 C   0  0  0  0  0  0  0  0  0  0  0  0
   -6.0104    0.4645   -0.9329 C   0  0  0  0  0  0  0  0  0  0  0  0
   -6.8624    1.0978   -1.9941 C   0  0  0  0  0  0  0  0  0  0  0  0
   -4.6122    0.4668   -1.0525 C   0  0  0  0  0  0  0  0  0  0  0  0
    4.9395    0.1895   -0.0115 C   0  0  0  0  0  0  0  0  0  0  0  0
    5.2312    1.3222   -0.9276 C   0  0  0  0  0  0  0  0  0  0  0  0
    7.5285    1.4625    1.5208 H   0  0  0  0  0  0  0  0  0  0  0  0
    9.0397    0.5406    1.4147 H   0  0  0  0  0  0  0  0  0  0  0  0
    7.7636    0.0343    2.5368 H   0  0  0  0  0  0  0  0  0  0  0  0
    7.5763   -0.0040   -0.5356 H   0  0  0  0  0  0  0  0  0  0  0  0
    7.7985   -1.4249    0.4875 H   0  0  0  0  0  0  0  0  0  0  0  0
    3.4821   -2.0950    1.8207 H   0  0  0  0  0  0  0  0  0  0  0  0
    2.3128    0.9439   -0.5964 H   0  0  0  0  0  0  0  0  0  0  0  0
   -0.6060   -0.6275    0.7739 H   0  0  0  0  0  0  0  0  0  0  0  0
   -2.0525   -0.0325   -2.1150 H   0  0  0  0  0  0  0  0  0  0  0  0
   -2.0024    1.5031   -1.1604 H   0  0  0  0  0  0  0  0  0  0  0  0
   -3.8080   -1.2810    1.7442 H   0  0  0  0  0  0  0  0  0  0  0  0
   -7.4182   -1.0546    2.5534 H   0  0  0  0  0  0  0  0  0  0  0  0
   -5.8259   -1.4901    3.1723 H   0  0  0  0  0  0  0  0  0  0  0  0
   -6.6470   -2.5672    2.0156 H   0  0  0  0  0  0  0  0  0  0  0  0
   -7.6917   -0.2144    0.2372 H   0  0  0  0  0  0  0  0  0  0  0  0
   -7.8081    1.4565   -1.5743 H   0  0  0  0  0  0  0  0  0  0  0  0
   -6.3561    1.9621   -2.4367 H   0  0  0  0  0  0  0  0  0  0  0  0
   -7.0786    0.3710   -2.7830 H   0  0  0  0  0  0  0  0  0  0  0  0
   -4.1733    0.9589   -1.9146 H   0  0  0  0  0  0  0  0  0  0  0  0
    5.6434    0.9522   -1.8718 H   0  0  0  0  0  0  0  0  0  0  0  0
    5.9523    2.0128   -0.4790 H   0  0  0  0  0  0  0  0  0  0  0  0
    4.3301    1.8975   -1.1582 H   0  0  0  0  0  0  0  0  0  0  0  0
  1  2  1  0
  2  3  1  0
  3  4  1  0
  4  5  2  0
  5  6  1  0
  6  7  1  0
  7  8  2  3
  8  9  1  0
  9 10  1  0
 10 11  2  0
 10 12  1  0
 12 13  1  0
 13 14  1  0
 14 15  2  0
 15 16  1  0
 16 17  1  0
 16 18  2  0
 18 19  1  0
 19 20  1  0
 19 21  2  0
  6 22  2  0
 22 23  1  0
 22  3  1  0
 21 14  1  0
  1 24  1  0
  1 25  1  0
  1 26  1  0
  2 27  1  0
  2 28  1  0
  5 29  1  0
  7 30  1  0
  9 31  1  0
 12 32  1  0
 12 33  1  0
 15 34  1  0
 17 35  1  0
 17 36  1  0
 17 37  1  0
 18 38  1  0
 20 39  1  0
 20 40  1  0
 20 41  1  0
 21 42  1  0
 23 43  1  0
 23 44  1  0
 23 45  1  0
M  END
$$$$
