
     RDKit          3D

 54 57  0  0  0  0  0  0  0  0999 V2000
    6.3793    4.4085    2.1516 C   0  0  0  0  0  0  0  0  0  0  0  0
    6.7329    3.1198    1.6660 O   0  0  0  0  0  0  0  0  0  0  0  0
    5.7135    2.3250    1.2221 C   0  0  0  0  0  0  0  0  0  0  0  0
    6.1062    1.0682    0.7666 C   0  0  0  0  0  0  0  0  0  0  0  0
    5.1606    0.1557    0.2851 C   0  0  0  0  0  0  0  0  0  0  0  0
    3.7903    0.4680    0.2473 C   0  0  0  0  0  0  0  0  0  0  0  0
    2.8065   -0.5132   -0.2614 C   0  0  0  0  0  0  0  0  0  0  0  0
    1.4887   -0.5552    0.1579 C   0  0  0  0  0  0  0  0  0  0  0  0
    0.6387   -1.5144   -0.3967 C   0  0  0  0  0  0  0  0  0  0  0  0
   -0.7725   -1.4583    0.0467 C   0  0  0  0  0  0  0  0  0  0  0  0
   -1.0408   -1.4275    1.2406 O   0  0  0  0  0  0  0  0  0  0  0  0
   -1.7078   -1.3607   -0.9593 N   0  0  0  0  0  0  0  0  0  0  0  0
   -3.1220   -1.2081   -0.6670 C   0  0  0  0  0  0  0  0  0  0  0  0
   -3.4809    0.2258   -0.2301 C   0  0  0  0  0  0  0  0  0  0  0  0
   -4.9306    0.4531   -0.0879 N   0  0  0  0  0  0  0  0  0  0  0  0
   -5.5129   -0.3961    0.9787 C   0  0  0  0  0  0  0  0  0  0  0  0
   -6.8092    0.2009    1.5484 C   0  0  0  0  0  0  0  0  0  0  0  0
   -6.6016    1.4654    2.1928 O   0  0  0  0  0  0  0  0  0  0  0  0
   -5.4938    2.1962    1.6506 C   0  0  0  0  0  0  0  0  0  0  0  0
   -5.2329    1.8799    0.1695 C   0  0  0  0  0  0  0  0  0  0  0  0
    1.1152   -2.4645   -1.3254 C   0  0  0  0  0  0  0  0  0  0  0  0
    0.3534   -3.5261   -1.8806 C   0  0  0  0  0  0  0  0  0  0  0  0
    0.9135   -4.4115   -2.7995 C   0  0  0  0  0  0  0  0  0  0  0  0
    2.2406   -4.2584   -3.1709 C   0  0  0  0  0  0  0  0  0  0  0  0
    3.0002   -3.2293   -2.6105 C   0  0  0  0  0  0  0  0  0  0  0  0
    2.4670   -2.3370   -1.6898 C   0  0  0  0  0  0  0  0  0  0  0  0
    3.2753   -1.3911   -1.1831 N   0  0  0  0  0  0  0  0  0  0  0  0
    3.4165    1.7451    0.7038 C   0  0  0  0  0  0  0  0  0  0  0  0
    4.3631    2.6622    1.1868 C   0  0  0  0  0  0  0  0  0  0  0  0
    5.7190    4.3352    3.0221 H   0  0  0  0  0  0  0  0  0  0  0  0
    5.9269    5.0172    1.3617 H   0  0  0  0  0  0  0  0  0  0  0  0
    7.2982    4.9088    2.4721 H   0  0  0  0  0  0  0  0  0  0  0  0
    7.1574    0.7912    0.7836 H   0  0  0  0  0  0  0  0  0  0  0  0
    5.5058   -0.8171   -0.0625 H   0  0  0  0  0  0  0  0  0  0  0  0
    1.1096    0.1317    0.9077 H   0  0  0  0  0  0  0  0  0  0  0  0
   -1.3989   -1.2380   -1.9163 H   0  0  0  0  0  0  0  0  0  0  0  0
   -3.6645   -1.4767   -1.5799 H   0  0  0  0  0  0  0  0  0  0  0  0
   -3.3851   -1.9298    0.1140 H   0  0  0  0  0  0  0  0  0  0  0  0
   -2.9545    0.4817    0.6985 H   0  0  0  0  0  0  0  0  0  0  0  0
   -3.0929    0.9040   -1.0018 H   0  0  0  0  0  0  0  0  0  0  0  0
   -5.7233   -1.3908    0.5711 H   0  0  0  0  0  0  0  0  0  0  0  0
   -4.8012   -0.5110    1.8071 H   0  0  0  0  0  0  0  0  0  0  0  0
   -7.5576    0.3363    0.7587 H   0  0  0  0  0  0  0  0  0  0  0  0
   -7.2410   -0.4774    2.2914 H   0  0  0  0  0  0  0  0  0  0  0  0
   -4.6078    1.9763    2.2574 H   0  0  0  0  0  0  0  0  0  0  0  0
   -5.7148    3.2614    1.7734 H   0  0  0  0  0  0  0  0  0  0  0  0
   -4.4490    2.5382   -0.2233 H   0  0  0  0  0  0  0  0  0  0  0  0
   -6.1423    2.1171   -0.3971 H   0  0  0  0  0  0  0  0  0  0  0  0
   -0.6813   -3.6854   -1.5836 H   0  0  0  0  0  0  0  0  0  0  0  0
    0.3178   -5.2208   -3.2144 H   0  0  0  0  0  0  0  0  0  0  0  0
    2.6947   -4.9415   -3.8842 H   0  0  0  0  0  0  0  0  0  0  0  0
    4.0452   -3.1245   -2.8957 H   0  0  0  0  0  0  0  0  0  0  0  0
    2.3759    2.0606    0.6775 H   0  0  0  0  0  0  0  0  0  0  0  0
    4.0075    3.6308    1.5220 H   0  0  0  0  0  0  0  0  0  0  0  0
  1  2  1  0
  2  3  1  0
  3  4  2  0
  4  5  1  0
  5  6  2  0
  6  7  1  0
  7  8  2  0
  8  9  1  0
  9 10  1  0
 10 11  2  0
 10 12  1  0
 12 13  1  0
 13 14  1  0
 14 15  1  0
 15 16  1  0
 16 17  1  0
 17 18  1  0
 18 19  1  0
 19 20  1  0
  9 21  2  0
 21 22  1  0
 22 23  2  0
 23 24  1  0
 24 25  2  0
 25 26  1  0
 26 27  2  0
  6 28  1  0
 28 29  2  0
 29  3  1  0
 27  7  1  0
 20 15  1  0
 26 21  1  0
  1 30  1  0
  1 31  1  0
  1 32  1  0
  4 33  1  0
  5 34  1  0
  8 35  1  0
 12 36  1  0
 13 37  1  0
 13 38  1  0
 14 39  1  0
 14 40  1  0
 16 41  1  0
 16 42  1  0
 17 43  1  0
 17 44  1  0
 19 45  1  0
 19 46  1  0
 20 47  1  0
 20 48  1  0
 22 49  1  0
 23 50  1  0
 24 51  1  0
 25 52  1  0
 28 53  1  0
 29 54  1  0
M  END
$$$$
