
     RDKit          3D

 41 42  0  0  0  0  0  0  0  0999 V2000
   -2.8151   -2.7175   -4.2527 C   0  0  0  0  0  0  0  0  0  0  0  0
   -2.0732   -2.7125   -3.0389 O   0  0  0  0  0  0  0  0  0  0  0  0
   -2.7832   -2.5961   -1.8713 C   0  0  0  0  0  0  0  0  0  0  0  0
   -4.1552   -2.3307   -1.7981 C   0  0  0  0  0  0  0  0  0  0  0  0
   -4.7871   -2.1981   -0.5585 C   0  0  0  0  0  0  0  0  0  0  0  0
   -4.0539   -2.3206    0.6172 C   0  0  0  0  0  0  0  0  0  0  0  0
   -2.6877   -2.5846    0.5557 C   0  0  0  0  0  0  0  0  0  0  0  0
   -2.0417   -2.7384   -0.6832 C   0  0  0  0  0  0  0  0  0  0  0  0
   -0.5566   -3.0071   -0.7037 C   0  0  0  0  0  0  0  0  0  0  0  0
    0.1854   -1.7718   -0.8235 N   0  0  0  0  0  0  0  0  0  0  0  0
    0.6734   -1.1106    0.2903 C   0  0  0  0  0  0  0  0  0  0  0  0
    0.6296   -1.5887    1.4196 O   0  0  0  0  0  0  0  0  0  0  0  0
    1.2761    0.2578   -0.0475 C   0  0  0  0  0  0  0  0  0  0  0  0
    1.7609    0.9261    1.1038 O   0  0  0  0  0  0  0  0  0  0  0  0
    2.3202    2.1693    0.9363 C   0  0  0  0  0  0  0  0  0  0  0  0
    2.4597    2.8166   -0.2973 C   0  0  0  0  0  0  0  0  0  0  0  0
    3.0434    4.0832   -0.3685 C   0  0  0  0  0  0  0  0  0  0  0  0
    3.4913    4.7109    0.7895 C   0  0  0  0  0  0  0  0  0  0  0  0
    3.3583    4.0755    2.0255 C   0  0  0  0  0  0  0  0  0  0  0  0
    2.7753    2.8059    2.1097 C   0  0  0  0  0  0  0  0  0  0  0  0
    2.6040    2.1078    3.2790 O   0  0  0  0  0  0  0  0  0  0  0  0
    3.0582    2.7095    4.4816 C   0  0  0  0  0  0  0  0  0  0  0  0
   -3.2927   -1.7475   -4.4246 H   0  0  0  0  0  0  0  0  0  0  0  0
   -2.1113   -2.8905   -5.0725 H   0  0  0  0  0  0  0  0  0  0  0  0
   -3.5486   -3.5304   -4.2671 H   0  0  0  0  0  0  0  0  0  0  0  0
   -4.7644   -2.2113   -2.6877 H   0  0  0  0  0  0  0  0  0  0  0  0
   -5.8529   -1.9891   -0.5121 H   0  0  0  0  0  0  0  0  0  0  0  0
   -4.5412   -2.2048    1.5818 H   0  0  0  0  0  0  0  0  0  0  0  0
   -2.1166   -2.6624    1.4806 H   0  0  0  0  0  0  0  0  0  0  0  0
   -0.2866   -3.6416   -1.5547 H   0  0  0  0  0  0  0  0  0  0  0  0
   -0.2517   -3.5501    0.1984 H   0  0  0  0  0  0  0  0  0  0  0  0
    0.0582   -1.2616   -1.6865 H   0  0  0  0  0  0  0  0  0  0  0  0
    0.4830    0.8509   -0.5193 H   0  0  0  0  0  0  0  0  0  0  0  0
    2.0970    0.0810   -0.7533 H   0  0  0  0  0  0  0  0  0  0  0  0
    2.1255    2.3643   -1.2242 H   0  0  0  0  0  0  0  0  0  0  0  0
    3.1479    4.5798   -1.3299 H   0  0  0  0  0  0  0  0  0  0  0  0
    3.9455    5.6969    0.7330 H   0  0  0  0  0  0  0  0  0  0  0  0
    3.7195    4.5973    2.9050 H   0  0  0  0  0  0  0  0  0  0  0  0
    2.8476    2.0174    5.3026 H   0  0  0  0  0  0  0  0  0  0  0  0
    2.5192    3.6404    4.6860 H   0  0  0  0  0  0  0  0  0  0  0  0
    4.1404    2.8753    4.4569 H   0  0  0  0  0  0  0  0  0  0  0  0
  1  2  1  0
  2  3  1  0
  3  4  2  0
  4  5  1  0
  5  6  2  0
  6  7  1  0
  7  8  2  0
  8  9  1  0
  9 10  1  0
 10 11  1  0
 11 12  2  0
 11 13  1  0
 13 14  1  0
 14 15  1  0
 15 16  2  0
 16 17  1  0
 17 18  2  0
 18 19  1  0
 19 20  2  0
 20 21  1  0
 21 22  1  0
  8  3  1  0
 20 15  1  0
  1 23  1  0
  1 24  1  0
  1 25  1  0
  4 26  1  0
  5 27  1  0
  6 28  1  0
  7 29  1  0
  9 30  1  0
  9 31  1  0
 10 32  1  0
 13 33  1  0
 13 34  1  0
 16 35  1  0
 17 36  1  0
 18 37  1  0
 19 38  1  0
 22 39  1  0
 22 40  1  0
 22 41  1  0
M  END
$$$$
