
     RDKit          3D

 33 34  0  0  0  0  0  0  0  0999 V2000
   -4.7229    0.8460    2.8843 C   0  0  0  0  0  0  0  0  0  0  0  0
   -4.4113    0.2061    1.6523 O   0  0  0  0  0  0  0  0  0  0  0  0
   -3.1495    0.3946    1.1575 C   0  0  0  0  0  0  0  0  0  0  0  0
   -2.1488    1.1653    1.7448 C   0  0  0  0  0  0  0  0  0  0  0  0
   -0.9004    1.2672    1.1287 C   0  0  0  0  0  0  0  0  0  0  0  0
   -0.6454    0.5917   -0.0729 C   0  0  0  0  0  0  0  0  0  0  0  0
    0.7120    0.7452   -0.6562 C   0  0  0  0  0  0  0  0  0  0  0  0
    1.2234    1.8651   -0.6548 O   0  0  0  0  0  0  0  0  0  0  0  0
    1.4032   -0.4832   -1.2082 C   0  0  0  0  0  0  0  0  0  0  0  0
    2.7977   -0.5331   -0.6891 C   0  0  0  0  0  0  0  0  0  0  0  0
    3.1499   -1.1122    0.4412 N   0  0  0  0  0  0  0  0  0  0  0  0
    4.5061   -1.0197    0.6750 N   0  0  0  0  0  0  0  0  0  0  0  0
    5.1338   -0.3800   -0.2887 C   0  0  0  0  0  0  0  0  0  0  0  0
    6.5920   -0.1091   -0.3214 C   0  0  0  0  0  0  0  0  0  0  0  0
    4.1134    0.1382   -1.5694 S   0  0  0  0  0  0  0  0  0  0  0  0
   -1.6520   -0.1677   -0.6878 C   0  0  0  0  0  0  0  0  0  0  0  0
   -1.3491   -0.7486   -1.8908 O   0  0  0  0  0  0  0  0  0  0  0  0
   -2.3872   -1.4568   -2.5600 C   0  0  0  0  0  0  0  0  0  0  0  0
   -2.8971   -0.2639   -0.0544 C   0  0  0  0  0  0  0  0  0  0  0  0
   -4.6619    1.9352    2.7893 H   0  0  0  0  0  0  0  0  0  0  0  0
   -4.0796    0.4818    3.6921 H   0  0  0  0  0  0  0  0  0  0  0  0
   -5.7558    0.5916    3.1408 H   0  0  0  0  0  0  0  0  0  0  0  0
   -2.3033    1.6991    2.6768 H   0  0  0  0  0  0  0  0  0  0  0  0
   -0.1212    1.8723    1.5901 H   0  0  0  0  0  0  0  0  0  0  0  0
    0.8920   -1.3958   -0.8837 H   0  0  0  0  0  0  0  0  0  0  0  0
    1.3713   -0.4451   -2.3020 H   0  0  0  0  0  0  0  0  0  0  0  0
    6.7880    0.9672   -0.3580 H   0  0  0  0  0  0  0  0  0  0  0  0
    7.0762   -0.5087    0.5754 H   0  0  0  0  0  0  0  0  0  0  0  0
    7.0567   -0.5807   -1.1930 H   0  0  0  0  0  0  0  0  0  0  0  0
   -2.7103   -2.3248   -1.9763 H   0  0  0  0  0  0  0  0  0  0  0  0
   -1.9812   -1.8256   -3.5069 H   0  0  0  0  0  0  0  0  0  0  0  0
   -3.2293   -0.7971   -2.7934 H   0  0  0  0  0  0  0  0  0  0  0  0
   -3.7093   -0.8444   -0.4814 H   0  0  0  0  0  0  0  0  0  0  0  0
  1  2  1  0
  2  3  1  0
  3  4  2  0
  4  5  1  0
  5  6  2  0
  6  7  1  0
  7  8  2  0
  7  9  1  0
  9 10  1  0
 10 11  2  0
 11 12  1  0
 12 13  2  0
 13 14  1  0
 13 15  1  0
  6 16  1  0
 16 17  1  0
 17 18  1  0
 16 19  2  0
 19  3  1  0
 15 10  1  0
  1 20  1  0
  1 21  1  0
  1 22  1  0
  4 23  1  0
  5 24  1  0
  9 25  1  0
  9 26  1  0
 14 27  1  0
 14 28  1  0
 14 29  1  0
 18 30  1  0
 18 31  1  0
 18 32  1  0
 19 33  1  0
M  END
$$$$
