
     RDKit          3D

 69 71  0  0  0  0  0  0  0  0999 V2000
   10.0350   -0.1235   -1.4187 C   0  0  0  0  0  0  0  0  0  0  0  0
    9.4622    1.2426   -1.0685 C   0  0  0  0  0  0  0  0  0  0  0  0
    8.9814    1.3584    0.3808 C   0  0  0  0  0  0  0  0  0  0  0  0
    7.8249    0.4361    0.7833 C   0  0  0  0  0  0  0  0  0  0  0  0
    6.4221    1.0341    0.6211 C   0  0  0  0  0  0  0  0  0  0  0  0
    5.9932    1.2511   -0.8296 C   0  0  0  0  0  0  0  0  0  0  0  0
    4.5355    1.7050   -0.9739 C   0  0  0  0  0  0  0  0  0  0  0  0
    3.5194    0.6292   -0.5824 C   0  0  0  0  0  0  0  0  0  0  0  0
    2.0882    1.0826   -0.8696 C   0  0  0  0  0  0  0  0  0  0  0  0
    1.0715    0.0405   -0.4168 C   0  0  0  0  0  0  0  0  0  0  0  0
   -0.2429    0.5178   -0.7512 O   0  0  0  0  0  0  0  0  0  0  0  0
   -1.2584   -0.2695   -0.3071 C   0  0  0  0  0  0  0  0  0  0  0  0
   -1.1325   -1.2832    0.3697 O   0  0  0  0  0  0  0  0  0  0  0  0
   -2.6031    0.3140   -0.7203 C   0  0  0  0  0  0  0  0  0  0  0  0
   -3.7002   -0.6739   -0.5601 N   0  0  0  0  0  0  0  0  0  0  0  0
   -4.1020   -1.2044    0.6253 C   0  0  0  0  0  0  0  0  0  0  0  0
   -3.6583   -0.7800    2.0196 C   0  0  0  0  0  0  0  0  0  0  0  0
   -4.7128   -0.7834    2.9790 O   0  0  0  0  0  0  0  0  0  0  0  0
   -5.6592    0.1991    2.9250 C   0  0  0  0  0  0  0  0  0  0  0  0
   -5.7166    1.2492    2.0080 C   0  0  0  0  0  0  0  0  0  0  0  0
   -6.7686    2.1713    2.0642 C   0  0  0  0  0  0  0  0  0  0  0  0
   -7.7588    2.0463    3.0368 C   0  0  0  0  0  0  0  0  0  0  0  0
   -9.0485    3.1795    3.0926 Cl  0  0  0  0  0  0  0  0  0  0  0  0
   -7.7051    1.0078    3.9597 C   0  0  0  0  0  0  0  0  0  0  0  0
   -6.6556    0.0883    3.9015 C   0  0  0  0  0  0  0  0  0  0  0  0
   -4.9848   -2.1898    0.3367 N   0  0  0  0  0  4  0  0  0  0  0  0
   -5.6000   -3.0720    1.3292 C   0  0  0  0  0  0  0  0  0  0  0  0
   -5.2406   -2.2244   -1.0269 C   0  0  0  0  0  0  0  0  0  0  0  0
   -6.1068   -3.0127   -1.7818 C   0  0  0  0  0  0  0  0  0  0  0  0
   -6.0975   -2.7925   -3.1646 C   0  0  0  0  0  0  0  0  0  0  0  0
   -5.2568   -1.8298   -3.7518 C   0  0  0  0  0  0  0  0  0  0  0  0
   -4.3902   -1.0398   -2.9835 C   0  0  0  0  0  0  0  0  0  0  0  0
   -4.4101   -1.2620   -1.6068 C   0  0  0  0  0  0  0  0  0  0  0  0
   10.4825   -0.0956   -2.4178 H   0  0  0  0  0  0  0  0  0  0  0  0
   10.8141   -0.4189   -0.7083 H   0  0  0  0  0  0  0  0  0  0  0  0
    9.2608   -0.8960   -1.4278 H   0  0  0  0  0  0  0  0  0  0  0  0
   10.2497    1.9919   -1.2231 H   0  0  0  0  0  0  0  0  0  0  0  0
    8.6616    1.4902   -1.7712 H   0  0  0  0  0  0  0  0  0  0  0  0
    8.7132    2.4017    0.5889 H   0  0  0  0  0  0  0  0  0  0  0  0
    9.8361    1.1318    1.0321 H   0  0  0  0  0  0  0  0  0  0  0  0
    7.9461    0.2136    1.8522 H   0  0  0  0  0  0  0  0  0  0  0  0
    7.8799   -0.5296    0.2715 H   0  0  0  0  0  0  0  0  0  0  0  0
    6.3603    1.9818    1.1691 H   0  0  0  0  0  0  0  0  0  0  0  0
    5.7237    0.3469    1.1112 H   0  0  0  0  0  0  0  0  0  0  0  0
    6.1512    0.3349   -1.4099 H   0  0  0  0  0  0  0  0  0  0  0  0
    6.6197    2.0302   -1.2745 H   0  0  0  0  0  0  0  0  0  0  0  0
    4.3701    2.6078   -0.3729 H   0  0  0  0  0  0  0  0  0  0  0  0
    4.3692    1.9875   -2.0214 H   0  0  0  0  0  0  0  0  0  0  0  0
    3.6115    0.3956    0.4840 H   0  0  0  0  0  0  0  0  0  0  0  0
    3.7276   -0.2941   -1.1367 H   0  0  0  0  0  0  0  0  0  0  0  0
    1.9589    1.2787   -1.9414 H   0  0  0  0  0  0  0  0  0  0  0  0
    1.8804    2.0331   -0.3624 H   0  0  0  0  0  0  0  0  0  0  0  0
    1.1460   -0.1094    0.6670 H   0  0  0  0  0  0  0  0  0  0  0  0
    1.2473   -0.9107   -0.9326 H   0  0  0  0  0  0  0  0  0  0  0  0
   -2.8284    1.1850   -0.0986 H   0  0  0  0  0  0  0  0  0  0  0  0
   -2.5472    0.6288   -1.7650 H   0  0  0  0  0  0  0  0  0  0  0  0
   -2.9290   -1.5388    2.3173 H   0  0  0  0  0  0  0  0  0  0  0  0
   -3.1573    0.1892    1.9653 H   0  0  0  0  0  0  0  0  0  0  0  0
   -4.9713    1.3982    1.2375 H   0  0  0  0  0  0  0  0  0  0  0  0
   -6.8115    2.9898    1.3488 H   0  0  0  0  0  0  0  0  0  0  0  0
   -8.4700    0.9096    4.7262 H   0  0  0  0  0  0  0  0  0  0  0  0
   -6.6171   -0.7182    4.6313 H   0  0  0  0  0  0  0  0  0  0  0  0
   -6.5192   -2.6077    1.6942 H   0  0  0  0  0  0  0  0  0  0  0  0
   -4.9085   -3.2481    2.1564 H   0  0  0  0  0  0  0  0  0  0  0  0
   -5.8338   -4.0400    0.8781 H   0  0  0  0  0  0  0  0  0  0  0  0
   -6.7523   -3.7538   -1.3278 H   0  0  0  0  0  0  0  0  0  0  0  0
   -6.7564   -3.3825   -3.8030 H   0  0  0  0  0  0  0  0  0  0  0  0
   -5.2827   -1.6958   -4.8340 H   0  0  0  0  0  0  0  0  0  0  0  0
   -3.7496   -0.2995   -3.4455 H   0  0  0  0  0  0  0  0  0  0  0  0
  1  2  1  0
  2  3  1  0
  3  4  1  0
  4  5  1  0
  5  6  1  0
  6  7  1  0
  7  8  1  0
  8  9  1  0
  9 10  1  0
 10 11  1  0
 11 12  1  0
 12 13  2  0
 12 14  1  0
 14 15  1  0
 15 16  1  0
 16 17  1  0
 17 18  1  0
 18 19  1  0
 19 20  2  0
 20 21  1  0
 21 22  2  0
 22 23  1  0
 22 24  1  0
 24 25  2  0
 16 26  2  0
 26 27  1  0
 26 28  1  0
 28 29  2  0
 29 30  1  0
 30 31  2  0
 31 32  1  0
 32 33  2  0
 33 15  1  0
 25 19  1  0
 33 28  1  0
  1 34  1  0
  1 35  1  0
  1 36  1  0
  2 37  1  0
  2 38  1  0
  3 39  1  0
  3 40  1  0
  4 41  1  0
  4 42  1  0
  5 43  1  0
  5 44  1  0
  6 45  1  0
  6 46  1  0
  7 47  1  0
  7 48  1  0
  8 49  1  0
  8 50  1  0
  9 51  1  0
  9 52  1  0
 10 53  1  0
 10 54  1  0
 14 55  1  0
 14 56  1  0
 17 57  1  0
 17 58  1  0
 20 59  1  0
 21 60  1  0
 24 61  1  0
 25 62  1  0
 27 63  1  0
 27 64  1  0
 27 65  1  0
 29 66  1  0
 30 67  1  0
 31 68  1  0
 32 69  1  0
M  CHG  1  26   1
M  END
$$$$
