
     RDKit          3D

 37 38  0  0  0  0  0  0  0  0999 V2000
    6.1045   -0.0329    1.2696 C   0  0  0  0  0  0  0  0  0  0  0  0
    4.5765    0.0250    1.2004 C   0  0  0  0  0  0  0  0  0  0  0  0
    4.0797    1.3174    1.8541 C   0  0  0  0  0  0  0  0  0  0  0  0
    4.1142   -0.0969   -0.2633 C   0  0  0  0  0  0  0  0  0  0  0  0
    2.6355   -0.2887   -0.3843 C   0  0  0  0  0  0  0  0  0  0  0  0
    1.9783   -1.3469    0.0464 N   0  0  0  0  0  0  0  0  0  0  0  0
    0.6220   -1.2480   -0.1955 N   0  0  0  0  0  0  0  0  0  0  0  0
    0.3100   -0.1099   -0.7692 C   0  0  0  0  0  0  0  0  0  0  0  0
   -1.0744    0.1348   -1.1543 N   0  0  0  0  0  0  0  0  0  0  0  0
   -1.7484    1.4018   -0.2623 S   0  0  0  0  0  6  0  0  0  0  0  0
   -1.9249    0.9376    1.0977 O   0  0  0  0  0  0  0  0  0  0  0  0
   -1.0069    2.6154   -0.5390 O   0  0  0  0  0  0  0  0  0  0  0  0
   -3.3671    1.5911   -1.0248 C   0  0  0  0  0  0  0  0  0  0  0  0
   -4.0612    0.2596   -1.1533 C   0  0  0  0  0  0  0  0  0  0  0  0
   -4.6377   -0.3613   -0.0360 C   0  0  0  0  0  0  0  0  0  0  0  0
   -5.2585   -1.6048   -0.1590 C   0  0  0  0  0  0  0  0  0  0  0  0
   -5.3157   -2.2378   -1.3985 C   0  0  0  0  0  0  0  0  0  0  0  0
   -4.7545   -1.6275   -2.5179 C   0  0  0  0  0  0  0  0  0  0  0  0
   -4.1318   -0.3844   -2.3981 C   0  0  0  0  0  0  0  0  0  0  0  0
    1.6414    0.8860   -1.1522 S   0  0  0  0  0  0  0  0  0  0  0  0
    6.4498    0.0252    2.3073 H   0  0  0  0  0  0  0  0  0  0  0  0
    6.4779   -0.9717    0.8471 H   0  0  0  0  0  0  0  0  0  0  0  0
    6.5594    0.7943    0.7140 H   0  0  0  0  0  0  0  0  0  0  0  0
    4.1826   -0.8217    1.7777 H   0  0  0  0  0  0  0  0  0  0  0  0
    2.9867    1.3436    1.9046 H   0  0  0  0  0  0  0  0  0  0  0  0
    4.4553    1.4017    2.8796 H   0  0  0  0  0  0  0  0  0  0  0  0
    4.4166    2.1989    1.2980 H   0  0  0  0  0  0  0  0  0  0  0  0
    4.5965   -0.9680   -0.7256 H   0  0  0  0  0  0  0  0  0  0  0  0
    4.4470    0.7783   -0.8353 H   0  0  0  0  0  0  0  0  0  0  0  0
   -1.5848   -0.7283   -0.9466 H   0  0  0  0  0  0  0  0  0  0  0  0
   -3.2166    2.0619   -2.0019 H   0  0  0  0  0  0  0  0  0  0  0  0
   -3.9493    2.2780   -0.4021 H   0  0  0  0  0  0  0  0  0  0  0  0
   -4.6009    0.1126    0.9446 H   0  0  0  0  0  0  0  0  0  0  0  0
   -5.6971   -2.0808    0.7149 H   0  0  0  0  0  0  0  0  0  0  0  0
   -5.8005   -3.2064   -1.4920 H   0  0  0  0  0  0  0  0  0  0  0  0
   -4.8037   -2.1209   -3.4857 H   0  0  0  0  0  0  0  0  0  0  0  0
   -3.6999    0.0735   -3.2865 H   0  0  0  0  0  0  0  0  0  0  0  0
  1  2  1  0
  2  3  1  0
  2  4  1  0
  4  5  1  0
  5  6  2  0
  6  7  1  0
  7  8  2  0
  8  9  1  0
  9 10  1  0
 10 11  2  0
 10 12  2  0
 10 13  1  0
 13 14  1  0
 14 15  2  0
 15 16  1  0
 16 17  2  0
 17 18  1  0
 18 19  2  0
  8 20  1  0
 20  5  1  0
 19 14  1  0
  1 21  1  0
  1 22  1  0
  1 23  1  0
  2 24  1  0
  3 25  1  0
  3 26  1  0
  3 27  1  0
  4 28  1  0
  4 29  1  0
  9 30  1  0
 13 31  1  0
 13 32  1  0
 15 33  1  0
 16 34  1  0
 17 35  1  0
 18 36  1  0
 19 37  1  0
M  END
$$$$
