
     RDKit          3D

 44 46  0  0  0  0  0  0  0  0999 V2000
    3.1536   -2.4035    2.2412 C   0  0  0  0  0  0  0  0  0  0  0  0
    2.2626   -1.5157    1.4402 C   0  0  0  0  0  0  0  0  0  0  0  0
    0.8969   -1.3847    1.5684 C   0  0  0  0  0  0  0  0  0  0  0  0
    0.4118   -0.5305    0.5418 C   0  0  0  0  0  0  0  0  0  0  0  0
   -1.0158   -0.2190    0.3506 C   0  0  0  0  0  0  0  0  0  0  0  0
   -1.8355   -0.5567    1.2096 O   0  0  0  0  0  0  0  0  0  0  0  0
   -1.4802    0.4513   -0.9432 C   0  0  0  0  0  0  0  0  0  0  0  0
   -2.9044    0.4913   -1.0644 O   0  0  0  0  0  0  0  0  0  0  0  0
   -3.5049    1.4693   -0.3445 C   0  0  0  0  0  0  0  0  0  0  0  0
   -2.9215    2.3202    0.3149 O   0  0  0  0  0  0  0  0  0  0  0  0
   -4.9719    1.3464   -0.4116 C   0  0  0  0  0  0  0  0  0  0  0  0
   -5.6815    1.7145    0.6730 C   0  0  0  0  0  0  0  0  0  0  0  0
   -7.1215    1.5978    0.7053 C   0  0  0  0  0  0  0  0  0  0  0  0
   -7.7712    1.1118   -0.3578 C   0  0  0  0  0  0  0  0  0  0  0  0
   -7.0749    0.7397   -1.4777 N   0  0  0  0  0  0  0  0  0  0  0  0
   -5.7035    0.8358   -1.6073 C   0  0  0  0  0  0  0  0  0  0  0  0
   -5.1538    0.5403   -2.6632 O   0  0  0  0  0  0  0  0  0  0  0  0
    1.5360   -0.0838   -0.1530 C   0  0  0  0  0  0  0  0  0  0  0  0
    1.6454    0.9889   -1.1913 C   0  0  0  0  0  0  0  0  0  0  0  0
    2.6602   -0.7528    0.3501 N   0  0  0  0  0  0  0  0  0  0  0  0
    3.9816   -0.6891   -0.1841 C   0  0  0  0  0  0  0  0  0  0  0  0
    5.0821   -0.5151    0.6662 C   0  0  0  0  0  0  0  0  0  0  0  0
    6.3713   -0.4616    0.1319 C   0  0  0  0  0  0  0  0  0  0  0  0
    6.5535   -0.5856   -1.2408 C   0  0  0  0  0  0  0  0  0  0  0  0
    7.7916   -0.5349   -1.7487 F   0  0  0  0  0  0  0  0  0  0  0  0
    5.4705   -0.7604   -2.0946 C   0  0  0  0  0  0  0  0  0  0  0  0
    4.1783   -0.8119   -1.5684 C   0  0  0  0  0  0  0  0  0  0  0  0
    3.7011   -1.8277    2.9931 H   0  0  0  0  0  0  0  0  0  0  0  0
    3.8632   -2.9451    1.6086 H   0  0  0  0  0  0  0  0  0  0  0  0
    2.5628   -3.1566    2.7747 H   0  0  0  0  0  0  0  0  0  0  0  0
    0.2859   -1.8891    2.3095 H   0  0  0  0  0  0  0  0  0  0  0  0
   -1.0751    1.4631   -1.0208 H   0  0  0  0  0  0  0  0  0  0  0  0
   -1.1111   -0.1380   -1.7886 H   0  0  0  0  0  0  0  0  0  0  0  0
   -5.1910    2.0918    1.5673 H   0  0  0  0  0  0  0  0  0  0  0  0
   -7.6501    1.9011    1.6033 H   0  0  0  0  0  0  0  0  0  0  0  0
   -8.8500    0.9975   -0.3865 H   0  0  0  0  0  0  0  0  0  0  0  0
   -7.5666    0.3902   -2.2917 H   0  0  0  0  0  0  0  0  0  0  0  0
    1.3250    0.6134   -2.1675 H   0  0  0  0  0  0  0  0  0  0  0  0
    2.6576    1.3913   -1.2853 H   0  0  0  0  0  0  0  0  0  0  0  0
    1.0230    1.8460   -0.9191 H   0  0  0  0  0  0  0  0  0  0  0  0
    4.9543   -0.3769    1.7362 H   0  0  0  0  0  0  0  0  0  0  0  0
    7.2329   -0.3164    0.7762 H   0  0  0  0  0  0  0  0  0  0  0  0
    5.6401   -0.8631   -3.1618 H   0  0  0  0  0  0  0  0  0  0  0  0
    3.3434   -0.9833   -2.2434 H   0  0  0  0  0  0  0  0  0  0  0  0
  1  2  1  0
  2  3  2  0
  3  4  1  0
  4  5  1  0
  5  6  2  0
  5  7  1  0
  7  8  1  0
  8  9  1  0
  9 10  2  0
  9 11  1  0
 11 12  2  0
 12 13  1  0
 13 14  2  0
 14 15  1  0
 15 16  1  0
 16 17  2  0
  4 18  2  0
 18 19  1  0
 18 20  1  0
 20 21  1  0
 21 22  2  0
 22 23  1  0
 23 24  2  0
 24 25  1  0
 24 26  1  0
 26 27  2  0
 20  2  1  0
 27 21  1  0
 16 11  1  0
  1 28  1  0
  1 29  1  0
  1 30  1  0
  3 31  1  0
  7 32  1  0
  7 33  1  0
 12 34  1  0
 13 35  1  0
 14 36  1  0
 15 37  1  0
 19 38  1  0
 19 39  1  0
 19 40  1  0
 22 41  1  0
 23 42  1  0
 26 43  1  0
 27 44  1  0
M  END
$$$$
