
     RDKit          3D

 37 40  0  0  0  0  0  0  0  0999 V2000
    2.7647   -0.3846    1.4959 O   0  0  0  0  0  0  0  0  0  0  0  0
    2.1254   -0.0426    0.5121 C   0  0  0  0  0  0  0  0  0  0  0  0
    2.5142    0.7751   -0.5212 N   0  0  0  0  0  0  0  0  0  0  0  0
    3.7197    1.4113   -0.6623 C   0  0  0  0  0  0  0  0  0  0  0  0
    3.9697    2.1459   -1.7219 N   0  0  0  0  0  0  0  0  0  0  0  0
    5.2417    2.6768   -1.6231 C   0  0  0  0  0  0  0  0  0  0  0  0
    5.9376    2.3389   -0.4831 C   0  0  0  0  0  0  0  0  0  0  0  0
    4.9655    1.3230    0.4958 S   0  0  0  0  0  0  0  0  0  0  0  0
    0.7419   -0.5523    0.3614 C   0  0  0  0  0  0  0  0  0  0  0  0
   -0.2912    0.3880    0.3315 C   0  0  0  0  0  0  0  0  0  0  0  0
   -1.5913   -0.0637    0.1816 C   0  0  0  0  0  0  0  0  0  0  0  0
   -2.7610    0.8401    0.1395 C   0  0  0  0  0  0  0  0  0  0  0  0
   -2.6833    2.1480   -0.3757 C   0  0  0  0  0  0  0  0  0  0  0  0
   -3.8016    2.9890   -0.4012 C   0  0  0  0  0  0  0  0  0  0  0  0
   -5.0254    2.5394    0.0849 C   0  0  0  0  0  0  0  0  0  0  0  0
   -5.1338    1.2487    0.5915 C   0  0  0  0  0  0  0  0  0  0  0  0
   -4.0148    0.4107    0.6151 C   0  0  0  0  0  0  0  0  0  0  0  0
   -1.8658   -1.3873    0.0725 N   0  0  0  0  0  0  0  0  0  0  0  0
   -0.8717   -2.2915    0.1138 C   0  0  0  0  0  0  0  0  0  0  0  0
   -1.1979   -3.6365   -0.0011 C   0  0  0  0  0  0  0  0  0  0  0  0
   -0.2259   -4.6392    0.0264 C   0  0  0  0  0  0  0  0  0  0  0  0
    1.1102   -4.2964    0.1728 C   0  0  0  0  0  0  0  0  0  0  0  0
    1.4639   -2.9537    0.2889 C   0  0  0  0  0  0  0  0  0  0  0  0
    0.4792   -1.9336    0.2617 C   0  0  0  0  0  0  0  0  0  0  0  0
    1.8986    0.9266   -1.3083 H   0  0  0  0  0  0  0  0  0  0  0  0
    5.6160    3.3104   -2.4181 H   0  0  0  0  0  0  0  0  0  0  0  0
    6.9350    2.6294   -0.1870 H   0  0  0  0  0  0  0  0  0  0  0  0
   -0.0759    1.4435    0.4599 H   0  0  0  0  0  0  0  0  0  0  0  0
   -1.7516    2.5309   -0.7848 H   0  0  0  0  0  0  0  0  0  0  0  0
   -3.7158    3.9939   -0.8069 H   0  0  0  0  0  0  0  0  0  0  0  0
   -5.8946    3.1913    0.0638 H   0  0  0  0  0  0  0  0  0  0  0  0
   -6.0874    0.8877    0.9681 H   0  0  0  0  0  0  0  0  0  0  0  0
   -4.1249   -0.5965    1.0157 H   0  0  0  0  0  0  0  0  0  0  0  0
   -2.2438   -3.9135   -0.1158 H   0  0  0  0  0  0  0  0  0  0  0  0
   -0.5186   -5.6821   -0.0636 H   0  0  0  0  0  0  0  0  0  0  0  0
    1.8758   -5.0676    0.2020 H   0  0  0  0  0  0  0  0  0  0  0  0
    2.5174   -2.7074    0.4133 H   0  0  0  0  0  0  0  0  0  0  0  0
  1  2  2  0
  2  3  1  0
  3  4  1  0
  4  5  2  0
  5  6  1  0
  6  7  2  0
  7  8  1  0
  2  9  1  0
  9 10  2  0
 10 11  1  0
 11 12  1  0
 12 13  2  0
 13 14  1  0
 14 15  2  0
 15 16  1  0
 16 17  2  0
 11 18  2  0
 18 19  1  0
 19 20  2  0
 20 21  1  0
 21 22  2  0
 22 23  1  0
 23 24  2  0
  8  4  1  0
 24  9  1  0
 17 12  1  0
 24 19  1  0
  3 25  1  0
  6 26  1  0
  7 27  1  0
 10 28  1  0
 13 29  1  0
 14 30  1  0
 15 31  1  0
 16 32  1  0
 17 33  1  0
 20 34  1  0
 21 35  1  0
 22 36  1  0
 23 37  1  0
M  END
$$$$
