
     RDKit          3D

 43 44  0  0  0  0  0  0  0  0999 V2000
    7.5967   -0.5217    1.0003 C   0  0  0  0  0  0  0  0  0  0  0  0
    6.4912    0.0414    0.2914 O   0  0  0  0  0  0  0  0  0  0  0  0
    5.3450   -0.6789    0.3862 C   0  0  0  0  0  0  0  0  0  0  0  0
    5.2047   -1.7190    1.0102 O   0  0  0  0  0  0  0  0  0  0  0  0
    4.2481   -0.0169   -0.3707 C   0  0  0  0  0  0  0  0  0  0  0  0
    4.4624    1.1160   -1.1664 C   0  0  0  0  0  0  0  0  0  0  0  0
    3.4010    1.6956   -1.8678 C   0  0  0  0  0  0  0  0  0  0  0  0
    2.1077    1.1765   -1.7582 C   0  0  0  0  0  0  0  0  0  0  0  0
    1.0874    1.6917   -2.5761 N   0  0  0  0  0  0  0  0  0  0  0  0
    1.8969    0.0168   -0.9757 C   0  0  0  0  0  0  0  0  0  0  0  0
    0.6172   -0.5638   -0.8820 N   0  0  0  0  0  0  0  0  0  0  0  0
   -0.1805   -0.0107   -0.0251 C   0  0  0  0  0  0  0  0  0  0  0  0
   -1.6089   -0.4650    0.0780 C   0  0  0  0  0  0  0  0  0  0  0  0
   -2.0571   -0.6125    1.5088 C   0  0  0  0  0  0  0  0  0  0  0  0
   -1.2766   -0.9231    2.4087 O   0  0  0  0  0  0  0  0  0  0  0  0
   -3.5127   -0.3308    1.8249 C   0  0  0  0  0  0  0  0  0  0  0  0
   -4.4554   -0.6087    0.6389 C   0  0  0  0  0  0  0  0  0  0  0  0
   -4.5170   -2.1188    0.3325 C   0  0  0  0  0  0  0  0  0  0  0  0
   -5.8784   -0.1642    1.0348 C   0  0  0  0  0  0  0  0  0  0  0  0
   -4.0164    0.1880   -0.6096 C   0  0  0  0  0  0  0  0  0  0  0  0
   -2.5260    0.4650   -0.6745 C   0  0  0  0  0  0  0  0  0  0  0  0
   -2.0986    1.3956   -1.3611 O   0  0  0  0  0  0  0  0  0  0  0  0
    2.9639   -0.5674   -0.2876 C   0  0  0  0  0  0  0  0  0  0  0  0
    7.3263   -0.7654    2.0324 H   0  0  0  0  0  0  0  0  0  0  0  0
    7.9604   -1.4100    0.4753 H   0  0  0  0  0  0  0  0  0  0  0  0
    8.3970    0.2222    1.0232 H   0  0  0  0  0  0  0  0  0  0  0  0
    5.4549    1.5477   -1.2700 H   0  0  0  0  0  0  0  0  0  0  0  0
    3.5932    2.5474   -2.5147 H   0  0  0  0  0  0  0  0  0  0  0  0
    0.1557    1.3761   -2.3026 H   0  0  0  0  0  0  0  0  0  0  0  0
    1.1321    2.6870   -2.7520 H   0  0  0  0  0  0  0  0  0  0  0  0
    0.1252    0.8465    0.6050 H   0  0  0  0  0  0  0  0  0  0  0  0
   -1.6799   -1.4456   -0.4044 H   0  0  0  0  0  0  0  0  0  0  0  0
   -3.5749    0.7235    2.1234 H   0  0  0  0  0  0  0  0  0  0  0  0
   -3.7992   -0.9401    2.6905 H   0  0  0  0  0  0  0  0  0  0  0  0
   -4.8294   -2.6858    1.2168 H   0  0  0  0  0  0  0  0  0  0  0  0
   -3.5549   -2.5223    0.0091 H   0  0  0  0  0  0  0  0  0  0  0  0
   -5.2410   -2.3285   -0.4642 H   0  0  0  0  0  0  0  0  0  0  0  0
   -6.2408   -0.7243    1.9044 H   0  0  0  0  0  0  0  0  0  0  0  0
   -6.5859   -0.3266    0.2135 H   0  0  0  0  0  0  0  0  0  0  0  0
   -5.9057    0.9006    1.2924 H   0  0  0  0  0  0  0  0  0  0  0  0
   -4.5046    1.1716   -0.6141 H   0  0  0  0  0  0  0  0  0  0  0  0
   -4.3084   -0.3287   -1.5316 H   0  0  0  0  0  0  0  0  0  0  0  0
    2.7853   -1.4602    0.3077 H   0  0  0  0  0  0  0  0  0  0  0  0
  1  2  1  0
  2  3  1  0
  3  4  2  0
  3  5  1  0
  5  6  2  0
  6  7  1  0
  7  8  2  0
  8  9  1  0
  8 10  1  0
 10 11  1  0
 11 12  2  3
 12 13  1  0
 13 14  1  0
 14 15  2  0
 14 16  1  0
 16 17  1  0
 17 18  1  0
 17 19  1  0
 17 20  1  0
 20 21  1  0
 21 22  2  0
 10 23  2  0
 23  5  1  0
 21 13  1  0
  1 24  1  0
  1 25  1  0
  1 26  1  0
  6 27  1  0
  7 28  1  0
  9 29  1  0
  9 30  1  0
 12 31  1  0
 13 32  1  0
 16 33  1  0
 16 34  1  0
 18 35  1  0
 18 36  1  0
 18 37  1  0
 19 38  1  0
 19 39  1  0
 19 40  1  0
 20 41  1  0
 20 42  1  0
 23 43  1  0
M  END
$$$$
