
     RDKit          3D

 30 30  0  0  0  0  0  0  0  0999 V2000
    2.3557    1.5481    0.9854 C   0  0  0  0  0  0  0  0  0  0  0  0
    2.3464    0.1936    0.4272 N   0  0  0  0  0  0  0  0  0  0  0  0
    2.4185    0.1595   -1.0333 C   0  0  0  0  0  0  0  0  0  0  0  0
    2.2920   -0.9721    1.1996 C   0  0  0  0  0  0  0  0  0  0  0  0
    2.5747   -2.5325    0.6330 S   0  0  0  0  0  0  0  0  0  0  0  0
    1.8636   -0.7626    2.9014 S   0  0  0  0  0  0  0  0  0  0  0  0
    0.1028   -1.2033    2.8274 C   0  0  0  0  0  0  0  0  0  0  0  0
   -0.6471   -0.2897    1.8687 C   0  0  0  0  0  0  0  0  0  0  0  0
   -0.9399    0.8595    2.1879 O   0  0  0  0  0  0  0  0  0  0  0  0
   -0.9175   -0.8860    0.6482 N   0  0  0  0  0  0  0  0  0  0  0  0
   -1.5483   -0.3110   -0.4813 C   0  0  0  0  0  0  0  0  0  0  0  0
   -2.0706    0.9853   -0.4933 C   0  0  0  0  0  0  0  0  0  0  0  0
   -2.6752    1.4978   -1.6473 C   0  0  0  0  0  0  0  0  0  0  0  0
   -2.7625    0.7171   -2.7969 C   0  0  0  0  0  0  0  0  0  0  0  0
   -3.5045    1.3566   -4.2102 Cl  0  0  0  0  0  0  0  0  0  0  0  0
   -2.2526   -0.5761   -2.8085 C   0  0  0  0  0  0  0  0  0  0  0  0
   -1.6505   -1.0841   -1.6555 C   0  0  0  0  0  0  0  0  0  0  0  0
   -1.0240   -2.6978   -1.7127 Cl  0  0  0  0  0  0  0  0  0  0  0  0
    3.0546    2.1647    0.4105 H   0  0  0  0  0  0  0  0  0  0  0  0
    1.3501    1.9681    0.8943 H   0  0  0  0  0  0  0  0  0  0  0  0
    2.6769    1.5777    2.0273 H   0  0  0  0  0  0  0  0  0  0  0  0
    1.7499    0.9256   -1.4396 H   0  0  0  0  0  0  0  0  0  0  0  0
    3.4471    0.3785   -1.3345 H   0  0  0  0  0  0  0  0  0  0  0  0
    2.1145   -0.8012   -1.4519 H   0  0  0  0  0  0  0  0  0  0  0  0
   -0.3370   -1.0836    3.8229 H   0  0  0  0  0  0  0  0  0  0  0  0
   -0.0181   -2.2553    2.5513 H   0  0  0  0  0  0  0  0  0  0  0  0
   -0.5709   -1.8314    0.4991 H   0  0  0  0  0  0  0  0  0  0  0  0
   -2.0293    1.6296    0.3797 H   0  0  0  0  0  0  0  0  0  0  0  0
   -3.0761    2.5089   -1.6358 H   0  0  0  0  0  0  0  0  0  0  0  0
   -2.3228   -1.1840   -3.7063 H   0  0  0  0  0  0  0  0  0  0  0  0
  1  2  1  0
  2  3  1  0
  2  4  1  0
  4  5  2  0
  4  6  1  0
  6  7  1  0
  7  8  1  0
  8  9  2  0
  8 10  1  0
 10 11  1  0
 11 12  2  0
 12 13  1  0
 13 14  2  0
 14 15  1  0
 14 16  1  0
 16 17  2  0
 17 18  1  0
 17 11  1  0
  1 19  1  0
  1 20  1  0
  1 21  1  0
  3 22  1  0
  3 23  1  0
  3 24  1  0
  7 25  1  0
  7 26  1  0
 10 27  1  0
 12 28  1  0
 13 29  1  0
 16 30  1  0
M  END
$$$$
