
     RDKit          3D

 53 57  0  0  0  0  0  0  0  0999 V2000
    3.9029    0.9867   -0.4867 C   0  0  0  0  0  0  0  0  0  0  0  0
    4.0443    0.6041    0.9588 C   0  0  0  0  0  0  0  0  0  0  0  0
    4.9716    1.3149    1.7421 C   0  0  0  0  0  0  0  0  0  0  0  0
    5.1586    1.0175    3.0941 C   0  0  0  0  0  0  0  0  0  0  0  0
    4.4248   -0.0011    3.6925 C   0  0  0  0  0  0  0  0  0  0  0  0
    3.5019   -0.7210    2.9379 C   0  0  0  0  0  0  0  0  0  0  0  0
    3.3029   -0.4210    1.5781 C   0  0  0  0  0  0  0  0  0  0  0  0
    2.0998   -1.4263    0.7246 S   0  0  0  0  0  6  0  0  0  0  0  0
    1.9572   -1.0293   -0.6601 O   0  0  0  0  0  0  0  0  0  0  0  0
    2.4096   -2.8061    1.0436 O   0  0  0  0  0  0  0  0  0  0  0  0
    0.6609   -1.0913    1.5170 N   0  0  0  0  0  0  0  0  0  0  0  0
    0.0176    0.1065    1.1187 C   0  0  0  0  0  0  0  0  0  0  0  0
    0.6568    1.2384    1.4608 N   0  0  0  0  0  0  0  0  0  0  0  0
    0.0253    2.3798    1.1466 C   0  0  0  0  0  0  0  0  0  0  0  0
    0.6216    3.5921    1.4659 C   0  0  0  0  0  0  0  0  0  0  0  0
    0.0024    4.8062    1.1668 C   0  0  0  0  0  0  0  0  0  0  0  0
   -1.2335    4.8076    0.5347 C   0  0  0  0  0  0  0  0  0  0  0  0
   -1.8419    3.5946    0.2085 C   0  0  0  0  0  0  0  0  0  0  0  0
   -1.2381    2.3785    0.5022 C   0  0  0  0  0  0  0  0  0  0  0  0
   -1.8634    1.2304    0.1698 N   0  0  0  0  0  0  0  0  0  0  0  0
   -1.2319    0.0720    0.4624 C   0  0  0  0  0  0  0  0  0  0  0  0
   -1.8248   -1.1712    0.1183 N   0  0  0  0  0  0  0  0  0  0  0  0
   -3.2995   -1.1336    0.1620 C   0  0  0  0  0  0  0  0  0  0  0  0
   -3.9430   -0.8369   -1.1927 C   0  0  0  0  0  0  0  0  0  0  0  0
   -3.4943   -1.8821   -2.1765 C   0  0  0  0  0  0  0  0  0  0  0  0
   -4.3563   -2.3924   -3.1534 C   0  0  0  0  0  0  0  0  0  0  0  0
   -3.9035   -3.3670   -4.0428 C   0  0  0  0  0  0  0  0  0  0  0  0
   -2.5888   -3.8241   -3.9690 C   0  0  0  0  0  0  0  0  0  0  0  0
   -1.7206   -3.3045   -3.0075 C   0  0  0  0  0  0  0  0  0  0  0  0
   -2.1667   -2.3339   -2.0984 C   0  0  0  0  0  0  0  0  0  0  0  0
   -1.1980   -1.7048   -1.1172 C   0  0  0  0  0  0  0  0  0  0  0  0
    4.1580    0.1410   -1.1338 H   0  0  0  0  0  0  0  0  0  0  0  0
    2.8881    1.3406   -0.6936 H   0  0  0  0  0  0  0  0  0  0  0  0
    4.5815    1.8056   -0.7554 H   0  0  0  0  0  0  0  0  0  0  0  0
    5.5651    2.1146    1.2999 H   0  0  0  0  0  0  0  0  0  0  0  0
    5.8812    1.5820    3.6779 H   0  0  0  0  0  0  0  0  0  0  0  0
    4.5694   -0.2346    4.7446 H   0  0  0  0  0  0  0  0  0  0  0  0
    2.9322   -1.5173    3.4138 H   0  0  0  0  0  0  0  0  0  0  0  0
    0.0426   -1.9027    1.5191 H   0  0  0  0  0  0  0  0  0  0  0  0
    1.5880    3.5882    1.9637 H   0  0  0  0  0  0  0  0  0  0  0  0
    0.4864    5.7434    1.4286 H   0  0  0  0  0  0  0  0  0  0  0  0
   -1.7277    5.7466    0.2961 H   0  0  0  0  0  0  0  0  0  0  0  0
   -2.8091    3.5969   -0.2871 H   0  0  0  0  0  0  0  0  0  0  0  0
   -3.6663   -0.4300    0.9210 H   0  0  0  0  0  0  0  0  0  0  0  0
   -3.6336   -2.1224    0.5068 H   0  0  0  0  0  0  0  0  0  0  0  0
   -3.6626    0.1531   -1.5674 H   0  0  0  0  0  0  0  0  0  0  0  0
   -5.0331   -0.8598   -1.0824 H   0  0  0  0  0  0  0  0  0  0  0  0
   -5.3822   -2.0391   -3.2236 H   0  0  0  0  0  0  0  0  0  0  0  0
   -4.5753   -3.7673   -4.7979 H   0  0  0  0  0  0  0  0  0  0  0  0
   -2.2352   -4.5777   -4.6692 H   0  0  0  0  0  0  0  0  0  0  0  0
   -0.6900   -3.6524   -2.9789 H   0  0  0  0  0  0  0  0  0  0  0  0
   -0.4727   -2.4673   -0.8127 H   0  0  0  0  0  0  0  0  0  0  0  0
   -0.6585   -0.9240   -1.6705 H   0  0  0  0  0  0  0  0  0  0  0  0
  1  2  1  0
  2  3  2  0
  3  4  1  0
  4  5  2  0
  5  6  1  0
  6  7  2  0
  7  8  1  0
  8  9  2  0
  8 10  2  0
  8 11  1  0
 11 12  1  0
 12 13  2  0
 13 14  1  0
 14 15  2  0
 15 16  1  0
 16 17  2  0
 17 18  1  0
 18 19  2  0
 19 20  1  0
 20 21  2  0
 21 22  1  0
 22 23  1  0
 23 24  1  0
 24 25  1  0
 25 26  2  0
 26 27  1  0
 27 28  2  0
 28 29  1  0
 29 30  2  0
 30 31  1  0
  7  2  1  0
 21 12  1  0
 31 22  1  0
 19 14  1  0
 30 25  1  0
  1 32  1  0
  1 33  1  0
  1 34  1  0
  3 35  1  0
  4 36  1  0
  5 37  1  0
  6 38  1  0
 11 39  1  0
 15 40  1  0
 16 41  1  0
 17 42  1  0
 18 43  1  0
 23 44  1  0
 23 45  1  0
 24 46  1  0
 24 47  1  0
 26 48  1  0
 27 49  1  0
 28 50  1  0
 29 51  1  0
 31 52  1  0
 31 53  1  0
M  END
$$$$
