
     RDKit          3D

 47 50  0  0  0  0  0  0  0  0999 V2000
    2.8480   -0.9152   -3.0832 C   0  0  0  0  0  0  0  0  0  0  0  0
    3.2463   -0.3078   -1.8609 O   0  0  0  0  0  0  0  0  0  0  0  0
    2.3002    0.3687   -1.1383 C   0  0  0  0  0  0  0  0  0  0  0  0
    0.9472    0.4404   -1.5024 C   0  0  0  0  0  0  0  0  0  0  0  0
    0.0346    1.1859   -0.7445 C   0  0  0  0  0  0  0  0  0  0  0  0
   -1.3697    1.2442   -1.1485 C   0  0  0  0  0  0  0  0  0  0  0  0
   -2.3726    0.5598   -0.5836 C   0  0  0  0  0  0  0  0  0  0  0  0
   -3.6755    0.6522   -1.0042 N   0  0  0  0  0  0  0  0  0  0  0  0
   -4.2943   -0.1577   -0.2056 C   0  0  0  0  0  0  0  0  0  0  0  0
   -5.7347   -0.4581   -0.1959 C   0  0  0  0  0  0  0  0  0  0  0  0
   -6.5629    0.1714   -1.1338 C   0  0  0  0  0  0  0  0  0  0  0  0
   -7.9341   -0.0917   -1.1460 C   0  0  0  0  0  0  0  0  0  0  0  0
   -8.4811   -0.9834   -0.2238 C   0  0  0  0  0  0  0  0  0  0  0  0
   -7.6603   -1.6135    0.7120 C   0  0  0  0  0  0  0  0  0  0  0  0
   -6.2880   -1.3533    0.7285 C   0  0  0  0  0  0  0  0  0  0  0  0
   -3.5587   -0.8071    0.7254 O   0  0  0  0  0  0  0  0  0  0  0  0
   -2.2696   -0.4000    0.5561 C   0  0  0  0  0  0  0  0  0  0  0  0
   -1.3075   -0.7613    1.2014 O   0  0  0  0  0  0  0  0  0  0  0  0
    0.4759    1.8776    0.3840 C   0  0  0  0  0  0  0  0  0  0  0  0
    1.8163    1.8080    0.7581 C   0  0  0  0  0  0  0  0  0  0  0  0
    2.7266    1.0418    0.0197 C   0  0  0  0  0  0  0  0  0  0  0  0
    4.0020    1.0827    0.5245 O   0  0  0  0  0  0  0  0  0  0  0  0
    4.7951   -0.0983    0.3649 C   0  0  0  0  0  0  0  0  0  0  0  0
    5.7710   -0.1943    1.4589 C   0  0  0  0  0  0  0  0  0  0  0  0
    5.6608   -0.0245    2.8525 C   0  0  0  0  0  0  0  0  0  0  0  0
    4.4631    0.3391    3.6469 C   0  0  0  0  0  0  0  0  0  0  0  0
    6.8347   -0.2359    3.4577 N   0  0  0  0  0  0  0  0  0  0  0  0
    7.7393   -0.5665    2.4481 O   0  0  0  0  0  0  0  0  0  0  0  0
    7.0319   -0.5311    1.2001 N   0  0  0  0  0  4  0  0  0  0  0  0
    7.6778   -0.8404    0.1738 O   0  0  0  0  0  1  0  0  0  0  0  0
    2.1149   -1.7095   -2.9085 H   0  0  0  0  0  0  0  0  0  0  0  0
    3.7346   -1.3763   -3.5295 H   0  0  0  0  0  0  0  0  0  0  0  0
    2.4674   -0.1710   -3.7912 H   0  0  0  0  0  0  0  0  0  0  0  0
    0.5746   -0.0792   -2.3797 H   0  0  0  0  0  0  0  0  0  0  0  0
   -1.5843    1.9022   -1.9865 H   0  0  0  0  0  0  0  0  0  0  0  0
   -6.1479    0.8697   -1.8576 H   0  0  0  0  0  0  0  0  0  0  0  0
   -8.5751    0.4000   -1.8731 H   0  0  0  0  0  0  0  0  0  0  0  0
   -9.5495   -1.1865   -0.2334 H   0  0  0  0  0  0  0  0  0  0  0  0
   -8.0902   -2.3081    1.4308 H   0  0  0  0  0  0  0  0  0  0  0  0
   -5.6678   -1.8549    1.4680 H   0  0  0  0  0  0  0  0  0  0  0  0
   -0.2140    2.4684    0.9820 H   0  0  0  0  0  0  0  0  0  0  0  0
    2.1545    2.3463    1.6401 H   0  0  0  0  0  0  0  0  0  0  0  0
    4.1728   -1.0024    0.3962 H   0  0  0  0  0  0  0  0  0  0  0  0
    5.3068   -0.0368   -0.6020 H   0  0  0  0  0  0  0  0  0  0  0  0
    3.5701   -0.1573    3.2521 H   0  0  0  0  0  0  0  0  0  0  0  0
    4.5722    0.0417    4.6956 H   0  0  0  0  0  0  0  0  0  0  0  0
    4.2992    1.4219    3.6125 H   0  0  0  0  0  0  0  0  0  0  0  0
  1  2  1  0
  2  3  1  0
  3  4  2  0
  4  5  1  0
  5  6  1  0
  6  7  2  3
  7  8  1  0
  8  9  2  0
  9 10  1  0
 10 11  2  0
 11 12  1  0
 12 13  2  0
 13 14  1  0
 14 15  2  0
  9 16  1  0
 16 17  1  0
 17 18  2  0
  5 19  2  0
 19 20  1  0
 20 21  2  0
 21 22  1  0
 22 23  1  0
 23 24  1  0
 24 25  1  0
 25 26  1  0
 25 27  2  0
 27 28  1  0
 28 29  1  0
 29 30  1  0
 21  3  1  0
 29 24  2  0
 17  7  1  0
 15 10  1  0
  1 31  1  0
  1 32  1  0
  1 33  1  0
  4 34  1  0
  6 35  1  0
 11 36  1  0
 12 37  1  0
 13 38  1  0
 14 39  1  0
 15 40  1  0
 19 41  1  0
 20 42  1  0
 23 43  1  0
 23 44  1  0
 26 45  1  0
 26 46  1  0
 26 47  1  0
M  CHG  2  29   1  30  -1
M  END
$$$$
