
     RDKit          3D

 41 42  0  0  0  0  0  0  0  0999 V2000
   -5.5291    2.2202   -0.8926 C   0  0  0  0  0  0  0  0  0  0  0  0
   -6.0874    1.7810    0.4415 C   0  0  0  0  0  0  0  0  0  0  0  0
   -7.1602    2.2639    0.8180 O   0  0  0  0  0  0  0  0  0  0  0  0
   -5.4147    0.7947    1.1642 N   0  0  0  0  0  0  0  0  0  0  0  0
   -6.1600    0.1357    2.2342 C   0  0  0  0  0  0  0  0  0  0  0  0
   -4.0655    0.3757    0.9532 C   0  0  0  0  0  0  0  0  0  0  0  0
   -3.0633    1.2800    0.5973 C   0  0  0  0  0  0  0  0  0  0  0  0
   -1.7398    0.8537    0.4198 C   0  0  0  0  0  0  0  0  0  0  0  0
   -1.3727   -0.4857    0.6044 C   0  0  0  0  0  0  0  0  0  0  0  0
   -0.0105   -0.7885    0.3912 N   0  0  0  0  0  0  0  0  0  0  0  0
    0.7349   -1.9415    0.4622 C   0  0  0  0  0  0  0  0  0  0  0  0
    0.2788   -3.5008    0.8468 S   0  0  0  0  0  0  0  0  0  0  0  0
    2.0829   -1.7786    0.1649 N   0  0  0  0  0  0  0  0  0  0  0  0
    2.7631   -0.6268   -0.1891 C   0  0  0  0  0  0  0  0  0  0  0  0
    2.2368    0.4757   -0.2967 O   0  0  0  0  0  0  0  0  0  0  0  0
    4.2104   -0.8552   -0.4306 C   0  0  0  0  0  0  0  0  0  0  0  0
    4.9849    0.1813   -0.7812 C   0  0  0  0  0  0  0  0  0  0  0  0
    6.3792    0.0535   -1.0319 C   0  0  0  0  0  0  0  0  0  0  0  0
    7.2342   -1.0447   -0.9898 C   0  0  0  0  0  0  0  0  0  0  0  0
    8.5356   -0.6033   -1.3317 C   0  0  0  0  0  0  0  0  0  0  0  0
    8.4228    0.7412   -1.5678 C   0  0  0  0  0  0  0  0  0  0  0  0
    7.1426    1.1440   -1.3921 O   0  0  0  0  0  0  0  0  0  0  0  0
   -2.3641   -1.3834    0.9843 C   0  0  0  0  0  0  0  0  0  0  0  0
   -3.6902   -0.9563    1.1656 C   0  0  0  0  0  0  0  0  0  0  0  0
   -4.9573    1.4288   -1.3819 H   0  0  0  0  0  0  0  0  0  0  0  0
   -4.9258    3.1220   -0.7689 H   0  0  0  0  0  0  0  0  0  0  0  0
   -6.3671    2.4571   -1.5571 H   0  0  0  0  0  0  0  0  0  0  0  0
   -6.5870   -0.7942    1.8456 H   0  0  0  0  0  0  0  0  0  0  0  0
   -6.9812    0.7603    2.5979 H   0  0  0  0  0  0  0  0  0  0  0  0
   -5.5033   -0.0747    3.0848 H   0  0  0  0  0  0  0  0  0  0  0  0
   -3.2689    2.3416    0.5020 H   0  0  0  0  0  0  0  0  0  0  0  0
   -0.9938    1.5981    0.1464 H   0  0  0  0  0  0  0  0  0  0  0  0
    0.5495    0.0234    0.1224 H   0  0  0  0  0  0  0  0  0  0  0  0
    2.5998   -2.6449    0.2275 H   0  0  0  0  0  0  0  0  0  0  0  0
    4.5984   -1.8580   -0.3157 H   0  0  0  0  0  0  0  0  0  0  0  0
    4.5638    1.1791   -0.8886 H   0  0  0  0  0  0  0  0  0  0  0  0
    6.9549   -2.0583   -0.7399 H   0  0  0  0  0  0  0  0  0  0  0  0
    9.4396   -1.1920   -1.3973 H   0  0  0  0  0  0  0  0  0  0  0  0
    9.1214    1.5149   -1.8545 H   0  0  0  0  0  0  0  0  0  0  0  0
   -2.1663   -2.4328    1.1543 H   0  0  0  0  0  0  0  0  0  0  0  0
   -4.4255   -1.7062    1.4466 H   0  0  0  0  0  0  0  0  0  0  0  0
  1  2  1  0
  2  3  2  0
  2  4  1  0
  4  5  1  0
  4  6  1  0
  6  7  2  0
  7  8  1  0
  8  9  2  0
  9 10  1  0
 10 11  1  0
 11 12  2  0
 11 13  1  0
 13 14  1  0
 14 15  2  0
 14 16  1  0
 16 17  2  3
 17 18  1  0
 18 19  2  0
 19 20  1  0
 20 21  2  0
 21 22  1  0
  9 23  1  0
 23 24  2  0
 24  6  1  0
 22 18  1  0
  1 25  1  0
  1 26  1  0
  1 27  1  0
  5 28  1  0
  5 29  1  0
  5 30  1  0
  7 31  1  0
  8 32  1  0
 10 33  1  0
 13 34  1  0
 16 35  1  0
 17 36  1  0
 19 37  1  0
 20 38  1  0
 21 39  1  0
 23 40  1  0
 24 41  1  0
M  END
$$$$
