
     RDKit          3D

 56 59  0  0  0  0  0  0  0  0999 V2000
   -2.3440   -3.3768   -3.7562 C   0  0  0  0  0  0  0  0  0  0  0  0
   -2.0036   -2.4506   -2.7319 O   0  0  0  0  0  0  0  0  0  0  0  0
   -2.5809   -1.2094   -2.7750 C   0  0  0  0  0  0  0  0  0  0  0  0
   -3.4977   -0.7941   -3.7469 C   0  0  0  0  0  0  0  0  0  0  0  0
   -4.0411    0.4962   -3.7140 C   0  0  0  0  0  0  0  0  0  0  0  0
   -3.6712    1.3917   -2.7057 C   0  0  0  0  0  0  0  0  0  0  0  0
   -4.2166    2.7802   -2.6312 C   0  0  0  0  0  0  0  0  0  0  0  0
   -5.2901    3.1939   -3.6035 C   0  0  0  0  0  0  0  0  0  0  0  0
   -3.7860    3.5645   -1.7878 O   0  0  0  0  0  0  0  0  0  0  0  0
   -2.7524    0.9806   -1.7324 C   0  0  0  0  0  0  0  0  0  0  0  0
   -2.2042   -0.3173   -1.7525 C   0  0  0  0  0  0  0  0  0  0  0  0
   -1.1947   -0.7038   -0.6926 C   0  0  0  0  0  0  0  0  0  0  0  0
    0.4738   -0.1561   -1.1548 S   0  0  0  0  0  0  0  0  0  0  0  0
    1.3918   -0.6569    0.2523 C   0  0  0  0  0  0  0  0  0  0  0  0
    0.8753   -1.5755    1.0019 N   0  0  0  0  0  0  0  0  0  0  0  0
    1.5926   -2.0321    2.1073 C   0  0  0  0  0  0  0  0  0  0  0  0
    1.0143   -3.0026    2.9310 C   0  0  0  0  0  0  0  0  0  0  0  0
    1.7121   -3.5013    4.0392 C   0  0  0  0  0  0  0  0  0  0  0  0
    1.1352   -4.5374    4.9293 C   0  0  0  0  0  0  0  0  0  0  0  0
    1.6893   -5.0362    5.8907 O   0  0  0  0  0  0  0  0  0  0  0  0
   -0.1072   -4.9020    4.5712 O   0  0  0  0  0  0  0  0  0  0  0  0
    2.9975   -3.0229    4.3236 C   0  0  0  0  0  0  0  0  0  0  0  0
    3.5778   -2.0527    3.5051 C   0  0  0  0  0  0  0  0  0  0  0  0
    2.8681   -1.5652    2.4014 C   0  0  0  0  0  0  0  0  0  0  0  0
    3.4431   -0.5429    1.5113 C   0  0  0  0  0  0  0  0  0  0  0  0
    4.5942   -0.1664    1.7214 O   0  0  0  0  0  0  0  0  0  0  0  0
    2.6353   -0.0808    0.4727 N   0  0  0  0  0  0  0  0  0  0  0  0
    3.1934    1.0113   -0.3370 C   0  0  0  0  0  0  0  0  0  0  0  0
    2.8436    2.3807    0.2154 C   0  0  0  0  0  0  0  0  0  0  0  0
    1.7838    3.1297   -0.3192 C   0  0  0  0  0  0  0  0  0  0  0  0
    1.4627    4.3840    0.2053 C   0  0  0  0  0  0  0  0  0  0  0  0
    2.2019    4.9099    1.2651 C   0  0  0  0  0  0  0  0  0  0  0  0
    3.2593    4.1803    1.8049 C   0  0  0  0  0  0  0  0  0  0  0  0
    3.5766    2.9235    1.2852 C   0  0  0  0  0  0  0  0  0  0  0  0
   -2.0293   -3.0083   -4.7388 H   0  0  0  0  0  0  0  0  0  0  0  0
   -3.4136   -3.6068   -3.7425 H   0  0  0  0  0  0  0  0  0  0  0  0
   -1.8014   -4.3073   -3.5610 H   0  0  0  0  0  0  0  0  0  0  0  0
   -3.8115   -1.4527   -4.5523 H   0  0  0  0  0  0  0  0  0  0  0  0
   -4.7459    0.7746   -4.4931 H   0  0  0  0  0  0  0  0  0  0  0  0
   -5.6531    4.1906   -3.3340 H   0  0  0  0  0  0  0  0  0  0  0  0
   -4.8835    3.2359   -4.6178 H   0  0  0  0  0  0  0  0  0  0  0  0
   -6.1387    2.5059   -3.5514 H   0  0  0  0  0  0  0  0  0  0  0  0
   -2.4524    1.6782   -0.9485 H   0  0  0  0  0  0  0  0  0  0  0  0
   -1.2093   -1.7875   -0.5284 H   0  0  0  0  0  0  0  0  0  0  0  0
   -1.4806   -0.2424    0.2602 H   0  0  0  0  0  0  0  0  0  0  0  0
    0.0175   -3.3664    2.6925 H   0  0  0  0  0  0  0  0  0  0  0  0
   -0.3572   -5.5811    5.2339 H   0  0  0  0  0  0  0  0  0  0  0  0
    3.5496   -3.4046    5.1810 H   0  0  0  0  0  0  0  0  0  0  0  0
    4.5765   -1.6823    3.7262 H   0  0  0  0  0  0  0  0  0  0  0  0
    2.8729    0.9353   -1.3807 H   0  0  0  0  0  0  0  0  0  0  0  0
    4.2871    0.9220   -0.3783 H   0  0  0  0  0  0  0  0  0  0  0  0
    1.1991    2.7533   -1.1565 H   0  0  0  0  0  0  0  0  0  0  0  0
    0.6361    4.9511   -0.2165 H   0  0  0  0  0  0  0  0  0  0  0  0
    1.9538    5.8880    1.6701 H   0  0  0  0  0  0  0  0  0  0  0  0
    3.8422    4.5891    2.6280 H   0  0  0  0  0  0  0  0  0  0  0  0
    4.4096    2.3719    1.7225 H   0  0  0  0  0  0  0  0  0  0  0  0
  1  2  1  0
  2  3  1  0
  3  4  2  0
  4  5  1  0
  5  6  2  0
  6  7  1  0
  7  8  1  0
  7  9  2  0
  6 10  1  0
 10 11  2  0
 11 12  1  0
 12 13  1  0
 13 14  1  0
 14 15  2  0
 15 16  1  0
 16 17  2  0
 17 18  1  0
 18 19  1  0
 19 20  2  0
 19 21  1  0
 18 22  2  0
 22 23  1  0
 23 24  2  0
 24 25  1  0
 25 26  2  0
 25 27  1  0
 27 28  1  0
 28 29  1  0
 29 30  2  0
 30 31  1  0
 31 32  2  0
 32 33  1  0
 33 34  2  0
 11  3  1  0
 27 14  1  0
 34 29  1  0
 24 16  1  0
  1 35  1  0
  1 36  1  0
  1 37  1  0
  4 38  1  0
  5 39  1  0
  8 40  1  0
  8 41  1  0
  8 42  1  0
 10 43  1  0
 12 44  1  0
 12 45  1  0
 17 46  1  0
 21 47  1  0
 22 48  1  0
 23 49  1  0
 28 50  1  0
 28 51  1  0
 30 52  1  0
 31 53  1  0
 32 54  1  0
 33 55  1  0
 34 56  1  0
M  END
$$$$
