
     RDKit          3D

 22 23  0  0  0  0  0  0  0  0999 V2000
   -4.1717    0.2471    0.3613 C   0  0  0  0  0  0  0  0  0  0  0  0
   -2.6795    0.1927    0.2207 C   0  0  0  0  0  0  0  0  0  0  0  0
   -2.0130    1.0878   -0.6188 C   0  0  0  0  0  0  0  0  0  0  0  0
   -0.6245    1.0141   -0.7728 C   0  0  0  0  0  0  0  0  0  0  0  0
    0.1362    0.0413   -0.1019 C   0  0  0  0  0  0  0  0  0  0  0  0
    1.5972    0.0156   -0.3052 C   0  0  0  0  0  0  0  0  0  0  0  0
    2.2477    0.8047   -1.1419 N   0  0  0  0  0  0  0  0  0  0  0  0
    3.6089    0.5787   -1.1436 N   0  0  0  0  0  0  0  0  0  0  0  0
    3.9590   -0.3686   -0.3068 C   0  0  0  0  0  0  0  0  0  0  0  0
    5.2265   -0.7783   -0.1041 N   0  0  0  0  0  0  0  0  0  0  0  0
    2.6440   -1.0519    0.5537 S   0  0  0  0  0  0  0  0  0  0  0  0
   -0.5484   -0.8632    0.7255 C   0  0  0  0  0  0  0  0  0  0  0  0
   -1.9387   -0.7912    0.8810 C   0  0  0  0  0  0  0  0  0  0  0  0
   -4.5374    1.2733    0.2502 H   0  0  0  0  0  0  0  0  0  0  0  0
   -4.6425   -0.3810   -0.4012 H   0  0  0  0  0  0  0  0  0  0  0  0
   -4.4837   -0.1031    1.3508 H   0  0  0  0  0  0  0  0  0  0  0  0
   -2.5662    1.8515   -1.1615 H   0  0  0  0  0  0  0  0  0  0  0  0
   -0.1355    1.7310   -1.4321 H   0  0  0  0  0  0  0  0  0  0  0  0
    5.9417   -0.1366   -0.4307 H   0  0  0  0  0  0  0  0  0  0  0  0
    5.4411   -1.2026    0.7901 H   0  0  0  0  0  0  0  0  0  0  0  0
   -0.0231   -1.6480    1.2635 H   0  0  0  0  0  0  0  0  0  0  0  0
   -2.4382   -1.5133    1.5240 H   0  0  0  0  0  0  0  0  0  0  0  0
  1  2  1  0
  2  3  2  0
  3  4  1  0
  4  5  2  0
  5  6  1  0
  6  7  2  0
  7  8  1  0
  8  9  2  0
  9 10  1  0
  9 11  1  0
  5 12  1  0
 12 13  2  0
 13  2  1  0
 11  6  1  0
  1 14  1  0
  1 15  1  0
  1 16  1  0
  3 17  1  0
  4 18  1  0
 10 19  1  0
 10 20  1  0
 12 21  1  0
 13 22  1  0
M  END
$$$$
