
     RDKit          3D

 58 61  0  0  0  0  0  0  0  0999 V2000
    0.3769    2.0136    1.5698 O   0  0  0  0  0  0  0  0  0  0  0  0
   -0.0655    0.9206    1.2399 C   0  0  0  0  0  0  0  0  0  0  0  0
   -1.3236    0.7363    0.7034 N   0  0  0  0  0  0  0  0  0  0  0  0
   -2.1520    1.8875    0.3577 C   0  0  0  0  0  0  0  0  0  0  0  0
   -3.6755    1.5703    0.2967 C   0  0  0  0  0  0  0  0  0  0  0  0
   -4.5235    2.8301    0.1395 C   0  0  0  0  0  0  0  0  0  0  0  0
   -5.7019    3.1248    0.8059 C   0  0  0  0  0  0  0  0  0  0  0  0
   -6.2494    4.3845    0.4301 C   0  0  0  0  0  0  0  0  0  0  0  0
   -5.4788    5.0160   -0.5185 C   0  0  0  0  0  0  0  0  0  0  0  0
   -4.1106    4.0912   -0.9524 S   0  0  0  0  0  0  0  0  0  0  0  0
   -4.1484    0.5560   -0.6726 N   0  0  0  0  0  0  0  0  0  0  0  0
   -4.2722   -0.7964   -0.1091 C   0  0  0  0  0  0  0  0  0  0  0  0
   -4.8739   -1.7783   -1.1279 C   0  0  0  0  0  0  0  0  0  0  0  0
   -4.1051   -1.7983   -2.3374 O   0  0  0  0  0  0  0  0  0  0  0  0
   -4.0939   -0.4890   -2.9246 C   0  0  0  0  0  0  0  0  0  0  0  0
   -3.4544    0.5316   -1.9684 C   0  0  0  0  0  0  0  0  0  0  0  0
    0.7856   -0.2962    1.3676 C   0  0  0  0  0  0  0  0  0  0  0  0
    0.2391   -1.5755    1.4913 C   0  0  0  0  0  0  0  0  0  0  0  0
    1.0826   -2.6854    1.6018 C   0  0  0  0  0  0  0  0  0  0  0  0
    2.4787   -2.5392    1.6002 C   0  0  0  0  0  0  0  0  0  0  0  0
    3.3783   -4.0067    1.6863 Cl  0  0  0  0  0  0  0  0  0  0  0  0
    3.0270   -1.2603    1.4952 C   0  0  0  0  0  0  0  0  0  0  0  0
    4.7689   -0.9143    1.5355 S   0  0  0  0  0  6  0  0  0  0  0  0
    5.5225   -2.0791    1.9338 O   0  0  0  0  0  0  0  0  0  0  0  0
    4.9273    0.3282    2.2630 O   0  0  0  0  0  0  0  0  0  0  0  0
    5.1123   -0.5963   -0.1040 N   0  0  0  0  0  0  0  0  0  0  0  0
    5.0317   -1.7474   -1.0587 C   0  0  0  0  0  0  0  0  0  0  0  0
    6.3200   -2.5806   -1.0704 C   0  0  0  0  0  0  0  0  0  0  0  0
    7.4673   -1.7624   -1.3395 O   0  0  0  0  0  0  0  0  0  0  0  0
    7.5995   -0.7394   -0.3410 C   0  0  0  0  0  0  0  0  0  0  0  0
    6.3739    0.1782   -0.3433 C   0  0  0  0  0  0  0  0  0  0  0  0
    2.1768   -0.1417    1.3873 C   0  0  0  0  0  0  0  0  0  0  0  0
   -1.4785   -0.1033    0.1639 H   0  0  0  0  0  0  0  0  0  0  0  0
   -1.7755    2.2682   -0.5986 H   0  0  0  0  0  0  0  0  0  0  0  0
   -1.9745    2.6744    1.1017 H   0  0  0  0  0  0  0  0  0  0  0  0
   -3.9268    1.1995    1.3030 H   0  0  0  0  0  0  0  0  0  0  0  0
   -6.1528    2.4587    1.5318 H   0  0  0  0  0  0  0  0  0  0  0  0
   -7.1632    4.8037    0.8330 H   0  0  0  0  0  0  0  0  0  0  0  0
   -5.6550    5.9770   -0.9825 H   0  0  0  0  0  0  0  0  0  0  0  0
   -3.2912   -1.1734    0.1985 H   0  0  0  0  0  0  0  0  0  0  0  0
   -4.9190   -0.7823    0.7753 H   0  0  0  0  0  0  0  0  0  0  0  0
   -4.8662   -2.7919   -0.7136 H   0  0  0  0  0  0  0  0  0  0  0  0
   -5.9148   -1.5225   -1.3619 H   0  0  0  0  0  0  0  0  0  0  0  0
   -3.5101   -0.5463   -3.8491 H   0  0  0  0  0  0  0  0  0  0  0  0
   -5.1173   -0.1993   -3.1936 H   0  0  0  0  0  0  0  0  0  0  0  0
   -2.4036    0.2511   -1.8339 H   0  0  0  0  0  0  0  0  0  0  0  0
   -3.4842    1.5149   -2.4475 H   0  0  0  0  0  0  0  0  0  0  0  0
   -0.8360   -1.7295    1.5289 H   0  0  0  0  0  0  0  0  0  0  0  0
    0.6382   -3.6759    1.6943 H   0  0  0  0  0  0  0  0  0  0  0  0
    4.1632   -2.3756   -0.8486 H   0  0  0  0  0  0  0  0  0  0  0  0
    4.8699   -1.3185   -2.0559 H   0  0  0  0  0  0  0  0  0  0  0  0
    6.4772   -3.1196   -0.1314 H   0  0  0  0  0  0  0  0  0  0  0  0
    6.2601   -3.3302   -1.8660 H   0  0  0  0  0  0  0  0  0  0  0  0
    8.4947   -0.1586   -0.5845 H   0  0  0  0  0  0  0  0  0  0  0  0
    7.7628   -1.2051    0.6369 H   0  0  0  0  0  0  0  0  0  0  0  0
    6.2738    0.6576   -1.3253 H   0  0  0  0  0  0  0  0  0  0  0  0
    6.4868    0.9839    0.3883 H   0  0  0  0  0  0  0  0  0  0  0  0
    2.6021    0.8608    1.3146 H   0  0  0  0  0  0  0  0  0  0  0  0
  1  2  2  0
  2  3  1  0
  3  4  1  0
  4  5  1  0
  5  6  1  0
  6  7  2  0
  7  8  1  0
  8  9  2  0
  9 10  1  0
  5 11  1  0
 11 12  1  0
 12 13  1  0
 13 14  1  0
 14 15  1  0
 15 16  1  0
  2 17  1  0
 17 18  2  0
 18 19  1  0
 19 20  2  0
 20 21  1  0
 20 22  1  0
 22 23  1  0
 23 24  2  0
 23 25  2  0
 23 26  1  0
 26 27  1  0
 27 28  1  0
 28 29  1  0
 29 30  1  0
 30 31  1  0
 22 32  2  0
 10  6  1  0
 16 11  1  0
 32 17  1  0
 31 26  1  0
  3 33  1  0
  4 34  1  0
  4 35  1  0
  5 36  1  0
  7 37  1  0
  8 38  1  0
  9 39  1  0
 12 40  1  0
 12 41  1  0
 13 42  1  0
 13 43  1  0
 15 44  1  0
 15 45  1  0
 16 46  1  0
 16 47  1  0
 18 48  1  0
 19 49  1  0
 27 50  1  0
 27 51  1  0
 28 52  1  0
 28 53  1  0
 30 54  1  0
 30 55  1  0
 31 56  1  0
 31 57  1  0
 32 58  1  0
M  END
$$$$
