
     RDKit          3D

 53 56  0  0  0  0  0  0  0  0999 V2000
   -4.6633    0.5366   -0.4376 C   0  0  0  0  0  0  0  0  0  0  0  0
   -4.2777   -0.9068   -0.1383 C   0  0  0  0  0  0  0  0  0  0  0  0
   -3.2614   -1.0783    1.0094 C   0  0  0  0  0  0  0  0  0  0  0  0
   -3.7525   -0.5566    2.3763 C   0  0  0  0  0  0  0  0  0  0  0  0
   -4.9699   -1.2690    2.9145 C   0  0  0  0  0  0  0  0  0  0  0  0
   -4.8876   -2.6080    3.3219 C   0  0  0  0  0  0  0  0  0  0  0  0
   -6.0134   -3.2695    3.8147 C   0  0  0  0  0  0  0  0  0  0  0  0
   -7.2313   -2.5995    3.9082 C   0  0  0  0  0  0  0  0  0  0  0  0
   -7.3240   -1.2672    3.5111 C   0  0  0  0  0  0  0  0  0  0  0  0
   -6.1990   -0.6038    3.0180 C   0  0  0  0  0  0  0  0  0  0  0  0
   -1.9889   -0.4413    0.6599 N   0  0  0  0  0  0  0  0  0  0  0  0
   -1.0359   -1.0853   -0.1014 C   0  0  0  0  0  0  0  0  0  0  0  0
   -1.1177   -2.2585   -0.4447 O   0  0  0  0  0  0  0  0  0  0  0  0
    0.1607   -0.2852   -0.4815 C   0  0  0  0  0  0  0  0  0  0  0  0
    0.0832    1.0899   -0.7173 C   0  0  0  0  0  0  0  0  0  0  0  0
    1.2291    1.8109   -1.0765 C   0  0  0  0  0  0  0  0  0  0  0  0
    2.4656    1.1470   -1.2101 C   0  0  0  0  0  0  0  0  0  0  0  0
    3.6666    1.7355   -1.5543 N   0  0  0  0  0  0  0  0  0  0  0  0
    4.6426    0.8527   -1.5985 C   0  0  0  0  0  0  0  0  0  0  0  0
    5.9311    1.1786   -1.9386 N   0  0  0  0  0  0  0  0  0  0  0  0
    6.2205    2.6263   -2.0231 C   0  0  0  0  0  0  0  0  0  0  0  0
    7.5730    2.8689   -2.7058 C   0  0  0  0  0  0  0  0  0  0  0  0
    8.6309    2.1609   -2.0426 O   0  0  0  0  0  0  0  0  0  0  0  0
    8.3667    0.7516   -2.0771 C   0  0  0  0  0  0  0  0  0  0  0  0
    7.0489    0.4031   -1.3674 C   0  0  0  0  0  0  0  0  0  0  0  0
    4.1278   -0.7623   -1.2366 S   0  0  0  0  0  0  0  0  0  0  0  0
    2.5175   -0.2258   -0.9896 C   0  0  0  0  0  0  0  0  0  0  0  0
    1.3790   -0.9661   -0.6303 C   0  0  0  0  0  0  0  0  0  0  0  0
   -5.3498    0.5686   -1.2901 H   0  0  0  0  0  0  0  0  0  0  0  0
   -5.1706    1.0040    0.4104 H   0  0  0  0  0  0  0  0  0  0  0  0
   -3.7874    1.1406   -0.6931 H   0  0  0  0  0  0  0  0  0  0  0  0
   -3.8599   -1.3434   -1.0544 H   0  0  0  0  0  0  0  0  0  0  0  0
   -5.1872   -1.4772    0.0834 H   0  0  0  0  0  0  0  0  0  0  0  0
   -3.0641   -2.1542    1.1011 H   0  0  0  0  0  0  0  0  0  0  0  0
   -2.9473   -0.6700    3.1159 H   0  0  0  0  0  0  0  0  0  0  0  0
   -3.9353    0.5243    2.3282 H   0  0  0  0  0  0  0  0  0  0  0  0
   -3.9439   -3.1464    3.2583 H   0  0  0  0  0  0  0  0  0  0  0  0
   -5.9391   -4.3084    4.1255 H   0  0  0  0  0  0  0  0  0  0  0  0
   -8.1076   -3.1155    4.2915 H   0  0  0  0  0  0  0  0  0  0  0  0
   -8.2737   -0.7440    3.5855 H   0  0  0  0  0  0  0  0  0  0  0  0
   -6.2923    0.4361    2.7138 H   0  0  0  0  0  0  0  0  0  0  0  0
   -1.8542    0.5243    0.9242 H   0  0  0  0  0  0  0  0  0  0  0  0
   -0.8633    1.6197   -0.6589 H   0  0  0  0  0  0  0  0  0  0  0  0
    1.1766    2.8790   -1.2654 H   0  0  0  0  0  0  0  0  0  0  0  0
    6.2446    3.0444   -1.0085 H   0  0  0  0  0  0  0  0  0  0  0  0
    5.4500    3.1536   -2.5984 H   0  0  0  0  0  0  0  0  0  0  0  0
    7.5434    2.5631   -3.7587 H   0  0  0  0  0  0  0  0  0  0  0  0
    7.8178    3.9354   -2.6761 H   0  0  0  0  0  0  0  0  0  0  0  0
    8.3505    0.4166   -3.1214 H   0  0  0  0  0  0  0  0  0  0  0  0
    9.2000    0.2456   -1.5793 H   0  0  0  0  0  0  0  0  0  0  0  0
    7.1367    0.6402   -0.2996 H   0  0  0  0  0  0  0  0  0  0  0  0
    6.8948   -0.6758   -1.4721 H   0  0  0  0  0  0  0  0  0  0  0  0
    1.4411   -2.0396   -0.4695 H   0  0  0  0  0  0  0  0  0  0  0  0
  1  2  1  0
  2  3  1  0
  3  4  1  0
  4  5  1  0
  5  6  2  0
  6  7  1  0
  7  8  2  0
  8  9  1  0
  9 10  2  0
  3 11  1  0
 11 12  1  0
 12 13  2  0
 12 14  1  0
 14 15  2  0
 15 16  1  0
 16 17  2  0
 17 18  1  0
 18 19  2  0
 19 20  1  0
 20 21  1  0
 21 22  1  0
 22 23  1  0
 23 24  1  0
 24 25  1  0
 19 26  1  0
 26 27  1  0
 27 28  2  0
 10  5  1  0
 28 14  1  0
 27 17  1  0
 25 20  1  0
  1 29  1  0
  1 30  1  0
  1 31  1  0
  2 32  1  0
  2 33  1  0
  3 34  1  0
  4 35  1  0
  4 36  1  0
  6 37  1  0
  7 38  1  0
  8 39  1  0
  9 40  1  0
 10 41  1  0
 11 42  1  0
 15 43  1  0
 16 44  1  0
 21 45  1  0
 21 46  1  0
 22 47  1  0
 22 48  1  0
 24 49  1  0
 24 50  1  0
 25 51  1  0
 25 52  1  0
 28 53  1  0
M  END
$$$$
