
     RDKit          3D

 45 47  0  0  0  0  0  0  0  0999 V2000
   -7.4709    2.2933    0.9682 N   0  0  0  0  0  0  0  0  0  0  0  0
   -7.4926    0.6399    0.6696 S   0  0  0  0  0  6  0  0  0  0  0  0
   -7.9375    0.0306    1.9018 O   0  0  0  0  0  0  0  0  0  0  0  0
   -8.1924    0.4646   -0.5806 O   0  0  0  0  0  0  0  0  0  0  0  0
   -5.7778    0.2863    0.4270 C   0  0  0  0  0  0  0  0  0  0  0  0
   -5.0498   -0.3681    1.4209 C   0  0  0  0  0  0  0  0  0  0  0  0
   -3.7004   -0.6611    1.2034 C   0  0  0  0  0  0  0  0  0  0  0  0
   -3.0765   -0.3274   -0.0085 C   0  0  0  0  0  0  0  0  0  0  0  0
   -1.7047   -0.6396   -0.1298 N   0  0  0  0  0  0  0  0  0  0  0  0
   -0.8947   -0.8096   -1.2472 C   0  0  0  0  0  0  0  0  0  0  0  0
   -1.4451   -1.1617   -2.7967 S   0  0  0  0  0  0  0  0  0  0  0  0
    0.4750   -0.7171   -0.9214 N   0  0  0  0  0  0  0  0  0  0  0  0
    1.5419   -1.1231   -1.8589 C   0  0  0  0  0  0  0  0  0  0  0  0
    2.8813   -1.4368   -1.1649 C   0  0  0  0  0  0  0  0  0  0  0  0
    3.3437   -0.3212   -0.3210 N   0  0  0  0  0  0  0  0  0  0  0  0
    4.6994   -0.1025   -0.1202 C   0  0  0  0  0  0  0  0  0  0  0  0
    5.2128    1.1621    0.2146 C   0  0  0  0  0  0  0  0  0  0  0  0
    6.5814    1.3787    0.4205 C   0  0  0  0  0  0  0  0  0  0  0  0
    7.4800    0.3263    0.2997 C   0  0  0  0  0  0  0  0  0  0  0  0
    7.0073   -0.9384   -0.0258 C   0  0  0  0  0  0  0  0  0  0  0  0
    5.6371   -1.1449   -0.2280 C   0  0  0  0  0  0  0  0  0  0  0  0
    2.3330    0.6596    0.0969 C   0  0  0  0  0  0  0  0  0  0  0  0
    0.9535   -0.0033    0.2785 C   0  0  0  0  0  0  0  0  0  0  0  0
   -3.8157    0.3478   -0.9835 C   0  0  0  0  0  0  0  0  0  0  0  0
   -5.1675    0.6443   -0.7756 C   0  0  0  0  0  0  0  0  0  0  0  0
   -7.9962    2.7800    0.2411 H   0  0  0  0  0  0  0  0  0  0  0  0
   -7.8134    2.4733    1.9120 H   0  0  0  0  0  0  0  0  0  0  0  0
   -5.5190   -0.6546    2.3594 H   0  0  0  0  0  0  0  0  0  0  0  0
   -3.1502   -1.1743    1.9887 H   0  0  0  0  0  0  0  0  0  0  0  0
   -1.2775   -0.9958    0.7145 H   0  0  0  0  0  0  0  0  0  0  0  0
    1.6763   -0.2963   -2.5676 H   0  0  0  0  0  0  0  0  0  0  0  0
    1.2261   -2.0066   -2.4225 H   0  0  0  0  0  0  0  0  0  0  0  0
    2.7653   -2.3264   -0.5350 H   0  0  0  0  0  0  0  0  0  0  0  0
    3.6092   -1.6673   -1.9520 H   0  0  0  0  0  0  0  0  0  0  0  0
    4.5560    2.0229    0.3023 H   0  0  0  0  0  0  0  0  0  0  0  0
    6.9383    2.3741    0.6740 H   0  0  0  0  0  0  0  0  0  0  0  0
    8.5417    0.4923    0.4581 H   0  0  0  0  0  0  0  0  0  0  0  0
    7.6980   -1.7722   -0.1160 H   0  0  0  0  0  0  0  0  0  0  0  0
    5.3129   -2.1569   -0.4556 H   0  0  0  0  0  0  0  0  0  0  0  0
    2.6035    1.1147    1.0572 H   0  0  0  0  0  0  0  0  0  0  0  0
    2.2660    1.4554   -0.6553 H   0  0  0  0  0  0  0  0  0  0  0  0
    0.2269    0.7623    0.5714 H   0  0  0  0  0  0  0  0  0  0  0  0
    1.0056   -0.7475    1.0828 H   0  0  0  0  0  0  0  0  0  0  0  0
   -3.3619    0.6849   -1.9097 H   0  0  0  0  0  0  0  0  0  0  0  0
   -5.7285    1.1596   -1.5513 H   0  0  0  0  0  0  0  0  0  0  0  0
  1  2  1  0
  2  3  2  0
  2  4  2  0
  2  5  1  0
  5  6  2  0
  6  7  1  0
  7  8  2  0
  8  9  1  0
  9 10  1  0
 10 11  2  0
 10 12  1  0
 12 13  1  0
 13 14  1  0
 14 15  1  0
 15 16  1  0
 16 17  2  0
 17 18  1  0
 18 19  2  0
 19 20  1  0
 20 21  2  0
 15 22  1  0
 22 23  1  0
  8 24  1  0
 24 25  2  0
 25  5  1  0
 23 12  1  0
 21 16  1  0
  1 26  1  0
  1 27  1  0
  6 28  1  0
  7 29  1  0
  9 30  1  0
 13 31  1  0
 13 32  1  0
 14 33  1  0
 14 34  1  0
 17 35  1  0
 18 36  1  0
 19 37  1  0
 20 38  1  0
 21 39  1  0
 22 40  1  0
 22 41  1  0
 23 42  1  0
 23 43  1  0
 24 44  1  0
 25 45  1  0
M  END
$$$$
