
     RDKit          3D

 43 45  0  0  0  0  0  0  0  0999 V2000
    4.3119    0.3317   -0.6857 C   0  0  0  0  0  0  0  0  0  0  0  0
    4.0210   -0.0573    0.7617 C   0  0  0  0  0  0  0  0  0  0  0  0
    5.3237   -0.3612    1.5004 C   0  0  0  0  0  0  0  0  0  0  0  0
    2.9640   -1.5576    0.8283 S   0  0  0  0  0  0  0  0  0  0  0  0
    1.3601   -0.8981    0.3904 C   0  0  0  0  0  0  0  0  0  0  0  0
    0.3527   -1.7840    0.0740 C   0  0  0  0  0  0  0  0  0  0  0  0
   -0.8826   -1.2586   -0.2462 C   0  0  0  0  0  0  0  0  0  0  0  0
   -1.9449   -2.0849   -0.5976 N   0  0  0  0  0  0  0  0  0  0  0  0
   -3.1709   -1.4148   -1.0636 C   0  0  0  0  0  0  0  0  0  0  0  0
   -4.2006   -2.4747   -1.4848 C   0  0  0  0  0  0  0  0  0  0  0  0
   -4.5853   -3.3676   -0.4269 O   0  0  0  0  0  0  0  0  0  0  0  0
   -3.6165   -3.4506    0.6268 C   0  0  0  0  0  0  0  0  0  0  0  0
   -2.1609   -3.3433    0.1398 C   0  0  0  0  0  0  0  0  0  0  0  0
   -1.0649    0.0719   -0.2710 N   0  0  0  0  0  0  0  0  0  0  0  0
   -0.0325    0.8706    0.0587 C   0  0  0  0  0  0  0  0  0  0  0  0
   -0.2563    2.3314    0.0375 C   0  0  0  0  0  0  0  0  0  0  0  0
   -1.5042    2.8801   -0.3185 C   0  0  0  0  0  0  0  0  0  0  0  0
   -1.7181    4.2623   -0.3402 C   0  0  0  0  0  0  0  0  0  0  0  0
   -0.6855    5.1323   -0.0050 C   0  0  0  0  0  0  0  0  0  0  0  0
    0.5588    4.6217    0.3513 C   0  0  0  0  0  0  0  0  0  0  0  0
    0.7686    3.2388    0.3716 C   0  0  0  0  0  0  0  0  0  0  0  0
    1.1857    0.4288    0.4029 N   0  0  0  0  0  0  0  0  0  0  0  0
    3.3985    0.5793   -1.2357 H   0  0  0  0  0  0  0  0  0  0  0  0
    4.8286   -0.4699   -1.2258 H   0  0  0  0  0  0  0  0  0  0  0  0
    4.9567    1.2172   -0.7177 H   0  0  0  0  0  0  0  0  0  0  0  0
    3.5261    0.7693    1.2821 H   0  0  0  0  0  0  0  0  0  0  0  0
    5.9767    0.5189    1.4975 H   0  0  0  0  0  0  0  0  0  0  0  0
    5.8783   -1.1831    1.0333 H   0  0  0  0  0  0  0  0  0  0  0  0
    5.1364   -0.6225    2.5480 H   0  0  0  0  0  0  0  0  0  0  0  0
    0.5377   -2.8494    0.0535 H   0  0  0  0  0  0  0  0  0  0  0  0
   -3.5923   -0.7972   -0.2601 H   0  0  0  0  0  0  0  0  0  0  0  0
   -2.9531   -0.7729   -1.9256 H   0  0  0  0  0  0  0  0  0  0  0  0
   -5.1110   -1.9921   -1.8541 H   0  0  0  0  0  0  0  0  0  0  0  0
   -3.8007   -3.0886   -2.3004 H   0  0  0  0  0  0  0  0  0  0  0  0
   -3.7701   -4.4062    1.1384 H   0  0  0  0  0  0  0  0  0  0  0  0
   -3.8375   -2.6567    1.3504 H   0  0  0  0  0  0  0  0  0  0  0  0
   -1.9427   -4.1728   -0.5427 H   0  0  0  0  0  0  0  0  0  0  0  0
   -1.5042   -3.4380    1.0120 H   0  0  0  0  0  0  0  0  0  0  0  0
   -2.3300    2.2224   -0.5857 H   0  0  0  0  0  0  0  0  0  0  0  0
   -2.6925    4.6549   -0.6194 H   0  0  0  0  0  0  0  0  0  0  0  0
   -0.8501    6.2063   -0.0212 H   0  0  0  0  0  0  0  0  0  0  0  0
    1.3695    5.2962    0.6146 H   0  0  0  0  0  0  0  0  0  0  0  0
    1.7524    2.8678    0.6548 H   0  0  0  0  0  0  0  0  0  0  0  0
  1  2  1  0
  2  3  1  0
  2  4  1  0
  4  5  1  0
  5  6  2  0
  6  7  1  0
  7  8  1  0
  8  9  1  0
  9 10  1  0
 10 11  1  0
 11 12  1  0
 12 13  1  0
  7 14  2  0
 14 15  1  0
 15 16  1  0
 16 17  2  0
 17 18  1  0
 18 19  2  0
 19 20  1  0
 20 21  2  0
 15 22  2  0
 22  5  1  0
 13  8  1  0
 21 16  1  0
  1 23  1  0
  1 24  1  0
  1 25  1  0
  2 26  1  0
  3 27  1  0
  3 28  1  0
  3 29  1  0
  6 30  1  0
  9 31  1  0
  9 32  1  0
 10 33  1  0
 10 34  1  0
 12 35  1  0
 12 36  1  0
 13 37  1  0
 13 38  1  0
 17 39  1  0
 18 40  1  0
 19 41  1  0
 20 42  1  0
 21 43  1  0
M  END
$$$$
