
     RDKit          3D

 47 48  0  0  0  0  0  0  0  0999 V2000
    3.0161   -2.4652    2.2405 C   0  0  0  0  0  0  0  0  0  0  0  0
    3.3235   -2.5394    0.7564 C   0  0  0  0  0  0  0  0  0  0  0  0
    3.0412   -1.2813    0.1299 O   0  0  0  0  0  0  0  0  0  0  0  0
    4.0413   -0.3541    0.1722 C   0  0  0  0  0  0  0  0  0  0  0  0
    5.1578   -0.5647    0.6322 O   0  0  0  0  0  0  0  0  0  0  0  0
    3.6477    0.9124   -0.4481 C   0  0  0  0  0  0  0  0  0  0  0  0
    4.5270    1.8867   -0.9082 C   0  0  0  0  0  0  0  0  0  0  0  0
    6.0145    1.9349   -0.8877 C   0  0  0  0  0  0  0  0  0  0  0  0
    3.7882    2.9120   -1.4412 N   0  0  0  0  0  0  0  0  0  0  0  0
    2.4479    2.6429   -1.3209 C   0  0  0  0  0  0  0  0  0  0  0  0
    1.4274    3.6318   -1.7616 C   0  0  0  0  0  0  0  0  0  0  0  0
    2.3218    1.4028   -0.7090 C   0  0  0  0  0  0  0  0  0  0  0  0
    1.0614    0.7564   -0.3441 C   0  0  0  0  0  0  0  0  0  0  0  0
    0.8004    0.5005    0.8313 O   0  0  0  0  0  0  0  0  0  0  0  0
    0.1298    0.3546   -1.4902 C   0  0  0  0  0  0  0  0  0  0  0  0
   -1.1605   -0.0694   -1.0473 O   0  0  0  0  0  0  0  0  0  0  0  0
   -1.9596    0.9479   -0.6455 C   0  0  0  0  0  0  0  0  0  0  0  0
   -1.6974    2.1389   -0.7321 O   0  0  0  0  0  0  0  0  0  0  0  0
   -3.2381    0.4652   -0.0859 C   0  0  0  0  0  0  0  0  0  0  0  0
   -3.5843   -0.8281    0.0081 C   0  0  0  0  0  0  0  0  0  0  0  0
   -4.8666   -1.2816    0.5617 C   0  0  0  0  0  0  0  0  0  0  0  0
   -5.5269   -2.3560   -0.0506 C   0  0  0  0  0  0  0  0  0  0  0  0
   -6.7400   -2.8288    0.4593 C   0  0  0  0  0  0  0  0  0  0  0  0
   -7.2927   -2.2359    1.5916 C   0  0  0  0  0  0  0  0  0  0  0  0
   -8.7866   -2.8149    2.2174 Cl  0  0  0  0  0  0  0  0  0  0  0  0
   -6.6398   -1.1794    2.2221 C   0  0  0  0  0  0  0  0  0  0  0  0
   -5.4264   -0.7075    1.7122 C   0  0  0  0  0  0  0  0  0  0  0  0
    3.1645   -3.4387    2.7162 H   0  0  0  0  0  0  0  0  0  0  0  0
    3.6580   -1.7315    2.7389 H   0  0  0  0  0  0  0  0  0  0  0  0
    1.9811   -2.1461    2.4032 H   0  0  0  0  0  0  0  0  0  0  0  0
    2.6739   -3.2835    0.2840 H   0  0  0  0  0  0  0  0  0  0  0  0
    4.3568   -2.8553    0.5739 H   0  0  0  0  0  0  0  0  0  0  0  0
    6.4347    1.0322   -1.3432 H   0  0  0  0  0  0  0  0  0  0  0  0
    6.3778    2.0083    0.1425 H   0  0  0  0  0  0  0  0  0  0  0  0
    6.3964    2.7980   -1.4430 H   0  0  0  0  0  0  0  0  0  0  0  0
    4.1765    3.7608   -1.8350 H   0  0  0  0  0  0  0  0  0  0  0  0
    0.5807    3.6522   -1.0691 H   0  0  0  0  0  0  0  0  0  0  0  0
    1.8462    4.6429   -1.8027 H   0  0  0  0  0  0  0  0  0  0  0  0
    1.0582    3.3779   -2.7593 H   0  0  0  0  0  0  0  0  0  0  0  0
    0.5897   -0.5004   -1.9980 H   0  0  0  0  0  0  0  0  0  0  0  0
    0.0325    1.1585   -2.2268 H   0  0  0  0  0  0  0  0  0  0  0  0
   -3.8950    1.2613    0.2471 H   0  0  0  0  0  0  0  0  0  0  0  0
   -2.9219   -1.6136   -0.3504 H   0  0  0  0  0  0  0  0  0  0  0  0
   -5.1073   -2.8305   -0.9356 H   0  0  0  0  0  0  0  0  0  0  0  0
   -7.2445   -3.6572   -0.0308 H   0  0  0  0  0  0  0  0  0  0  0  0
   -7.0650   -0.7204    3.1103 H   0  0  0  0  0  0  0  0  0  0  0  0
   -4.9207    0.1046    2.2323 H   0  0  0  0  0  0  0  0  0  0  0  0
  1  2  1  0
  2  3  1  0
  3  4  1  0
  4  5  2  0
  4  6  1  0
  6  7  2  0
  7  8  1  0
  7  9  1  0
  9 10  1  0
 10 11  1  0
 10 12  2  0
 12 13  1  0
 13 14  2  0
 13 15  1  0
 15 16  1  0
 16 17  1  0
 17 18  2  0
 17 19  1  0
 19 20  2  3
 20 21  1  0
 21 22  2  0
 22 23  1  0
 23 24  2  0
 24 25  1  0
 24 26  1  0
 26 27  2  0
 12  6  1  0
 27 21  1  0
  1 28  1  0
  1 29  1  0
  1 30  1  0
  2 31  1  0
  2 32  1  0
  8 33  1  0
  8 34  1  0
  8 35  1  0
  9 36  1  0
 11 37  1  0
 11 38  1  0
 11 39  1  0
 15 40  1  0
 15 41  1  0
 19 42  1  0
 20 43  1  0
 22 44  1  0
 23 45  1  0
 26 46  1  0
 27 47  1  0
M  END
$$$$
