
     RDKit          3D

 42 44  0  0  0  0  0  0  0  0999 V2000
   -2.3630    3.0670    0.6673 C   0  0  0  0  0  0  0  0  0  0  0  0
   -1.5453    1.8401    1.0360 C   0  0  0  0  0  0  0  0  0  0  0  0
   -1.3834    0.9260   -0.0782 N   0  0  0  0  0  0  0  0  0  0  0  0
   -0.4300    0.9738   -1.0605 C   0  0  0  0  0  0  0  0  0  0  0  0
    0.8717    2.1092   -1.0891 S   0  0  0  0  0  0  0  0  0  0  0  0
    1.7725    1.6086   -2.5851 C   0  0  0  0  0  0  0  0  0  0  0  0
    2.3566    0.2105   -2.5471 C   0  0  0  0  0  0  0  0  0  0  0  0
    2.4017   -0.4932   -3.5573 O   0  0  0  0  0  0  0  0  0  0  0  0
    2.9830   -0.3165   -1.3112 C   0  0  0  0  0  0  0  0  0  0  0  0
    2.7426   -1.6503   -0.9641 C   0  0  0  0  0  0  0  0  0  0  0  0
    3.3188   -2.1869    0.1908 C   0  0  0  0  0  0  0  0  0  0  0  0
    4.1561   -1.4008    0.9924 C   0  0  0  0  0  0  0  0  0  0  0  0
    4.7590   -1.9730    2.2442 C   0  0  0  0  0  0  0  0  0  0  0  0
    4.3917   -0.0647    0.6363 C   0  0  0  0  0  0  0  0  0  0  0  0
    3.8166    0.4750   -0.5158 C   0  0  0  0  0  0  0  0  0  0  0  0
   -0.6675    0.0479   -1.9542 N   0  0  0  0  0  0  0  0  0  0  0  0
   -1.7962   -0.6276   -1.5633 N   0  0  0  0  0  0  0  0  0  0  0  0
   -2.2160   -0.1217   -0.4172 C   0  0  0  0  0  0  0  0  0  0  0  0
   -3.3990   -0.5666    0.3070 C   0  0  0  0  0  0  0  0  0  0  0  0
   -4.6419   -0.5431   -0.3262 C   0  0  0  0  0  0  0  0  0  0  0  0
   -5.7495   -0.9730    0.3826 C   0  0  0  0  0  0  0  0  0  0  0  0
   -5.6965   -1.4203    1.6559 N   0  0  0  0  0  0  0  0  0  0  0  0
   -4.4795   -1.4666    2.2358 C   0  0  0  0  0  0  0  0  0  0  0  0
   -3.3139   -1.0591    1.6099 C   0  0  0  0  0  0  0  0  0  0  0  0
   -3.3611    2.7880    0.3118 H   0  0  0  0  0  0  0  0  0  0  0  0
   -2.4815    3.7162    1.5385 H   0  0  0  0  0  0  0  0  0  0  0  0
   -1.8755    3.6437   -0.1244 H   0  0  0  0  0  0  0  0  0  0  0  0
   -0.5524    2.1279    1.3971 H   0  0  0  0  0  0  0  0  0  0  0  0
   -2.0250    1.3093    1.8633 H   0  0  0  0  0  0  0  0  0  0  0  0
    2.5893    2.3152   -2.7625 H   0  0  0  0  0  0  0  0  0  0  0  0
    1.0866    1.6752   -3.4375 H   0  0  0  0  0  0  0  0  0  0  0  0
    2.1017   -2.2699   -1.5893 H   0  0  0  0  0  0  0  0  0  0  0  0
    3.1184   -3.2251    0.4491 H   0  0  0  0  0  0  0  0  0  0  0  0
    4.9540   -3.0446    2.1283 H   0  0  0  0  0  0  0  0  0  0  0  0
    5.7163   -1.4924    2.4722 H   0  0  0  0  0  0  0  0  0  0  0  0
    4.0800   -1.8259    3.0883 H   0  0  0  0  0  0  0  0  0  0  0  0
    5.0362    0.5600    1.2517 H   0  0  0  0  0  0  0  0  0  0  0  0
    4.0364    1.5047   -0.7808 H   0  0  0  0  0  0  0  0  0  0  0  0
   -4.7444   -0.2058   -1.3508 H   0  0  0  0  0  0  0  0  0  0  0  0
   -6.7378   -0.9707   -0.0679 H   0  0  0  0  0  0  0  0  0  0  0  0
   -4.4652   -1.8561    3.2482 H   0  0  0  0  0  0  0  0  0  0  0  0
   -2.3644   -1.1447    2.1264 H   0  0  0  0  0  0  0  0  0  0  0  0
  1  2  1  0
  2  3  1  0
  3  4  1  0
  4  5  1  0
  5  6  1  0
  6  7  1  0
  7  8  2  0
  7  9  1  0
  9 10  2  0
 10 11  1  0
 11 12  2  0
 12 13  1  0
 12 14  1  0
 14 15  2  0
  4 16  2  0
 16 17  1  0
 17 18  2  0
 18 19  1  0
 19 20  2  0
 20 21  1  0
 21 22  2  0
 22 23  1  0
 23 24  2  0
 18  3  1  0
 24 19  1  0
 15  9  1  0
  1 25  1  0
  1 26  1  0
  1 27  1  0
  2 28  1  0
  2 29  1  0
  6 30  1  0
  6 31  1  0
 10 32  1  0
 11 33  1  0
 13 34  1  0
 13 35  1  0
 13 36  1  0
 14 37  1  0
 15 38  1  0
 20 39  1  0
 21 40  1  0
 23 41  1  0
 24 42  1  0
M  END
$$$$
