
     RDKit          3D

 41 43  0  0  0  0  0  0  0  0999 V2000
   -6.8376   -1.0339    1.3280 C   0  0  0  0  0  0  0  0  0  0  0  0
   -6.6530    0.3403    0.7081 C   0  0  0  0  0  0  0  0  0  0  0  0
   -5.8091    0.2675   -0.4398 O   0  0  0  0  0  0  0  0  0  0  0  0
   -4.4627    0.4299   -0.2807 C   0  0  0  0  0  0  0  0  0  0  0  0
   -3.7425    0.4992   -1.4741 C   0  0  0  0  0  0  0  0  0  0  0  0
   -2.3536    0.6631   -1.4660 C   0  0  0  0  0  0  0  0  0  0  0  0
   -1.6553    0.7691   -0.2565 C   0  0  0  0  0  0  0  0  0  0  0  0
   -0.2208    0.9288   -0.2479 N   0  0  0  0  0  0  0  0  0  0  0  0
    0.5091   -0.0124   -0.9983 C   0  0  0  0  0  0  0  0  0  0  0  0
    0.0026   -0.9193   -1.6630 O   0  0  0  0  0  0  0  0  0  0  0  0
    1.9940    0.0928   -0.9208 C   0  0  0  0  0  0  0  0  0  0  0  0
    2.6929   -0.9516   -1.4077 C   0  0  0  0  0  0  0  0  0  0  0  0
    4.0974   -1.1178   -1.2824 C   0  0  0  0  0  0  0  0  0  0  0  0
    4.9888   -1.6754   -2.1908 C   0  0  0  0  0  0  0  0  0  0  0  0
    6.2763   -1.6593   -1.6040 C   0  0  0  0  0  0  0  0  0  0  0  0
    6.1139   -1.1135   -0.3539 C   0  0  0  0  0  0  0  0  0  0  0  0
    7.0382   -0.8098    0.7549 C   0  0  0  0  0  0  0  0  0  0  0  0
    4.8069   -0.8067   -0.1455 O   0  0  0  0  0  0  0  0  0  0  0  0
    2.5987    1.2960   -0.3279 C   0  0  0  0  0  0  0  0  0  0  0  0
    3.7205    1.7198   -0.5721 O   0  0  0  0  0  0  0  0  0  0  0  0
    1.7520    2.0123    0.4657 N   0  0  0  0  0  0  0  0  0  0  0  0
    0.3813    1.9663    0.4799 C   0  0  0  0  0  0  0  0  0  0  0  0
   -0.3507    3.2334    1.3130 S   0  0  0  0  0  0  0  0  0  0  0  0
   -2.3818    0.6717    0.9389 C   0  0  0  0  0  0  0  0  0  0  0  0
   -3.7742    0.5074    0.9272 C   0  0  0  0  0  0  0  0  0  0  0  0
   -7.2214   -1.7405    0.5846 H   0  0  0  0  0  0  0  0  0  0  0  0
   -5.8890   -1.4406    1.6905 H   0  0  0  0  0  0  0  0  0  0  0  0
   -7.5399   -0.9889    2.1652 H   0  0  0  0  0  0  0  0  0  0  0  0
   -7.6282    0.6925    0.3530 H   0  0  0  0  0  0  0  0  0  0  0  0
   -6.3125    1.0853    1.4356 H   0  0  0  0  0  0  0  0  0  0  0  0
   -4.2673    0.4243   -2.4238 H   0  0  0  0  0  0  0  0  0  0  0  0
   -1.8333    0.7173   -2.4193 H   0  0  0  0  0  0  0  0  0  0  0  0
    2.1744   -1.7769   -1.8916 H   0  0  0  0  0  0  0  0  0  0  0  0
    4.7324   -2.0414   -3.1756 H   0  0  0  0  0  0  0  0  0  0  0  0
    7.2046   -2.0020   -2.0387 H   0  0  0  0  0  0  0  0  0  0  0  0
    6.7570   -1.3696    1.6521 H   0  0  0  0  0  0  0  0  0  0  0  0
    7.0141    0.2583    0.9918 H   0  0  0  0  0  0  0  0  0  0  0  0
    8.0666   -1.0779    0.4940 H   0  0  0  0  0  0  0  0  0  0  0  0
    2.1696    2.8425    0.8695 H   0  0  0  0  0  0  0  0  0  0  0  0
   -1.8774    0.6909    1.9021 H   0  0  0  0  0  0  0  0  0  0  0  0
   -4.2813    0.4287    1.8826 H   0  0  0  0  0  0  0  0  0  0  0  0
  1  2  1  0
  2  3  1  0
  3  4  1  0
  4  5  2  0
  5  6  1  0
  6  7  2  0
  7  8  1  0
  8  9  1  0
  9 10  2  0
  9 11  1  0
 11 12  2  3
 12 13  1  0
 13 14  2  0
 14 15  1  0
 15 16  2  0
 16 17  1  0
 16 18  1  0
 11 19  1  0
 19 20  2  0
 19 21  1  0
 21 22  1  0
 22 23  2  0
  7 24  1  0
 24 25  2  0
 25  4  1  0
 22  8  1  0
 18 13  1  0
  1 26  1  0
  1 27  1  0
  1 28  1  0
  2 29  1  0
  2 30  1  0
  5 31  1  0
  6 32  1  0
 12 33  1  0
 14 34  1  0
 15 35  1  0
 17 36  1  0
 17 37  1  0
 17 38  1  0
 21 39  1  0
 24 40  1  0
 25 41  1  0
M  END
$$$$
