
     RDKit          3D

 54 56  0  0  0  0  0  0  0  0999 V2000
   -1.5613   -2.7691    2.6928 N   0  0  0  0  0  0  0  0  0  0  0  0
   -2.3595   -1.6896    2.6111 C   0  0  0  0  0  0  0  0  0  0  0  0
   -3.3143   -1.4470    3.4647 N   0  0  0  0  0  0  0  0  0  0  0  0
   -3.8346   -0.1171    3.0244 C   0  0  0  0  0  0  0  0  0  0  0  0
   -3.3244    0.1017    1.5802 C   0  0  0  0  0  0  0  0  0  0  0  0
   -4.4224   -0.3094    0.5780 C   0  0  0  0  0  0  0  0  0  0  0  0
   -4.1214    0.0264   -0.8636 C   0  0  0  0  0  0  0  0  0  0  0  0
   -4.1480    1.3551   -1.3080 C   0  0  0  0  0  0  0  0  0  0  0  0
   -3.8746    1.6593   -2.6430 C   0  0  0  0  0  0  0  0  0  0  0  0
   -3.5720    0.6402   -3.5443 C   0  0  0  0  0  0  0  0  0  0  0  0
   -3.5437   -0.6842   -3.1130 C   0  0  0  0  0  0  0  0  0  0  0  0
   -3.8201   -0.9912   -1.7797 C   0  0  0  0  0  0  0  0  0  0  0  0
   -2.2010   -0.8248    1.5819 N   0  0  0  0  0  0  0  0  0  0  0  0
   -1.1399   -0.7439    0.6047 C   0  0  0  0  0  0  0  0  0  0  0  0
    0.0805   -0.0358    1.1960 C   0  0  0  0  0  0  0  0  0  0  0  0
    1.2196    0.0409    0.1750 C   0  0  0  0  0  0  0  0  0  0  0  0
    2.4390    0.7655    0.7546 C   0  0  0  0  0  0  0  0  0  0  0  0
    3.6806    0.7932   -0.1579 C   0  0  0  0  0  0  0  0  0  0  0  0
    3.3955    1.3466   -1.5578 C   0  0  0  0  0  0  0  0  0  0  0  0
    4.6860    1.5506   -2.3565 C   0  0  0  0  0  0  0  0  0  0  0  0
    5.7851    0.5421   -2.0137 C   0  0  0  0  0  0  0  0  0  0  0  0
    5.2100   -0.7734   -1.5062 C   0  0  0  0  0  0  0  0  0  0  0  0
    4.3766   -0.5812   -0.2357 C   0  0  0  0  0  0  0  0  0  0  0  0
   -0.5820   -2.5565    2.5605 H   0  0  0  0  0  0  0  0  0  0  0  0
   -1.7121   -3.2449    3.5761 H   0  0  0  0  0  0  0  0  0  0  0  0
   -4.9243   -0.0880    3.1053 H   0  0  0  0  0  0  0  0  0  0  0  0
   -3.4254    0.6456    3.6951 H   0  0  0  0  0  0  0  0  0  0  0  0
   -3.0084    1.1416    1.4382 H   0  0  0  0  0  0  0  0  0  0  0  0
   -4.6371   -1.3829    0.6670 H   0  0  0  0  0  0  0  0  0  0  0  0
   -5.3621    0.2007    0.8332 H   0  0  0  0  0  0  0  0  0  0  0  0
   -4.3881    2.1630   -0.6197 H   0  0  0  0  0  0  0  0  0  0  0  0
   -3.9039    2.6922   -2.9808 H   0  0  0  0  0  0  0  0  0  0  0  0
   -3.3632    0.8781   -4.5842 H   0  0  0  0  0  0  0  0  0  0  0  0
   -3.3102   -1.4810   -3.8154 H   0  0  0  0  0  0  0  0  0  0  0  0
   -3.7932   -2.0293   -1.4557 H   0  0  0  0  0  0  0  0  0  0  0  0
   -1.4646   -0.1858   -0.2774 H   0  0  0  0  0  0  0  0  0  0  0  0
   -0.8692   -1.7474    0.2549 H   0  0  0  0  0  0  0  0  0  0  0  0
    0.4275   -0.5617    2.0940 H   0  0  0  0  0  0  0  0  0  0  0  0
   -0.2006    0.9767    1.5134 H   0  0  0  0  0  0  0  0  0  0  0  0
    1.4900   -0.9737   -0.1363 H   0  0  0  0  0  0  0  0  0  0  0  0
    0.8642    0.5687   -0.7170 H   0  0  0  0  0  0  0  0  0  0  0  0
    2.7167    0.3056    1.7116 H   0  0  0  0  0  0  0  0  0  0  0  0
    2.1531    1.8022    0.9812 H   0  0  0  0  0  0  0  0  0  0  0  0
    4.3925    1.4807    0.3217 H   0  0  0  0  0  0  0  0  0  0  0  0
    2.8526    2.2964   -1.4989 H   0  0  0  0  0  0  0  0  0  0  0  0
    2.7517    0.6485   -2.1084 H   0  0  0  0  0  0  0  0  0  0  0  0
    4.4483    1.4910   -3.4248 H   0  0  0  0  0  0  0  0  0  0  0  0
    5.0724    2.5633   -2.1859 H   0  0  0  0  0  0  0  0  0  0  0  0
    6.4426    0.9676   -1.2433 H   0  0  0  0  0  0  0  0  0  0  0  0
    6.4129    0.3679   -2.8948 H   0  0  0  0  0  0  0  0  0  0  0  0
    4.5797   -1.2151   -2.2890 H   0  0  0  0  0  0  0  0  0  0  0  0
    6.0158   -1.4908   -1.3117 H   0  0  0  0  0  0  0  0  0  0  0  0
    5.0296   -0.6819    0.6408 H   0  0  0  0  0  0  0  0  0  0  0  0
    3.6594   -1.4054   -0.1675 H   0  0  0  0  0  0  0  0  0  0  0  0
  1  2  1  0
  2  3  2  0
  3  4  1  0
  4  5  1  0
  5  6  1  0
  6  7  1  0
  7  8  2  0
  8  9  1  0
  9 10  2  0
 10 11  1  0
 11 12  2  0
  5 13  1  0
 13 14  1  0
 14 15  1  0
 15 16  1  0
 16 17  1  0
 17 18  1  0
 18 19  1  0
 19 20  1  0
 20 21  1  0
 21 22  1  0
 22 23  1  0
 13  2  1  0
 23 18  1  0
 12  7  1  0
  1 24  1  0
  1 25  1  0
  4 26  1  0
  4 27  1  0
  5 28  1  0
  6 29  1  0
  6 30  1  0
  8 31  1  0
  9 32  1  0
 10 33  1  0
 11 34  1  0
 12 35  1  0
 14 36  1  0
 14 37  1  0
 15 38  1  0
 15 39  1  0
 16 40  1  0
 16 41  1  0
 17 42  1  0
 17 43  1  0
 18 44  1  0
 19 45  1  0
 19 46  1  0
 20 47  1  0
 20 48  1  0
 21 49  1  0
 21 50  1  0
 22 51  1  0
 22 52  1  0
 23 53  1  0
 23 54  1  0
M  END
$$$$
