
     RDKit          3D

 49 51  0  0  0  0  0  0  0  0999 V2000
   -2.2485    2.4926   -1.1460 C   0  0  0  0  0  0  0  0  0  0  0  0
   -3.1599    1.8801   -0.0943 C   0  0  0  0  0  0  0  0  0  0  0  0
   -2.4343    1.3667    1.0473 N   0  0  0  0  0  0  0  0  0  0  0  0
   -2.0449    2.0483    2.1647 C   0  0  0  0  0  0  0  0  0  0  0  0
   -2.2027    3.7567    2.3812 S   0  0  0  0  0  0  0  0  0  0  0  0
   -0.5026    4.1538    2.9174 C   0  0  0  0  0  0  0  0  0  0  0  0
    0.4867    3.8087    1.8150 C   0  0  0  0  0  0  0  0  0  0  0  0
    0.7833    4.6198    0.9401 O   0  0  0  0  0  0  0  0  0  0  0  0
    0.9559    2.5021    1.8947 N   0  0  0  0  0  0  0  0  0  0  0  0
    1.6747    1.9742    0.8609 N   0  0  0  0  0  0  0  0  0  0  0  0
    1.8255    0.6892    0.9064 C   0  0  0  0  0  0  0  0  0  0  0  0
    2.5398   -0.0839   -0.1499 C   0  0  0  0  0  0  0  0  0  0  0  0
    3.2398    0.7133   -1.2088 C   0  0  0  0  0  0  0  0  0  0  0  0
    2.4869   -1.4219   -0.0123 C   0  0  0  0  0  0  0  0  0  0  0  0
    3.0448   -2.3470   -0.9403 C   0  0  0  0  0  0  0  0  0  0  0  0
    3.2789   -3.7074   -0.7557 C   0  0  0  0  0  0  0  0  0  0  0  0
    3.8336   -4.2247   -1.9501 C   0  0  0  0  0  0  0  0  0  0  0  0
    3.9049   -3.1661   -2.8163 C   0  0  0  0  0  0  0  0  0  0  0  0
    3.4204   -2.0450   -2.2311 O   0  0  0  0  0  0  0  0  0  0  0  0
   -1.3951    1.2467    2.9770 N   0  0  0  0  0  0  0  0  0  0  0  0
   -1.3605    0.0067    2.3938 N   0  0  0  0  0  0  0  0  0  0  0  0
   -1.9791    0.0755    1.2268 C   0  0  0  0  0  0  0  0  0  0  0  0
   -2.1440   -1.0280    0.2933 C   0  0  0  0  0  0  0  0  0  0  0  0
   -3.1223   -2.0025    0.5279 C   0  0  0  0  0  0  0  0  0  0  0  0
   -3.2766   -3.0713   -0.3563 C   0  0  0  0  0  0  0  0  0  0  0  0
   -2.4444   -3.1808   -1.4715 C   0  0  0  0  0  0  0  0  0  0  0  0
   -1.4582   -2.2220   -1.7041 C   0  0  0  0  0  0  0  0  0  0  0  0
   -1.3081   -1.1468   -0.8244 C   0  0  0  0  0  0  0  0  0  0  0  0
   -2.8423    2.8650   -1.9875 H   0  0  0  0  0  0  0  0  0  0  0  0
   -1.5403    1.7584   -1.5383 H   0  0  0  0  0  0  0  0  0  0  0  0
   -1.6683    3.3293   -0.7403 H   0  0  0  0  0  0  0  0  0  0  0  0
   -3.7464    1.0612   -0.5282 H   0  0  0  0  0  0  0  0  0  0  0  0
   -3.8823    2.6209    0.2673 H   0  0  0  0  0  0  0  0  0  0  0  0
   -0.2550    3.6271    3.8450 H   0  0  0  0  0  0  0  0  0  0  0  0
   -0.4338    5.2271    3.1231 H   0  0  0  0  0  0  0  0  0  0  0  0
    0.5303    1.8596    2.5684 H   0  0  0  0  0  0  0  0  0  0  0  0
    1.3957    0.0932    1.7333 H   0  0  0  0  0  0  0  0  0  0  0  0
    3.6183    1.6615   -0.8110 H   0  0  0  0  0  0  0  0  0  0  0  0
    4.1181    0.1959   -1.6045 H   0  0  0  0  0  0  0  0  0  0  0  0
    2.5557    0.9369   -2.0345 H   0  0  0  0  0  0  0  0  0  0  0  0
    1.9708   -1.8666    0.8379 H   0  0  0  0  0  0  0  0  0  0  0  0
    3.0764   -4.2578    0.1534 H   0  0  0  0  0  0  0  0  0  0  0  0
    4.1438   -5.2412   -2.1509 H   0  0  0  0  0  0  0  0  0  0  0  0
    4.2497   -3.0508   -3.8346 H   0  0  0  0  0  0  0  0  0  0  0  0
   -3.7622   -1.9366    1.4049 H   0  0  0  0  0  0  0  0  0  0  0  0
   -4.0391   -3.8245   -0.1698 H   0  0  0  0  0  0  0  0  0  0  0  0
   -2.5585   -4.0182   -2.1563 H   0  0  0  0  0  0  0  0  0  0  0  0
   -0.7999   -2.3135   -2.5648 H   0  0  0  0  0  0  0  0  0  0  0  0
   -0.5250   -0.4139   -1.0131 H   0  0  0  0  0  0  0  0  0  0  0  0
  1  2  1  0
  2  3  1  0
  3  4  1  0
  4  5  1  0
  5  6  1  0
  6  7  1  0
  7  8  2  0
  7  9  1  0
  9 10  1  0
 10 11  2  3
 11 12  1  0
 12 13  1  0
 12 14  2  3
 14 15  1  0
 15 16  2  0
 16 17  1  0
 17 18  2  0
 18 19  1  0
  4 20  2  0
 20 21  1  0
 21 22  2  0
 22 23  1  0
 23 24  2  0
 24 25  1  0
 25 26  2  0
 26 27  1  0
 27 28  2  0
 22  3  1  0
 28 23  1  0
 19 15  1  0
  1 29  1  0
  1 30  1  0
  1 31  1  0
  2 32  1  0
  2 33  1  0
  6 34  1  0
  6 35  1  0
  9 36  1  0
 11 37  1  0
 13 38  1  0
 13 39  1  0
 13 40  1  0
 14 41  1  0
 16 42  1  0
 17 43  1  0
 18 44  1  0
 24 45  1  0
 25 46  1  0
 26 47  1  0
 27 48  1  0
 28 49  1  0
M  END
$$$$
