
     RDKit          3D

 30 33  0  0  0  0  0  0  0  0999 V2000
    0.9544    1.3985    2.6434 O   0  0  0  0  0  0  0  0  0  0  0  0
    0.9707    0.7887    1.5892 C   0  0  0  0  0  0  0  0  0  0  0  0
    2.1377    0.2824    0.7993 C   0  0  0  0  0  0  0  0  0  0  0  0
    3.3724    0.5111    1.2689 C   0  0  0  0  0  0  0  0  0  0  0  0
    4.5881    0.1026    0.6515 C   0  0  0  0  0  0  0  0  0  0  0  0
    5.8871    0.3261    1.1005 C   0  0  0  0  0  0  0  0  0  0  0  0
    6.7817   -0.2568    0.1721 C   0  0  0  0  0  0  0  0  0  0  0  0
    5.9947   -0.8110   -0.8028 C   0  0  0  0  0  0  0  0  0  0  0  0
    4.6862   -0.6025   -0.5261 O   0  0  0  0  0  0  0  0  0  0  0  0
    1.6370   -0.5538   -0.6583 S   0  0  0  0  0  0  0  0  0  0  0  0
   -0.0035   -0.2554   -0.2670 C   0  0  0  0  0  0  0  0  0  0  0  0
   -1.1544   -0.5335   -0.8069 N   0  0  0  0  0  0  0  0  0  0  0  0
   -2.0406    0.0566    0.0914 C   0  0  0  0  0  0  0  0  0  0  0  0
   -3.4823   -0.0339   -0.1028 C   0  0  0  0  0  0  0  0  0  0  0  0
   -4.0093   -1.2747   -0.5081 C   0  0  0  0  0  0  0  0  0  0  0  0
   -5.3819   -1.4476   -0.6987 C   0  0  0  0  0  0  0  0  0  0  0  0
   -6.2495   -0.3801   -0.4931 C   0  0  0  0  0  0  0  0  0  0  0  0
   -5.7438    0.8614   -0.1073 C   0  0  0  0  0  0  0  0  0  0  0  0
   -4.3660    1.0408    0.0840 C   0  0  0  0  0  0  0  0  0  0  0  0
   -3.7991    2.8030    0.5267 Br  0  0  0  0  0  0  0  0  0  0  0  0
   -1.4522    0.6258    1.1656 N   0  0  0  0  0  0  0  0  0  0  0  0
   -0.1551    0.4242    0.8842 N   0  0  0  0  0  0  0  0  0  0  0  0
    3.4779    1.0573    2.2057 H   0  0  0  0  0  0  0  0  0  0  0  0
    6.1547    0.8560    2.0051 H   0  0  0  0  0  0  0  0  0  0  0  0
    7.8617   -0.2703    0.2101 H   0  0  0  0  0  0  0  0  0  0  0  0
    6.1992   -1.3592   -1.7120 H   0  0  0  0  0  0  0  0  0  0  0  0
   -3.3439   -2.1211   -0.6738 H   0  0  0  0  0  0  0  0  0  0  0  0
   -5.7699   -2.4153   -1.0073 H   0  0  0  0  0  0  0  0  0  0  0  0
   -7.3188   -0.5099   -0.6408 H   0  0  0  0  0  0  0  0  0  0  0  0
   -6.4332    1.6907    0.0346 H   0  0  0  0  0  0  0  0  0  0  0  0
  1  2  2  0
  2  3  1  0
  3  4  2  3
  4  5  1  0
  5  6  2  0
  6  7  1  0
  7  8  2  0
  8  9  1  0
  3 10  1  0
 10 11  1  0
 11 12  2  0
 12 13  1  0
 13 14  1  0
 14 15  2  0
 15 16  1  0
 16 17  2  0
 17 18  1  0
 18 19  2  0
 19 20  1  0
 13 21  2  0
 21 22  1  0
 22  2  1  0
  9  5  1  0
 22 11  1  0
 19 14  1  0
  4 23  1  0
  6 24  1  0
  7 25  1  0
  8 26  1  0
 15 27  1  0
 16 28  1  0
 17 29  1  0
 18 30  1  0
M  END
$$$$
