
     RDKit          3D

 44 46  0  0  0  0  0  0  0  0999 V2000
    3.5385    1.3631   -1.4813 C   0  0  0  0  0  0  0  0  0  0  0  0
    4.4885    0.7477   -0.4439 C   0  0  0  0  0  0  0  0  0  0  0  0
    5.7717    0.3188   -1.1769 C   0  0  0  0  0  0  0  0  0  0  0  0
    4.8445    1.8098    0.6147 C   0  0  0  0  0  0  0  0  0  0  0  0
    3.9253   -0.4917    0.2934 C   0  0  0  0  0  0  0  0  0  0  0  0
    4.6725   -1.1895    0.9892 O   0  0  0  0  0  0  0  0  0  0  0  0
    2.4531   -0.8411    0.2040 C   0  0  0  0  0  0  0  0  0  0  0  0
    1.4878    0.2336    1.3056 S   0  0  0  0  0  0  0  0  0  0  0  0
   -0.1723   -0.2813    0.8706 C   0  0  0  0  0  0  0  0  0  0  0  0
   -0.2861   -1.5765    0.4566 N   0  0  0  0  0  0  0  0  0  0  0  0
   -1.5197   -1.9969    0.1430 C   0  0  0  0  0  0  0  0  0  0  0  0
   -2.6564   -1.2107    0.1996 C   0  0  0  0  0  0  0  0  0  0  0  0
   -2.5486    0.1066    0.6342 C   0  0  0  0  0  0  0  0  0  0  0  0
   -3.7393    0.9522    0.7197 C   0  0  0  0  0  0  0  0  0  0  0  0
   -4.2194    1.8670   -0.1977 C   0  0  0  0  0  0  0  0  0  0  0  0
   -5.4103    2.5066    0.2523 C   0  0  0  0  0  0  0  0  0  0  0  0
   -5.7967    2.0568    1.4944 C   0  0  0  0  0  0  0  0  0  0  0  0
   -4.7289    0.8700    2.1164 S   0  0  0  0  0  0  0  0  0  0  0  0
   -1.2674    0.5880    0.9742 C   0  0  0  0  0  0  0  0  0  0  0  0
   -1.0877    1.9425    1.4012 C   0  0  0  0  0  0  0  0  0  0  0  0
   -0.9510    3.0445    1.7368 N   0  0  0  0  0  0  0  0  0  0  0  0
   -3.8680   -2.0014   -0.1887 C   0  0  0  0  0  0  0  0  0  0  0  0
   -3.2334   -3.2050   -0.9009 C   0  0  0  0  0  0  0  0  0  0  0  0
   -1.8545   -3.4050   -0.2630 C   0  0  0  0  0  0  0  0  0  0  0  0
    2.6120    1.7163   -1.0259 H   0  0  0  0  0  0  0  0  0  0  0  0
    3.2720    0.6453   -2.2667 H   0  0  0  0  0  0  0  0  0  0  0  0
    4.0025    2.2297   -1.9691 H   0  0  0  0  0  0  0  0  0  0  0  0
    5.5569   -0.4568   -1.9269 H   0  0  0  0  0  0  0  0  0  0  0  0
    6.2420    1.1658   -1.6833 H   0  0  0  0  0  0  0  0  0  0  0  0
    6.5114   -0.0963   -0.4859 H   0  0  0  0  0  0  0  0  0  0  0  0
    3.9589    2.1535    1.1606 H   0  0  0  0  0  0  0  0  0  0  0  0
    5.5466    1.4134    1.3610 H   0  0  0  0  0  0  0  0  0  0  0  0
    5.3123    2.6911    0.1535 H   0  0  0  0  0  0  0  0  0  0  0  0
    2.1144   -0.7779   -0.8353 H   0  0  0  0  0  0  0  0  0  0  0  0
    2.3391   -1.8849    0.5223 H   0  0  0  0  0  0  0  0  0  0  0  0
   -3.7389    2.0736   -1.1438 H   0  0  0  0  0  0  0  0  0  0  0  0
   -5.9525    3.2636   -0.3017 H   0  0  0  0  0  0  0  0  0  0  0  0
   -6.6548    2.3694    2.0717 H   0  0  0  0  0  0  0  0  0  0  0  0
   -4.5362   -1.4561   -0.8634 H   0  0  0  0  0  0  0  0  0  0  0  0
   -4.4116   -2.3190    0.7068 H   0  0  0  0  0  0  0  0  0  0  0  0
   -3.8585   -4.1045   -0.8420 H   0  0  0  0  0  0  0  0  0  0  0  0
   -3.1080   -2.9711   -1.9666 H   0  0  0  0  0  0  0  0  0  0  0  0
   -1.9163   -4.0438    0.6258 H   0  0  0  0  0  0  0  0  0  0  0  0
   -1.1335   -3.8194   -0.9650 H   0  0  0  0  0  0  0  0  0  0  0  0
  1  2  1  0
  2  3  1  0
  2  4  1  0
  2  5  1  0
  5  6  2  0
  5  7  1  0
  7  8  1  0
  8  9  1  0
  9 10  2  0
 10 11  1  0
 11 12  2  0
 12 13  1  0
 13 14  1  0
 14 15  2  0
 15 16  1  0
 16 17  2  0
 17 18  1  0
 13 19  2  0
 19 20  1  0
 20 21  3  0
 12 22  1  0
 22 23  1  0
 23 24  1  0
 19  9  1  0
 24 11  1  0
 18 14  1  0
  1 25  1  0
  1 26  1  0
  1 27  1  0
  3 28  1  0
  3 29  1  0
  3 30  1  0
  4 31  1  0
  4 32  1  0
  4 33  1  0
  7 34  1  0
  7 35  1  0
 15 36  1  0
 16 37  1  0
 17 38  1  0
 22 39  1  0
 22 40  1  0
 23 41  1  0
 23 42  1  0
 24 43  1  0
 24 44  1  0
M  END
$$$$
