
     RDKit          3D

 47 50  0  0  0  0  0  0  0  0999 V2000
   -5.8941    2.2202    0.2568 C   0  0  0  0  0  0  0  0  0  0  0  0
   -5.8167    0.8641    0.9436 C   0  0  0  0  0  0  0  0  0  0  0  0
   -5.0797   -0.1040    0.1204 N   0  0  0  0  0  0  0  0  0  0  0  0
   -5.8951   -0.9084   -0.7995 C   0  0  0  0  0  0  0  0  0  0  0  0
   -6.3192   -2.2177   -0.1493 C   0  0  0  0  0  0  0  0  0  0  0  0
   -3.6974   -0.2391    0.1956 C   0  0  0  0  0  0  0  0  0  0  0  0
   -3.0011   -1.2456   -0.4966 C   0  0  0  0  0  0  0  0  0  0  0  0
   -1.6060   -1.3883   -0.4258 C   0  0  0  0  0  0  0  0  0  0  0  0
   -0.8458   -0.5132    0.3438 C   0  0  0  0  0  0  0  0  0  0  0  0
    0.6067   -0.6872    0.4199 C   0  0  0  0  0  0  0  0  0  0  0  0
    1.5290    0.1818   -0.0174 C   0  0  0  0  0  0  0  0  0  0  0  0
    1.2551    1.7211   -0.8006 S   0  0  0  0  0  0  0  0  0  0  0  0
    2.9504    1.9454   -0.9278 C   0  0  0  0  0  0  0  0  0  0  0  0
    3.7185    2.8555   -1.4539 N   0  0  0  0  0  0  0  0  0  0  0  0
    5.0204    2.4209   -1.2420 N   0  0  0  0  0  0  0  0  0  0  0  0
    4.9871    1.2732   -0.5723 C   0  0  0  0  0  0  0  0  0  0  0  0
    6.1403    0.4974   -0.1345 C   0  0  0  0  0  0  0  0  0  0  0  0
    7.0227    0.0070   -1.1106 C   0  0  0  0  0  0  0  0  0  0  0  0
    8.1421   -0.7451   -0.7476 C   0  0  0  0  0  0  0  0  0  0  0  0
    8.3992   -1.0077    0.5958 C   0  0  0  0  0  0  0  0  0  0  0  0
    7.5438   -0.5090    1.5785 C   0  0  0  0  0  0  0  0  0  0  0  0
    6.4227    0.2464    1.2185 C   0  0  0  0  0  0  0  0  0  0  0  0
    5.4433    0.8828    2.4977 Cl  0  0  0  0  0  0  0  0  0  0  0  0
    3.6712    0.9320   -0.3998 N   0  0  0  0  0  0  0  0  0  0  0  0
    2.9812   -0.1369    0.1152 C   0  0  0  0  0  0  0  0  0  0  0  0
    3.5242   -1.1335    0.5522 O   0  0  0  0  0  0  0  0  0  0  0  0
   -1.5025    0.4884    1.0527 C   0  0  0  0  0  0  0  0  0  0  0  0
   -2.8982    0.6184    0.9723 C   0  0  0  0  0  0  0  0  0  0  0  0
   -4.9011    2.6480    0.0893 H   0  0  0  0  0  0  0  0  0  0  0  0
   -6.3895    2.1411   -0.7166 H   0  0  0  0  0  0  0  0  0  0  0  0
   -6.4657    2.9221    0.8718 H   0  0  0  0  0  0  0  0  0  0  0  0
   -5.3881    0.9565    1.9479 H   0  0  0  0  0  0  0  0  0  0  0  0
   -6.8396    0.5024    1.1098 H   0  0  0  0  0  0  0  0  0  0  0  0
   -6.7993   -0.3508   -1.0754 H   0  0  0  0  0  0  0  0  0  0  0  0
   -5.3804   -1.0903   -1.7496 H   0  0  0  0  0  0  0  0  0  0  0  0
   -6.9458   -2.7954   -0.8362 H   0  0  0  0  0  0  0  0  0  0  0  0
   -5.4570   -2.8339    0.1227 H   0  0  0  0  0  0  0  0  0  0  0  0
   -6.8961   -2.0345    0.7634 H   0  0  0  0  0  0  0  0  0  0  0  0
   -3.5287   -1.9680   -1.1116 H   0  0  0  0  0  0  0  0  0  0  0  0
   -1.1324   -2.1922   -0.9843 H   0  0  0  0  0  0  0  0  0  0  0  0
    0.9213   -1.6308    0.8650 H   0  0  0  0  0  0  0  0  0  0  0  0
    6.8418    0.2124   -2.1649 H   0  0  0  0  0  0  0  0  0  0  0  0
    8.8148   -1.1219   -1.5147 H   0  0  0  0  0  0  0  0  0  0  0  0
    9.2709   -1.5926    0.8794 H   0  0  0  0  0  0  0  0  0  0  0  0
    7.7604   -0.7065    2.6257 H   0  0  0  0  0  0  0  0  0  0  0  0
   -0.9484    1.1835    1.6787 H   0  0  0  0  0  0  0  0  0  0  0  0
   -3.3392    1.4318    1.5401 H   0  0  0  0  0  0  0  0  0  0  0  0
  1  2  1  0
  2  3  1  0
  3  4  1  0
  4  5  1  0
  3  6  1  0
  6  7  2  0
  7  8  1  0
  8  9  2  0
  9 10  1  0
 10 11  2  3
 11 12  1  0
 12 13  1  0
 13 14  2  0
 14 15  1  0
 15 16  2  0
 16 17  1  0
 17 18  2  0
 18 19  1  0
 19 20  2  0
 20 21  1  0
 21 22  2  0
 22 23  1  0
 16 24  1  0
 24 25  1  0
 25 26  2  0
  9 27  1  0
 27 28  2  0
 28  6  1  0
 25 11  1  0
 24 13  1  0
 22 17  1  0
  1 29  1  0
  1 30  1  0
  1 31  1  0
  2 32  1  0
  2 33  1  0
  4 34  1  0
  4 35  1  0
  5 36  1  0
  5 37  1  0
  5 38  1  0
  7 39  1  0
  8 40  1  0
 10 41  1  0
 18 42  1  0
 19 43  1  0
 20 44  1  0
 21 45  1  0
 27 46  1  0
 28 47  1  0
M  END
$$$$
