
     RDKit          3D

 57 60  0  0  0  0  0  0  0  0999 V2000
    5.7564    0.5744    1.5903 C   0  0  0  0  0  0  0  0  0  0  0  0
    5.7981    1.0720    0.1523 C   0  0  0  0  0  0  0  0  0  0  0  0
    5.7220   -0.0706   -0.8413 C   0  0  0  0  0  0  0  0  0  0  0  0
    6.9388   -0.5318   -1.3774 C   0  0  0  0  0  0  0  0  0  0  0  0
    6.9651   -1.5798   -2.2890 C   0  0  0  0  0  0  0  0  0  0  0  0
    5.7765   -2.2030   -2.6542 C   0  0  0  0  0  0  0  0  0  0  0  0
    4.5411   -1.7859   -2.1225 C   0  0  0  0  0  0  0  0  0  0  0  0
    3.3398   -2.6099   -2.5066 C   0  0  0  0  0  0  0  0  0  0  0  0
    4.5030   -0.6749   -1.2500 C   0  0  0  0  0  0  0  0  0  0  0  0
    3.2963   -0.1673   -0.7052 N   0  0  0  0  0  0  0  0  0  0  0  0
    2.1085    0.0139   -1.3934 C   0  0  0  0  0  0  0  0  0  0  0  0
    1.9319   -0.1466   -2.5943 O   0  0  0  0  0  0  0  0  0  0  0  0
    0.9808    0.5423   -0.5716 C   0  0  0  0  0  0  0  0  0  0  0  0
    0.8600    0.2531    0.7932 C   0  0  0  0  0  0  0  0  0  0  0  0
   -0.2216    0.7583    1.5236 C   0  0  0  0  0  0  0  0  0  0  0  0
   -1.2021    1.5475    0.9030 C   0  0  0  0  0  0  0  0  0  0  0  0
   -2.3836    2.0853    1.6896 C   0  0  0  0  0  0  0  0  0  0  0  0
   -3.5956    1.2634    1.6982 N   0  0  0  0  0  0  0  0  0  0  0  0
   -3.5274    0.0759    2.5530 C   0  0  0  0  0  0  0  0  0  0  0  0
   -4.6244   -0.9969    2.3438 C   0  0  0  0  0  0  0  0  0  0  0  0
   -5.7906   -0.5405    1.5075 C   0  0  0  0  0  0  0  0  0  0  0  0
   -7.0568   -1.1214    1.6434 C   0  0  0  0  0  0  0  0  0  0  0  0
   -8.1027   -0.7149    0.8147 C   0  0  0  0  0  0  0  0  0  0  0  0
   -7.8846    0.2586   -0.1606 C   0  0  0  0  0  0  0  0  0  0  0  0
   -6.6210    0.8312   -0.3095 C   0  0  0  0  0  0  0  0  0  0  0  0
   -5.5699    0.4404    0.5267 C   0  0  0  0  0  0  0  0  0  0  0  0
   -4.1795    1.0112    0.3835 C   0  0  0  0  0  0  0  0  0  0  0  0
   -1.0717    1.8294   -0.4661 C   0  0  0  0  0  0  0  0  0  0  0  0
    0.0058    1.3250   -1.1989 C   0  0  0  0  0  0  0  0  0  0  0  0
    4.8052    0.0805    1.8216 H   0  0  0  0  0  0  0  0  0  0  0  0
    6.5592   -0.1444    1.7842 H   0  0  0  0  0  0  0  0  0  0  0  0
    5.8767    1.4109    2.2836 H   0  0  0  0  0  0  0  0  0  0  0  0
    6.7268    1.6358   -0.0006 H   0  0  0  0  0  0  0  0  0  0  0  0
    4.9950    1.7941   -0.0318 H   0  0  0  0  0  0  0  0  0  0  0  0
    7.8800   -0.0645   -1.0920 H   0  0  0  0  0  0  0  0  0  0  0  0
    7.9094   -1.9207   -2.7045 H   0  0  0  0  0  0  0  0  0  0  0  0
    5.8137   -3.0399   -3.3506 H   0  0  0  0  0  0  0  0  0  0  0  0
    3.6235   -3.6630   -2.6353 H   0  0  0  0  0  0  0  0  0  0  0  0
    2.9198   -2.2551   -3.4527 H   0  0  0  0  0  0  0  0  0  0  0  0
    2.5751   -2.6070   -1.7242 H   0  0  0  0  0  0  0  0  0  0  0  0
    3.3915    0.4135    0.1148 H   0  0  0  0  0  0  0  0  0  0  0  0
    1.5802   -0.3874    1.2964 H   0  0  0  0  0  0  0  0  0  0  0  0
   -0.3037    0.5222    2.5832 H   0  0  0  0  0  0  0  0  0  0  0  0
   -2.6349    3.0820    1.2984 H   0  0  0  0  0  0  0  0  0  0  0  0
   -2.0657    2.2805    2.7232 H   0  0  0  0  0  0  0  0  0  0  0  0
   -2.5587   -0.4364    2.4657 H   0  0  0  0  0  0  0  0  0  0  0  0
   -3.5910    0.4193    3.5971 H   0  0  0  0  0  0  0  0  0  0  0  0
   -4.1776   -1.8627    1.8337 H   0  0  0  0  0  0  0  0  0  0  0  0
   -4.9765   -1.3420    3.3255 H   0  0  0  0  0  0  0  0  0  0  0  0
   -7.2333   -1.8911    2.3901 H   0  0  0  0  0  0  0  0  0  0  0  0
   -9.0879   -1.1633    0.9239 H   0  0  0  0  0  0  0  0  0  0  0  0
   -8.7002    0.5684   -0.8085 H   0  0  0  0  0  0  0  0  0  0  0  0
   -6.4636    1.5814   -1.0751 H   0  0  0  0  0  0  0  0  0  0  0  0
   -3.5746    0.3136   -0.2096 H   0  0  0  0  0  0  0  0  0  0  0  0
   -4.2483    1.9544   -0.1724 H   0  0  0  0  0  0  0  0  0  0  0  0
   -1.8152    2.4396   -0.9758 H   0  0  0  0  0  0  0  0  0  0  0  0
    0.0827    1.5430   -2.2630 H   0  0  0  0  0  0  0  0  0  0  0  0
  1  2  1  0
  2  3  1  0
  3  4  2  0
  4  5  1  0
  5  6  2  0
  6  7  1  0
  7  8  1  0
  7  9  2  0
  9 10  1  0
 10 11  1  0
 11 12  2  0
 11 13  1  0
 13 14  2  0
 14 15  1  0
 15 16  2  0
 16 17  1  0
 17 18  1  0
 18 19  1  0
 19 20  1  0
 20 21  1  0
 21 22  2  0
 22 23  1  0
 23 24  2  0
 24 25  1  0
 25 26  2  0
 26 27  1  0
 16 28  1  0
 28 29  2  0
  9  3  1  0
 29 13  1  0
 27 18  1  0
 26 21  1  0
  1 30  1  0
  1 31  1  0
  1 32  1  0
  2 33  1  0
  2 34  1  0
  4 35  1  0
  5 36  1  0
  6 37  1  0
  8 38  1  0
  8 39  1  0
  8 40  1  0
 10 41  1  0
 14 42  1  0
 15 43  1  0
 17 44  1  0
 17 45  1  0
 19 46  1  0
 19 47  1  0
 20 48  1  0
 20 49  1  0
 22 50  1  0
 23 51  1  0
 24 52  1  0
 25 53  1  0
 27 54  1  0
 27 55  1  0
 28 56  1  0
 29 57  1  0
M  END
$$$$
