
     RDKit          3D

 36 39  0  0  0  0  0  0  0  0999 V2000
   -6.1437   -0.3512   -2.6136 C   0  0  0  0  0  0  0  0  0  0  0  0
   -5.0143   -0.1888   -1.6268 C   0  0  0  0  0  0  0  0  0  0  0  0
   -5.3826    0.0229   -0.1958 C   0  0  0  0  0  0  0  0  0  0  0  0
   -4.3701    0.1706    0.6795 C   0  0  0  0  0  0  0  0  0  0  0  0
   -4.6587    0.3860    2.1328 C   0  0  0  0  0  0  0  0  0  0  0  0
   -3.0515    0.1127    0.1881 N   0  0  0  0  0  0  0  0  0  0  0  0
   -1.8139    0.2261    0.7925 C   0  0  0  0  0  0  0  0  0  0  0  0
   -1.3771    0.5361    2.6230 Br  0  0  0  0  0  0  0  0  0  0  0  0
   -0.8741    0.0643   -0.2069 C   0  0  0  0  0  0  0  0  0  0  0  0
    0.6167    0.0835   -0.1405 C   0  0  0  0  0  0  0  0  0  0  0  0
    1.2566   -1.5226    0.4210 S   0  0  0  0  0  0  0  0  0  0  0  0
    2.9744   -1.1925    0.4061 C   0  0  0  0  0  0  0  0  0  0  0  0
    3.4493    0.0114    0.1893 N   0  0  0  0  0  0  0  0  0  0  0  0
    4.8331   -0.0184    0.2365 C   0  0  0  0  0  0  0  0  0  0  0  0
    5.6903    1.0843    0.0452 C   0  0  0  0  0  0  0  0  0  0  0  0
    7.0761    0.9100    0.1217 C   0  0  0  0  0  0  0  0  0  0  0  0
    7.6151   -0.3452    0.3858 C   0  0  0  0  0  0  0  0  0  0  0  0
    6.7869   -1.4551    0.5796 C   0  0  0  0  0  0  0  0  0  0  0  0
    5.3968   -1.2686    0.5002 C   0  0  0  0  0  0  0  0  0  0  0  0
    4.1319   -2.4210    0.6891 S   0  0  0  0  0  0  0  0  0  0  0  0
   -1.5005   -0.1209   -1.4151 N   0  0  0  0  0  0  0  0  0  0  0  0
   -2.7938   -0.0953   -1.1752 C   0  0  0  0  0  0  0  0  0  0  0  0
   -3.8009   -0.2422   -2.0815 N   0  0  0  0  0  0  0  0  0  0  0  0
   -7.1191   -0.2911   -2.1242 H   0  0  0  0  0  0  0  0  0  0  0  0
   -6.0783    0.4374   -3.3689 H   0  0  0  0  0  0  0  0  0  0  0  0
   -6.0550   -1.3242   -3.1057 H   0  0  0  0  0  0  0  0  0  0  0  0
   -6.4285    0.0497    0.0804 H   0  0  0  0  0  0  0  0  0  0  0  0
   -5.7363    0.3944    2.3346 H   0  0  0  0  0  0  0  0  0  0  0  0
   -4.2335   -0.4192    2.7396 H   0  0  0  0  0  0  0  0  0  0  0  0
   -4.2700    1.3518    2.4697 H   0  0  0  0  0  0  0  0  0  0  0  0
    1.0217    0.3029   -1.1348 H   0  0  0  0  0  0  0  0  0  0  0  0
    0.9487    0.8780    0.5364 H   0  0  0  0  0  0  0  0  0  0  0  0
    5.2666    2.0622   -0.1615 H   0  0  0  0  0  0  0  0  0  0  0  0
    7.7339    1.7633   -0.0275 H   0  0  0  0  0  0  0  0  0  0  0  0
    8.6951   -0.4669    0.4420 H   0  0  0  0  0  0  0  0  0  0  0  0
    7.2088   -2.4344    0.7850 H   0  0  0  0  0  0  0  0  0  0  0  0
  1  2  1  0
  2  3  1  0
  3  4  2  0
  4  5  1  0
  4  6  1  0
  6  7  1  0
  7  8  1  0
  7  9  2  0
  9 10  1  0
 10 11  1  0
 11 12  1  0
 12 13  2  0
 13 14  1  0
 14 15  2  0
 15 16  1  0
 16 17  2  0
 17 18  1  0
 18 19  2  0
 19 20  1  0
  9 21  1  0
 21 22  2  0
 22 23  1  0
 23  2  2  0
 22  6  1  0
 20 12  1  0
 19 14  1  0
  1 24  1  0
  1 25  1  0
  1 26  1  0
  3 27  1  0
  5 28  1  0
  5 29  1  0
  5 30  1  0
 10 31  1  0
 10 32  1  0
 15 33  1  0
 16 34  1  0
 17 35  1  0
 18 36  1  0
M  END
$$$$
