
     RDKit          3D

 51 54  0  0  0  0  0  0  0  0999 V2000
    5.9142   -0.7444    3.2420 C   0  0  0  0  0  0  0  0  0  0  0  0
    5.2864   -0.6094    1.8864 C   0  0  0  0  0  0  0  0  0  0  0  0
    3.8960   -0.5288    1.7546 C   0  0  0  0  0  0  0  0  0  0  0  0
    3.3092   -0.4357    0.4908 C   0  0  0  0  0  0  0  0  0  0  0  0
    4.1029   -0.4282   -0.6650 C   0  0  0  0  0  0  0  0  0  0  0  0
    3.4583   -0.3440   -2.0256 C   0  0  0  0  0  0  0  0  0  0  0  0
    2.7921   -1.5952   -2.3568 N   0  0  0  0  0  0  0  0  0  0  0  0
    1.5857   -1.5843   -3.5070 S   0  0  0  0  0  6  0  0  0  0  0  0
    1.9221   -0.5819   -4.4939 O   0  0  0  0  0  0  0  0  0  0  0  0
    1.3382   -2.9615   -3.8683 O   0  0  0  0  0  0  0  0  0  0  0  0
    0.1906   -1.0193   -2.5664 C   0  0  0  0  0  0  0  0  0  0  0  0
   -0.2805   -1.8133   -1.5067 C   0  0  0  0  0  0  0  0  0  0  0  0
   -1.3639   -1.3824   -0.7339 C   0  0  0  0  0  0  0  0  0  0  0  0
   -1.9604   -0.1697   -1.0430 C   0  0  0  0  0  0  0  0  0  0  0  0
   -1.4904    0.6075   -2.1058 C   0  0  0  0  0  0  0  0  0  0  0  0
   -0.4129    0.2015   -2.8803 C   0  0  0  0  0  0  0  0  0  0  0  0
   -2.2649    1.8789   -2.2360 C   0  0  0  0  0  0  0  0  0  0  0  0
   -3.3616    1.6937   -1.1807 C   0  0  0  0  0  0  0  0  0  0  0  0
   -3.0531    0.4681   -0.4258 N   0  0  0  0  0  0  0  0  0  0  0  0
   -3.7544    0.0041    0.6838 C   0  0  0  0  0  0  0  0  0  0  0  0
   -3.4527   -1.0339    1.2845 O   0  0  0  0  0  0  0  0  0  0  0  0
   -4.9598    0.8899    1.1354 C   0  0  0  0  0  0  0  0  0  0  0  0
   -5.8755    0.3425    2.2672 C   0  0  0  0  0  0  0  0  0  0  0  0
   -5.0463    1.1671    3.2664 C   0  0  0  0  0  0  0  0  0  0  0  0
   -4.6447    2.0744    2.0908 C   0  0  0  0  0  0  0  0  0  0  0  0
    5.4932   -0.5315   -0.5321 C   0  0  0  0  0  0  0  0  0  0  0  0
    6.0789   -0.6237    0.7331 C   0  0  0  0  0  0  0  0  0  0  0  0
    6.9137   -0.2971    3.2558 H   0  0  0  0  0  0  0  0  0  0  0  0
    5.9956   -1.8015    3.5131 H   0  0  0  0  0  0  0  0  0  0  0  0
    5.3177   -0.2287    4.0019 H   0  0  0  0  0  0  0  0  0  0  0  0
    3.2586   -0.5408    2.6362 H   0  0  0  0  0  0  0  0  0  0  0  0
    2.2252   -0.3774    0.4113 H   0  0  0  0  0  0  0  0  0  0  0  0
    2.7543    0.4959   -2.0235 H   0  0  0  0  0  0  0  0  0  0  0  0
    4.2178   -0.1315   -2.7867 H   0  0  0  0  0  0  0  0  0  0  0  0
    3.3173   -2.4640   -2.2880 H   0  0  0  0  0  0  0  0  0  0  0  0
    0.1949   -2.7657   -1.2798 H   0  0  0  0  0  0  0  0  0  0  0  0
   -1.7173   -2.0052    0.0812 H   0  0  0  0  0  0  0  0  0  0  0  0
   -0.0519    0.8169   -3.6993 H   0  0  0  0  0  0  0  0  0  0  0  0
   -2.6908    2.0002   -3.2363 H   0  0  0  0  0  0  0  0  0  0  0  0
   -1.6332    2.7403   -1.9967 H   0  0  0  0  0  0  0  0  0  0  0  0
   -4.3422    1.5686   -1.6545 H   0  0  0  0  0  0  0  0  0  0  0  0
   -3.4159    2.5504   -0.5013 H   0  0  0  0  0  0  0  0  0  0  0  0
   -5.5693    1.1929    0.2738 H   0  0  0  0  0  0  0  0  0  0  0  0
   -5.8656   -0.7387    2.4282 H   0  0  0  0  0  0  0  0  0  0  0  0
   -6.9181    0.6717    2.1823 H   0  0  0  0  0  0  0  0  0  0  0  0
   -4.2066    0.6153    3.7041 H   0  0  0  0  0  0  0  0  0  0  0  0
   -5.6106    1.6498    4.0681 H   0  0  0  0  0  0  0  0  0  0  0  0
   -3.6085    2.4230    2.1074 H   0  0  0  0  0  0  0  0  0  0  0  0
   -5.3051    2.9378    1.9492 H   0  0  0  0  0  0  0  0  0  0  0  0
    6.1330   -0.5443   -1.4118 H   0  0  0  0  0  0  0  0  0  0  0  0
    7.1606   -0.7083    0.8130 H   0  0  0  0  0  0  0  0  0  0  0  0
  1  2  1  0
  2  3  2  0
  3  4  1  0
  4  5  2  0
  5  6  1  0
  6  7  1  0
  7  8  1  0
  8  9  2  0
  8 10  2  0
  8 11  1  0
 11 12  2  0
 12 13  1  0
 13 14  2  0
 14 15  1  0
 15 16  2  0
 15 17  1  0
 17 18  1  0
 18 19  1  0
 19 20  1  0
 20 21  2  0
 20 22  1  0
 22 23  1  0
 23 24  1  0
 24 25  1  0
  5 26  1  0
 26 27  2  0
 27  2  1  0
 16 11  1  0
 25 22  1  0
 19 14  1  0
  1 28  1  0
  1 29  1  0
  1 30  1  0
  3 31  1  0
  4 32  1  0
  6 33  1  0
  6 34  1  0
  7 35  1  0
 12 36  1  0
 13 37  1  0
 16 38  1  0
 17 39  1  0
 17 40  1  0
 18 41  1  0
 18 42  1  0
 22 43  1  0
 23 44  1  0
 23 45  1  0
 24 46  1  0
 24 47  1  0
 25 48  1  0
 25 49  1  0
 26 50  1  0
 27 51  1  0
M  END
$$$$
