
     RDKit          3D

 66 68  0  0  0  0  0  0  0  0999 V2000
   -5.0763   -3.7123    1.6145 C   0  0  0  0  0  0  0  0  0  0  0  0
   -4.1796   -2.4782    1.6102 C   0  0  0  0  0  0  0  0  0  0  0  0
   -2.9455   -2.6367    0.8211 N   0  0  0  0  0  0  0  0  0  0  0  0
   -3.1833   -2.9381   -0.6002 C   0  0  0  0  0  0  0  0  0  0  0  0
   -3.8486   -1.8400   -1.4254 C   0  0  0  0  0  0  0  0  0  0  0  0
   -2.0584   -1.4769    1.0487 C   0  0  0  0  0  0  0  0  0  0  0  0
   -0.6644   -1.6193    0.4126 C   0  0  0  0  0  0  0  0  0  0  0  0
    0.2932   -0.4693    0.8254 C   0  0  0  0  0  0  0  0  0  0  0  0
    1.7585   -0.6776    0.4358 C   0  0  0  0  0  0  0  0  0  0  0  0
    2.7562    0.0011    1.1454 C   0  0  0  0  0  0  0  0  0  0  0  0
    4.1125   -0.1518    0.8189 C   0  0  0  0  0  0  0  0  0  0  0  0
    4.5436   -0.9744   -0.2346 C   0  0  0  0  0  0  0  0  0  0  0  0
    5.9016   -1.1326   -0.5438 N   0  0  0  0  0  0  0  0  0  0  0  0
    6.2722   -1.8784   -1.7446 C   0  0  0  0  0  0  0  0  0  0  0  0
    6.8263   -0.0703   -0.1519 C   0  0  0  0  0  0  0  0  0  0  0  0
    3.5283   -1.6575   -0.9242 C   0  0  0  0  0  0  0  0  0  0  0  0
    2.1679   -1.5118   -0.6057 C   0  0  0  0  0  0  0  0  0  0  0  0
   -0.2171    0.9144    0.3984 C   0  0  0  0  0  0  0  0  0  0  0  0
   -0.5503    1.8883    1.3629 C   0  0  0  0  0  0  0  0  0  0  0  0
   -0.4102    1.5103    2.6743 O   0  0  0  0  0  0  0  0  0  0  0  0
   -0.6401    2.4818    3.6861 C   0  0  0  0  0  0  0  0  0  0  0  0
   -1.0096    3.1535    0.9621 C   0  0  0  0  0  0  0  0  0  0  0  0
   -1.1409    3.4821   -0.3933 C   0  0  0  0  0  0  0  0  0  0  0  0
   -1.5828    4.6966   -0.8573 O   0  0  0  0  0  0  0  0  0  0  0  0
   -1.8653    5.7121    0.0968 C   0  0  0  0  0  0  0  0  0  0  0  0
   -0.8147    2.5264   -1.3669 C   0  0  0  0  0  0  0  0  0  0  0  0
   -0.9255    2.7954   -2.8001 C   0  0  0  0  0  0  0  0  0  0  0  0
   -0.6091    1.8576   -3.6967 C   0  0  0  0  0  0  0  0  0  0  0  0
   -0.1446    0.5236   -3.2973 C   0  0  0  0  0  0  0  0  0  0  0  0
    0.1202   -0.3312   -4.1339 O   0  0  0  0  0  0  0  0  0  0  0  0
   -0.0400    0.2938   -1.9357 O   0  0  0  0  0  0  0  0  0  0  0  0
   -0.3628    1.2668   -0.9576 C   0  0  0  0  0  0  0  0  0  0  0  0
   -5.5566   -3.8708    0.6444 H   0  0  0  0  0  0  0  0  0  0  0  0
   -4.5102   -4.6121    1.8767 H   0  0  0  0  0  0  0  0  0  0  0  0
   -5.8725   -3.5907    2.3561 H   0  0  0  0  0  0  0  0  0  0  0  0
   -3.9049   -2.2908    2.6565 H   0  0  0  0  0  0  0  0  0  0  0  0
   -4.7569   -1.6067    1.2797 H   0  0  0  0  0  0  0  0  0  0  0  0
   -3.7808   -3.8527   -0.6878 H   0  0  0  0  0  0  0  0  0  0  0  0
   -2.2349   -3.2104   -1.0777 H   0  0  0  0  0  0  0  0  0  0  0  0
   -3.2392   -0.9322   -1.4632 H   0  0  0  0  0  0  0  0  0  0  0  0
   -3.9830   -2.1849   -2.4563 H   0  0  0  0  0  0  0  0  0  0  0  0
   -4.8372   -1.5811   -1.0354 H   0  0  0  0  0  0  0  0  0  0  0  0
   -1.9106   -1.3648    2.1309 H   0  0  0  0  0  0  0  0  0  0  0  0
   -2.5434   -0.5566    0.7031 H   0  0  0  0  0  0  0  0  0  0  0  0
   -0.2301   -2.5756    0.7346 H   0  0  0  0  0  0  0  0  0  0  0  0
   -0.7577   -1.6696   -0.6757 H   0  0  0  0  0  0  0  0  0  0  0  0
    0.3068   -0.5251    1.9225 H   0  0  0  0  0  0  0  0  0  0  0  0
    2.4880    0.6570    1.9712 H   0  0  0  0  0  0  0  0  0  0  0  0
    4.8263    0.3902    1.4307 H   0  0  0  0  0  0  0  0  0  0  0  0
    7.3611   -1.9653   -1.8330 H   0  0  0  0  0  0  0  0  0  0  0  0
    5.9038   -1.3809   -2.6488 H   0  0  0  0  0  0  0  0  0  0  0  0
    5.8932   -2.9058   -1.7071 H   0  0  0  0  0  0  0  0  0  0  0  0
    6.9073    0.0037    0.9376 H   0  0  0  0  0  0  0  0  0  0  0  0
    6.5162    0.8962   -0.5648 H   0  0  0  0  0  0  0  0  0  0  0  0
    7.8405   -0.2723   -0.5148 H   0  0  0  0  0  0  0  0  0  0  0  0
    3.7614   -2.3267   -1.7469 H   0  0  0  0  0  0  0  0  0  0  0  0
    1.4451   -2.0622   -1.2029 H   0  0  0  0  0  0  0  0  0  0  0  0
   -0.4273    2.0139    4.6520 H   0  0  0  0  0  0  0  0  0  0  0  0
    0.0350    3.3369    3.5755 H   0  0  0  0  0  0  0  0  0  0  0  0
   -1.6876    2.7998    3.6945 H   0  0  0  0  0  0  0  0  0  0  0  0
   -1.2719    3.8863    1.7137 H   0  0  0  0  0  0  0  0  0  0  0  0
   -2.6991    5.4224    0.7442 H   0  0  0  0  0  0  0  0  0  0  0  0
   -0.9751    5.9636    0.6825 H   0  0  0  0  0  0  0  0  0  0  0  0
   -2.1668    6.6101   -0.4508 H   0  0  0  0  0  0  0  0  0  0  0  0
   -1.2675    3.7730   -3.1237 H   0  0  0  0  0  0  0  0  0  0  0  0
   -0.6828    2.0364   -4.7619 H   0  0  0  0  0  0  0  0  0  0  0  0
  1  2  1  0
  2  3  1  0
  3  4  1  0
  4  5  1  0
  3  6  1  0
  6  7  1  0
  7  8  1  0
  8  9  1  0
  9 10  2  0
 10 11  1  0
 11 12  2  0
 12 13  1  0
 13 14  1  0
 13 15  1  0
 12 16  1  0
 16 17  2  0
  8 18  1  0
 18 19  2  0
 19 20  1  0
 20 21  1  0
 19 22  1  0
 22 23  2  0
 23 24  1  0
 24 25  1  0
 23 26  1  0
 26 27  1  0
 27 28  2  0
 28 29  1  0
 29 30  2  0
 29 31  1  0
 31 32  1  0
 17  9  1  0
 32 18  1  0
 32 26  2  0
  1 33  1  0
  1 34  1  0
  1 35  1  0
  2 36  1  0
  2 37  1  0
  4 38  1  0
  4 39  1  0
  5 40  1  0
  5 41  1  0
  5 42  1  0
  6 43  1  0
  6 44  1  0
  7 45  1  0
  7 46  1  0
  8 47  1  0
 10 48  1  0
 11 49  1  0
 14 50  1  0
 14 51  1  0
 14 52  1  0
 15 53  1  0
 15 54  1  0
 15 55  1  0
 16 56  1  0
 17 57  1  0
 21 58  1  0
 21 59  1  0
 21 60  1  0
 22 61  1  0
 25 62  1  0
 25 63  1  0
 25 64  1  0
 27 65  1  0
 28 66  1  0
M  END
$$$$
