
     RDKit          3D

 49 51  0  0  0  0  0  0  0  0999 V2000
   -6.7667    1.4487    2.5497 C   0  0  0  0  0  0  0  0  0  0  0  0
   -5.7699    0.4569    2.3478 O   0  0  0  0  0  0  0  0  0  0  0  0
   -5.1856    0.3936    1.1109 C   0  0  0  0  0  0  0  0  0  0  0  0
   -5.4549    1.2629    0.0507 C   0  0  0  0  0  0  0  0  0  0  0  0
   -4.8115    1.0987   -1.1834 C   0  0  0  0  0  0  0  0  0  0  0  0
   -3.8930    0.0619   -1.3757 C   0  0  0  0  0  0  0  0  0  0  0  0
   -3.2544   -0.1067   -2.6824 C   0  0  0  0  0  0  0  0  0  0  0  0
   -1.9589    0.0971   -2.9615 C   0  0  0  0  0  0  0  0  0  0  0  0
   -1.3089   -0.1417   -4.5460 S   0  0  0  0  0  0  0  0  0  0  0  0
    0.3130    0.2877   -4.0435 C   0  0  0  0  0  0  0  0  0  0  0  0
    1.2797    0.1972   -4.7827 O   0  0  0  0  0  0  0  0  0  0  0  0
    0.3084    0.6821   -2.7340 N   0  0  0  0  0  0  0  0  0  0  0  0
    1.5378    1.0745   -2.0608 C   0  0  0  0  0  0  0  0  0  0  0  0
    2.2456   -0.1247   -1.4365 C   0  0  0  0  0  0  0  0  0  0  0  0
    3.5181    0.2973   -0.7279 C   0  0  0  0  0  0  0  0  0  0  0  0
    3.8951    1.4631   -0.7197 O   0  0  0  0  0  0  0  0  0  0  0  0
    4.1477   -0.7829   -0.1308 N   0  0  0  0  0  0  0  0  0  0  0  0
    5.3465   -0.7767    0.6128 C   0  0  0  0  0  0  0  0  0  0  0  0
    5.7836   -2.0044    1.1299 C   0  0  0  0  0  0  0  0  0  0  0  0
    6.9605   -2.0858    1.8792 C   0  0  0  0  0  0  0  0  0  0  0  0
    7.7133   -0.9398    2.1180 C   0  0  0  0  0  0  0  0  0  0  0  0
    7.2881    0.2844    1.6075 C   0  0  0  0  0  0  0  0  0  0  0  0
    6.1094    0.3662    0.8582 C   0  0  0  0  0  0  0  0  0  0  0  0
   -0.8732    0.5454   -2.0395 C   0  0  0  0  0  0  0  0  0  0  0  0
   -1.0020    0.7322   -0.8389 O   0  0  0  0  0  0  0  0  0  0  0  0
   -3.6281   -0.8178   -0.3249 C   0  0  0  0  0  0  0  0  0  0  0  0
   -4.2492   -0.6326    0.9129 C   0  0  0  0  0  0  0  0  0  0  0  0
   -3.9500   -1.5382    1.9021 O   0  0  0  0  0  0  0  0  0  0  0  0
   -3.0072   -0.9694    2.8118 C   0  0  0  0  0  0  0  0  0  0  0  0
   -7.6107    1.3073    1.8666 H   0  0  0  0  0  0  0  0  0  0  0  0
   -6.3456    2.4550    2.4567 H   0  0  0  0  0  0  0  0  0  0  0  0
   -7.1441    1.3400    3.5710 H   0  0  0  0  0  0  0  0  0  0  0  0
   -6.1614    2.0805    0.1475 H   0  0  0  0  0  0  0  0  0  0  0  0
   -5.0384    1.7908   -1.9917 H   0  0  0  0  0  0  0  0  0  0  0  0
   -3.9396   -0.4173   -3.4693 H   0  0  0  0  0  0  0  0  0  0  0  0
    2.1958    1.5656   -2.7880 H   0  0  0  0  0  0  0  0  0  0  0  0
    1.2921    1.8124   -1.2874 H   0  0  0  0  0  0  0  0  0  0  0  0
    2.5026   -0.8570   -2.2111 H   0  0  0  0  0  0  0  0  0  0  0  0
    1.5872   -0.6173   -0.7111 H   0  0  0  0  0  0  0  0  0  0  0  0
    3.7006   -1.6860   -0.2312 H   0  0  0  0  0  0  0  0  0  0  0  0
    5.2162   -2.9156    0.9595 H   0  0  0  0  0  0  0  0  0  0  0  0
    7.2880   -3.0433    2.2759 H   0  0  0  0  0  0  0  0  0  0  0  0
    8.6292   -0.9985    2.7001 H   0  0  0  0  0  0  0  0  0  0  0  0
    7.8720    1.1831    1.7900 H   0  0  0  0  0  0  0  0  0  0  0  0
    5.8178    1.3413    0.4808 H   0  0  0  0  0  0  0  0  0  0  0  0
   -2.9301   -1.6410   -0.4478 H   0  0  0  0  0  0  0  0  0  0  0  0
   -2.7118   -1.7523    3.5171 H   0  0  0  0  0  0  0  0  0  0  0  0
   -2.1053   -0.6285    2.2898 H   0  0  0  0  0  0  0  0  0  0  0  0
   -3.4474   -0.1485    3.3872 H   0  0  0  0  0  0  0  0  0  0  0  0
  1  2  1  0
  2  3  1  0
  3  4  2  0
  4  5  1  0
  5  6  2  0
  6  7  1  0
  7  8  2  3
  8  9  1  0
  9 10  1  0
 10 11  2  0
 10 12  1  0
 12 13  1  0
 13 14  1  0
 14 15  1  0
 15 16  2  0
 15 17  1  0
 17 18  1  0
 18 19  2  0
 19 20  1  0
 20 21  2  0
 21 22  1  0
 22 23  2  0
 12 24  1  0
 24 25  2  0
  6 26  1  0
 26 27  2  0
 27 28  1  0
 28 29  1  0
 27  3  1  0
 24  8  1  0
 23 18  1  0
  1 30  1  0
  1 31  1  0
  1 32  1  0
  4 33  1  0
  5 34  1  0
  7 35  1  0
 13 36  1  0
 13 37  1  0
 14 38  1  0
 14 39  1  0
 17 40  1  0
 19 41  1  0
 20 42  1  0
 21 43  1  0
 22 44  1  0
 23 45  1  0
 26 46  1  0
 29 47  1  0
 29 48  1  0
 29 49  1  0
M  END
$$$$
