
     RDKit          3D

 49 52  0  0  0  0  0  0  0  0999 V2000
   -5.9418    2.9802   -0.0624 C   0  0  0  0  0  0  0  0  0  0  0  0
   -4.6271    2.5807    0.5784 C   0  0  0  0  0  0  0  0  0  0  0  0
   -3.7882    2.0173   -0.4380 O   0  0  0  0  0  0  0  0  0  0  0  0
   -2.5757    1.5827    0.0172 C   0  0  0  0  0  0  0  0  0  0  0  0
   -2.1925    1.6764    1.1743 O   0  0  0  0  0  0  0  0  0  0  0  0
   -1.7795    1.0185   -1.1406 C   0  0  0  0  0  0  0  0  0  0  0  0
   -0.6461    0.1045   -0.7192 C   0  0  0  0  0  0  0  0  0  0  0  0
    0.6251    0.7203   -0.7004 C   0  0  0  0  0  0  0  0  0  0  0  0
    1.7484   -0.0054   -0.3564 C   0  0  0  0  0  0  0  0  0  0  0  0
    3.1101    0.5659   -0.3176 C   0  0  0  0  0  0  0  0  0  0  0  0
    4.0614    0.0898    0.6033 C   0  0  0  0  0  0  0  0  0  0  0  0
    5.3592    0.6164    0.6660 C   0  0  0  0  0  0  0  0  0  0  0  0
    5.7416    1.6358   -0.2010 C   0  0  0  0  0  0  0  0  0  0  0  0
    6.9680    2.2378   -0.2486 O   0  0  0  0  0  0  0  0  0  0  0  0
    7.9451    1.7743    0.6749 C   0  0  0  0  0  0  0  0  0  0  0  0
    4.8172    2.1161   -1.1281 C   0  0  0  0  0  0  0  0  0  0  0  0
    3.5213    1.5888   -1.1884 C   0  0  0  0  0  0  0  0  0  0  0  0
    1.6447   -1.3047   -0.0264 N   0  0  0  0  0  0  0  0  0  0  0  0
    0.4460   -1.9031   -0.0233 C   0  0  0  0  0  0  0  0  0  0  0  0
    0.4970   -3.2329    0.3300 C   0  0  0  0  0  0  0  0  0  0  0  0
   -0.6384   -4.0253    0.3919 C   0  0  0  0  0  0  0  0  0  0  0  0
   -1.8856   -3.4889    0.1053 C   0  0  0  0  0  0  0  0  0  0  0  0
   -2.9990   -4.3431    0.1968 C   0  0  0  0  0  0  0  0  0  0  0  0
   -4.2819   -3.8831   -0.0613 C   0  0  0  0  0  0  0  0  0  0  0  0
   -4.4578   -2.5587   -0.4096 C   0  0  0  0  0  0  0  0  0  0  0  0
   -3.3493   -1.7051   -0.5037 C   0  0  0  0  0  0  0  0  0  0  0  0
   -2.0096   -2.1191   -0.2615 C   0  0  0  0  0  0  0  0  0  0  0  0
   -0.7914   -1.2829   -0.3472 C   0  0  0  0  0  0  0  0  0  0  0  0
   -6.6190    3.4177    0.6765 H   0  0  0  0  0  0  0  0  0  0  0  0
   -6.4284    2.1110   -0.5173 H   0  0  0  0  0  0  0  0  0  0  0  0
   -5.7749    3.7074   -0.8638 H   0  0  0  0  0  0  0  0  0  0  0  0
   -4.8093    1.8375    1.3627 H   0  0  0  0  0  0  0  0  0  0  0  0
   -4.1416    3.4632    1.0096 H   0  0  0  0  0  0  0  0  0  0  0  0
   -1.3811    1.8833   -1.6884 H   0  0  0  0  0  0  0  0  0  0  0  0
   -2.4166    0.5067   -1.8665 H   0  0  0  0  0  0  0  0  0  0  0  0
    0.7219    1.7762   -0.9373 H   0  0  0  0  0  0  0  0  0  0  0  0
    3.7877   -0.7085    1.2927 H   0  0  0  0  0  0  0  0  0  0  0  0
    6.0386    0.2024    1.4031 H   0  0  0  0  0  0  0  0  0  0  0  0
    8.8610    2.3498    0.5092 H   0  0  0  0  0  0  0  0  0  0  0  0
    7.6257    1.9474    1.7079 H   0  0  0  0  0  0  0  0  0  0  0  0
    8.1802    0.7184    0.5045 H   0  0  0  0  0  0  0  0  0  0  0  0
    5.1085    2.9057   -1.8166 H   0  0  0  0  0  0  0  0  0  0  0  0
    2.8454    1.9813   -1.9440 H   0  0  0  0  0  0  0  0  0  0  0  0
    1.4615   -3.6787    0.5672 H   0  0  0  0  0  0  0  0  0  0  0  0
   -0.5258   -5.0694    0.6763 H   0  0  0  0  0  0  0  0  0  0  0  0
   -2.8727   -5.3875    0.4776 H   0  0  0  0  0  0  0  0  0  0  0  0
   -5.1332   -4.5530    0.0156 H   0  0  0  0  0  0  0  0  0  0  0  0
   -5.4555   -2.1749   -0.6080 H   0  0  0  0  0  0  0  0  0  0  0  0
   -3.5934   -0.6889   -0.7686 H   0  0  0  0  0  0  0  0  0  0  0  0
  1  2  1  0
  2  3  1  0
  3  4  1  0
  4  5  2  0
  4  6  1  0
  6  7  1  0
  7  8  2  0
  8  9  1  0
  9 10  1  0
 10 11  2  0
 11 12  1  0
 12 13  2  0
 13 14  1  0
 14 15  1  0
 13 16  1  0
 16 17  2  0
  9 18  2  0
 18 19  1  0
 19 20  2  0
 20 21  1  0
 21 22  2  0
 22 23  1  0
 23 24  2  0
 24 25  1  0
 25 26  2  0
 26 27  1  0
 27 28  2  0
 28  7  1  0
 17 10  1  0
 28 19  1  0
 27 22  1  0
  1 29  1  0
  1 30  1  0
  1 31  1  0
  2 32  1  0
  2 33  1  0
  6 34  1  0
  6 35  1  0
  8 36  1  0
 11 37  1  0
 12 38  1  0
 15 39  1  0
 15 40  1  0
 15 41  1  0
 16 42  1  0
 17 43  1  0
 20 44  1  0
 21 45  1  0
 23 46  1  0
 24 47  1  0
 25 48  1  0
 26 49  1  0
M  END
$$$$
