
     RDKit          3D

 50 53  0  0  0  0  0  0  0  0999 V2000
    1.1582    4.1030    0.0702 C   0  0  0  0  0  0  0  0  0  0  0  0
    0.9672    3.0186    1.1199 C   0  0  0  0  0  0  0  0  0  0  0  0
    0.6008    1.6917    0.4985 C   0  0  0  0  0  0  0  0  0  0  0  0
    1.6121    0.7637    0.2029 C   0  0  0  0  0  0  0  0  0  0  0  0
    1.3126   -0.4663   -0.3940 C   0  0  0  0  0  0  0  0  0  0  0  0
    2.3577   -1.4508   -0.7190 C   0  0  0  0  0  0  0  0  0  0  0  0
    3.8015   -1.2952   -0.4574 C   0  0  0  0  0  0  0  0  0  0  0  0
    4.6382   -0.7314   -1.4290 C   0  0  0  0  0  0  0  0  0  0  0  0
    6.0036   -0.5847   -1.1792 C   0  0  0  0  0  0  0  0  0  0  0  0
    6.5390   -1.0003    0.0395 C   0  0  0  0  0  0  0  0  0  0  0  0
    5.7114   -1.5622    1.0110 C   0  0  0  0  0  0  0  0  0  0  0  0
    4.3454   -1.7103    0.7647 C   0  0  0  0  0  0  0  0  0  0  0  0
    1.9877   -2.6001   -1.3046 C   0  0  0  0  0  0  0  0  0  0  0  0
    0.5954   -2.9212   -1.6370 C   0  0  0  0  0  0  0  0  0  0  0  0
    0.3043   -3.9847   -2.1715 O   0  0  0  0  0  0  0  0  0  0  0  0
   -0.3591   -1.9718   -1.3181 O   0  0  0  0  0  0  0  0  0  0  0  0
   -0.0229   -0.7495   -0.6934 C   0  0  0  0  0  0  0  0  0  0  0  0
   -1.0721    0.1424   -0.4075 C   0  0  0  0  0  0  0  0  0  0  0  0
   -2.4929   -0.1906   -0.8250 C   0  0  0  0  0  0  0  0  0  0  0  0
   -3.5227    0.3400    0.0993 N   0  0  0  0  0  0  0  0  0  0  0  0
   -3.5843   -0.4412    1.3640 C   0  0  0  0  0  0  0  0  0  0  0  0
   -4.7134   -1.4832    1.3954 C   0  0  0  0  0  0  0  0  0  0  0  0
   -6.0142   -0.9058    1.2230 O   0  0  0  0  0  0  0  0  0  0  0  0
   -6.0014    0.2956    0.4408 C   0  0  0  0  0  0  0  0  0  0  0  0
   -4.8475    0.3262   -0.5711 C   0  0  0  0  0  0  0  0  0  0  0  0
   -0.7270    1.3700    0.1821 C   0  0  0  0  0  0  0  0  0  0  0  0
   -1.6895    2.3017    0.4732 O   0  0  0  0  0  0  0  0  0  0  0  0
    0.2419    4.2675   -0.5065 H   0  0  0  0  0  0  0  0  0  0  0  0
    1.4310    5.0487    0.5491 H   0  0  0  0  0  0  0  0  0  0  0  0
    1.9543    3.8370   -0.6336 H   0  0  0  0  0  0  0  0  0  0  0  0
    0.1984    3.3229    1.8401 H   0  0  0  0  0  0  0  0  0  0  0  0
    1.8900    2.9101    1.7034 H   0  0  0  0  0  0  0  0  0  0  0  0
    2.6431    1.0200    0.4409 H   0  0  0  0  0  0  0  0  0  0  0  0
    4.2319   -0.4005   -2.3822 H   0  0  0  0  0  0  0  0  0  0  0  0
    6.6500   -0.1458   -1.9352 H   0  0  0  0  0  0  0  0  0  0  0  0
    7.6028   -0.8855    0.2326 H   0  0  0  0  0  0  0  0  0  0  0  0
    6.1302   -1.8849    1.9609 H   0  0  0  0  0  0  0  0  0  0  0  0
    3.7097   -2.1474    1.5314 H   0  0  0  0  0  0  0  0  0  0  0  0
    2.7030   -3.3712   -1.5718 H   0  0  0  0  0  0  0  0  0  0  0  0
   -2.6343   -1.2719   -0.9416 H   0  0  0  0  0  0  0  0  0  0  0  0
   -2.6262    0.2622   -1.8169 H   0  0  0  0  0  0  0  0  0  0  0  0
   -2.6270   -0.9214    1.5967 H   0  0  0  0  0  0  0  0  0  0  0  0
   -3.7661    0.2832    2.1681 H   0  0  0  0  0  0  0  0  0  0  0  0
   -4.5675   -2.2387    0.6147 H   0  0  0  0  0  0  0  0  0  0  0  0
   -4.7141   -2.0066    2.3569 H   0  0  0  0  0  0  0  0  0  0  0  0
   -6.9620    0.3567   -0.0807 H   0  0  0  0  0  0  0  0  0  0  0  0
   -5.9469    1.1513    1.1241 H   0  0  0  0  0  0  0  0  0  0  0  0
   -4.9324    1.2180   -1.2015 H   0  0  0  0  0  0  0  0  0  0  0  0
   -4.9403   -0.5555   -1.2195 H   0  0  0  0  0  0  0  0  0  0  0  0
   -2.5575    1.8480    0.3928 H   0  0  0  0  0  0  0  0  0  0  0  0
  1  2  1  0
  2  3  1  0
  3  4  2  0
  4  5  1  0
  5  6  1  0
  6  7  1  0
  7  8  2  0
  8  9  1  0
  9 10  2  0
 10 11  1  0
 11 12  2  0
  6 13  2  0
 13 14  1  0
 14 15  2  0
 14 16  1  0
 16 17  1  0
 17 18  1  0
 18 19  1  0
 19 20  1  0
 20 21  1  0
 21 22  1  0
 22 23  1  0
 23 24  1  0
 24 25  1  0
 18 26  2  0
 26 27  1  0
 26  3  1  0
 17  5  2  0
 25 20  1  0
 12  7  1  0
  1 28  1  0
  1 29  1  0
  1 30  1  0
  2 31  1  0
  2 32  1  0
  4 33  1  0
  8 34  1  0
  9 35  1  0
 10 36  1  0
 11 37  1  0
 12 38  1  0
 13 39  1  0
 19 40  1  0
 19 41  1  0
 21 42  1  0
 21 43  1  0
 22 44  1  0
 22 45  1  0
 24 46  1  0
 24 47  1  0
 25 48  1  0
 25 49  1  0
 27 50  1  0
M  END
$$$$
