
     RDKit          3D

 76 78  0  0  0  0  0  0  0  0999 V2000
    6.6731   -0.5085    2.5577 C   0  0  0  0  0  0  0  0  0  0  0  0
    5.3057    0.1181    2.3322 C   0  0  0  0  0  0  0  0  0  0  0  0
    5.2162    1.5060    2.9675 C   0  0  0  0  0  0  0  0  0  0  0  0
    3.8247    2.1457    2.8509 C   0  0  0  0  0  0  0  0  0  0  0  0
    3.4523    2.4945    1.4725 N   0  0  0  0  0  0  0  0  0  0  0  0
    2.6476    1.6499    0.6980 C   0  0  0  0  0  0  0  0  0  0  0  0
    2.1195    0.4976    1.2840 N   0  0  0  0  0  0  0  0  0  0  0  0
    2.4350    1.9331   -0.6183 C   0  0  0  0  0  0  0  0  0  0  0  0
    1.6954    1.1156   -1.5055 N   0  0  0  0  0  0  0  0  0  0  0  0
    2.3824    0.6729   -2.7430 C   0  0  0  0  0  0  0  0  0  0  0  0
    3.5210   -0.3329   -2.4662 C   0  0  0  0  0  0  0  0  0  0  0  0
    2.9898   -1.6565   -1.9136 C   0  0  0  0  0  0  0  0  0  0  0  0
    4.3142   -0.5886   -3.7495 C   0  0  0  0  0  0  0  0  0  0  0  0
    0.3499    0.8298   -1.2312 C   0  0  0  0  0  0  0  0  0  0  0  0
   -0.1956    1.1936   -0.1830 O   0  0  0  0  0  0  0  0  0  0  0  0
   -0.4284    0.0190   -2.2767 C   0  0  0  0  0  0  0  0  0  0  0  0
   -1.7621   -0.2481   -1.7899 N   0  0  0  0  0  0  0  0  0  0  0  0
   -2.8392    0.5421   -2.0156 C   0  0  0  0  0  0  0  0  0  0  0  0
   -2.8889    1.5474   -2.7032 O   0  0  0  0  0  0  0  0  0  0  0  0
   -3.9149    0.0180   -1.3401 N   0  0  0  0  0  0  0  0  0  0  0  0
   -3.5647   -1.1178   -0.5156 C   0  0  0  0  0  0  0  0  0  0  0  0
   -4.3122   -2.3944   -0.9068 C   0  0  0  0  0  0  0  0  0  0  0  0
   -5.7296   -2.5155   -0.3329 C   0  0  0  0  0  0  0  0  0  0  0  0
   -6.7754   -1.7772   -1.1674 C   0  0  0  0  0  0  0  0  0  0  0  0
   -5.7763   -2.1797    1.1665 C   0  0  0  0  0  0  0  0  0  0  0  0
   -5.0397   -0.8992    1.6240 C   0  0  0  0  0  0  0  0  0  0  0  0
   -4.8670   -0.9698    3.1613 C   0  0  0  0  0  0  0  0  0  0  0  0
   -5.8675    0.3671    1.3452 C   0  0  0  0  0  0  0  0  0  0  0  0
   -3.6324   -0.8137    0.9875 C   0  0  0  0  0  0  0  0  0  0  0  0
   -2.0767   -1.2522   -0.9220 C   0  0  0  0  0  0  0  0  0  0  0  0
   -1.2986   -2.1069   -0.5160 O   0  0  0  0  0  0  0  0  0  0  0  0
    3.0192    3.1982   -1.1700 C   0  0  0  0  0  0  0  0  0  0  0  0
    2.7809    3.6045   -2.3053 O   0  0  0  0  0  0  0  0  0  0  0  0
    3.8154    3.9166   -0.3414 N   0  0  0  0  0  0  0  0  0  0  0  0
    4.0419    3.6469    0.9687 C   0  0  0  0  0  0  0  0  0  0  0  0
    4.7468    4.4135    1.6235 O   0  0  0  0  0  0  0  0  0  0  0  0
    7.4637    0.1068    2.1167 H   0  0  0  0  0  0  0  0  0  0  0  0
    6.8815   -0.6236    3.6261 H   0  0  0  0  0  0  0  0  0  0  0  0
    6.7162   -1.4995    2.0953 H   0  0  0  0  0  0  0  0  0  0  0  0
    4.5376   -0.5375    2.7578 H   0  0  0  0  0  0  0  0  0  0  0  0
    5.1257    0.1817    1.2537 H   0  0  0  0  0  0  0  0  0  0  0  0
    5.9722    2.1603    2.5175 H   0  0  0  0  0  0  0  0  0  0  0  0
    5.4643    1.4258    4.0332 H   0  0  0  0  0  0  0  0  0  0  0  0
    3.8297    3.0729    3.4391 H   0  0  0  0  0  0  0  0  0  0  0  0
    3.0731    1.5128    3.3300 H   0  0  0  0  0  0  0  0  0  0  0  0
    1.6897    0.7277    2.1758 H   0  0  0  0  0  0  0  0  0  0  0  0
    1.3740    0.1055    0.7112 H   0  0  0  0  0  0  0  0  0  0  0  0
    2.7797    1.5423   -3.2721 H   0  0  0  0  0  0  0  0  0  0  0  0
    1.6748    0.2224   -3.4428 H   0  0  0  0  0  0  0  0  0  0  0  0
    4.2127    0.0909   -1.7278 H   0  0  0  0  0  0  0  0  0  0  0  0
    2.4562   -1.5103   -0.9699 H   0  0  0  0  0  0  0  0  0  0  0  0
    2.3046   -2.1355   -2.6210 H   0  0  0  0  0  0  0  0  0  0  0  0
    3.8134   -2.3524   -1.7209 H   0  0  0  0  0  0  0  0  0  0  0  0
    4.7428    0.3433   -4.1332 H   0  0  0  0  0  0  0  0  0  0  0  0
    3.6783   -1.0173   -4.5316 H   0  0  0  0  0  0  0  0  0  0  0  0
    5.1404   -1.2834   -3.5645 H   0  0  0  0  0  0  0  0  0  0  0  0
   -0.4955    0.5976   -3.2028 H   0  0  0  0  0  0  0  0  0  0  0  0
    0.0736   -0.9379   -2.4426 H   0  0  0  0  0  0  0  0  0  0  0  0
   -4.7917    0.5196   -1.3444 H   0  0  0  0  0  0  0  0  0  0  0  0
   -3.7402   -3.2568   -0.5356 H   0  0  0  0  0  0  0  0  0  0  0  0
   -4.3370   -2.5097   -1.9986 H   0  0  0  0  0  0  0  0  0  0  0  0
   -6.0089   -3.5763   -0.4152 H   0  0  0  0  0  0  0  0  0  0  0  0
   -6.5633   -0.7164   -1.2903 H   0  0  0  0  0  0  0  0  0  0  0  0
   -6.8280   -2.2104   -2.1727 H   0  0  0  0  0  0  0  0  0  0  0  0
   -7.7693   -1.8736   -0.7179 H   0  0  0  0  0  0  0  0  0  0  0  0
   -5.3172   -3.0338    1.6859 H   0  0  0  0  0  0  0  0  0  0  0  0
   -6.8185   -2.1588    1.5107 H   0  0  0  0  0  0  0  0  0  0  0  0
   -5.8378   -1.0292    3.6665 H   0  0  0  0  0  0  0  0  0  0  0  0
   -4.2858   -1.8500    3.4591 H   0  0  0  0  0  0  0  0  0  0  0  0
   -4.3440   -0.0849    3.5420 H   0  0  0  0  0  0  0  0  0  0  0  0
   -5.3615    1.2584    1.7350 H   0  0  0  0  0  0  0  0  0  0  0  0
   -6.8478    0.3089    1.8326 H   0  0  0  0  0  0  0  0  0  0  0  0
   -6.0469    0.5433    0.2873 H   0  0  0  0  0  0  0  0  0  0  0  0
   -2.9854   -1.5384    1.5032 H   0  0  0  0  0  0  0  0  0  0  0  0
   -3.1873    0.1691    1.1972 H   0  0  0  0  0  0  0  0  0  0  0  0
    4.2002    4.7767   -0.6983 H   0  0  0  0  0  0  0  0  0  0  0  0
  1  2  1  0
  2  3  1  0
  3  4  1  0
  4  5  1  0
  5  6  1  0
  6  7  1  0
  6  8  2  0
  8  9  1  0
  9 10  1  0
 10 11  1  0
 11 12  1  0
 11 13  1  0
  9 14  1  0
 14 15  2  0
 14 16  1  0
 16 17  1  0
 17 18  1  0
 18 19  2  0
 18 20  1  0
 20 21  1  0
 21 22  1  0
 22 23  1  0
 23 24  1  0
 23 25  1  0
 25 26  1  0
 26 27  1  0
 26 28  1  0
 26 29  1  0
 21 30  1  0
 30 31  2  0
  8 32  1  0
 32 33  2  0
 32 34  1  0
 34 35  1  0
 35 36  2  0
 35  5  1  0
 30 17  1  0
 29 21  1  0
  1 37  1  0
  1 38  1  0
  1 39  1  0
  2 40  1  0
  2 41  1  0
  3 42  1  0
  3 43  1  0
  4 44  1  0
  4 45  1  0
  7 46  1  0
  7 47  1  0
 10 48  1  0
 10 49  1  0
 11 50  1  0
 12 51  1  0
 12 52  1  0
 12 53  1  0
 13 54  1  0
 13 55  1  0
 13 56  1  0
 16 57  1  0
 16 58  1  0
 20 59  1  0
 22 60  1  0
 22 61  1  0
 23 62  1  0
 24 63  1  0
 24 64  1  0
 24 65  1  0
 25 66  1  0
 25 67  1  0
 27 68  1  0
 27 69  1  0
 27 70  1  0
 28 71  1  0
 28 72  1  0
 28 73  1  0
 29 74  1  0
 29 75  1  0
 34 76  1  0
M  END
$$$$
