
     RDKit          3D

 57 61  0  0  0  0  0  0  0  0999 V2000
    6.4920    0.4531    3.4833 C   0  0  0  0  0  0  0  0  0  0  0  0
    6.1684   -0.7962    2.8859 O   0  0  0  0  0  0  0  0  0  0  0  0
    5.6051   -0.7548    1.6399 C   0  0  0  0  0  0  0  0  0  0  0  0
    5.2918    0.3966    0.9183 C   0  0  0  0  0  0  0  0  0  0  0  0
    4.7135    0.2945   -0.3518 C   0  0  0  0  0  0  0  0  0  0  0  0
    4.4466   -0.9584   -0.9203 C   0  0  0  0  0  0  0  0  0  0  0  0
    3.7960   -1.0557   -2.2763 C   0  0  0  0  0  0  0  0  0  0  0  0
    2.3630   -0.9727   -2.1621 N   0  0  0  0  0  0  0  0  0  0  0  0
    1.6682    0.1953   -2.3109 C   0  0  0  0  0  0  0  0  0  0  0  0
    2.1854    1.2332   -2.7171 O   0  0  0  0  0  0  0  0  0  0  0  0
    0.2209    0.1306   -1.9294 C   0  0  0  0  0  0  0  0  0  0  0  0
   -0.5268    1.2276   -2.1346 C   0  0  0  0  0  0  0  0  0  0  0  0
   -1.9363    1.2992   -1.7949 C   0  0  0  0  0  0  0  0  0  0  0  0
   -2.6939    2.5519   -2.0809 C   0  0  0  0  0  0  0  0  0  0  0  0
   -2.1320    3.5015   -2.6303 O   0  0  0  0  0  0  0  0  0  0  0  0
   -4.0231    2.5578   -1.6974 N   0  0  0  0  0  0  0  0  0  0  0  0
   -4.7952    3.6937   -1.9187 C   0  0  0  0  0  0  0  0  0  0  0  0
   -6.0867    3.7468   -1.5708 C   0  0  0  0  0  0  0  0  0  0  0  0
   -6.7078    2.6075   -0.9507 C   0  0  0  0  0  0  0  0  0  0  0  0
   -6.0025    1.4937   -0.7208 C   0  0  0  0  0  0  0  0  0  0  0  0
   -4.5639    1.4319   -1.1077 C   0  0  0  0  0  0  0  0  0  0  0  0
   -3.9080    0.3404   -0.8748 N   0  0  0  0  0  0  0  0  0  0  0  0
   -2.5729    0.2609   -1.2077 C   0  0  0  0  0  0  0  0  0  0  0  0
   -1.8418   -0.9305   -0.9320 N   0  0  0  0  0  0  0  0  0  0  0  0
   -2.5100   -1.9628   -0.1205 C   0  0  0  0  0  0  0  0  0  0  0  0
   -2.3810   -1.6802    1.3555 C   0  0  0  0  0  0  0  0  0  0  0  0
   -1.1795   -1.8525    2.0502 C   0  0  0  0  0  0  0  0  0  0  0  0
   -1.1211   -1.5713    3.4127 C   0  0  0  0  0  0  0  0  0  0  0  0
   -2.2708   -1.1263    4.0421 C   0  0  0  0  0  0  0  0  0  0  0  0
   -3.4486   -0.9452    3.4090 N   0  0  0  0  0  0  0  0  0  0  0  0
   -3.4736   -1.2174    2.0840 C   0  0  0  0  0  0  0  0  0  0  0  0
   -0.4918   -1.0508   -1.3112 C   0  0  0  0  0  0  0  0  0  0  0  0
    0.2197   -2.1372   -1.1750 N   0  0  0  0  0  0  0  0  0  0  0  0
    4.7520   -2.1102   -0.1863 C   0  0  0  0  0  0  0  0  0  0  0  0
    5.3301   -2.0052    1.0814 C   0  0  0  0  0  0  0  0  0  0  0  0
    6.9452    0.2495    4.4583 H   0  0  0  0  0  0  0  0  0  0  0  0
    7.2263    1.0006    2.8830 H   0  0  0  0  0  0  0  0  0  0  0  0
    5.5923    1.0535    3.6537 H   0  0  0  0  0  0  0  0  0  0  0  0
    5.4773    1.3900    1.3120 H   0  0  0  0  0  0  0  0  0  0  0  0
    4.4614    1.2025   -0.8987 H   0  0  0  0  0  0  0  0  0  0  0  0
    4.0332   -2.0172   -2.7447 H   0  0  0  0  0  0  0  0  0  0  0  0
    4.1767   -0.2695   -2.9381 H   0  0  0  0  0  0  0  0  0  0  0  0
    1.8590   -1.7479   -1.7262 H   0  0  0  0  0  0  0  0  0  0  0  0
   -0.0819    2.1211   -2.5705 H   0  0  0  0  0  0  0  0  0  0  0  0
   -4.3039    4.5428   -2.3883 H   0  0  0  0  0  0  0  0  0  0  0  0
   -6.6805    4.6381   -1.7465 H   0  0  0  0  0  0  0  0  0  0  0  0
   -7.7551    2.6747   -0.6739 H   0  0  0  0  0  0  0  0  0  0  0  0
   -6.4339    0.6173   -0.2541 H   0  0  0  0  0  0  0  0  0  0  0  0
   -3.5699   -2.0466   -0.3970 H   0  0  0  0  0  0  0  0  0  0  0  0
   -2.1303   -2.9689   -0.3268 H   0  0  0  0  0  0  0  0  0  0  0  0
   -0.2808   -2.1940    1.5436 H   0  0  0  0  0  0  0  0  0  0  0  0
   -0.1978   -1.6926    3.9687 H   0  0  0  0  0  0  0  0  0  0  0  0
   -2.2740   -0.8940    5.1032 H   0  0  0  0  0  0  0  0  0  0  0  0
   -4.4354   -1.0423    1.6083 H   0  0  0  0  0  0  0  0  0  0  0  0
   -0.3205   -2.9033   -0.7797 H   0  0  0  0  0  0  0  0  0  0  0  0
    4.5403   -3.0959   -0.5935 H   0  0  0  0  0  0  0  0  0  0  0  0
    5.5669   -2.9069    1.6408 H   0  0  0  0  0  0  0  0  0  0  0  0
  1  2  1  0
  2  3  1  0
  3  4  2  0
  4  5  1  0
  5  6  2  0
  6  7  1  0
  7  8  1  0
  8  9  1  0
  9 10  2  0
  9 11  1  0
 11 12  2  0
 12 13  1  0
 13 14  1  0
 14 15  2  0
 14 16  1  0
 16 17  1  0
 17 18  2  0
 18 19  1  0
 19 20  2  0
 20 21  1  0
 21 22  2  0
 22 23  1  0
 23 24  1  0
 24 25  1  0
 25 26  1  0
 26 27  2  0
 27 28  1  0
 28 29  2  0
 29 30  1  0
 30 31  2  0
 24 32  1  0
 32 33  2  3
  6 34  1  0
 34 35  2  0
 35  3  1  0
 32 11  1  0
 23 13  2  0
 31 26  1  0
 21 16  1  0
  1 36  1  0
  1 37  1  0
  1 38  1  0
  4 39  1  0
  5 40  1  0
  7 41  1  0
  7 42  1  0
  8 43  1  0
 12 44  1  0
 17 45  1  0
 18 46  1  0
 19 47  1  0
 20 48  1  0
 25 49  1  0
 25 50  1  0
 27 51  1  0
 28 52  1  0
 29 53  1  0
 31 54  1  0
 33 55  1  0
 34 56  1  0
 35 57  1  0
M  END
$$$$
