
     RDKit          3D

 45 48  0  0  0  0  0  0  0  0999 V2000
    0.4881   -2.1270   -1.8109 O   0  0  0  0  0  0  0  0  0  0  0  0
    1.4497   -1.4106   -1.9995 C   0  0  0  0  0  0  0  0  0  0  0  0
    2.7089   -1.8581   -1.8525 O   0  0  0  0  0  0  0  0  0  0  0  0
    1.4768   -0.0030   -2.4218 C   0  0  0  0  0  0  0  0  0  0  0  0
    0.4467    0.8521   -2.3351 C   0  0  0  0  0  0  0  0  0  0  0  0
   -0.8428    0.6142   -1.7851 C   0  0  0  0  0  0  0  0  0  0  0  0
   -2.0150    0.7503   -2.4908 C   0  0  0  0  0  0  0  0  0  0  0  0
   -3.0434    0.4416   -1.6261 N   0  0  0  0  0  0  0  0  0  0  0  0
   -4.4402    0.4080   -1.9047 C   0  0  0  0  0  0  0  0  0  0  0  0
   -4.9353    0.6883   -3.1862 C   0  0  0  0  0  0  0  0  0  0  0  0
   -6.3119    0.6483   -3.4293 C   0  0  0  0  0  0  0  0  0  0  0  0
   -7.1987    0.3297   -2.4022 C   0  0  0  0  0  0  0  0  0  0  0  0
   -6.7140    0.0484   -1.1270 C   0  0  0  0  0  0  0  0  0  0  0  0
   -5.3406    0.0863   -0.8765 C   0  0  0  0  0  0  0  0  0  0  0  0
   -2.5787    0.1719   -0.3792 N   0  0  0  0  0  0  0  0  0  0  0  0
   -1.2465    0.2643   -0.4776 C   0  0  0  0  0  0  0  0  0  0  0  0
   -0.3241    0.0344    0.7679 C   0  0  0  0  0  0  0  0  0  0  0  0
   -0.7603   -0.3038    2.0329 C   0  0  0  0  0  0  0  0  0  0  0  0
    0.3925   -0.4144    2.8472 C   0  0  0  0  0  0  0  0  0  0  0  0
    1.4773   -0.1388    2.0383 C   0  0  0  0  0  0  0  0  0  0  0  0
    2.9232   -0.0878    2.2472 C   0  0  0  0  0  0  0  0  0  0  0  0
    3.8070    0.1188    1.1743 C   0  0  0  0  0  0  0  0  0  0  0  0
    5.1916    0.1628    1.3728 C   0  0  0  0  0  0  0  0  0  0  0  0
    5.7071   -0.0005    2.6624 C   0  0  0  0  0  0  0  0  0  0  0  0
    7.1583    0.0445    2.8795 N   0  0  0  0  0  4  0  0  0  0  0  0
    7.8837    0.2353    1.8930 O   0  0  0  0  0  0  0  0  0  0  0  0
    7.5728   -0.1115    4.0371 O   0  0  0  0  0  1  0  0  0  0  0  0
    4.8474   -0.2072    3.7468 C   0  0  0  0  0  0  0  0  0  0  0  0
    3.4641   -0.2502    3.5335 C   0  0  0  0  0  0  0  0  0  0  0  0
    1.0382    0.1420    0.7750 O   0  0  0  0  0  0  0  0  0  0  0  0
    2.5812   -2.7843   -1.5571 H   0  0  0  0  0  0  0  0  0  0  0  0
    2.4172    0.3340   -2.8443 H   0  0  0  0  0  0  0  0  0  0  0  0
    0.6061    1.8519   -2.7361 H   0  0  0  0  0  0  0  0  0  0  0  0
   -2.1907    1.0158   -3.5213 H   0  0  0  0  0  0  0  0  0  0  0  0
   -4.2839    0.9375   -4.0174 H   0  0  0  0  0  0  0  0  0  0  0  0
   -6.6934    0.8650   -4.4242 H   0  0  0  0  0  0  0  0  0  0  0  0
   -8.2679    0.2988   -2.5959 H   0  0  0  0  0  0  0  0  0  0  0  0
   -7.4034   -0.2023   -0.3248 H   0  0  0  0  0  0  0  0  0  0  0  0
   -4.9862   -0.1392    0.1278 H   0  0  0  0  0  0  0  0  0  0  0  0
   -1.7919   -0.4553    2.3197 H   0  0  0  0  0  0  0  0  0  0  0  0
    0.4197   -0.6718    3.8962 H   0  0  0  0  0  0  0  0  0  0  0  0
    3.4228    0.2447    0.1635 H   0  0  0  0  0  0  0  0  0  0  0  0
    5.8432    0.3227    0.5162 H   0  0  0  0  0  0  0  0  0  0  0  0
    5.2311   -0.3357    4.7570 H   0  0  0  0  0  0  0  0  0  0  0  0
    2.8139   -0.4102    4.3912 H   0  0  0  0  0  0  0  0  0  0  0  0
  1  2  2  0
  2  3  1  0
  2  4  1  0
  4  5  2  3
  5  6  1  0
  6  7  2  0
  7  8  1  0
  8  9  1  0
  9 10  2  0
 10 11  1  0
 11 12  2  0
 12 13  1  0
 13 14  2  0
  8 15  1  0
 15 16  2  0
 16 17  1  0
 17 18  2  0
 18 19  1  0
 19 20  2  0
 20 21  1  0
 21 22  2  0
 22 23  1  0
 23 24  2  0
 24 25  1  0
 25 26  2  0
 25 27  1  0
 24 28  1  0
 28 29  2  0
 20 30  1  0
 16  6  1  0
 30 17  1  0
 14  9  1  0
 29 21  1  0
  3 31  1  0
  4 32  1  0
  5 33  1  0
  7 34  1  0
 10 35  1  0
 11 36  1  0
 12 37  1  0
 13 38  1  0
 14 39  1  0
 18 40  1  0
 19 41  1  0
 22 42  1  0
 23 43  1  0
 28 44  1  0
 29 45  1  0
M  CHG  2  25   1  27  -1
M  END
$$$$
