
     RDKit          3D

 59 60  0  0  0  0  0  0  0  0999 V2000
    6.4744   -1.5349   -3.0934 C   0  0  0  0  0  0  0  0  0  0  0  0
    5.1770   -0.9158   -3.6191 C   0  0  0  0  0  0  0  0  0  0  0  0
    4.4314   -1.9348   -4.4817 C   0  0  0  0  0  0  0  0  0  0  0  0
    4.3245   -0.4112   -2.4415 C   0  0  0  0  0  0  0  0  0  0  0  0
    3.0782    0.3589   -2.8790 C   0  0  0  0  0  0  0  0  0  0  0  0
    2.3854    0.9289   -1.7427 N   0  0  0  0  0  0  0  0  0  0  0  0
    1.5034    0.1932   -0.9732 C   0  0  0  0  0  0  0  0  0  0  0  0
    1.1838   -0.9538   -1.2706 O   0  0  0  0  0  0  0  0  0  0  0  0
    0.9828    0.8998    0.1726 C   0  0  0  0  0  0  0  0  0  0  0  0
    1.0744    2.2598    0.1934 O   0  0  0  0  0  0  0  0  0  0  0  0
    0.4576    2.7564    1.3214 N   0  0  0  0  0  0  0  0  0  0  0  0
   -0.0020    1.6894    1.9896 C   0  0  0  0  0  0  0  0  0  0  0  0
   -0.7078    1.8684    3.2933 C   0  0  0  0  0  0  0  0  0  0  0  0
   -2.5218    1.8041    3.0765 S   0  0  0  0  0  0  0  0  0  0  0  0
   -2.8021    3.4647    2.5001 C   0  0  0  0  0  0  0  0  0  0  0  0
   -3.6313    3.6819    1.4063 C   0  0  0  0  0  0  0  0  0  0  0  0
   -3.8554    4.9909    0.9879 C   0  0  0  0  0  0  0  0  0  0  0  0
   -3.2540    6.0367    1.6770 C   0  0  0  0  0  0  0  0  0  0  0  0
   -2.4540    5.7275    2.7639 C   0  0  0  0  0  0  0  0  0  0  0  0
   -2.2234    4.4682    3.1949 N   0  0  0  0  0  0  0  0  0  0  0  0
    0.3244    0.4802    1.3107 C   0  0  0  0  0  0  0  0  0  0  0  0
    0.0949   -0.8948    1.6871 C   0  0  0  0  0  0  0  0  0  0  0  0
    0.9715   -1.7460    1.6118 O   0  0  0  0  0  0  0  0  0  0  0  0
   -1.1748   -1.1502    2.1537 N   0  0  0  0  0  0  0  0  0  0  0  0
   -1.6196   -2.4965    2.4433 C   0  0  0  0  0  0  0  0  0  0  0  0
   -2.0324   -3.2637    1.1848 C   0  0  0  0  0  0  0  0  0  0  0  0
   -3.1600   -2.6069    0.3633 C   0  0  0  0  0  0  0  0  0  0  0  0
   -4.4522   -2.4487    1.1652 C   0  0  0  0  0  0  0  0  0  0  0  0
   -3.4298   -3.4340   -0.8963 C   0  0  0  0  0  0  0  0  0  0  0  0
    7.1113   -1.8655   -3.9206 H   0  0  0  0  0  0  0  0  0  0  0  0
    6.2715   -2.4013   -2.4545 H   0  0  0  0  0  0  0  0  0  0  0  0
    7.0440   -0.8065   -2.5063 H   0  0  0  0  0  0  0  0  0  0  0  0
    5.4454   -0.0605   -4.2518 H   0  0  0  0  0  0  0  0  0  0  0  0
    3.5665   -1.4819   -4.9752 H   0  0  0  0  0  0  0  0  0  0  0  0
    5.0837   -2.3286   -5.2686 H   0  0  0  0  0  0  0  0  0  0  0  0
    4.0781   -2.7799   -3.8815 H   0  0  0  0  0  0  0  0  0  0  0  0
    4.9385    0.2466   -1.8124 H   0  0  0  0  0  0  0  0  0  0  0  0
    4.0324   -1.2552   -1.8035 H   0  0  0  0  0  0  0  0  0  0  0  0
    3.3516    1.1908   -3.5364 H   0  0  0  0  0  0  0  0  0  0  0  0
    2.3833   -0.2922   -3.4187 H   0  0  0  0  0  0  0  0  0  0  0  0
    2.6559    1.8479   -1.4133 H   0  0  0  0  0  0  0  0  0  0  0  0
   -0.4318    1.0504    3.9682 H   0  0  0  0  0  0  0  0  0  0  0  0
   -0.3976    2.7909    3.7945 H   0  0  0  0  0  0  0  0  0  0  0  0
   -4.0952    2.8544    0.8804 H   0  0  0  0  0  0  0  0  0  0  0  0
   -4.4935    5.1913    0.1319 H   0  0  0  0  0  0  0  0  0  0  0  0
   -3.4050    7.0673    1.3759 H   0  0  0  0  0  0  0  0  0  0  0  0
   -1.9629    6.5093    3.3367 H   0  0  0  0  0  0  0  0  0  0  0  0
   -1.8825   -0.4295    2.0742 H   0  0  0  0  0  0  0  0  0  0  0  0
   -2.4481   -2.4229    3.1539 H   0  0  0  0  0  0  0  0  0  0  0  0
   -0.8066   -3.0346    2.9437 H   0  0  0  0  0  0  0  0  0  0  0  0
   -2.3381   -4.2751    1.4820 H   0  0  0  0  0  0  0  0  0  0  0  0
   -1.1526   -3.3828    0.5390 H   0  0  0  0  0  0  0  0  0  0  0  0
   -2.8342   -1.6108    0.0389 H   0  0  0  0  0  0  0  0  0  0  0  0
   -5.2533   -2.0484    0.5346 H   0  0  0  0  0  0  0  0  0  0  0  0
   -4.7887   -3.4095    1.5695 H   0  0  0  0  0  0  0  0  0  0  0  0
   -4.3208   -1.7534    1.9997 H   0  0  0  0  0  0  0  0  0  0  0  0
   -2.5236   -3.5234   -1.5046 H   0  0  0  0  0  0  0  0  0  0  0  0
   -3.7707   -4.4438   -0.6438 H   0  0  0  0  0  0  0  0  0  0  0  0
   -4.2001   -2.9610   -1.5148 H   0  0  0  0  0  0  0  0  0  0  0  0
  1  2  1  0
  2  3  1  0
  2  4  1  0
  4  5  1  0
  5  6  1  0
  6  7  1  0
  7  8  2  0
  7  9  1  0
  9 10  1  0
 10 11  1  0
 11 12  2  0
 12 13  1  0
 13 14  1  0
 14 15  1  0
 15 16  2  0
 16 17  1  0
 17 18  2  0
 18 19  1  0
 19 20  2  0
 12 21  1  0
 21 22  1  0
 22 23  2  0
 22 24  1  0
 24 25  1  0
 25 26  1  0
 26 27  1  0
 27 28  1  0
 27 29  1  0
 21  9  2  0
 20 15  1  0
  1 30  1  0
  1 31  1  0
  1 32  1  0
  2 33  1  0
  3 34  1  0
  3 35  1  0
  3 36  1  0
  4 37  1  0
  4 38  1  0
  5 39  1  0
  5 40  1  0
  6 41  1  0
 13 42  1  0
 13 43  1  0
 16 44  1  0
 17 45  1  0
 18 46  1  0
 19 47  1  0
 24 48  1  0
 25 49  1  0
 25 50  1  0
 26 51  1  0
 26 52  1  0
 27 53  1  0
 28 54  1  0
 28 55  1  0
 28 56  1  0
 29 57  1  0
 29 58  1  0
 29 59  1  0
M  END
$$$$
