
     RDKit          3D

 59 63  0  0  0  0  0  0  0  0999 V2000
    4.5043   -4.9233    2.5603 C   0  0  0  0  0  0  0  0  0  0  0  0
    5.2181   -3.6937    2.5408 O   0  0  0  0  0  0  0  0  0  0  0  0
    4.8383   -2.7744    1.6024 C   0  0  0  0  0  0  0  0  0  0  0  0
    5.5478   -1.5722    1.6423 C   0  0  0  0  0  0  0  0  0  0  0  0
    5.2602   -0.5429    0.7414 C   0  0  0  0  0  0  0  0  0  0  0  0
    4.2549   -0.7040   -0.2191 C   0  0  0  0  0  0  0  0  0  0  0  0
    3.9292    0.3770   -1.1580 C   0  0  0  0  0  0  0  0  0  0  0  0
    5.1257    0.8680   -2.2789 S   0  0  0  0  0  0  0  0  0  0  0  0
    4.1031    2.0451   -2.9972 C   0  0  0  0  0  0  0  0  0  0  0  0
    4.4293    2.9078   -4.0630 C   0  0  0  0  0  0  0  0  0  0  0  0
    3.4715    3.8145   -4.5205 C   0  0  0  0  0  0  0  0  0  0  0  0
    2.2166    3.8674   -3.9330 C   0  0  0  0  0  0  0  0  0  0  0  0
    1.8979    3.0088   -2.8767 C   0  0  0  0  0  0  0  0  0  0  0  0
    2.8461    2.0700   -2.3903 C   0  0  0  0  0  0  0  0  0  0  0  0
    2.7524    1.0921   -1.3267 C   0  0  0  0  0  0  0  0  0  0  0  0
    1.5776    0.8509   -0.4937 C   0  0  0  0  0  0  0  0  0  0  0  0
    0.4177    0.3106   -1.0597 C   0  0  0  0  0  0  0  0  0  0  0  0
   -0.7141    0.0747   -0.2700 C   0  0  0  0  0  0  0  0  0  0  0  0
   -0.6948    0.3766    1.0918 C   0  0  0  0  0  0  0  0  0  0  0  0
   -1.7228    0.2042    1.9757 O   0  0  0  0  0  0  0  0  0  0  0  0
   -2.8927   -0.4940    1.5397 C   0  0  0  0  0  0  0  0  0  0  0  0
   -3.9239    0.4859    0.9525 C   0  0  0  0  0  0  0  0  0  0  0  0
   -5.1254   -0.1682    0.4046 N   0  0  0  0  0  0  0  0  0  0  0  0
   -6.0048    0.8009   -0.2892 C   0  0  0  0  0  0  0  0  0  0  0  0
   -7.1964    1.2678    0.5617 C   0  0  0  0  0  0  0  0  0  0  0  0
   -8.0503    0.1921    0.9747 O   0  0  0  0  0  0  0  0  0  0  0  0
   -7.3643   -1.0633    1.0763 C   0  0  0  0  0  0  0  0  0  0  0  0
   -5.8827   -0.8975    1.4480 C   0  0  0  0  0  0  0  0  0  0  0  0
    0.4618    0.9268    1.6517 C   0  0  0  0  0  0  0  0  0  0  0  0
    1.5934    1.1643    0.8677 C   0  0  0  0  0  0  0  0  0  0  0  0
    3.5475   -1.9127   -0.2578 C   0  0  0  0  0  0  0  0  0  0  0  0
    3.8363   -2.9419    0.6469 C   0  0  0  0  0  0  0  0  0  0  0  0
    4.9165   -5.5361    3.3678 H   0  0  0  0  0  0  0  0  0  0  0  0
    4.6397   -5.4731    1.6228 H   0  0  0  0  0  0  0  0  0  0  0  0
    3.4426   -4.7609    2.7745 H   0  0  0  0  0  0  0  0  0  0  0  0
    6.3302   -1.4334    2.3845 H   0  0  0  0  0  0  0  0  0  0  0  0
    5.8228    0.3859    0.8020 H   0  0  0  0  0  0  0  0  0  0  0  0
    5.4133    2.8706   -4.5221 H   0  0  0  0  0  0  0  0  0  0  0  0
    3.7152    4.4849   -5.3412 H   0  0  0  0  0  0  0  0  0  0  0  0
    1.4771    4.5794   -4.2910 H   0  0  0  0  0  0  0  0  0  0  0  0
    0.9117    3.0676   -2.4219 H   0  0  0  0  0  0  0  0  0  0  0  0
    0.3875    0.0655   -2.1193 H   0  0  0  0  0  0  0  0  0  0  0  0
   -1.5915   -0.3384   -0.7562 H   0  0  0  0  0  0  0  0  0  0  0  0
   -3.3100   -0.9635    2.4378 H   0  0  0  0  0  0  0  0  0  0  0  0
   -2.6541   -1.3175    0.8565 H   0  0  0  0  0  0  0  0  0  0  0  0
   -4.1920    1.2295    1.7150 H   0  0  0  0  0  0  0  0  0  0  0  0
   -3.4322    1.0532    0.1529 H   0  0  0  0  0  0  0  0  0  0  0  0
   -6.3969    0.2913   -1.1787 H   0  0  0  0  0  0  0  0  0  0  0  0
   -5.4434    1.6672   -0.6582 H   0  0  0  0  0  0  0  0  0  0  0  0
   -7.8117    1.9718   -0.0082 H   0  0  0  0  0  0  0  0  0  0  0  0
   -6.8499    1.7924    1.4600 H   0  0  0  0  0  0  0  0  0  0  0  0
   -7.8792   -1.6561    1.8393 H   0  0  0  0  0  0  0  0  0  0  0  0
   -7.4733   -1.5949    0.1234 H   0  0  0  0  0  0  0  0  0  0  0  0
   -5.4336   -1.8861    1.5928 H   0  0  0  0  0  0  0  0  0  0  0  0
   -5.8332   -0.3571    2.4027 H   0  0  0  0  0  0  0  0  0  0  0  0
    0.4848    1.1697    2.7115 H   0  0  0  0  0  0  0  0  0  0  0  0
    2.4812    1.5908    1.3284 H   0  0  0  0  0  0  0  0  0  0  0  0
    2.7625   -2.0632   -0.9960 H   0  0  0  0  0  0  0  0  0  0  0  0
    3.2583   -3.8570    0.5763 H   0  0  0  0  0  0  0  0  0  0  0  0
  1  2  1  0
  2  3  1  0
  3  4  2  0
  4  5  1  0
  5  6  2  0
  6  7  1  0
  7  8  1  0
  8  9  1  0
  9 10  2  0
 10 11  1  0
 11 12  2  0
 12 13  1  0
 13 14  2  0
 14 15  1  0
 15 16  1  0
 16 17  2  0
 17 18  1  0
 18 19  2  0
 19 20  1  0
 20 21  1  0
 21 22  1  0
 22 23  1  0
 23 24  1  0
 24 25  1  0
 25 26  1  0
 26 27  1  0
 27 28  1  0
 19 29  1  0
 29 30  2  0
  6 31  1  0
 31 32  2  0
 32  3  1  0
 15  7  2  0
 30 16  1  0
 14  9  1  0
 28 23  1  0
  1 33  1  0
  1 34  1  0
  1 35  1  0
  4 36  1  0
  5 37  1  0
 10 38  1  0
 11 39  1  0
 12 40  1  0
 13 41  1  0
 17 42  1  0
 18 43  1  0
 21 44  1  0
 21 45  1  0
 22 46  1  0
 22 47  1  0
 24 48  1  0
 24 49  1  0
 25 50  1  0
 25 51  1  0
 27 52  1  0
 27 53  1  0
 28 54  1  0
 28 55  1  0
 29 56  1  0
 30 57  1  0
 31 58  1  0
 32 59  1  0
M  END
$$$$
