
     RDKit          3D

 39 42  0  0  0  0  0  0  0  0999 V2000
    5.6990   -3.0440   -1.1145 C   0  0  0  0  0  0  0  0  0  0  0  0
    5.0570   -1.8624   -0.6338 O   0  0  0  0  0  0  0  0  0  0  0  0
    3.9070   -1.5568   -1.2855 C   0  0  0  0  0  0  0  0  0  0  0  0
    3.4208   -2.1900   -2.2096 O   0  0  0  0  0  0  0  0  0  0  0  0
    3.2950   -0.3217   -0.7236 C   0  0  0  0  0  0  0  0  0  0  0  0
    2.0771    0.1150   -1.2595 C   0  0  0  0  0  0  0  0  0  0  0  0
    1.4611    1.2687   -0.7676 C   0  0  0  0  0  0  0  0  0  0  0  0
    2.0527    2.0058    0.2679 C   0  0  0  0  0  0  0  0  0  0  0  0
    1.3782    3.2443    0.8084 C   0  0  0  0  0  0  0  0  0  0  0  0
    0.6382    3.0029    2.4484 S   0  0  0  0  0  0  0  0  0  0  0  0
   -0.6618    1.8733    2.0068 C   0  0  0  0  0  0  0  0  0  0  0  0
   -0.7529    0.7363    2.7493 N   0  0  0  0  0  0  0  0  0  0  0  0
   -1.6981   -0.1730    2.5011 N   0  0  0  0  0  0  0  0  0  0  0  0
   -2.5517    0.1120    1.4881 C   0  0  0  0  0  0  0  0  0  0  0  0
   -2.4112    1.2918    0.7800 C   0  0  0  0  0  0  0  0  0  0  0  0
   -1.4756    2.2341    0.9866 N   0  0  0  0  0  0  0  0  0  0  0  0
   -3.3946    1.3290   -0.1665 N   0  0  0  0  0  0  0  0  0  0  0  0
   -4.1688    0.1893   -0.0939 C   0  0  0  0  0  0  0  0  0  0  0  0
   -5.2733   -0.2027   -0.8589 C   0  0  0  0  0  0  0  0  0  0  0  0
   -5.8681   -1.4309   -0.5533 C   0  0  0  0  0  0  0  0  0  0  0  0
   -5.3788   -2.2335    0.4756 C   0  0  0  0  0  0  0  0  0  0  0  0
   -4.2741   -1.8289    1.2331 C   0  0  0  0  0  0  0  0  0  0  0  0
   -3.6555   -0.5961    0.9457 C   0  0  0  0  0  0  0  0  0  0  0  0
    3.2729    1.5652    0.8016 C   0  0  0  0  0  0  0  0  0  0  0  0
    3.8905    0.4106    0.3107 C   0  0  0  0  0  0  0  0  0  0  0  0
    5.0472   -3.9140   -0.9866 H   0  0  0  0  0  0  0  0  0  0  0  0
    5.9860   -2.9245   -2.1640 H   0  0  0  0  0  0  0  0  0  0  0  0
    6.6055   -3.2011   -0.5236 H   0  0  0  0  0  0  0  0  0  0  0  0
    1.5992   -0.4456   -2.0611 H   0  0  0  0  0  0  0  0  0  0  0  0
    0.5112    1.5826   -1.1962 H   0  0  0  0  0  0  0  0  0  0  0  0
    2.1286    4.0392    0.8931 H   0  0  0  0  0  0  0  0  0  0  0  0
    0.6270    3.6215    0.1051 H   0  0  0  0  0  0  0  0  0  0  0  0
   -3.5271    2.0873   -0.8186 H   0  0  0  0  0  0  0  0  0  0  0  0
   -5.6613    0.4164   -1.6619 H   0  0  0  0  0  0  0  0  0  0  0  0
   -6.7285   -1.7658   -1.1293 H   0  0  0  0  0  0  0  0  0  0  0  0
   -5.8586   -3.1849    0.6940 H   0  0  0  0  0  0  0  0  0  0  0  0
   -3.8961   -2.4586    2.0344 H   0  0  0  0  0  0  0  0  0  0  0  0
    3.7484    2.1155    1.6119 H   0  0  0  0  0  0  0  0  0  0  0  0
    4.8336    0.0938    0.7492 H   0  0  0  0  0  0  0  0  0  0  0  0
  1  2  1  0
  2  3  1  0
  3  4  2  0
  3  5  1  0
  5  6  2  0
  6  7  1  0
  7  8  2  0
  8  9  1  0
  9 10  1  0
 10 11  1  0
 11 12  2  0
 12 13  1  0
 13 14  2  0
 14 15  1  0
 15 16  2  0
 15 17  1  0
 17 18  1  0
 18 19  2  0
 19 20  1  0
 20 21  2  0
 21 22  1  0
 22 23  2  0
  8 24  1  0
 24 25  2  0
 25  5  1  0
 16 11  1  0
 23 18  1  0
 23 14  1  0
  1 26  1  0
  1 27  1  0
  1 28  1  0
  6 29  1  0
  7 30  1  0
  9 31  1  0
  9 32  1  0
 17 33  1  0
 19 34  1  0
 20 35  1  0
 21 36  1  0
 22 37  1  0
 24 38  1  0
 25 39  1  0
M  END
$$$$
