
     RDKit          3D

 59 62  0  0  0  0  0  0  0  0999 V2000
    2.0673    0.9373    3.4968 O   0  0  0  0  0  0  0  0  0  0  0  0
    1.2027    0.5915    2.6938 C   0  0  0  0  0  0  0  0  0  0  0  0
   -0.0203    0.2254    3.1735 N   0  0  0  0  0  0  0  0  0  0  0  0
   -1.0169   -0.3884    2.4748 C   0  0  0  0  0  0  0  0  0  0  0  0
   -1.9555   -0.9186    3.0629 O   0  0  0  0  0  0  0  0  0  0  0  0
   -0.9150   -0.2817    0.9694 C   0  0  0  0  0  0  0  0  0  0  0  0
   -1.5440    1.0975    0.5989 C   0  0  0  0  0  0  0  0  0  0  0  0
   -1.6456    1.3871   -0.9062 C   0  0  0  0  0  0  0  0  0  0  0  0
   -2.1086    2.8002   -1.1578 C   0  0  0  0  0  0  0  0  0  0  0  0
   -3.4651    3.1295   -1.0951 C   0  0  0  0  0  0  0  0  0  0  0  0
   -3.8400    4.4464   -1.3131 C   0  0  0  0  0  0  0  0  0  0  0  0
   -2.9683    5.4414   -1.5814 N   0  0  0  0  0  0  0  0  0  0  0  0
   -1.6632    5.1028   -1.6381 C   0  0  0  0  0  0  0  0  0  0  0  0
   -1.1895    3.8155   -1.4341 C   0  0  0  0  0  0  0  0  0  0  0  0
   -1.6949   -1.4399    0.2940 C   0  0  0  0  0  0  0  0  0  0  0  0
   -1.2110   -2.8480    0.6844 C   0  0  0  0  0  0  0  0  0  0  0  0
   -1.9815   -3.9110   -0.0567 C   0  0  0  0  0  0  0  0  0  0  0  0
   -3.1583   -4.4425    0.4757 C   0  0  0  0  0  0  0  0  0  0  0  0
   -3.8417   -5.4031   -0.2539 C   0  0  0  0  0  0  0  0  0  0  0  0
   -3.4410   -5.8584   -1.4602 N   0  0  0  0  0  0  0  0  0  0  0  0
   -2.3040   -5.3273   -1.9585 C   0  0  0  0  0  0  0  0  0  0  0  0
   -1.5507   -4.3635   -1.3061 C   0  0  0  0  0  0  0  0  0  0  0  0
    0.5441   -0.2598    0.5300 C   0  0  0  0  0  0  0  0  0  0  0  0
    0.9023   -0.8272   -0.5023 O   0  0  0  0  0  0  0  0  0  0  0  0
    1.4048    0.4856    1.3275 N   0  0  0  0  0  0  0  0  0  0  0  0
    2.7622    0.7930    0.8359 C   0  0  0  0  0  0  0  0  0  0  0  0
    3.6902   -0.4394    0.8540 C   0  0  0  0  0  0  0  0  0  0  0  0
    4.8302   -0.3510   -0.1637 C   0  0  0  0  0  0  0  0  0  0  0  0
    5.2986    1.0839   -0.3671 C   0  0  0  0  0  0  0  0  0  0  0  0
    4.1811    1.9874   -0.8934 C   0  0  0  0  0  0  0  0  0  0  0  0
    2.7755    1.5005   -0.5289 C   0  0  0  0  0  0  0  0  0  0  0  0
   -0.0954    0.1951    4.1817 H   0  0  0  0  0  0  0  0  0  0  0  0
   -2.5495    1.1621    1.0393 H   0  0  0  0  0  0  0  0  0  0  0  0
   -0.9708    1.9063    1.0744 H   0  0  0  0  0  0  0  0  0  0  0  0
   -2.3503    0.6996   -1.3881 H   0  0  0  0  0  0  0  0  0  0  0  0
   -0.6789    1.2344   -1.3996 H   0  0  0  0  0  0  0  0  0  0  0  0
   -4.2207    2.3804   -0.8824 H   0  0  0  0  0  0  0  0  0  0  0  0
   -4.8841    4.7439   -1.2755 H   0  0  0  0  0  0  0  0  0  0  0  0
   -0.9831    5.9206   -1.8589 H   0  0  0  0  0  0  0  0  0  0  0  0
   -0.1249    3.6169   -1.4948 H   0  0  0  0  0  0  0  0  0  0  0  0
   -2.7629   -1.3511    0.5368 H   0  0  0  0  0  0  0  0  0  0  0  0
   -1.6249   -1.3486   -0.7976 H   0  0  0  0  0  0  0  0  0  0  0  0
   -1.3201   -3.0204    1.7609 H   0  0  0  0  0  0  0  0  0  0  0  0
   -0.1430   -2.9715    0.4715 H   0  0  0  0  0  0  0  0  0  0  0  0
   -3.5401   -4.1180    1.4383 H   0  0  0  0  0  0  0  0  0  0  0  0
   -4.7593   -5.8438    0.1251 H   0  0  0  0  0  0  0  0  0  0  0  0
   -2.0031   -5.7075   -2.9305 H   0  0  0  0  0  0  0  0  0  0  0  0
   -0.6482   -3.9749   -1.7672 H   0  0  0  0  0  0  0  0  0  0  0  0
    3.1948    1.5208    1.5371 H   0  0  0  0  0  0  0  0  0  0  0  0
    3.1377   -1.3693    0.6767 H   0  0  0  0  0  0  0  0  0  0  0  0
    4.1109   -0.5395    1.8631 H   0  0  0  0  0  0  0  0  0  0  0  0
    5.6654   -0.9786    0.1671 H   0  0  0  0  0  0  0  0  0  0  0  0
    4.4929   -0.7599   -1.1245 H   0  0  0  0  0  0  0  0  0  0  0  0
    6.1487    1.1113   -1.0582 H   0  0  0  0  0  0  0  0  0  0  0  0
    5.6636    1.4798    0.5892 H   0  0  0  0  0  0  0  0  0  0  0  0
    4.2522    2.0674   -1.9850 H   0  0  0  0  0  0  0  0  0  0  0  0
    4.3352    3.0010   -0.5037 H   0  0  0  0  0  0  0  0  0  0  0  0
    2.4309    0.8273   -1.3215 H   0  0  0  0  0  0  0  0  0  0  0  0
    2.0830    2.3510   -0.5280 H   0  0  0  0  0  0  0  0  0  0  0  0
  1  2  2  0
  2  3  1  0
  3  4  1  0
  4  5  2  0
  4  6  1  0
  6  7  1  0
  7  8  1  0
  8  9  1  0
  9 10  2  0
 10 11  1  0
 11 12  2  0
 12 13  1  0
 13 14  2  0
  6 15  1  0
 15 16  1  0
 16 17  1  0
 17 18  2  0
 18 19  1  0
 19 20  2  0
 20 21  1  0
 21 22  2  0
  6 23  1  0
 23 24  2  0
 23 25  1  0
 25 26  1  0
 26 27  1  0
 27 28  1  0
 28 29  1  0
 29 30  1  0
 30 31  1  0
 25  2  1  0
 31 26  1  0
 14  9  1  0
 22 17  1  0
  3 32  1  0
  7 33  1  0
  7 34  1  0
  8 35  1  0
  8 36  1  0
 10 37  1  0
 11 38  1  0
 13 39  1  0
 14 40  1  0
 15 41  1  0
 15 42  1  0
 16 43  1  0
 16 44  1  0
 18 45  1  0
 19 46  1  0
 21 47  1  0
 22 48  1  0
 26 49  1  0
 27 50  1  0
 27 51  1  0
 28 52  1  0
 28 53  1  0
 29 54  1  0
 29 55  1  0
 30 56  1  0
 30 57  1  0
 31 58  1  0
 31 59  1  0
M  END
$$$$
