
     RDKit          3D

 57 60  0  0  0  0  0  0  0  0999 V2000
   -5.5639   -0.9837   -5.5724 C   0  0  0  0  0  0  0  0  0  0  0  0
   -4.6303   -0.8861   -4.4023 C   0  0  0  0  0  0  0  0  0  0  0  0
   -4.1518   -2.0435   -3.7773 C   0  0  0  0  0  0  0  0  0  0  0  0
   -3.3103   -1.9546   -2.6646 C   0  0  0  0  0  0  0  0  0  0  0  0
   -2.9432   -0.7015   -2.1620 C   0  0  0  0  0  0  0  0  0  0  0  0
   -2.0841   -0.6028   -1.0280 N   0  0  0  0  0  0  0  0  0  0  0  0
   -2.1911   -1.3499    0.1453 C   0  0  0  0  0  0  0  0  0  0  0  0
   -3.2912   -2.3104    0.4448 C   0  0  0  0  0  0  0  0  0  0  0  0
   -1.1964   -0.9348    1.0092 C   0  0  0  0  0  0  0  0  0  0  0  0
   -0.4387    0.0669    0.3603 C   0  0  0  0  0  0  0  0  0  0  0  0
    0.7203    0.7444    0.9064 C   0  0  0  0  0  0  0  0  0  0  0  0
    0.4121    1.9396    1.1807 O   0  0  0  0  0  1  0  0  0  0  0  0
    1.8884    0.0688    1.1130 C   0  0  0  0  0  0  0  0  0  0  0  0
    3.1135    0.7420    1.7906 C   0  0  0  0  0  0  0  0  0  0  0  0
    4.6482    0.0373    1.6678 S   0  0  0  0  0  0  0  0  0  0  0  0
    2.8075    1.9341    2.4340 N   0  0  0  0  0  0  0  0  0  0  0  0
    3.5213    2.8403    3.2460 C   0  0  0  0  0  0  0  0  0  0  0  0
    4.7667    2.6038    3.8315 C   0  0  0  0  0  0  0  0  0  0  0  0
    5.3758    3.5783    4.6317 C   0  0  0  0  0  0  0  0  0  0  0  0
    4.7363    4.7905    4.8581 C   0  0  0  0  0  0  0  0  0  0  0  0
    5.3411    5.7050    5.6304 F   0  0  0  0  0  0  0  0  0  0  0  0
    3.4891    5.0388    4.2984 C   0  0  0  0  0  0  0  0  0  0  0  0
    2.6835    6.5339    4.5816 Cl  0  0  0  0  0  0  0  0  0  0  0  0
    2.8822    4.0664    3.5006 C   0  0  0  0  0  0  0  0  0  0  0  0
    1.9758   -1.3774    0.6728 N   0  0  0  0  0  4  0  0  0  0  0  0
    1.8780   -1.6888   -0.6384 C   0  0  0  0  0  0  0  0  0  0  0  0
    1.9535   -3.0122   -1.0586 C   0  0  0  0  0  0  0  0  0  0  0  0
    2.1349   -4.0158   -0.1152 C   0  0  0  0  0  0  0  0  0  0  0  0
    2.2364   -3.6776    1.2286 C   0  0  0  0  0  0  0  0  0  0  0  0
    2.1532   -2.3404    1.6024 C   0  0  0  0  0  0  0  0  0  0  0  0
   -0.9844    0.2488   -0.9046 C   0  0  0  0  0  0  0  0  0  0  0  0
   -0.5028    1.1601   -1.9878 C   0  0  0  0  0  0  0  0  0  0  0  0
   -3.4315    0.4583   -2.7729 C   0  0  0  0  0  0  0  0  0  0  0  0
   -4.2750    0.3640   -3.8830 C   0  0  0  0  0  0  0  0  0  0  0  0
   -5.3577   -1.8828   -6.1625 H   0  0  0  0  0  0  0  0  0  0  0  0
   -5.4451   -0.1236   -6.2396 H   0  0  0  0  0  0  0  0  0  0  0  0
   -6.6000   -1.0200   -5.2222 H   0  0  0  0  0  0  0  0  0  0  0  0
   -4.4280   -3.0245   -4.1576 H   0  0  0  0  0  0  0  0  0  0  0  0
   -2.9250   -2.8717   -2.2302 H   0  0  0  0  0  0  0  0  0  0  0  0
   -4.2553   -1.9573    0.0668 H   0  0  0  0  0  0  0  0  0  0  0  0
   -3.4008   -2.4391    1.5275 H   0  0  0  0  0  0  0  0  0  0  0  0
   -3.0724   -3.2947    0.0208 H   0  0  0  0  0  0  0  0  0  0  0  0
   -1.0621   -1.2858    2.0237 H   0  0  0  0  0  0  0  0  0  0  0  0
    1.8485    2.2566    2.1959 H   0  0  0  0  0  0  0  0  0  0  0  0
    5.2937    1.6660    3.7171 H   0  0  0  0  0  0  0  0  0  0  0  0
    6.3448    3.3917    5.0845 H   0  0  0  0  0  0  0  0  0  0  0  0
    1.9048    4.2724    3.0651 H   0  0  0  0  0  0  0  0  0  0  0  0
    1.7492   -0.8670   -1.3353 H   0  0  0  0  0  0  0  0  0  0  0  0
    1.8691   -3.2526   -2.1149 H   0  0  0  0  0  0  0  0  0  0  0  0
    2.1944   -5.0569   -0.4262 H   0  0  0  0  0  0  0  0  0  0  0  0
    2.3737   -4.4477    1.9830 H   0  0  0  0  0  0  0  0  0  0  0  0
    2.2058   -2.0259    2.6400 H   0  0  0  0  0  0  0  0  0  0  0  0
    0.5671    1.3684   -1.8817 H   0  0  0  0  0  0  0  0  0  0  0  0
   -1.0303    2.1178   -1.9495 H   0  0  0  0  0  0  0  0  0  0  0  0
   -0.6309    0.7157   -2.9795 H   0  0  0  0  0  0  0  0  0  0  0  0
   -3.2060    1.4428   -2.3699 H   0  0  0  0  0  0  0  0  0  0  0  0
   -4.6607    1.2764   -4.3329 H   0  0  0  0  0  0  0  0  0  0  0  0
  1  2  1  0
  2  3  2  0
  3  4  1  0
  4  5  2  0
  5  6  1  0
  6  7  1  0
  7  8  1  0
  7  9  2  0
  9 10  1  0
 10 11  1  0
 11 12  1  0
 11 13  2  3
 13 14  1  0
 14 15  2  0
 14 16  1  0
 16 17  1  0
 17 18  2  0
 18 19  1  0
 19 20  2  0
 20 21  1  0
 20 22  1  0
 22 23  1  0
 22 24  2  0
 13 25  1  0
 25 26  2  0
 26 27  1  0
 27 28  2  0
 28 29  1  0
 29 30  2  0
 10 31  2  0
 31 32  1  0
  5 33  1  0
 33 34  2  0
 34  2  1  0
 31  6  1  0
 24 17  1  0
 30 25  1  0
  1 35  1  0
  1 36  1  0
  1 37  1  0
  3 38  1  0
  4 39  1  0
  8 40  1  0
  8 41  1  0
  8 42  1  0
  9 43  1  0
 16 44  1  0
 18 45  1  0
 19 46  1  0
 24 47  1  0
 26 48  1  0
 27 49  1  0
 28 50  1  0
 29 51  1  0
 30 52  1  0
 32 53  1  0
 32 54  1  0
 32 55  1  0
 33 56  1  0
 34 57  1  0
M  CHG  2  12  -1  25   1
M  END
$$$$
