
     RDKit          3D

 48 51  0  0  0  0  0  0  0  0999 V2000
    4.0491    1.6484   -0.7385 C   0  0  0  0  0  0  0  0  0  0  0  0
    3.4820    0.9008   -1.9446 C   0  0  0  0  0  0  0  0  0  0  0  0
    2.1040    1.4491   -2.3113 C   0  0  0  0  0  0  0  0  0  0  0  0
    3.4584   -0.6181   -1.7192 C   0  0  0  0  0  0  0  0  0  0  0  0
    2.9155   -0.9906   -0.4431 O   0  0  0  0  0  0  0  0  0  0  0  0
    1.6281   -1.4206   -0.4325 C   0  0  0  0  0  0  0  0  0  0  0  0
    0.8508   -1.4066   -1.3725 O   0  0  0  0  0  0  0  0  0  0  0  0
    1.3210   -2.0175    0.8944 C   0  0  0  0  0  0  0  0  0  0  0  0
    2.2532   -2.9266    1.4285 C   0  0  0  0  0  0  0  0  0  0  0  0
    1.9393   -3.6881    2.5554 C   0  0  0  0  0  0  0  0  0  0  0  0
    0.6843   -3.5688    3.1462 C   0  0  0  0  0  0  0  0  0  0  0  0
   -0.2513   -2.6712    2.6283 C   0  0  0  0  0  0  0  0  0  0  0  0
    0.0685   -1.8750    1.5155 C   0  0  0  0  0  0  0  0  0  0  0  0
   -0.8724   -0.8954    1.0905 N   0  0  0  0  0  0  0  0  0  0  0  0
   -0.5674    0.4507    0.8100 C   0  0  0  0  0  0  0  0  0  0  0  0
    0.6484    0.9589    0.9870 O   0  0  0  0  0  0  0  0  0  0  0  0
   -1.7294    1.0424    0.4140 C   0  0  0  0  0  0  0  0  0  0  0  0
   -2.7751    0.1077    0.5271 C   0  0  0  0  0  0  0  0  0  0  0  0
   -2.2663   -1.0742    0.9808 C   0  0  0  0  0  0  0  0  0  0  0  0
   -2.8672   -2.2334    1.2331 O   0  0  0  0  0  0  0  0  0  0  0  0
   -4.0354    0.8032    0.1191 C   0  0  0  0  0  0  0  0  0  0  0  0
   -3.9521    1.0873   -1.4034 C   0  0  0  0  0  0  0  0  0  0  0  0
   -2.7913    2.1293   -1.5209 C   0  0  0  0  0  0  0  0  0  0  0  0
   -2.3316    2.3290   -0.0535 C   0  0  0  0  0  0  0  0  0  0  0  0
   -3.7224    2.2386    0.6563 C   0  0  0  0  0  0  0  0  0  0  0  0
    5.0421    1.2673   -0.4779 H   0  0  0  0  0  0  0  0  0  0  0  0
    3.4043    1.5485    0.1406 H   0  0  0  0  0  0  0  0  0  0  0  0
    4.1489    2.7167   -0.9588 H   0  0  0  0  0  0  0  0  0  0  0  0
    4.1399    1.0909   -2.8026 H   0  0  0  0  0  0  0  0  0  0  0  0
    2.1665    2.5147   -2.5572 H   0  0  0  0  0  0  0  0  0  0  0  0
    1.6995    0.9302   -3.1867 H   0  0  0  0  0  0  0  0  0  0  0  0
    1.3900    1.3397   -1.4932 H   0  0  0  0  0  0  0  0  0  0  0  0
    2.9521   -1.1358   -2.5433 H   0  0  0  0  0  0  0  0  0  0  0  0
    4.4908   -0.9876   -1.7206 H   0  0  0  0  0  0  0  0  0  0  0  0
    3.2173   -3.0724    0.9463 H   0  0  0  0  0  0  0  0  0  0  0  0
    2.6654   -4.3905    2.9570 H   0  0  0  0  0  0  0  0  0  0  0  0
    0.4325   -4.1693    4.0169 H   0  0  0  0  0  0  0  0  0  0  0  0
   -1.2129   -2.5735    3.1276 H   0  0  0  0  0  0  0  0  0  0  0  0
    0.6035    1.8944    0.7234 H   0  0  0  0  0  0  0  0  0  0  0  0
   -3.8029   -2.1243    0.9897 H   0  0  0  0  0  0  0  0  0  0  0  0
   -4.9645    0.3564    0.4722 H   0  0  0  0  0  0  0  0  0  0  0  0
   -3.7383    0.1858   -1.9877 H   0  0  0  0  0  0  0  0  0  0  0  0
   -4.8855    1.5282   -1.7708 H   0  0  0  0  0  0  0  0  0  0  0  0
   -3.1735    3.0657   -1.9425 H   0  0  0  0  0  0  0  0  0  0  0  0
   -1.9873    1.7586   -2.1661 H   0  0  0  0  0  0  0  0  0  0  0  0
   -1.7529    3.2302    0.1479 H   0  0  0  0  0  0  0  0  0  0  0  0
   -4.4360    2.9969    0.3158 H   0  0  0  0  0  0  0  0  0  0  0  0
   -3.6397    2.2702    1.7499 H   0  0  0  0  0  0  0  0  0  0  0  0
  1  2  1  0
  2  3  1  0
  2  4  1  0
  4  5  1  0
  5  6  1  0
  6  7  2  0
  6  8  1  0
  8  9  2  0
  9 10  1  0
 10 11  2  0
 11 12  1  0
 12 13  2  0
 13 14  1  0
 14 15  1  0
 15 16  1  0
 15 17  2  0
 17 18  1  0
 18 19  2  0
 19 20  1  0
 18 21  1  0
 21 22  1  0
 22 23  1  0
 23 24  1  0
 24 25  1  0
 13  8  1  0
 19 14  1  0
 25 21  1  0
 24 17  1  0
  1 26  1  0
  1 27  1  0
  1 28  1  0
  2 29  1  0
  3 30  1  0
  3 31  1  0
  3 32  1  0
  4 33  1  0
  4 34  1  0
  9 35  1  0
 10 36  1  0
 11 37  1  0
 12 38  1  0
 16 39  1  0
 20 40  1  0
 21 41  1  0
 22 42  1  0
 22 43  1  0
 23 44  1  0
 23 45  1  0
 24 46  1  0
 25 47  1  0
 25 48  1  0
M  END
$$$$
