
     RDKit          3D

 45 48  0  0  0  0  0  0  0  0999 V2000
   -4.8252   -0.4973    3.2565 C   0  0  0  0  0  0  0  0  0  0  0  0
   -3.9350    0.7303    3.2102 C   0  0  0  0  0  0  0  0  0  0  0  0
   -2.9490    0.5849    2.1779 O   0  0  0  0  0  0  0  0  0  0  0  0
   -1.8137   -0.0720    2.5309 C   0  0  0  0  0  0  0  0  0  0  0  0
   -1.5455   -0.4943    3.6458 O   0  0  0  0  0  0  0  0  0  0  0  0
   -0.9159   -0.1675    1.3553 C   0  0  0  0  0  0  0  0  0  0  0  0
   -1.5957   -0.6336    0.1254 C   0  0  0  0  0  0  0  0  0  0  0  0
   -2.3096   -1.6250    0.0764 O   0  0  0  0  0  0  0  0  0  0  0  0
   -1.4090    0.2738   -0.8716 O   0  0  0  0  0  0  0  0  0  0  0  0
   -2.0638   -0.0273   -2.1108 C   0  0  0  0  0  0  0  0  0  0  0  0
   -3.4743    0.5309   -2.1029 C   0  0  0  0  0  0  0  0  0  0  0  0
    0.3894    0.2143    1.4261 C   0  0  0  0  0  0  0  0  0  0  0  0
    0.8724    1.0205    2.6110 C   0  0  0  0  0  0  0  0  0  0  0  0
    1.9976    1.7793    2.5826 C   0  0  0  0  0  0  0  0  0  0  0  0
    2.5152    2.8151    4.0485 Br  0  0  0  0  0  0  0  0  0  0  0  0
    2.8286    1.7728    1.4147 C   0  0  0  0  0  0  0  0  0  0  0  0
    3.9642    2.4139    1.1153 N   0  0  0  0  0  0  0  0  0  0  0  0
    4.3688    1.8846   -0.1184 O   0  0  0  0  0  0  0  0  0  0  0  0
    3.4787    0.9268   -0.5204 C   0  0  0  0  0  0  0  0  0  0  0  0
    3.5271    0.0853   -1.6384 C   0  0  0  0  0  0  0  0  0  0  0  0
    4.5715    0.1823   -2.5763 C   0  0  0  0  0  0  0  0  0  0  0  0
    4.5949   -0.6868   -3.6619 C   0  0  0  0  0  0  0  0  0  0  0  0
    3.5893   -1.6402   -3.8101 C   0  0  0  0  0  0  0  0  0  0  0  0
    2.5546   -1.7383   -2.8696 C   0  0  0  0  0  0  0  0  0  0  0  0
    2.4926   -0.8837   -1.7461 C   0  0  0  0  0  0  0  0  0  0  0  0
    1.4718   -0.9344   -0.7442 C   0  0  0  0  0  0  0  0  0  0  0  0
    0.5781   -1.9757   -0.7349 O   0  0  0  0  0  0  0  0  0  0  0  0
    1.3715    0.0104    0.2955 C   0  0  0  0  0  0  0  0  0  0  0  0
    2.4608    0.8803    0.3946 C   0  0  0  0  0  0  0  0  0  0  0  0
   -5.2814   -0.6783    2.2776 H   0  0  0  0  0  0  0  0  0  0  0  0
   -5.6186   -0.3735    3.9988 H   0  0  0  0  0  0  0  0  0  0  0  0
   -4.2472   -1.3921    3.5083 H   0  0  0  0  0  0  0  0  0  0  0  0
   -3.4686    0.9255    4.1826 H   0  0  0  0  0  0  0  0  0  0  0  0
   -4.5347    1.6110    2.9581 H   0  0  0  0  0  0  0  0  0  0  0  0
   -2.0596   -1.1044   -2.3140 H   0  0  0  0  0  0  0  0  0  0  0  0
   -1.4818    0.4515   -2.9050 H   0  0  0  0  0  0  0  0  0  0  0  0
   -3.4604    1.6073   -1.9023 H   0  0  0  0  0  0  0  0  0  0  0  0
   -4.0757    0.0683   -1.3140 H   0  0  0  0  0  0  0  0  0  0  0  0
   -3.9657    0.3572   -3.0643 H   0  0  0  0  0  0  0  0  0  0  0  0
    0.2663    1.0441    3.5124 H   0  0  0  0  0  0  0  0  0  0  0  0
    5.3575    0.9258   -2.4637 H   0  0  0  0  0  0  0  0  0  0  0  0
    5.3943   -0.6194   -4.3959 H   0  0  0  0  0  0  0  0  0  0  0  0
    3.6049   -2.3103   -4.6672 H   0  0  0  0  0  0  0  0  0  0  0  0
    1.7807   -2.4804   -3.0510 H   0  0  0  0  0  0  0  0  0  0  0  0
    0.9997   -2.7614   -1.1215 H   0  0  0  0  0  0  0  0  0  0  0  0
  1  2  1  0
  2  3  1  0
  3  4  1  0
  4  5  2  0
  4  6  1  0
  6  7  1  0
  7  8  2  0
  7  9  1  0
  9 10  1  0
 10 11  1  0
  6 12  2  3
 12 13  1  0
 13 14  2  0
 14 15  1  0
 14 16  1  0
 16 17  2  0
 17 18  1  0
 18 19  1  0
 19 20  1  0
 20 21  2  0
 21 22  1  0
 22 23  2  0
 23 24  1  0
 24 25  2  0
 25 26  1  0
 26 27  1  0
 26 28  2  0
 28 29  1  0
 28 12  1  0
 29 16  1  0
 29 19  2  0
 25 20  1  0
  1 30  1  0
  1 31  1  0
  1 32  1  0
  2 33  1  0
  2 34  1  0
 10 35  1  0
 10 36  1  0
 11 37  1  0
 11 38  1  0
 11 39  1  0
 13 40  1  0
 21 41  1  0
 22 42  1  0
 23 43  1  0
 24 44  1  0
 27 45  1  0
M  END
$$$$
