
     RDKit          3D

 46 47  0  0  0  0  0  0  0  0999 V2000
    0.1877   -1.7735    4.7192 C   0  0  0  0  0  0  0  0  0  0  0  0
    1.3886   -0.7841    3.7941 S   0  0  0  0  0  0  0  0  0  0  0  0
    0.3494    0.6721    3.4131 C   0  0  0  0  0  0  0  0  0  0  0  0
   -0.6529    0.4201    2.2839 C   0  0  0  0  0  0  0  0  0  0  0  0
   -0.0007    0.2876    0.8936 C   0  0  0  0  0  0  0  0  0  0  0  0
   -0.8807   -0.4367   -0.0365 N   0  0  0  0  0  0  0  0  0  0  0  0
   -2.1197    0.0313   -0.4074 C   0  0  0  0  0  0  0  0  0  0  0  0
   -2.5338    1.1406   -0.0902 O   0  0  0  0  0  0  0  0  0  0  0  0
   -3.0078   -0.8887   -1.1766 C   0  0  0  0  0  0  0  0  0  0  0  0
   -4.3909   -0.6975   -0.9945 C   0  0  0  0  0  0  0  0  0  0  0  0
   -5.3229   -1.5025   -1.6521 C   0  0  0  0  0  0  0  0  0  0  0  0
   -4.8868   -2.5080   -2.5075 C   0  0  0  0  0  0  0  0  0  0  0  0
   -3.5202   -2.7017   -2.7097 C   0  0  0  0  0  0  0  0  0  0  0  0
   -2.5783   -1.8957   -2.0531 C   0  0  0  0  0  0  0  0  0  0  0  0
   -0.9192   -2.2071   -2.4269 Cl  0  0  0  0  0  0  0  0  0  0  0  0
    0.4657    1.6604    0.3223 C   0  0  0  0  0  0  0  0  0  0  0  0
    0.3767    2.6878    1.0042 O   0  0  0  0  0  0  0  0  0  0  0  0
    1.0523    1.6981   -0.9442 N   0  0  0  0  0  0  0  0  0  0  0  0
    1.3692    3.0108   -1.4856 C   0  0  0  0  0  0  0  0  0  0  0  0
    1.6638    0.5457   -1.6044 C   0  0  0  0  0  0  0  0  0  0  0  0
    3.1577    0.5647   -1.4409 C   0  0  0  0  0  0  0  0  0  0  0  0
    4.1114    0.9838   -2.3500 C   0  0  0  0  0  0  0  0  0  0  0  0
    5.4379    0.8507   -1.8476 C   0  0  0  0  0  0  0  0  0  0  0  0
    5.4560    0.3271   -0.5749 C   0  0  0  0  0  0  0  0  0  0  0  0
    3.8835   -0.0052    0.0051 S   0  0  0  0  0  0  0  0  0  0  0  0
    0.6836   -2.6711    5.0984 H   0  0  0  0  0  0  0  0  0  0  0  0
   -0.6374   -2.0855    4.0750 H   0  0  0  0  0  0  0  0  0  0  0  0
   -0.1998   -1.2081    5.5706 H   0  0  0  0  0  0  0  0  0  0  0  0
   -0.1814    0.9641    4.3255 H   0  0  0  0  0  0  0  0  0  0  0  0
    1.0223    1.4972    3.1630 H   0  0  0  0  0  0  0  0  0  0  0  0
   -1.2479   -0.4737    2.5079 H   0  0  0  0  0  0  0  0  0  0  0  0
   -1.3666    1.2539    2.2760 H   0  0  0  0  0  0  0  0  0  0  0  0
    0.8915   -0.3393    0.9809 H   0  0  0  0  0  0  0  0  0  0  0  0
   -0.6547   -1.4054   -0.2241 H   0  0  0  0  0  0  0  0  0  0  0  0
   -4.7495    0.0883   -0.3297 H   0  0  0  0  0  0  0  0  0  0  0  0
   -6.3870   -1.3389   -1.4961 H   0  0  0  0  0  0  0  0  0  0  0  0
   -5.6092   -3.1356   -3.0244 H   0  0  0  0  0  0  0  0  0  0  0  0
   -3.1938   -3.4831   -3.3930 H   0  0  0  0  0  0  0  0  0  0  0  0
    2.3602    3.3164   -1.1375 H   0  0  0  0  0  0  0  0  0  0  0  0
    0.6377    3.7546   -1.1549 H   0  0  0  0  0  0  0  0  0  0  0  0
    1.3505    2.9723   -2.5787 H   0  0  0  0  0  0  0  0  0  0  0  0
    1.2799   -0.4000   -1.2236 H   0  0  0  0  0  0  0  0  0  0  0  0
    1.3958    0.5903   -2.6667 H   0  0  0  0  0  0  0  0  0  0  0  0
    3.8688    1.3757   -3.3306 H   0  0  0  0  0  0  0  0  0  0  0  0
    6.3335    1.1263   -2.3908 H   0  0  0  0  0  0  0  0  0  0  0  0
    6.3175    0.1217    0.0457 H   0  0  0  0  0  0  0  0  0  0  0  0
  1  2  1  0
  2  3  1  0
  3  4  1  0
  4  5  1  0
  5  6  1  0
  6  7  1  0
  7  8  2  0
  7  9  1  0
  9 10  2  0
 10 11  1  0
 11 12  2  0
 12 13  1  0
 13 14  2  0
 14 15  1  0
  5 16  1  0
 16 17  2  0
 16 18  1  0
 18 19  1  0
 18 20  1  0
 20 21  1  0
 21 22  2  0
 22 23  1  0
 23 24  2  0
 24 25  1  0
 14  9  1  0
 25 21  1  0
  1 26  1  0
  1 27  1  0
  1 28  1  0
  3 29  1  0
  3 30  1  0
  4 31  1  0
  4 32  1  0
  5 33  1  0
  6 34  1  0
 10 35  1  0
 11 36  1  0
 12 37  1  0
 13 38  1  0
 19 39  1  0
 19 40  1  0
 19 41  1  0
 20 42  1  0
 20 43  1  0
 22 44  1  0
 23 45  1  0
 24 46  1  0
M  END
$$$$
