
     RDKit          3D

 53 56  0  0  0  0  0  0  0  0999 V2000
   -5.8015    2.4082    1.2871 C   0  0  0  0  0  0  0  0  0  0  0  0
   -5.7557    1.1137    0.4466 C   0  0  0  0  0  0  0  0  0  0  0  0
   -6.7052    0.0688    1.0713 C   0  0  0  0  0  0  0  0  0  0  0  0
   -6.3126    1.4589   -0.9531 C   0  0  0  0  0  0  0  0  0  0  0  0
   -4.3204    0.5608    0.4256 C   0  0  0  0  0  0  0  0  0  0  0  0
   -3.6809    0.2086    1.6257 C   0  0  0  0  0  0  0  0  0  0  0  0
   -2.3755   -0.2978    1.6391 C   0  0  0  0  0  0  0  0  0  0  0  0
   -1.6531   -0.4649    0.4487 C   0  0  0  0  0  0  0  0  0  0  0  0
   -0.3216   -0.9832    0.5178 N   0  0  0  0  0  0  0  0  0  0  0  0
    0.1329   -1.4692    1.7130 N   0  0  0  0  0  0  0  0  0  0  0  0
    1.3471   -1.9535    1.4670 C   0  0  0  0  0  0  0  0  0  0  0  0
    1.7390   -1.7513    0.1418 C   0  0  0  0  0  0  0  0  0  0  0  0
    0.6689   -1.1021   -0.4508 C   0  0  0  0  0  0  0  0  0  0  0  0
    0.6534   -0.6495   -1.8710 C   0  0  0  0  0  0  0  0  0  0  0  0
    2.0708   -0.6944   -2.4767 C   0  0  0  0  0  0  0  0  0  0  0  0
    2.8408   -1.9686   -2.0807 C   0  0  0  0  0  0  0  0  0  0  0  0
    3.0151   -2.0874   -0.5491 C   0  0  0  0  0  0  0  0  0  0  0  0
    4.0193   -1.1672   -0.0620 N   0  0  0  0  0  0  0  0  0  0  0  0
    5.3690   -1.4165   -0.1662 C   0  0  0  0  0  0  0  0  0  0  0  0
    5.8428   -2.4608   -0.5967 O   0  0  0  0  0  0  0  0  0  0  0  0
    6.2387   -0.2947    0.2842 C   0  0  0  0  0  0  0  0  0  0  0  0
    7.6183   -0.4316    0.2661 C   0  0  0  0  0  0  0  0  0  0  0  0
    8.4479    0.5666    0.6665 N   0  0  0  0  0  0  0  0  0  0  0  0
    7.8331    1.6983    1.0834 C   0  0  0  0  0  0  0  0  0  0  0  0
    6.4526    1.8347    1.0995 C   0  0  0  0  0  0  0  0  0  0  0  0
    5.6166    0.8481    0.7001 N   0  0  0  0  0  0  0  0  0  0  0  0
   -2.2823   -0.1326   -0.7512 C   0  0  0  0  0  0  0  0  0  0  0  0
   -3.5930    0.3744   -0.7591 C   0  0  0  0  0  0  0  0  0  0  0  0
   -5.1135    3.1627    0.8873 H   0  0  0  0  0  0  0  0  0  0  0  0
   -5.5261    2.2335    2.3330 H   0  0  0  0  0  0  0  0  0  0  0  0
   -6.8081    2.8426    1.2895 H   0  0  0  0  0  0  0  0  0  0  0  0
   -7.7422    0.4246    1.0673 H   0  0  0  0  0  0  0  0  0  0  0  0
   -6.6742   -0.8752    0.5144 H   0  0  0  0  0  0  0  0  0  0  0  0
   -6.4476   -0.1551    2.1124 H   0  0  0  0  0  0  0  0  0  0  0  0
   -5.7054    2.2233   -1.4517 H   0  0  0  0  0  0  0  0  0  0  0  0
   -7.3342    1.8521   -0.8859 H   0  0  0  0  0  0  0  0  0  0  0  0
   -6.3503    0.5757   -1.6015 H   0  0  0  0  0  0  0  0  0  0  0  0
   -4.1906    0.3211    2.5805 H   0  0  0  0  0  0  0  0  0  0  0  0
   -1.9339   -0.5514    2.6020 H   0  0  0  0  0  0  0  0  0  0  0  0
    1.9017   -2.4169    2.2733 H   0  0  0  0  0  0  0  0  0  0  0  0
    0.0064   -1.3153   -2.4538 H   0  0  0  0  0  0  0  0  0  0  0  0
    0.2779    0.3751   -1.9573 H   0  0  0  0  0  0  0  0  0  0  0  0
    1.9988   -0.6282   -3.5684 H   0  0  0  0  0  0  0  0  0  0  0  0
    2.6365    0.1859   -2.1451 H   0  0  0  0  0  0  0  0  0  0  0  0
    3.8148   -1.9791   -2.5834 H   0  0  0  0  0  0  0  0  0  0  0  0
    2.2815   -2.8392   -2.4480 H   0  0  0  0  0  0  0  0  0  0  0  0
    3.3303   -3.1080   -0.3023 H   0  0  0  0  0  0  0  0  0  0  0  0
    3.7492   -0.2333    0.2377 H   0  0  0  0  0  0  0  0  0  0  0  0
    8.0992   -1.3445   -0.0689 H   0  0  0  0  0  0  0  0  0  0  0  0
    8.4860    2.5014    1.4075 H   0  0  0  0  0  0  0  0  0  0  0  0
    5.9814    2.7511    1.4382 H   0  0  0  0  0  0  0  0  0  0  0  0
   -1.8159   -0.2748   -1.7159 H   0  0  0  0  0  0  0  0  0  0  0  0
   -4.0262    0.6102   -1.7279 H   0  0  0  0  0  0  0  0  0  0  0  0
  1  2  1  0
  2  3  1  0
  2  4  1  0
  2  5  1  0
  5  6  2  0
  6  7  1  0
  7  8  2  0
  8  9  1  0
  9 10  1  0
 10 11  2  0
 11 12  1  0
 12 13  2  0
 13 14  1  0
 14 15  1  0
 15 16  1  0
 16 17  1  0
 17 18  1  0
 18 19  1  0
 19 20  2  0
 19 21  1  0
 21 22  2  0
 22 23  1  0
 23 24  2  0
 24 25  1  0
 25 26  2  0
  8 27  1  0
 27 28  2  0
 28  5  1  0
 13  9  1  0
 26 21  1  0
 17 12  1  0
  1 29  1  0
  1 30  1  0
  1 31  1  0
  3 32  1  0
  3 33  1  0
  3 34  1  0
  4 35  1  0
  4 36  1  0
  4 37  1  0
  6 38  1  0
  7 39  1  0
 11 40  1  0
 14 41  1  0
 14 42  1  0
 15 43  1  0
 15 44  1  0
 16 45  1  0
 16 46  1  0
 17 47  1  0
 18 48  1  0
 22 49  1  0
 24 50  1  0
 25 51  1  0
 27 52  1  0
 28 53  1  0
M  END
$$$$
