
     RDKit          3D

 48 50  0  0  0  0  0  0  0  0999 V2000
    5.4311    2.9296    0.6056 C   0  0  0  0  0  0  0  0  0  0  0  0
    4.9182    1.7885    1.2800 O   0  0  0  0  0  0  0  0  0  0  0  0
    4.1358    0.9349    0.5519 C   0  0  0  0  0  0  0  0  0  0  0  0
    3.7825   -0.2430    1.2183 C   0  0  0  0  0  0  0  0  0  0  0  0
    2.9956   -1.2094    0.5877 C   0  0  0  0  0  0  0  0  0  0  0  0
    2.5430   -1.0064   -0.7226 C   0  0  0  0  0  0  0  0  0  0  0  0
    1.6800   -2.0468   -1.3988 C   0  0  0  0  0  0  0  0  0  0  0  0
    0.3181   -2.2582   -0.7451 C   0  0  0  0  0  0  0  0  0  0  0  0
   -0.1205   -3.3948   -0.5909 O   0  0  0  0  0  0  0  0  0  0  0  0
   -0.3380   -1.0746   -0.4404 N   0  0  0  0  0  0  0  0  0  0  0  0
   -1.6124   -0.9816    0.0957 C   0  0  0  0  0  0  0  0  0  0  0  0
   -2.5391   -1.9395    0.4514 C   0  0  0  0  0  0  0  0  0  0  0  0
   -3.6548   -1.2407    0.9019 C   0  0  0  0  0  0  0  0  0  0  0  0
   -3.4928    0.0741    0.8842 N   0  0  0  0  0  0  0  0  0  0  0  0
   -2.2351    0.2413    0.3883 N   0  0  0  0  0  0  0  0  0  0  0  0
   -1.7255    1.6234    0.2200 C   0  0  0  0  0  0  0  0  0  0  0  0
   -2.7730    2.6810    0.6698 C   0  0  0  0  0  0  0  0  0  0  0  0
   -1.4230    1.9139   -1.2652 C   0  0  0  0  0  0  0  0  0  0  0  0
   -0.4731    1.8529    1.0929 C   0  0  0  0  0  0  0  0  0  0  0  0
   -4.8351   -1.9956    1.3423 C   0  0  0  0  0  0  0  0  0  0  0  0
   -4.2674   -3.7659    1.3609 S   0  0  0  0  0  3  0  0  0  0  0  0
   -5.2414   -4.6230    0.3175 O   0  0  0  0  0  1  0  0  0  0  0  0
   -2.6524   -3.4055    0.4755 C   0  0  0  0  0  0  0  0  0  0  0  0
    2.8942    0.1788   -1.3883 C   0  0  0  0  0  0  0  0  0  0  0  0
    3.6812    1.1462   -0.7509 C   0  0  0  0  0  0  0  0  0  0  0  0
    5.9925    2.6459   -0.2899 H   0  0  0  0  0  0  0  0  0  0  0  0
    4.6269    3.6312    0.3660 H   0  0  0  0  0  0  0  0  0  0  0  0
    6.1271    3.4304    1.2874 H   0  0  0  0  0  0  0  0  0  0  0  0
    4.1347   -0.4146    2.2346 H   0  0  0  0  0  0  0  0  0  0  0  0
    2.7463   -2.1215    1.1247 H   0  0  0  0  0  0  0  0  0  0  0  0
    1.5053   -1.7838   -2.4502 H   0  0  0  0  0  0  0  0  0  0  0  0
    2.2201   -3.0010   -1.3962 H   0  0  0  0  0  0  0  0  0  0  0  0
    0.1867   -0.2234   -0.5843 H   0  0  0  0  0  0  0  0  0  0  0  0
   -3.6951    2.6096    0.0804 H   0  0  0  0  0  0  0  0  0  0  0  0
   -3.0374    2.5606    1.7284 H   0  0  0  0  0  0  0  0  0  0  0  0
   -2.3868    3.7004    0.5452 H   0  0  0  0  0  0  0  0  0  0  0  0
   -2.3125    1.7535   -1.8844 H   0  0  0  0  0  0  0  0  0  0  0  0
   -0.6305    1.2839   -1.6724 H   0  0  0  0  0  0  0  0  0  0  0  0
   -1.1020    2.9525   -1.4046 H   0  0  0  0  0  0  0  0  0  0  0  0
   -0.6849    1.6445    2.1511 H   0  0  0  0  0  0  0  0  0  0  0  0
   -0.1324    2.8955    1.0193 H   0  0  0  0  0  0  0  0  0  0  0  0
    0.3719    1.2212    0.8024 H   0  0  0  0  0  0  0  0  0  0  0  0
   -5.1554   -1.7360    2.3546 H   0  0  0  0  0  0  0  0  0  0  0  0
   -5.6670   -1.9103    0.6389 H   0  0  0  0  0  0  0  0  0  0  0  0
   -2.7224   -3.8398   -0.5231 H   0  0  0  0  0  0  0  0  0  0  0  0
   -1.8734   -3.8873    1.0690 H   0  0  0  0  0  0  0  0  0  0  0  0
    2.5662    0.3587   -2.4116 H   0  0  0  0  0  0  0  0  0  0  0  0
    3.9264    2.0503   -1.2986 H   0  0  0  0  0  0  0  0  0  0  0  0
  1  2  1  0
  2  3  1  0
  3  4  2  0
  4  5  1  0
  5  6  2  0
  6  7  1  0
  7  8  1  0
  8  9  2  0
  8 10  1  0
 10 11  1  0
 11 12  2  0
 12 13  1  0
 13 14  2  0
 14 15  1  0
 15 16  1  0
 16 17  1  0
 16 18  1  0
 16 19  1  0
 13 20  1  0
 20 21  1  0
 21 22  1  0
 21 23  1  0
  6 24  1  0
 24 25  2  0
 25  3  1  0
 15 11  1  0
 23 12  1  0
  1 26  1  0
  1 27  1  0
  1 28  1  0
  4 29  1  0
  5 30  1  0
  7 31  1  0
  7 32  1  0
 10 33  1  0
 17 34  1  0
 17 35  1  0
 17 36  1  0
 18 37  1  0
 18 38  1  0
 18 39  1  0
 19 40  1  0
 19 41  1  0
 19 42  1  0
 20 43  1  0
 20 44  1  0
 23 45  1  0
 23 46  1  0
 24 47  1  0
 25 48  1  0
M  CHG  2  21   1  22  -1
M  END
$$$$
