
     RDKit          3D

 51 54  0  0  0  0  0  0  0  0999 V2000
   -4.6784    1.9605    1.5984 C   0  0  0  0  0  0  0  0  0  0  0  0
   -3.7571    1.0136    1.0762 O   0  0  0  0  0  0  0  0  0  0  0  0
   -4.2081    0.1440    0.1175 C   0  0  0  0  0  0  0  0  0  0  0  0
   -5.5379    0.0791   -0.3184 C   0  0  0  0  0  0  0  0  0  0  0  0
   -5.9216   -0.8328   -1.3035 C   0  0  0  0  0  0  0  0  0  0  0  0
   -4.9808   -1.6874   -1.8643 C   0  0  0  0  0  0  0  0  0  0  0  0
   -3.6552   -1.6342   -1.4368 C   0  0  0  0  0  0  0  0  0  0  0  0
   -3.2475   -0.7272   -0.4387 C   0  0  0  0  0  0  0  0  0  0  0  0
   -1.7878   -0.6917    0.0035 C   0  0  0  0  0  0  0  0  0  0  0  0
   -0.8662   -0.1308   -1.0984 C   0  0  0  0  0  0  0  0  0  0  0  0
    0.5455   -0.7320   -1.0629 C   0  0  0  0  0  0  0  0  0  0  0  0
    0.9763   -0.9336    0.3198 N   0  0  0  0  0  0  0  0  0  0  0  0
    2.4058   -1.2476    0.4466 C   0  0  0  0  0  0  0  0  0  0  0  0
    3.2552   -0.0588    0.0981 C   0  0  0  0  0  0  0  0  0  0  0  0
    4.1584    0.0419   -0.9528 C   0  0  0  0  0  0  0  0  0  0  0  0
    4.5247   -0.9326   -2.0118 C   0  0  0  0  0  0  0  0  0  0  0  0
    4.7352    1.2860   -0.8910 N   0  0  0  0  0  0  0  0  0  0  0  0
    4.2415    1.9994    0.1739 C   0  0  0  0  0  0  0  0  0  0  0  0
    4.5476    3.2932    0.6137 C   0  0  0  0  0  0  0  0  0  0  0  0
    3.8736    3.7709    1.7415 C   0  0  0  0  0  0  0  0  0  0  0  0
    2.9306    2.9852    2.3990 C   0  0  0  0  0  0  0  0  0  0  0  0
    2.6389    1.6940    1.9449 C   0  0  0  0  0  0  0  0  0  0  0  0
    3.3072    1.1859    0.8115 C   0  0  0  0  0  0  0  0  0  0  0  0
    0.1630   -1.9512    1.0033 C   0  0  0  0  0  0  0  0  0  0  0  0
   -1.2776   -2.0563    0.4841 C   0  0  0  0  0  0  0  0  0  0  0  0
   -5.4890    1.4634    2.1411 H   0  0  0  0  0  0  0  0  0  0  0  0
   -4.1400    2.5915    2.3122 H   0  0  0  0  0  0  0  0  0  0  0  0
   -5.0689    2.6113    0.8091 H   0  0  0  0  0  0  0  0  0  0  0  0
   -6.3050    0.7273    0.0913 H   0  0  0  0  0  0  0  0  0  0  0  0
   -6.9564   -0.8717   -1.6333 H   0  0  0  0  0  0  0  0  0  0  0  0
   -5.2759   -2.3941   -2.6351 H   0  0  0  0  0  0  0  0  0  0  0  0
   -2.9344   -2.3057   -1.8972 H   0  0  0  0  0  0  0  0  0  0  0  0
   -1.6932   -0.0206    0.8673 H   0  0  0  0  0  0  0  0  0  0  0  0
   -0.8059    0.9590   -0.9747 H   0  0  0  0  0  0  0  0  0  0  0  0
   -1.2796   -0.2948   -2.1010 H   0  0  0  0  0  0  0  0  0  0  0  0
    0.5689   -1.6793   -1.6176 H   0  0  0  0  0  0  0  0  0  0  0  0
    1.2033   -0.0403   -1.6009 H   0  0  0  0  0  0  0  0  0  0  0  0
    2.6713   -2.1158   -0.1695 H   0  0  0  0  0  0  0  0  0  0  0  0
    2.6384   -1.5147    1.4864 H   0  0  0  0  0  0  0  0  0  0  0  0
    5.0013   -1.8128   -1.5691 H   0  0  0  0  0  0  0  0  0  0  0  0
    3.6320   -1.2593   -2.5547 H   0  0  0  0  0  0  0  0  0  0  0  0
    5.2202   -0.4993   -2.7377 H   0  0  0  0  0  0  0  0  0  0  0  0
    5.4300    1.6378   -1.5340 H   0  0  0  0  0  0  0  0  0  0  0  0
    5.2785    3.9091    0.1008 H   0  0  0  0  0  0  0  0  0  0  0  0
    4.0862    4.7725    2.1074 H   0  0  0  0  0  0  0  0  0  0  0  0
    2.4107    3.3758    3.2697 H   0  0  0  0  0  0  0  0  0  0  0  0
    1.8931    1.0900    2.4535 H   0  0  0  0  0  0  0  0  0  0  0  0
    0.1394   -1.7017    2.0711 H   0  0  0  0  0  0  0  0  0  0  0  0
    0.6166   -2.9478    0.9205 H   0  0  0  0  0  0  0  0  0  0  0  0
   -1.3035   -2.7858   -0.3355 H   0  0  0  0  0  0  0  0  0  0  0  0
   -1.9235   -2.4547    1.2763 H   0  0  0  0  0  0  0  0  0  0  0  0
  1  2  1  0
  2  3  1  0
  3  4  2  0
  4  5  1  0
  5  6  2  0
  6  7  1  0
  7  8  2  0
  8  9  1  0
  9 10  1  0
 10 11  1  0
 11 12  1  0
 12 13  1  0
 13 14  1  0
 14 15  2  0
 15 16  1  0
 15 17  1  0
 17 18  1  0
 18 19  2  0
 19 20  1  0
 20 21  2  0
 21 22  1  0
 22 23  2  0
 12 24  1  0
 24 25  1  0
  8  3  1  0
 25  9  1  0
 23 14  1  0
 23 18  1  0
  1 26  1  0
  1 27  1  0
  1 28  1  0
  4 29  1  0
  5 30  1  0
  6 31  1  0
  7 32  1  0
  9 33  1  0
 10 34  1  0
 10 35  1  0
 11 36  1  0
 11 37  1  0
 13 38  1  0
 13 39  1  0
 16 40  1  0
 16 41  1  0
 16 42  1  0
 17 43  1  0
 19 44  1  0
 20 45  1  0
 21 46  1  0
 22 47  1  0
 24 48  1  0
 24 49  1  0
 25 50  1  0
 25 51  1  0
M  END
$$$$
