
     RDKit          3D

 55 59  0  0  0  0  0  0  0  0999 V2000
   -1.9958    1.6777   -1.8427 C   0  0  0  0  0  0  0  0  0  0  0  0
   -2.6488    0.6031   -1.0191 C   0  0  0  0  0  0  0  0  0  0  0  0
   -3.9205    0.1079   -1.3134 C   0  0  0  0  0  0  0  0  0  0  0  0
   -4.7634    0.6009   -2.4140 C   0  0  0  0  0  0  0  0  0  0  0  0
   -5.1593   -0.2649   -3.4503 C   0  0  0  0  0  0  0  0  0  0  0  0
   -5.9709    0.1852   -4.4954 C   0  0  0  0  0  0  0  0  0  0  0  0
   -6.4059    1.5107   -4.5169 C   0  0  0  0  0  0  0  0  0  0  0  0
   -6.0294    2.3764   -3.4921 C   0  0  0  0  0  0  0  0  0  0  0  0
   -6.5688    4.0106   -3.5142 Cl  0  0  0  0  0  0  0  0  0  0  0  0
   -5.2205    1.9303   -2.4457 C   0  0  0  0  0  0  0  0  0  0  0  0
   -4.5051   -0.8864   -0.5944 N   0  0  0  0  0  0  0  0  0  0  0  0
   -3.8801   -1.3965    0.4763 C   0  0  0  0  0  0  0  0  0  0  0  0
   -4.5165   -2.3983    1.1940 C   0  0  0  0  0  0  0  0  0  0  0  0
   -3.9441   -2.9703    2.3314 C   0  0  0  0  0  0  0  0  0  0  0  0
   -2.7044   -2.5337    2.7701 C   0  0  0  0  0  0  0  0  0  0  0  0
   -2.0433   -1.5316    2.0632 C   0  0  0  0  0  0  0  0  0  0  0  0
   -2.6192   -0.9514    0.9030 C   0  0  0  0  0  0  0  0  0  0  0  0
   -2.0203    0.0620    0.1170 C   0  0  0  0  0  0  0  0  0  0  0  0
   -0.7059    0.5864    0.5128 C   0  0  0  0  0  0  0  0  0  0  0  0
   -0.5405    1.5840    1.1816 O   0  0  0  0  0  0  0  0  0  0  0  0
    0.2450   -0.2005   -0.0285 O   0  0  0  0  0  0  0  0  0  0  0  0
    1.5753    0.2528    0.2146 C   0  0  0  0  0  0  0  0  0  0  0  0
    2.5534   -0.4957   -0.6926 C   0  0  0  0  0  0  0  0  0  0  0  0
    2.3116   -1.6294   -1.1173 O   0  0  0  0  0  0  0  0  0  0  0  0
    3.8403    0.2357   -1.0224 C   0  0  0  0  0  0  0  0  0  0  0  0
    4.4930   -0.3099   -2.2158 C   0  0  0  0  0  0  0  0  0  0  0  0
    5.0786   -0.7034   -3.1367 N   0  0  0  0  0  0  0  0  0  0  0  0
    4.7237    0.1883    0.1833 C   0  0  0  0  0  0  0  0  0  0  0  0
    4.5258    0.8830    1.2876 N   0  0  0  0  0  0  0  0  0  0  0  0
    5.5620    0.5649    2.1277 C   0  0  0  0  0  0  0  0  0  0  0  0
    5.8386    1.0192    3.4253 C   0  0  0  0  0  0  0  0  0  0  0  0
    6.9803    0.5257    4.0759 C   0  0  0  0  0  0  0  0  0  0  0  0
    7.8241   -0.3955    3.4457 C   0  0  0  0  0  0  0  0  0  0  0  0
    7.5634   -0.8555    2.1488 C   0  0  0  0  0  0  0  0  0  0  0  0
    6.4168   -0.3526    1.5267 C   0  0  0  0  0  0  0  0  0  0  0  0
    5.8641   -0.5840    0.2932 N   0  0  0  0  0  0  0  0  0  0  0  0
   -2.3244    1.6425   -2.8848 H   0  0  0  0  0  0  0  0  0  0  0  0
   -0.9069    1.5554   -1.8777 H   0  0  0  0  0  0  0  0  0  0  0  0
   -2.2269    2.6645   -1.4284 H   0  0  0  0  0  0  0  0  0  0  0  0
   -4.8368   -1.3074   -3.4367 H   0  0  0  0  0  0  0  0  0  0  0  0
   -6.2709   -0.5011   -5.2840 H   0  0  0  0  0  0  0  0  0  0  0  0
   -7.0411    1.8581   -5.3279 H   0  0  0  0  0  0  0  0  0  0  0  0
   -4.9569    2.6160   -1.6430 H   0  0  0  0  0  0  0  0  0  0  0  0
   -5.4918   -2.7439    0.8569 H   0  0  0  0  0  0  0  0  0  0  0  0
   -4.4715   -3.7518    2.8678 H   0  0  0  0  0  0  0  0  0  0  0  0
   -2.2497   -2.9695    3.6562 H   0  0  0  0  0  0  0  0  0  0  0  0
   -1.0708   -1.2049    2.4264 H   0  0  0  0  0  0  0  0  0  0  0  0
    1.6479    1.3235   -0.0075 H   0  0  0  0  0  0  0  0  0  0  0  0
    1.8431    0.0553    1.2578 H   0  0  0  0  0  0  0  0  0  0  0  0
    3.5851    1.2818   -1.2324 H   0  0  0  0  0  0  0  0  0  0  0  0
    5.1728    1.7269    3.9127 H   0  0  0  0  0  0  0  0  0  0  0  0
    7.2051    0.8634    5.0858 H   0  0  0  0  0  0  0  0  0  0  0  0
    8.7006   -0.7679    3.9744 H   0  0  0  0  0  0  0  0  0  0  0  0
    8.2213   -1.5707    1.6619 H   0  0  0  0  0  0  0  0  0  0  0  0
    6.2383   -1.2157   -0.4042 H   0  0  0  0  0  0  0  0  0  0  0  0
  1  2  1  0
  2  3  2  0
  3  4  1  0
  4  5  2  0
  5  6  1  0
  6  7  2  0
  7  8  1  0
  8  9  1  0
  8 10  2  0
  3 11  1  0
 11 12  2  0
 12 13  1  0
 13 14  2  0
 14 15  1  0
 15 16  2  0
 16 17  1  0
 17 18  2  0
 18 19  1  0
 19 20  2  0
 19 21  1  0
 21 22  1  0
 22 23  1  0
 23 24  2  0
 23 25  1  0
 25 26  1  0
 26 27  3  0
 25 28  1  0
 28 29  2  0
 29 30  1  0
 30 31  2  0
 31 32  1  0
 32 33  2  0
 33 34  1  0
 34 35  2  0
 35 36  1  0
 18  2  1  0
 36 28  1  0
 10  4  1  0
 17 12  1  0
 35 30  1  0
  1 37  1  0
  1 38  1  0
  1 39  1  0
  5 40  1  0
  6 41  1  0
  7 42  1  0
 10 43  1  0
 13 44  1  0
 14 45  1  0
 15 46  1  0
 16 47  1  0
 22 48  1  0
 22 49  1  0
 25 50  1  0
 31 51  1  0
 32 52  1  0
 33 53  1  0
 34 54  1  0
 36 55  1  0
M  END
$$$$
