
     RDKit          3D

 47 50  0  0  0  0  0  0  0  0999 V2000
   -3.0264    0.1972    2.9079 O   0  0  0  0  0  0  0  0  0  0  0  0
   -3.6073    0.2644    1.8183 C   0  0  0  0  0  0  0  0  0  0  0  0
   -5.1393    0.5290    1.7321 C   0  0  0  0  0  0  0  0  0  0  0  0
   -6.0706   -0.7075    1.5818 C   0  0  0  0  0  0  0  0  0  0  0  0
   -7.0881    0.0266    2.4735 C   0  0  0  0  0  0  0  0  0  0  0  0
   -5.8999    0.8071    3.0633 C   0  0  0  0  0  0  0  0  0  0  0  0
   -2.9521    0.1184    0.5986 N   0  0  0  0  0  0  0  0  0  0  0  0
   -3.5849    0.2124   -0.7269 C   0  0  0  0  0  0  0  0  0  0  0  0
   -2.5000   -0.0279   -1.7836 C   0  0  0  0  0  0  0  0  0  0  0  0
   -1.2808   -0.2238   -0.9429 C   0  0  0  0  0  0  0  0  0  0  0  0
    0.0099   -0.4719   -1.3891 C   0  0  0  0  0  0  0  0  0  0  0  0
    1.0102   -0.6388   -0.4275 C   0  0  0  0  0  0  0  0  0  0  0  0
    2.6855   -0.9608   -0.9336 S   0  0  0  0  0  6  0  0  0  0  0  0
    2.7389   -0.8467   -2.3744 O   0  0  0  0  0  0  0  0  0  0  0  0
    3.1192   -2.1341   -0.2129 O   0  0  0  0  0  0  0  0  0  0  0  0
    3.4619    0.4190   -0.3239 N   0  0  0  0  0  0  0  0  0  0  0  0
    4.8912    0.2116    0.0251 C   0  0  0  0  0  0  0  0  0  0  0  0
    5.8161    0.1527   -1.1711 C   0  0  0  0  0  0  0  0  0  0  0  0
    6.1859    1.3229   -1.8337 C   0  0  0  0  0  0  0  0  0  0  0  0
    7.0026    1.2297   -2.9574 C   0  0  0  0  0  0  0  0  0  0  0  0
    7.4196   -0.0215   -3.3941 C   0  0  0  0  0  0  0  0  0  0  0  0
    7.0037   -1.1334   -2.6829 C   0  0  0  0  0  0  0  0  0  0  0  0
    6.2191   -1.0716   -1.5856 N   0  0  0  0  0  0  0  0  0  0  0  0
    0.7190   -0.5667    0.9455 C   0  0  0  0  0  0  0  0  0  0  0  0
   -0.5883   -0.3125    1.3739 C   0  0  0  0  0  0  0  0  0  0  0  0
   -1.5799   -0.1408    0.4200 C   0  0  0  0  0  0  0  0  0  0  0  0
   -5.3760    1.3156    1.0009 H   0  0  0  0  0  0  0  0  0  0  0  0
   -5.6723   -1.6268    2.0270 H   0  0  0  0  0  0  0  0  0  0  0  0
   -6.4148   -0.9257    0.5675 H   0  0  0  0  0  0  0  0  0  0  0  0
   -7.6441   -0.5986    3.1761 H   0  0  0  0  0  0  0  0  0  0  0  0
   -7.7937    0.6521    1.9144 H   0  0  0  0  0  0  0  0  0  0  0  0
   -5.4644    0.3327    3.9502 H   0  0  0  0  0  0  0  0  0  0  0  0
   -6.0949    1.8599    3.2852 H   0  0  0  0  0  0  0  0  0  0  0  0
   -4.0305    1.2067   -0.8403 H   0  0  0  0  0  0  0  0  0  0  0  0
   -4.3838   -0.5326   -0.8010 H   0  0  0  0  0  0  0  0  0  0  0  0
   -2.7193   -0.9211   -2.3767 H   0  0  0  0  0  0  0  0  0  0  0  0
   -2.3946    0.8369   -2.4457 H   0  0  0  0  0  0  0  0  0  0  0  0
    0.2290   -0.5406   -2.4507 H   0  0  0  0  0  0  0  0  0  0  0  0
    3.3770    1.1487   -1.0329 H   0  0  0  0  0  0  0  0  0  0  0  0
    5.0124   -0.6774    0.6537 H   0  0  0  0  0  0  0  0  0  0  0  0
    5.1966    1.0554    0.6568 H   0  0  0  0  0  0  0  0  0  0  0  0
    5.8467    2.2934   -1.4868 H   0  0  0  0  0  0  0  0  0  0  0  0
    7.3065    2.1253   -3.4921 H   0  0  0  0  0  0  0  0  0  0  0  0
    8.0499   -0.1296   -4.2694 H   0  0  0  0  0  0  0  0  0  0  0  0
    7.2963   -2.1349   -2.9851 H   0  0  0  0  0  0  0  0  0  0  0  0
    1.5073   -0.7118    1.6815 H   0  0  0  0  0  0  0  0  0  0  0  0
   -0.7986   -0.2607    2.4369 H   0  0  0  0  0  0  0  0  0  0  0  0
  1  2  2  0
  2  3  1  0
  3  4  1  0
  4  5  1  0
  5  6  1  0
  2  7  1  0
  7  8  1  0
  8  9  1  0
  9 10  1  0
 10 11  2  0
 11 12  1  0
 12 13  1  0
 13 14  2  0
 13 15  2  0
 13 16  1  0
 16 17  1  0
 17 18  1  0
 18 19  2  0
 19 20  1  0
 20 21  2  0
 21 22  1  0
 22 23  2  0
 12 24  2  0
 24 25  1  0
 25 26  2  0
  6  3  1  0
 26  7  1  0
 26 10  1  0
 23 18  1  0
  3 27  1  0
  4 28  1  0
  4 29  1  0
  5 30  1  0
  5 31  1  0
  6 32  1  0
  6 33  1  0
  8 34  1  0
  8 35  1  0
  9 36  1  0
  9 37  1  0
 11 38  1  0
 16 39  1  0
 17 40  1  0
 17 41  1  0
 19 42  1  0
 20 43  1  0
 21 44  1  0
 22 45  1  0
 24 46  1  0
 25 47  1  0
M  END
$$$$
