
     RDKit          3D

 41 43  0  0  0  0  0  0  0  0999 V2000
   -4.0172   -2.3460    3.2021 C   0  0  0  0  0  0  0  0  0  0  0  0
   -3.1686   -2.3625    1.9402 C   0  0  0  0  0  0  0  0  0  0  0  0
   -2.5327   -1.0083    1.6115 C   0  0  0  0  0  0  0  0  0  0  0  0
   -1.5125   -0.5609    2.6592 C   0  0  0  0  0  0  0  0  0  0  0  0
   -0.7089    0.9994    2.1840 S   0  0  0  0  0  0  0  0  0  0  0  0
    0.3330    0.4746    0.8949 C   0  0  0  0  0  0  0  0  0  0  0  0
    0.7833   -0.7423    0.8707 N   0  0  0  0  0  0  0  0  0  0  0  0
    1.4727   -0.8369   -0.3163 C   0  0  0  0  0  0  0  0  0  0  0  0
    2.0777   -1.9717   -0.6976 C   0  0  0  0  0  0  0  0  0  0  0  0
    2.8360   -2.2653   -1.8734 C   0  0  0  0  0  0  0  0  0  0  0  0
    2.7335   -3.5017   -2.5843 C   0  0  0  0  0  0  0  0  0  0  0  0
    3.5910   -3.5605   -3.6613 C   0  0  0  0  0  0  0  0  0  0  0  0
    4.5387   -2.1451   -3.8037 S   0  0  0  0  0  0  0  0  0  0  0  0
    3.8028   -1.4495   -2.4214 C   0  0  0  0  0  0  0  0  0  0  0  0
    1.3746    0.4684   -1.0429 C   0  0  0  0  0  0  0  0  0  0  0  0
    1.8439    0.7247   -2.1364 O   0  0  0  0  0  0  0  0  0  0  0  0
    0.6652    1.2669   -0.1705 N   0  0  0  0  0  0  0  0  0  0  0  0
    0.3903    2.6407   -0.4193 C   0  0  0  0  0  0  0  0  0  0  0  0
    0.2025    3.1013   -1.7335 C   0  0  0  0  0  0  0  0  0  0  0  0
   -0.0621    4.4484   -2.0035 C   0  0  0  0  0  0  0  0  0  0  0  0
   -0.1313    5.3674   -0.9633 C   0  0  0  0  0  0  0  0  0  0  0  0
    0.0744    4.9398    0.3435 C   0  0  0  0  0  0  0  0  0  0  0  0
    0.3384    3.5910    0.6106 C   0  0  0  0  0  0  0  0  0  0  0  0
   -3.4075   -2.1725    4.0936 H   0  0  0  0  0  0  0  0  0  0  0  0
   -4.5205   -3.3100    3.3284 H   0  0  0  0  0  0  0  0  0  0  0  0
   -4.7848   -1.5676    3.1497 H   0  0  0  0  0  0  0  0  0  0  0  0
   -3.8040   -2.6606    1.0976 H   0  0  0  0  0  0  0  0  0  0  0  0
   -2.3888   -3.1272    2.0345 H   0  0  0  0  0  0  0  0  0  0  0  0
   -2.0524   -1.0993    0.6297 H   0  0  0  0  0  0  0  0  0  0  0  0
   -3.3229   -0.2538    1.5097 H   0  0  0  0  0  0  0  0  0  0  0  0
   -0.7624   -1.3362    2.8447 H   0  0  0  0  0  0  0  0  0  0  0  0
   -2.0170   -0.3723    3.6120 H   0  0  0  0  0  0  0  0  0  0  0  0
    1.9563   -2.8145   -0.0173 H   0  0  0  0  0  0  0  0  0  0  0  0
    2.0575   -4.3090   -2.3291 H   0  0  0  0  0  0  0  0  0  0  0  0
    3.7109   -4.3681   -4.3701 H   0  0  0  0  0  0  0  0  0  0  0  0
    4.1262   -0.4708   -2.0934 H   0  0  0  0  0  0  0  0  0  0  0  0
    0.2320    2.4177   -2.5796 H   0  0  0  0  0  0  0  0  0  0  0  0
   -0.2125    4.7739   -3.0300 H   0  0  0  0  0  0  0  0  0  0  0  0
   -0.3333    6.4148   -1.1715 H   0  0  0  0  0  0  0  0  0  0  0  0
    0.0443    5.6570    1.1603 H   0  0  0  0  0  0  0  0  0  0  0  0
    0.5541    3.3267    1.6414 H   0  0  0  0  0  0  0  0  0  0  0  0
  1  2  1  0
  2  3  1  0
  3  4  1  0
  4  5  1  0
  5  6  1  0
  6  7  2  0
  7  8  1  0
  8  9  2  3
  9 10  1  0
 10 11  1  0
 11 12  2  0
 12 13  1  0
 13 14  1  0
  8 15  1  0
 15 16  2  0
 15 17  1  0
 17 18  1  0
 18 19  2  0
 19 20  1  0
 20 21  2  0
 21 22  1  0
 22 23  2  0
 17  6  1  0
 23 18  1  0
 14 10  2  0
  1 24  1  0
  1 25  1  0
  1 26  1  0
  2 27  1  0
  2 28  1  0
  3 29  1  0
  3 30  1  0
  4 31  1  0
  4 32  1  0
  9 33  1  0
 11 34  1  0
 12 35  1  0
 14 36  1  0
 19 37  1  0
 20 38  1  0
 21 39  1  0
 22 40  1  0
 23 41  1  0
M  END
$$$$
