
     RDKit          3D

 54 58  0  0  0  0  0  0  0  0999 V2000
   -3.0713   -2.8324   -2.4864 C   0  0  0  0  0  0  0  0  0  0  0  0
   -3.8143   -3.2530   -1.2250 C   0  0  0  0  0  0  0  0  0  0  0  0
   -4.1567   -2.0596   -0.3110 C   0  0  0  0  0  0  0  0  0  0  0  0
   -5.0244   -2.5126    0.8683 C   0  0  0  0  0  0  0  0  0  0  0  0
   -2.9602   -1.3429    0.1582 N   0  0  0  0  0  0  0  0  0  0  0  0
   -2.0053   -1.9960    0.9331 C   0  0  0  0  0  0  0  0  0  0  0  0
   -0.9113   -1.4796    1.4063 N   0  0  0  0  0  0  0  0  0  0  0  0
   -0.7484   -0.1793    1.0704 C   0  0  0  0  0  0  0  0  0  0  0  0
   -1.6056    0.6028    0.3250 C   0  0  0  0  0  0  0  0  0  0  0  0
   -2.8181    0.0142   -0.1851 C   0  0  0  0  0  0  0  0  0  0  0  0
   -3.6391    0.6395   -0.8487 O   0  0  0  0  0  0  0  0  0  0  0  0
   -1.0462    1.8919    0.2422 C   0  0  0  0  0  0  0  0  0  0  0  0
   -1.4827    3.0263   -0.3578 N   0  0  0  0  0  0  0  0  0  0  0  0
   -0.6694    4.0841   -0.2143 C   0  0  0  0  0  0  0  0  0  0  0  0
   -1.0439    5.2844   -0.8044 C   0  0  0  0  0  0  0  0  0  0  0  0
   -0.2532    6.4294   -0.6994 C   0  0  0  0  0  0  0  0  0  0  0  0
    0.9376    6.3748    0.0107 C   0  0  0  0  0  0  0  0  0  0  0  0
    1.3268    5.1755    0.6095 C   0  0  0  0  0  0  0  0  0  0  0  0
    0.5505    4.0274    0.5135 C   0  0  0  0  0  0  0  0  0  0  0  0
    0.9908    2.9092    1.1165 N   0  0  0  0  0  0  0  0  0  0  0  0
    0.1559    1.8631    0.9458 C   0  0  0  0  0  0  0  0  0  0  0  0
    0.3340    0.5878    1.4251 N   0  0  0  0  0  0  0  0  0  0  0  0
    1.4703    0.1480    2.2155 C   0  0  0  0  0  0  0  0  0  0  0  0
    2.5726   -0.3996    1.3428 C   0  0  0  0  0  0  0  0  0  0  0  0
    2.6221   -1.7637    1.0253 C   0  0  0  0  0  0  0  0  0  0  0  0
    3.6361   -2.2723    0.2054 C   0  0  0  0  0  0  0  0  0  0  0  0
    4.6122   -1.4218   -0.3127 C   0  0  0  0  0  0  0  0  0  0  0  0
    5.6524   -1.7875   -1.1219 O   0  0  0  0  0  0  0  0  0  0  0  0
    5.7353   -3.1611   -1.4791 C   0  0  0  0  0  0  0  0  0  0  0  0
    4.5616   -0.0606   -0.0058 C   0  0  0  0  0  0  0  0  0  0  0  0
    3.5508    0.4500    0.8119 C   0  0  0  0  0  0  0  0  0  0  0  0
   -2.9091   -3.7001   -3.1339 H   0  0  0  0  0  0  0  0  0  0  0  0
   -3.6457   -2.0913   -3.0512 H   0  0  0  0  0  0  0  0  0  0  0  0
   -2.0923   -2.4043   -2.2507 H   0  0  0  0  0  0  0  0  0  0  0  0
   -3.2153   -3.9989   -0.6904 H   0  0  0  0  0  0  0  0  0  0  0  0
   -4.7434   -3.7543   -1.5233 H   0  0  0  0  0  0  0  0  0  0  0  0
   -4.7745   -1.3718   -0.9006 H   0  0  0  0  0  0  0  0  0  0  0  0
   -5.2713   -1.6633    1.5146 H   0  0  0  0  0  0  0  0  0  0  0  0
   -4.5199   -3.2642    1.4840 H   0  0  0  0  0  0  0  0  0  0  0  0
   -5.9633   -2.9494    0.5117 H   0  0  0  0  0  0  0  0  0  0  0  0
   -2.2330   -3.0515    1.1462 H   0  0  0  0  0  0  0  0  0  0  0  0
   -1.9776    5.3266   -1.3613 H   0  0  0  0  0  0  0  0  0  0  0  0
   -0.5707    7.3554   -1.1722 H   0  0  0  0  0  0  0  0  0  0  0  0
    1.5648    7.2580    0.1012 H   0  0  0  0  0  0  0  0  0  0  0  0
    2.2607    5.1347    1.1652 H   0  0  0  0  0  0  0  0  0  0  0  0
    1.8286    0.9956    2.8116 H   0  0  0  0  0  0  0  0  0  0  0  0
    1.1236   -0.6068    2.9310 H   0  0  0  0  0  0  0  0  0  0  0  0
    1.8621   -2.4415    1.4105 H   0  0  0  0  0  0  0  0  0  0  0  0
    3.6299   -3.3352   -0.0103 H   0  0  0  0  0  0  0  0  0  0  0  0
    4.8529   -3.4761   -2.0458 H   0  0  0  0  0  0  0  0  0  0  0  0
    6.6084   -3.2859   -2.1269 H   0  0  0  0  0  0  0  0  0  0  0  0
    5.8842   -3.7905   -0.5955 H   0  0  0  0  0  0  0  0  0  0  0  0
    5.3139    0.6110   -0.4120 H   0  0  0  0  0  0  0  0  0  0  0  0
    3.5281    1.5175    1.0240 H   0  0  0  0  0  0  0  0  0  0  0  0
  1  2  1  0
  2  3  1  0
  3  4  1  0
  3  5  1  0
  5  6  1  0
  6  7  2  0
  7  8  1  0
  8  9  2  0
  9 10  1  0
 10 11  2  0
  9 12  1  0
 12 13  2  0
 13 14  1  0
 14 15  2  0
 15 16  1  0
 16 17  2  0
 17 18  1  0
 18 19  2  0
 19 20  1  0
 20 21  2  0
 21 22  1  0
 22 23  1  0
 23 24  1  0
 24 25  2  0
 25 26  1  0
 26 27  2  0
 27 28  1  0
 28 29  1  0
 27 30  1  0
 30 31  2  0
 10  5  1  0
 21 12  1  0
 31 24  1  0
 22  8  1  0
 19 14  1  0
  1 32  1  0
  1 33  1  0
  1 34  1  0
  2 35  1  0
  2 36  1  0
  3 37  1  0
  4 38  1  0
  4 39  1  0
  4 40  1  0
  6 41  1  0
 15 42  1  0
 16 43  1  0
 17 44  1  0
 18 45  1  0
 23 46  1  0
 23 47  1  0
 25 48  1  0
 26 49  1  0
 29 50  1  0
 29 51  1  0
 29 52  1  0
 30 53  1  0
 31 54  1  0
M  END
$$$$
