
     RDKit          3D

 37 39  0  0  0  0  0  0  0  0999 V2000
   -1.6817    2.7484   -1.8166 C   0  0  0  0  0  0  0  0  0  0  0  0
   -0.7249    1.6463   -1.4144 C   0  0  0  0  0  0  0  0  0  0  0  0
    0.4940    2.0223   -1.1590 N   0  0  0  0  0  0  0  0  0  0  0  0
    1.3957    1.1154   -0.6858 N   0  0  0  0  0  0  0  0  0  0  0  0
    2.7378    1.4627   -0.6241 C   0  0  0  0  0  0  0  0  0  0  0  0
    3.2424    2.4456   -1.1590 O   0  0  0  0  0  0  0  0  0  0  0  0
    3.6170    0.5178    0.1192 C   0  0  0  0  0  0  0  0  0  0  0  0
    4.9423    0.3689   -0.3155 C   0  0  0  0  0  0  0  0  0  0  0  0
    5.8090   -0.5025    0.3461 C   0  0  0  0  0  0  0  0  0  0  0  0
    5.3578   -1.2222    1.4517 C   0  0  0  0  0  0  0  0  0  0  0  0
    4.0456   -1.0597    1.8959 C   0  0  0  0  0  0  0  0  0  0  0  0
    3.5001   -1.9377    3.2726 Cl  0  0  0  0  0  0  0  0  0  0  0  0
    3.1720   -0.1910    1.2415 C   0  0  0  0  0  0  0  0  0  0  0  0
   -1.2245    0.2162   -1.3839 C   0  0  0  0  0  0  0  0  0  0  0  0
   -1.2532   -0.3935    0.0023 C   0  0  0  0  0  0  0  0  0  0  0  0
   -0.3085   -0.5055    0.7653 O   0  0  0  0  0  0  0  0  0  0  0  0
   -2.5998   -0.8802    0.2865 C   0  0  0  0  0  0  0  0  0  0  0  0
   -3.0744   -1.4900    1.4327 C   0  0  0  0  0  0  0  0  0  0  0  0
   -4.4193   -1.8714    1.4485 C   0  0  0  0  0  0  0  0  0  0  0  0
   -5.2484   -1.6400    0.3330 C   0  0  0  0  0  0  0  0  0  0  0  0
   -4.7465   -1.0235   -0.8170 C   0  0  0  0  0  0  0  0  0  0  0  0
   -3.4145   -0.6535   -0.8117 C   0  0  0  0  0  0  0  0  0  0  0  0
   -2.6448    0.0003   -1.8687 C   0  0  0  0  0  0  0  0  0  0  0  0
   -3.1135    0.3024   -2.9504 O   0  0  0  0  0  0  0  0  0  0  0  0
   -2.5988    2.6808   -1.2256 H   0  0  0  0  0  0  0  0  0  0  0  0
   -1.9160    2.6599   -2.8804 H   0  0  0  0  0  0  0  0  0  0  0  0
   -1.2307    3.7298   -1.6415 H   0  0  0  0  0  0  0  0  0  0  0  0
    1.0548    0.3042   -0.1729 H   0  0  0  0  0  0  0  0  0  0  0  0
    5.2999    0.9355   -1.1745 H   0  0  0  0  0  0  0  0  0  0  0  0
    6.8343   -0.6146    0.0015 H   0  0  0  0  0  0  0  0  0  0  0  0
    6.0346   -1.8984    1.9677 H   0  0  0  0  0  0  0  0  0  0  0  0
    2.1675   -0.0566    1.6320 H   0  0  0  0  0  0  0  0  0  0  0  0
   -0.5735   -0.4068   -2.0093 H   0  0  0  0  0  0  0  0  0  0  0  0
   -2.4281   -1.6663    2.2874 H   0  0  0  0  0  0  0  0  0  0  0  0
   -4.8332   -2.3543    2.3326 H   0  0  0  0  0  0  0  0  0  0  0  0
   -6.2929   -1.9466    0.3688 H   0  0  0  0  0  0  0  0  0  0  0  0
   -5.3778   -0.8420   -1.6820 H   0  0  0  0  0  0  0  0  0  0  0  0
  1  2  1  0
  2  3  2  3
  3  4  1  0
  4  5  1  0
  5  6  2  0
  5  7  1  0
  7  8  2  0
  8  9  1  0
  9 10  2  0
 10 11  1  0
 11 12  1  0
 11 13  2  0
  2 14  1  0
 14 15  1  0
 15 16  2  0
 15 17  1  0
 17 18  2  0
 18 19  1  0
 19 20  2  0
 20 21  1  0
 21 22  2  0
 22 23  1  0
 23 24  2  0
 13  7  1  0
 23 14  1  0
 22 17  1  0
  1 25  1  0
  1 26  1  0
  1 27  1  0
  4 28  1  0
  8 29  1  0
  9 30  1  0
 10 31  1  0
 13 32  1  0
 14 33  1  0
 18 34  1  0
 19 35  1  0
 20 36  1  0
 21 37  1  0
M  END
$$$$
