
     RDKit          3D

 51 53  0  0  0  0  0  0  0  0999 V2000
   -4.9247    1.4928    0.4279 O   0  0  0  0  0  0  0  0  0  0  0  0
   -5.1048    1.0208   -0.6913 C   0  0  0  0  0  0  0  0  0  0  0  0
   -4.0269    1.1144   -1.7805 C   0  0  0  0  0  0  0  0  0  0  0  0
   -2.7163    1.3063   -1.2480 O   0  0  0  0  0  0  0  0  0  0  0  0
   -2.1966    0.1942   -0.6616 C   0  0  0  0  0  0  0  0  0  0  0  0
   -2.7277   -0.9083   -0.6696 O   0  0  0  0  0  0  0  0  0  0  0  0
   -0.9015    0.5004    0.0392 C   0  0  0  0  0  0  0  0  0  0  0  0
    0.0722    1.2241   -0.8834 C   0  0  0  0  0  0  0  0  0  0  0  0
    1.3947    1.3788   -0.2691 N   0  0  0  0  0  0  0  0  0  0  0  0
    2.3140    0.3506   -0.4155 C   0  0  0  0  0  0  0  0  0  0  0  0
    2.1054   -0.6861   -1.0301 O   0  0  0  0  0  0  0  0  0  0  0  0
    3.5843    0.6795    0.2926 C   0  0  0  0  0  0  0  0  0  0  0  0
    4.7123   -0.0433    0.3671 C   0  0  0  0  0  0  0  0  0  0  0  0
    4.9687   -1.3382   -0.2334 C   0  0  0  0  0  0  0  0  0  0  0  0
    6.1170   -2.0310   -0.1514 C   0  0  0  0  0  0  0  0  0  0  0  0
    7.3277   -1.6038    0.5523 C   0  0  0  0  0  0  0  0  0  0  0  0
    8.2386   -0.7408   -0.0663 C   0  0  0  0  0  0  0  0  0  0  0  0
    9.3865   -0.3286    0.6129 C   0  0  0  0  0  0  0  0  0  0  0  0
    9.6282   -0.7774    1.9110 C   0  0  0  0  0  0  0  0  0  0  0  0
    8.7230   -1.6376    2.5317 C   0  0  0  0  0  0  0  0  0  0  0  0
    7.5741   -2.0505    1.8543 C   0  0  0  0  0  0  0  0  0  0  0  0
    3.4280    2.2170    1.0669 S   0  0  0  0  0  0  0  0  0  0  0  0
    1.7810    2.4521    0.5046 C   0  0  0  0  0  0  0  0  0  0  0  0
    0.8946    3.8082    0.9001 S   0  0  0  0  0  0  0  0  0  0  0  0
   -6.2529    0.3849   -1.1305 N   0  0  0  0  0  0  0  0  0  0  0  0
   -7.4372    0.1454   -0.3979 C   0  0  0  0  0  0  0  0  0  0  0  0
   -7.6549    0.5626    0.9144 C   0  0  0  0  0  0  0  0  0  0  0  0
   -8.8687    0.2712    1.5374 C   0  0  0  0  0  0  0  0  0  0  0  0
   -9.0738    0.6752    2.7980 F   0  0  0  0  0  0  0  0  0  0  0  0
   -9.8759   -0.4295    0.8790 C   0  0  0  0  0  0  0  0  0  0  0  0
   -9.6697   -0.8501   -0.4313 C   0  0  0  0  0  0  0  0  0  0  0  0
   -8.4582   -0.5599   -1.0547 C   0  0  0  0  0  0  0  0  0  0  0  0
   -8.2676   -0.9653   -2.3207 F   0  0  0  0  0  0  0  0  0  0  0  0
   -4.2603    1.9907   -2.3950 H   0  0  0  0  0  0  0  0  0  0  0  0
   -4.0486    0.2372   -2.4382 H   0  0  0  0  0  0  0  0  0  0  0  0
   -1.1205    1.0862    0.9379 H   0  0  0  0  0  0  0  0  0  0  0  0
   -0.4672   -0.4499    0.3718 H   0  0  0  0  0  0  0  0  0  0  0  0
    0.1821    0.6616   -1.8192 H   0  0  0  0  0  0  0  0  0  0  0  0
   -0.3163    2.2090   -1.1625 H   0  0  0  0  0  0  0  0  0  0  0  0
    5.5404    0.3728    0.9416 H   0  0  0  0  0  0  0  0  0  0  0  0
    4.1616   -1.8005   -0.7986 H   0  0  0  0  0  0  0  0  0  0  0  0
    6.1906   -3.0022   -0.6364 H   0  0  0  0  0  0  0  0  0  0  0  0
    8.0585   -0.3846   -1.0778 H   0  0  0  0  0  0  0  0  0  0  0  0
   10.0919    0.3422    0.1293 H   0  0  0  0  0  0  0  0  0  0  0  0
   10.5224   -0.4563    2.4392 H   0  0  0  0  0  0  0  0  0  0  0  0
    8.9110   -1.9866    3.5437 H   0  0  0  0  0  0  0  0  0  0  0  0
    6.8727   -2.7180    2.3488 H   0  0  0  0  0  0  0  0  0  0  0  0
   -6.2514   -0.0046   -2.0687 H   0  0  0  0  0  0  0  0  0  0  0  0
   -6.9143    1.1125    1.4838 H   0  0  0  0  0  0  0  0  0  0  0  0
  -10.8086   -0.6396    1.3932 H   0  0  0  0  0  0  0  0  0  0  0  0
  -10.4370   -1.3980   -0.9684 H   0  0  0  0  0  0  0  0  0  0  0  0
  1  2  2  0
  2  3  1  0
  3  4  1  0
  4  5  1  0
  5  6  2  0
  5  7  1  0
  7  8  1  0
  8  9  1  0
  9 10  1  0
 10 11  2  0
 10 12  1  0
 12 13  2  3
 13 14  1  0
 14 15  2  3
 15 16  1  0
 16 17  2  0
 17 18  1  0
 18 19  2  0
 19 20  1  0
 20 21  2  0
 12 22  1  0
 22 23  1  0
 23 24  2  0
  2 25  1  0
 25 26  1  0
 26 27  2  0
 27 28  1  0
 28 29  1  0
 28 30  2  0
 30 31  1  0
 31 32  2  0
 32 33  1  0
 23  9  1  0
 32 26  1  0
 21 16  1  0
  3 34  1  0
  3 35  1  0
  7 36  1  0
  7 37  1  0
  8 38  1  0
  8 39  1  0
 13 40  1  0
 14 41  1  0
 15 42  1  0
 17 43  1  0
 18 44  1  0
 19 45  1  0
 20 46  1  0
 21 47  1  0
 25 48  1  0
 27 49  1  0
 30 50  1  0
 31 51  1  0
M  END
$$$$
