
     RDKit          3D

 60 64  0  0  0  0  0  0  0  0999 V2000
    3.1767    1.6518   -1.2771 O   0  0  0  0  0  0  0  0  0  0  0  0
    2.8989    0.7216   -0.5320 C   0  0  0  0  0  0  0  0  0  0  0  0
    3.7715   -0.0988    0.1554 N   0  0  0  0  0  0  0  0  0  0  0  0
    5.1807   -0.0884    0.0907 C   0  0  0  0  0  0  0  0  0  0  0  0
    5.9164    0.7147   -0.7830 C   0  0  0  0  0  0  0  0  0  0  0  0
    7.3170    0.6626   -0.7912 C   0  0  0  0  0  0  0  0  0  0  0  0
    7.9951   -0.1930    0.0803 C   0  0  0  0  0  0  0  0  0  0  0  0
    9.4790   -0.2564    0.0911 C   0  0  0  0  0  0  0  0  0  0  0  0
   10.1168   -1.1895    0.7569 N   0  0  0  0  0  0  0  0  0  0  0  0
   11.5576   -0.9137    0.5050 C   0  0  0  0  0  0  0  0  0  0  0  0
   11.6256    0.4881   -0.1023 C   0  0  0  0  0  0  0  0  0  0  0  0
   10.2670    0.6615   -0.5657 N   0  0  0  0  0  0  0  0  0  0  0  0
    7.2635   -1.0077    0.9477 C   0  0  0  0  0  0  0  0  0  0  0  0
    5.8658   -0.9550    0.9518 C   0  0  0  0  0  0  0  0  0  0  0  0
    1.4581    0.4427   -0.2915 C   0  0  0  0  0  0  0  0  0  0  0  0
    0.9699   -0.8671   -0.1993 C   0  0  0  0  0  0  0  0  0  0  0  0
   -0.3953   -1.0926    0.0167 C   0  0  0  0  0  0  0  0  0  0  0  0
   -1.2966   -0.0188    0.1247 C   0  0  0  0  0  0  0  0  0  0  0  0
   -2.7119   -0.3709    0.4155 C   0  0  0  0  0  0  0  0  0  0  0  0
   -2.8921   -1.2393    1.2619 O   0  0  0  0  0  0  0  0  0  0  0  0
   -3.6777    0.2771   -0.3259 N   0  0  0  0  0  0  0  0  0  0  0  0
   -5.0765    0.0924   -0.2530 C   0  0  0  0  0  0  0  0  0  0  0  0
   -5.8684    0.9085   -1.0718 C   0  0  0  0  0  0  0  0  0  0  0  0
   -7.2617    0.7869   -1.0689 C   0  0  0  0  0  0  0  0  0  0  0  0
   -7.8825   -0.1596   -0.2502 C   0  0  0  0  0  0  0  0  0  0  0  0
   -9.3620   -0.2882   -0.2645 C   0  0  0  0  0  0  0  0  0  0  0  0
  -10.1206    0.6090   -0.8475 N   0  0  0  0  0  0  0  0  0  0  0  0
  -11.5111    0.1237   -0.6295 C   0  0  0  0  0  0  0  0  0  0  0  0
  -11.3891   -1.3258   -0.1611 C   0  0  0  0  0  0  0  0  0  0  0  0
  -10.0196   -1.3574    0.3008 N   0  0  0  0  0  0  0  0  0  0  0  0
   -7.0997   -0.9686    0.5774 C   0  0  0  0  0  0  0  0  0  0  0  0
   -5.7039   -0.8421    0.5738 C   0  0  0  0  0  0  0  0  0  0  0  0
   -0.7852    1.2778    0.0259 C   0  0  0  0  0  0  0  0  0  0  0  0
   -1.6440    2.4267    0.1665 N   0  0  0  0  0  4  0  0  0  0  0  0
   -1.5346    3.0905    1.2018 O   0  0  0  0  0  0  0  0  0  0  0  0
   -2.4075    2.6603   -0.7815 O   0  0  0  0  0  1  0  0  0  0  0  0
    0.5778    1.5243   -0.1895 C   0  0  0  0  0  0  0  0  0  0  0  0
    3.3743   -0.7395    0.8309 H   0  0  0  0  0  0  0  0  0  0  0  0
    5.4315    1.3881   -1.4830 H   0  0  0  0  0  0  0  0  0  0  0  0
    7.8570    1.2836   -1.4995 H   0  0  0  0  0  0  0  0  0  0  0  0
   11.9457   -1.6665   -0.1901 H   0  0  0  0  0  0  0  0  0  0  0  0
   12.1289   -0.9721    1.4370 H   0  0  0  0  0  0  0  0  0  0  0  0
   12.3538    0.5558   -0.9155 H   0  0  0  0  0  0  0  0  0  0  0  0
   11.8617    1.2354    0.6630 H   0  0  0  0  0  0  0  0  0  0  0  0
    9.9254    1.6146   -0.5980 H   0  0  0  0  0  0  0  0  0  0  0  0
    7.7781   -1.6865    1.6243 H   0  0  0  0  0  0  0  0  0  0  0  0
    5.3291   -1.6019    1.6406 H   0  0  0  0  0  0  0  0  0  0  0  0
    1.6323   -1.7229   -0.3146 H   0  0  0  0  0  0  0  0  0  0  0  0
   -0.7593   -2.1173    0.1023 H   0  0  0  0  0  0  0  0  0  0  0  0
   -3.3838    0.9861   -0.9950 H   0  0  0  0  0  0  0  0  0  0  0  0
   -5.4174    1.6592   -1.7178 H   0  0  0  0  0  0  0  0  0  0  0  0
   -7.8597    1.4360   -1.7060 H   0  0  0  0  0  0  0  0  0  0  0  0
  -12.0936    0.1961   -1.5530 H   0  0  0  0  0  0  0  0  0  0  0  0
  -11.9888    0.7483    0.1335 H   0  0  0  0  0  0  0  0  0  0  0  0
  -12.1012   -1.5722    0.6302 H   0  0  0  0  0  0  0  0  0  0  0  0
  -11.5206   -2.0180   -0.9992 H   0  0  0  0  0  0  0  0  0  0  0  0
   -9.5526   -2.2551    0.2640 H   0  0  0  0  0  0  0  0  0  0  0  0
   -7.5566   -1.6910    1.2480 H   0  0  0  0  0  0  0  0  0  0  0  0
   -5.1382   -1.4907    1.2351 H   0  0  0  0  0  0  0  0  0  0  0  0
    0.9565    2.5434   -0.2668 H   0  0  0  0  0  0  0  0  0  0  0  0
  1  2  2  0
  2  3  1  0
  3  4  1  0
  4  5  2  0
  5  6  1  0
  6  7  2  0
  7  8  1  0
  8  9  2  0
  9 10  1  0
 10 11  1  0
 11 12  1  0
  7 13  1  0
 13 14  2  0
  2 15  1  0
 15 16  2  0
 16 17  1  0
 17 18  2  0
 18 19  1  0
 19 20  2  0
 19 21  1  0
 21 22  1  0
 22 23  2  0
 23 24  1  0
 24 25  2  0
 25 26  1  0
 26 27  2  0
 27 28  1  0
 28 29  1  0
 29 30  1  0
 25 31  1  0
 31 32  2  0
 18 33  1  0
 33 34  1  0
 34 35  2  0
 34 36  1  0
 33 37  2  0
 14  4  1  0
 37 15  1  0
 12  8  1  0
 32 22  1  0
 30 26  1  0
  3 38  1  0
  5 39  1  0
  6 40  1  0
 10 41  1  0
 10 42  1  0
 11 43  1  0
 11 44  1  0
 12 45  1  0
 13 46  1  0
 14 47  1  0
 16 48  1  0
 17 49  1  0
 21 50  1  0
 23 51  1  0
 24 52  1  0
 28 53  1  0
 28 54  1  0
 29 55  1  0
 29 56  1  0
 30 57  1  0
 31 58  1  0
 32 59  1  0
 37 60  1  0
M  CHG  2  34   1  36  -1
M  END
$$$$
