
     RDKit          3D

 43 46  0  0  0  0  0  0  0  0999 V2000
   -4.1309   -3.1421    0.1480 C   0  0  0  0  0  0  0  0  0  0  0  0
   -3.6520   -2.2837    1.3037 C   0  0  0  0  0  0  0  0  0  0  0  0
   -3.6990   -0.8970    0.9426 O   0  0  0  0  0  0  0  0  0  0  0  0
   -2.5956   -0.4090    0.3101 C   0  0  0  0  0  0  0  0  0  0  0  0
   -1.6084   -1.0714    0.0154 O   0  0  0  0  0  0  0  0  0  0  0  0
   -2.7708    1.0046    0.0241 C   0  0  0  0  0  0  0  0  0  0  0  0
   -3.8803    1.8014    0.2838 C   0  0  0  0  0  0  0  0  0  0  0  0
   -3.5574    3.1116   -0.1600 C   0  0  0  0  0  0  0  0  0  0  0  0
   -4.2818    4.6820   -0.2417 S   0  0  0  0  0  0  0  0  0  0  0  0
   -2.8443    5.3026   -0.9522 C   0  0  0  0  0  0  0  0  0  0  0  0
   -1.8505    4.3637   -1.1308 C   0  0  0  0  0  0  0  0  0  0  0  0
   -2.2930    3.0934   -0.6655 C   0  0  0  0  0  0  0  0  0  0  0  0
   -1.8068    1.8064   -0.5659 N   0  0  0  0  0  0  0  0  0  0  0  0
   -0.4908    1.4039   -1.0446 C   0  0  0  0  0  0  0  0  0  0  0  0
    0.5115    1.2182    0.0773 C   0  0  0  0  0  0  0  0  0  0  0  0
    0.4134    1.7929    1.1610 O   0  0  0  0  0  0  0  0  0  0  0  0
    1.6901    0.3322   -0.1605 C   0  0  0  0  0  0  0  0  0  0  0  0
    2.0784   -0.0693   -1.4465 C   0  0  0  0  0  0  0  0  0  0  0  0
    3.1909   -0.8997   -1.6165 C   0  0  0  0  0  0  0  0  0  0  0  0
    3.9173   -1.3288   -0.5082 C   0  0  0  0  0  0  0  0  0  0  0  0
    3.5548   -0.9038    0.7727 C   0  0  0  0  0  0  0  0  0  0  0  0
    2.4391   -0.0870    0.9485 C   0  0  0  0  0  0  0  0  0  0  0  0
    4.2449   -1.2578    1.9036 O   0  0  0  0  0  0  0  0  0  0  0  0
    5.5338   -1.7943    1.5843 C   0  0  0  0  0  0  0  0  0  0  0  0
    5.4300   -2.7981    0.4480 C   0  0  0  0  0  0  0  0  0  0  0  0
    4.9812   -2.1581   -0.7528 O   0  0  0  0  0  0  0  0  0  0  0  0
   -5.1345   -2.8377   -0.1667 H   0  0  0  0  0  0  0  0  0  0  0  0
   -4.1552   -4.1976    0.4330 H   0  0  0  0  0  0  0  0  0  0  0  0
   -3.4767   -3.0302   -0.7224 H   0  0  0  0  0  0  0  0  0  0  0  0
   -2.6487   -2.5772    1.6333 H   0  0  0  0  0  0  0  0  0  0  0  0
   -4.3216   -2.4140    2.1602 H   0  0  0  0  0  0  0  0  0  0  0  0
   -4.8075    1.4840    0.7427 H   0  0  0  0  0  0  0  0  0  0  0  0
   -2.8026    6.3533   -1.2049 H   0  0  0  0  0  0  0  0  0  0  0  0
   -0.8807    4.5829   -1.5571 H   0  0  0  0  0  0  0  0  0  0  0  0
   -0.6354    0.4851   -1.6194 H   0  0  0  0  0  0  0  0  0  0  0  0
   -0.1183    2.1768   -1.7247 H   0  0  0  0  0  0  0  0  0  0  0  0
    1.5413    0.2490   -2.3347 H   0  0  0  0  0  0  0  0  0  0  0  0
    3.4866   -1.2199   -2.6124 H   0  0  0  0  0  0  0  0  0  0  0  0
    2.1600    0.2259    1.9527 H   0  0  0  0  0  0  0  0  0  0  0  0
    5.9232   -2.2800    2.4844 H   0  0  0  0  0  0  0  0  0  0  0  0
    6.2029   -0.9639    1.3268 H   0  0  0  0  0  0  0  0  0  0  0  0
    6.4101   -3.2394    0.2419 H   0  0  0  0  0  0  0  0  0  0  0  0
    4.7335   -3.6100    0.6914 H   0  0  0  0  0  0  0  0  0  0  0  0
  1  2  1  0
  2  3  1  0
  3  4  1  0
  4  5  2  0
  4  6  1  0
  6  7  2  0
  7  8  1  0
  8  9  1  0
  9 10  1  0
 10 11  2  0
 11 12  1  0
 12 13  1  0
 13 14  1  0
 14 15  1  0
 15 16  2  0
 15 17  1  0
 17 18  2  0
 18 19  1  0
 19 20  2  0
 20 21  1  0
 21 22  2  0
 21 23  1  0
 23 24  1  0
 24 25  1  0
 25 26  1  0
 13  6  1  0
 22 17  1  0
 12  8  2  0
 26 20  1  0
  1 27  1  0
  1 28  1  0
  1 29  1  0
  2 30  1  0
  2 31  1  0
  7 32  1  0
 10 33  1  0
 11 34  1  0
 14 35  1  0
 14 36  1  0
 18 37  1  0
 19 38  1  0
 22 39  1  0
 24 40  1  0
 24 41  1  0
 25 42  1  0
 25 43  1  0
M  END
$$$$
