
     RDKit          3D

 45 47  0  0  0  0  0  0  0  0999 V2000
   -6.3345    0.3580   -4.7006 C   0  0  0  0  0  0  0  0  0  0  0  0
   -5.9854    0.6440   -3.2699 C   0  0  0  0  0  0  0  0  0  0  0  0
   -6.9641    0.5702   -2.2735 C   0  0  0  0  0  0  0  0  0  0  0  0
   -6.6417    0.8522   -0.9467 C   0  0  0  0  0  0  0  0  0  0  0  0
   -5.3424    1.2261   -0.6056 C   0  0  0  0  0  0  0  0  0  0  0  0
   -4.3519    1.3290   -1.5912 C   0  0  0  0  0  0  0  0  0  0  0  0
   -2.9515    1.7426   -1.2273 C   0  0  0  0  0  0  0  0  0  0  0  0
   -1.9821    0.3013   -0.7970 S   0  0  0  0  0  6  0  0  0  0  0  0
   -1.8307   -0.5219   -1.9859 O   0  0  0  0  0  0  0  0  0  0  0  0
   -2.5091   -0.2530    0.4379 O   0  0  0  0  0  0  0  0  0  0  0  0
   -0.3990    1.0490   -0.4490 C   0  0  0  0  0  0  0  0  0  0  0  0
    0.5580    0.0359    0.0530 C   0  0  0  0  0  0  0  0  0  0  0  0
    0.8648   -1.2670   -0.2756 C   0  0  0  0  0  0  0  0  0  0  0  0
    1.9099   -1.6661    0.5945 C   0  0  0  0  0  0  0  0  0  0  0  0
    2.2050   -0.5792    1.3993 C   0  0  0  0  0  0  0  0  0  0  0  0
    3.1638   -0.3552    2.4674 C   0  0  0  0  0  0  0  0  0  0  0  0
    3.2719    0.7107    3.0706 O   0  0  0  0  0  0  0  0  0  0  0  0
    3.9720   -1.4353    2.7639 N   0  0  0  0  0  0  0  0  0  0  0  0
    5.0837   -1.3155    3.6769 C   0  0  0  0  0  0  0  0  0  0  0  0
    6.3062   -1.0377    2.8855 C   0  0  0  0  0  0  0  0  0  0  0  0
    6.9604    0.1244    2.5324 C   0  0  0  0  0  0  0  0  0  0  0  0
    8.0733   -0.2662    1.7505 C   0  0  0  0  0  0  0  0  0  0  0  0
    8.0247   -1.6382    1.6723 C   0  0  0  0  0  0  0  0  0  0  0  0
    6.9524   -2.1170    2.3546 O   0  0  0  0  0  0  0  0  0  0  0  0
    1.3800    0.4599    1.0547 O   0  0  0  0  0  0  0  0  0  0  0  0
   -4.6853    1.0351   -2.9226 C   0  0  0  0  0  0  0  0  0  0  0  0
   -5.4793   -0.0724   -5.2322 H   0  0  0  0  0  0  0  0  0  0  0  0
   -7.1545   -0.3649   -4.7667 H   0  0  0  0  0  0  0  0  0  0  0  0
   -6.6365    1.2817   -5.2036 H   0  0  0  0  0  0  0  0  0  0  0  0
   -7.9824    0.2812   -2.5233 H   0  0  0  0  0  0  0  0  0  0  0  0
   -7.4037    0.7745   -0.1753 H   0  0  0  0  0  0  0  0  0  0  0  0
   -5.1087    1.4269    0.4385 H   0  0  0  0  0  0  0  0  0  0  0  0
   -2.9543    2.4212   -0.3684 H   0  0  0  0  0  0  0  0  0  0  0  0
   -2.4598    2.2449   -2.0664 H   0  0  0  0  0  0  0  0  0  0  0  0
   -0.0308    1.5021   -1.3737 H   0  0  0  0  0  0  0  0  0  0  0  0
   -0.5667    1.8312    0.2976 H   0  0  0  0  0  0  0  0  0  0  0  0
    0.3862   -1.8661   -1.0405 H   0  0  0  0  0  0  0  0  0  0  0  0
    2.3832   -2.6369    0.6212 H   0  0  0  0  0  0  0  0  0  0  0  0
    3.9802   -2.2315    2.1453 H   0  0  0  0  0  0  0  0  0  0  0  0
    5.1770   -2.2672    4.2094 H   0  0  0  0  0  0  0  0  0  0  0  0
    4.9031   -0.5252    4.4121 H   0  0  0  0  0  0  0  0  0  0  0  0
    6.6598    1.1276    2.8045 H   0  0  0  0  0  0  0  0  0  0  0  0
    8.8175    0.3730    1.2966 H   0  0  0  0  0  0  0  0  0  0  0  0
    8.6448   -2.3832    1.1932 H   0  0  0  0  0  0  0  0  0  0  0  0
   -3.9237    1.0968   -3.6986 H   0  0  0  0  0  0  0  0  0  0  0  0
  1  2  1  0
  2  3  2  0
  3  4  1  0
  4  5  2  0
  5  6  1  0
  6  7  1  0
  7  8  1  0
  8  9  2  0
  8 10  2  0
  8 11  1  0
 11 12  1  0
 12 13  2  0
 13 14  1  0
 14 15  2  0
 15 16  1  0
 16 17  2  0
 16 18  1  0
 18 19  1  0
 19 20  1  0
 20 21  2  0
 21 22  1  0
 22 23  2  0
 23 24  1  0
 15 25  1  0
  6 26  2  0
 26  2  1  0
 25 12  1  0
 24 20  1  0
  1 27  1  0
  1 28  1  0
  1 29  1  0
  3 30  1  0
  4 31  1  0
  5 32  1  0
  7 33  1  0
  7 34  1  0
 11 35  1  0
 11 36  1  0
 13 37  1  0
 14 38  1  0
 18 39  1  0
 19 40  1  0
 19 41  1  0
 21 42  1  0
 22 43  1  0
 23 44  1  0
 26 45  1  0
M  END
$$$$
