
     RDKit          3D

 71 76  0  0  0  0  0  0  0  0999 V2000
    7.8997    1.8234   -3.6677 C   0  0  0  0  0  0  0  0  0  0  0  0
    8.8753    1.3303   -2.7583 O   0  0  0  0  0  0  0  0  0  0  0  0
    8.4155    0.7046   -1.6299 C   0  0  0  0  0  0  0  0  0  0  0  0
    9.4092    0.3702   -0.7137 C   0  0  0  0  0  0  0  0  0  0  0  0
    9.0713   -0.2612    0.4767 C   0  0  0  0  0  0  0  0  0  0  0  0
    7.7344   -0.5659    0.7485 C   0  0  0  0  0  0  0  0  0  0  0  0
    6.7002   -0.2635   -0.1557 C   0  0  0  0  0  0  0  0  0  0  0  0
    5.3770   -0.5822    0.1260 N   0  0  0  0  0  0  0  0  0  0  0  0
    5.0566   -1.6403    1.1070 C   0  0  0  0  0  0  0  0  0  0  0  0
    3.6617   -2.2421    0.8638 C   0  0  0  0  0  0  0  0  0  0  0  0
    2.6063   -1.2233    0.8586 N   0  0  0  0  0  0  0  0  0  0  0  0
    1.4602   -1.4365    1.6140 C   0  0  0  0  0  0  0  0  0  0  0  0
    1.3090   -2.4625    2.2810 O   0  0  0  0  0  0  0  0  0  0  0  0
    0.3582   -0.3814    1.5475 C   0  0  0  0  0  0  0  0  0  0  0  0
   -0.5536   -0.4330    2.7848 C   0  0  0  0  0  0  0  0  0  0  0  0
   -1.7668    0.5025    2.6664 C   0  0  0  0  0  0  0  0  0  0  0  0
   -1.8361    1.2089    1.3160 C   0  0  0  0  0  0  0  0  0  0  0  0
   -1.6539    0.2546    0.2270 N   0  0  0  0  0  0  0  0  0  0  0  0
   -2.7621   -0.3061   -0.4222 C   0  0  0  0  0  0  0  0  0  0  0  0
   -2.5153   -1.1684   -1.4597 N   0  0  0  0  0  0  0  0  0  0  0  0
   -3.5423   -1.7399   -2.1217 C   0  0  0  0  0  0  0  0  0  0  0  0
   -4.8576   -1.5799   -1.9104 N   0  0  0  0  0  0  0  0  0  0  0  0
   -5.0764   -0.7316   -0.8928 C   0  0  0  0  0  0  0  0  0  0  0  0
   -4.1312   -0.0698   -0.1201 C   0  0  0  0  0  0  0  0  0  0  0  0
   -4.7709    0.7021    0.8375 N   0  0  0  0  0  0  0  0  0  0  0  0
   -6.0642    0.5333    0.6385 C   0  0  0  0  0  0  0  0  0  0  0  0
   -6.2895   -0.3340   -0.4020 N   0  0  0  0  0  0  0  0  0  0  0  0
   -7.5843   -0.7400   -0.9007 C   0  0  0  0  0  0  0  0  0  0  0  0
   -8.4039    0.4290   -1.4425 C   0  0  0  0  0  0  0  0  0  0  0  0
   -9.0300    1.3047   -0.3551 C   0  0  0  0  0  0  0  0  0  0  0  0
   -8.0342    2.0799    0.5107 C   0  0  0  0  0  0  0  0  0  0  0  0
   -7.1607    1.1953    1.4003 C   0  0  0  0  0  0  0  0  0  0  0  0
   -0.4883   -0.6439    0.2946 C   0  0  0  0  0  0  0  0  0  0  0  0
    2.9745    0.0626    0.2499 C   0  0  0  0  0  0  0  0  0  0  0  0
    4.2514    0.0103   -0.6135 C   0  0  0  0  0  0  0  0  0  0  0  0
    7.0797    0.3817   -1.3499 C   0  0  0  0  0  0  0  0  0  0  0  0
    8.4308    2.3561   -4.4656 H   0  0  0  0  0  0  0  0  0  0  0  0
    7.2263    2.5376   -3.1811 H   0  0  0  0  0  0  0  0  0  0  0  0
    7.3399    1.0038   -4.1286 H   0  0  0  0  0  0  0  0  0  0  0  0
   10.4473    0.6099   -0.9268 H   0  0  0  0  0  0  0  0  0  0  0  0
    9.8422   -0.5083    1.2024 H   0  0  0  0  0  0  0  0  0  0  0  0
    7.5152   -1.0354    1.7041 H   0  0  0  0  0  0  0  0  0  0  0  0
    5.0974   -1.2120    2.1161 H   0  0  0  0  0  0  0  0  0  0  0  0
    5.7838   -2.4601    1.0488 H   0  0  0  0  0  0  0  0  0  0  0  0
    3.4633   -3.0176    1.6105 H   0  0  0  0  0  0  0  0  0  0  0  0
    3.6300   -2.7230   -0.1228 H   0  0  0  0  0  0  0  0  0  0  0  0
    0.8119    0.6143    1.5133 H   0  0  0  0  0  0  0  0  0  0  0  0
    0.0233   -0.1826    3.6843 H   0  0  0  0  0  0  0  0  0  0  0  0
   -0.9236   -1.4550    2.9436 H   0  0  0  0  0  0  0  0  0  0  0  0
   -2.6844   -0.0765    2.8358 H   0  0  0  0  0  0  0  0  0  0  0  0
   -1.7267    1.2550    3.4639 H   0  0  0  0  0  0  0  0  0  0  0  0
   -2.7398    1.8163    1.2238 H   0  0  0  0  0  0  0  0  0  0  0  0
   -1.0226    1.9439    1.2596 H   0  0  0  0  0  0  0  0  0  0  0  0
   -3.2674   -2.4175   -2.9233 H   0  0  0  0  0  0  0  0  0  0  0  0
   -8.1033   -1.2569   -0.0864 H   0  0  0  0  0  0  0  0  0  0  0  0
   -7.4242   -1.4684   -1.7032 H   0  0  0  0  0  0  0  0  0  0  0  0
   -9.2203    0.0217   -2.0516 H   0  0  0  0  0  0  0  0  0  0  0  0
   -7.7924    1.0474   -2.1110 H   0  0  0  0  0  0  0  0  0  0  0  0
   -9.6772    0.6934    0.2844 H   0  0  0  0  0  0  0  0  0  0  0  0
   -9.6834    2.0334   -0.8489 H   0  0  0  0  0  0  0  0  0  0  0  0
   -8.6120    2.7470    1.1608 H   0  0  0  0  0  0  0  0  0  0  0  0
   -7.4108    2.7205   -0.1250 H   0  0  0  0  0  0  0  0  0  0  0  0
   -7.7696    0.4456    1.9194 H   0  0  0  0  0  0  0  0  0  0  0  0
   -6.7068    1.8220    2.1777 H   0  0  0  0  0  0  0  0  0  0  0  0
    0.1123   -0.5144   -0.6142 H   0  0  0  0  0  0  0  0  0  0  0  0
   -0.8041   -1.6985    0.3170 H   0  0  0  0  0  0  0  0  0  0  0  0
    2.1418    0.4358   -0.3511 H   0  0  0  0  0  0  0  0  0  0  0  0
    3.1271    0.7682    1.0760 H   0  0  0  0  0  0  0  0  0  0  0  0
    4.0649   -0.5810   -1.5186 H   0  0  0  0  0  0  0  0  0  0  0  0
    4.4738    1.0400   -0.9177 H   0  0  0  0  0  0  0  0  0  0  0  0
    6.3177    0.6077   -2.0859 H   0  0  0  0  0  0  0  0  0  0  0  0
  1  2  1  0
  2  3  1  0
  3  4  2  0
  4  5  1  0
  5  6  2  0
  6  7  1  0
  7  8  1  0
  8  9  1  0
  9 10  1  0
 10 11  1  0
 11 12  1  0
 12 13  2  0
 12 14  1  0
 14 15  1  0
 15 16  1  0
 16 17  1  0
 17 18  1  0
 18 19  1  0
 19 20  2  0
 20 21  1  0
 21 22  2  0
 22 23  1  0
 23 24  2  0
 24 25  1  0
 25 26  2  0
 26 27  1  0
 27 28  1  0
 28 29  1  0
 29 30  1  0
 30 31  1  0
 31 32  1  0
 18 33  1  0
 11 34  1  0
 34 35  1  0
  7 36  2  0
 36  3  1  0
 35  8  1  0
 33 14  1  0
 24 19  1  0
 32 26  1  0
 27 23  1  0
  1 37  1  0
  1 38  1  0
  1 39  1  0
  4 40  1  0
  5 41  1  0
  6 42  1  0
  9 43  1  0
  9 44  1  0
 10 45  1  0
 10 46  1  0
 14 47  1  0
 15 48  1  0
 15 49  1  0
 16 50  1  0
 16 51  1  0
 17 52  1  0
 17 53  1  0
 21 54  1  0
 28 55  1  0
 28 56  1  0
 29 57  1  0
 29 58  1  0
 30 59  1  0
 30 60  1  0
 31 61  1  0
 31 62  1  0
 32 63  1  0
 32 64  1  0
 33 65  1  0
 33 66  1  0
 34 67  1  0
 34 68  1  0
 35 69  1  0
 35 70  1  0
 36 71  1  0
M  END
$$$$
