
     RDKit          3D

 48 50  0  0  0  0  0  0  0  0999 V2000
    5.1456    1.3273   -2.6719 C   0  0  0  0  0  0  0  0  0  0  0  0
    4.5130    2.1300   -1.6818 O   0  0  0  0  0  0  0  0  0  0  0  0
    3.8803    1.4729   -0.6626 C   0  0  0  0  0  0  0  0  0  0  0  0
    3.3060    2.3046    0.3003 C   0  0  0  0  0  0  0  0  0  0  0  0
    2.6281    1.7674    1.3969 C   0  0  0  0  0  0  0  0  0  0  0  0
    2.5100    0.3816    1.5412 C   0  0  0  0  0  0  0  0  0  0  0  0
    1.7511   -0.2079    2.7086 C   0  0  0  0  0  0  0  0  0  0  0  0
    0.4990   -0.9905    2.3258 C   0  0  0  0  0  0  0  0  0  0  0  0
    0.2159   -2.0248    2.9246 O   0  0  0  0  0  0  0  0  0  0  0  0
   -0.2574   -0.3833    1.3363 N   0  0  0  0  0  0  0  0  0  0  0  0
   -1.4686   -0.8515    0.8503 C   0  0  0  0  0  0  0  0  0  0  0  0
   -2.2344   -1.9494    1.1809 C   0  0  0  0  0  0  0  0  0  0  0  0
   -3.3667   -1.8811    0.3740 C   0  0  0  0  0  0  0  0  0  0  0  0
   -3.3594   -0.8480   -0.4554 N   0  0  0  0  0  0  0  0  0  0  0  0
   -2.1939   -0.2060   -0.1630 N   0  0  0  0  0  0  0  0  0  0  0  0
   -1.8676    1.0254   -0.9182 C   0  0  0  0  0  0  0  0  0  0  0  0
   -1.7639    2.2350    0.0317 C   0  0  0  0  0  0  0  0  0  0  0  0
   -0.5636    0.8407   -1.7195 C   0  0  0  0  0  0  0  0  0  0  0  0
   -2.9750    1.3718   -1.9532 C   0  0  0  0  0  0  0  0  0  0  0  0
   -4.3990   -2.9149    0.5098 C   0  0  0  0  0  0  0  0  0  0  0  0
   -3.6551   -4.1588    1.6738 S   0  0  0  0  0  3  0  0  0  0  0  0
   -4.6332   -4.2436    3.0165 O   0  0  0  0  0  1  0  0  0  0  0  0
   -2.1765   -3.0905    2.1075 C   0  0  0  0  0  0  0  0  0  0  0  0
    3.0930   -0.4521    0.5771 C   0  0  0  0  0  0  0  0  0  0  0  0
    3.7718    0.0906   -0.5195 C   0  0  0  0  0  0  0  0  0  0  0  0
    5.9332    0.7044   -2.2337 H   0  0  0  0  0  0  0  0  0  0  0  0
    4.4129    0.7182   -3.2109 H   0  0  0  0  0  0  0  0  0  0  0  0
    5.6165    1.9981   -3.3963 H   0  0  0  0  0  0  0  0  0  0  0  0
    3.3980    3.3848    0.2003 H   0  0  0  0  0  0  0  0  0  0  0  0
    2.2018    2.4434    2.1367 H   0  0  0  0  0  0  0  0  0  0  0  0
    1.4404    0.5803    3.4075 H   0  0  0  0  0  0  0  0  0  0  0  0
    2.4264   -0.8753    3.2600 H   0  0  0  0  0  0  0  0  0  0  0  0
    0.1292    0.4566    0.9301 H   0  0  0  0  0  0  0  0  0  0  0  0
   -2.6794    2.3461    0.6259 H   0  0  0  0  0  0  0  0  0  0  0  0
   -0.9297    2.1586    0.7336 H   0  0  0  0  0  0  0  0  0  0  0  0
   -1.6172    3.1651   -0.5308 H   0  0  0  0  0  0  0  0  0  0  0  0
   -0.3599    1.7169   -2.3455 H   0  0  0  0  0  0  0  0  0  0  0  0
   -0.6303   -0.0324   -2.3794 H   0  0  0  0  0  0  0  0  0  0  0  0
    0.3128    0.6983   -1.0835 H   0  0  0  0  0  0  0  0  0  0  0  0
   -3.1045    0.5684   -2.6880 H   0  0  0  0  0  0  0  0  0  0  0  0
   -2.7253    2.2830   -2.5094 H   0  0  0  0  0  0  0  0  0  0  0  0
   -3.9428    1.5433   -1.4662 H   0  0  0  0  0  0  0  0  0  0  0  0
   -5.3160   -2.5297    0.9608 H   0  0  0  0  0  0  0  0  0  0  0  0
   -4.6160   -3.4257   -0.4313 H   0  0  0  0  0  0  0  0  0  0  0  0
   -2.2807   -2.7934    3.1546 H   0  0  0  0  0  0  0  0  0  0  0  0
   -1.2968   -3.7222    1.9559 H   0  0  0  0  0  0  0  0  0  0  0  0
    3.0221   -1.5367    0.6683 H   0  0  0  0  0  0  0  0  0  0  0  0
    4.2055   -0.5951   -1.2400 H   0  0  0  0  0  0  0  0  0  0  0  0
  1  2  1  0
  2  3  1  0
  3  4  2  0
  4  5  1  0
  5  6  2  0
  6  7  1  0
  7  8  1  0
  8  9  2  0
  8 10  1  0
 10 11  1  0
 11 12  2  0
 12 13  1  0
 13 14  2  0
 14 15  1  0
 15 16  1  0
 16 17  1  0
 16 18  1  0
 16 19  1  0
 13 20  1  0
 20 21  1  0
 21 22  1  0
 21 23  1  0
  6 24  1  0
 24 25  2  0
 25  3  1  0
 15 11  1  0
 23 12  1  0
  1 26  1  0
  1 27  1  0
  1 28  1  0
  4 29  1  0
  5 30  1  0
  7 31  1  0
  7 32  1  0
 10 33  1  0
 17 34  1  0
 17 35  1  0
 17 36  1  0
 18 37  1  0
 18 38  1  0
 18 39  1  0
 19 40  1  0
 19 41  1  0
 19 42  1  0
 20 43  1  0
 20 44  1  0
 23 45  1  0
 23 46  1  0
 24 47  1  0
 25 48  1  0
M  CHG  2  21   1  22  -1
M  END
$$$$
