
     RDKit          3D

 59 62  0  0  0  0  0  0  0  0999 V2000
    4.8075   -3.5528   -2.1954 C   0  0  0  0  0  0  0  0  0  0  0  0
    5.5324   -2.3738   -1.8666 O   0  0  0  0  0  0  0  0  0  0  0  0
    4.8575   -1.3935   -1.1827 C   0  0  0  0  0  0  0  0  0  0  0  0
    3.4739   -1.3759   -0.9717 C   0  0  0  0  0  0  0  0  0  0  0  0
    2.8711   -0.3358   -0.2566 C   0  0  0  0  0  0  0  0  0  0  0  0
    1.4795   -0.2511   -0.0148 N   0  0  0  0  0  0  0  0  0  0  0  0
    0.5025   -1.1584   -0.3874 C   0  0  0  0  0  0  0  0  0  0  0  0
    0.6802   -2.2425   -0.9281 O   0  0  0  0  0  0  0  0  0  0  0  0
   -0.8895   -0.7516   -0.0713 C   0  0  0  0  0  0  0  0  0  0  0  0
   -1.3078    0.5871   -0.1102 C   0  0  0  0  0  0  0  0  0  0  0  0
   -2.6361    0.9087    0.1805 C   0  0  0  0  0  0  0  0  0  0  0  0
   -3.1154    2.3043    0.1435 C   0  0  0  0  0  0  0  0  0  0  0  0
   -2.3747    3.3584    0.7121 C   0  0  0  0  0  0  0  0  0  0  0  0
   -2.8343    4.6777    0.6558 C   0  0  0  0  0  0  0  0  0  0  0  0
   -4.0461    4.9676    0.0329 C   0  0  0  0  0  0  0  0  0  0  0  0
   -4.7994    3.9407   -0.5283 C   0  0  0  0  0  0  0  0  0  0  0  0
   -4.3383    2.6227   -0.4689 C   0  0  0  0  0  0  0  0  0  0  0  0
   -3.5792   -0.0119    0.4915 N   0  0  0  0  0  0  0  0  0  0  0  0
   -3.1408   -1.2854    0.4986 C   0  0  0  0  0  0  0  0  0  0  0  0
   -1.8533   -1.7244    0.2319 C   0  0  0  0  0  0  0  0  0  0  0  0
   -1.9291   -3.1278    0.3626 C   0  0  0  0  0  0  0  0  0  0  0  0
   -3.1514   -3.5551    0.6980 N   0  0  0  0  0  0  0  0  0  0  0  0
   -3.8777   -2.4130    0.7693 N   0  0  0  0  0  0  0  0  0  0  0  0
   -5.2920   -2.4885    1.1172 C   0  0  0  0  0  0  0  0  0  0  0  0
   -5.5989   -1.7669    2.4298 C   0  0  0  0  0  0  0  0  0  0  0  0
   -6.1909   -2.0003   -0.0188 C   0  0  0  0  0  0  0  0  0  0  0  0
    3.6669    0.7062    0.2458 C   0  0  0  0  0  0  0  0  0  0  0  0
    5.0483    0.7204    0.0329 C   0  0  0  0  0  0  0  0  0  0  0  0
    5.9019    1.7037    0.4659 O   0  0  0  0  0  0  0  0  0  0  0  0
    5.3478    2.7874    1.1951 C   0  0  0  0  0  0  0  0  0  0  0  0
    5.6325   -0.3307   -0.6924 C   0  0  0  0  0  0  0  0  0  0  0  0
    6.9989   -0.3416   -0.8653 O   0  0  0  0  0  0  0  0  0  0  0  0
    7.3334    0.2539   -2.1183 C   0  0  0  0  0  0  0  0  0  0  0  0
    5.5100   -4.2622   -2.6387 H   0  0  0  0  0  0  0  0  0  0  0  0
    4.3772   -4.0198   -1.3045 H   0  0  0  0  0  0  0  0  0  0  0  0
    4.0375   -3.3398   -2.9425 H   0  0  0  0  0  0  0  0  0  0  0  0
    2.8654   -2.1725   -1.3754 H   0  0  0  0  0  0  0  0  0  0  0  0
    1.1858    0.5418    0.5390 H   0  0  0  0  0  0  0  0  0  0  0  0
   -0.6234    1.3727   -0.4159 H   0  0  0  0  0  0  0  0  0  0  0  0
   -1.4391    3.1598    1.2291 H   0  0  0  0  0  0  0  0  0  0  0  0
   -2.2517    5.4780    1.1062 H   0  0  0  0  0  0  0  0  0  0  0  0
   -4.4055    5.9929   -0.0096 H   0  0  0  0  0  0  0  0  0  0  0  0
   -5.7478    4.1614   -1.0118 H   0  0  0  0  0  0  0  0  0  0  0  0
   -4.9433    1.8330   -0.9124 H   0  0  0  0  0  0  0  0  0  0  0  0
   -1.1389   -3.8567    0.2265 H   0  0  0  0  0  0  0  0  0  0  0  0
   -5.5073   -3.5543    1.2737 H   0  0  0  0  0  0  0  0  0  0  0  0
   -4.9428   -2.1215    3.2335 H   0  0  0  0  0  0  0  0  0  0  0  0
   -5.4633   -0.6833    2.3436 H   0  0  0  0  0  0  0  0  0  0  0  0
   -6.6346   -1.9479    2.7361 H   0  0  0  0  0  0  0  0  0  0  0  0
   -7.2465   -2.1506    0.2308 H   0  0  0  0  0  0  0  0  0  0  0  0
   -5.9818   -2.5478   -0.9428 H   0  0  0  0  0  0  0  0  0  0  0  0
   -6.0476   -0.9349   -0.2245 H   0  0  0  0  0  0  0  0  0  0  0  0
    3.1914    1.5125    0.7957 H   0  0  0  0  0  0  0  0  0  0  0  0
    4.8965    2.4446    2.1311 H   0  0  0  0  0  0  0  0  0  0  0  0
    6.1627    3.4720    1.4501 H   0  0  0  0  0  0  0  0  0  0  0  0
    4.6253    3.3384    0.5866 H   0  0  0  0  0  0  0  0  0  0  0  0
    7.0212   -0.3840   -2.9501 H   0  0  0  0  0  0  0  0  0  0  0  0
    8.4220    0.3561   -2.1616 H   0  0  0  0  0  0  0  0  0  0  0  0
    6.8994    1.2542   -2.2224 H   0  0  0  0  0  0  0  0  0  0  0  0
  1  2  1  0
  2  3  1  0
  3  4  2  0
  4  5  1  0
  5  6  1  0
  6  7  1  0
  7  8  2  0
  7  9  1  0
  9 10  2  0
 10 11  1  0
 11 12  1  0
 12 13  2  0
 13 14  1  0
 14 15  2  0
 15 16  1  0
 16 17  2  0
 11 18  2  0
 18 19  1  0
 19 20  2  0
 20 21  1  0
 21 22  2  0
 22 23  1  0
 23 24  1  0
 24 25  1  0
 24 26  1  0
  5 27  2  0
 27 28  1  0
 28 29  1  0
 29 30  1  0
 28 31  2  0
 31 32  1  0
 32 33  1  0
 31  3  1  0
 20  9  1  0
 17 12  1  0
 23 19  1  0
  1 34  1  0
  1 35  1  0
  1 36  1  0
  4 37  1  0
  6 38  1  0
 10 39  1  0
 13 40  1  0
 14 41  1  0
 15 42  1  0
 16 43  1  0
 17 44  1  0
 21 45  1  0
 24 46  1  0
 25 47  1  0
 25 48  1  0
 25 49  1  0
 26 50  1  0
 26 51  1  0
 26 52  1  0
 27 53  1  0
 30 54  1  0
 30 55  1  0
 30 56  1  0
 33 57  1  0
 33 58  1  0
 33 59  1  0
M  END
$$$$
