
     RDKit          3D

 32 32  0  0  0  0  0  0  0  0999 V2000
    5.6117   -1.9117   -0.3291 C   0  0  0  0  0  0  0  0  0  0  0  0
    5.4142   -0.5566    0.3288 C   0  0  0  0  0  0  0  0  0  0  0  0
    4.4934    0.5826   -0.7461 S   0  0  0  0  0  0  0  0  0  0  0  0
    2.8473    0.0414   -0.5156 C   0  0  0  0  0  0  0  0  0  0  0  0
    2.5088   -0.9047    0.3317 N   0  0  0  0  0  0  0  0  0  0  0  0
    1.1512   -1.1504    0.3207 N   0  0  0  0  0  0  0  0  0  0  0  0
    0.5021   -0.3492   -0.4918 C   0  0  0  0  0  0  0  0  0  0  0  0
   -0.8402   -0.4371   -0.7052 N   0  0  0  0  0  0  0  0  0  0  0  0
   -1.7571    0.4657    0.1030 C   0  0  0  0  0  0  0  0  0  0  0  0
   -2.9709    0.1786   -0.6964 N   0  0  0  0  0  0  0  0  0  0  0  0
   -4.2151    0.6423   -0.3756 C   0  0  0  0  0  0  0  0  0  0  0  0
   -5.2692    0.3832   -1.4172 C   0  0  0  0  0  0  0  0  0  0  0  0
   -4.4570    1.2233    0.6710 O   0  0  0  0  0  0  0  0  0  0  0  0
   -1.8137    0.0580    1.6095 C   0  0  0  0  0  0  0  0  0  0  0  0
   -2.2020   -1.2436    1.7133 F   0  0  0  0  0  0  0  0  0  0  0  0
   -2.6468    0.7871    2.3714 F   0  0  0  0  0  0  0  0  0  0  0  0
   -0.5940    0.1360    2.1941 F   0  0  0  0  0  0  0  0  0  0  0  0
   -1.3753    1.9728    0.1333 C   0  0  0  0  0  0  0  0  0  0  0  0
   -0.1828    2.1966    0.7319 F   0  0  0  0  0  0  0  0  0  0  0  0
   -2.2771    2.7541    0.7607 F   0  0  0  0  0  0  0  0  0  0  0  0
   -1.2707    2.4554   -1.1361 F   0  0  0  0  0  0  0  0  0  0  0  0
    1.5290    0.7030   -1.3869 S   0  0  0  0  0  0  0  0  0  0  0  0
    6.2032   -2.5591    0.3269 H   0  0  0  0  0  0  0  0  0  0  0  0
    6.1526   -1.8211   -1.2772 H   0  0  0  0  0  0  0  0  0  0  0  0
    4.6608   -2.4188   -0.5200 H   0  0  0  0  0  0  0  0  0  0  0  0
    6.3949   -0.1073    0.5176 H   0  0  0  0  0  0  0  0  0  0  0  0
    4.9193   -0.6596    1.2997 H   0  0  0  0  0  0  0  0  0  0  0  0
   -1.1336   -1.3845   -0.4490 H   0  0  0  0  0  0  0  0  0  0  0  0
   -2.7780   -0.0372   -1.6654 H   0  0  0  0  0  0  0  0  0  0  0  0
   -5.5307    1.3264   -1.9037 H   0  0  0  0  0  0  0  0  0  0  0  0
   -4.9211   -0.3239   -2.1754 H   0  0  0  0  0  0  0  0  0  0  0  0
   -6.1532   -0.0414   -0.9333 H   0  0  0  0  0  0  0  0  0  0  0  0
  1  2  1  0
  2  3  1  0
  3  4  1  0
  4  5  2  0
  5  6  1  0
  6  7  2  0
  7  8  1  0
  8  9  1  0
  9 10  1  0
 10 11  1  0
 11 12  1  0
 11 13  2  0
  9 14  1  0
 14 15  1  0
 14 16  1  0
 14 17  1  0
  9 18  1  0
 18 19  1  0
 18 20  1  0
 18 21  1  0
  7 22  1  0
 22  4  1  0
  1 23  1  0
  1 24  1  0
  1 25  1  0
  2 26  1  0
  2 27  1  0
  8 28  1  0
 10 29  1  0
 12 30  1  0
 12 31  1  0
 12 32  1  0
M  END
$$$$
