
     RDKit          3D

 47 48  0  0  0  0  0  0  0  0999 V2000
    6.0824   -2.3970    0.1668 C   0  0  0  0  0  0  0  0  0  0  0  0
    5.0725   -2.4245   -0.9648 C   0  0  0  0  0  0  0  0  0  0  0  0
    4.5799   -1.1009   -1.2175 O   0  0  0  0  0  0  0  0  0  0  0  0
    3.5153   -0.6999   -0.4639 C   0  0  0  0  0  0  0  0  0  0  0  0
    2.9757   -1.4079    0.3753 O   0  0  0  0  0  0  0  0  0  0  0  0
    3.0694    0.6662   -0.7590 C   0  0  0  0  0  0  0  0  0  0  0  0
    3.7745    1.6040   -1.5165 C   0  0  0  0  0  0  0  0  0  0  0  0
    5.0763    1.5217   -2.2367 C   0  0  0  0  0  0  0  0  0  0  0  0
    3.0720    2.7787   -1.5060 N   0  0  0  0  0  0  0  0  0  0  0  0
    1.9256    2.6368   -0.7771 C   0  0  0  0  0  0  0  0  0  0  0  0
    0.9816    3.7785   -0.6118 C   0  0  0  0  0  0  0  0  0  0  0  0
    1.8635    1.3283   -0.3008 C   0  0  0  0  0  0  0  0  0  0  0  0
    0.7245    0.8377    0.5061 C   0  0  0  0  0  0  0  0  0  0  0  0
    0.0773    1.6267    1.2015 O   0  0  0  0  0  0  0  0  0  0  0  0
    0.2823   -0.6202    0.3952 C   0  0  0  0  0  0  0  0  0  0  0  0
   -1.1442   -0.7331    0.5138 O   0  0  0  0  0  0  0  0  0  0  0  0
   -1.6057   -0.8939    1.7765 C   0  0  0  0  0  0  0  0  0  0  0  0
   -0.9312   -1.0502    2.7829 O   0  0  0  0  0  0  0  0  0  0  0  0
   -3.0828   -0.8852    1.8265 C   0  0  0  0  0  0  0  0  0  0  0  0
   -3.8799   -0.6949    0.7631 C   0  0  0  0  0  0  0  0  0  0  0  0
   -5.3470   -0.6916    0.8373 C   0  0  0  0  0  0  0  0  0  0  0  0
   -6.0403   -0.0985    1.9024 C   0  0  0  0  0  0  0  0  0  0  0  0
   -7.4388   -0.0931    1.9255 C   0  0  0  0  0  0  0  0  0  0  0  0
   -8.1511   -0.6702    0.8767 C   0  0  0  0  0  0  0  0  0  0  0  0
   -9.8711   -0.6631    0.9048 Cl  0  0  0  0  0  0  0  0  0  0  0  0
   -7.4777   -1.2470   -0.1973 C   0  0  0  0  0  0  0  0  0  0  0  0
   -6.0794   -1.2526   -0.2184 C   0  0  0  0  0  0  0  0  0  0  0  0
    6.8997   -1.7060   -0.0661 H   0  0  0  0  0  0  0  0  0  0  0  0
    6.5010   -3.3925    0.3386 H   0  0  0  0  0  0  0  0  0  0  0  0
    5.6236   -2.0458    1.0969 H   0  0  0  0  0  0  0  0  0  0  0  0
    4.2542   -3.1238   -0.7578 H   0  0  0  0  0  0  0  0  0  0  0  0
    5.5603   -2.7652   -1.8843 H   0  0  0  0  0  0  0  0  0  0  0  0
    5.0219    0.7841   -3.0439 H   0  0  0  0  0  0  0  0  0  0  0  0
    5.3505    2.4831   -2.6849 H   0  0  0  0  0  0  0  0  0  0  0  0
    5.8790    1.2366   -1.5484 H   0  0  0  0  0  0  0  0  0  0  0  0
    3.3636    3.6341   -1.9632 H   0  0  0  0  0  0  0  0  0  0  0  0
   -0.0382    3.4761   -0.8714 H   0  0  0  0  0  0  0  0  0  0  0  0
    1.2530    4.6200   -1.2584 H   0  0  0  0  0  0  0  0  0  0  0  0
    0.9901    4.1330    0.4240 H   0  0  0  0  0  0  0  0  0  0  0  0
    0.7844   -1.2234    1.1557 H   0  0  0  0  0  0  0  0  0  0  0  0
    0.5371   -1.0066   -0.5962 H   0  0  0  0  0  0  0  0  0  0  0  0
   -3.4807   -1.0519    2.8222 H   0  0  0  0  0  0  0  0  0  0  0  0
   -3.4596   -0.5469   -0.2294 H   0  0  0  0  0  0  0  0  0  0  0  0
   -5.5032    0.3754    2.7215 H   0  0  0  0  0  0  0  0  0  0  0  0
   -7.9614    0.3657    2.7608 H   0  0  0  0  0  0  0  0  0  0  0  0
   -8.0312   -1.6929   -1.0196 H   0  0  0  0  0  0  0  0  0  0  0  0
   -5.5681   -1.7082   -1.0634 H   0  0  0  0  0  0  0  0  0  0  0  0
  1  2  1  0
  2  3  1  0
  3  4  1  0
  4  5  2  0
  4  6  1  0
  6  7  2  0
  7  8  1  0
  7  9  1  0
  9 10  1  0
 10 11  1  0
 10 12  2  0
 12 13  1  0
 13 14  2  0
 13 15  1  0
 15 16  1  0
 16 17  1  0
 17 18  2  0
 17 19  1  0
 19 20  2  3
 20 21  1  0
 21 22  2  0
 22 23  1  0
 23 24  2  0
 24 25  1  0
 24 26  1  0
 26 27  2  0
 12  6  1  0
 27 21  1  0
  1 28  1  0
  1 29  1  0
  1 30  1  0
  2 31  1  0
  2 32  1  0
  8 33  1  0
  8 34  1  0
  8 35  1  0
  9 36  1  0
 11 37  1  0
 11 38  1  0
 11 39  1  0
 15 40  1  0
 15 41  1  0
 19 42  1  0
 20 43  1  0
 22 44  1  0
 23 45  1  0
 26 46  1  0
 27 47  1  0
M  END
$$$$
