
     RDKit          3D

 45 46  0  0  0  0  0  0  0  0999 V2000
    5.4090    1.3467   -1.8562 C   0  0  0  0  0  0  0  0  0  0  0  0
    5.4059   -0.0143   -1.4189 O   0  0  0  0  0  0  0  0  0  0  0  0
    4.2059   -0.3043   -0.8197 C   0  0  0  0  0  0  0  0  0  0  0  0
    4.1841   -0.3337    0.5747 C   0  0  0  0  0  0  0  0  0  0  0  0
    2.9911   -0.5944    1.2427 C   0  0  0  0  0  0  0  0  0  0  0  0
    1.8194   -0.8206    0.5161 C   0  0  0  0  0  0  0  0  0  0  0  0
    1.8269   -0.8006   -0.8883 C   0  0  0  0  0  0  0  0  0  0  0  0
    0.5949   -1.0762   -1.6486 C   0  0  0  0  0  0  0  0  0  0  0  0
   -0.6102   -0.5082   -1.4858 C   0  0  0  0  0  0  0  0  0  0  0  0
   -0.9140    0.5697   -0.5134 C   0  0  0  0  0  0  0  0  0  0  0  0
   -0.2477    1.5998   -0.4982 O   0  0  0  0  0  0  0  0  0  0  0  0
   -2.0026    0.3449    0.3181 N   0  0  0  0  0  0  0  0  0  0  0  0
   -2.2536    1.3318    1.3692 C   0  0  0  0  0  0  0  0  0  0  0  0
   -3.7300    1.3483    1.7925 C   0  0  0  0  0  0  0  0  0  0  0  0
   -3.9347    2.2381    3.0117 C   0  0  0  0  0  0  0  0  0  0  0  0
   -4.1873    0.0297    2.1396 O   0  0  0  0  0  0  0  0  0  0  0  0
   -4.0113   -0.9259    1.0811 C   0  0  0  0  0  0  0  0  0  0  0  0
   -4.9876   -0.6781   -0.0678 C   0  0  0  0  0  0  0  0  0  0  0  0
   -2.5491   -0.9860    0.6068 C   0  0  0  0  0  0  0  0  0  0  0  0
    3.0477   -0.5933   -1.5583 C   0  0  0  0  0  0  0  0  0  0  0  0
    3.0373   -0.6292   -2.9334 O   0  0  0  0  0  0  0  0  0  0  0  0
    3.9796   -1.5606   -3.4648 C   0  0  0  0  0  0  0  0  0  0  0  0
    6.3840    1.5465   -2.3116 H   0  0  0  0  0  0  0  0  0  0  0  0
    4.6403    1.5324   -2.6139 H   0  0  0  0  0  0  0  0  0  0  0  0
    5.2847    2.0306   -1.0087 H   0  0  0  0  0  0  0  0  0  0  0  0
    5.0938   -0.1398    1.1369 H   0  0  0  0  0  0  0  0  0  0  0  0
    2.9676   -0.6118    2.3288 H   0  0  0  0  0  0  0  0  0  0  0  0
    0.8991   -1.0152    1.0608 H   0  0  0  0  0  0  0  0  0  0  0  0
    0.7157   -1.8074   -2.4448 H   0  0  0  0  0  0  0  0  0  0  0  0
   -1.4339   -0.7913   -2.1310 H   0  0  0  0  0  0  0  0  0  0  0  0
   -1.9475    2.3308    1.0394 H   0  0  0  0  0  0  0  0  0  0  0  0
   -1.6145    1.0489    2.2154 H   0  0  0  0  0  0  0  0  0  0  0  0
   -4.3515    1.7356    0.9769 H   0  0  0  0  0  0  0  0  0  0  0  0
   -3.6331    3.2698    2.8065 H   0  0  0  0  0  0  0  0  0  0  0  0
   -3.3619    1.8681    3.8692 H   0  0  0  0  0  0  0  0  0  0  0  0
   -4.9873    2.2352    3.3142 H   0  0  0  0  0  0  0  0  0  0  0  0
   -4.2647   -1.9012    1.5135 H   0  0  0  0  0  0  0  0  0  0  0  0
   -6.0073   -0.5672    0.3155 H   0  0  0  0  0  0  0  0  0  0  0  0
   -4.9693   -1.5111   -0.7784 H   0  0  0  0  0  0  0  0  0  0  0  0
   -4.7509    0.2357   -0.6212 H   0  0  0  0  0  0  0  0  0  0  0  0
   -1.9237   -1.3982    1.4088 H   0  0  0  0  0  0  0  0  0  0  0  0
   -2.4580   -1.6560   -0.2519 H   0  0  0  0  0  0  0  0  0  0  0  0
    4.9269   -1.0605   -3.6839 H   0  0  0  0  0  0  0  0  0  0  0  0
    3.5767   -1.9349   -4.4109 H   0  0  0  0  0  0  0  0  0  0  0  0
    4.1407   -2.4228   -2.8067 H   0  0  0  0  0  0  0  0  0  0  0  0
  1  2  1  0
  2  3  1  0
  3  4  2  0
  4  5  1  0
  5  6  2  0
  6  7  1  0
  7  8  1  0
  8  9  2  3
  9 10  1  0
 10 11  2  0
 10 12  1  0
 12 13  1  0
 13 14  1  0
 14 15  1  0
 14 16  1  0
 16 17  1  0
 17 18  1  0
 17 19  1  0
  7 20  2  0
 20 21  1  0
 21 22  1  0
 20  3  1  0
 19 12  1  0
  1 23  1  0
  1 24  1  0
  1 25  1  0
  4 26  1  0
  5 27  1  0
  6 28  1  0
  8 29  1  0
  9 30  1  0
 13 31  1  0
 13 32  1  0
 14 33  1  0
 15 34  1  0
 15 35  1  0
 15 36  1  0
 17 37  1  0
 18 38  1  0
 18 39  1  0
 18 40  1  0
 19 41  1  0
 19 42  1  0
 22 43  1  0
 22 44  1  0
 22 45  1  0
M  END
$$$$
