
     RDKit          3D

 38 39  0  0  0  0  0  0  0  0999 V2000
    6.6565   -0.3311    1.1966 C   0  0  0  0  0  0  0  0  0  0  0  0
    5.1900   -0.1677    0.9321 C   0  0  0  0  0  0  0  0  0  0  0  0
    4.2921    0.0140    1.9849 C   0  0  0  0  0  0  0  0  0  0  0  0
    2.9209    0.1343    1.7321 C   0  0  0  0  0  0  0  0  0  0  0  0
    2.4055    0.0697    0.4274 C   0  0  0  0  0  0  0  0  0  0  0  0
    1.0225    0.1895    0.2505 N   0  0  0  0  0  0  0  0  0  0  0  0
    0.1814    0.1787   -0.8599 C   0  0  0  0  0  0  0  0  0  0  0  0
    0.6413   -0.0042   -2.0835 N   0  0  0  0  0  0  0  0  0  0  0  0
   -0.2974    0.0182   -3.0132 C   0  0  0  0  0  0  0  0  0  0  0  0
    0.2370   -0.2179   -4.6200 Cl  0  0  0  0  0  0  0  0  0  0  0  0
   -1.6002    0.1890   -2.8563 N   0  0  0  0  0  0  0  0  0  0  0  0
   -1.9599    0.3618   -1.6001 C   0  0  0  0  0  0  0  0  0  0  0  0
   -3.3113    0.5609   -1.4032 N   0  0  0  0  0  0  0  0  0  0  0  0
   -4.0078    0.1321   -0.1862 C   0  0  0  0  0  0  0  0  0  0  0  0
   -3.7770   -1.3588    0.0999 C   0  0  0  0  0  0  0  0  0  0  0  0
   -5.5142    0.3468   -0.4453 C   0  0  0  0  0  0  0  0  0  0  0  0
   -3.6141    0.9945    1.0219 C   0  0  0  0  0  0  0  0  0  0  0  0
   -1.1088    0.3604   -0.5826 N   0  0  0  0  0  0  0  0  0  0  0  0
    3.3143   -0.1322   -0.6145 C   0  0  0  0  0  0  0  0  0  0  0  0
    4.6883   -0.2532   -0.3685 C   0  0  0  0  0  0  0  0  0  0  0  0
    6.8935   -1.3881    1.3519 H   0  0  0  0  0  0  0  0  0  0  0  0
    6.9586    0.2337    2.0849 H   0  0  0  0  0  0  0  0  0  0  0  0
    7.2493    0.0451    0.3561 H   0  0  0  0  0  0  0  0  0  0  0  0
    4.6499    0.0641    3.0107 H   0  0  0  0  0  0  0  0  0  0  0  0
    2.2527    0.2785    2.5778 H   0  0  0  0  0  0  0  0  0  0  0  0
    0.4758    0.3727    1.0797 H   0  0  0  0  0  0  0  0  0  0  0  0
   -3.7687    0.3025   -2.2726 H   0  0  0  0  0  0  0  0  0  0  0  0
   -2.7345   -1.5713    0.3585 H   0  0  0  0  0  0  0  0  0  0  0  0
   -4.0302   -1.9731   -0.7719 H   0  0  0  0  0  0  0  0  0  0  0  0
   -4.3936   -1.6981    0.9401 H   0  0  0  0  0  0  0  0  0  0  0  0
   -5.7308    1.3979   -0.6702 H   0  0  0  0  0  0  0  0  0  0  0  0
   -5.8586   -0.2463   -1.3008 H   0  0  0  0  0  0  0  0  0  0  0  0
   -6.1152    0.0579    0.4243 H   0  0  0  0  0  0  0  0  0  0  0  0
   -3.6887    2.0625    0.7871 H   0  0  0  0  0  0  0  0  0  0  0  0
   -2.5914    0.8014    1.3585 H   0  0  0  0  0  0  0  0  0  0  0  0
   -4.2690    0.7931    1.8778 H   0  0  0  0  0  0  0  0  0  0  0  0
    2.9809   -0.2026   -1.6450 H   0  0  0  0  0  0  0  0  0  0  0  0
    5.3609   -0.4148   -1.2082 H   0  0  0  0  0  0  0  0  0  0  0  0
  1  2  1  0
  2  3  2  0
  3  4  1  0
  4  5  2  0
  5  6  1  0
  6  7  1  0
  7  8  2  0
  8  9  1  0
  9 10  1  0
  9 11  2  0
 11 12  1  0
 12 13  1  0
 13 14  1  0
 14 15  1  0
 14 16  1  0
 14 17  1  0
 12 18  2  0
  5 19  1  0
 19 20  2  0
 20  2  1  0
 18  7  1  0
  1 21  1  0
  1 22  1  0
  1 23  1  0
  3 24  1  0
  4 25  1  0
  6 26  1  0
 13 27  1  0
 15 28  1  0
 15 29  1  0
 15 30  1  0
 16 31  1  0
 16 32  1  0
 16 33  1  0
 17 34  1  0
 17 35  1  0
 17 36  1  0
 19 37  1  0
 20 38  1  0
M  END
$$$$
