
     RDKit          3D

 65 69  0  0  0  0  0  0  0  0999 V2000
    5.0648   -3.2526   -0.6707 C   0  0  0  0  0  0  0  0  0  0  0  0
    4.7433   -1.8908   -0.9270 O   0  0  0  0  0  0  0  0  0  0  0  0
    3.4266   -1.5228   -0.8332 C   0  0  0  0  0  0  0  0  0  0  0  0
    2.3712   -2.4173   -0.6374 C   0  0  0  0  0  0  0  0  0  0  0  0
    1.0532   -1.9609   -0.5532 C   0  0  0  0  0  0  0  0  0  0  0  0
    0.7588   -0.5975   -0.6655 C   0  0  0  0  0  0  0  0  0  0  0  0
   -0.6683   -0.0706   -0.5657 C   0  0  0  0  0  0  0  0  0  0  0  0
   -1.4488   -0.4175   -1.8594 C   0  0  0  0  0  0  0  0  0  0  0  0
   -1.2544    0.6512   -2.8583 C   0  0  0  0  0  0  0  0  0  0  0  0
   -1.0893    1.4940   -3.6394 N   0  0  0  0  0  0  0  0  0  0  0  0
   -2.9643   -0.6223   -1.6673 C   0  0  0  0  0  0  0  0  0  0  0  0
   -3.6409   -1.1986   -2.6213 N   0  0  0  0  0  0  0  0  0  0  0  0
   -3.5585   -0.1880   -0.4719 N   0  0  0  0  0  0  0  0  0  0  0  0
   -4.9948   -0.1806   -0.4038 C   0  0  0  0  0  0  0  0  0  0  0  0
   -5.7118    0.7551   -1.1740 C   0  0  0  0  0  0  0  0  0  0  0  0
   -7.1051    0.8124   -1.1148 C   0  0  0  0  0  0  0  0  0  0  0  0
   -7.8051   -0.0672   -0.2923 C   0  0  0  0  0  0  0  0  0  0  0  0
   -7.1144   -1.0156    0.4636 C   0  0  0  0  0  0  0  0  0  0  0  0
   -5.7146   -1.0823    0.4088 C   0  0  0  0  0  0  0  0  0  0  0  0
   -5.0413   -2.1019    1.1603 C   0  0  0  0  0  0  0  0  0  0  0  0
   -4.4824   -2.9184    1.7672 N   0  0  0  0  0  0  0  0  0  0  0  0
   -2.7991    0.1079    0.6739 C   0  0  0  0  0  0  0  0  0  0  0  0
   -3.2047    0.9036    1.6859 C   0  0  0  0  0  0  0  0  0  0  0  0
   -2.3654    1.2639    2.8753 C   0  0  0  0  0  0  0  0  0  0  0  0
   -0.8814    1.0909    2.6113 C   0  0  0  0  0  0  0  0  0  0  0  0
   -0.6658   -0.2573    1.9819 C   0  0  0  0  0  0  0  0  0  0  0  0
    0.1290   -1.0630    2.4672 O   0  0  0  0  0  0  0  0  0  0  0  0
   -1.4237   -0.5510    0.6856 C   0  0  0  0  0  0  0  0  0  0  0  0
    1.8174    0.2957   -0.8850 C   0  0  0  0  0  0  0  0  0  0  0  0
    3.1531   -0.1474   -0.9557 C   0  0  0  0  0  0  0  0  0  0  0  0
    4.2599    0.8704   -1.1694 C   0  0  0  0  0  0  0  0  0  0  0  0
    4.8092    1.5326    0.0142 N   0  0  0  0  0  0  0  0  0  0  0  0
    5.4429    0.6526    0.9881 C   0  0  0  0  0  0  0  0  0  0  0  0
    5.7723    1.6201    2.1144 C   0  0  0  0  0  0  0  0  0  0  0  0
    4.7118    2.7145    2.0174 C   0  0  0  0  0  0  0  0  0  0  0  0
    3.9037    2.3834    0.7682 C   0  0  0  0  0  0  0  0  0  0  0  0
    4.6342   -3.9096   -1.4337 H   0  0  0  0  0  0  0  0  0  0  0  0
    6.1531   -3.3538   -0.7237 H   0  0  0  0  0  0  0  0  0  0  0  0
    4.7517   -3.5520    0.3360 H   0  0  0  0  0  0  0  0  0  0  0  0
    2.5391   -3.4847   -0.5370 H   0  0  0  0  0  0  0  0  0  0  0  0
    0.2689   -2.6953   -0.3805 H   0  0  0  0  0  0  0  0  0  0  0  0
   -0.5931    1.0253   -0.4811 H   0  0  0  0  0  0  0  0  0  0  0  0
   -1.0756   -1.3587   -2.2860 H   0  0  0  0  0  0  0  0  0  0  0  0
   -3.0565   -1.4440   -3.4275 H   0  0  0  0  0  0  0  0  0  0  0  0
   -5.1786    1.4418   -1.8292 H   0  0  0  0  0  0  0  0  0  0  0  0
   -7.6442    1.5401   -1.7169 H   0  0  0  0  0  0  0  0  0  0  0  0
   -8.8908   -0.0253   -0.2519 H   0  0  0  0  0  0  0  0  0  0  0  0
   -7.6766   -1.7107    1.0857 H   0  0  0  0  0  0  0  0  0  0  0  0
   -4.1940    1.3577    1.6680 H   0  0  0  0  0  0  0  0  0  0  0  0
   -2.5565    2.3063    3.1514 H   0  0  0  0  0  0  0  0  0  0  0  0
   -2.6800    0.6426    3.7217 H   0  0  0  0  0  0  0  0  0  0  0  0
   -0.4979    1.8592    1.9305 H   0  0  0  0  0  0  0  0  0  0  0  0
   -0.3157    1.1576    3.5466 H   0  0  0  0  0  0  0  0  0  0  0  0
   -1.5747   -1.6391    0.6623 H   0  0  0  0  0  0  0  0  0  0  0  0
    1.6185    1.3610   -0.9971 H   0  0  0  0  0  0  0  0  0  0  0  0
    3.8902    1.6401   -1.8603 H   0  0  0  0  0  0  0  0  0  0  0  0
    5.0839    0.4047   -1.7241 H   0  0  0  0  0  0  0  0  0  0  0  0
    4.7594   -0.1175    1.3618 H   0  0  0  0  0  0  0  0  0  0  0  0
    6.3455    0.1718    0.5984 H   0  0  0  0  0  0  0  0  0  0  0  0
    5.7583    1.1287    3.0915 H   0  0  0  0  0  0  0  0  0  0  0  0
    6.7685    2.0558    1.9712 H   0  0  0  0  0  0  0  0  0  0  0  0
    5.1914    3.6971    1.9328 H   0  0  0  0  0  0  0  0  0  0  0  0
    4.0732    2.7278    2.9078 H   0  0  0  0  0  0  0  0  0  0  0  0
    2.9885    1.8610    1.0681 H   0  0  0  0  0  0  0  0  0  0  0  0
    3.6265    3.2872    0.2178 H   0  0  0  0  0  0  0  0  0  0  0  0
  1  2  1  0
  2  3  1  0
  3  4  2  0
  4  5  1  0
  5  6  2  0
  6  7  1  0
  7  8  1  0
  8  9  1  0
  9 10  3  0
  8 11  1  0
 11 12  2  3
 11 13  1  0
 13 14  1  0
 14 15  2  0
 15 16  1  0
 16 17  2  0
 17 18  1  0
 18 19  2  0
 19 20  1  0
 20 21  3  0
 13 22  1  0
 22 23  2  0
 23 24  1  0
 24 25  1  0
 25 26  1  0
 26 27  2  0
 26 28  1  0
  6 29  1  0
 29 30  2  0
 30 31  1  0
 31 32  1  0
 32 33  1  0
 33 34  1  0
 34 35  1  0
 35 36  1  0
 30  3  1  0
 36 32  1  0
 28  7  1  0
 19 14  1  0
 28 22  1  0
  1 37  1  0
  1 38  1  0
  1 39  1  0
  4 40  1  0
  5 41  1  0
  7 42  1  0
  8 43  1  0
 12 44  1  0
 15 45  1  0
 16 46  1  0
 17 47  1  0
 18 48  1  0
 23 49  1  0
 24 50  1  0
 24 51  1  0
 25 52  1  0
 25 53  1  0
 28 54  1  0
 29 55  1  0
 31 56  1  0
 31 57  1  0
 33 58  1  0
 33 59  1  0
 34 60  1  0
 34 61  1  0
 35 62  1  0
 35 63  1  0
 36 64  1  0
 36 65  1  0
M  END
$$$$
