
     RDKit          3D

 46 50  0  0  0  0  0  0  0  0999 V2000
   -0.6472    2.1531   -2.3910 O   0  0  0  0  0  0  0  0  0  0  0  0
   -0.9550    1.4936   -1.4031 C   0  0  0  0  0  0  0  0  0  0  0  0
   -2.1580    1.8617   -0.6341 C   0  0  0  0  0  0  0  0  0  0  0  0
   -2.8540    3.0390   -0.9288 C   0  0  0  0  0  0  0  0  0  0  0  0
   -3.9588    3.3887   -0.1568 C   0  0  0  0  0  0  0  0  0  0  0  0
   -4.8205    4.8361   -0.5020 Cl  0  0  0  0  0  0  0  0  0  0  0  0
   -4.3673    2.5774    0.9018 C   0  0  0  0  0  0  0  0  0  0  0  0
   -3.6707    1.4003    1.1851 C   0  0  0  0  0  0  0  0  0  0  0  0
   -2.5729    1.0344    0.4067 C   0  0  0  0  0  0  0  0  0  0  0  0
   -1.9611   -0.1391    0.7430 O   0  0  0  0  0  0  0  0  0  0  0  0
   -1.1190   -0.7381   -0.2817 C   0  0  0  0  0  0  0  0  0  0  0  0
   -0.3637   -1.8762    0.4589 C   0  0  0  0  0  0  0  0  0  0  0  0
   -1.2373   -3.1228    0.5808 C   0  0  0  0  0  0  0  0  0  0  0  0
   -1.5468   -3.7071   -0.7219 N   0  0  0  0  0  0  0  0  0  0  0  0
   -1.5624   -2.7431   -1.8189 C   0  0  0  0  0  0  0  0  0  0  0  0
   -2.0386   -1.3643   -1.3752 C   0  0  0  0  0  0  0  0  0  0  0  0
   -0.1401    0.3280   -0.8493 C   0  0  0  0  0  0  0  0  0  0  0  0
    0.8629    0.9026    0.1445 C   0  0  0  0  0  0  0  0  0  0  0  0
    2.1017    0.2393   -0.3457 C   0  0  0  0  0  0  0  0  0  0  0  0
    3.3760    0.2990    0.4085 C   0  0  0  0  0  0  0  0  0  0  0  0
    4.4746   -0.4362   -0.0579 C   0  0  0  0  0  0  0  0  0  0  0  0
    5.6894   -0.4048    0.6323 C   0  0  0  0  0  0  0  0  0  0  0  0
    5.8077    0.3631    1.7882 C   0  0  0  0  0  0  0  0  0  0  0  0
    7.3008    0.4035    2.6406 Cl  0  0  0  0  0  0  0  0  0  0  0  0
    4.7221    1.1008    2.2584 C   0  0  0  0  0  0  0  0  0  0  0  0
    3.5047    1.0708    1.5695 C   0  0  0  0  0  0  0  0  0  0  0  0
    1.9780   -0.3850   -1.4717 N   0  0  0  0  0  0  0  0  0  0  0  0
    0.6452   -0.2251   -1.9113 O   0  0  0  0  0  0  0  0  0  0  0  0
   -2.5303    3.6792   -1.7470 H   0  0  0  0  0  0  0  0  0  0  0  0
   -5.2278    2.8536    1.5068 H   0  0  0  0  0  0  0  0  0  0  0  0
   -3.9942    0.7642    2.0059 H   0  0  0  0  0  0  0  0  0  0  0  0
   -0.0800   -1.5548    1.4684 H   0  0  0  0  0  0  0  0  0  0  0  0
    0.5584   -2.1561   -0.0624 H   0  0  0  0  0  0  0  0  0  0  0  0
   -2.1687   -2.8743    1.1042 H   0  0  0  0  0  0  0  0  0  0  0  0
   -0.7244   -3.8765    1.1877 H   0  0  0  0  0  0  0  0  0  0  0  0
   -2.4344   -4.2069   -0.6706 H   0  0  0  0  0  0  0  0  0  0  0  0
   -0.5585   -2.6756   -2.2536 H   0  0  0  0  0  0  0  0  0  0  0  0
   -2.2141   -3.1217   -2.6144 H   0  0  0  0  0  0  0  0  0  0  0  0
   -3.0676   -1.4511   -0.9998 H   0  0  0  0  0  0  0  0  0  0  0  0
   -2.1028   -0.7181   -2.2581 H   0  0  0  0  0  0  0  0  0  0  0  0
    0.6425    0.6523    1.1846 H   0  0  0  0  0  0  0  0  0  0  0  0
    0.9867    1.9877    0.0566 H   0  0  0  0  0  0  0  0  0  0  0  0
    4.3931   -1.0380   -0.9618 H   0  0  0  0  0  0  0  0  0  0  0  0
    6.5343   -0.9791    0.2608 H   0  0  0  0  0  0  0  0  0  0  0  0
    4.8183    1.7031    3.1586 H   0  0  0  0  0  0  0  0  0  0  0  0
    2.6798    1.6624    1.9553 H   0  0  0  0  0  0  0  0  0  0  0  0
  1  2  2  0
  2  3  1  0
  3  4  2  0
  4  5  1  0
  5  6  1  0
  5  7  2  0
  7  8  1  0
  8  9  2  0
  9 10  1  0
 10 11  1  0
 11 12  1  0
 12 13  1  0
 13 14  1  0
 14 15  1  0
 15 16  1  0
 11 17  1  0
 17 18  1  0
 18 19  1  0
 19 20  1  0
 20 21  2  0
 21 22  1  0
 22 23  2  0
 23 24  1  0
 23 25  1  0
 25 26  2  0
 19 27  2  0
 27 28  1  0
 17  2  1  0
 26 20  1  0
  9  3  1  0
 16 11  1  0
 28 17  1  0
  4 29  1  0
  7 30  1  0
  8 31  1  0
 12 32  1  0
 12 33  1  0
 13 34  1  0
 13 35  1  0
 14 36  1  0
 15 37  1  0
 15 38  1  0
 16 39  1  0
 16 40  1  0
 18 41  1  0
 18 42  1  0
 21 43  1  0
 22 44  1  0
 25 45  1  0
 26 46  1  0
M  END
$$$$
