
     RDKit          3D

 47 50  0  0  0  0  0  0  0  0999 V2000
   -1.6622   -2.9618   -0.4482 O   0  0  0  0  0  0  0  0  0  0  0  0
   -2.5261   -2.1069   -0.4330 C   0  0  0  0  0  0  0  0  0  0  0  0
   -3.6995   -2.1148   -1.3047 C   0  0  0  0  0  0  0  0  0  0  0  0
   -4.0781   -3.0061   -2.2891 C   0  0  0  0  0  0  0  0  0  0  0  0
   -5.2762   -2.7433   -2.9610 C   0  0  0  0  0  0  0  0  0  0  0  0
   -6.0557   -1.6131   -2.6362 C   0  0  0  0  0  0  0  0  0  0  0  0
   -5.6508   -0.7259   -1.6338 C   0  0  0  0  0  0  0  0  0  0  0  0
   -4.4639   -1.0068   -0.9864 C   0  0  0  0  0  0  0  0  0  0  0  0
   -3.7779   -0.2931    0.0885 C   0  0  0  0  0  0  0  0  0  0  0  0
   -4.1976    0.7188    0.6165 O   0  0  0  0  0  0  0  0  0  0  0  0
   -2.6309   -0.9879    0.3439 N   0  0  0  0  0  0  0  0  0  0  0  0
   -1.6798   -0.6322    1.3718 C   0  0  0  0  0  0  0  0  0  0  0  0
   -0.3579   -0.2320    0.8822 N   0  0  0  0  0  0  0  0  0  0  0  0
    0.7298   -0.5097    1.7223 C   0  0  0  0  0  0  0  0  0  0  0  0
    0.5883   -1.1881    2.7447 O   0  0  0  0  0  0  0  0  0  0  0  0
    2.0913    0.1116    1.3674 C   0  0  0  0  0  0  0  0  0  0  0  0
    2.9717    0.0676    2.4864 O   0  0  0  0  0  0  0  0  0  0  0  0
    4.2310    0.5696    2.3072 C   0  0  0  0  0  0  0  0  0  0  0  0
    5.0625    0.4656    3.4254 C   0  0  0  0  0  0  0  0  0  0  0  0
    6.3748    0.9390    3.3833 C   0  0  0  0  0  0  0  0  0  0  0  0
    6.8643    1.5224    2.2176 C   0  0  0  0  0  0  0  0  0  0  0  0
    6.0408    1.6310    1.0981 C   0  0  0  0  0  0  0  0  0  0  0  0
    4.7258    1.1560    1.1409 C   0  0  0  0  0  0  0  0  0  0  0  0
   -0.2705    0.5657   -0.2896 C   0  0  0  0  0  0  0  0  0  0  0  0
    0.5903    0.1918   -1.3314 C   0  0  0  0  0  0  0  0  0  0  0  0
    0.6581    0.9542   -2.4994 C   0  0  0  0  0  0  0  0  0  0  0  0
   -0.1408    2.0832   -2.6285 C   0  0  0  0  0  0  0  0  0  0  0  0
   -0.0777    2.8117   -3.7500 F   0  0  0  0  0  0  0  0  0  0  0  0
   -1.0121    2.4600   -1.6145 C   0  0  0  0  0  0  0  0  0  0  0  0
   -1.0824    1.6977   -0.4463 C   0  0  0  0  0  0  0  0  0  0  0  0
   -3.4696   -3.8725   -2.5275 H   0  0  0  0  0  0  0  0  0  0  0  0
   -5.6141   -3.4194   -3.7449 H   0  0  0  0  0  0  0  0  0  0  0  0
   -6.9851   -1.4316   -3.1739 H   0  0  0  0  0  0  0  0  0  0  0  0
   -6.2418    0.1462   -1.3732 H   0  0  0  0  0  0  0  0  0  0  0  0
   -1.5826   -1.5130    2.0166 H   0  0  0  0  0  0  0  0  0  0  0  0
   -2.0712    0.1844    1.9899 H   0  0  0  0  0  0  0  0  0  0  0  0
    2.5216   -0.4782    0.5520 H   0  0  0  0  0  0  0  0  0  0  0  0
    1.9362    1.1572    1.0807 H   0  0  0  0  0  0  0  0  0  0  0  0
    4.6826    0.0095    4.3367 H   0  0  0  0  0  0  0  0  0  0  0  0
    7.0111    0.8508    4.2598 H   0  0  0  0  0  0  0  0  0  0  0  0
    7.8857    1.8921    2.1814 H   0  0  0  0  0  0  0  0  0  0  0  0
    6.4228    2.0873    0.1884 H   0  0  0  0  0  0  0  0  0  0  0  0
    4.1194    1.2622    0.2482 H   0  0  0  0  0  0  0  0  0  0  0  0
    1.1751   -0.7234   -1.2696 H   0  0  0  0  0  0  0  0  0  0  0  0
    1.3147    0.6647   -3.3141 H   0  0  0  0  0  0  0  0  0  0  0  0
   -1.6318    3.3432   -1.7368 H   0  0  0  0  0  0  0  0  0  0  0  0
   -1.7616    2.0161    0.3421 H   0  0  0  0  0  0  0  0  0  0  0  0
  1  2  2  0
  2  3  1  0
  3  4  2  0
  4  5  1  0
  5  6  2  0
  6  7  1  0
  7  8  2  0
  8  9  1  0
  9 10  2  0
  9 11  1  0
 11 12  1  0
 12 13  1  0
 13 14  1  0
 14 15  2  0
 14 16  1  0
 16 17  1  0
 17 18  1  0
 18 19  2  0
 19 20  1  0
 20 21  2  0
 21 22  1  0
 22 23  2  0
 13 24  1  0
 24 25  2  0
 25 26  1  0
 26 27  2  0
 27 28  1  0
 27 29  1  0
 29 30  2  0
 11  2  1  0
 23 18  1  0
 30 24  1  0
  8  3  1  0
  4 31  1  0
  5 32  1  0
  6 33  1  0
  7 34  1  0
 12 35  1  0
 12 36  1  0
 16 37  1  0
 16 38  1  0
 19 39  1  0
 20 40  1  0
 21 41  1  0
 22 42  1  0
 23 43  1  0
 25 44  1  0
 26 45  1  0
 29 46  1  0
 30 47  1  0
M  END
$$$$
