
     RDKit          3D

 48 50  0  0  0  0  0  0  0  0999 V2000
   -0.8863    4.7669   -2.3890 C   0  0  0  0  0  0  0  0  0  0  0  0
   -1.8966    3.8829   -1.6842 C   0  0  0  0  0  0  0  0  0  0  0  0
   -1.2132    2.7126   -1.2159 O   0  0  0  0  0  0  0  0  0  0  0  0
   -2.0075    1.8199   -0.5497 C   0  0  0  0  0  0  0  0  0  0  0  0
   -3.2061    1.9970   -0.3661 O   0  0  0  0  0  0  0  0  0  0  0  0
   -1.2797    0.6297   -0.0740 C   0  0  0  0  0  0  0  0  0  0  0  0
    0.0900    0.4208   -0.2239 C   0  0  0  0  0  0  0  0  0  0  0  0
    0.9916    1.2701   -0.8539 N   0  0  0  0  0  0  0  0  0  0  0  0
    2.3431    1.2351   -1.0927 C   0  0  0  0  0  0  0  0  0  0  0  0
    2.9345    2.5997   -1.8683 S   0  0  0  0  0  0  0  0  0  0  0  0
    3.0252    0.1125   -0.7227 N   0  0  0  0  0  0  0  0  0  0  0  0
    4.3967   -0.2249   -0.6707 C   0  0  0  0  0  0  0  0  0  0  0  0
    4.6955   -1.5820   -0.4709 C   0  0  0  0  0  0  0  0  0  0  0  0
    6.0178   -2.0272   -0.3880 C   0  0  0  0  0  0  0  0  0  0  0  0
    7.0634   -1.1171   -0.4928 C   0  0  0  0  0  0  0  0  0  0  0  0
    6.7821    0.2341   -0.6717 C   0  0  0  0  0  0  0  0  0  0  0  0
    5.4562    0.6778   -0.7545 C   0  0  0  0  0  0  0  0  0  0  0  0
    0.5967   -1.0314    0.4861 S   0  0  0  0  0  0  0  0  0  0  0  0
   -0.9658   -1.4357    1.0137 C   0  0  0  0  0  0  0  0  0  0  0  0
   -1.8998   -0.4904    0.6286 C   0  0  0  0  0  0  0  0  0  0  0  0
   -3.3717   -0.6036    0.9619 C   0  0  0  0  0  0  0  0  0  0  0  0
   -3.8615   -2.0199    1.3477 C   0  0  0  0  0  0  0  0  0  0  0  0
   -5.2683   -1.9132    1.9614 C   0  0  0  0  0  0  0  0  0  0  0  0
   -3.9339   -2.9475    0.1231 C   0  0  0  0  0  0  0  0  0  0  0  0
   -2.7714   -2.7577    2.6421 S   0  0  0  0  0  0  0  0  0  0  0  0
   -1.1778   -2.7112    1.7679 C   0  0  0  0  0  0  0  0  0  0  0  0
   -0.4229    4.2324   -3.2247 H   0  0  0  0  0  0  0  0  0  0  0  0
   -0.0788    5.0496   -1.7054 H   0  0  0  0  0  0  0  0  0  0  0  0
   -1.3610    5.6755   -2.7694 H   0  0  0  0  0  0  0  0  0  0  0  0
   -2.6877    3.5932   -2.3849 H   0  0  0  0  0  0  0  0  0  0  0  0
   -2.3314    4.4220   -0.8352 H   0  0  0  0  0  0  0  0  0  0  0  0
    0.5746    2.1309   -1.2066 H   0  0  0  0  0  0  0  0  0  0  0  0
    2.4077   -0.6566   -0.4982 H   0  0  0  0  0  0  0  0  0  0  0  0
    3.9001   -2.3185   -0.3873 H   0  0  0  0  0  0  0  0  0  0  0  0
    6.2277   -3.0836   -0.2425 H   0  0  0  0  0  0  0  0  0  0  0  0
    8.0936   -1.4560   -0.4278 H   0  0  0  0  0  0  0  0  0  0  0  0
    7.5944    0.9537   -0.7398 H   0  0  0  0  0  0  0  0  0  0  0  0
    5.3010    1.7443   -0.8533 H   0  0  0  0  0  0  0  0  0  0  0  0
   -3.5747    0.0987    1.7823 H   0  0  0  0  0  0  0  0  0  0  0  0
   -3.9642   -0.2662    0.1027 H   0  0  0  0  0  0  0  0  0  0  0  0
   -5.9710   -1.4725    1.2442 H   0  0  0  0  0  0  0  0  0  0  0  0
   -5.6663   -2.8957    2.2423 H   0  0  0  0  0  0  0  0  0  0  0  0
   -5.2771   -1.2765    2.8542 H   0  0  0  0  0  0  0  0  0  0  0  0
   -4.2765   -3.9519    0.3986 H   0  0  0  0  0  0  0  0  0  0  0  0
   -2.9734   -3.0501   -0.3909 H   0  0  0  0  0  0  0  0  0  0  0  0
   -4.6452   -2.5556   -0.6136 H   0  0  0  0  0  0  0  0  0  0  0  0
   -1.1288   -3.5656    1.0844 H   0  0  0  0  0  0  0  0  0  0  0  0
   -0.3933   -2.8489    2.5199 H   0  0  0  0  0  0  0  0  0  0  0  0
  1  2  1  0
  2  3  1  0
  3  4  1  0
  4  5  2  0
  4  6  1  0
  6  7  2  0
  7  8  1  0
  8  9  1  0
  9 10  2  0
  9 11  1  0
 11 12  1  0
 12 13  2  0
 13 14  1  0
 14 15  2  0
 15 16  1  0
 16 17  2  0
  7 18  1  0
 18 19  1  0
 19 20  2  0
 20 21  1  0
 21 22  1  0
 22 23  1  0
 22 24  1  0
 22 25  1  0
 25 26  1  0
 20  6  1  0
 17 12  1  0
 26 19  1  0
  1 27  1  0
  1 28  1  0
  1 29  1  0
  2 30  1  0
  2 31  1  0
  8 32  1  0
 11 33  1  0
 13 34  1  0
 14 35  1  0
 15 36  1  0
 16 37  1  0
 17 38  1  0
 21 39  1  0
 21 40  1  0
 23 41  1  0
 23 42  1  0
 23 43  1  0
 24 44  1  0
 24 45  1  0
 24 46  1  0
 26 47  1  0
 26 48  1  0
M  END
$$$$
