
     RDKit          3D

 41 42  0  0  0  0  0  0  0  0999 V2000
   -5.8608   -0.7230   -3.2508 C   0  0  0  0  0  0  0  0  0  0  0  0
   -4.6703    0.4922   -3.8765 S   0  0  0  0  0  0  0  0  0  0  0  0
   -3.7011    0.7601   -2.4034 C   0  0  0  0  0  0  0  0  0  0  0  0
   -3.0449   -0.2895   -1.7558 C   0  0  0  0  0  0  0  0  0  0  0  0
   -2.2815   -0.0456   -0.6106 C   0  0  0  0  0  0  0  0  0  0  0  0
   -2.1548    1.2544   -0.1003 C   0  0  0  0  0  0  0  0  0  0  0  0
   -1.3257    1.5143    1.1397 C   0  0  0  0  0  0  0  0  0  0  0  0
    0.1059    1.2030    0.9498 N   0  0  0  0  0  0  0  0  0  0  0  0
    0.7277    2.1906    0.0490 C   0  0  0  0  0  0  0  0  0  0  0  0
    0.7926    1.2286    2.2723 C   0  0  0  0  0  0  0  0  0  0  0  0
    2.1397    0.4884    2.2219 C   0  0  0  0  0  0  0  0  0  0  0  0
    3.0274    0.7394    3.0311 O   0  0  0  0  0  0  0  0  0  0  0  0
    2.1686   -0.4792    1.2336 N   0  0  0  0  0  0  0  0  0  0  0  0
    3.2011   -1.3746    0.9113 C   0  0  0  0  0  0  0  0  0  0  0  0
    2.9984   -2.2068   -0.1979 C   0  0  0  0  0  0  0  0  0  0  0  0
    3.9738   -3.1280   -0.5873 C   0  0  0  0  0  0  0  0  0  0  0  0
    5.1623   -3.2260    0.1318 C   0  0  0  0  0  0  0  0  0  0  0  0
    5.3654   -2.4011    1.2362 C   0  0  0  0  0  0  0  0  0  0  0  0
    6.9799   -2.5372    2.2138 Br  0  0  0  0  0  0  0  0  0  0  0  0
    4.3934   -1.4780    1.6297 C   0  0  0  0  0  0  0  0  0  0  0  0
   -2.8051    2.3053   -0.7600 C   0  0  0  0  0  0  0  0  0  0  0  0
   -3.5675    2.0591   -1.9058 C   0  0  0  0  0  0  0  0  0  0  0  0
   -6.6124   -0.9145   -4.0215 H   0  0  0  0  0  0  0  0  0  0  0  0
   -6.3673   -0.3411   -2.3600 H   0  0  0  0  0  0  0  0  0  0  0  0
   -5.3660   -1.6679   -3.0123 H   0  0  0  0  0  0  0  0  0  0  0  0
   -3.1072   -1.3039   -2.1405 H   0  0  0  0  0  0  0  0  0  0  0  0
   -1.7748   -0.8741   -0.1204 H   0  0  0  0  0  0  0  0  0  0  0  0
   -1.4601    2.5476    1.4867 H   0  0  0  0  0  0  0  0  0  0  0  0
   -1.7465    0.8730    1.9263 H   0  0  0  0  0  0  0  0  0  0  0  0
    1.7994    1.9981   -0.0704 H   0  0  0  0  0  0  0  0  0  0  0  0
    0.6072    3.2166    0.4155 H   0  0  0  0  0  0  0  0  0  0  0  0
    0.2983    2.1290   -0.9564 H   0  0  0  0  0  0  0  0  0  0  0  0
    0.9525    2.2551    2.6224 H   0  0  0  0  0  0  0  0  0  0  0  0
    0.1977    0.6941    3.0233 H   0  0  0  0  0  0  0  0  0  0  0  0
    1.3429   -0.4653    0.6372 H   0  0  0  0  0  0  0  0  0  0  0  0
    2.0786   -2.1464   -0.7750 H   0  0  0  0  0  0  0  0  0  0  0  0
    3.8058   -3.7667   -1.4507 H   0  0  0  0  0  0  0  0  0  0  0  0
    5.9197   -3.9431   -0.1730 H   0  0  0  0  0  0  0  0  0  0  0  0
    4.5845   -0.8541    2.4965 H   0  0  0  0  0  0  0  0  0  0  0  0
   -2.7191    3.3255   -0.3929 H   0  0  0  0  0  0  0  0  0  0  0  0
   -4.0575    2.8917   -2.4056 H   0  0  0  0  0  0  0  0  0  0  0  0
  1  2  1  0
  2  3  1  0
  3  4  2  0
  4  5  1  0
  5  6  2  0
  6  7  1  0
  7  8  1  0
  8  9  1  0
  8 10  1  0
 10 11  1  0
 11 12  2  0
 11 13  1  0
 13 14  1  0
 14 15  2  0
 15 16  1  0
 16 17  2  0
 17 18  1  0
 18 19  1  0
 18 20  2  0
  6 21  1  0
 21 22  2  0
 22  3  1  0
 20 14  1  0
  1 23  1  0
  1 24  1  0
  1 25  1  0
  4 26  1  0
  5 27  1  0
  7 28  1  0
  7 29  1  0
  9 30  1  0
  9 31  1  0
  9 32  1  0
 10 33  1  0
 10 34  1  0
 13 35  1  0
 15 36  1  0
 16 37  1  0
 17 38  1  0
 20 39  1  0
 21 40  1  0
 22 41  1  0
M  END
$$$$
