
     RDKit          3D

 48 51  0  0  0  0  0  0  0  0999 V2000
   10.1906   -1.0806    2.3454 C   0  0  0  0  0  0  0  0  0  0  0  0
    8.8919   -0.4867    1.9405 C   0  0  0  0  0  0  0  0  0  0  0  0
    8.3190    0.5437    2.5256 N   0  0  0  0  0  0  0  0  0  0  0  0
    7.1109    0.8653    1.9398 N   0  0  0  0  0  0  0  0  0  0  0  0
    6.8205    0.0730    0.9306 C   0  0  0  0  0  0  0  0  0  0  0  0
    5.3644    0.2354   -0.0187 S   0  0  0  0  0  0  0  0  0  0  0  0
    4.4700    1.4672    0.9775 C   0  0  0  0  0  0  0  0  0  0  0  0
    3.1157    1.7465    0.3633 C   0  0  0  0  0  0  0  0  0  0  0  0
    2.8955    2.8858   -0.3103 C   0  0  0  0  0  0  0  0  0  0  0  0
    1.5583    3.1126   -0.8683 C   0  0  0  0  0  0  0  0  0  0  0  0
    1.2870    4.1392   -1.4790 O   0  0  0  0  0  0  0  0  0  0  0  0
    0.6689    2.1092   -0.6434 N   0  0  0  0  0  0  0  0  0  0  0  0
    0.9591    0.9828    0.0780 C   0  0  0  0  0  0  0  0  0  0  0  0
   -0.0010    0.0438    0.2790 N   0  0  0  0  0  0  0  0  0  0  0  0
   -1.3133    0.0197   -0.1572 C   0  0  0  0  0  0  0  0  0  0  0  0
   -1.8060    1.0384   -0.8798 N   0  0  0  0  0  0  0  0  0  0  0  0
   -3.0954    0.9629   -1.2804 C   0  0  0  0  0  0  0  0  0  0  0  0
   -3.5911    2.1331   -2.0818 C   0  0  0  0  0  0  0  0  0  0  0  0
   -3.9195   -0.1227   -0.9685 C   0  0  0  0  0  0  0  0  0  0  0  0
   -5.2768   -0.2630   -1.3523 C   0  0  0  0  0  0  0  0  0  0  0  0
   -6.0251   -1.3919   -0.9909 C   0  0  0  0  0  0  0  0  0  0  0  0
   -7.4643   -1.4980   -1.4146 C   0  0  0  0  0  0  0  0  0  0  0  0
   -5.4069   -2.3942   -0.2289 C   0  0  0  0  0  0  0  0  0  0  0  0
   -6.1478   -3.6321    0.1966 C   0  0  0  0  0  0  0  0  0  0  0  0
   -4.0581   -2.2375    0.1405 C   0  0  0  0  0  0  0  0  0  0  0  0
   -3.3066   -1.1240   -0.2125 C   0  0  0  0  0  0  0  0  0  0  0  0
   -2.0293   -1.0571    0.1851 N   0  0  0  0  0  0  0  0  0  0  0  0
    2.1444    0.7916    0.5823 N   0  0  0  0  0  0  0  0  0  0  0  0
    8.0005   -1.1314    0.6206 S   0  0  0  0  0  0  0  0  0  0  0  0
   10.7064   -0.4240    3.0544 H   0  0  0  0  0  0  0  0  0  0  0  0
   10.8487   -1.2244    1.4823 H   0  0  0  0  0  0  0  0  0  0  0  0
   10.0350   -2.0487    2.8329 H   0  0  0  0  0  0  0  0  0  0  0  0
    4.3394    1.0971    2.0008 H   0  0  0  0  0  0  0  0  0  0  0  0
    5.0664    2.3848    1.0310 H   0  0  0  0  0  0  0  0  0  0  0  0
    3.6425    3.6497   -0.4755 H   0  0  0  0  0  0  0  0  0  0  0  0
   -0.2716    2.2189   -1.0041 H   0  0  0  0  0  0  0  0  0  0  0  0
    0.2525   -0.7753    0.8064 H   0  0  0  0  0  0  0  0  0  0  0  0
   -2.7884    2.8612   -2.2415 H   0  0  0  0  0  0  0  0  0  0  0  0
   -4.4029    2.6414   -1.5529 H   0  0  0  0  0  0  0  0  0  0  0  0
   -3.9409    1.8039   -3.0653 H   0  0  0  0  0  0  0  0  0  0  0  0
   -5.7563    0.5188   -1.9380 H   0  0  0  0  0  0  0  0  0  0  0  0
   -7.6201   -2.3985   -2.0180 H   0  0  0  0  0  0  0  0  0  0  0  0
   -8.1170   -1.5285   -0.5362 H   0  0  0  0  0  0  0  0  0  0  0  0
   -7.7690   -0.6390   -2.0208 H   0  0  0  0  0  0  0  0  0  0  0  0
   -5.5205   -4.2855    0.8115 H   0  0  0  0  0  0  0  0  0  0  0  0
   -7.0250   -3.3647    0.7937 H   0  0  0  0  0  0  0  0  0  0  0  0
   -6.4638   -4.2060   -0.6804 H   0  0  0  0  0  0  0  0  0  0  0  0
   -3.5710   -3.0123    0.7323 H   0  0  0  0  0  0  0  0  0  0  0  0
  1  2  1  0
  2  3  2  0
  3  4  1  0
  4  5  2  0
  5  6  1  0
  6  7  1  0
  7  8  1  0
  8  9  2  0
  9 10  1  0
 10 11  2  0
 10 12  1  0
 12 13  1  0
 13 14  1  0
 14 15  1  0
 15 16  2  0
 16 17  1  0
 17 18  1  0
 17 19  2  0
 19 20  1  0
 20 21  2  0
 21 22  1  0
 21 23  1  0
 23 24  1  0
 23 25  2  0
 25 26  1  0
 26 27  2  0
 13 28  2  0
  5 29  1  0
 29  2  1  0
 28  8  1  0
 27 15  1  0
 26 19  1  0
  1 30  1  0
  1 31  1  0
  1 32  1  0
  7 33  1  0
  7 34  1  0
  9 35  1  0
 12 36  1  0
 14 37  1  0
 18 38  1  0
 18 39  1  0
 18 40  1  0
 20 41  1  0
 22 42  1  0
 22 43  1  0
 22 44  1  0
 24 45  1  0
 24 46  1  0
 24 47  1  0
 25 48  1  0
M  END
$$$$
