
     RDKit          3D

 60 63  0  0  0  0  0  0  0  0999 V2000
   -4.8400   -1.6361   -3.6994 C   0  0  0  0  0  0  0  0  0  0  0  0
   -5.9182   -1.1438   -2.7535 C   0  0  0  0  0  0  0  0  0  0  0  0
   -5.3381   -0.3860   -1.6821 O   0  0  0  0  0  0  0  0  0  0  0  0
   -4.8708   -1.1055   -0.6225 C   0  0  0  0  0  0  0  0  0  0  0  0
   -4.9485   -2.3230   -0.5119 O   0  0  0  0  0  0  0  0  0  0  0  0
   -4.2408   -0.1744    0.4126 C   0  0  0  0  0  0  0  0  0  0  0  0
   -4.9032   -0.3443    1.7877 C   0  0  0  0  0  0  0  0  0  0  0  0
   -4.4358   -1.5887    2.5392 C   0  0  0  0  0  0  0  0  0  0  0  0
   -2.9154   -1.6649    2.5762 C   0  0  0  0  0  0  0  0  0  0  0  0
   -2.3221   -1.5705    1.1755 C   0  0  0  0  0  0  0  0  0  0  0  0
   -2.7473   -0.2909    0.5414 N   0  0  0  0  0  0  0  0  0  0  0  0
   -1.9341    0.0950   -0.9159 S   0  0  0  0  0  6  0  0  0  0  0  0
   -1.9503   -1.0840   -1.7535 O   0  0  0  0  0  0  0  0  0  0  0  0
   -2.4415    1.3638   -1.3909 O   0  0  0  0  0  0  0  0  0  0  0  0
   -0.2678    0.3755   -0.3682 C   0  0  0  0  0  0  0  0  0  0  0  0
    0.7646   -0.4779   -0.7844 C   0  0  0  0  0  0  0  0  0  0  0  0
    2.0823   -0.2521   -0.3610 C   0  0  0  0  0  0  0  0  0  0  0  0
    2.3507    0.8271    0.4659 C   0  0  0  0  0  0  0  0  0  0  0  0
    1.3035    1.6656    0.8741 C   0  0  0  0  0  0  0  0  0  0  0  0
   -0.0069    1.4660    0.4621 C   0  0  0  0  0  0  0  0  0  0  0  0
    1.8055    2.7978    1.7150 C   0  0  0  0  0  0  0  0  0  0  0  0
    3.2385    2.3349    2.0273 C   0  0  0  0  0  0  0  0  0  0  0  0
    3.3447    1.8041    3.4613 C   0  0  0  0  0  0  0  0  0  0  0  0
    3.5584    1.2775    1.0365 N   0  0  0  0  0  0  0  0  0  0  0  0
    4.8869    0.9128    0.8197 C   0  0  0  0  0  0  0  0  0  0  0  0
    5.7805    1.4379    1.5050 O   0  0  0  0  0  0  0  0  0  0  0  0
    5.2415   -0.1069   -0.2891 C   0  0  0  0  0  0  0  0  0  0  0  0
    5.0568    0.3367   -1.7709 C   0  0  0  0  0  0  0  0  0  0  0  0
    6.5469    0.7159   -1.7904 C   0  0  0  0  0  0  0  0  0  0  0  0
    6.7497   -0.2882   -0.6448 C   0  0  0  0  0  0  0  0  0  0  0  0
   -4.1710   -2.3415   -3.1979 H   0  0  0  0  0  0  0  0  0  0  0  0
   -5.2834   -2.1352   -4.5657 H   0  0  0  0  0  0  0  0  0  0  0  0
   -4.2219   -0.8026   -4.0482 H   0  0  0  0  0  0  0  0  0  0  0  0
   -6.5259   -1.9708   -2.3699 H   0  0  0  0  0  0  0  0  0  0  0  0
   -6.5949   -0.4700   -3.2888 H   0  0  0  0  0  0  0  0  0  0  0  0
   -4.4665    0.8578    0.1110 H   0  0  0  0  0  0  0  0  0  0  0  0
   -5.9947   -0.3703    1.6857 H   0  0  0  0  0  0  0  0  0  0  0  0
   -4.6638    0.5344    2.4013 H   0  0  0  0  0  0  0  0  0  0  0  0
   -4.8301   -1.5709    3.5617 H   0  0  0  0  0  0  0  0  0  0  0  0
   -4.8391   -2.4903    2.0648 H   0  0  0  0  0  0  0  0  0  0  0  0
   -2.6045   -2.6033    3.0486 H   0  0  0  0  0  0  0  0  0  0  0  0
   -2.5263   -0.8472    3.1960 H   0  0  0  0  0  0  0  0  0  0  0  0
   -2.6243   -2.4301    0.5693 H   0  0  0  0  0  0  0  0  0  0  0  0
   -1.2325   -1.5971    1.2718 H   0  0  0  0  0  0  0  0  0  0  0  0
    0.5523   -1.3230   -1.4374 H   0  0  0  0  0  0  0  0  0  0  0  0
    2.8378   -0.9505   -0.6889 H   0  0  0  0  0  0  0  0  0  0  0  0
   -0.8018    2.1405    0.7682 H   0  0  0  0  0  0  0  0  0  0  0  0
    1.8187    3.7142    1.1148 H   0  0  0  0  0  0  0  0  0  0  0  0
    1.1983    2.9560    2.6110 H   0  0  0  0  0  0  0  0  0  0  0  0
    3.9409    3.1693    1.9091 H   0  0  0  0  0  0  0  0  0  0  0  0
    3.0819    2.5859    4.1817 H   0  0  0  0  0  0  0  0  0  0  0  0
    2.6760    0.9514    3.6232 H   0  0  0  0  0  0  0  0  0  0  0  0
    4.3614    1.4692    3.6886 H   0  0  0  0  0  0  0  0  0  0  0  0
    4.8132   -1.0881   -0.0500 H   0  0  0  0  0  0  0  0  0  0  0  0
    4.3710    1.1682   -1.9542 H   0  0  0  0  0  0  0  0  0  0  0  0
    4.7997   -0.4877   -2.4462 H   0  0  0  0  0  0  0  0  0  0  0  0
    6.7409    1.7561   -1.5051 H   0  0  0  0  0  0  0  0  0  0  0  0
    7.0821    0.4955   -2.7172 H   0  0  0  0  0  0  0  0  0  0  0  0
    6.9984   -1.3005   -0.9860 H   0  0  0  0  0  0  0  0  0  0  0  0
    7.4782    0.0071    0.1150 H   0  0  0  0  0  0  0  0  0  0  0  0
  1  2  1  0
  2  3  1  0
  3  4  1  0
  4  5  2  0
  4  6  1  0
  6  7  1  0
  7  8  1  0
  8  9  1  0
  9 10  1  0
 10 11  1  0
 11 12  1  0
 12 13  2  0
 12 14  2  0
 12 15  1  0
 15 16  2  0
 16 17  1  0
 17 18  2  0
 18 19  1  0
 19 20  2  0
 19 21  1  0
 21 22  1  0
 22 23  1  0
 22 24  1  0
 24 25  1  0
 25 26  2  0
 25 27  1  0
 27 28  1  0
 28 29  1  0
 29 30  1  0
 11  6  1  0
 20 15  1  0
 30 27  1  0
 24 18  1  0
  1 31  1  0
  1 32  1  0
  1 33  1  0
  2 34  1  0
  2 35  1  0
  6 36  1  0
  7 37  1  0
  7 38  1  0
  8 39  1  0
  8 40  1  0
  9 41  1  0
  9 42  1  0
 10 43  1  0
 10 44  1  0
 16 45  1  0
 17 46  1  0
 20 47  1  0
 21 48  1  0
 21 49  1  0
 22 50  1  0
 23 51  1  0
 23 52  1  0
 23 53  1  0
 27 54  1  0
 28 55  1  0
 28 56  1  0
 29 57  1  0
 29 58  1  0
 30 59  1  0
 30 60  1  0
M  END
$$$$
