
     RDKit          3D

 67 72  0  0  0  0  0  0  0  0999 V2000
   -1.7513    1.7420    1.8899 O   0  0  0  0  0  0  0  0  0  0  0  0
   -2.0244    0.8931    1.0384 C   0  0  0  0  0  0  0  0  0  0  0  0
   -0.9183    0.1316    0.3136 C   0  0  0  0  0  0  0  0  0  0  0  0
   -0.7416    0.6794   -1.1070 C   0  0  0  0  0  0  0  0  0  0  0  0
    0.3939   -0.0485   -1.8170 C   0  0  0  0  0  0  0  0  0  0  0  0
    1.6996    0.0183   -1.0227 C   0  0  0  0  0  0  0  0  0  0  0  0
    1.4798   -0.4462    0.3509 N   0  0  0  0  0  0  0  0  0  0  0  0
    2.6394   -0.6160    1.1407 C   0  0  0  0  0  0  0  0  0  0  0  0
    2.4705   -0.9803    2.4510 N   0  0  0  0  0  0  0  0  0  0  0  0
    3.5433   -1.1861    3.2398 C   0  0  0  0  0  0  0  0  0  0  0  0
    4.8417   -1.0833    2.9172 N   0  0  0  0  0  0  0  0  0  0  0  0
    4.9863   -0.7274    1.6308 C   0  0  0  0  0  0  0  0  0  0  0  0
    3.9865   -0.4799    0.7038 C   0  0  0  0  0  0  0  0  0  0  0  0
    4.5553   -0.1166   -0.5045 N   0  0  0  0  0  0  0  0  0  0  0  0
    5.8636   -0.1442   -0.3247 C   0  0  0  0  0  0  0  0  0  0  0  0
    6.1684   -0.5313    0.9617 N   0  0  0  0  0  0  0  0  0  0  0  0
    7.4741   -0.6843    1.5736 C   0  0  0  0  0  0  0  0  0  0  0  0
    8.5820   -1.1293    0.6254 C   0  0  0  0  0  0  0  0  0  0  0  0
    9.1348   -0.0009   -0.2447 C   0  0  0  0  0  0  0  0  0  0  0  0
    8.0894    0.9254   -0.8665 C   0  0  0  0  0  0  0  0  0  0  0  0
    6.8604    0.1915   -1.3884 C   0  0  0  0  0  0  0  0  0  0  0  0
    0.4032    0.2469    1.0869 C   0  0  0  0  0  0  0  0  0  0  0  0
   -3.3442    0.6487    0.6559 N   0  0  0  0  0  0  0  0  0  0  0  0
   -4.3891    1.3283    1.4352 C   0  0  0  0  0  0  0  0  0  0  0  0
   -5.7234    1.4459    0.6801 C   0  0  0  0  0  0  0  0  0  0  0  0
   -6.1535    0.1203    0.1853 N   0  0  0  0  0  0  0  0  0  0  0  0
   -7.4625   -0.0027   -0.3109 C   0  0  0  0  0  0  0  0  0  0  0  0
   -8.0376   -1.2830   -0.4086 C   0  0  0  0  0  0  0  0  0  0  0  0
   -9.3385   -1.4736   -0.8851 C   0  0  0  0  0  0  0  0  0  0  0  0
  -10.0993   -0.3773   -1.2746 C   0  0  0  0  0  0  0  0  0  0  0  0
   -9.5538    0.8985   -1.1771 C   0  0  0  0  0  0  0  0  0  0  0  0
  -10.4911    2.2617   -1.6567 Cl  0  0  0  0  0  0  0  0  0  0  0  0
   -8.2537    1.0878   -0.6973 C   0  0  0  0  0  0  0  0  0  0  0  0
   -5.1347   -0.5019   -0.6926 C   0  0  0  0  0  0  0  0  0  0  0  0
   -3.7797   -0.6120    0.0340 C   0  0  0  0  0  0  0  0  0  0  0  0
   -1.1753   -0.9334    0.2803 H   0  0  0  0  0  0  0  0  0  0  0  0
   -0.5249    1.7551   -1.0700 H   0  0  0  0  0  0  0  0  0  0  0  0
   -1.6628    0.5732   -1.6901 H   0  0  0  0  0  0  0  0  0  0  0  0
    0.5463    0.3818   -2.8132 H   0  0  0  0  0  0  0  0  0  0  0  0
    0.1100   -1.0988   -1.9618 H   0  0  0  0  0  0  0  0  0  0  0  0
    2.0821    1.0468   -1.0262 H   0  0  0  0  0  0  0  0  0  0  0  0
    2.4121   -0.6287   -1.5460 H   0  0  0  0  0  0  0  0  0  0  0  0
    3.3265   -1.4717    4.2646 H   0  0  0  0  0  0  0  0  0  0  0  0
    7.7172    0.2665    2.0613 H   0  0  0  0  0  0  0  0  0  0  0  0
    7.3738   -1.4464    2.3557 H   0  0  0  0  0  0  0  0  0  0  0  0
    9.4133   -1.5357    1.2150 H   0  0  0  0  0  0  0  0  0  0  0  0
    8.2282   -1.9511   -0.0099 H   0  0  0  0  0  0  0  0  0  0  0  0
    9.8261    0.6100    0.3493 H   0  0  0  0  0  0  0  0  0  0  0  0
    9.7388   -0.4501   -1.0431 H   0  0  0  0  0  0  0  0  0  0  0  0
    8.5678    1.4595   -1.6970 H   0  0  0  0  0  0  0  0  0  0  0  0
    7.7949    1.6934   -0.1399 H   0  0  0  0  0  0  0  0  0  0  0  0
    6.3592    0.8419   -2.1170 H   0  0  0  0  0  0  0  0  0  0  0  0
    7.1460   -0.7181   -1.9290 H   0  0  0  0  0  0  0  0  0  0  0  0
    0.6821    1.2987    1.2381 H   0  0  0  0  0  0  0  0  0  0  0  0
    0.2408   -0.1939    2.0788 H   0  0  0  0  0  0  0  0  0  0  0  0
   -4.5273    0.7491    2.3570 H   0  0  0  0  0  0  0  0  0  0  0  0
   -4.0526    2.3305    1.7229 H   0  0  0  0  0  0  0  0  0  0  0  0
   -6.4706    1.8622    1.3664 H   0  0  0  0  0  0  0  0  0  0  0  0
   -5.5971    2.1390   -0.1617 H   0  0  0  0  0  0  0  0  0  0  0  0
   -7.4723   -2.1529   -0.0806 H   0  0  0  0  0  0  0  0  0  0  0  0
   -9.7544   -2.4760   -0.9413 H   0  0  0  0  0  0  0  0  0  0  0  0
  -11.1107   -0.5212   -1.6440 H   0  0  0  0  0  0  0  0  0  0  0  0
   -7.8689    2.1010   -0.6480 H   0  0  0  0  0  0  0  0  0  0  0  0
   -5.0134    0.1098   -1.5966 H   0  0  0  0  0  0  0  0  0  0  0  0
   -5.4272   -1.5089   -1.0115 H   0  0  0  0  0  0  0  0  0  0  0  0
   -3.0366   -0.9739   -0.6790 H   0  0  0  0  0  0  0  0  0  0  0  0
   -3.8467   -1.3525    0.8405 H   0  0  0  0  0  0  0  0  0  0  0  0
  1  2  2  0
  2  3  1  0
  3  4  1  0
  4  5  1  0
  5  6  1  0
  6  7  1  0
  7  8  1  0
  8  9  2  0
  9 10  1  0
 10 11  2  0
 11 12  1  0
 12 13  2  0
 13 14  1  0
 14 15  2  0
 15 16  1  0
 16 17  1  0
 17 18  1  0
 18 19  1  0
 19 20  1  0
 20 21  1  0
  7 22  1  0
  2 23  1  0
 23 24  1  0
 24 25  1  0
 25 26  1  0
 26 27  1  0
 27 28  2  0
 28 29  1  0
 29 30  2  0
 30 31  1  0
 31 32  1  0
 31 33  2  0
 26 34  1  0
 34 35  1  0
 22  3  1  0
 35 23  1  0
 13  8  1  0
 21 15  1  0
 33 27  1  0
 16 12  1  0
  3 36  1  0
  4 37  1  0
  4 38  1  0
  5 39  1  0
  5 40  1  0
  6 41  1  0
  6 42  1  0
 10 43  1  0
 17 44  1  0
 17 45  1  0
 18 46  1  0
 18 47  1  0
 19 48  1  0
 19 49  1  0
 20 50  1  0
 20 51  1  0
 21 52  1  0
 21 53  1  0
 22 54  1  0
 22 55  1  0
 24 56  1  0
 24 57  1  0
 25 58  1  0
 25 59  1  0
 28 60  1  0
 29 61  1  0
 30 62  1  0
 33 63  1  0
 34 64  1  0
 34 65  1  0
 35 66  1  0
 35 67  1  0
M  END
$$$$
