
     RDKit          3D

 46 50  0  0  0  0  0  0  0  0999 V2000
   -6.8619    2.4368   -1.0775 C   0  0  0  0  0  0  0  0  0  0  0  0
   -5.6686    1.6684   -0.5731 C   0  0  0  0  0  0  0  0  0  0  0  0
   -4.3808    2.0888   -0.9638 C   0  0  0  0  0  0  0  0  0  0  0  0
   -3.2546    1.3887   -0.5091 C   0  0  0  0  0  0  0  0  0  0  0  0
   -1.9164    1.6237   -0.7622 N   0  0  0  0  0  0  0  0  0  0  0  0
   -1.3153    0.6815   -0.0910 C   0  0  0  0  0  0  0  0  0  0  0  0
    0.3390    0.2690    0.1257 S   0  0  0  0  0  0  0  0  0  0  0  0
   -0.1224   -1.0773    1.1378 C   0  0  0  0  0  0  0  0  0  0  0  0
    0.6459   -1.9971    1.7383 C   0  0  0  0  0  0  0  0  0  0  0  0
    2.0662   -2.0609    1.6761 C   0  0  0  0  0  0  0  0  0  0  0  0
    2.8922   -3.0895    2.1183 C   0  0  0  0  0  0  0  0  0  0  0  0
    4.2322   -2.7273    1.8424 C   0  0  0  0  0  0  0  0  0  0  0  0
    4.1765   -1.4937    1.2372 C   0  0  0  0  0  0  0  0  0  0  0  0
    5.1758   -0.5609    0.7348 C   0  0  0  0  0  0  0  0  0  0  0  0
    6.3287   -0.3342    1.5091 C   0  0  0  0  0  0  0  0  0  0  0  0
    7.3017    0.5850    1.1063 C   0  0  0  0  0  0  0  0  0  0  0  0
    7.1416    1.2949   -0.0795 C   0  0  0  0  0  0  0  0  0  0  0  0
    6.0129    1.0781   -0.8683 C   0  0  0  0  0  0  0  0  0  0  0  0
    5.0334    0.1510   -0.4699 C   0  0  0  0  0  0  0  0  0  0  0  0
    3.9007   -0.0963   -1.3893 C   0  0  0  0  0  0  0  0  0  0  0  0
    3.4533   -1.1731   -1.7327 O   0  0  0  0  0  0  0  0  0  0  0  0
    3.3919    1.0644   -1.8445 O   0  0  0  0  0  0  0  0  0  0  0  0
    2.8829   -1.0794    1.1663 O   0  0  0  0  0  0  0  0  0  0  0  0
   -1.6036   -1.1722    1.2996 C   0  0  0  0  0  0  0  0  0  0  0  0
   -2.2693   -1.9715    1.9323 O   0  0  0  0  0  0  0  0  0  0  0  0
   -2.1595   -0.1453    0.5708 N   0  0  0  0  0  0  0  0  0  0  0  0
   -3.4383    0.2826    0.3253 C   0  0  0  0  0  0  0  0  0  0  0  0
   -4.6984   -0.1665    0.7306 C   0  0  0  0  0  0  0  0  0  0  0  0
   -5.8237    0.5414    0.2654 C   0  0  0  0  0  0  0  0  0  0  0  0
   -7.1923    0.0757    0.6931 C   0  0  0  0  0  0  0  0  0  0  0  0
   -7.4726    1.8030   -1.7281 H   0  0  0  0  0  0  0  0  0  0  0  0
   -6.5586    3.3145   -1.6582 H   0  0  0  0  0  0  0  0  0  0  0  0
   -7.4682    2.7945   -0.2394 H   0  0  0  0  0  0  0  0  0  0  0  0
   -4.2395    2.9485   -1.6114 H   0  0  0  0  0  0  0  0  0  0  0  0
    0.1608   -2.7822    2.3161 H   0  0  0  0  0  0  0  0  0  0  0  0
    2.5564   -4.0080    2.5806 H   0  0  0  0  0  0  0  0  0  0  0  0
    5.1248   -3.3012    2.0468 H   0  0  0  0  0  0  0  0  0  0  0  0
    6.4683   -0.8607    2.4516 H   0  0  0  0  0  0  0  0  0  0  0  0
    8.1805    0.7510    1.7250 H   0  0  0  0  0  0  0  0  0  0  0  0
    7.8953    2.0130   -0.3931 H   0  0  0  0  0  0  0  0  0  0  0  0
    5.9005    1.6248   -1.8024 H   0  0  0  0  0  0  0  0  0  0  0  0
    2.6107    0.7908   -2.3690 H   0  0  0  0  0  0  0  0  0  0  0  0
   -4.8006   -1.0319    1.3805 H   0  0  0  0  0  0  0  0  0  0  0  0
   -7.1374   -0.8456    1.2830 H   0  0  0  0  0  0  0  0  0  0  0  0
   -7.6748    0.8388    1.3120 H   0  0  0  0  0  0  0  0  0  0  0  0
   -7.8151   -0.1345   -0.1822 H   0  0  0  0  0  0  0  0  0  0  0  0
  1  2  1  0
  2  3  2  0
  3  4  1  0
  4  5  1  0
  5  6  2  0
  6  7  1  0
  7  8  1  0
  8  9  2  3
  9 10  1  0
 10 11  2  0
 11 12  1  0
 12 13  2  0
 13 14  1  0
 14 15  2  0
 15 16  1  0
 16 17  2  0
 17 18  1  0
 18 19  2  0
 19 20  1  0
 20 21  2  0
 20 22  1  0
 13 23  1  0
  8 24  1  0
 24 25  2  0
 24 26  1  0
 26 27  1  0
 27 28  1  0
 28 29  2  0
 29 30  1  0
 29  2  1  0
 27  4  2  0
 26  6  1  0
 23 10  1  0
 19 14  1  0
  1 31  1  0
  1 32  1  0
  1 33  1  0
  3 34  1  0
  9 35  1  0
 11 36  1  0
 12 37  1  0
 15 38  1  0
 16 39  1  0
 17 40  1  0
 18 41  1  0
 22 42  1  0
 28 43  1  0
 30 44  1  0
 30 45  1  0
 30 46  1  0
M  END
$$$$
