
     RDKit          3D

 55 57  0  0  0  0  0  0  0  0999 V2000
    1.4751   -0.5373   -4.0721 N   0  0  0  0  0  0  0  0  0  0  0  0
    2.3490   -0.1664   -3.1177 C   0  0  0  0  0  0  0  0  0  0  0  0
    3.6183   -0.0114   -3.3533 N   0  0  0  0  0  0  0  0  0  0  0  0
    4.1872    0.3572   -2.0291 C   0  0  0  0  0  0  0  0  0  0  0  0
    2.9918    0.6357   -1.0929 C   0  0  0  0  0  0  0  0  0  0  0  0
    3.1300   -0.0276    0.2825 C   0  0  0  0  0  0  0  0  0  0  0  0
    4.1857    0.6290    1.1420 C   0  0  0  0  0  0  0  0  0  0  0  0
    3.9199    1.8484    1.7838 C   0  0  0  0  0  0  0  0  0  0  0  0
    4.8994    2.4705    2.5620 C   0  0  0  0  0  0  0  0  0  0  0  0
    6.1491    1.8728    2.6934 C   0  0  0  0  0  0  0  0  0  0  0  0
    7.1413    2.4503    3.4295 O   0  0  0  0  0  0  0  0  0  0  0  0
    6.4302    0.6654    2.0663 C   0  0  0  0  0  0  0  0  0  0  0  0
    5.4495    0.0418    1.2925 C   0  0  0  0  0  0  0  0  0  0  0  0
    1.8821    0.0560   -1.8591 N   0  0  0  0  0  0  0  0  0  0  0  0
    0.5356    0.5386   -1.5695 C   0  0  0  0  0  0  0  0  0  0  0  0
   -0.3562   -0.6252   -1.1346 C   0  0  0  0  0  0  0  0  0  0  0  0
   -1.7660   -0.1423   -0.7824 C   0  0  0  0  0  0  0  0  0  0  0  0
   -2.6546   -1.3072   -0.3360 C   0  0  0  0  0  0  0  0  0  0  0  0
   -4.1182   -0.9016   -0.0739 C   0  0  0  0  0  0  0  0  0  0  0  0
   -4.9816   -2.1664    0.1221 C   0  0  0  0  0  0  0  0  0  0  0  0
   -6.2943   -1.9153    0.8670 C   0  0  0  0  0  0  0  0  0  0  0  0
   -6.7569   -0.4731    0.7476 C   0  0  0  0  0  0  0  0  0  0  0  0
   -5.7237    0.4951    1.3193 C   0  0  0  0  0  0  0  0  0  0  0  0
   -4.2742    0.0347    1.1298 C   0  0  0  0  0  0  0  0  0  0  0  0
    1.9803   -0.8118   -4.9083 H   0  0  0  0  0  0  0  0  0  0  0  0
    0.8614   -1.2809   -3.7667 H   0  0  0  0  0  0  0  0  0  0  0  0
    4.8134   -0.4706   -1.6814 H   0  0  0  0  0  0  0  0  0  0  0  0
    4.8178    1.2455   -2.1301 H   0  0  0  0  0  0  0  0  0  0  0  0
    2.8549    1.7221   -1.0037 H   0  0  0  0  0  0  0  0  0  0  0  0
    3.3445   -1.0987    0.1726 H   0  0  0  0  0  0  0  0  0  0  0  0
    2.1727    0.0186    0.8203 H   0  0  0  0  0  0  0  0  0  0  0  0
    2.9473    2.3252    1.6765 H   0  0  0  0  0  0  0  0  0  0  0  0
    4.6732    3.4164    3.0449 H   0  0  0  0  0  0  0  0  0  0  0  0
    6.7882    3.2476    3.8551 H   0  0  0  0  0  0  0  0  0  0  0  0
    7.4108    0.2119    2.1768 H   0  0  0  0  0  0  0  0  0  0  0  0
    5.6835   -0.9028    0.8066 H   0  0  0  0  0  0  0  0  0  0  0  0
    0.5645    1.2840   -0.7653 H   0  0  0  0  0  0  0  0  0  0  0  0
    0.1075    1.0479   -2.4413 H   0  0  0  0  0  0  0  0  0  0  0  0
    0.0897   -1.1282   -0.2666 H   0  0  0  0  0  0  0  0  0  0  0  0
   -0.4144   -1.3744   -1.9326 H   0  0  0  0  0  0  0  0  0  0  0  0
   -1.6968    0.6113    0.0116 H   0  0  0  0  0  0  0  0  0  0  0  0
   -2.2142    0.3464   -1.6567 H   0  0  0  0  0  0  0  0  0  0  0  0
   -2.2305   -1.7665    0.5654 H   0  0  0  0  0  0  0  0  0  0  0  0
   -2.6387   -2.0754   -1.1189 H   0  0  0  0  0  0  0  0  0  0  0  0
   -4.4873   -0.3755   -0.9652 H   0  0  0  0  0  0  0  0  0  0  0  0
   -5.2003   -2.5950   -0.8652 H   0  0  0  0  0  0  0  0  0  0  0  0
   -4.4213   -2.9370    0.6672 H   0  0  0  0  0  0  0  0  0  0  0  0
   -6.1579   -2.1574    1.9272 H   0  0  0  0  0  0  0  0  0  0  0  0
   -7.0658   -2.5942    0.4910 H   0  0  0  0  0  0  0  0  0  0  0  0
   -7.7127   -0.3363    1.2641 H   0  0  0  0  0  0  0  0  0  0  0  0
   -6.9355   -0.2354   -0.3067 H   0  0  0  0  0  0  0  0  0  0  0  0
   -5.9073    0.6405    2.3922 H   0  0  0  0  0  0  0  0  0  0  0  0
   -5.8640    1.4767    0.8507 H   0  0  0  0  0  0  0  0  0  0  0  0
   -3.9416   -0.4858    2.0375 H   0  0  0  0  0  0  0  0  0  0  0  0
   -3.6400    0.9224    1.0316 H   0  0  0  0  0  0  0  0  0  0  0  0
  1  2  1  0
  2  3  2  0
  3  4  1  0
  4  5  1  0
  5  6  1  0
  6  7  1  0
  7  8  2  0
  8  9  1  0
  9 10  2  0
 10 11  1  0
 10 12  1  0
 12 13  2  0
  5 14  1  0
 14 15  1  0
 15 16  1  0
 16 17  1  0
 17 18  1  0
 18 19  1  0
 19 20  1  0
 20 21  1  0
 21 22  1  0
 22 23  1  0
 23 24  1  0
 14  2  1  0
 24 19  1  0
 13  7  1  0
  1 25  1  0
  1 26  1  0
  4 27  1  0
  4 28  1  0
  5 29  1  0
  6 30  1  0
  6 31  1  0
  8 32  1  0
  9 33  1  0
 11 34  1  0
 12 35  1  0
 13 36  1  0
 15 37  1  0
 15 38  1  0
 16 39  1  0
 16 40  1  0
 17 41  1  0
 17 42  1  0
 18 43  1  0
 18 44  1  0
 19 45  1  0
 20 46  1  0
 20 47  1  0
 21 48  1  0
 21 49  1  0
 22 50  1  0
 22 51  1  0
 23 52  1  0
 23 53  1  0
 24 54  1  0
 24 55  1  0
M  END
$$$$
