
     RDKit          3D

 39 41  0  0  0  0  0  0  0  0999 V2000
   -3.9684   -2.3218   -1.0910 C   0  0  0  0  0  0  0  0  0  0  0  0
   -3.5506   -2.6365    0.3354 C   0  0  0  0  0  0  0  0  0  0  0  0
   -1.8480   -3.2874    0.4155 S   0  0  0  0  0  0  0  0  0  0  0  0
   -0.8798   -1.8001    0.1882 C   0  0  0  0  0  0  0  0  0  0  0  0
    0.4696   -1.9296   -0.0626 C   0  0  0  0  0  0  0  0  0  0  0  0
    1.2035   -0.7731   -0.2212 C   0  0  0  0  0  0  0  0  0  0  0  0
    2.5518   -0.8021   -0.4903 N   0  0  0  0  0  0  0  0  0  0  0  0
    3.4254   -1.9242   -0.1662 C   0  0  0  0  0  0  0  0  0  0  0  0
    4.8050   -1.2877    0.0090 C   0  0  0  0  0  0  0  0  0  0  0  0
    4.7279   -0.0269   -0.8371 C   0  0  0  0  0  0  0  0  0  0  0  0
    3.2974    0.4465   -0.5997 C   0  0  0  0  0  0  0  0  0  0  0  0
    0.5989    0.4249   -0.1480 N   0  0  0  0  0  0  0  0  0  0  0  0
   -0.7213    0.4664    0.1062 C   0  0  0  0  0  0  0  0  0  0  0  0
   -1.3650    1.7951    0.1889 C   0  0  0  0  0  0  0  0  0  0  0  0
   -2.7414    1.9308    0.4695 C   0  0  0  0  0  0  0  0  0  0  0  0
   -3.3512    3.1873    0.5472 C   0  0  0  0  0  0  0  0  0  0  0  0
   -2.5913    4.3301    0.3445 C   0  0  0  0  0  0  0  0  0  0  0  0
   -3.1737    5.5337    0.4183 F   0  0  0  0  0  0  0  0  0  0  0  0
   -1.2353    4.2406    0.0661 C   0  0  0  0  0  0  0  0  0  0  0  0
   -0.6289    2.9824   -0.0107 C   0  0  0  0  0  0  0  0  0  0  0  0
   -1.4932   -0.6143    0.2875 N   0  0  0  0  0  0  0  0  0  0  0  0
   -5.0082   -1.9780   -1.1046 H   0  0  0  0  0  0  0  0  0  0  0  0
   -3.3563   -1.5315   -1.5362 H   0  0  0  0  0  0  0  0  0  0  0  0
   -3.9066   -3.2091   -1.7303 H   0  0  0  0  0  0  0  0  0  0  0  0
   -4.2107   -3.4151    0.7324 H   0  0  0  0  0  0  0  0  0  0  0  0
   -3.6670   -1.7639    0.9855 H   0  0  0  0  0  0  0  0  0  0  0  0
    0.9247   -2.9068   -0.1452 H   0  0  0  0  0  0  0  0  0  0  0  0
    3.4316   -2.6393   -0.9961 H   0  0  0  0  0  0  0  0  0  0  0  0
    3.1357   -2.4446    0.7533 H   0  0  0  0  0  0  0  0  0  0  0  0
    5.6153   -1.9563   -0.2948 H   0  0  0  0  0  0  0  0  0  0  0  0
    4.9608   -1.0200    1.0612 H   0  0  0  0  0  0  0  0  0  0  0  0
    4.8742   -0.2764   -1.8949 H   0  0  0  0  0  0  0  0  0  0  0  0
    5.4711    0.7230   -0.5527 H   0  0  0  0  0  0  0  0  0  0  0  0
    3.2392    1.0180    0.3348 H   0  0  0  0  0  0  0  0  0  0  0  0
    2.9483    1.0704   -1.4294 H   0  0  0  0  0  0  0  0  0  0  0  0
   -3.3537    1.0450    0.6319 H   0  0  0  0  0  0  0  0  0  0  0  0
   -4.4108    3.2760    0.7641 H   0  0  0  0  0  0  0  0  0  0  0  0
   -0.6558    5.1446   -0.0903 H   0  0  0  0  0  0  0  0  0  0  0  0
    0.4366    2.9302   -0.2312 H   0  0  0  0  0  0  0  0  0  0  0  0
  1  2  1  0
  2  3  1  0
  3  4  1  0
  4  5  2  0
  5  6  1  0
  6  7  1  0
  7  8  1  0
  8  9  1  0
  9 10  1  0
 10 11  1  0
  6 12  2  0
 12 13  1  0
 13 14  1  0
 14 15  2  0
 15 16  1  0
 16 17  2  0
 17 18  1  0
 17 19  1  0
 19 20  2  0
 13 21  2  0
 21  4  1  0
 11  7  1  0
 20 14  1  0
  1 22  1  0
  1 23  1  0
  1 24  1  0
  2 25  1  0
  2 26  1  0
  5 27  1  0
  8 28  1  0
  8 29  1  0
  9 30  1  0
  9 31  1  0
 10 32  1  0
 10 33  1  0
 11 34  1  0
 11 35  1  0
 15 36  1  0
 16 37  1  0
 19 38  1  0
 20 39  1  0
M  END
$$$$
