
     RDKit          3D

 35 37  0  0  0  0  0  0  0  0999 V2000
   -5.6928    0.4857    0.0141 C   0  0  0  0  0  0  0  0  0  0  0  0
   -4.2592    0.0351    0.0590 C   0  0  0  0  0  0  0  0  0  0  0  0
   -3.2374    0.9942   -0.0440 C   0  0  0  0  0  0  0  0  0  0  0  0
   -1.8947    0.6413   -0.0475 C   0  0  0  0  0  0  0  0  0  0  0  0
   -0.9539    1.5976   -0.1479 N   0  0  0  0  0  0  0  0  0  0  0  0
    0.3318    1.2000   -0.1647 C   0  0  0  0  0  0  0  0  0  0  0  0
    1.3407    2.1394   -0.2719 C   0  0  0  0  0  0  0  0  0  0  0  0
    2.6891    1.7607   -0.2912 C   0  0  0  0  0  0  0  0  0  0  0  0
    3.0816    0.4192   -0.1939 C   0  0  0  0  0  0  0  0  0  0  0  0
    4.4259    0.0344   -0.2306 N   0  0  0  0  0  0  0  0  0  0  0  0
    5.4590    1.0359    0.0328 C   0  0  0  0  0  0  0  0  0  0  0  0
    4.7846   -1.3445    0.1003 C   0  0  0  0  0  0  0  0  0  0  0  0
    2.0330   -0.5142   -0.1020 C   0  0  0  0  0  0  0  0  0  0  0  0
    0.6841   -0.1582   -0.0797 C   0  0  0  0  0  0  0  0  0  0  0  0
   -0.2601   -1.1139    0.0233 N   0  0  0  0  0  0  0  0  0  0  0  0
   -1.5478   -0.7199    0.0411 C   0  0  0  0  0  0  0  0  0  0  0  0
   -2.5589   -1.6676    0.1466 C   0  0  0  0  0  0  0  0  0  0  0  0
   -3.9125   -1.3134    0.2110 C   0  0  0  0  0  0  0  0  0  0  0  0
   -4.8816   -2.3262    0.2057 N   0  0  0  0  0  0  0  0  0  0  0  0
   -5.7716    1.5640   -0.1605 H   0  0  0  0  0  0  0  0  0  0  0  0
   -6.1880    0.2665    0.9655 H   0  0  0  0  0  0  0  0  0  0  0  0
   -6.2255   -0.0169   -0.7997 H   0  0  0  0  0  0  0  0  0  0  0  0
   -3.4875    2.0490   -0.1381 H   0  0  0  0  0  0  0  0  0  0  0  0
    1.0781    3.1915   -0.3477 H   0  0  0  0  0  0  0  0  0  0  0  0
    3.4207    2.5565   -0.3930 H   0  0  0  0  0  0  0  0  0  0  0  0
    6.4609    0.5930    0.0028 H   0  0  0  0  0  0  0  0  0  0  0  0
    5.3271    1.4859    1.0230 H   0  0  0  0  0  0  0  0  0  0  0  0
    5.4545    1.8200   -0.7317 H   0  0  0  0  0  0  0  0  0  0  0  0
    5.8643   -1.5072    0.0070 H   0  0  0  0  0  0  0  0  0  0  0  0
    4.3145   -2.0531   -0.5902 H   0  0  0  0  0  0  0  0  0  0  0  0
    4.5004   -1.5883    1.1299 H   0  0  0  0  0  0  0  0  0  0  0  0
    2.2414   -1.5781   -0.0423 H   0  0  0  0  0  0  0  0  0  0  0  0
   -2.2713   -2.7153    0.1849 H   0  0  0  0  0  0  0  0  0  0  0  0
   -5.7846   -2.0472    0.5747 H   0  0  0  0  0  0  0  0  0  0  0  0
   -4.5645   -3.2060    0.6024 H   0  0  0  0  0  0  0  0  0  0  0  0
  1  2  1  0
  2  3  2  0
  3  4  1  0
  4  5  2  0
  5  6  1  0
  6  7  2  0
  7  8  1  0
  8  9  2  0
  9 10  1  0
 10 11  1  0
 10 12  1  0
  9 13  1  0
 13 14  2  0
 14 15  1  0
 15 16  2  0
 16 17  1  0
 17 18  2  0
 18 19  1  0
 18  2  1  0
 16  4  1  0
 14  6  1  0
  1 20  1  0
  1 21  1  0
  1 22  1  0
  3 23  1  0
  7 24  1  0
  8 25  1  0
 11 26  1  0
 11 27  1  0
 11 28  1  0
 12 29  1  0
 12 30  1  0
 12 31  1  0
 13 32  1  0
 17 33  1  0
 19 34  1  0
 19 35  1  0
M  END
$$$$
