
     RDKit          3D

 53 56  0  0  0  0  0  0  0  0999 V2000
   -4.3357    0.5095   -0.4707 C   0  0  0  0  0  0  0  0  0  0  0  0
   -4.0034    0.5230    1.0156 C   0  0  0  0  0  0  0  0  0  0  0  0
   -3.1873   -0.6908    1.5069 C   0  0  0  0  0  0  0  0  0  0  0  0
   -3.8839   -2.0528    1.3012 C   0  0  0  0  0  0  0  0  0  0  0  0
   -5.2134   -2.1942    2.0026 C   0  0  0  0  0  0  0  0  0  0  0  0
   -5.2894   -2.1685    3.4017 C   0  0  0  0  0  0  0  0  0  0  0  0
   -6.5207   -2.2927    4.0462 C   0  0  0  0  0  0  0  0  0  0  0  0
   -7.6875   -2.4485    3.3006 C   0  0  0  0  0  0  0  0  0  0  0  0
   -7.6232   -2.4841    1.9104 C   0  0  0  0  0  0  0  0  0  0  0  0
   -6.3929   -2.3603    1.2639 C   0  0  0  0  0  0  0  0  0  0  0  0
   -1.8654   -0.7130    0.8724 N   0  0  0  0  0  0  0  0  0  0  0  0
   -0.8213    0.0539    1.3507 C   0  0  0  0  0  0  0  0  0  0  0  0
   -0.8879    0.7344    2.3672 O   0  0  0  0  0  0  0  0  0  0  0  0
    0.4289    0.0506    0.5380 C   0  0  0  0  0  0  0  0  0  0  0  0
    0.7769   -1.0321   -0.2740 C   0  0  0  0  0  0  0  0  0  0  0  0
    1.9599   -1.0046   -1.0231 C   0  0  0  0  0  0  0  0  0  0  0  0
    2.8145    0.1140   -0.9476 C   0  0  0  0  0  0  0  0  0  0  0  0
    4.0041    0.2682   -1.6314 N   0  0  0  0  0  0  0  0  0  0  0  0
    4.5922    1.4059   -1.3235 C   0  0  0  0  0  0  0  0  0  0  0  0
    5.7832    1.8080   -1.8729 N   0  0  0  0  0  0  0  0  0  0  0  0
    6.4489    0.8096   -2.7395 C   0  0  0  0  0  0  0  0  0  0  0  0
    7.5979    1.4585   -3.5222 C   0  0  0  0  0  0  0  0  0  0  0  0
    8.5402    2.0909   -2.6440 O   0  0  0  0  0  0  0  0  0  0  0  0
    7.8859    3.1142   -1.8816 C   0  0  0  0  0  0  0  0  0  0  0  0
    6.7415    2.5460   -1.0270 C   0  0  0  0  0  0  0  0  0  0  0  0
    3.6867    2.3730   -0.2055 S   0  0  0  0  0  0  0  0  0  0  0  0
    2.4613    1.1738   -0.1186 C   0  0  0  0  0  0  0  0  0  0  0  0
    1.2748    1.1669    0.6339 C   0  0  0  0  0  0  0  0  0  0  0  0
   -4.9677   -0.3424   -0.7355 H   0  0  0  0  0  0  0  0  0  0  0  0
   -3.4307    0.4716   -1.0850 H   0  0  0  0  0  0  0  0  0  0  0  0
   -4.8818    1.4201   -0.7382 H   0  0  0  0  0  0  0  0  0  0  0  0
   -3.4452    1.4429    1.2305 H   0  0  0  0  0  0  0  0  0  0  0  0
   -4.9380    0.5935    1.5855 H   0  0  0  0  0  0  0  0  0  0  0  0
   -3.0209   -0.5483    2.5827 H   0  0  0  0  0  0  0  0  0  0  0  0
   -3.2275   -2.8524    1.6711 H   0  0  0  0  0  0  0  0  0  0  0  0
   -3.9971   -2.2575    0.2288 H   0  0  0  0  0  0  0  0  0  0  0  0
   -4.3885   -2.0520    4.0013 H   0  0  0  0  0  0  0  0  0  0  0  0
   -6.5683   -2.2686    5.1313 H   0  0  0  0  0  0  0  0  0  0  0  0
   -8.6454   -2.5445    3.8034 H   0  0  0  0  0  0  0  0  0  0  0  0
   -8.5332   -2.6083    1.3285 H   0  0  0  0  0  0  0  0  0  0  0  0
   -6.3641   -2.3919    0.1776 H   0  0  0  0  0  0  0  0  0  0  0  0
   -1.8208   -1.0366   -0.0836 H   0  0  0  0  0  0  0  0  0  0  0  0
    0.1602   -1.9254   -0.3184 H   0  0  0  0  0  0  0  0  0  0  0  0
    2.2365   -1.8435   -1.6552 H   0  0  0  0  0  0  0  0  0  0  0  0
    5.7443    0.3773   -3.4612 H   0  0  0  0  0  0  0  0  0  0  0  0
    6.8457   -0.0003   -2.1140 H   0  0  0  0  0  0  0  0  0  0  0  0
    7.2208    2.2011   -4.2366 H   0  0  0  0  0  0  0  0  0  0  0  0
    8.1356    0.6941   -4.0926 H   0  0  0  0  0  0  0  0  0  0  0  0
    8.6369    3.5750   -1.2327 H   0  0  0  0  0  0  0  0  0  0  0  0
    7.5188    3.8900   -2.5628 H   0  0  0  0  0  0  0  0  0  0  0  0
    7.1530    1.8592   -0.2770 H   0  0  0  0  0  0  0  0  0  0  0  0
    6.2695    3.3845   -0.5045 H   0  0  0  0  0  0  0  0  0  0  0  0
    1.0231    2.0034    1.2818 H   0  0  0  0  0  0  0  0  0  0  0  0
  1  2  1  0
  2  3  1  0
  3  4  1  0
  4  5  1  0
  5  6  2  0
  6  7  1  0
  7  8  2  0
  8  9  1  0
  9 10  2  0
  3 11  1  0
 11 12  1  0
 12 13  2  0
 12 14  1  0
 14 15  2  0
 15 16  1  0
 16 17  2  0
 17 18  1  0
 18 19  2  0
 19 20  1  0
 20 21  1  0
 21 22  1  0
 22 23  1  0
 23 24  1  0
 24 25  1  0
 19 26  1  0
 26 27  1  0
 27 28  2  0
 10  5  1  0
 28 14  1  0
 27 17  1  0
 25 20  1  0
  1 29  1  0
  1 30  1  0
  1 31  1  0
  2 32  1  0
  2 33  1  0
  3 34  1  0
  4 35  1  0
  4 36  1  0
  6 37  1  0
  7 38  1  0
  8 39  1  0
  9 40  1  0
 10 41  1  0
 11 42  1  0
 15 43  1  0
 16 44  1  0
 21 45  1  0
 21 46  1  0
 22 47  1  0
 22 48  1  0
 24 49  1  0
 24 50  1  0
 25 51  1  0
 25 52  1  0
 28 53  1  0
M  END
$$$$
