
     RDKit          3D

 55 57  0  0  0  0  0  0  0  0999 V2000
    1.7524   -1.2867   -2.4202 C   0  0  0  0  0  0  0  0  0  0  0  0
    2.1110   -0.1170   -1.5044 C   0  0  0  0  0  0  0  0  0  0  0  0
    1.1261    1.0617   -1.5613 C   0  0  0  0  0  0  0  0  0  0  0  0
    1.5620    2.2136   -1.5503 O   0  0  0  0  0  0  0  0  0  0  0  0
   -0.2112    0.7165   -1.5814 N   0  0  0  0  0  0  0  0  0  0  0  0
   -1.3328    1.5812   -1.6595 C   0  0  0  0  0  0  0  0  0  0  0  0
   -1.2205    2.9530   -1.9086 C   0  0  0  0  0  0  0  0  0  0  0  0
   -2.3577    3.7694   -1.9744 C   0  0  0  0  0  0  0  0  0  0  0  0
   -3.6291    3.2293   -1.7983 C   0  0  0  0  0  0  0  0  0  0  0  0
   -3.7676    1.8671   -1.5530 C   0  0  0  0  0  0  0  0  0  0  0  0
   -2.6263    1.0537   -1.4778 C   0  0  0  0  0  0  0  0  0  0  0  0
   -2.8285   -0.3873   -1.2225 C   0  0  0  0  0  0  0  0  0  0  0  0
   -2.5296   -1.1761   -2.1154 O   0  0  0  0  0  0  0  0  0  0  0  0
   -3.3317   -0.7724    0.0122 N   0  0  0  0  0  0  0  0  0  0  0  0
   -3.3691    0.0880    1.2025 C   0  0  0  0  0  0  0  0  0  0  0  0
   -3.0273   -0.7107    2.4654 C   0  0  0  0  0  0  0  0  0  0  0  0
   -3.9047   -1.8233    2.6948 O   0  0  0  0  0  0  0  0  0  0  0  0
   -4.4268   -2.4120    1.4933 C   0  0  0  0  0  0  0  0  0  0  0  0
   -3.5430   -2.1966    0.2630 C   0  0  0  0  0  0  0  0  0  0  0  0
    2.4329   -0.6192   -0.1242 N   0  0  0  0  0  0  0  0  0  0  0  0
    3.6580   -0.0996    0.4259 C   0  0  0  0  0  0  0  0  0  0  0  0
    3.7795    1.2205    0.8671 C   0  0  0  0  0  0  0  0  0  0  0  0
    5.0016    1.6811    1.3632 C   0  0  0  0  0  0  0  0  0  0  0  0
    6.1007    0.8250    1.4030 C   0  0  0  0  0  0  0  0  0  0  0  0
    7.6047    1.3911    2.0150 Cl  0  0  0  0  0  0  0  0  0  0  0  0
    5.9905   -0.4871    0.9443 C   0  0  0  0  0  0  0  0  0  0  0  0
    4.7688   -0.9474    0.4482 C   0  0  0  0  0  0  0  0  0  0  0  0
    1.1366   -0.7811    0.9691 S   0  0  0  0  0  6  0  0  0  0  0  0
    1.7662   -1.9876    2.1196 C   0  0  0  0  0  0  0  0  0  0  0  0
    0.9183    0.4638    1.6718 O   0  0  0  0  0  0  0  0  0  0  0  0
    0.0433   -1.4062    0.2521 O   0  0  0  0  0  0  0  0  0  0  0  0
    0.8871   -1.8560   -2.0712 H   0  0  0  0  0  0  0  0  0  0  0  0
    2.5909   -1.9891   -2.4870 H   0  0  0  0  0  0  0  0  0  0  0  0
    1.5268   -0.9313   -3.4313 H   0  0  0  0  0  0  0  0  0  0  0  0
    3.0368    0.2916   -1.9394 H   0  0  0  0  0  0  0  0  0  0  0  0
   -0.4334   -0.2676   -1.4129 H   0  0  0  0  0  0  0  0  0  0  0  0
   -0.2572    3.4275   -2.0680 H   0  0  0  0  0  0  0  0  0  0  0  0
   -2.2419    4.8330   -2.1717 H   0  0  0  0  0  0  0  0  0  0  0  0
   -4.5066    3.8677   -1.8601 H   0  0  0  0  0  0  0  0  0  0  0  0
   -4.7576    1.4357   -1.4288 H   0  0  0  0  0  0  0  0  0  0  0  0
   -2.6780    0.9289    1.0993 H   0  0  0  0  0  0  0  0  0  0  0  0
   -4.3913    0.4766    1.2719 H   0  0  0  0  0  0  0  0  0  0  0  0
   -3.0782   -0.0643    3.3471 H   0  0  0  0  0  0  0  0  0  0  0  0
   -2.0054   -1.1019    2.4055 H   0  0  0  0  0  0  0  0  0  0  0  0
   -4.5619   -3.4816    1.6818 H   0  0  0  0  0  0  0  0  0  0  0  0
   -5.4207   -1.9812    1.3246 H   0  0  0  0  0  0  0  0  0  0  0  0
   -3.9901   -2.6613   -0.6223 H   0  0  0  0  0  0  0  0  0  0  0  0
   -2.5557   -2.6458    0.4214 H   0  0  0  0  0  0  0  0  0  0  0  0
    2.9336    1.9041    0.8273 H   0  0  0  0  0  0  0  0  0  0  0  0
    5.0870    2.7081    1.7093 H   0  0  0  0  0  0  0  0  0  0  0  0
    6.8505   -1.1512    0.9652 H   0  0  0  0  0  0  0  0  0  0  0  0
    4.6889   -1.9669    0.0796 H   0  0  0  0  0  0  0  0  0  0  0  0
    0.9580   -2.2416    2.8095 H   0  0  0  0  0  0  0  0  0  0  0  0
    2.0716   -2.8782    1.5675 H   0  0  0  0  0  0  0  0  0  0  0  0
    2.6000   -1.5599    2.6781 H   0  0  0  0  0  0  0  0  0  0  0  0
  1  2  1  0
  2  3  1  0
  3  4  2  0
  3  5  1  0
  5  6  1  0
  6  7  2  0
  7  8  1  0
  8  9  2  0
  9 10  1  0
 10 11  2  0
 11 12  1  0
 12 13  2  0
 12 14  1  0
 14 15  1  0
 15 16  1  0
 16 17  1  0
 17 18  1  0
 18 19  1  0
  2 20  1  0
 20 21  1  0
 21 22  2  0
 22 23  1  0
 23 24  2  0
 24 25  1  0
 24 26  1  0
 26 27  2  0
 20 28  1  0
 28 29  1  0
 28 30  2  0
 28 31  2  0
 11  6  1  0
 19 14  1  0
 27 21  1  0
  1 32  1  0
  1 33  1  0
  1 34  1  0
  2 35  1  0
  5 36  1  0
  7 37  1  0
  8 38  1  0
  9 39  1  0
 10 40  1  0
 15 41  1  0
 15 42  1  0
 16 43  1  0
 16 44  1  0
 18 45  1  0
 18 46  1  0
 19 47  1  0
 19 48  1  0
 22 49  1  0
 23 50  1  0
 26 51  1  0
 27 52  1  0
 29 53  1  0
 29 54  1  0
 29 55  1  0
M  END
$$$$
