
     RDKit          3D

 58 60  0  0  0  0  0  0  0  0999 V2000
    6.5023   -1.9867    1.5293 C   0  0  0  0  0  0  0  0  0  0  0  0
    7.1853   -0.7172    1.0453 C   0  0  0  0  0  0  0  0  0  0  0  0
    6.2313    0.2520    0.3460 C   0  0  0  0  0  0  0  0  0  0  0  0
    5.6974   -0.2750   -0.9863 C   0  0  0  0  0  0  0  0  0  0  0  0
    4.8929    0.7197   -1.6242 O   0  0  0  0  0  0  0  0  0  0  0  0
    3.5476    0.7322   -1.3869 C   0  0  0  0  0  0  0  0  0  0  0  0
    2.8641   -0.0410   -0.4494 C   0  0  0  0  0  0  0  0  0  0  0  0
    1.4736    0.0737   -0.3181 C   0  0  0  0  0  0  0  0  0  0  0  0
    0.7570    0.9736   -1.1183 C   0  0  0  0  0  0  0  0  0  0  0  0
   -0.7272    1.1047   -1.0049 C   0  0  0  0  0  0  0  0  0  0  0  0
   -1.3259    1.9085   -1.7107 O   0  0  0  0  0  0  0  0  0  0  0  0
   -1.3373    0.2406   -0.1297 N   0  0  0  0  0  0  0  0  0  0  0  0
   -2.3768    0.6567    0.5347 C   0  0  0  0  0  0  0  0  0  0  0  0
   -3.1462   -0.2469    1.4709 C   0  0  0  0  0  0  0  0  0  0  0  0
   -2.4916   -1.5834    1.7362 C   0  0  0  0  0  0  0  0  0  0  0  0
   -1.5549   -1.7217    2.7726 C   0  0  0  0  0  0  0  0  0  0  0  0
   -0.9244   -2.9481    2.9990 C   0  0  0  0  0  0  0  0  0  0  0  0
   -1.2303   -4.0431    2.1800 C   0  0  0  0  0  0  0  0  0  0  0  0
   -0.5648   -5.3311    2.4095 N   0  0  0  0  0  4  0  0  0  0  0  0
    0.3181   -5.3778    3.2790 O   0  0  0  0  0  0  0  0  0  0  0  0
   -0.9229   -6.2968    1.7198 O   0  0  0  0  0  1  0  0  0  0  0  0
   -2.1597   -3.9180    1.1398 C   0  0  0  0  0  0  0  0  0  0  0  0
   -2.7841   -2.6878    0.9200 C   0  0  0  0  0  0  0  0  0  0  0  0
   -2.9297    2.0641    0.4574 C   0  0  0  0  0  0  0  0  0  0  0  0
   -2.4564    2.9757    1.1087 O   0  0  0  0  0  0  0  0  0  0  0  0
   -3.9859    2.0735   -0.3697 O   0  0  0  0  0  0  0  0  0  0  0  0
   -4.5080    3.3832   -0.5938 C   0  0  0  0  0  0  0  0  0  0  0  0
   -5.4942    3.2510   -1.6932 C   0  0  0  0  0  0  0  0  0  0  0  0
   -5.3709    2.9947   -3.0439 C   0  0  0  0  0  0  0  0  0  0  0  0
   -6.6839    2.9886   -3.5699 C   0  0  0  0  0  0  0  0  0  0  0  0
   -7.5234    3.2397   -2.5091 C   0  0  0  0  0  0  0  0  0  0  0  0
   -6.8104    3.4001   -1.3650 O   0  0  0  0  0  0  0  0  0  0  0  0
    1.4463    1.7620   -2.0455 C   0  0  0  0  0  0  0  0  0  0  0  0
    2.8315    1.6367   -2.1767 C   0  0  0  0  0  0  0  0  0  0  0  0
    5.6533   -1.7492    2.1780 H   0  0  0  0  0  0  0  0  0  0  0  0
    7.2069   -2.5981    2.1032 H   0  0  0  0  0  0  0  0  0  0  0  0
    6.1399   -2.5936    0.6947 H   0  0  0  0  0  0  0  0  0  0  0  0
    7.6266   -0.2071    1.9104 H   0  0  0  0  0  0  0  0  0  0  0  0
    8.0143   -0.9755    0.3758 H   0  0  0  0  0  0  0  0  0  0  0  0
    6.7577    1.1971    0.1608 H   0  0  0  0  0  0  0  0  0  0  0  0
    5.4016    0.5082    1.0155 H   0  0  0  0  0  0  0  0  0  0  0  0
    5.1728   -1.2317   -0.8981 H   0  0  0  0  0  0  0  0  0  0  0  0
    6.5433   -0.4625   -1.6573 H   0  0  0  0  0  0  0  0  0  0  0  0
    3.3770   -0.7422    0.2011 H   0  0  0  0  0  0  0  0  0  0  0  0
    0.9619   -0.5478    0.4133 H   0  0  0  0  0  0  0  0  0  0  0  0
   -3.2928    0.2798    2.4225 H   0  0  0  0  0  0  0  0  0  0  0  0
   -4.1470   -0.4042    1.0494 H   0  0  0  0  0  0  0  0  0  0  0  0
   -1.3053   -0.8727    3.4080 H   0  0  0  0  0  0  0  0  0  0  0  0
   -0.2014   -3.0315    3.8087 H   0  0  0  0  0  0  0  0  0  0  0  0
   -2.4015   -4.7581    0.4913 H   0  0  0  0  0  0  0  0  0  0  0  0
   -3.4946   -2.5934    0.0996 H   0  0  0  0  0  0  0  0  0  0  0  0
   -4.9885    3.7505    0.3203 H   0  0  0  0  0  0  0  0  0  0  0  0
   -3.7112    4.0730   -0.8955 H   0  0  0  0  0  0  0  0  0  0  0  0
   -4.4416    2.8296   -3.5731 H   0  0  0  0  0  0  0  0  0  0  0  0
   -6.9839    2.8197   -4.5948 H   0  0  0  0  0  0  0  0  0  0  0  0
   -8.5967    3.3313   -2.4086 H   0  0  0  0  0  0  0  0  0  0  0  0
    0.9113    2.4710   -2.6746 H   0  0  0  0  0  0  0  0  0  0  0  0
    3.3596    2.2512   -2.9034 H   0  0  0  0  0  0  0  0  0  0  0  0
  1  2  1  0
  2  3  1  0
  3  4  1  0
  4  5  1  0
  5  6  1  0
  6  7  2  0
  7  8  1  0
  8  9  2  0
  9 10  1  0
 10 11  2  0
 10 12  1  0
 12 13  2  3
 13 14  1  0
 14 15  1  0
 15 16  2  0
 16 17  1  0
 17 18  2  0
 18 19  1  0
 19 20  2  0
 19 21  1  0
 18 22  1  0
 22 23  2  0
 13 24  1  0
 24 25  2  0
 24 26  1  0
 26 27  1  0
 27 28  1  0
 28 29  2  0
 29 30  1  0
 30 31  2  0
 31 32  1  0
  9 33  1  0
 33 34  2  0
 34  6  1  0
 23 15  1  0
 32 28  1  0
  1 35  1  0
  1 36  1  0
  1 37  1  0
  2 38  1  0
  2 39  1  0
  3 40  1  0
  3 41  1  0
  4 42  1  0
  4 43  1  0
  7 44  1  0
  8 45  1  0
 14 46  1  0
 14 47  1  0
 16 48  1  0
 17 49  1  0
 22 50  1  0
 23 51  1  0
 27 52  1  0
 27 53  1  0
 29 54  1  0
 30 55  1  0
 31 56  1  0
 33 57  1  0
 34 58  1  0
M  CHG  2  19   1  21  -1
M  END
$$$$
