
     RDKit          3D

 46 47  0  0  0  0  0  0  0  0999 V2000
    0.7225   -3.4951   -0.2795 C   0  0  0  0  0  0  0  0  0  0  0  0
    1.3447   -2.6110   -1.3432 C   0  0  0  0  0  0  0  0  0  0  0  0
    1.2923   -1.2373   -0.9258 O   0  0  0  0  0  0  0  0  0  0  0  0
    2.3662   -0.7918   -0.2120 C   0  0  0  0  0  0  0  0  0  0  0  0
    3.2949   -1.5076    0.1435 O   0  0  0  0  0  0  0  0  0  0  0  0
    2.2469    0.6154    0.1739 C   0  0  0  0  0  0  0  0  0  0  0  0
    2.8557    1.1692    1.2983 C   0  0  0  0  0  0  0  0  0  0  0  0
    3.7311    0.5467    2.3300 C   0  0  0  0  0  0  0  0  0  0  0  0
    2.5266    2.4989    1.3583 N   0  0  0  0  0  0  0  0  0  0  0  0
    1.7185    2.8363    0.3027 C   0  0  0  0  0  0  0  0  0  0  0  0
    1.2273    4.2300    0.1316 C   0  0  0  0  0  0  0  0  0  0  0  0
    1.5440    1.6924   -0.4661 C   0  0  0  0  0  0  0  0  0  0  0  0
    0.6618    1.5626   -1.9630 S   0  0  0  0  0  6  0  0  0  0  0  0
    1.5820    0.8871   -2.8488 O   0  0  0  0  0  0  0  0  0  0  0  0
    0.1583    2.8886   -2.2401 O   0  0  0  0  0  0  0  0  0  0  0  0
   -0.6504    0.5493   -1.6990 N   0  0  0  0  0  0  0  0  0  0  0  0
   -1.6882    1.0585   -0.7989 C   0  0  0  0  0  0  0  0  0  0  0  0
   -2.6502   -0.0482   -0.4229 C   0  0  0  0  0  0  0  0  0  0  0  0
   -3.6694   -0.3809   -1.3341 C   0  0  0  0  0  0  0  0  0  0  0  0
   -4.5703   -1.4081   -1.0592 C   0  0  0  0  0  0  0  0  0  0  0  0
   -4.4618   -2.1241    0.1274 C   0  0  0  0  0  0  0  0  0  0  0  0
   -3.4486   -1.8180    1.0357 C   0  0  0  0  0  0  0  0  0  0  0  0
   -2.5285   -0.7897    0.7720 C   0  0  0  0  0  0  0  0  0  0  0  0
   -1.4519   -0.5046    1.7831 C   0  0  0  0  0  0  0  0  0  0  0  0
    1.2756   -3.4247    0.6624 H   0  0  0  0  0  0  0  0  0  0  0  0
    0.7100   -4.5401   -0.6017 H   0  0  0  0  0  0  0  0  0  0  0  0
   -0.3044   -3.1785   -0.0698 H   0  0  0  0  0  0  0  0  0  0  0  0
    0.7651   -2.6852   -2.2691 H   0  0  0  0  0  0  0  0  0  0  0  0
    2.3685   -2.9228   -1.5791 H   0  0  0  0  0  0  0  0  0  0  0  0
    3.2535   -0.3435    2.7513 H   0  0  0  0  0  0  0  0  0  0  0  0
    3.9353    1.2378    3.1544 H   0  0  0  0  0  0  0  0  0  0  0  0
    4.6894    0.2543    1.8893 H   0  0  0  0  0  0  0  0  0  0  0  0
    2.8458    3.1426    2.0728 H   0  0  0  0  0  0  0  0  0  0  0  0
    1.5428    4.8709    0.9617 H   0  0  0  0  0  0  0  0  0  0  0  0
    1.6208    4.6655   -0.7921 H   0  0  0  0  0  0  0  0  0  0  0  0
    0.1336    4.2500    0.0967 H   0  0  0  0  0  0  0  0  0  0  0  0
   -0.3192   -0.3886   -1.4634 H   0  0  0  0  0  0  0  0  0  0  0  0
   -2.2416    1.8645   -1.2954 H   0  0  0  0  0  0  0  0  0  0  0  0
   -1.2488    1.4919    0.1040 H   0  0  0  0  0  0  0  0  0  0  0  0
   -3.7580    0.1631   -2.2734 H   0  0  0  0  0  0  0  0  0  0  0  0
   -5.3533   -1.6500   -1.7731 H   0  0  0  0  0  0  0  0  0  0  0  0
   -5.1637   -2.9248    0.3454 H   0  0  0  0  0  0  0  0  0  0  0  0
   -3.3805   -2.3948    1.9561 H   0  0  0  0  0  0  0  0  0  0  0  0
   -1.6054    0.4815    2.2324 H   0  0  0  0  0  0  0  0  0  0  0  0
   -1.4536   -1.2429    2.5921 H   0  0  0  0  0  0  0  0  0  0  0  0
   -0.4656   -0.5450    1.3130 H   0  0  0  0  0  0  0  0  0  0  0  0
  1  2  1  0
  2  3  1  0
  3  4  1  0
  4  5  2  0
  4  6  1  0
  6  7  2  0
  7  8  1  0
  7  9  1  0
  9 10  1  0
 10 11  1  0
 10 12  2  0
 12 13  1  0
 13 14  2  0
 13 15  2  0
 13 16  1  0
 16 17  1  0
 17 18  1  0
 18 19  2  0
 19 20  1  0
 20 21  2  0
 21 22  1  0
 22 23  2  0
 23 24  1  0
 12  6  1  0
 23 18  1  0
  1 25  1  0
  1 26  1  0
  1 27  1  0
  2 28  1  0
  2 29  1  0
  8 30  1  0
  8 31  1  0
  8 32  1  0
  9 33  1  0
 11 34  1  0
 11 35  1  0
 11 36  1  0
 16 37  1  0
 17 38  1  0
 17 39  1  0
 19 40  1  0
 20 41  1  0
 21 42  1  0
 22 43  1  0
 24 44  1  0
 24 45  1  0
 24 46  1  0
M  END
$$$$
