
     RDKit          3D

 46 50  0  0  0  0  0  0  0  0999 V2000
   -1.3312    1.5203    2.5687 O   0  0  0  0  0  0  0  0  0  0  0  0
   -1.2937    1.1148    1.4113 C   0  0  0  0  0  0  0  0  0  0  0  0
   -2.1934    1.7107    0.4060 C   0  0  0  0  0  0  0  0  0  0  0  0
   -2.9539    2.8432    0.7146 C   0  0  0  0  0  0  0  0  0  0  0  0
   -3.7644    3.4065   -0.2677 C   0  0  0  0  0  0  0  0  0  0  0  0
   -4.7007    4.8032    0.0932 Cl  0  0  0  0  0  0  0  0  0  0  0  0
   -3.8175    2.8509   -1.5464 C   0  0  0  0  0  0  0  0  0  0  0  0
   -3.0598    1.7158   -1.8433 C   0  0  0  0  0  0  0  0  0  0  0  0
   -2.2569    1.1367   -0.8615 C   0  0  0  0  0  0  0  0  0  0  0  0
   -1.5627    0.0217   -1.2318 O   0  0  0  0  0  0  0  0  0  0  0  0
   -1.0720   -0.8200   -0.1534 C   0  0  0  0  0  0  0  0  0  0  0  0
   -0.1136   -1.8461   -0.8349 C   0  0  0  0  0  0  0  0  0  0  0  0
   -0.7684   -3.1952   -1.1539 C   0  0  0  0  0  0  0  0  0  0  0  0
   -2.1350   -3.0222   -1.6133 N   0  0  0  0  0  0  0  0  0  0  0  0
   -2.9956   -2.4477   -0.5818 C   0  0  0  0  0  0  0  0  0  0  0  0
   -2.2469   -1.6185    0.4683 C   0  0  0  0  0  0  0  0  0  0  0  0
   -0.3254    0.0562    0.8902 C   0  0  0  0  0  0  0  0  0  0  0  0
    0.9121    0.7789    0.3699 C   0  0  0  0  0  0  0  0  0  0  0  0
    1.9675    0.0431    1.1174 C   0  0  0  0  0  0  0  0  0  0  0  0
    3.4097    0.2692    0.8601 C   0  0  0  0  0  0  0  0  0  0  0  0
    3.8478    1.2256   -0.0634 C   0  0  0  0  0  0  0  0  0  0  0  0
    5.2155    1.4098   -0.2841 C   0  0  0  0  0  0  0  0  0  0  0  0
    6.1477    0.6438    0.4146 C   0  0  0  0  0  0  0  0  0  0  0  0
    5.7169   -0.3076    1.3371 C   0  0  0  0  0  0  0  0  0  0  0  0
    4.3516   -0.4950    1.5605 C   0  0  0  0  0  0  0  0  0  0  0  0
    1.5307   -0.8014    1.9948 N   0  0  0  0  0  0  0  0  0  0  0  0
    0.1197   -0.7455    1.9903 O   0  0  0  0  0  0  0  0  0  0  0  0
   -2.9066    3.2830    1.7085 H   0  0  0  0  0  0  0  0  0  0  0  0
   -4.4483    3.2932   -2.3138 H   0  0  0  0  0  0  0  0  0  0  0  0
   -3.1065    1.2749   -2.8368 H   0  0  0  0  0  0  0  0  0  0  0  0
    0.7512   -2.0712   -0.2040 H   0  0  0  0  0  0  0  0  0  0  0  0
    0.2786   -1.4174   -1.7666 H   0  0  0  0  0  0  0  0  0  0  0  0
   -0.7413   -3.8538   -0.2766 H   0  0  0  0  0  0  0  0  0  0  0  0
   -0.1826   -3.6969   -1.9325 H   0  0  0  0  0  0  0  0  0  0  0  0
   -2.5225   -3.9104   -1.9310 H   0  0  0  0  0  0  0  0  0  0  0  0
   -3.5408   -3.2488   -0.0684 H   0  0  0  0  0  0  0  0  0  0  0  0
   -3.7494   -1.8255   -1.0774 H   0  0  0  0  0  0  0  0  0  0  0  0
   -2.9771   -0.9621    0.9543 H   0  0  0  0  0  0  0  0  0  0  0  0
   -1.8642   -2.2866    1.2511 H   0  0  0  0  0  0  0  0  0  0  0  0
    1.0463    0.6883   -0.7109 H   0  0  0  0  0  0  0  0  0  0  0  0
    0.9479    1.8378    0.6481 H   0  0  0  0  0  0  0  0  0  0  0  0
    3.1491    1.8427   -0.6198 H   0  0  0  0  0  0  0  0  0  0  0  0
    5.5554    2.1541   -1.0004 H   0  0  0  0  0  0  0  0  0  0  0  0
    7.2114    0.7903    0.2426 H   0  0  0  0  0  0  0  0  0  0  0  0
    6.4423   -0.9034    1.8857 H   0  0  0  0  0  0  0  0  0  0  0  0
    4.0294   -1.2394    2.2864 H   0  0  0  0  0  0  0  0  0  0  0  0
  1  2  2  0
  2  3  1  0
  3  4  2  0
  4  5  1  0
  5  6  1  0
  5  7  2  0
  7  8  1  0
  8  9  2  0
  9 10  1  0
 10 11  1  0
 11 12  1  0
 12 13  1  0
 13 14  1  0
 14 15  1  0
 15 16  1  0
 11 17  1  0
 17 18  1  0
 18 19  1  0
 19 20  1  0
 20 21  2  0
 21 22  1  0
 22 23  2  0
 23 24  1  0
 24 25  2  0
 19 26  2  0
 26 27  1  0
 17  2  1  0
 25 20  1  0
  9  3  1  0
 16 11  1  0
 27 17  1  0
  4 28  1  0
  7 29  1  0
  8 30  1  0
 12 31  1  0
 12 32  1  0
 13 33  1  0
 13 34  1  0
 14 35  1  0
 15 36  1  0
 15 37  1  0
 16 38  1  0
 16 39  1  0
 18 40  1  0
 18 41  1  0
 21 42  1  0
 22 43  1  0
 23 44  1  0
 24 45  1  0
 25 46  1  0
M  END
$$$$
