
     RDKit          3D

 48 48  0  0  0  0  0  0  0  0999 V2000
    3.0831   -1.3387   -1.1107 C   0  0  0  0  0  0  0  0  0  0  0  0
    3.2334   -0.7250    0.2835 C   0  0  0  0  0  0  0  0  0  0  0  0
    2.6456    0.6962    0.3339 C   0  0  0  0  0  0  0  0  0  0  0  0
    1.2080    0.7158    0.1247 N   0  0  0  0  0  0  0  0  0  0  0  0
    0.3276    0.3940    1.1372 C   0  0  0  0  0  0  0  0  0  0  0  0
    0.6802    0.1107    2.2767 O   0  0  0  0  0  0  0  0  0  0  0  0
   -1.1149    0.3610    0.7699 C   0  0  0  0  0  0  0  0  0  0  0  0
   -1.9671   -0.4777    1.4894 C   0  0  0  0  0  0  0  0  0  0  0  0
   -3.3283   -0.5387    1.1732 C   0  0  0  0  0  0  0  0  0  0  0  0
   -3.8799    0.2416    0.1379 C   0  0  0  0  0  0  0  0  0  0  0  0
   -5.3835    0.1488   -0.1794 C   0  0  0  0  0  0  0  0  0  0  0  0
   -5.7451   -1.3024   -0.5639 C   0  0  0  0  0  0  0  0  0  0  0  0
   -6.2019    0.5643    1.0621 C   0  0  0  0  0  0  0  0  0  0  0  0
   -5.8327    1.0551   -1.3479 C   0  0  0  0  0  0  0  0  0  0  0  0
   -3.0076    1.0933   -0.5613 C   0  0  0  0  0  0  0  0  0  0  0  0
   -1.6426    1.1571   -0.2495 C   0  0  0  0  0  0  0  0  0  0  0  0
    4.6942   -0.7304    0.7869 C   0  0  0  0  0  0  0  0  0  0  0  0
    5.5920    0.1209   -0.0159 N   0  0  0  0  0  0  0  0  0  0  0  0
    6.4469    0.9372    0.8509 C   0  0  0  0  0  0  0  0  0  0  0  0
    6.4337   -0.6812   -0.9086 C   0  0  0  0  0  0  0  0  0  0  0  0
    3.5614   -2.3227   -1.1559 H   0  0  0  0  0  0  0  0  0  0  0  0
    3.5252   -0.7026   -1.8842 H   0  0  0  0  0  0  0  0  0  0  0  0
    2.0264   -1.4780   -1.3629 H   0  0  0  0  0  0  0  0  0  0  0  0
    2.6642   -1.3621    0.9739 H   0  0  0  0  0  0  0  0  0  0  0  0
    3.0862    1.3366   -0.4379 H   0  0  0  0  0  0  0  0  0  0  0  0
    2.8490    1.1550    1.3087 H   0  0  0  0  0  0  0  0  0  0  0  0
    0.8780    0.7346   -0.8299 H   0  0  0  0  0  0  0  0  0  0  0  0
   -1.5751   -1.0901    2.2991 H   0  0  0  0  0  0  0  0  0  0  0  0
   -3.9561   -1.2086    1.7575 H   0  0  0  0  0  0  0  0  0  0  0  0
   -5.1562   -1.6405   -1.4248 H   0  0  0  0  0  0  0  0  0  0  0  0
   -6.8050   -1.3883   -0.8304 H   0  0  0  0  0  0  0  0  0  0  0  0
   -5.5636   -2.0063    0.2556 H   0  0  0  0  0  0  0  0  0  0  0  0
   -5.9473    1.5825    1.3796 H   0  0  0  0  0  0  0  0  0  0  0  0
   -6.0263   -0.0997    1.9155 H   0  0  0  0  0  0  0  0  0  0  0  0
   -7.2778    0.5394    0.8528 H   0  0  0  0  0  0  0  0  0  0  0  0
   -6.9074    0.9494   -1.5392 H   0  0  0  0  0  0  0  0  0  0  0  0
   -5.6477    2.1138   -1.1320 H   0  0  0  0  0  0  0  0  0  0  0  0
   -5.3131    0.8001   -2.2788 H   0  0  0  0  0  0  0  0  0  0  0  0
   -3.3662    1.7373   -1.3600 H   0  0  0  0  0  0  0  0  0  0  0  0
   -1.0159    1.8564   -0.7955 H   0  0  0  0  0  0  0  0  0  0  0  0
    5.0644   -1.7633    0.8387 H   0  0  0  0  0  0  0  0  0  0  0  0
    4.6708   -0.3852    1.8303 H   0  0  0  0  0  0  0  0  0  0  0  0
    5.8374    1.5974    1.4781 H   0  0  0  0  0  0  0  0  0  0  0  0
    7.0938    1.5884    0.2523 H   0  0  0  0  0  0  0  0  0  0  0  0
    7.0800    0.3245    1.5030 H   0  0  0  0  0  0  0  0  0  0  0  0
    7.1027   -1.3503   -0.3547 H   0  0  0  0  0  0  0  0  0  0  0  0
    7.0478   -0.0297   -1.5408 H   0  0  0  0  0  0  0  0  0  0  0  0
    5.8294   -1.2898   -1.5876 H   0  0  0  0  0  0  0  0  0  0  0  0
  1  2  1  0
  2  3  1  0
  3  4  1  0
  4  5  1  0
  5  6  2  0
  5  7  1  0
  7  8  2  0
  8  9  1  0
  9 10  2  0
 10 11  1  0
 11 12  1  0
 11 13  1  0
 11 14  1  0
 10 15  1  0
 15 16  2  0
  2 17  1  0
 17 18  1  0
 18 19  1  0
 18 20  1  0
 16  7  1  0
  1 21  1  0
  1 22  1  0
  1 23  1  0
  2 24  1  0
  3 25  1  0
  3 26  1  0
  4 27  1  0
  8 28  1  0
  9 29  1  0
 12 30  1  0
 12 31  1  0
 12 32  1  0
 13 33  1  0
 13 34  1  0
 13 35  1  0
 14 36  1  0
 14 37  1  0
 14 38  1  0
 15 39  1  0
 16 40  1  0
 17 41  1  0
 17 42  1  0
 19 43  1  0
 19 44  1  0
 19 45  1  0
 20 46  1  0
 20 47  1  0
 20 48  1  0
M  END
$$$$
