
     RDKit          3D

 92 91  0  0  0  0  0  0  0  0999 V2000
  -12.0700   -1.8655   -0.8101 C   0  0  0  0  0  0  0  0  0  0  0  0
  -10.6456   -2.3258   -0.5425 C   0  0  0  0  0  0  0  0  0  0  0  0
  -10.1242   -1.7898    0.7941 C   0  0  0  0  0  0  0  0  0  0  0  0
   -8.7426   -2.3458    1.1600 C   0  0  0  0  0  0  0  0  0  0  0  0
   -7.6064   -1.8296    0.2439 C   0  0  0  0  0  0  0  0  0  0  0  0
   -6.8957   -2.9929   -0.4824 C   0  0  0  0  0  0  0  0  0  0  0  0
   -6.0460   -3.8827    0.4203 C   0  0  0  0  0  0  0  0  0  0  0  0
   -6.5970   -0.9645    1.0251 C   0  0  0  0  0  0  0  0  0  0  0  0
   -7.2378    0.2899    1.4192 N   0  0  0  0  0  0  0  0  0  0  0  0
   -6.6262    1.4097    1.2396 C   0  0  0  0  0  0  0  0  0  0  0  0
   -7.2016    2.5482    1.6961 N   0  0  0  0  0  0  0  0  0  0  0  0
   -5.4013    1.4976    0.6637 N   0  0  0  0  0  0  0  0  0  0  0  0
   -5.3351    1.6361   -0.6197 C   0  0  0  0  0  0  0  0  0  0  0  0
   -6.3613    1.6900   -1.5158 N   0  0  0  0  0  0  0  0  0  0  0  0
   -4.1590    1.6939   -1.3050 N   0  0  0  0  0  0  0  0  0  0  0  0
   -2.8748    1.6842   -0.6232 C   0  0  0  0  0  0  0  0  0  0  0  0
   -1.7471    1.5275   -1.6470 C   0  0  0  0  0  0  0  0  0  0  0  0
   -0.4327    1.0159   -1.0456 C   0  0  0  0  0  0  0  0  0  0  0  0
    0.1169    1.8919    0.0862 C   0  0  0  0  0  0  0  0  0  0  0  0
    1.3987    1.3248    0.7158 C   0  0  0  0  0  0  0  0  0  0  0  0
    2.6351    1.3559   -0.1876 C   0  0  0  0  0  0  0  0  0  0  0  0
    2.9302    2.7461   -0.5355 N   0  0  0  0  0  0  0  0  0  0  0  0
    4.1545    3.1458   -0.5658 C   0  0  0  0  0  0  0  0  0  0  0  0
    4.3978    4.4371   -0.9061 N   0  0  0  0  0  0  0  0  0  0  0  0
    5.2128    2.3302   -0.3234 N   0  0  0  0  0  0  0  0  0  0  0  0
    5.8227    2.4369    0.8113 C   0  0  0  0  0  0  0  0  0  0  0  0
    5.5272    3.2665    1.8442 N   0  0  0  0  0  0  0  0  0  0  0  0
    6.9209    1.7020    1.1514 N   0  0  0  0  0  0  0  0  0  0  0  0
    7.3549    0.5726    0.3417 C   0  0  0  0  0  0  0  0  0  0  0  0
    8.7578    0.1069    0.7843 C   0  0  0  0  0  0  0  0  0  0  0  0
    9.8170    1.2323    0.6869 C   0  0  0  0  0  0  0  0  0  0  0  0
   10.0182    1.8238   -0.7037 C   0  0  0  0  0  0  0  0  0  0  0  0
    9.2282   -1.1418    0.0021 C   0  0  0  0  0  0  0  0  0  0  0  0
    8.4482   -2.4073    0.3726 C   0  0  0  0  0  0  0  0  0  0  0  0
    8.9188   -3.6477   -0.3935 C   0  0  0  0  0  0  0  0  0  0  0  0
   10.3256   -4.0953   -0.0323 C   0  0  0  0  0  0  0  0  0  0  0  0
  -12.4266   -2.2629   -1.7667 H   0  0  0  0  0  0  0  0  0  0  0  0
  -12.1330   -0.7724   -0.8466 H   0  0  0  0  0  0  0  0  0  0  0  0
  -12.7487   -2.2129   -0.0263 H   0  0  0  0  0  0  0  0  0  0  0  0
  -10.0069   -1.9910   -1.3667 H   0  0  0  0  0  0  0  0  0  0  0  0
  -10.6207   -3.4220   -0.5395 H   0  0  0  0  0  0  0  0  0  0  0  0
  -10.8251   -2.0741    1.5890 H   0  0  0  0  0  0  0  0  0  0  0  0
  -10.0908   -0.6955    0.7751 H   0  0  0  0  0  0  0  0  0  0  0  0
   -8.5400   -2.0840    2.2049 H   0  0  0  0  0  0  0  0  0  0  0  0
   -8.8031   -3.4383    1.1335 H   0  0  0  0  0  0  0  0  0  0  0  0
   -8.0410   -1.1945   -0.5423 H   0  0  0  0  0  0  0  0  0  0  0  0
   -6.2463   -2.5802   -1.2617 H   0  0  0  0  0  0  0  0  0  0  0  0
   -7.6420   -3.6117   -0.9961 H   0  0  0  0  0  0  0  0  0  0  0  0
   -6.6311   -4.2911    1.2484 H   0  0  0  0  0  0  0  0  0  0  0  0
   -5.1942   -3.3337    0.8331 H   0  0  0  0  0  0  0  0  0  0  0  0
   -5.6465   -4.7229   -0.1518 H   0  0  0  0  0  0  0  0  0  0  0  0
   -6.2704   -1.4862    1.9326 H   0  0  0  0  0  0  0  0  0  0  0  0
   -5.7067   -0.8262    0.4070 H   0  0  0  0  0  0  0  0  0  0  0  0
   -6.5197    3.2651    1.8942 H   0  0  0  0  0  0  0  0  0  0  0  0
   -7.8341    2.3506    2.4568 H   0  0  0  0  0  0  0  0  0  0  0  0
   -6.1596    1.1498   -2.3455 H   0  0  0  0  0  0  0  0  0  0  0  0
   -7.2416    1.3899   -1.1144 H   0  0  0  0  0  0  0  0  0  0  0  0
   -4.1979    2.2998   -2.1161 H   0  0  0  0  0  0  0  0  0  0  0  0
   -2.7459    2.6181   -0.0636 H   0  0  0  0  0  0  0  0  0  0  0  0
   -2.8477    0.8504    0.0926 H   0  0  0  0  0  0  0  0  0  0  0  0
   -1.5803    2.4873   -2.1523 H   0  0  0  0  0  0  0  0  0  0  0  0
   -2.0568    0.8151   -2.4255 H   0  0  0  0  0  0  0  0  0  0  0  0
   -0.5868   -0.0054   -0.6693 H   0  0  0  0  0  0  0  0  0  0  0  0
    0.3031    0.9488   -1.8548 H   0  0  0  0  0  0  0  0  0  0  0  0
   -0.6299    1.9684    0.8854 H   0  0  0  0  0  0  0  0  0  0  0  0
    0.2897    2.9129   -0.2770 H   0  0  0  0  0  0  0  0  0  0  0  0
    1.2178    0.2904    1.0336 H   0  0  0  0  0  0  0  0  0  0  0  0
    1.6188    1.8971    1.6286 H   0  0  0  0  0  0  0  0  0  0  0  0
    2.4580    0.7825   -1.1055 H   0  0  0  0  0  0  0  0  0  0  0  0
    3.4499    0.8627    0.3538 H   0  0  0  0  0  0  0  0  0  0  0  0
    3.6115    4.8020   -1.4314 H   0  0  0  0  0  0  0  0  0  0  0  0
    5.2710    4.5155   -1.4094 H   0  0  0  0  0  0  0  0  0  0  0  0
    6.3449    3.6983    2.2529 H   0  0  0  0  0  0  0  0  0  0  0  0
    4.8197    3.9640    1.6151 H   0  0  0  0  0  0  0  0  0  0  0  0
    6.9573    1.5125    2.1468 H   0  0  0  0  0  0  0  0  0  0  0  0
    7.3665    0.8395   -0.7220 H   0  0  0  0  0  0  0  0  0  0  0  0
    6.6250   -0.2369    0.4635 H   0  0  0  0  0  0  0  0  0  0  0  0
    8.7016   -0.1752    1.8459 H   0  0  0  0  0  0  0  0  0  0  0  0
   10.7799    0.8360    1.0373 H   0  0  0  0  0  0  0  0  0  0  0  0
    9.5512    2.0423    1.3775 H   0  0  0  0  0  0  0  0  0  0  0  0
   10.8254    2.5619   -0.6743 H   0  0  0  0  0  0  0  0  0  0  0  0
   10.2952    1.0614   -1.4368 H   0  0  0  0  0  0  0  0  0  0  0  0
    9.1190    2.3329   -1.0624 H   0  0  0  0  0  0  0  0  0  0  0  0
   10.2930   -1.3057    0.2141 H   0  0  0  0  0  0  0  0  0  0  0  0
    9.1387   -0.9678   -1.0774 H   0  0  0  0  0  0  0  0  0  0  0  0
    8.5308   -2.5917    1.4509 H   0  0  0  0  0  0  0  0  0  0  0  0
    7.3836   -2.2651    0.1511 H   0  0  0  0  0  0  0  0  0  0  0  0
    8.8586   -3.4636   -1.4741 H   0  0  0  0  0  0  0  0  0  0  0  0
    8.2265   -4.4700   -0.1774 H   0  0  0  0  0  0  0  0  0  0  0  0
   11.0728   -3.3599   -0.3443 H   0  0  0  0  0  0  0  0  0  0  0  0
   10.4227   -4.2548    1.0459 H   0  0  0  0  0  0  0  0  0  0  0  0
   10.5598   -5.0366   -0.5327 H   0  0  0  0  0  0  0  0  0  0  0  0
  1  2  1  0
  2  3  1  0
  3  4  1  0
  4  5  1  0
  5  6  1  0
  6  7  1  0
  5  8  1  0
  8  9  1  0
  9 10  2  3
 10 11  1  0
 10 12  1  0
 12 13  2  3
 13 14  1  0
 13 15  1  0
 15 16  1  0
 16 17  1  0
 17 18  1  0
 18 19  1  0
 19 20  1  0
 20 21  1  0
 21 22  1  0
 22 23  2  3
 23 24  1  0
 23 25  1  0
 25 26  2  3
 26 27  1  0
 26 28  1  0
 28 29  1  0
 29 30  1  0
 30 31  1  0
 31 32  1  0
 30 33  1  0
 33 34  1  0
 34 35  1  0
 35 36  1  0
  1 37  1  0
  1 38  1  0
  1 39  1  0
  2 40  1  0
  2 41  1  0
  3 42  1  0
  3 43  1  0
  4 44  1  0
  4 45  1  0
  5 46  1  0
  6 47  1  0
  6 48  1  0
  7 49  1  0
  7 50  1  0
  7 51  1  0
  8 52  1  0
  8 53  1  0
 11 54  1  0
 11 55  1  0
 14 56  1  0
 14 57  1  0
 15 58  1  0
 16 59  1  0
 16 60  1  0
 17 61  1  0
 17 62  1  0
 18 63  1  0
 18 64  1  0
 19 65  1  0
 19 66  1  0
 20 67  1  0
 20 68  1  0
 21 69  1  0
 21 70  1  0
 24 71  1  0
 24 72  1  0
 27 73  1  0
 27 74  1  0
 28 75  1  0
 29 76  1  0
 29 77  1  0
 30 78  1  0
 31 79  1  0
 31 80  1  0
 32 81  1  0
 32 82  1  0
 32 83  1  0
 33 84  1  0
 33 85  1  0
 34 86  1  0
 34 87  1  0
 35 88  1  0
 35 89  1  0
 36 90  1  0
 36 91  1  0
 36 92  1  0
M  END
$$$$
