
     RDKit          3D

 55 57  0  0  0  0  0  0  0  0999 V2000
    1.3040    3.6622    0.5134 C   0  0  0  0  0  0  0  0  0  0  0  0
    1.6197    2.2029    0.8424 C   0  0  0  0  0  0  0  0  0  0  0  0
    2.5844    2.1441    2.0314 C   0  0  0  0  0  0  0  0  0  0  0  0
    0.3552    1.3754    1.1618 C   0  0  0  0  0  0  0  0  0  0  0  0
   -0.6569    1.2443    0.0045 C   0  0  0  0  0  0  0  0  0  0  0  0
   -0.1146    0.3590   -1.1048 C   0  0  0  0  0  0  0  0  0  0  0  0
   -0.1762   -0.8643   -1.1668 O   0  0  0  0  0  0  0  0  0  0  0  0
    0.5414    1.1171   -2.0343 O   0  0  0  0  0  0  0  0  0  0  0  0
    1.1439    0.3931   -3.1094 C   0  0  0  0  0  0  0  0  0  0  0  0
    2.4970   -0.2301   -2.7429 C   0  0  0  0  0  0  0  0  0  0  0  0
    3.5442    0.2484   -3.1690 O   0  0  0  0  0  0  0  0  0  0  0  0
    2.3760   -1.3362   -1.9205 N   0  0  0  0  0  0  0  0  0  0  0  0
    3.4034   -2.1309   -1.3769 C   0  0  0  0  0  0  0  0  0  0  0  0
    3.0122   -3.1615   -0.5098 C   0  0  0  0  0  0  0  0  0  0  0  0
    3.9617   -3.9990    0.0794 C   0  0  0  0  0  0  0  0  0  0  0  0
    5.3138   -3.8139   -0.1955 C   0  0  0  0  0  0  0  0  0  0  0  0
    5.7063   -2.7918   -1.0575 C   0  0  0  0  0  0  0  0  0  0  0  0
    7.3804   -2.5661   -1.3943 Cl  0  0  0  0  0  0  0  0  0  0  0  0
    4.7604   -1.9513   -1.6489 C   0  0  0  0  0  0  0  0  0  0  0  0
   -1.9846    0.7774    0.4231 N   0  0  0  0  0  0  0  0  0  0  0  0
   -2.2643   -0.2743    1.2688 C   0  0  0  0  0  0  0  0  0  0  0  0
   -1.2942   -1.0039    1.8042 O   0  0  0  0  0  0  0  0  0  0  0  0
   -3.6358   -0.3663    1.3929 C   0  0  0  0  0  0  0  0  0  0  0  0
   -4.2088    0.6557    0.5781 C   0  0  0  0  0  0  0  0  0  0  0  0
   -3.1683    1.3349   -0.0203 C   0  0  0  0  0  0  0  0  0  0  0  0
   -3.1643    2.3467   -0.8801 O   0  0  0  0  0  0  0  0  0  0  0  0
   -5.6830    0.8666    0.4507 C   0  0  0  0  0  0  0  0  0  0  0  0
   -6.4795   -0.1146    1.2787 C   0  0  0  0  0  0  0  0  0  0  0  0
   -5.9392   -1.0797    2.0466 C   0  0  0  0  0  0  0  0  0  0  0  0
   -4.4558   -1.3253    2.1950 C   0  0  0  0  0  0  0  0  0  0  0  0
    2.2260    4.2405    0.3911 H   0  0  0  0  0  0  0  0  0  0  0  0
    0.7162    4.1304    1.3098 H   0  0  0  0  0  0  0  0  0  0  0  0
    0.7452    3.7509   -0.4226 H   0  0  0  0  0  0  0  0  0  0  0  0
    2.1353    1.7584   -0.0165 H   0  0  0  0  0  0  0  0  0  0  0  0
    2.8610    1.1089    2.2577 H   0  0  0  0  0  0  0  0  0  0  0  0
    3.5063    2.6933    1.8126 H   0  0  0  0  0  0  0  0  0  0  0  0
    2.1350    2.5802    2.9300 H   0  0  0  0  0  0  0  0  0  0  0  0
   -0.1457    1.8177    2.0334 H   0  0  0  0  0  0  0  0  0  0  0  0
    0.6901    0.3762    1.4665 H   0  0  0  0  0  0  0  0  0  0  0  0
   -0.8295    2.2391   -0.4181 H   0  0  0  0  0  0  0  0  0  0  0  0
    0.4684   -0.3755   -3.5044 H   0  0  0  0  0  0  0  0  0  0  0  0
    1.3119    1.1054   -3.9247 H   0  0  0  0  0  0  0  0  0  0  0  0
    1.4254   -1.5735   -1.6284 H   0  0  0  0  0  0  0  0  0  0  0  0
    1.9605   -3.3209   -0.2789 H   0  0  0  0  0  0  0  0  0  0  0  0
    3.6452   -4.7924    0.7515 H   0  0  0  0  0  0  0  0  0  0  0  0
    6.0543   -4.4642    0.2617 H   0  0  0  0  0  0  0  0  0  0  0  0
    5.1076   -1.1694   -2.3157 H   0  0  0  0  0  0  0  0  0  0  0  0
   -1.7131   -1.7132    2.3215 H   0  0  0  0  0  0  0  0  0  0  0  0
   -4.0921    2.5837   -1.0548 H   0  0  0  0  0  0  0  0  0  0  0  0
   -5.9336    1.8841    0.7708 H   0  0  0  0  0  0  0  0  0  0  0  0
   -5.9767    0.7631   -0.5998 H   0  0  0  0  0  0  0  0  0  0  0  0
   -7.5609   -0.0146    1.2357 H   0  0  0  0  0  0  0  0  0  0  0  0
   -6.5950   -1.7400    2.6085 H   0  0  0  0  0  0  0  0  0  0  0  0
   -4.2336   -2.3498    1.8761 H   0  0  0  0  0  0  0  0  0  0  0  0
   -4.1868   -1.2373    3.2537 H   0  0  0  0  0  0  0  0  0  0  0  0
  1  2  1  0
  2  3  1  0
  2  4  1  0
  4  5  1  0
  5  6  1  0
  6  7  2  0
  6  8  1  0
  8  9  1  0
  9 10  1  0
 10 11  2  0
 10 12  1  0
 12 13  1  0
 13 14  2  0
 14 15  1  0
 15 16  2  0
 16 17  1  0
 17 18  1  0
 17 19  2  0
  5 20  1  0
 20 21  1  0
 21 22  1  0
 21 23  2  0
 23 24  1  0
 24 25  2  0
 25 26  1  0
 24 27  1  0
 27 28  1  0
 28 29  2  0
 29 30  1  0
 19 13  1  0
 25 20  1  0
 30 23  1  0
  1 31  1  0
  1 32  1  0
  1 33  1  0
  2 34  1  0
  3 35  1  0
  3 36  1  0
  3 37  1  0
  4 38  1  0
  4 39  1  0
  5 40  1  0
  9 41  1  0
  9 42  1  0
 12 43  1  0
 14 44  1  0
 15 45  1  0
 16 46  1  0
 19 47  1  0
 22 48  1  0
 26 49  1  0
 27 50  1  0
 27 51  1  0
 28 52  1  0
 29 53  1  0
 30 54  1  0
 30 55  1  0
M  END
$$$$
