
     RDKit          3D

 45 47  0  0  0  0  0  0  0  0999 V2000
    2.7458   -0.2794   -2.5800 C   0  0  0  0  0  0  0  0  0  0  0  0
    3.6520    0.4046   -1.6010 C   0  0  0  0  0  0  0  0  0  0  0  0
    5.0321    0.3428   -1.7636 C   0  0  0  0  0  0  0  0  0  0  0  0
    5.8426    0.9783   -0.8293 C   0  0  0  0  0  0  0  0  0  0  0  0
    5.2525    1.6606    0.2292 C   0  0  0  0  0  0  0  0  0  0  0  0
    3.8690    1.6993    0.2959 C   0  0  0  0  0  0  0  0  0  0  0  0
    3.2463    2.3009    1.4029 N   0  0  0  0  0  0  0  0  0  0  0  0
    1.8290    3.1574    1.1835 S   0  0  0  0  0  6  0  0  0  0  0  0
    1.6008    3.8380    2.4450 O   0  0  0  0  0  0  0  0  0  0  0  0
    1.9027    3.9224   -0.0437 O   0  0  0  0  0  0  0  0  0  0  0  0
    0.5711    1.9150    1.0444 C   0  0  0  0  0  0  0  0  0  0  0  0
    0.1987    1.1884    2.1773 C   0  0  0  0  0  0  0  0  0  0  0  0
   -0.8138    0.2315    2.0802 C   0  0  0  0  0  0  0  0  0  0  0  0
   -1.4675   -0.0014    0.8587 C   0  0  0  0  0  0  0  0  0  0  0  0
   -2.5627   -1.0518    0.7801 C   0  0  0  0  0  0  0  0  0  0  0  0
   -3.9221   -0.4354    0.4066 C   0  0  0  0  0  0  0  0  0  0  0  0
   -5.0172   -1.4986    0.3386 C   0  0  0  0  0  0  0  0  0  0  0  0
   -4.6424   -2.6331   -0.6106 C   0  0  0  0  0  0  0  0  0  0  0  0
   -3.2940   -3.2488   -0.2486 C   0  0  0  0  0  0  0  0  0  0  0  0
   -2.1916   -2.1931   -0.1829 C   0  0  0  0  0  0  0  0  0  0  0  0
   -1.0875    0.7507   -0.2651 C   0  0  0  0  0  0  0  0  0  0  0  0
   -0.0765    1.7097   -0.1743 C   0  0  0  0  0  0  0  0  0  0  0  0
    3.0684    1.0635   -0.5729 N   0  0  0  0  0  0  0  0  0  0  0  0
    2.8945    0.1316   -3.5833 H   0  0  0  0  0  0  0  0  0  0  0  0
    1.6957   -0.1370   -2.3058 H   0  0  0  0  0  0  0  0  0  0  0  0
    2.9502   -1.3544   -2.5970 H   0  0  0  0  0  0  0  0  0  0  0  0
    5.4710   -0.1947   -2.5982 H   0  0  0  0  0  0  0  0  0  0  0  0
    6.9241    0.9391   -0.9239 H   0  0  0  0  0  0  0  0  0  0  0  0
    5.8681    2.1533    0.9721 H   0  0  0  0  0  0  0  0  0  0  0  0
    3.8152    2.6703    2.1559 H   0  0  0  0  0  0  0  0  0  0  0  0
    0.6883    1.3629    3.1320 H   0  0  0  0  0  0  0  0  0  0  0  0
   -1.0914   -0.3310    2.9692 H   0  0  0  0  0  0  0  0  0  0  0  0
   -2.6762   -1.4984    1.7785 H   0  0  0  0  0  0  0  0  0  0  0  0
   -3.8629    0.0727   -0.5641 H   0  0  0  0  0  0  0  0  0  0  0  0
   -4.2035    0.3286    1.1420 H   0  0  0  0  0  0  0  0  0  0  0  0
   -5.1941   -1.9050    1.3420 H   0  0  0  0  0  0  0  0  0  0  0  0
   -5.9564   -1.0389    0.0106 H   0  0  0  0  0  0  0  0  0  0  0  0
   -4.6046   -2.2511   -1.6382 H   0  0  0  0  0  0  0  0  0  0  0  0
   -5.4189   -3.4059   -0.5855 H   0  0  0  0  0  0  0  0  0  0  0  0
   -3.3722   -3.7555    0.7211 H   0  0  0  0  0  0  0  0  0  0  0  0
   -3.0279   -4.0132   -0.9873 H   0  0  0  0  0  0  0  0  0  0  0  0
   -2.0147   -1.8042   -1.1937 H   0  0  0  0  0  0  0  0  0  0  0  0
   -1.2550   -2.6661    0.1375 H   0  0  0  0  0  0  0  0  0  0  0  0
   -1.5751    0.5962   -1.2249 H   0  0  0  0  0  0  0  0  0  0  0  0
    0.2100    2.2792   -1.0554 H   0  0  0  0  0  0  0  0  0  0  0  0
  1  2  1  0
  2  3  2  0
  3  4  1  0
  4  5  2  0
  5  6  1  0
  6  7  1  0
  7  8  1  0
  8  9  2  0
  8 10  2  0
  8 11  1  0
 11 12  2  0
 12 13  1  0
 13 14  2  0
 14 15  1  0
 15 16  1  0
 16 17  1  0
 17 18  1  0
 18 19  1  0
 19 20  1  0
 14 21  1  0
 21 22  2  0
  6 23  2  0
 23  2  1  0
 22 11  1  0
 20 15  1  0
  1 24  1  0
  1 25  1  0
  1 26  1  0
  3 27  1  0
  4 28  1  0
  5 29  1  0
  7 30  1  0
 12 31  1  0
 13 32  1  0
 15 33  1  0
 16 34  1  0
 16 35  1  0
 17 36  1  0
 17 37  1  0
 18 38  1  0
 18 39  1  0
 19 40  1  0
 19 41  1  0
 20 42  1  0
 20 43  1  0
 21 44  1  0
 22 45  1  0
M  END
$$$$
