
     RDKit          3D

 45 48  0  0  0  0  0  0  0  0999 V2000
    5.9912   -2.8512    1.1865 C   0  0  0  0  0  0  0  0  0  0  0  0
    5.0137   -2.1584    1.9518 O   0  0  0  0  0  0  0  0  0  0  0  0
    4.2935   -1.1922    1.3052 C   0  0  0  0  0  0  0  0  0  0  0  0
    3.3528   -0.5344    2.0997 C   0  0  0  0  0  0  0  0  0  0  0  0
    2.5478    0.4753    1.5665 C   0  0  0  0  0  0  0  0  0  0  0  0
    2.6748    0.8473    0.2227 C   0  0  0  0  0  0  0  0  0  0  0  0
    1.7891    1.9250   -0.3670 C   0  0  0  0  0  0  0  0  0  0  0  0
    0.5205    1.3887   -0.8390 N   0  0  0  0  0  0  0  0  0  0  0  0
    0.4833    0.9153   -2.1508 C   0  0  0  0  0  0  0  0  0  0  0  0
    1.4205    0.9538   -2.9417 O   0  0  0  0  0  0  0  0  0  0  0  0
   -0.7827    0.3936   -2.5117 C   0  0  0  0  0  0  0  0  0  0  0  0
   -1.2080   -0.1123   -3.7052 N   0  0  0  0  0  0  0  0  0  0  0  0
   -2.5291   -0.4302   -3.5482 C   0  0  0  0  0  0  0  0  0  0  0  0
   -2.9487   -0.1627   -2.3291 N   0  0  0  0  0  0  0  0  0  0  0  0
   -1.8544    0.3318   -1.6724 C   0  0  0  0  0  0  0  0  0  0  0  0
   -1.7616    0.7892   -0.3704 N   0  0  0  0  0  0  0  0  0  0  0  0
   -2.9429    0.7784    0.4306 C   0  0  0  0  0  0  0  0  0  0  0  0
   -3.3598    1.9852    1.0243 C   0  0  0  0  0  0  0  0  0  0  0  0
   -4.5250    2.0543    1.7898 C   0  0  0  0  0  0  0  0  0  0  0  0
   -5.2932    0.9140    1.9834 C   0  0  0  0  0  0  0  0  0  0  0  0
   -4.8828   -0.2982    1.4319 C   0  0  0  0  0  0  0  0  0  0  0  0
   -3.6982   -0.3911    0.6749 C   0  0  0  0  0  0  0  0  0  0  0  0
   -3.2928   -1.7617    0.2019 C   0  0  0  0  0  0  0  0  0  0  0  0
   -0.5677    1.3939    0.0657 C   0  0  0  0  0  0  0  0  0  0  0  0
   -0.4432    1.8960    1.1883 O   0  0  0  0  0  0  0  0  0  0  0  0
    3.6160    0.1795   -0.5730 C   0  0  0  0  0  0  0  0  0  0  0  0
    4.4214   -0.8315   -0.0355 C   0  0  0  0  0  0  0  0  0  0  0  0
    5.5281   -3.4050    0.3631 H   0  0  0  0  0  0  0  0  0  0  0  0
    6.4771   -3.5782    1.8443 H   0  0  0  0  0  0  0  0  0  0  0  0
    6.7632   -2.1670    0.8189 H   0  0  0  0  0  0  0  0  0  0  0  0
    3.2428   -0.8117    3.1454 H   0  0  0  0  0  0  0  0  0  0  0  0
    1.8198    0.9660    2.2107 H   0  0  0  0  0  0  0  0  0  0  0  0
    1.6232    2.7096    0.3812 H   0  0  0  0  0  0  0  0  0  0  0  0
    2.3155    2.4166   -1.1949 H   0  0  0  0  0  0  0  0  0  0  0  0
   -0.6536   -0.2083   -4.5467 H   0  0  0  0  0  0  0  0  0  0  0  0
   -3.1284   -0.8440   -4.3490 H   0  0  0  0  0  0  0  0  0  0  0  0
   -2.7898    2.8991    0.8728 H   0  0  0  0  0  0  0  0  0  0  0  0
   -4.8317    3.0008    2.2263 H   0  0  0  0  0  0  0  0  0  0  0  0
   -6.2049    0.9631    2.5726 H   0  0  0  0  0  0  0  0  0  0  0  0
   -5.4847   -1.1871    1.6108 H   0  0  0  0  0  0  0  0  0  0  0  0
   -2.2129   -1.8399    0.0465 H   0  0  0  0  0  0  0  0  0  0  0  0
   -3.5441   -2.5140    0.9587 H   0  0  0  0  0  0  0  0  0  0  0  0
   -3.8179   -2.0204   -0.7219 H   0  0  0  0  0  0  0  0  0  0  0  0
    3.7288    0.4395   -1.6245 H   0  0  0  0  0  0  0  0  0  0  0  0
    5.1347   -1.3165   -0.6932 H   0  0  0  0  0  0  0  0  0  0  0  0
  1  2  1  0
  2  3  1  0
  3  4  2  0
  4  5  1  0
  5  6  2  0
  6  7  1  0
  7  8  1  0
  8  9  1  0
  9 10  2  0
  9 11  1  0
 11 12  1  0
 12 13  1  0
 13 14  2  0
 14 15  1  0
 15 16  1  0
 16 17  1  0
 17 18  2  0
 18 19  1  0
 19 20  2  0
 20 21  1  0
 21 22  2  0
 22 23  1  0
 16 24  1  0
 24 25  2  0
  6 26  1  0
 26 27  2  0
 27  3  1  0
 24  8  1  0
 15 11  2  0
 22 17  1  0
  1 28  1  0
  1 29  1  0
  1 30  1  0
  4 31  1  0
  5 32  1  0
  7 33  1  0
  7 34  1  0
 12 35  1  0
 13 36  1  0
 18 37  1  0
 19 38  1  0
 20 39  1  0
 21 40  1  0
 23 41  1  0
 23 42  1  0
 23 43  1  0
 26 44  1  0
 27 45  1  0
M  END
$$$$
