
     RDKit          3D

 67 72  0  0  0  0  0  0  0  0999 V2000
    2.6269    1.8676   -3.1724 O   0  0  0  0  0  0  0  0  0  0  0  0
    2.3189    1.3546   -2.0882 C   0  0  0  0  0  0  0  0  0  0  0  0
    0.9288    1.6707   -1.5319 C   0  0  0  0  0  0  0  0  0  0  0  0
    0.9494    2.5016   -0.2513 C   0  0  0  0  0  0  0  0  0  0  0  0
   -0.4663    2.9805    0.0557 C   0  0  0  0  0  0  0  0  0  0  0  0
   -1.4616    1.8184    0.1414 C   0  0  0  0  0  0  0  0  0  0  0  0
   -1.3758    0.9512   -1.0446 N   0  0  0  0  0  0  0  0  0  0  0  0
   -2.3456   -0.0806   -1.0923 C   0  0  0  0  0  0  0  0  0  0  0  0
   -2.0004   -1.2796   -1.6639 N   0  0  0  0  0  0  0  0  0  0  0  0
   -2.9051   -2.2749   -1.7524 C   0  0  0  0  0  0  0  0  0  0  0  0
   -4.1789   -2.2754   -1.3343 N   0  0  0  0  0  0  0  0  0  0  0  0
   -4.5015   -1.0942   -0.7859 C   0  0  0  0  0  0  0  0  0  0  0  0
   -3.6865    0.0171   -0.6241 C   0  0  0  0  0  0  0  0  0  0  0  0
   -4.4016    1.0305   -0.0070 N   0  0  0  0  0  0  0  0  0  0  0  0
   -5.6162    0.5565    0.1889 C   0  0  0  0  0  0  0  0  0  0  0  0
   -5.7177   -0.7321   -0.2742 N   0  0  0  0  0  0  0  0  0  0  0  0
   -6.9051   -1.5568   -0.2379 C   0  0  0  0  0  0  0  0  0  0  0  0
   -7.4161   -1.8121    1.1778 C   0  0  0  0  0  0  0  0  0  0  0  0
   -8.1480   -0.6192    1.7957 C   0  0  0  0  0  0  0  0  0  0  0  0
   -7.2697    0.6023    2.0783 C   0  0  0  0  0  0  0  0  0  0  0  0
   -6.7476    1.2926    0.8195 C   0  0  0  0  0  0  0  0  0  0  0  0
   -0.0223    0.4868   -1.4087 C   0  0  0  0  0  0  0  0  0  0  0  0
    3.2384    0.5795   -1.4068 N   0  0  0  0  0  0  0  0  0  0  0  0
    4.6125    0.5209   -1.9244 C   0  0  0  0  0  0  0  0  0  0  0  0
    5.6583    0.6171   -0.7975 C   0  0  0  0  0  0  0  0  0  0  0  0
    5.4271   -0.3836    0.2652 N   0  0  0  0  0  0  0  0  0  0  0  0
    6.5162   -0.8375    1.0021 C   0  0  0  0  0  0  0  0  0  0  0  0
    6.5996   -2.1469    1.5017 C   0  0  0  0  0  0  0  0  0  0  0  0
    7.6989   -2.5851    2.2531 C   0  0  0  0  0  0  0  0  0  0  0  0
    8.7460   -1.7151    2.5329 C   0  0  0  0  0  0  0  0  0  0  0  0
    8.6908   -0.4097    2.0628 C   0  0  0  0  0  0  0  0  0  0  0  0
    7.5896    0.0178    1.3101 C   0  0  0  0  0  0  0  0  0  0  0  0
    4.1835   -1.1561    0.1806 C   0  0  0  0  0  0  0  0  0  0  0  0
    2.9929   -0.2583   -0.2269 C   0  0  0  0  0  0  0  0  0  0  0  0
    0.4863    2.3251   -2.3019 H   0  0  0  0  0  0  0  0  0  0  0  0
    1.3147    1.9226    0.6001 H   0  0  0  0  0  0  0  0  0  0  0  0
    1.6198    3.3617   -0.3626 H   0  0  0  0  0  0  0  0  0  0  0  0
   -0.7902    3.6766   -0.7287 H   0  0  0  0  0  0  0  0  0  0  0  0
   -0.4715    3.5400    0.9979 H   0  0  0  0  0  0  0  0  0  0  0  0
   -1.2644    1.2331    1.0488 H   0  0  0  0  0  0  0  0  0  0  0  0
   -2.4475    2.2779    0.2379 H   0  0  0  0  0  0  0  0  0  0  0  0
   -2.5548   -3.1903   -2.2203 H   0  0  0  0  0  0  0  0  0  0  0  0
   -6.6686   -2.5166   -0.7107 H   0  0  0  0  0  0  0  0  0  0  0  0
   -7.6648   -1.0679   -0.8589 H   0  0  0  0  0  0  0  0  0  0  0  0
   -6.5935   -2.1245    1.8331 H   0  0  0  0  0  0  0  0  0  0  0  0
   -8.1236   -2.6498    1.1369 H   0  0  0  0  0  0  0  0  0  0  0  0
   -8.5866   -0.9487    2.7468 H   0  0  0  0  0  0  0  0  0  0  0  0
   -8.9883   -0.3282    1.1520 H   0  0  0  0  0  0  0  0  0  0  0  0
   -6.4408    0.3193    2.7391 H   0  0  0  0  0  0  0  0  0  0  0  0
   -7.8806    1.3264    2.6321 H   0  0  0  0  0  0  0  0  0  0  0  0
   -7.5550    1.4352    0.0911 H   0  0  0  0  0  0  0  0  0  0  0  0
   -6.3940    2.2946    1.0934 H   0  0  0  0  0  0  0  0  0  0  0  0
    0.3073   -0.2141   -0.6406 H   0  0  0  0  0  0  0  0  0  0  0  0
   -0.0283   -0.0397   -2.3713 H   0  0  0  0  0  0  0  0  0  0  0  0
    4.7132   -0.4310   -2.4602 H   0  0  0  0  0  0  0  0  0  0  0  0
    4.8010    1.3203   -2.6486 H   0  0  0  0  0  0  0  0  0  0  0  0
    5.6103    1.6177   -0.3497 H   0  0  0  0  0  0  0  0  0  0  0  0
    6.6500    0.4904   -1.2506 H   0  0  0  0  0  0  0  0  0  0  0  0
    5.8165   -2.8713    1.2991 H   0  0  0  0  0  0  0  0  0  0  0  0
    7.7318   -3.6089    2.6150 H   0  0  0  0  0  0  0  0  0  0  0  0
    9.5976   -2.0540    3.1160 H   0  0  0  0  0  0  0  0  0  0  0  0
    9.4963    0.2867    2.2838 H   0  0  0  0  0  0  0  0  0  0  0  0
    7.5732    1.0549    0.9856 H   0  0  0  0  0  0  0  0  0  0  0  0
    3.9327   -1.6112    1.1465 H   0  0  0  0  0  0  0  0  0  0  0  0
    4.3052   -1.9631   -0.5521 H   0  0  0  0  0  0  0  0  0  0  0  0
    2.1450   -0.9121   -0.4343 H   0  0  0  0  0  0  0  0  0  0  0  0
    2.7400    0.4002    0.6077 H   0  0  0  0  0  0  0  0  0  0  0  0
  1  2  2  0
  2  3  1  0
  3  4  1  0
  4  5  1  0
  5  6  1  0
  6  7  1  0
  7  8  1  0
  8  9  2  0
  9 10  1  0
 10 11  2  0
 11 12  1  0
 12 13  2  0
 13 14  1  0
 14 15  2  0
 15 16  1  0
 16 17  1  0
 17 18  1  0
 18 19  1  0
 19 20  1  0
 20 21  1  0
  7 22  1  0
  2 23  1  0
 23 24  1  0
 24 25  1  0
 25 26  1  0
 26 27  1  0
 27 28  2  0
 28 29  1  0
 29 30  2  0
 30 31  1  0
 31 32  2  0
 26 33  1  0
 33 34  1  0
 22  3  1  0
 34 23  1  0
 13  8  1  0
 21 15  1  0
 32 27  1  0
 16 12  1  0
  3 35  1  0
  4 36  1  0
  4 37  1  0
  5 38  1  0
  5 39  1  0
  6 40  1  0
  6 41  1  0
 10 42  1  0
 17 43  1  0
 17 44  1  0
 18 45  1  0
 18 46  1  0
 19 47  1  0
 19 48  1  0
 20 49  1  0
 20 50  1  0
 21 51  1  0
 21 52  1  0
 22 53  1  0
 22 54  1  0
 24 55  1  0
 24 56  1  0
 25 57  1  0
 25 58  1  0
 28 59  1  0
 29 60  1  0
 30 61  1  0
 31 62  1  0
 32 63  1  0
 33 64  1  0
 33 65  1  0
 34 66  1  0
 34 67  1  0
M  END
$$$$
