
     RDKit          3D

 40 44  0  0  0  0  0  0  0  0999 V2000
    5.0250   -2.7424   -2.5957 O   0  0  0  0  0  0  0  0  0  0  0  0
    5.9055   -1.9823   -2.2385 C   0  0  0  0  0  0  0  0  0  0  0  0
    7.1747   -2.1444   -2.6532 O   0  0  0  0  0  0  0  0  0  0  0  0
    5.7388   -0.8161   -1.3377 C   0  0  0  0  0  0  0  0  0  0  0  0
    6.8143    0.0039   -0.9817 C   0  0  0  0  0  0  0  0  0  0  0  0
    6.6079    1.0891   -0.1319 C   0  0  0  0  0  0  0  0  0  0  0  0
    5.3286    1.3574    0.3637 C   0  0  0  0  0  0  0  0  0  0  0  0
    4.2346    0.5479    0.0200 C   0  0  0  0  0  0  0  0  0  0  0  0
    2.9019    0.8392    0.5446 C   0  0  0  0  0  0  0  0  0  0  0  0
    2.3800    1.7990    1.3813 C   0  0  0  0  0  0  0  0  0  0  0  0
    0.9957    1.5193    1.4994 C   0  0  0  0  0  0  0  0  0  0  0  0
    0.7102    0.4071    0.7171 C   0  0  0  0  0  0  0  0  0  0  0  0
   -0.4879   -0.3192    0.4702 C   0  0  0  0  0  0  0  0  0  0  0  0
   -1.7393    0.1582    0.4965 C   0  0  0  0  0  0  0  0  0  0  0  0
   -2.2995    1.7825    0.8037 S   0  0  0  0  0  0  0  0  0  0  0  0
   -3.9236    1.2760    0.5532 C   0  0  0  0  0  0  0  0  0  0  0  0
   -5.0658    1.9022    0.5984 N   0  0  0  0  0  0  0  0  0  0  0  0
   -5.9829    0.9127    0.2994 C   0  0  0  0  0  0  0  0  0  0  0  0
   -7.3796    0.9967    0.2003 C   0  0  0  0  0  0  0  0  0  0  0  0
   -8.1043   -0.1588   -0.1193 C   0  0  0  0  0  0  0  0  0  0  0  0
   -7.4549   -1.3766   -0.3366 C   0  0  0  0  0  0  0  0  0  0  0  0
   -6.0632   -1.4869   -0.2436 C   0  0  0  0  0  0  0  0  0  0  0  0
   -5.3592   -0.3217    0.0761 C   0  0  0  0  0  0  0  0  0  0  0  0
   -4.0293   -0.0402    0.2516 N   0  0  0  0  0  0  0  0  0  0  0  0
   -2.8663   -0.7741    0.1895 C   0  0  0  0  0  0  0  0  0  0  0  0
   -2.8487   -1.9630   -0.0697 O   0  0  0  0  0  0  0  0  0  0  0  0
    1.9019   -0.0015    0.1573 O   0  0  0  0  0  0  0  0  0  0  0  0
    4.4578   -0.5415   -0.8371 C   0  0  0  0  0  0  0  0  0  0  0  0
    7.1309   -2.9367   -3.2288 H   0  0  0  0  0  0  0  0  0  0  0  0
    7.8143   -0.1936   -1.3602 H   0  0  0  0  0  0  0  0  0  0  0  0
    7.4430    1.7279    0.1457 H   0  0  0  0  0  0  0  0  0  0  0  0
    5.2002    2.2118    1.0242 H   0  0  0  0  0  0  0  0  0  0  0  0
    2.9223    2.6009    1.8610 H   0  0  0  0  0  0  0  0  0  0  0  0
    0.2940    2.0725    2.1073 H   0  0  0  0  0  0  0  0  0  0  0  0
   -0.3344   -1.3629    0.1965 H   0  0  0  0  0  0  0  0  0  0  0  0
   -7.8819    1.9433    0.3692 H   0  0  0  0  0  0  0  0  0  0  0  0
   -9.1879   -0.1046   -0.1990 H   0  0  0  0  0  0  0  0  0  0  0  0
   -8.0429   -2.2589   -0.5838 H   0  0  0  0  0  0  0  0  0  0  0  0
   -5.5589   -2.4341   -0.4131 H   0  0  0  0  0  0  0  0  0  0  0  0
    3.6289   -1.1882   -1.1227 H   0  0  0  0  0  0  0  0  0  0  0  0
  1  2  2  0
  2  3  1  0
  2  4  1  0
  4  5  2  0
  5  6  1  0
  6  7  2  0
  7  8  1  0
  8  9  1  0
  9 10  2  0
 10 11  1  0
 11 12  2  0
 12 13  1  0
 13 14  2  3
 14 15  1  0
 15 16  1  0
 16 17  2  0
 17 18  1  0
 18 19  2  0
 19 20  1  0
 20 21  2  0
 21 22  1  0
 22 23  2  0
 23 24  1  0
 24 25  1  0
 25 26  2  0
 12 27  1  0
  8 28  2  0
 28  4  1  0
 27  9  1  0
 25 14  1  0
 24 16  1  0
 23 18  1  0
  3 29  1  0
  5 30  1  0
  6 31  1  0
  7 32  1  0
 10 33  1  0
 11 34  1  0
 13 35  1  0
 19 36  1  0
 20 37  1  0
 21 38  1  0
 22 39  1  0
 28 40  1  0
M  END
$$$$
