
     RDKit          3D

 44 47  0  0  0  0  0  0  0  0999 V2000
   -7.2961    0.2383   -0.1345 C   0  0  0  0  0  0  0  0  0  0  0  0
   -6.1286    1.0979   -0.5949 C   0  0  0  0  0  0  0  0  0  0  0  0
   -4.8141    0.3732   -0.4670 C   0  0  0  0  0  0  0  0  0  0  0  0
   -4.3406   -0.4320   -1.5088 C   0  0  0  0  0  0  0  0  0  0  0  0
   -3.1262   -1.1185   -1.3879 C   0  0  0  0  0  0  0  0  0  0  0  0
   -2.3684   -1.0142   -0.2224 C   0  0  0  0  0  0  0  0  0  0  0  0
   -1.1357   -1.6643   -0.0185 N   0  0  0  0  0  0  0  0  0  0  0  0
   -0.4539   -2.4980   -0.8918 C   0  0  0  0  0  0  0  0  0  0  0  0
   -0.8438   -2.8601   -1.9994 O   0  0  0  0  0  0  0  0  0  0  0  0
    0.8693   -3.0152   -0.3208 C   0  0  0  0  0  0  0  0  0  0  0  0
    1.8497   -1.9430   -0.1671 N   0  0  0  0  0  0  0  0  0  0  0  0
    2.8090   -1.8332   -1.1734 N   0  0  0  0  0  0  0  0  0  0  0  0
    3.7152   -0.9061   -1.0746 C   0  0  0  0  0  0  0  0  0  0  0  0
    3.7500   -0.0398    0.0093 N   0  0  0  0  0  0  0  0  0  0  0  0
    2.8286   -0.1214    1.0170 C   0  0  0  0  0  0  0  0  0  0  0  0
    3.1145    0.8581    1.9423 C   0  0  0  0  0  0  0  0  0  0  0  0
    4.2588    1.5627    1.4782 C   0  0  0  0  0  0  0  0  0  0  0  0
    5.0040    2.6448    1.9849 C   0  0  0  0  0  0  0  0  0  0  0  0
    6.1083    3.1160    1.2671 C   0  0  0  0  0  0  0  0  0  0  0  0
    6.4739    2.5263    0.0604 C   0  0  0  0  0  0  0  0  0  0  0  0
    5.7507    1.4512   -0.4651 C   0  0  0  0  0  0  0  0  0  0  0  0
    4.6435    0.9839    0.2628 C   0  0  0  0  0  0  0  0  0  0  0  0
    1.7943   -1.1141    0.9642 C   0  0  0  0  0  0  0  0  0  0  0  0
    0.9123   -1.2210    1.8159 O   0  0  0  0  0  0  0  0  0  0  0  0
   -2.8444   -0.2137    0.8230 C   0  0  0  0  0  0  0  0  0  0  0  0
   -4.0572    0.4718    0.7044 C   0  0  0  0  0  0  0  0  0  0  0  0
   -7.1810   -0.0609    0.9131 H   0  0  0  0  0  0  0  0  0  0  0  0
   -8.2341    0.7943   -0.2267 H   0  0  0  0  0  0  0  0  0  0  0  0
   -7.3804   -0.6728   -0.7368 H   0  0  0  0  0  0  0  0  0  0  0  0
   -6.0978    2.0247   -0.0090 H   0  0  0  0  0  0  0  0  0  0  0  0
   -6.2806    1.4029   -1.6377 H   0  0  0  0  0  0  0  0  0  0  0  0
   -4.9129   -0.5342   -2.4285 H   0  0  0  0  0  0  0  0  0  0  0  0
   -2.8032   -1.7266   -2.2268 H   0  0  0  0  0  0  0  0  0  0  0  0
   -0.6843   -1.4835    0.8786 H   0  0  0  0  0  0  0  0  0  0  0  0
    1.2746   -3.7824   -0.9897 H   0  0  0  0  0  0  0  0  0  0  0  0
    0.6772   -3.4831    0.6517 H   0  0  0  0  0  0  0  0  0  0  0  0
    4.4773   -0.8006   -1.8615 H   0  0  0  0  0  0  0  0  0  0  0  0
    2.5597    1.0460    2.8530 H   0  0  0  0  0  0  0  0  0  0  0  0
    4.7263    3.1115    2.9259 H   0  0  0  0  0  0  0  0  0  0  0  0
    6.6849    3.9515    1.6575 H   0  0  0  0  0  0  0  0  0  0  0  0
    7.3358    2.9086   -0.4829 H   0  0  0  0  0  0  0  0  0  0  0  0
    6.0490    1.0044   -1.4083 H   0  0  0  0  0  0  0  0  0  0  0  0
   -2.2782   -0.1124    1.7459 H   0  0  0  0  0  0  0  0  0  0  0  0
   -4.4053    1.0831    1.5338 H   0  0  0  0  0  0  0  0  0  0  0  0
  1  2  1  0
  2  3  1  0
  3  4  2  0
  4  5  1  0
  5  6  2  0
  6  7  1  0
  7  8  1  0
  8  9  2  0
  8 10  1  0
 10 11  1  0
 11 12  1  0
 12 13  2  0
 13 14  1  0
 14 15  1  0
 15 16  2  0
 16 17  1  0
 17 18  2  0
 18 19  1  0
 19 20  2  0
 20 21  1  0
 21 22  2  0
 15 23  1  0
 23 24  2  0
  6 25  1  0
 25 26  2  0
 26  3  1  0
 23 11  1  0
 22 14  1  0
 22 17  1  0
  1 27  1  0
  1 28  1  0
  1 29  1  0
  2 30  1  0
  2 31  1  0
  4 32  1  0
  5 33  1  0
  7 34  1  0
 10 35  1  0
 10 36  1  0
 13 37  1  0
 16 38  1  0
 18 39  1  0
 19 40  1  0
 20 41  1  0
 21 42  1  0
 25 43  1  0
 26 44  1  0
M  END
$$$$
