
     RDKit          3D

 45 46  0  0  0  0  0  0  0  0999 V2000
    5.1943   -1.3807    2.0607 C   0  0  0  0  0  0  0  0  0  0  0  0
    4.1754   -1.6598    0.9945 C   0  0  0  0  0  0  0  0  0  0  0  0
    4.3114   -2.7738    0.1602 C   0  0  0  0  0  0  0  0  0  0  0  0
    3.3798   -3.0119   -0.8500 C   0  0  0  0  0  0  0  0  0  0  0  0
    2.3173   -2.1281   -1.0509 C   0  0  0  0  0  0  0  0  0  0  0  0
    2.1860   -0.9890   -0.2544 C   0  0  0  0  0  0  0  0  0  0  0  0
    1.1189   -0.0699   -0.3775 N   0  0  0  0  0  0  0  0  0  0  0  0
    0.3231    0.2427   -1.4732 C   0  0  0  0  0  0  0  0  0  0  0  0
    0.8525    0.1091   -3.0688 S   0  0  0  0  0  0  0  0  0  0  0  0
   -0.9482    0.7415   -1.1029 N   0  0  0  0  0  0  0  0  0  0  0  0
   -1.4602    0.6749    0.2843 C   0  0  0  0  0  0  0  0  0  0  0  0
   -1.2223    1.9920    1.0564 C   0  0  0  0  0  0  0  0  0  0  0  0
   -1.6893    1.9539    2.4546 N   0  0  0  0  0  0  0  0  0  0  0  0
   -0.8509    1.0941    3.2956 C   0  0  0  0  0  0  0  0  0  0  0  0
   -1.7164    3.3105    3.0109 C   0  0  0  0  0  0  0  0  0  0  0  0
   -1.9100    1.2700   -2.0912 C   0  0  0  0  0  0  0  0  0  0  0  0
   -2.9336    0.2344   -2.4730 C   0  0  0  0  0  0  0  0  0  0  0  0
   -2.8214   -1.1422   -2.5513 C   0  0  0  0  0  0  0  0  0  0  0  0
   -4.0323   -1.7683   -2.9667 C   0  0  0  0  0  0  0  0  0  0  0  0
   -5.0244   -0.8504   -3.2240 C   0  0  0  0  0  0  0  0  0  0  0  0
   -4.5112    0.7480   -2.9111 S   0  0  0  0  0  0  0  0  0  0  0  0
    3.1083   -0.7733    0.7802 C   0  0  0  0  0  0  0  0  0  0  0  0
    5.9982   -0.7584    1.6559 H   0  0  0  0  0  0  0  0  0  0  0  0
    4.7388   -0.8623    2.9100 H   0  0  0  0  0  0  0  0  0  0  0  0
    5.6259   -2.3087    2.4456 H   0  0  0  0  0  0  0  0  0  0  0  0
    5.1384   -3.4673    0.2975 H   0  0  0  0  0  0  0  0  0  0  0  0
    3.4763   -3.8908   -1.4835 H   0  0  0  0  0  0  0  0  0  0  0  0
    1.5890   -2.3695   -1.8187 H   0  0  0  0  0  0  0  0  0  0  0  0
    1.0492    0.5900    0.3825 H   0  0  0  0  0  0  0  0  0  0  0  0
   -0.9897   -0.1706    0.7907 H   0  0  0  0  0  0  0  0  0  0  0  0
   -2.5323    0.4508    0.2557 H   0  0  0  0  0  0  0  0  0  0  0  0
   -1.7713    2.7792    0.5241 H   0  0  0  0  0  0  0  0  0  0  0  0
   -0.1646    2.2808    1.0098 H   0  0  0  0  0  0  0  0  0  0  0  0
    0.1987    1.4154    3.2969 H   0  0  0  0  0  0  0  0  0  0  0  0
   -0.8932    0.0507    2.9668 H   0  0  0  0  0  0  0  0  0  0  0  0
   -1.2105    1.0975    4.3317 H   0  0  0  0  0  0  0  0  0  0  0  0
   -2.1045    3.2982    4.0357 H   0  0  0  0  0  0  0  0  0  0  0  0
   -0.7225    3.7719    3.0219 H   0  0  0  0  0  0  0  0  0  0  0  0
   -2.3899    3.9522    2.4322 H   0  0  0  0  0  0  0  0  0  0  0  0
   -1.4025    1.6272   -2.9907 H   0  0  0  0  0  0  0  0  0  0  0  0
   -2.3898    2.1476   -1.6424 H   0  0  0  0  0  0  0  0  0  0  0  0
   -1.9131   -1.6820   -2.3096 H   0  0  0  0  0  0  0  0  0  0  0  0
   -4.1617   -2.8378   -3.0835 H   0  0  0  0  0  0  0  0  0  0  0  0
   -6.0348   -1.0430   -3.5594 H   0  0  0  0  0  0  0  0  0  0  0  0
    3.0193    0.1055    1.4132 H   0  0  0  0  0  0  0  0  0  0  0  0
  1  2  1  0
  2  3  2  0
  3  4  1  0
  4  5  2  0
  5  6  1  0
  6  7  1  0
  7  8  1  0
  8  9  2  0
  8 10  1  0
 10 11  1  0
 11 12  1  0
 12 13  1  0
 13 14  1  0
 13 15  1  0
 10 16  1  0
 16 17  1  0
 17 18  2  0
 18 19  1  0
 19 20  2  0
 20 21  1  0
  6 22  2  0
 22  2  1  0
 21 17  1  0
  1 23  1  0
  1 24  1  0
  1 25  1  0
  3 26  1  0
  4 27  1  0
  5 28  1  0
  7 29  1  0
 11 30  1  0
 11 31  1  0
 12 32  1  0
 12 33  1  0
 14 34  1  0
 14 35  1  0
 14 36  1  0
 15 37  1  0
 15 38  1  0
 15 39  1  0
 16 40  1  0
 16 41  1  0
 18 42  1  0
 19 43  1  0
 20 44  1  0
 22 45  1  0
M  END
$$$$
