
     RDKit          3D

 55 58  0  0  0  0  0  0  0  0999 V2000
    0.3376    1.8521    0.0811 O   0  0  0  0  0  0  0  0  0  0  0  0
    0.4683    1.2470    1.1444 C   0  0  0  0  0  0  0  0  0  0  0  0
    1.6141    0.3335    1.3004 C   0  0  0  0  0  0  0  0  0  0  0  0
    2.5472    0.1577    0.2669 C   0  0  0  0  0  0  0  0  0  0  0  0
    3.6429   -0.7094    0.4032 C   0  0  0  0  0  0  0  0  0  0  0  0
    4.5631   -0.8890   -0.6125 N   0  0  0  0  0  0  0  0  0  0  0  0
    4.2835   -0.4942   -2.0045 C   0  0  0  0  0  0  0  0  0  0  0  0
    5.1486   -1.3212   -2.9711 C   0  0  0  0  0  0  0  0  0  0  0  0
    6.5607   -1.1837   -2.7600 O   0  0  0  0  0  0  0  0  0  0  0  0
    6.9026   -0.8604   -1.4058 C   0  0  0  0  0  0  0  0  0  0  0  0
    5.9169   -1.4127   -0.3618 C   0  0  0  0  0  0  0  0  0  0  0  0
    3.7508   -1.3929    1.6276 C   0  0  0  0  0  0  0  0  0  0  0  0
    2.8229   -1.2225    2.6641 C   0  0  0  0  0  0  0  0  0  0  0  0
    1.7541   -0.3533    2.4909 C   0  0  0  0  0  0  0  0  0  0  0  0
    0.8260   -0.1710    3.5104 N   0  0  0  0  0  0  0  0  0  0  0  0
   -0.2535    0.6662    3.4258 C   0  0  0  0  0  0  0  0  0  0  0  0
   -1.2278    0.7430    4.7909 S   0  0  0  0  0  0  0  0  0  0  0  0
   -0.4196    1.3629    2.2276 N   0  0  0  0  0  0  0  0  0  0  0  0
   -1.5555    2.2766    2.0200 C   0  0  0  0  0  0  0  0  0  0  0  0
   -2.8440    1.5755    1.5625 C   0  0  0  0  0  0  0  0  0  0  0  0
   -2.7491    1.0132    0.1376 C   0  0  0  0  0  0  0  0  0  0  0  0
   -3.9866    0.3290   -0.2910 N   0  0  0  0  0  0  0  0  0  0  0  0
   -3.7115   -0.4787   -1.4938 C   0  0  0  0  0  0  0  0  0  0  0  0
   -4.9478   -1.2583   -1.9429 C   0  0  0  0  0  0  0  0  0  0  0  0
   -6.1276   -0.3279   -2.1899 C   0  0  0  0  0  0  0  0  0  0  0  0
   -6.3618    0.5599   -0.9751 C   0  0  0  0  0  0  0  0  0  0  0  0
   -5.0797    1.2809   -0.5519 C   0  0  0  0  0  0  0  0  0  0  0  0
    2.4110    0.7331   -0.6453 H   0  0  0  0  0  0  0  0  0  0  0  0
    4.5051    0.5727   -2.1243 H   0  0  0  0  0  0  0  0  0  0  0  0
    3.2328   -0.6697   -2.2620 H   0  0  0  0  0  0  0  0  0  0  0  0
    4.9049   -2.3863   -2.8785 H   0  0  0  0  0  0  0  0  0  0  0  0
    4.9413   -1.0289   -4.0054 H   0  0  0  0  0  0  0  0  0  0  0  0
    7.9071   -1.2530   -1.2182 H   0  0  0  0  0  0  0  0  0  0  0  0
    6.9610    0.2321   -1.3310 H   0  0  0  0  0  0  0  0  0  0  0  0
    5.8881   -2.5071   -0.4178 H   0  0  0  0  0  0  0  0  0  0  0  0
    6.2810   -1.1188    0.6292 H   0  0  0  0  0  0  0  0  0  0  0  0
    4.5590   -2.1014    1.7919 H   0  0  0  0  0  0  0  0  0  0  0  0
    2.9511   -1.7796    3.5877 H   0  0  0  0  0  0  0  0  0  0  0  0
    0.9353   -0.6751    4.3835 H   0  0  0  0  0  0  0  0  0  0  0  0
   -1.2858    3.0512    1.2921 H   0  0  0  0  0  0  0  0  0  0  0  0
   -1.7552    2.8130    2.9539 H   0  0  0  0  0  0  0  0  0  0  0  0
   -3.1063    0.7670    2.2541 H   0  0  0  0  0  0  0  0  0  0  0  0
   -3.6480    2.3172    1.6192 H   0  0  0  0  0  0  0  0  0  0  0  0
   -2.4783    1.8066   -0.5705 H   0  0  0  0  0  0  0  0  0  0  0  0
   -1.9341    0.2799    0.1289 H   0  0  0  0  0  0  0  0  0  0  0  0
   -3.3573    0.1573   -2.3160 H   0  0  0  0  0  0  0  0  0  0  0  0
   -2.9184   -1.2056   -1.2797 H   0  0  0  0  0  0  0  0  0  0  0  0
   -5.2163   -1.9954   -1.1755 H   0  0  0  0  0  0  0  0  0  0  0  0
   -4.7205   -1.8178   -2.8574 H   0  0  0  0  0  0  0  0  0  0  0  0
   -5.9246    0.2974   -3.0679 H   0  0  0  0  0  0  0  0  0  0  0  0
   -7.0283   -0.9112   -2.4102 H   0  0  0  0  0  0  0  0  0  0  0  0
   -7.1419    1.2958   -1.2012 H   0  0  0  0  0  0  0  0  0  0  0  0
   -6.7310   -0.0508   -0.1413 H   0  0  0  0  0  0  0  0  0  0  0  0
   -4.7905    2.0014   -1.3283 H   0  0  0  0  0  0  0  0  0  0  0  0
   -5.3162    1.8534    0.3506 H   0  0  0  0  0  0  0  0  0  0  0  0
  1  2  2  0
  2  3  1  0
  3  4  2  0
  4  5  1  0
  5  6  1  0
  6  7  1  0
  7  8  1  0
  8  9  1  0
  9 10  1  0
 10 11  1  0
  5 12  2  0
 12 13  1  0
 13 14  2  0
 14 15  1  0
 15 16  1  0
 16 17  2  0
 16 18  1  0
 18 19  1  0
 19 20  1  0
 20 21  1  0
 21 22  1  0
 22 23  1  0
 23 24  1  0
 24 25  1  0
 25 26  1  0
 26 27  1  0
 18  2  1  0
 27 22  1  0
 14  3  1  0
 11  6  1  0
  4 28  1  0
  7 29  1  0
  7 30  1  0
  8 31  1  0
  8 32  1  0
 10 33  1  0
 10 34  1  0
 11 35  1  0
 11 36  1  0
 12 37  1  0
 13 38  1  0
 15 39  1  0
 19 40  1  0
 19 41  1  0
 20 42  1  0
 20 43  1  0
 21 44  1  0
 21 45  1  0
 23 46  1  0
 23 47  1  0
 24 48  1  0
 24 49  1  0
 25 50  1  0
 25 51  1  0
 26 52  1  0
 26 53  1  0
 27 54  1  0
 27 55  1  0
M  END
$$$$
