
     RDKit          3D

 58 61  0  0  0  0  0  0  0  0999 V2000
   -0.2274   -4.0995    1.1606 O   0  0  0  0  0  0  0  0  0  0  0  0
   -0.4876   -3.0083    1.6613 C   0  0  0  0  0  0  0  0  0  0  0  0
    0.3031   -2.4837    2.8701 C   0  0  0  0  0  0  0  0  0  0  0  0
    1.5291   -1.7323    2.5151 N   0  0  0  0  0  0  0  0  0  0  0  0
    1.2538   -0.4236    1.8935 C   0  0  0  0  0  0  0  0  0  0  0  0
    2.5443    0.3658    1.5712 C   0  0  0  0  0  0  0  0  0  0  0  0
    3.5282   -0.4335    0.7736 N   0  0  0  0  0  0  0  0  0  0  0  0
    3.2762   -0.4816   -0.9169 S   0  0  0  0  0  6  0  0  0  0  0  0
    4.2823   -1.3478   -1.4905 O   0  0  0  0  0  0  0  0  0  0  0  0
    1.8661   -0.7194   -1.1350 O   0  0  0  0  0  0  0  0  0  0  0  0
    3.6873    1.1621   -1.4097 C   0  0  0  0  0  0  0  0  0  0  0  0
    4.8701    1.7403   -0.9328 C   0  0  0  0  0  0  0  0  0  0  0  0
    5.2199    3.0320   -1.3324 C   0  0  0  0  0  0  0  0  0  0  0  0
    4.3964    3.7365   -2.2116 C   0  0  0  0  0  0  0  0  0  0  0  0
    3.2190    3.1538   -2.6838 C   0  0  0  0  0  0  0  0  0  0  0  0
    2.8664    1.8666   -2.2786 C   0  0  0  0  0  0  0  0  0  0  0  0
    1.7256    1.3531   -2.7513 F   0  0  0  0  0  0  0  0  0  0  0  0
    3.7632   -1.7677    1.4151 C   0  0  0  0  0  0  0  0  0  0  0  0
    2.4477   -2.5236    1.6681 C   0  0  0  0  0  0  0  0  0  0  0  0
   -1.4516   -2.1185    1.2268 N   0  0  0  0  0  0  0  0  0  0  0  0
   -2.2820   -2.1896    0.0829 C   0  0  0  0  0  0  0  0  0  0  0  0
   -2.2518   -3.2793   -0.7952 C   0  0  0  0  0  0  0  0  0  0  0  0
   -3.0968   -3.3311   -1.9043 C   0  0  0  0  0  0  0  0  0  0  0  0
   -3.9925   -2.2982   -2.1495 C   0  0  0  0  0  0  0  0  0  0  0  0
   -4.0347   -1.1984   -1.2937 C   0  0  0  0  0  0  0  0  0  0  0  0
   -3.1692   -1.1211   -0.1901 C   0  0  0  0  0  0  0  0  0  0  0  0
   -3.2126    0.0779    0.7033 C   0  0  0  0  0  0  0  0  0  0  0  0
   -2.8190   -0.0067    1.8706 O   0  0  0  0  0  0  0  0  0  0  0  0
   -3.7325    1.3848    0.2375 C   0  0  0  0  0  0  0  0  0  0  0  0
   -3.2930    1.9599   -0.9617 C   0  0  0  0  0  0  0  0  0  0  0  0
   -3.8050    3.1964   -1.3622 C   0  0  0  0  0  0  0  0  0  0  0  0
   -4.7377    3.8613   -0.5598 C   0  0  0  0  0  0  0  0  0  0  0  0
   -5.1494    3.3002    0.6481 C   0  0  0  0  0  0  0  0  0  0  0  0
   -4.6416    2.0651    1.0536 C   0  0  0  0  0  0  0  0  0  0  0  0
   -0.3434   -1.8655    3.5047 H   0  0  0  0  0  0  0  0  0  0  0  0
    0.5727   -3.3521    3.4864 H   0  0  0  0  0  0  0  0  0  0  0  0
    0.6525    0.1845    2.5793 H   0  0  0  0  0  0  0  0  0  0  0  0
    0.6661   -0.5377    0.9803 H   0  0  0  0  0  0  0  0  0  0  0  0
    3.0397    0.6596    2.5040 H   0  0  0  0  0  0  0  0  0  0  0  0
    2.2973    1.2961    1.0519 H   0  0  0  0  0  0  0  0  0  0  0  0
    5.5221    1.1861   -0.2656 H   0  0  0  0  0  0  0  0  0  0  0  0
    6.1434    3.4805   -0.9736 H   0  0  0  0  0  0  0  0  0  0  0  0
    4.6738    4.7379   -2.5360 H   0  0  0  0  0  0  0  0  0  0  0  0
    2.5843    3.6885   -3.3872 H   0  0  0  0  0  0  0  0  0  0  0  0
    4.4401   -2.3761    0.8038 H   0  0  0  0  0  0  0  0  0  0  0  0
    4.2870   -1.5953    2.3654 H   0  0  0  0  0  0  0  0  0  0  0  0
    2.6867   -3.4717    2.1694 H   0  0  0  0  0  0  0  0  0  0  0  0
    1.9888   -2.7692    0.7021 H   0  0  0  0  0  0  0  0  0  0  0  0
   -1.5994   -1.2894    1.8063 H   0  0  0  0  0  0  0  0  0  0  0  0
   -1.5754   -4.1137   -0.6424 H   0  0  0  0  0  0  0  0  0  0  0  0
   -3.0553   -4.1864   -2.5740 H   0  0  0  0  0  0  0  0  0  0  0  0
   -4.6545   -2.3525   -3.0068 H   0  0  0  0  0  0  0  0  0  0  0  0
   -4.7614   -0.4170   -1.5000 H   0  0  0  0  0  0  0  0  0  0  0  0
   -2.5459    1.4675   -1.5820 H   0  0  0  0  0  0  0  0  0  0  0  0
   -3.4723    3.6450   -2.2977 H   0  0  0  0  0  0  0  0  0  0  0  0
   -5.1319    4.8250   -0.8746 H   0  0  0  0  0  0  0  0  0  0  0  0
   -5.8580    3.8304    1.2797 H   0  0  0  0  0  0  0  0  0  0  0  0
   -4.9511    1.6339    1.9994 H   0  0  0  0  0  0  0  0  0  0  0  0
  1  2  2  0
  2  3  1  0
  3  4  1  0
  4  5  1  0
  5  6  1  0
  6  7  1  0
  7  8  1  0
  8  9  2  0
  8 10  2  0
  8 11  1  0
 11 12  2  0
 12 13  1  0
 13 14  2  0
 14 15  1  0
 15 16  2  0
 16 17  1  0
  7 18  1  0
 18 19  1  0
  2 20  1  0
 20 21  1  0
 21 22  2  0
 22 23  1  0
 23 24  2  0
 24 25  1  0
 25 26  2  0
 26 27  1  0
 27 28  2  0
 27 29  1  0
 29 30  2  0
 30 31  1  0
 31 32  2  0
 32 33  1  0
 33 34  2  0
 19  4  1  0
 26 21  1  0
 34 29  1  0
 16 11  1  0
  3 35  1  0
  3 36  1  0
  5 37  1  0
  5 38  1  0
  6 39  1  0
  6 40  1  0
 12 41  1  0
 13 42  1  0
 14 43  1  0
 15 44  1  0
 18 45  1  0
 18 46  1  0
 19 47  1  0
 19 48  1  0
 20 49  1  0
 22 50  1  0
 23 51  1  0
 24 52  1  0
 25 53  1  0
 30 54  1  0
 31 55  1  0
 32 56  1  0
 33 57  1  0
 34 58  1  0
M  END
$$$$
