
     RDKit          3D

 44 46  0  0  0  0  0  0  0  0999 V2000
   -5.3631   -0.8465    1.9189 C   0  0  0  0  0  0  0  0  0  0  0  0
   -5.1216   -0.6664    0.4453 C   0  0  0  0  0  0  0  0  0  0  0  0
   -5.5595   -1.6512   -0.4535 C   0  0  0  0  0  0  0  0  0  0  0  0
   -5.3427   -1.5084   -1.8223 C   0  0  0  0  0  0  0  0  0  0  0  0
   -4.6849   -0.3820   -2.3059 C   0  0  0  0  0  0  0  0  0  0  0  0
   -4.2403    0.6051   -1.4214 C   0  0  0  0  0  0  0  0  0  0  0  0
   -4.4552    0.4723   -0.0451 C   0  0  0  0  0  0  0  0  0  0  0  0
   -4.0459    1.3687    0.9083 O   0  0  0  0  0  0  0  0  0  0  0  0
   -3.3585    2.5396    0.4867 C   0  0  0  0  0  0  0  0  0  0  0  0
   -1.8798    2.3202    0.1444 C   0  0  0  0  0  0  0  0  0  0  0  0
   -1.2869    3.1061   -0.5890 O   0  0  0  0  0  0  0  0  0  0  0  0
   -1.3586    1.2130    0.7737 N   0  0  0  0  0  0  0  0  0  0  0  0
   -0.0781    0.7348    0.6954 C   0  0  0  0  0  0  0  0  0  0  0  0
    0.2896   -0.3785    1.2895 N   0  0  0  0  0  0  0  0  0  0  0  0
    1.6216   -0.6684    1.0775 N   0  0  0  0  0  0  0  0  0  0  0  0
    2.2152    0.2496    0.3408 C   0  0  0  0  0  0  0  0  0  0  0  0
    3.6610    0.2258   -0.0688 C   0  0  0  0  0  0  0  0  0  0  0  0
    3.9058   -0.8786   -1.1093 C   0  0  0  0  0  0  0  0  0  0  0  0
    5.3783   -0.9628   -1.5041 C   0  0  0  0  0  0  0  0  0  0  0  0
    6.2788   -1.1441   -0.2849 C   0  0  0  0  0  0  0  0  0  0  0  0
    6.0421   -0.0541    0.7555 C   0  0  0  0  0  0  0  0  0  0  0  0
    4.5706    0.0323    1.1547 C   0  0  0  0  0  0  0  0  0  0  0  0
    1.1703    1.5221   -0.1523 S   0  0  0  0  0  0  0  0  0  0  0  0
   -5.9556   -0.0139    2.3108 H   0  0  0  0  0  0  0  0  0  0  0  0
   -5.9133   -1.7719    2.1258 H   0  0  0  0  0  0  0  0  0  0  0  0
   -4.4099   -0.8994    2.4539 H   0  0  0  0  0  0  0  0  0  0  0  0
   -6.0719   -2.5383   -0.0910 H   0  0  0  0  0  0  0  0  0  0  0  0
   -5.6858   -2.2777   -2.5095 H   0  0  0  0  0  0  0  0  0  0  0  0
   -4.5127   -0.2720   -3.3743 H   0  0  0  0  0  0  0  0  0  0  0  0
   -3.7280    1.4593   -1.8521 H   0  0  0  0  0  0  0  0  0  0  0  0
   -3.8752    3.0326   -0.3432 H   0  0  0  0  0  0  0  0  0  0  0  0
   -3.3796    3.2413    1.3290 H   0  0  0  0  0  0  0  0  0  0  0  0
   -1.9924    0.6211    1.3001 H   0  0  0  0  0  0  0  0  0  0  0  0
    3.9238    1.1880   -0.5300 H   0  0  0  0  0  0  0  0  0  0  0  0
    3.3009   -0.6934   -2.0063 H   0  0  0  0  0  0  0  0  0  0  0  0
    3.5836   -1.8509   -0.7141 H   0  0  0  0  0  0  0  0  0  0  0  0
    5.6661   -0.0486   -2.0390 H   0  0  0  0  0  0  0  0  0  0  0  0
    5.5252   -1.7981   -2.1982 H   0  0  0  0  0  0  0  0  0  0  0  0
    7.3286   -1.1338   -0.5973 H   0  0  0  0  0  0  0  0  0  0  0  0
    6.0886   -2.1272    0.1653 H   0  0  0  0  0  0  0  0  0  0  0  0
    6.6539   -0.2539    1.6443 H   0  0  0  0  0  0  0  0  0  0  0  0
    6.3687    0.9123    0.3557 H   0  0  0  0  0  0  0  0  0  0  0  0
    4.2939   -0.8839    1.6922 H   0  0  0  0  0  0  0  0  0  0  0  0
    4.4330    0.8600    1.8603 H   0  0  0  0  0  0  0  0  0  0  0  0
  1  2  1  0
  2  3  2  0
  3  4  1  0
  4  5  2  0
  5  6  1  0
  6  7  2  0
  7  8  1  0
  8  9  1  0
  9 10  1  0
 10 11  2  0
 10 12  1  0
 12 13  1  0
 13 14  2  0
 14 15  1  0
 15 16  2  0
 16 17  1  0
 17 18  1  0
 18 19  1  0
 19 20  1  0
 20 21  1  0
 21 22  1  0
 16 23  1  0
  7  2  1  0
 23 13  1  0
 22 17  1  0
  1 24  1  0
  1 25  1  0
  1 26  1  0
  3 27  1  0
  4 28  1  0
  5 29  1  0
  6 30  1  0
  9 31  1  0
  9 32  1  0
 12 33  1  0
 17 34  1  0
 18 35  1  0
 18 36  1  0
 19 37  1  0
 19 38  1  0
 20 39  1  0
 20 40  1  0
 21 41  1  0
 21 42  1  0
 22 43  1  0
 22 44  1  0
M  END
$$$$
