
     RDKit          3D

 43 46  0  0  0  0  0  0  0  0999 V2000
   -1.8492    6.4654   -4.9506 N   0  0  0  0  0  0  0  0  0  0  0  0
   -1.4521    5.4603   -4.5295 C   0  0  0  0  0  0  0  0  0  0  0  0
   -0.9587    4.2001   -3.9689 C   0  0  0  0  0  0  0  0  0  0  0  0
   -1.8214    3.7829   -2.7873 C   0  0  0  0  0  0  0  0  0  0  0  0
   -1.3067    2.5916   -2.1399 N   0  0  0  0  0  0  0  0  0  0  0  0
   -0.8518    2.4860   -0.8606 C   0  0  0  0  0  0  0  0  0  0  0  0
   -0.4995    1.1662   -0.7009 C   0  0  0  0  0  0  0  0  0  0  0  0
    0.0021    0.6206    0.5185 C   0  0  0  0  0  0  0  0  0  0  0  0
   -0.5326   -0.3935    1.2358 C   0  0  0  0  0  0  0  0  0  0  0  0
   -1.7554   -1.0165    0.8328 C   0  0  0  0  0  0  0  0  0  0  0  0
   -2.7543   -1.5204    0.5221 N   0  0  0  0  0  0  0  0  0  0  0  0
    0.1534   -0.8026    2.4347 C   0  0  0  0  0  0  0  0  0  0  0  0
    1.2813   -0.2819    2.8908 N   0  0  0  0  0  0  0  0  0  0  0  0
    1.6882   -0.8957    4.0631 C   0  0  0  0  0  0  0  0  0  0  0  0
    2.8442   -0.5786    4.8045 C   0  0  0  0  0  0  0  0  0  0  0  0
    3.1336   -1.2852    5.9765 C   0  0  0  0  0  0  0  0  0  0  0  0
    2.2873   -2.2987    6.4144 C   0  0  0  0  0  0  0  0  0  0  0  0
    1.1349   -2.6306    5.6952 C   0  0  0  0  0  0  0  0  0  0  0  0
    0.8556   -1.9135    4.5200 C   0  0  0  0  0  0  0  0  0  0  0  0
   -0.4620   -2.0840    3.4345 S   0  0  0  0  0  0  0  0  0  0  0  0
   -0.7285    0.5512   -1.9688 C   0  0  0  0  0  0  0  0  0  0  0  0
   -0.4716   -0.8261   -2.3868 C   0  0  0  0  0  0  0  0  0  0  0  0
   -1.4427   -1.5289   -3.1167 C   0  0  0  0  0  0  0  0  0  0  0  0
   -1.2142   -2.8496   -3.5086 C   0  0  0  0  0  0  0  0  0  0  0  0
   -0.0126   -3.4632   -3.1772 C   0  0  0  0  0  0  0  0  0  0  0  0
    0.2090   -4.7292   -3.5539 F   0  0  0  0  0  0  0  0  0  0  0  0
    0.9669   -2.7812   -2.4642 C   0  0  0  0  0  0  0  0  0  0  0  0
    0.7398   -1.4604   -2.0698 C   0  0  0  0  0  0  0  0  0  0  0  0
   -1.2445    1.4435   -2.8315 N   0  0  0  0  0  0  0  0  0  0  0  0
   -0.9650    3.4251   -4.7443 H   0  0  0  0  0  0  0  0  0  0  0  0
    0.0842    4.3208   -3.6522 H   0  0  0  0  0  0  0  0  0  0  0  0
   -1.8697    4.5778   -2.0331 H   0  0  0  0  0  0  0  0  0  0  0  0
   -2.8492    3.5601   -3.0988 H   0  0  0  0  0  0  0  0  0  0  0  0
   -0.8411    3.3284   -0.1821 H   0  0  0  0  0  0  0  0  0  0  0  0
    0.9032    1.1074    0.8936 H   0  0  0  0  0  0  0  0  0  0  0  0
    3.5027    0.2127    4.4602 H   0  0  0  0  0  0  0  0  0  0  0  0
    4.0263   -1.0387    6.5469 H   0  0  0  0  0  0  0  0  0  0  0  0
    2.5233   -2.8413    7.3278 H   0  0  0  0  0  0  0  0  0  0  0  0
    0.4752   -3.4223    6.0381 H   0  0  0  0  0  0  0  0  0  0  0  0
   -2.3856   -1.0494   -3.3731 H   0  0  0  0  0  0  0  0  0  0  0  0
   -1.9656   -3.3988   -4.0664 H   0  0  0  0  0  0  0  0  0  0  0  0
    1.9013   -3.2795   -2.2263 H   0  0  0  0  0  0  0  0  0  0  0  0
    1.5214   -0.9305   -1.5311 H   0  0  0  0  0  0  0  0  0  0  0  0
  1  2  3  0
  2  3  1  0
  3  4  1  0
  4  5  1  0
  5  6  1  0
  6  7  2  0
  7  8  1  0
  8  9  2  3
  9 10  1  0
 10 11  3  0
  9 12  1  0
 12 13  2  0
 13 14  1  0
 14 15  2  0
 15 16  1  0
 16 17  2  0
 17 18  1  0
 18 19  2  0
 19 20  1  0
  7 21  1  0
 21 22  1  0
 22 23  2  0
 23 24  1  0
 24 25  2  0
 25 26  1  0
 25 27  1  0
 27 28  2  0
 21 29  2  0
 29  5  1  0
 20 12  1  0
 28 22  1  0
 19 14  1  0
  3 30  1  0
  3 31  1  0
  4 32  1  0
  4 33  1  0
  6 34  1  0
  8 35  1  0
 15 36  1  0
 16 37  1  0
 17 38  1  0
 18 39  1  0
 23 40  1  0
 24 41  1  0
 27 42  1  0
 28 43  1  0
M  END
$$$$
