
     RDKit          3D

 66 72  0  0  0  0  0  0  0  0999 V2000
    1.6062   -0.8470   -2.6251 O   0  0  0  0  0  0  0  0  0  0  0  0
    1.6220   -0.5506   -1.4370 C   0  0  0  0  0  0  0  0  0  0  0  0
    2.6778   -0.7616   -0.5367 N   0  0  0  0  0  0  0  0  0  0  0  0
    3.9368   -1.3613   -0.9159 C   0  0  0  0  0  0  0  0  0  0  0  0
    4.9843   -0.3440   -1.3061 C   0  0  0  0  0  0  0  0  0  0  0  0
    6.0919   -0.0992   -0.4816 C   0  0  0  0  0  0  0  0  0  0  0  0
    7.0539    0.8450   -0.8464 C   0  0  0  0  0  0  0  0  0  0  0  0
    6.9222    1.5518   -2.0398 C   0  0  0  0  0  0  0  0  0  0  0  0
    5.8296    1.3150   -2.8707 C   0  0  0  0  0  0  0  0  0  0  0  0
    4.8666    0.3722   -2.5074 C   0  0  0  0  0  0  0  0  0  0  0  0
    2.3864   -0.2103    0.7212 C   0  0  0  0  0  0  0  0  0  0  0  0
    3.1709   -0.1917    1.8604 C   0  0  0  0  0  0  0  0  0  0  0  0
    2.6535    0.4198    3.0064 C   0  0  0  0  0  0  0  0  0  0  0  0
    1.3736    0.9962    2.9978 C   0  0  0  0  0  0  0  0  0  0  0  0
    0.5905    0.9688    1.8434 C   0  0  0  0  0  0  0  0  0  0  0  0
    1.1069    0.3592    0.7087 C   0  0  0  0  0  0  0  0  0  0  0  0
    0.4972    0.1702   -0.6461 C   0  0  0  0  0  0  0  0  0  0  0  0
    0.0554    1.4282   -1.3338 N   0  0  0  0  0  0  0  0  0  0  0  0
   -1.3518    1.2390   -1.8401 C   0  0  2  0  0  0  0  0  0  0  0  0
   -2.2539    2.4602   -1.5902 C   0  0  0  0  0  0  0  0  0  0  0  0
   -2.3962    2.9173   -0.1535 C   0  0  0  0  0  0  0  0  0  0  0  0
   -1.5128    3.8643    0.3828 C   0  0  0  0  0  0  0  0  0  0  0  0
   -1.6455    4.2896    1.7057 C   0  0  0  0  0  0  0  0  0  0  0  0
   -2.6598    3.7697    2.5072 C   0  0  0  0  0  0  0  0  0  0  0  0
   -3.5418    2.8246    1.9864 C   0  0  0  0  0  0  0  0  0  0  0  0
   -3.4123    2.4017    0.6625 C   0  0  0  0  0  0  0  0  0  0  0  0
   -1.7797   -0.0154   -1.1880 C   0  0  0  0  0  0  0  0  0  0  0  0
   -0.7316   -0.6313   -0.5125 C   0  0  0  0  0  0  0  0  0  0  0  0
   -1.1928   -1.7979    0.0451 C   0  0  0  0  0  0  0  0  0  0  0  0
   -0.5699   -2.6791    0.8248 O   0  0  0  0  0  0  0  0  0  0  0  0
   -2.5596   -1.9008   -0.2810 N   0  0  0  0  0  0  0  0  0  0  0  0
   -3.4689   -2.9053    0.1800 C   0  0  0  0  0  0  0  0  0  0  0  0
   -3.0263   -4.2104    0.4291 C   0  0  0  0  0  0  0  0  0  0  0  0
   -3.9251   -5.1865    0.8679 C   0  0  0  0  0  0  0  0  0  0  0  0
   -5.2655   -4.8656    1.0725 C   0  0  0  0  0  0  0  0  0  0  0  0
   -5.7105   -3.5652    0.8456 C   0  0  0  0  0  0  0  0  0  0  0  0
   -4.8177   -2.5861    0.4024 C   0  0  0  0  0  0  0  0  0  0  0  0
   -2.8841   -0.8182   -1.1236 C   0  0  0  0  0  0  0  0  0  0  0  0
   -4.0418   -0.6723   -1.7671 O   0  0  0  0  0  0  0  0  0  0  0  0
    3.7684   -2.0284   -1.7707 H   0  0  0  0  0  0  0  0  0  0  0  0
    4.2904   -2.0006   -0.0985 H   0  0  0  0  0  0  0  0  0  0  0  0
    6.2183   -0.6425    0.4515 H   0  0  0  0  0  0  0  0  0  0  0  0
    7.9075    1.0290   -0.1993 H   0  0  0  0  0  0  0  0  0  0  0  0
    7.6717    2.2858   -2.3239 H   0  0  0  0  0  0  0  0  0  0  0  0
    5.7261    1.8629   -3.8038 H   0  0  0  0  0  0  0  0  0  0  0  0
    4.0225    0.1956   -3.1720 H   0  0  0  0  0  0  0  0  0  0  0  0
    4.1608   -0.6299    1.8866 H   0  0  0  0  0  0  0  0  0  0  0  0
    3.2490    0.4547    3.9160 H   0  0  0  0  0  0  0  0  0  0  0  0
    0.9869    1.4712    3.8968 H   0  0  0  0  0  0  0  0  0  0  0  0
   -0.4019    1.4108    1.8343 H   0  0  0  0  0  0  0  0  0  0  0  0
    0.6566    1.5565   -2.1471 H   0  0  0  0  0  0  0  0  0  0  0  0
   -1.2991    1.0615   -2.9226 H   0  0  0  0  0  0  0  0  0  0  0  0
   -3.2574    2.2576   -1.9887 H   0  0  0  0  0  0  0  0  0  0  0  0
   -1.8774    3.3051   -2.1831 H   0  0  0  0  0  0  0  0  0  0  0  0
   -0.7078    4.2670   -0.2277 H   0  0  0  0  0  0  0  0  0  0  0  0
   -0.9526    5.0224    2.1100 H   0  0  0  0  0  0  0  0  0  0  0  0
   -2.7621    4.0994    3.5373 H   0  0  0  0  0  0  0  0  0  0  0  0
   -4.3320    2.4157    2.6101 H   0  0  0  0  0  0  0  0  0  0  0  0
   -4.1081    1.6638    0.2689 H   0  0  0  0  0  0  0  0  0  0  0  0
    0.2867   -2.2950    1.0836 H   0  0  0  0  0  0  0  0  0  0  0  0
   -1.9933   -4.5021    0.2577 H   0  0  0  0  0  0  0  0  0  0  0  0
   -3.5754   -6.2002    1.0483 H   0  0  0  0  0  0  0  0  0  0  0  0
   -5.9598   -5.6269    1.4186 H   0  0  0  0  0  0  0  0  0  0  0  0
   -6.7510   -3.3086    1.0285 H   0  0  0  0  0  0  0  0  0  0  0  0
   -5.1865   -1.5685    0.2900 H   0  0  0  0  0  0  0  0  0  0  0  0
   -4.4585   -1.5496   -1.8482 H   0  0  0  0  0  0  0  0  0  0  0  0
  1  2  2  0
  2  3  1  0
  3  4  1  0
  4  5  1  0
  5  6  2  0
  6  7  1  0
  7  8  2  0
  8  9  1  0
  9 10  2  0
  3 11  1  0
 11 12  2  0
 12 13  1  0
 13 14  2  0
 14 15  1  0
 15 16  2  0
 16 17  1  0
 17 18  1  0
 18 19  1  0
 19 20  1  0
 20 21  1  0
 21 22  2  0
 22 23  1  0
 23 24  2  0
 24 25  1  0
 25 26  2  0
 19 27  1  0
 27 28  1  0
 28 29  2  0
 29 30  1  0
 29 31  1  0
 31 32  1  0
 32 33  2  0
 33 34  1  0
 34 35  2  0
 35 36  1  0
 36 37  2  0
 31 38  1  0
 38 39  1  0
 17  2  1  0
 26 21  1  0
 38 27  2  0
 10  5  1  0
 16 11  1  0
 28 17  1  0
 37 32  1  0
  4 40  1  0
  4 41  1  0
  6 42  1  0
  7 43  1  0
  8 44  1  0
  9 45  1  0
 10 46  1  0
 12 47  1  0
 13 48  1  0
 14 49  1  0
 15 50  1  0
 18 51  1  0
 19 52  1  6
 20 53  1  0
 20 54  1  0
 22 55  1  0
 23 56  1  0
 24 57  1  0
 25 58  1  0
 26 59  1  0
 30 60  1  0
 33 61  1  0
 34 62  1  0
 35 63  1  0
 36 64  1  0
 37 65  1  0
 39 66  1  0
M  END
$$$$
