
     RDKit          3D

 40 41  0  0  0  0  0  0  0  0999 V2000
   -0.1810    0.1784   -3.7157 C   0  0  0  0  0  0  0  0  0  0  0  0
    0.2894    0.9963   -2.5199 C   0  0  0  0  0  0  0  0  0  0  0  0
   -0.2696    0.4713   -1.2134 C   0  0  0  0  0  0  0  0  0  0  0  0
   -1.4697    0.9741   -0.7091 C   0  0  0  0  0  0  0  0  0  0  0  0
   -2.2331    2.0814   -1.3792 C   0  0  0  0  0  0  0  0  0  0  0  0
   -2.0361    0.5151    0.4288 N   0  0  0  0  0  0  0  0  0  0  0  0
   -1.4827   -0.4992    1.1210 C   0  0  0  0  0  0  0  0  0  0  0  0
   -2.1216   -0.9806    2.2837 C   0  0  0  0  0  0  0  0  0  0  0  0
   -3.2884   -0.3316    2.6336 O   0  0  0  0  0  0  0  0  0  0  0  0
   -4.0236   -0.8293    3.7410 C   0  0  0  0  0  0  0  0  0  0  0  0
   -1.5864   -2.0443    3.0186 C   0  0  0  0  0  0  0  0  0  0  0  0
   -0.4123   -2.6503    2.6010 C   0  0  0  0  0  0  0  0  0  0  0  0
    0.2302   -2.1843    1.4583 C   0  0  0  0  0  0  0  0  0  0  0  0
   -0.2765   -1.0943    0.7008 C   0  0  0  0  0  0  0  0  0  0  0  0
    0.3466   -0.5616   -0.4711 C   0  0  0  0  0  0  0  0  0  0  0  0
    1.9437   -1.2251   -1.0311 S   0  0  0  0  0  0  0  0  0  0  0  0
    3.0603   -0.4473    0.2011 C   0  0  0  0  0  0  0  0  0  0  0  0
    3.3261    1.0278   -0.0640 C   0  0  0  0  0  0  0  0  0  0  0  0
    4.2039    1.2329   -1.2648 C   0  0  0  0  0  0  0  0  0  0  0  0
    5.1532    0.5468   -1.6031 O   0  0  0  0  0  0  0  0  0  0  0  0
    3.8776    2.3398   -1.9597 O   0  0  0  0  0  0  0  0  0  0  0  0
   -1.2724    0.1870   -3.8020 H   0  0  0  0  0  0  0  0  0  0  0  0
    0.1379   -0.8661   -3.6411 H   0  0  0  0  0  0  0  0  0  0  0  0
    0.2337    0.5917   -4.6407 H   0  0  0  0  0  0  0  0  0  0  0  0
    1.3825    1.0244   -2.4995 H   0  0  0  0  0  0  0  0  0  0  0  0
    0.0053    2.0444   -2.6663 H   0  0  0  0  0  0  0  0  0  0  0  0
   -1.6506    3.0076   -1.3676 H   0  0  0  0  0  0  0  0  0  0  0  0
   -2.4829    1.8145   -2.4100 H   0  0  0  0  0  0  0  0  0  0  0  0
   -3.1747    2.2768   -0.8543 H   0  0  0  0  0  0  0  0  0  0  0  0
   -4.9304   -0.2247    3.8394 H   0  0  0  0  0  0  0  0  0  0  0  0
   -3.4541   -0.7258    4.6703 H   0  0  0  0  0  0  0  0  0  0  0  0
   -4.3331   -1.8669    3.5781 H   0  0  0  0  0  0  0  0  0  0  0  0
   -2.0649   -2.4233    3.9148 H   0  0  0  0  0  0  0  0  0  0  0  0
    0.0030   -3.4858    3.1587 H   0  0  0  0  0  0  0  0  0  0  0  0
    1.1400   -2.6978    1.1551 H   0  0  0  0  0  0  0  0  0  0  0  0
    3.9974   -1.0142    0.1855 H   0  0  0  0  0  0  0  0  0  0  0  0
    2.6360   -0.5687    1.2024 H   0  0  0  0  0  0  0  0  0  0  0  0
    3.8554    1.4649    0.7906 H   0  0  0  0  0  0  0  0  0  0  0  0
    2.3902    1.5837   -0.1804 H   0  0  0  0  0  0  0  0  0  0  0  0
    4.5315    2.3623   -2.6901 H   0  0  0  0  0  0  0  0  0  0  0  0
  1  2  1  0
  2  3  1  0
  3  4  2  0
  4  5  1  0
  4  6  1  0
  6  7  2  0
  7  8  1  0
  8  9  1  0
  9 10  1  0
  8 11  2  0
 11 12  1  0
 12 13  2  0
 13 14  1  0
 14 15  2  0
 15 16  1  0
 16 17  1  0
 17 18  1  0
 18 19  1  0
 19 20  2  0
 19 21  1  0
 15  3  1  0
 14  7  1  0
  1 22  1  0
  1 23  1  0
  1 24  1  0
  2 25  1  0
  2 26  1  0
  5 27  1  0
  5 28  1  0
  5 29  1  0
 10 30  1  0
 10 31  1  0
 10 32  1  0
 11 33  1  0
 12 34  1  0
 13 35  1  0
 17 36  1  0
 17 37  1  0
 18 38  1  0
 18 39  1  0
 21 40  1  0
M  END
$$$$
