
     RDKit          3D

 32 35  0  0  0  0  0  0  0  0999 V2000
   -4.0588    3.1784    0.0714 C   0  0  0  0  0  0  0  0  0  0  0  0
   -3.1619    2.0785    0.0490 O   0  0  0  0  0  0  0  0  0  0  0  0
   -3.6965    0.8161    0.0261 C   0  0  0  0  0  0  0  0  0  0  0  0
   -5.0727    0.5347    0.0103 C   0  0  0  0  0  0  0  0  0  0  0  0
   -5.5400   -0.7784   -0.0133 C   0  0  0  0  0  0  0  0  0  0  0  0
   -4.6530   -1.8544   -0.0221 C   0  0  0  0  0  0  0  0  0  0  0  0
   -3.2779   -1.5760   -0.0067 C   0  0  0  0  0  0  0  0  0  0  0  0
   -1.9605   -2.6814   -0.0127 S   0  0  0  0  0  0  0  0  0  0  0  0
   -0.8388   -1.3720    0.0162 C   0  0  0  0  0  0  0  0  0  0  0  0
    0.4825   -1.6482    0.0228 N   0  0  0  0  0  0  0  0  0  0  0  0
    1.4939   -0.7669    0.0447 C   0  0  0  0  0  0  0  0  0  0  0  0
    1.5433    0.5463    0.0657 N   0  0  0  0  0  0  0  0  0  0  0  0
    2.8781    0.8958    0.0818 N   0  0  0  0  0  0  0  0  0  0  0  0
    3.5672   -0.2294    0.0696 C   0  0  0  0  0  0  0  0  0  0  0  0
    5.0004   -0.2903    0.0800 C   0  0  0  0  0  0  0  0  0  0  0  0
    5.8785    0.7773    0.1038 C   0  0  0  0  0  0  0  0  0  0  0  0
    7.2431    0.3635    0.1080 C   0  0  0  0  0  0  0  0  0  0  0  0
    7.3634   -1.0077    0.0874 C   0  0  0  0  0  0  0  0  0  0  0  0
    5.8396   -1.7844    0.0631 S   0  0  0  0  0  0  0  0  0  0  0  0
    2.7412   -1.3290    0.0458 O   0  0  0  0  0  0  0  0  0  0  0  0
   -1.3934   -0.1856    0.0297 N   0  0  0  0  0  0  0  0  0  0  0  0
   -2.7823   -0.2723    0.0170 C   0  0  0  0  0  0  0  0  0  0  0  0
   -3.4630    4.0961    0.0942 H   0  0  0  0  0  0  0  0  0  0  0  0
   -4.6804    3.1635    0.9726 H   0  0  0  0  0  0  0  0  0  0  0  0
   -4.6742    3.2046   -0.8339 H   0  0  0  0  0  0  0  0  0  0  0  0
   -5.8106    1.3310    0.0156 H   0  0  0  0  0  0  0  0  0  0  0  0
   -6.6117   -0.9674   -0.0251 H   0  0  0  0  0  0  0  0  0  0  0  0
   -5.0183   -2.8768   -0.0405 H   0  0  0  0  0  0  0  0  0  0  0  0
    0.7455   -2.6229    0.0098 H   0  0  0  0  0  0  0  0  0  0  0  0
    5.5538    1.8122    0.1175 H   0  0  0  0  0  0  0  0  0  0  0  0
    8.0906    1.0382    0.1253 H   0  0  0  0  0  0  0  0  0  0  0  0
    8.2728   -1.5933    0.0853 H   0  0  0  0  0  0  0  0  0  0  0  0
  1  2  1  0
  2  3  1  0
  3  4  2  0
  4  5  1  0
  5  6  2  0
  6  7  1  0
  7  8  1  0
  8  9  1  0
  9 10  1  0
 10 11  1  0
 11 12  2  0
 12 13  1  0
 13 14  2  0
 14 15  1  0
 15 16  2  0
 16 17  1  0
 17 18  2  0
 18 19  1  0
 14 20  1  0
  9 21  2  0
 21 22  1  0
 22  3  1  0
 22  7  2  0
 20 11  1  0
 19 15  1  0
  1 23  1  0
  1 24  1  0
  1 25  1  0
  4 26  1  0
  5 27  1  0
  6 28  1  0
 10 29  1  0
 16 30  1  0
 17 31  1  0
 18 32  1  0
M  END
$$$$
