
     RDKit          3D

 37 40  0  0  0  0  0  0  0  0999 V2000
   -1.5824    3.5034    0.9612 C   0  0  0  0  0  0  0  0  0  0  0  0
   -2.5216    2.8731    0.0971 O   0  0  0  0  0  0  0  0  0  0  0  0
   -2.4514    1.5122   -0.0004 C   0  0  0  0  0  0  0  0  0  0  0  0
   -3.2836    0.9472   -0.9576 C   0  0  0  0  0  0  0  0  0  0  0  0
   -3.2942   -0.4357   -1.1517 C   0  0  0  0  0  0  0  0  0  0  0  0
   -2.4870   -1.2852   -0.4109 C   0  0  0  0  0  0  0  0  0  0  0  0
   -2.5624   -2.6015   -0.6649 N   0  0  0  0  0  0  0  0  0  0  0  0
   -1.7954   -3.4540    0.0466 C   0  0  0  0  0  0  0  0  0  0  0  0
   -1.9207   -4.9150   -0.2649 C   0  0  0  0  0  0  0  0  0  0  0  0
   -0.9205   -3.0218    1.0270 C   0  0  0  0  0  0  0  0  0  0  0  0
   -0.8238   -1.6524    1.2866 C   0  0  0  0  0  0  0  0  0  0  0  0
    0.3424   -1.1678    2.5682 S   0  0  0  0  0  0  0  0  0  0  0  0
    1.5455   -0.4161    1.5336 C   0  0  0  0  0  0  0  0  0  0  0  0
    1.7121    0.8862    1.5474 N   0  0  0  0  0  0  0  0  0  0  0  0
    2.7039    1.2351    0.6464 C   0  0  0  0  0  0  0  0  0  0  0  0
    3.1489    2.5448    0.3747 C   0  0  0  0  0  0  0  0  0  0  0  0
    4.1628    2.7542   -0.5658 C   0  0  0  0  0  0  0  0  0  0  0  0
    4.7366    1.6777   -1.2350 C   0  0  0  0  0  0  0  0  0  0  0  0
    4.3147    0.3686   -0.9828 C   0  0  0  0  0  0  0  0  0  0  0  0
    3.2953    0.1698   -0.0370 C   0  0  0  0  0  0  0  0  0  0  0  0
    2.5705   -1.3014    0.4875 S   0  0  0  0  0  0  0  0  0  0  0  0
   -1.6334   -0.7358    0.5675 C   0  0  0  0  0  0  0  0  0  0  0  0
   -1.6420    0.6733    0.7640 C   0  0  0  0  0  0  0  0  0  0  0  0
   -0.5531    3.2745    0.6647 H   0  0  0  0  0  0  0  0  0  0  0  0
   -1.7650    3.2298    2.0055 H   0  0  0  0  0  0  0  0  0  0  0  0
   -1.7212    4.5852    0.8721 H   0  0  0  0  0  0  0  0  0  0  0  0
   -3.9283    1.5813   -1.5607 H   0  0  0  0  0  0  0  0  0  0  0  0
   -3.9526   -0.8607   -1.9059 H   0  0  0  0  0  0  0  0  0  0  0  0
   -2.2496   -5.4642    0.6229 H   0  0  0  0  0  0  0  0  0  0  0  0
   -2.6540   -5.0827   -1.0603 H   0  0  0  0  0  0  0  0  0  0  0  0
   -0.9581   -5.3142   -0.5993 H   0  0  0  0  0  0  0  0  0  0  0  0
   -0.3211   -3.7425    1.5750 H   0  0  0  0  0  0  0  0  0  0  0  0
    2.7000    3.3825    0.8989 H   0  0  0  0  0  0  0  0  0  0  0  0
    4.5027    3.7663   -0.7734 H   0  0  0  0  0  0  0  0  0  0  0  0
    5.5243    1.8551   -1.9647 H   0  0  0  0  0  0  0  0  0  0  0  0
    4.7638   -0.4701   -1.5062 H   0  0  0  0  0  0  0  0  0  0  0  0
   -1.0023    1.1008    1.5290 H   0  0  0  0  0  0  0  0  0  0  0  0
  1  2  1  0
  2  3  1  0
  3  4  2  0
  4  5  1  0
  5  6  2  0
  6  7  1  0
  7  8  2  0
  8  9  1  0
  8 10  1  0
 10 11  2  0
 11 12  1  0
 12 13  1  0
 13 14  2  0
 14 15  1  0
 15 16  2  0
 16 17  1  0
 17 18  2  0
 18 19  1  0
 19 20  2  0
 20 21  1  0
 11 22  1  0
 22 23  2  0
 23  3  1  0
 22  6  1  0
 21 13  1  0
 20 15  1  0
  1 24  1  0
  1 25  1  0
  1 26  1  0
  4 27  1  0
  5 28  1  0
  9 29  1  0
  9 30  1  0
  9 31  1  0
 10 32  1  0
 16 33  1  0
 17 34  1  0
 18 35  1  0
 19 36  1  0
 23 37  1  0
M  END
$$$$
