
     RDKit          3D

 33 34  0  0  0  0  0  0  0  0999 V2000
    1.3624   -0.4555   -3.4156 C   0  0  0  0  0  0  0  0  0  0  0  0
    2.0058   -1.5803   -2.6300 C   0  0  0  0  0  0  0  0  0  0  0  0
    1.6391   -1.5172   -1.1590 C   0  0  0  0  0  0  0  0  0  0  0  0
    0.8065   -2.3021   -0.6965 O   0  0  0  0  0  0  0  0  0  0  0  0
    2.3135   -0.4528   -0.3169 C   0  0  0  0  0  0  0  0  0  0  0  0
    2.9163   -1.0231    0.8907 C   0  0  0  0  0  0  0  0  0  0  0  0
    3.3995   -1.4661    1.8496 N   0  0  0  0  0  0  0  0  0  0  0  0
    1.3362    0.6345   -0.0183 C   0  0  0  0  0  0  0  0  0  0  0  0
    1.4010    1.8335   -0.5663 N   0  0  0  0  0  0  0  0  0  0  0  0
    0.3492    2.5779   -0.1139 N   0  0  0  0  0  0  0  0  0  0  0  0
   -0.3536    1.8339    0.7100 C   0  0  0  0  0  0  0  0  0  0  0  0
    0.2331    0.5954    0.8066 N   0  0  0  0  0  0  0  0  0  0  0  0
   -0.2772   -0.4821    1.6284 C   0  0  0  0  0  0  0  0  0  0  0  0
   -1.6723   -0.9436    1.2106 C   0  0  0  0  0  0  0  0  0  0  0  0
   -2.7961   -0.0148    1.6757 C   0  0  0  0  0  0  0  0  0  0  0  0
   -2.7941    1.3748    1.0343 C   0  0  0  0  0  0  0  0  0  0  0  0
   -1.5935    2.2348    1.4242 C   0  0  0  0  0  0  0  0  0  0  0  0
    1.7643    0.5173   -3.1166 H   0  0  0  0  0  0  0  0  0  0  0  0
    0.2792   -0.4331   -3.2570 H   0  0  0  0  0  0  0  0  0  0  0  0
    1.5516   -0.5823   -4.4859 H   0  0  0  0  0  0  0  0  0  0  0  0
    1.6695   -2.5467   -3.0227 H   0  0  0  0  0  0  0  0  0  0  0  0
    3.0960   -1.5590   -2.7291 H   0  0  0  0  0  0  0  0  0  0  0  0
    3.1291   -0.0239   -0.9137 H   0  0  0  0  0  0  0  0  0  0  0  0
   -0.2639   -0.1346    2.6681 H   0  0  0  0  0  0  0  0  0  0  0  0
    0.4088   -1.3273    1.5720 H   0  0  0  0  0  0  0  0  0  0  0  0
   -1.8520   -1.9288    1.6587 H   0  0  0  0  0  0  0  0  0  0  0  0
   -1.7257   -1.0762    0.1231 H   0  0  0  0  0  0  0  0  0  0  0  0
   -2.7641    0.0838    2.7678 H   0  0  0  0  0  0  0  0  0  0  0  0
   -3.7532   -0.4960    1.4382 H   0  0  0  0  0  0  0  0  0  0  0  0
   -2.8650    1.2809   -0.0566 H   0  0  0  0  0  0  0  0  0  0  0  0
   -3.7036    1.8924    1.3647 H   0  0  0  0  0  0  0  0  0  0  0  0
   -1.8155    3.2781    1.1675 H   0  0  0  0  0  0  0  0  0  0  0  0
   -1.4311    2.2082    2.5079 H   0  0  0  0  0  0  0  0  0  0  0  0
  1  2  1  0
  2  3  1  0
  3  4  2  0
  3  5  1  0
  5  6  1  0
  6  7  3  0
  5  8  1  0
  8  9  2  0
  9 10  1  0
 10 11  2  0
 11 12  1  0
 12 13  1  0
 13 14  1  0
 14 15  1  0
 15 16  1  0
 16 17  1  0
 12  8  1  0
 17 11  1  0
  1 18  1  0
  1 19  1  0
  1 20  1  0
  2 21  1  0
  2 22  1  0
  5 23  1  0
 13 24  1  0
 13 25  1  0
 14 26  1  0
 14 27  1  0
 15 28  1  0
 15 29  1  0
 16 30  1  0
 16 31  1  0
 17 32  1  0
 17 33  1  0
M  END
$$$$
