
     RDKit          3D

 47 50  0  0  0  0  0  0  0  0999 V2000
    3.0210   -1.8402   -0.8183 C   0  0  0  0  0  0  0  0  0  0  0  0
    2.4129   -0.5409   -0.9915 N   0  0  0  0  0  0  0  0  0  0  0  0
    2.4864    0.5201   -0.1068 C   0  0  0  0  0  0  0  0  0  0  0  0
    3.1736    0.5213    1.1773 C   0  0  0  0  0  0  0  0  0  0  0  0
    2.7743   -0.3429    2.2043 C   0  0  0  0  0  0  0  0  0  0  0  0
    3.4377   -0.3321    3.4347 C   0  0  0  0  0  0  0  0  0  0  0  0
    4.4997    0.5461    3.6473 C   0  0  0  0  0  0  0  0  0  0  0  0
    4.8961    1.4179    2.6331 C   0  0  0  0  0  0  0  0  0  0  0  0
    4.2335    1.4079    1.4029 C   0  0  0  0  0  0  0  0  0  0  0  0
    1.7913    1.5347   -0.7389 C   0  0  0  0  0  0  0  0  0  0  0  0
    1.2718    1.1213   -1.9360 N   0  0  0  0  0  0  0  0  0  0  0  0
    1.6505   -0.1288   -2.0541 C   0  0  0  0  0  0  0  0  0  0  0  0
    1.2141   -1.1599   -3.3738 S   0  0  0  0  0  0  0  0  0  0  0  0
   -0.5561   -0.7446   -3.5143 C   0  0  0  0  0  0  0  0  0  0  0  0
   -1.3030   -1.2057   -2.2578 C   0  0  0  0  0  0  0  0  0  0  0  0
   -1.2996   -2.4187   -2.0115 O   0  0  0  0  0  0  0  0  0  0  0  0
   -1.9765   -0.2430   -1.4762 N   0  0  0  0  0  0  0  0  0  0  0  0
   -2.1779    1.1198   -1.9906 C   0  0  0  0  0  0  0  0  0  0  0  0
   -2.7707    2.1133   -1.0084 C   0  0  0  0  0  0  0  0  0  0  0  0
   -4.0271    1.5292   -0.4045 C   0  0  0  0  0  0  0  0  0  0  0  0
   -3.6655    0.2397    0.2751 C   0  0  0  0  0  0  0  0  0  0  0  0
   -4.3739   -0.1247    1.4347 C   0  0  0  0  0  0  0  0  0  0  0  0
   -4.0683   -1.2995    2.1107 C   0  0  0  0  0  0  0  0  0  0  0  0
   -3.0530   -2.1165    1.6320 C   0  0  0  0  0  0  0  0  0  0  0  0
   -2.3607   -1.7690    0.4662 C   0  0  0  0  0  0  0  0  0  0  0  0
   -2.6643   -0.6034   -0.2540 C   0  0  0  0  0  0  0  0  0  0  0  0
    3.8851   -1.7598   -0.1548 H   0  0  0  0  0  0  0  0  0  0  0  0
    2.2733   -2.5105   -0.3870 H   0  0  0  0  0  0  0  0  0  0  0  0
    3.3698   -2.2194   -1.7814 H   0  0  0  0  0  0  0  0  0  0  0  0
    1.9361   -1.0212    2.0597 H   0  0  0  0  0  0  0  0  0  0  0  0
    3.1206   -1.0038    4.2285 H   0  0  0  0  0  0  0  0  0  0  0  0
    5.0151    0.5556    4.6048 H   0  0  0  0  0  0  0  0  0  0  0  0
    5.7200    2.1073    2.7986 H   0  0  0  0  0  0  0  0  0  0  0  0
    4.5537    2.0922    0.6202 H   0  0  0  0  0  0  0  0  0  0  0  0
    1.6297    2.5412   -0.3758 H   0  0  0  0  0  0  0  0  0  0  0  0
   -0.6625    0.3072   -3.7688 H   0  0  0  0  0  0  0  0  0  0  0  0
   -0.9740   -1.3051   -4.3588 H   0  0  0  0  0  0  0  0  0  0  0  0
   -2.8118    1.0378   -2.8832 H   0  0  0  0  0  0  0  0  0  0  0  0
   -1.2158    1.5297   -2.3068 H   0  0  0  0  0  0  0  0  0  0  0  0
   -2.0382    2.3335   -0.2211 H   0  0  0  0  0  0  0  0  0  0  0  0
   -2.9950    3.0577   -1.5144 H   0  0  0  0  0  0  0  0  0  0  0  0
   -4.4477    2.2453    0.3132 H   0  0  0  0  0  0  0  0  0  0  0  0
   -4.7853    1.3361   -1.1741 H   0  0  0  0  0  0  0  0  0  0  0  0
   -5.1666    0.5163    1.8177 H   0  0  0  0  0  0  0  0  0  0  0  0
   -4.6133   -1.5729    3.0098 H   0  0  0  0  0  0  0  0  0  0  0  0
   -2.7946   -3.0327    2.1560 H   0  0  0  0  0  0  0  0  0  0  0  0
   -1.5652   -2.4358    0.1535 H   0  0  0  0  0  0  0  0  0  0  0  0
  1  2  1  0
  2  3  1  0
  3  4  1  0
  4  5  2  0
  5  6  1  0
  6  7  2  0
  7  8  1  0
  8  9  2  0
  3 10  2  0
 10 11  1  0
 11 12  2  0
 12 13  1  0
 13 14  1  0
 14 15  1  0
 15 16  2  0
 15 17  1  0
 17 18  1  0
 18 19  1  0
 19 20  1  0
 20 21  1  0
 21 22  2  0
 22 23  1  0
 23 24  2  0
 24 25  1  0
 25 26  2  0
 12  2  1  0
 26 17  1  0
  9  4  1  0
 26 21  1  0
  1 27  1  0
  1 28  1  0
  1 29  1  0
  5 30  1  0
  6 31  1  0
  7 32  1  0
  8 33  1  0
  9 34  1  0
 10 35  1  0
 14 36  1  0
 14 37  1  0
 18 38  1  0
 18 39  1  0
 19 40  1  0
 19 41  1  0
 20 42  1  0
 20 43  1  0
 22 44  1  0
 23 45  1  0
 24 46  1  0
 25 47  1  0
M  END
$$$$
