
     RDKit          3D

 39 40  0  0  0  0  0  0  0  0999 V2000
   -6.1285    1.9057    1.2626 C   0  0  0  0  0  0  0  0  0  0  0  0
   -5.3381    1.6032    0.1219 O   0  0  0  0  0  0  0  0  0  0  0  0
   -4.2488    0.7868    0.3003 C   0  0  0  0  0  0  0  0  0  0  0  0
   -3.8554    0.2529    1.5310 C   0  0  0  0  0  0  0  0  0  0  0  0
   -2.7277   -0.5670    1.6146 C   0  0  0  0  0  0  0  0  0  0  0  0
   -1.9778   -0.8565    0.4714 C   0  0  0  0  0  0  0  0  0  0  0  0
   -0.7659   -1.7274    0.5931 C   0  0  0  0  0  0  0  0  0  0  0  0
   -0.6695   -2.5162    1.6203 N   0  0  0  0  0  0  0  0  0  0  0  0
    0.2139   -1.6741   -0.3768 N   0  0  0  0  0  0  0  0  0  0  0  0
    1.4724   -2.1082    0.1044 O   0  0  0  0  0  0  0  0  0  0  0  0
    2.4512   -1.1642   -0.0959 C   0  0  0  0  0  0  0  0  0  0  0  0
    2.2489   -0.0948   -0.6614 O   0  0  0  0  0  0  0  0  0  0  0  0
    3.6355   -1.6408    0.4310 O   0  0  0  0  0  0  0  0  0  0  0  0
    4.6874   -0.7383    0.2830 C   0  0  0  0  0  0  0  0  0  0  0  0
    4.8975    0.2370    1.2568 C   0  0  0  0  0  0  0  0  0  0  0  0
    5.9779    1.1077    1.1234 C   0  0  0  0  0  0  0  0  0  0  0  0
    6.8422    0.9873    0.0325 C   0  0  0  0  0  0  0  0  0  0  0  0
    6.6327   -0.0076   -0.9255 C   0  0  0  0  0  0  0  0  0  0  0  0
    5.5542   -0.8819   -0.7990 C   0  0  0  0  0  0  0  0  0  0  0  0
   -2.3731   -0.3366   -0.7681 C   0  0  0  0  0  0  0  0  0  0  0  0
   -3.5036    0.4859   -0.8596 C   0  0  0  0  0  0  0  0  0  0  0  0
   -3.9637    1.0425   -2.0283 O   0  0  0  0  0  0  0  0  0  0  0  0
   -3.2754    0.7321   -3.2308 C   0  0  0  0  0  0  0  0  0  0  0  0
   -6.5685    0.9991    1.6907 H   0  0  0  0  0  0  0  0  0  0  0  0
   -5.5483    2.4565    2.0102 H   0  0  0  0  0  0  0  0  0  0  0  0
   -6.9499    2.5519    0.9384 H   0  0  0  0  0  0  0  0  0  0  0  0
   -4.4031    0.4522    2.4458 H   0  0  0  0  0  0  0  0  0  0  0  0
   -2.4349   -0.9785    2.5788 H   0  0  0  0  0  0  0  0  0  0  0  0
    0.2050   -3.0429    1.5146 H   0  0  0  0  0  0  0  0  0  0  0  0
    0.2894   -0.7770   -0.8669 H   0  0  0  0  0  0  0  0  0  0  0  0
    4.2305    0.3233    2.1092 H   0  0  0  0  0  0  0  0  0  0  0  0
    6.1500    1.8794    1.8695 H   0  0  0  0  0  0  0  0  0  0  0  0
    7.6841    1.6681   -0.0688 H   0  0  0  0  0  0  0  0  0  0  0  0
    7.3132   -0.1011   -1.7681 H   0  0  0  0  0  0  0  0  0  0  0  0
    5.3956   -1.6623   -1.5368 H   0  0  0  0  0  0  0  0  0  0  0  0
   -1.8105   -0.5981   -1.6557 H   0  0  0  0  0  0  0  0  0  0  0  0
   -2.2440    1.0984   -3.2008 H   0  0  0  0  0  0  0  0  0  0  0  0
   -3.7862    1.2457   -4.0511 H   0  0  0  0  0  0  0  0  0  0  0  0
   -3.3088   -0.3422   -3.4395 H   0  0  0  0  0  0  0  0  0  0  0  0
  1  2  1  0
  2  3  1  0
  3  4  2  0
  4  5  1  0
  5  6  2  0
  6  7  1  0
  7  8  2  3
  7  9  1  0
  9 10  1  0
 10 11  1  0
 11 12  2  0
 11 13  1  0
 13 14  1  0
 14 15  2  0
 15 16  1  0
 16 17  2  0
 17 18  1  0
 18 19  2  0
  6 20  1  0
 20 21  2  0
 21 22  1  0
 22 23  1  0
 21  3  1  0
 19 14  1  0
  1 24  1  0
  1 25  1  0
  1 26  1  0
  4 27  1  0
  5 28  1  0
  8 29  1  0
  9 30  1  0
 15 31  1  0
 16 32  1  0
 17 33  1  0
 18 34  1  0
 19 35  1  0
 20 36  1  0
 23 37  1  0
 23 38  1  0
 23 39  1  0
M  END
$$$$
