
     RDKit          3D

 39 41  0  0  0  0  0  0  0  0999 V2000
   -8.1522    1.6498   -0.7333 C   0  0  0  0  0  0  0  0  0  0  0  0
   -6.7068    1.1981   -0.8394 C   0  0  0  0  0  0  0  0  0  0  0  0
   -5.9865    1.7680    0.2522 O   0  0  0  0  0  0  0  0  0  0  0  0
   -4.6506    1.4809    0.3418 C   0  0  0  0  0  0  0  0  0  0  0  0
   -4.0097    2.0703    1.4315 C   0  0  0  0  0  0  0  0  0  0  0  0
   -2.6436    1.8730    1.6619 C   0  0  0  0  0  0  0  0  0  0  0  0
   -1.9010    1.0664    0.7805 C   0  0  0  0  0  0  0  0  0  0  0  0
   -0.5507    0.7824    0.8800 N   0  0  0  0  0  0  0  0  0  0  0  0
   -0.1946    0.0050   -0.1050 C   0  0  0  0  0  0  0  0  0  0  0  0
    1.0338   -0.5196   -0.3976 N   0  0  0  0  0  0  0  0  0  0  0  0
    2.1482   -0.2735    0.3762 C   0  0  0  0  0  0  0  0  0  0  0  0
    2.2085    0.4136    1.3880 O   0  0  0  0  0  0  0  0  0  0  0  0
    3.3679   -0.9780   -0.1786 C   0  0  0  0  0  0  0  0  0  0  0  0
    4.5972   -0.7056    0.6764 C   0  0  0  0  0  0  0  0  0  0  0  0
    5.7689   -1.3819    0.1440 N   0  0  0  0  0  0  0  0  0  0  0  0
    6.1679   -2.6497    0.4755 C   0  0  0  0  0  0  0  0  0  0  0  0
    7.3062   -2.9364   -0.2462 C   0  0  0  0  0  0  0  0  0  0  0  0
    7.6034   -1.7999   -1.0358 C   0  0  0  0  0  0  0  0  0  0  0  0
    6.6380   -0.8525   -0.7731 C   0  0  0  0  0  0  0  0  0  0  0  0
   -1.4140   -0.4430   -1.2089 S   0  0  0  0  0  0  0  0  0  0  0  0
   -2.5564    0.4830   -0.3062 C   0  0  0  0  0  0  0  0  0  0  0  0
   -3.9306    0.6753   -0.5466 C   0  0  0  0  0  0  0  0  0  0  0  0
   -8.2177    2.7426   -0.7624 H   0  0  0  0  0  0  0  0  0  0  0  0
   -8.5873    1.3296    0.2192 H   0  0  0  0  0  0  0  0  0  0  0  0
   -8.7504    1.2382   -1.5511 H   0  0  0  0  0  0  0  0  0  0  0  0
   -6.2919    1.5468   -1.7921 H   0  0  0  0  0  0  0  0  0  0  0  0
   -6.6694    0.1038   -0.7896 H   0  0  0  0  0  0  0  0  0  0  0  0
   -4.5787    2.6952    2.1169 H   0  0  0  0  0  0  0  0  0  0  0  0
   -2.1510    2.3347    2.5120 H   0  0  0  0  0  0  0  0  0  0  0  0
    1.0902   -1.1043   -1.2180 H   0  0  0  0  0  0  0  0  0  0  0  0
    3.1623   -2.0547   -0.2161 H   0  0  0  0  0  0  0  0  0  0  0  0
    3.5348   -0.6306   -1.2055 H   0  0  0  0  0  0  0  0  0  0  0  0
    4.8260    0.3660    0.7201 H   0  0  0  0  0  0  0  0  0  0  0  0
    4.4546   -1.0537    1.7063 H   0  0  0  0  0  0  0  0  0  0  0  0
    5.6192   -3.2436    1.1949 H   0  0  0  0  0  0  0  0  0  0  0  0
    7.8652   -3.8622   -0.2036 H   0  0  0  0  0  0  0  0  0  0  0  0
    8.4354   -1.6824   -1.7180 H   0  0  0  0  0  0  0  0  0  0  0  0
    6.5065    0.1489   -1.1619 H   0  0  0  0  0  0  0  0  0  0  0  0
   -4.3910    0.2001   -1.4040 H   0  0  0  0  0  0  0  0  0  0  0  0
  1  2  1  0
  2  3  1  0
  3  4  1  0
  4  5  2  0
  5  6  1  0
  6  7  2  0
  7  8  1  0
  8  9  2  0
  9 10  1  0
 10 11  1  0
 11 12  2  0
 11 13  1  0
 13 14  1  0
 14 15  1  0
 15 16  1  0
 16 17  2  0
 17 18  1  0
 18 19  2  0
  9 20  1  0
 20 21  1  0
 21 22  2  0
 22  4  1  0
 21  7  1  0
 19 15  1  0
  1 23  1  0
  1 24  1  0
  1 25  1  0
  2 26  1  0
  2 27  1  0
  5 28  1  0
  6 29  1  0
 10 30  1  0
 13 31  1  0
 13 32  1  0
 14 33  1  0
 14 34  1  0
 16 35  1  0
 17 36  1  0
 18 37  1  0
 19 38  1  0
 22 39  1  0
M  END
$$$$
