
     RDKit          3D

 43 45  0  0  0  0  0  0  0  0999 V2000
    2.4305   -1.5270    0.4825 O   0  0  0  0  0  0  0  0  0  0  0  0
    1.3082   -1.0576    0.2972 C   0  0  0  0  0  0  0  0  0  0  0  0
    0.2519   -1.0819    1.4120 C   0  0  0  0  0  0  0  0  0  0  0  0
   -1.0138   -0.4296    1.0943 N   0  0  0  0  0  0  0  0  0  0  0  0
   -1.1506    0.9360    1.2916 C   0  0  0  0  0  0  0  0  0  0  0  0
   -0.1860    1.6736    1.4664 O   0  0  0  0  0  0  0  0  0  0  0  0
   -2.5961    1.4437    1.1532 C   0  0  0  0  0  0  0  0  0  0  0  0
   -2.8352    2.7001    1.9817 C   0  0  0  0  0  0  0  0  0  0  0  0
   -2.8197    2.4259    3.3876 O   0  0  0  0  0  0  0  0  0  0  0  0
   -3.5292    1.2972    3.6945 C   0  0  0  0  0  0  0  0  0  0  0  0
   -3.8641    1.1142    5.0348 C   0  0  0  0  0  0  0  0  0  0  0  0
   -4.6024   -0.0051    5.4216 C   0  0  0  0  0  0  0  0  0  0  0  0
   -5.0025   -0.9414    4.4676 C   0  0  0  0  0  0  0  0  0  0  0  0
   -4.6537   -0.7657    3.1276 C   0  0  0  0  0  0  0  0  0  0  0  0
   -3.9046    0.3462    2.7443 C   0  0  0  0  0  0  0  0  0  0  0  0
   -3.5684    0.4282    1.4192 O   0  0  0  0  0  0  0  0  0  0  0  0
    0.8292   -0.5381   -0.9012 N   0  0  0  0  0  0  0  0  0  0  0  0
    1.4661   -0.5988   -2.1128 N   0  0  0  0  0  0  0  0  0  0  0  0
    2.7538   -0.4514   -2.1216 C   0  0  0  0  0  0  0  0  0  0  0  0
    3.5392   -0.5476   -3.3694 C   0  0  0  0  0  0  0  0  0  0  0  0
    2.9128   -0.7856   -4.5977 C   0  0  0  0  0  0  0  0  0  0  0  0
    3.6781   -0.8698   -5.7618 C   0  0  0  0  0  0  0  0  0  0  0  0
    5.0632   -0.7179   -5.6959 C   0  0  0  0  0  0  0  0  0  0  0  0
    5.6764   -0.4844   -4.4687 C   0  0  0  0  0  0  0  0  0  0  0  0
    7.0333   -0.3463   -4.4566 O   0  0  0  0  0  0  0  0  0  0  0  0
    4.9279   -0.3966   -3.2988 C   0  0  0  0  0  0  0  0  0  0  0  0
    0.0226   -2.1310    1.6249 H   0  0  0  0  0  0  0  0  0  0  0  0
    0.6804   -0.6185    2.3069 H   0  0  0  0  0  0  0  0  0  0  0  0
   -1.8642   -0.9655    1.2467 H   0  0  0  0  0  0  0  0  0  0  0  0
   -2.7094    1.7055    0.0936 H   0  0  0  0  0  0  0  0  0  0  0  0
   -2.0724    3.4608    1.7850 H   0  0  0  0  0  0  0  0  0  0  0  0
   -3.8104    3.1411    1.7380 H   0  0  0  0  0  0  0  0  0  0  0  0
   -3.5585    1.8484    5.7755 H   0  0  0  0  0  0  0  0  0  0  0  0
   -4.8699   -0.1432    6.4664 H   0  0  0  0  0  0  0  0  0  0  0  0
   -5.5840   -1.8092    4.7691 H   0  0  0  0  0  0  0  0  0  0  0  0
   -4.9629   -1.4987    2.3876 H   0  0  0  0  0  0  0  0  0  0  0  0
   -0.1782   -0.4240   -0.9629 H   0  0  0  0  0  0  0  0  0  0  0  0
    3.3308   -0.2171   -1.2106 H   0  0  0  0  0  0  0  0  0  0  0  0
    1.8335   -0.9056   -4.6530 H   0  0  0  0  0  0  0  0  0  0  0  0
    3.1963   -1.0541   -6.7184 H   0  0  0  0  0  0  0  0  0  0  0  0
    5.6640   -0.7833   -6.5990 H   0  0  0  0  0  0  0  0  0  0  0  0
    7.3286   -0.2093   -3.5413 H   0  0  0  0  0  0  0  0  0  0  0  0
    5.4097   -0.2168   -2.3432 H   0  0  0  0  0  0  0  0  0  0  0  0
  1  2  2  0
  2  3  1  0
  3  4  1  0
  4  5  1  0
  5  6  2  0
  5  7  1  0
  7  8  1  0
  8  9  1  0
  9 10  1  0
 10 11  2  0
 11 12  1  0
 12 13  2  0
 13 14  1  0
 14 15  2  0
 15 16  1  0
  2 17  1  0
 17 18  1  0
 18 19  2  3
 19 20  1  0
 20 21  2  0
 21 22  1  0
 22 23  2  0
 23 24  1  0
 24 25  1  0
 24 26  2  0
 16  7  1  0
 26 20  1  0
 15 10  1  0
  3 27  1  0
  3 28  1  0
  4 29  1  0
  7 30  1  0
  8 31  1  0
  8 32  1  0
 11 33  1  0
 12 34  1  0
 13 35  1  0
 14 36  1  0
 17 37  1  0
 19 38  1  0
 21 39  1  0
 22 40  1  0
 23 41  1  0
 25 42  1  0
 26 43  1  0
M  END
$$$$
