
     RDKit          3D

 33 35  0  0  0  0  0  0  0  0999 V2000
   -3.5899   -0.7126    2.6127 C   0  0  0  0  0  0  0  0  0  0  0  0
   -3.3197   -0.3142    1.1935 C   0  0  0  0  0  0  0  0  0  0  0  0
   -3.6509    0.9485    0.7474 C   0  0  0  0  0  0  0  0  0  0  0  0
   -3.3675    1.2160   -0.5710 C   0  0  0  0  0  0  0  0  0  0  0  0
   -2.7975    0.3285   -1.4046 N   0  0  0  0  0  0  0  0  0  0  0  0
   -2.5094   -0.8763   -0.8820 C   0  0  0  0  0  0  0  0  0  0  0  0
   -1.8089   -2.1086   -1.9420 S   0  0  0  0  0  0  0  0  0  0  0  0
   -0.5585   -1.0976   -2.7866 C   0  0  0  0  0  0  0  0  0  0  0  0
    0.6036   -0.7776   -1.9082 C   0  0  0  0  0  0  0  0  0  0  0  0
    0.7518    0.2555   -1.0033 C   0  0  0  0  0  0  0  0  0  0  0  0
    1.9974    0.1022   -0.4433 N   0  0  0  0  0  0  0  0  0  0  0  0
    2.6493    0.8623    0.5450 C   0  0  0  0  0  0  0  0  0  0  0  0
    1.9525    2.0419    1.1502 C   0  0  0  0  0  0  0  0  0  0  0  0
    3.8931    0.4875    0.9120 C   0  0  0  0  0  0  0  0  0  0  0  0
    4.5129   -0.6700    0.2870 C   0  0  0  0  0  0  0  0  0  0  0  0
    3.8744   -1.3865   -0.6563 C   0  0  0  0  0  0  0  0  0  0  0  0
    2.5632   -1.0120   -1.0591 C   0  0  0  0  0  0  0  0  0  0  0  0
    1.7483   -1.5445   -1.9448 N   0  0  0  0  0  0  0  0  0  0  0  0
   -2.7531   -1.2359    0.3897 N   0  0  0  0  0  0  0  0  0  0  0  0
   -3.0505   -0.0535    3.3000 H   0  0  0  0  0  0  0  0  0  0  0  0
   -3.2617   -1.7404    2.7988 H   0  0  0  0  0  0  0  0  0  0  0  0
   -4.6621   -0.6537    2.8245 H   0  0  0  0  0  0  0  0  0  0  0  0
   -4.1117    1.6871    1.3896 H   0  0  0  0  0  0  0  0  0  0  0  0
   -3.6002    2.1819   -1.0100 H   0  0  0  0  0  0  0  0  0  0  0  0
   -1.0006   -0.1835   -3.1964 H   0  0  0  0  0  0  0  0  0  0  0  0
   -0.2023   -1.6772   -3.6457 H   0  0  0  0  0  0  0  0  0  0  0  0
    0.0835    1.0525   -0.7135 H   0  0  0  0  0  0  0  0  0  0  0  0
    1.7148    2.7860    0.3828 H   0  0  0  0  0  0  0  0  0  0  0  0
    2.5725    2.5361    1.9061 H   0  0  0  0  0  0  0  0  0  0  0  0
    1.0228    1.7324    1.6394 H   0  0  0  0  0  0  0  0  0  0  0  0
    4.4599    1.0217    1.6680 H   0  0  0  0  0  0  0  0  0  0  0  0
    5.5136   -0.9449    0.6062 H   0  0  0  0  0  0  0  0  0  0  0  0
    4.3308   -2.2514   -1.1233 H   0  0  0  0  0  0  0  0  0  0  0  0
  1  2  1  0
  2  3  2  0
  3  4  1  0
  4  5  2  0
  5  6  1  0
  6  7  1  0
  7  8  1  0
  8  9  1  0
  9 10  2  0
 10 11  1  0
 11 12  1  0
 12 13  1  0
 12 14  2  0
 14 15  1  0
 15 16  2  0
 16 17  1  0
 17 18  2  0
  6 19  2  0
 19  2  1  0
 18  9  1  0
 17 11  1  0
  1 20  1  0
  1 21  1  0
  1 22  1  0
  3 23  1  0
  4 24  1  0
  8 25  1  0
  8 26  1  0
 10 27  1  0
 13 28  1  0
 13 29  1  0
 13 30  1  0
 14 31  1  0
 15 32  1  0
 16 33  1  0
M  END
$$$$
