
     RDKit          3D

 54 58  0  0  0  0  0  0  0  0999 V2000
   -6.3772    0.4643    4.7212 O   0  0  0  0  0  0  0  0  0  0  0  0
   -6.3090   -0.2511    3.7391 C   0  0  0  0  0  0  0  0  0  0  0  0
   -7.2530   -1.1734    3.4810 O   0  0  0  0  0  0  0  0  0  0  0  0
   -5.2346   -0.2264    2.7181 C   0  0  0  0  0  0  0  0  0  0  0  0
   -5.2387   -1.0755    1.6104 C   0  0  0  0  0  0  0  0  0  0  0  0
   -4.2000   -1.0143    0.6703 C   0  0  0  0  0  0  0  0  0  0  0  0
   -3.1395   -0.1057    0.8068 C   0  0  0  0  0  0  0  0  0  0  0  0
   -2.0804   -0.0354   -0.1537 N   0  0  0  0  0  0  0  0  0  0  0  0
   -0.7620    0.3525    0.2129 C   0  0  0  0  0  0  0  0  0  0  0  0
   -0.3193    0.6750    1.3002 O   0  0  0  0  0  0  0  0  0  0  0  0
    0.0322    0.2229   -1.0611 C   0  0  0  0  0  0  0  0  0  0  0  0
    1.3286    0.4455   -1.3172 C   0  0  0  0  0  0  0  0  0  0  0  0
    2.3136    0.9178   -0.4099 C   0  0  0  0  0  0  0  0  0  0  0  0
    2.2659    1.8427    0.6240 C   0  0  0  0  0  0  0  0  0  0  0  0
    3.5642    1.9540    1.1786 C   0  0  0  0  0  0  0  0  0  0  0  0
    4.3724    1.1120    0.4494 C   0  0  0  0  0  0  0  0  0  0  0  0
    5.7903    0.7597    0.4902 C   0  0  0  0  0  0  0  0  0  0  0  0
    6.6458    1.3523    1.4339 C   0  0  0  0  0  0  0  0  0  0  0  0
    8.0059    1.0233    1.4838 C   0  0  0  0  0  0  0  0  0  0  0  0
    8.5237    0.0887    0.5803 C   0  0  0  0  0  0  0  0  0  0  0  0
    9.9489   -0.2600    0.6274 N   0  0  0  0  0  4  0  0  0  0  0  0
   10.3664   -1.0934   -0.1893 O   0  0  0  0  0  0  0  0  0  0  0  0
   10.6516    0.3006    1.4808 O   0  0  0  0  0  1  0  0  0  0  0  0
    7.6912   -0.5149   -0.3675 C   0  0  0  0  0  0  0  0  0  0  0  0
    6.3336   -0.1766   -0.4063 C   0  0  0  0  0  0  0  0  0  0  0  0
    3.6254    0.5046   -0.5162 O   0  0  0  0  0  0  0  0  0  0  0  0
   -0.8932   -0.2439   -2.0670 C   0  0  0  0  0  0  0  0  0  0  0  0
   -2.1039   -0.3769   -1.5063 C   0  0  0  0  0  0  0  0  0  0  0  0
   -3.2851   -0.7008   -2.3084 C   0  0  0  0  0  0  0  0  0  0  0  0
   -4.3196    0.2339   -2.4565 C   0  0  0  0  0  0  0  0  0  0  0  0
   -5.4392   -0.0673   -3.2344 C   0  0  0  0  0  0  0  0  0  0  0  0
   -5.5307   -1.3006   -3.8773 C   0  0  0  0  0  0  0  0  0  0  0  0
   -4.5034   -2.2334   -3.7460 C   0  0  0  0  0  0  0  0  0  0  0  0
   -3.3827   -1.9345   -2.9682 C   0  0  0  0  0  0  0  0  0  0  0  0
   -3.1477    0.7307    1.9346 C   0  0  0  0  0  0  0  0  0  0  0  0
   -4.1825    0.6765    2.8782 C   0  0  0  0  0  0  0  0  0  0  0  0
   -7.8815   -1.0783    4.2271 H   0  0  0  0  0  0  0  0  0  0  0  0
   -6.0375   -1.7996    1.4676 H   0  0  0  0  0  0  0  0  0  0  0  0
   -4.2293   -1.7310   -0.1442 H   0  0  0  0  0  0  0  0  0  0  0  0
    1.7077    0.2204   -2.3114 H   0  0  0  0  0  0  0  0  0  0  0  0
    1.3882    2.3842    0.9492 H   0  0  0  0  0  0  0  0  0  0  0  0
    3.8608    2.5803    2.0073 H   0  0  0  0  0  0  0  0  0  0  0  0
    6.2637    2.0805    2.1464 H   0  0  0  0  0  0  0  0  0  0  0  0
    8.6389    1.5019    2.2284 H   0  0  0  0  0  0  0  0  0  0  0  0
    8.0745   -1.2447   -1.0777 H   0  0  0  0  0  0  0  0  0  0  0  0
    5.6977   -0.6567   -1.1488 H   0  0  0  0  0  0  0  0  0  0  0  0
   -0.6486   -0.4017   -3.1067 H   0  0  0  0  0  0  0  0  0  0  0  0
   -4.2613    1.2019   -1.9628 H   0  0  0  0  0  0  0  0  0  0  0  0
   -6.2393    0.6613   -3.3387 H   0  0  0  0  0  0  0  0  0  0  0  0
   -6.4032   -1.5340   -4.4827 H   0  0  0  0  0  0  0  0  0  0  0  0
   -4.5753   -3.1945   -4.2491 H   0  0  0  0  0  0  0  0  0  0  0  0
   -2.5923   -2.6759   -2.8726 H   0  0  0  0  0  0  0  0  0  0  0  0
   -2.3638    1.4668    2.0964 H   0  0  0  0  0  0  0  0  0  0  0  0
   -4.1574    1.3463    3.7360 H   0  0  0  0  0  0  0  0  0  0  0  0
  1  2  2  0
  2  3  1  0
  2  4  1  0
  4  5  2  0
  5  6  1  0
  6  7  2  0
  7  8  1  0
  8  9  1  0
  9 10  2  0
  9 11  1  0
 11 12  2  3
 12 13  1  0
 13 14  2  0
 14 15  1  0
 15 16  2  0
 16 17  1  0
 17 18  2  0
 18 19  1  0
 19 20  2  0
 20 21  1  0
 21 22  2  0
 21 23  1  0
 20 24  1  0
 24 25  2  0
 16 26  1  0
 11 27  1  0
 27 28  2  0
 28 29  1  0
 29 30  2  0
 30 31  1  0
 31 32  2  0
 32 33  1  0
 33 34  2  0
  7 35  1  0
 35 36  2  0
 36  4  1  0
 28  8  1  0
 34 29  1  0
 26 13  1  0
 25 17  1  0
  3 37  1  0
  5 38  1  0
  6 39  1  0
 12 40  1  0
 14 41  1  0
 15 42  1  0
 18 43  1  0
 19 44  1  0
 24 45  1  0
 25 46  1  0
 27 47  1  0
 30 48  1  0
 31 49  1  0
 32 50  1  0
 33 51  1  0
 34 52  1  0
 35 53  1  0
 36 54  1  0
M  CHG  2  21   1  23  -1
M  END
$$$$
