
     RDKit          3D

 37 40  0  0  0  0  0  0  0  0999 V2000
   -2.8621    3.7134   -1.1473 C   0  0  0  0  0  0  0  0  0  0  0  0
   -2.0845    2.9879   -0.2034 O   0  0  0  0  0  0  0  0  0  0  0  0
   -2.2454    1.6316   -0.1798 C   0  0  0  0  0  0  0  0  0  0  0  0
   -3.1085    0.8953   -0.9779 C   0  0  0  0  0  0  0  0  0  0  0  0
   -3.1676   -0.4951   -0.8359 C   0  0  0  0  0  0  0  0  0  0  0  0
   -2.3858   -1.1797    0.0833 C   0  0  0  0  0  0  0  0  0  0  0  0
   -2.5198   -2.5140    0.1490 N   0  0  0  0  0  0  0  0  0  0  0  0
   -1.7809   -3.2053    1.0422 C   0  0  0  0  0  0  0  0  0  0  0  0
   -1.9709   -4.6915    1.0884 C   0  0  0  0  0  0  0  0  0  0  0  0
   -0.8776   -2.5907    1.8907 C   0  0  0  0  0  0  0  0  0  0  0  0
   -0.7193   -1.2045    1.8157 C   0  0  0  0  0  0  0  0  0  0  0  0
    0.4763   -0.4760    2.9434 S   0  0  0  0  0  0  0  0  0  0  0  0
    1.7383   -0.1331    1.7723 C   0  0  0  0  0  0  0  0  0  0  0  0
    2.0314    1.1062    1.4561 N   0  0  0  0  0  0  0  0  0  0  0  0
    3.0472    1.1180    0.5161 C   0  0  0  0  0  0  0  0  0  0  0  0
    3.6124    2.2663   -0.0744 C   0  0  0  0  0  0  0  0  0  0  0  0
    4.6395    2.1318   -1.0143 C   0  0  0  0  0  0  0  0  0  0  0  0
    5.1084    0.8711   -1.3702 C   0  0  0  0  0  0  0  0  0  0  0  0
    4.5653   -0.2840   -0.7988 C   0  0  0  0  0  0  0  0  0  0  0  0
    3.5336   -0.1372    0.1433 C   0  0  0  0  0  0  0  0  0  0  0  0
    2.6735   -1.3495    1.0125 S   0  0  0  0  0  0  0  0  0  0  0  0
   -1.4977   -0.4522    0.8997 C   0  0  0  0  0  0  0  0  0  0  0  0
   -1.4495    0.9593    0.7506 C   0  0  0  0  0  0  0  0  0  0  0  0
   -2.6205    3.4130   -2.1722 H   0  0  0  0  0  0  0  0  0  0  0  0
   -3.9325    3.6030   -0.9444 H   0  0  0  0  0  0  0  0  0  0  0  0
   -2.6111    4.7734   -1.0430 H   0  0  0  0  0  0  0  0  0  0  0  0
   -3.7512    1.3607   -1.7171 H   0  0  0  0  0  0  0  0  0  0  0  0
   -3.8505   -1.0631   -1.4645 H   0  0  0  0  0  0  0  0  0  0  0  0
   -2.3137   -4.9983    2.0815 H   0  0  0  0  0  0  0  0  0  0  0  0
   -1.0294   -5.2003    0.8593 H   0  0  0  0  0  0  0  0  0  0  0  0
   -2.7186   -5.0121    0.3558 H   0  0  0  0  0  0  0  0  0  0  0  0
   -0.3035   -3.1850    2.5951 H   0  0  0  0  0  0  0  0  0  0  0  0
    3.2427    3.2478    0.2058 H   0  0  0  0  0  0  0  0  0  0  0  0
    5.0718    3.0208   -1.4679 H   0  0  0  0  0  0  0  0  0  0  0  0
    5.9079    0.7811   -2.1029 H   0  0  0  0  0  0  0  0  0  0  0  0
    4.9323   -1.2670   -1.0780 H   0  0  0  0  0  0  0  0  0  0  0  0
   -0.7802    1.5581    1.3660 H   0  0  0  0  0  0  0  0  0  0  0  0
  1  2  1  0
  2  3  1  0
  3  4  2  0
  4  5  1  0
  5  6  2  0
  6  7  1  0
  7  8  2  0
  8  9  1  0
  8 10  1  0
 10 11  2  0
 11 12  1  0
 12 13  1  0
 13 14  2  0
 14 15  1  0
 15 16  2  0
 16 17  1  0
 17 18  2  0
 18 19  1  0
 19 20  2  0
 20 21  1  0
 11 22  1  0
 22 23  2  0
 23  3  1  0
 22  6  1  0
 21 13  1  0
 20 15  1  0
  1 24  1  0
  1 25  1  0
  1 26  1  0
  4 27  1  0
  5 28  1  0
  9 29  1  0
  9 30  1  0
  9 31  1  0
 10 32  1  0
 16 33  1  0
 17 34  1  0
 18 35  1  0
 19 36  1  0
 23 37  1  0
M  END
$$$$
