
     RDKit          3D

 52 54  0  0  0  0  0  0  0  0999 V2000
    2.9471    2.0995   -2.9351 C   0  0  0  0  0  0  0  0  0  0  0  0
    2.7350    1.9437   -1.4307 C   0  0  0  0  0  0  0  0  0  0  0  0
    3.7124    0.9377   -0.7984 C   0  0  0  0  0  0  0  0  0  0  0  0
    5.1657    1.4181   -0.8247 C   0  0  0  0  0  0  0  0  0  0  0  0
    6.0821    0.4489   -0.1186 C   0  0  0  0  0  0  0  0  0  0  0  0
    6.7523   -0.5507   -0.8362 C   0  0  0  0  0  0  0  0  0  0  0  0
    7.5861   -1.4553   -0.1767 C   0  0  0  0  0  0  0  0  0  0  0  0
    7.7533   -1.3724    1.2045 C   0  0  0  0  0  0  0  0  0  0  0  0
    7.0857   -0.3861    1.9282 C   0  0  0  0  0  0  0  0  0  0  0  0
    6.2521    0.5196    1.2707 C   0  0  0  0  0  0  0  0  0  0  0  0
    1.3580    1.5255   -1.1827 N   0  0  0  0  0  0  0  0  0  0  0  0
    0.7297    1.8044    0.0157 C   0  0  0  0  0  0  0  0  0  0  0  0
    1.2362    2.4778    0.9061 O   0  0  0  0  0  0  0  0  0  0  0  0
   -0.6182    1.2019    0.2117 C   0  0  0  0  0  0  0  0  0  0  0  0
   -1.4611    0.8936   -0.8604 C   0  0  0  0  0  0  0  0  0  0  0  0
   -2.7213    0.3265   -0.6273 C   0  0  0  0  0  0  0  0  0  0  0  0
   -3.1585    0.0724    0.6744 C   0  0  0  0  0  0  0  0  0  0  0  0
   -4.4087   -0.4999    0.9897 N   0  0  0  0  0  0  0  0  0  0  0  0
   -5.4185   -0.8457    0.1096 C   0  0  0  0  0  0  0  0  0  0  0  0
   -5.4336   -0.6639   -1.1015 O   0  0  0  0  0  0  0  0  0  0  0  0
   -6.6148   -1.4710    0.7404 C   0  0  0  0  0  0  0  0  0  0  0  0
   -7.8779   -1.1832    0.2056 C   0  0  0  0  0  0  0  0  0  0  0  0
   -9.0238   -1.7497    0.7659 C   0  0  0  0  0  0  0  0  0  0  0  0
   -8.9113   -2.6133    1.8555 C   0  0  0  0  0  0  0  0  0  0  0  0
   -7.6516   -2.9140    2.3737 C   0  0  0  0  0  0  0  0  0  0  0  0
   -7.5020   -4.1024    3.8371 Br  0  0  0  0  0  0  0  0  0  0  0  0
   -6.4997   -2.3533    1.8218 C   0  0  0  0  0  0  0  0  0  0  0  0
   -2.3159    0.3963    1.7452 C   0  0  0  0  0  0  0  0  0  0  0  0
   -1.0569    0.9614    1.5172 C   0  0  0  0  0  0  0  0  0  0  0  0
    3.9314    2.5190   -3.1622 H   0  0  0  0  0  0  0  0  0  0  0  0
    2.8555    1.1370   -3.4506 H   0  0  0  0  0  0  0  0  0  0  0  0
    2.1954    2.7731   -3.3623 H   0  0  0  0  0  0  0  0  0  0  0  0
    2.8744    2.9229   -0.9560 H   0  0  0  0  0  0  0  0  0  0  0  0
    3.4165    0.7528    0.2431 H   0  0  0  0  0  0  0  0  0  0  0  0
    3.6274   -0.0322   -1.3071 H   0  0  0  0  0  0  0  0  0  0  0  0
    5.5135    1.5488   -1.8559 H   0  0  0  0  0  0  0  0  0  0  0  0
    5.2483    2.4035   -0.3489 H   0  0  0  0  0  0  0  0  0  0  0  0
    6.6293   -0.6308   -1.9136 H   0  0  0  0  0  0  0  0  0  0  0  0
    8.1046   -2.2260   -0.7409 H   0  0  0  0  0  0  0  0  0  0  0  0
    8.4020   -2.0772    1.7172 H   0  0  0  0  0  0  0  0  0  0  0  0
    7.2122   -0.3224    3.0057 H   0  0  0  0  0  0  0  0  0  0  0  0
    5.7318    1.2808    1.8486 H   0  0  0  0  0  0  0  0  0  0  0  0
    0.9965    0.7654   -1.7434 H   0  0  0  0  0  0  0  0  0  0  0  0
   -1.1726    1.1099   -1.8851 H   0  0  0  0  0  0  0  0  0  0  0  0
   -3.3416    0.1021   -1.4899 H   0  0  0  0  0  0  0  0  0  0  0  0
   -4.6012   -0.6060    1.9773 H   0  0  0  0  0  0  0  0  0  0  0  0
   -7.9692   -0.5152   -0.6496 H   0  0  0  0  0  0  0  0  0  0  0  0
  -10.0021   -1.5208    0.3495 H   0  0  0  0  0  0  0  0  0  0  0  0
   -9.8080   -3.0532    2.2853 H   0  0  0  0  0  0  0  0  0  0  0  0
   -5.5254   -2.6294    2.2144 H   0  0  0  0  0  0  0  0  0  0  0  0
   -2.6232    0.2195    2.7729 H   0  0  0  0  0  0  0  0  0  0  0  0
   -0.4177    1.2121    2.3618 H   0  0  0  0  0  0  0  0  0  0  0  0
  1  2  1  0
  2  3  1  0
  3  4  1  0
  4  5  1  0
  5  6  2  0
  6  7  1  0
  7  8  2  0
  8  9  1  0
  9 10  2  0
  2 11  1  0
 11 12  1  0
 12 13  2  0
 12 14  1  0
 14 15  2  0
 15 16  1  0
 16 17  2  0
 17 18  1  0
 18 19  1  0
 19 20  2  0
 19 21  1  0
 21 22  2  0
 22 23  1  0
 23 24  2  0
 24 25  1  0
 25 26  1  0
 25 27  2  0
 17 28  1  0
 28 29  2  0
 10  5  1  0
 29 14  1  0
 27 21  1  0
  1 30  1  0
  1 31  1  0
  1 32  1  0
  2 33  1  0
  3 34  1  0
  3 35  1  0
  4 36  1  0
  4 37  1  0
  6 38  1  0
  7 39  1  0
  8 40  1  0
  9 41  1  0
 10 42  1  0
 11 43  1  0
 15 44  1  0
 16 45  1  0
 18 46  1  0
 22 47  1  0
 23 48  1  0
 24 49  1  0
 27 50  1  0
 28 51  1  0
 29 52  1  0
M  END
$$$$
