
     RDKit          3D

 50 53  0  0  0  0  0  0  0  0999 V2000
    7.5084    1.6352   -1.7098 C   0  0  0  0  0  0  0  0  0  0  0  0
    6.3329    0.8850   -1.1669 C   0  0  0  0  0  0  0  0  0  0  0  0
    5.0332    1.2878   -1.4687 C   0  0  0  0  0  0  0  0  0  0  0  0
    3.9322    0.6491   -1.0046 N   0  0  0  0  0  0  0  0  0  0  0  0
    4.1918   -0.4321   -0.2137 C   0  0  0  0  0  0  0  0  0  0  0  0
    3.0200   -1.1750    0.3269 C   0  0  0  0  0  0  0  0  0  0  0  0
    3.1598   -2.1287    1.0828 O   0  0  0  0  0  0  0  0  0  0  0  0
    1.7989   -0.6900   -0.0863 N   0  0  0  0  0  0  0  0  0  0  0  0
    0.5497   -1.1870    0.4432 C   0  0  0  0  0  0  0  0  0  0  0  0
    0.2669   -0.5824    1.8389 C   0  0  0  0  0  0  0  0  0  0  0  0
   -1.2222   -0.6909    2.2811 C   0  0  0  0  0  0  0  0  0  0  0  0
   -1.6366   -2.1689    2.4319 C   0  0  0  0  0  0  0  0  0  0  0  0
   -1.3822   -0.0110    3.6543 C   0  0  0  0  0  0  0  0  0  0  0  0
   -2.1492    0.0331    1.2535 C   0  0  0  0  0  0  0  0  0  0  0  0
   -1.7514   -0.2759   -0.1525 C   0  0  0  0  0  0  0  0  0  0  0  0
   -0.5386   -0.8378   -0.5121 C   0  0  0  0  0  0  0  0  0  0  0  0
   -0.6473   -1.0655   -1.8874 C   0  0  0  0  0  0  0  0  0  0  0  0
   -1.8139   -0.6563   -2.3781 N   0  0  0  0  0  0  0  0  0  0  0  0
   -2.4875   -0.1122   -1.3205 N   0  0  0  0  0  0  0  0  0  0  0  0
   -3.7582    0.5012   -1.5555 C   0  0  0  0  0  0  0  0  0  0  0  0
   -4.4066    1.2942   -0.6022 C   0  0  0  0  0  0  0  0  0  0  0  0
   -5.6510    1.8703   -0.8865 C   0  0  0  0  0  0  0  0  0  0  0  0
   -6.2561    1.6685   -2.1243 C   0  0  0  0  0  0  0  0  0  0  0  0
   -5.6151    0.8971   -3.0879 C   0  0  0  0  0  0  0  0  0  0  0  0
   -4.3732    0.3210   -2.8085 C   0  0  0  0  0  0  0  0  0  0  0  0
    5.4789   -0.8402    0.0950 C   0  0  0  0  0  0  0  0  0  0  0  0
    6.5749   -0.1898   -0.3744 N   0  0  0  0  0  0  0  0  0  0  0  0
    7.4857    1.6349   -2.8041 H   0  0  0  0  0  0  0  0  0  0  0  0
    7.4961    2.6688   -1.3505 H   0  0  0  0  0  0  0  0  0  0  0  0
    8.4474    1.1731   -1.3885 H   0  0  0  0  0  0  0  0  0  0  0  0
    4.8414    2.1485   -2.1020 H   0  0  0  0  0  0  0  0  0  0  0  0
    1.8137    0.1745   -0.6223 H   0  0  0  0  0  0  0  0  0  0  0  0
    0.6185   -2.2785    0.5291 H   0  0  0  0  0  0  0  0  0  0  0  0
    0.9210   -1.0609    2.5797 H   0  0  0  0  0  0  0  0  0  0  0  0
    0.5505    0.4807    1.8346 H   0  0  0  0  0  0  0  0  0  0  0  0
   -1.6039   -2.7109    1.4818 H   0  0  0  0  0  0  0  0  0  0  0  0
   -0.9760   -2.6905    3.1336 H   0  0  0  0  0  0  0  0  0  0  0  0
   -2.6595   -2.2516    2.8169 H   0  0  0  0  0  0  0  0  0  0  0  0
   -1.0848    1.0429    3.6131 H   0  0  0  0  0  0  0  0  0  0  0  0
   -2.4227   -0.0501    3.9956 H   0  0  0  0  0  0  0  0  0  0  0  0
   -0.7619   -0.5013    4.4131 H   0  0  0  0  0  0  0  0  0  0  0  0
   -2.0642    1.1173    1.3996 H   0  0  0  0  0  0  0  0  0  0  0  0
   -3.1880   -0.2612    1.4403 H   0  0  0  0  0  0  0  0  0  0  0  0
    0.0711   -1.5255   -2.5544 H   0  0  0  0  0  0  0  0  0  0  0  0
   -3.9726    1.5241    0.3609 H   0  0  0  0  0  0  0  0  0  0  0  0
   -6.1446    2.4878   -0.1396 H   0  0  0  0  0  0  0  0  0  0  0  0
   -7.2212    2.1190   -2.3406 H   0  0  0  0  0  0  0  0  0  0  0  0
   -6.0775    0.7404   -4.0591 H   0  0  0  0  0  0  0  0  0  0  0  0
   -3.8981   -0.2801   -3.5826 H   0  0  0  0  0  0  0  0  0  0  0  0
    5.6713   -1.7004    0.7274 H   0  0  0  0  0  0  0  0  0  0  0  0
  1  2  1  0
  2  3  2  0
  3  4  1  0
  4  5  2  0
  5  6  1  0
  6  7  2  0
  6  8  1  0
  8  9  1  0
  9 10  1  0
 10 11  1  0
 11 12  1  0
 11 13  1  0
 11 14  1  0
 14 15  1  0
 15 16  2  0
 16 17  1  0
 17 18  2  0
 18 19  1  0
 19 20  1  0
 20 21  2  0
 21 22  1  0
 22 23  2  0
 23 24  1  0
 24 25  2  0
  5 26  1  0
 26 27  2  0
 27  2  1  0
 16  9  1  0
 25 20  1  0
 19 15  1  0
  1 28  1  0
  1 29  1  0
  1 30  1  0
  3 31  1  0
  8 32  1  0
  9 33  1  0
 10 34  1  0
 10 35  1  0
 12 36  1  0
 12 37  1  0
 12 38  1  0
 13 39  1  0
 13 40  1  0
 13 41  1  0
 14 42  1  0
 14 43  1  0
 17 44  1  0
 21 45  1  0
 22 46  1  0
 23 47  1  0
 24 48  1  0
 25 49  1  0
 26 50  1  0
M  END
$$$$
