
     RDKit          3D

 66 72  0  0  0  0  0  0  0  0999 V2000
    1.0284    0.3523    1.6677 O   0  0  0  0  0  0  0  0  0  0  0  0
    1.1444   -0.0776    0.5279 C   0  0  0  0  0  0  0  0  0  0  0  0
    2.3048   -0.6258   -0.0414 N   0  0  0  0  0  0  0  0  0  0  0  0
    3.5592   -0.7384    0.6675 C   0  0  0  0  0  0  0  0  0  0  0  0
    4.4820    0.4361    0.4342 C   0  0  0  0  0  0  0  0  0  0  0  0
    4.1448    1.7137    0.9074 C   0  0  0  0  0  0  0  0  0  0  0  0
    4.9961    2.7990    0.6943 C   0  0  0  0  0  0  0  0  0  0  0  0
    6.1971    2.6196    0.0123 C   0  0  0  0  0  0  0  0  0  0  0  0
    6.5485    1.3554   -0.4551 C   0  0  0  0  0  0  0  0  0  0  0  0
    5.6967    0.2688   -0.2456 C   0  0  0  0  0  0  0  0  0  0  0  0
    2.1117   -0.9206   -1.4005 C   0  0  0  0  0  0  0  0  0  0  0  0
    3.0158   -1.4373   -2.3108 C   0  0  0  0  0  0  0  0  0  0  0  0
    2.5831   -1.6383   -3.6250 C   0  0  0  0  0  0  0  0  0  0  0  0
    1.2696   -1.3204   -4.0073 C   0  0  0  0  0  0  0  0  0  0  0  0
    0.3661   -0.7990   -3.0801 C   0  0  0  0  0  0  0  0  0  0  0  0
    0.7977   -0.6115   -1.7742 C   0  0  0  0  0  0  0  0  0  0  0  0
    0.0597   -0.0863   -0.5825 C   0  0  0  0  0  0  0  0  0  0  0  0
   -0.5721    1.2531   -0.7713 N   0  0  0  0  0  0  0  0  0  0  0  0
   -1.9447    1.2457   -0.1503 C   0  0  2  0  0  0  0  0  0  0  0  0
   -2.0252    1.9674    1.2107 C   0  0  0  0  0  0  0  0  0  0  0  0
   -1.6315    3.4260    1.1575 C   0  0  0  0  0  0  0  0  0  0  0  0
   -0.4309    3.8558    1.7406 C   0  0  0  0  0  0  0  0  0  0  0  0
   -0.0590    5.1997    1.6852 C   0  0  0  0  0  0  0  0  0  0  0  0
   -0.8835    6.1259    1.0498 C   0  0  0  0  0  0  0  0  0  0  0  0
   -2.0805    5.7090    0.4697 C   0  0  0  0  0  0  0  0  0  0  0  0
   -2.4540    4.3654    0.5224 C   0  0  0  0  0  0  0  0  0  0  0  0
   -2.2147   -0.2042   -0.0245 C   0  0  0  0  0  0  0  0  0  0  0  0
   -1.0814   -0.9706   -0.2857 C   0  0  0  0  0  0  0  0  0  0  0  0
   -1.4182   -2.2979   -0.1878 C   0  0  0  0  0  0  0  0  0  0  0  0
   -0.6686   -3.3865   -0.3484 O   0  0  0  0  0  0  0  0  0  0  0  0
   -2.7705   -2.3539    0.2061 N   0  0  0  0  0  0  0  0  0  0  0  0
   -3.5083   -3.5325    0.5437 C   0  0  0  0  0  0  0  0  0  0  0  0
   -4.5046   -3.4805    1.5309 C   0  0  0  0  0  0  0  0  0  0  0  0
   -5.2349   -4.6256    1.8575 C   0  0  0  0  0  0  0  0  0  0  0  0
   -4.9753   -5.8288    1.2056 C   0  0  0  0  0  0  0  0  0  0  0  0
   -3.9779   -5.8919    0.2345 C   0  0  0  0  0  0  0  0  0  0  0  0
   -3.2405   -4.7506   -0.0925 C   0  0  0  0  0  0  0  0  0  0  0  0
   -3.2709   -1.0353    0.2215 C   0  0  0  0  0  0  0  0  0  0  0  0
   -4.5505   -0.7041    0.3891 O   0  0  0  0  0  0  0  0  0  0  0  0
    3.3551   -0.8090    1.7437 H   0  0  0  0  0  0  0  0  0  0  0  0
    4.0409   -1.6830    0.3867 H   0  0  0  0  0  0  0  0  0  0  0  0
    3.2154    1.8704    1.4522 H   0  0  0  0  0  0  0  0  0  0  0  0
    4.7209    3.7835    1.0618 H   0  0  0  0  0  0  0  0  0  0  0  0
    6.8608    3.4647   -0.1527 H   0  0  0  0  0  0  0  0  0  0  0  0
    7.4883    1.2156   -0.9826 H   0  0  0  0  0  0  0  0  0  0  0  0
    5.9928   -0.7088   -0.6176 H   0  0  0  0  0  0  0  0  0  0  0  0
    4.0355   -1.6795   -2.0380 H   0  0  0  0  0  0  0  0  0  0  0  0
    3.2735   -2.0368   -4.3653 H   0  0  0  0  0  0  0  0  0  0  0  0
    0.9560   -1.4751   -5.0378 H   0  0  0  0  0  0  0  0  0  0  0  0
   -0.6488   -0.5419   -3.3714 H   0  0  0  0  0  0  0  0  0  0  0  0
    0.0002    1.9622   -0.3172 H   0  0  0  0  0  0  0  0  0  0  0  0
   -2.6365    1.7029   -0.8663 H   0  0  0  0  0  0  0  0  0  0  0  0
   -1.4088    1.4484    1.9567 H   0  0  0  0  0  0  0  0  0  0  0  0
   -3.0506    1.9035    1.6001 H   0  0  0  0  0  0  0  0  0  0  0  0
    0.2212    3.1431    2.2433 H   0  0  0  0  0  0  0  0  0  0  0  0
    0.8725    5.5245    2.1415 H   0  0  0  0  0  0  0  0  0  0  0  0
   -0.5954    7.1727    1.0093 H   0  0  0  0  0  0  0  0  0  0  0  0
   -2.7249    6.4316   -0.0229 H   0  0  0  0  0  0  0  0  0  0  0  0
   -3.3919    4.0557    0.0667 H   0  0  0  0  0  0  0  0  0  0  0  0
    0.2055   -3.1045   -0.6719 H   0  0  0  0  0  0  0  0  0  0  0  0
   -4.6929   -2.5720    2.0994 H   0  0  0  0  0  0  0  0  0  0  0  0
   -5.9959   -4.5814    2.6328 H   0  0  0  0  0  0  0  0  0  0  0  0
   -5.5424   -6.7199    1.4617 H   0  0  0  0  0  0  0  0  0  0  0  0
   -3.7718   -6.8315   -0.2719 H   0  0  0  0  0  0  0  0  0  0  0  0
   -2.4860   -4.8304   -0.8705 H   0  0  0  0  0  0  0  0  0  0  0  0
   -5.1005   -1.4800    0.1774 H   0  0  0  0  0  0  0  0  0  0  0  0
  1  2  2  0
  2  3  1  0
  3  4  1  0
  4  5  1  0
  5  6  2  0
  6  7  1  0
  7  8  2  0
  8  9  1  0
  9 10  2  0
  3 11  1  0
 11 12  2  0
 12 13  1  0
 13 14  2  0
 14 15  1  0
 15 16  2  0
 16 17  1  0
 17 18  1  0
 18 19  1  0
 19 20  1  0
 20 21  1  0
 21 22  2  0
 22 23  1  0
 23 24  2  0
 24 25  1  0
 25 26  2  0
 19 27  1  0
 27 28  1  0
 28 29  2  0
 29 30  1  0
 29 31  1  0
 31 32  1  0
 32 33  2  0
 33 34  1  0
 34 35  2  0
 35 36  1  0
 36 37  2  0
 31 38  1  0
 38 39  1  0
 17  2  1  0
 26 21  1  0
 38 27  2  0
 10  5  1  0
 16 11  1  0
 28 17  1  0
 37 32  1  0
  4 40  1  0
  4 41  1  0
  6 42  1  0
  7 43  1  0
  8 44  1  0
  9 45  1  0
 10 46  1  0
 12 47  1  0
 13 48  1  0
 14 49  1  0
 15 50  1  0
 18 51  1  0
 19 52  1  6
 20 53  1  0
 20 54  1  0
 22 55  1  0
 23 56  1  0
 24 57  1  0
 25 58  1  0
 26 59  1  0
 30 60  1  0
 33 61  1  0
 34 62  1  0
 35 63  1  0
 36 64  1  0
 37 65  1  0
 39 66  1  0
M  END
$$$$
