
     RDKit          3D

 62 65  0  0  0  0  0  0  0  0999 V2000
   -7.3597    0.2318   -3.4720 C   0  0  0  0  0  0  0  0  0  0  0  0
   -6.7516   -0.9679   -3.0134 O   0  0  0  0  0  0  0  0  0  0  0  0
   -6.5564   -0.9857   -1.6022 C   0  0  0  0  0  0  0  0  0  0  0  0
   -5.1727   -0.5067   -1.2949 C   0  0  0  0  0  0  0  0  0  0  0  0
   -4.2527   -1.2353   -0.6409 C   0  0  0  0  0  0  0  0  0  0  0  0
   -2.9036   -0.7792   -0.3461 C   0  0  0  0  0  0  0  0  0  0  0  0
   -2.0979   -0.4429   -1.3821 C   0  0  0  0  0  0  0  0  0  0  0  0
   -0.7170   -0.0325   -1.1266 C   0  0  0  0  0  0  0  0  0  0  0  0
    0.0941    0.2715   -2.1492 C   0  0  0  0  0  0  0  0  0  0  0  0
    1.5097    0.6461   -1.9187 C   0  0  0  0  0  0  0  0  0  0  0  0
    2.2783    0.5690   -2.8774 O   0  0  0  0  0  0  0  0  0  0  0  0
    1.9299    1.1266   -0.5223 C   0  0  0  0  0  0  0  0  0  0  0  0
    1.6201    2.6227   -0.3527 C   0  0  0  0  0  0  0  0  0  0  0  0
    3.3166    0.8054   -0.2830 O   0  0  0  0  0  0  0  0  0  0  0  0
    4.2973    1.4877   -0.9184 C   0  0  0  0  0  0  0  0  0  0  0  0
    4.1629    2.4949   -1.5951 O   0  0  0  0  0  0  0  0  0  0  0  0
    5.6119    0.8412   -0.6792 C   0  0  0  0  0  0  0  0  0  0  0  0
    6.7376    1.3764   -1.2781 C   0  0  0  0  0  0  0  0  0  0  0  0
    7.9735    0.8445   -1.1075 N   0  0  0  0  0  0  0  0  0  0  0  0
    8.0516   -0.2463   -0.3191 C   0  0  0  0  0  0  0  0  0  0  0  0
    9.2845   -0.8476   -0.0989 C   0  0  0  0  0  0  0  0  0  0  0  0
    9.4072   -1.9781    0.7104 C   0  0  0  0  0  0  0  0  0  0  0  0
    8.2773   -2.5174    1.3116 C   0  0  0  0  0  0  0  0  0  0  0  0
    7.0327   -1.9225    1.0986 C   0  0  0  0  0  0  0  0  0  0  0  0
    6.8966   -0.7979    0.2949 C   0  0  0  0  0  0  0  0  0  0  0  0
    5.6764   -0.2578    0.1173 N   0  0  0  0  0  0  0  0  0  0  0  0
    1.1517    0.4068    0.5826 C   0  0  0  0  0  0  0  0  0  0  0  0
    1.5947    0.2427    1.7210 O   0  0  0  0  0  0  0  0  0  0  0  0
   -0.2366   -0.0184    0.2479 C   0  0  0  0  0  0  0  0  0  0  0  0
   -1.0977   -0.3666    1.2200 C   0  0  0  0  0  0  0  0  0  0  0  0
   -2.4343   -0.7414    0.9926 N   0  0  0  0  0  0  0  0  0  0  0  0
   -3.2955   -1.0372    2.1601 C   0  0  0  0  0  0  0  0  0  0  0  0
   -3.7203    0.2425    2.9094 C   0  0  0  0  0  0  0  0  0  0  0  0
   -4.6386    1.1330    2.0714 C   0  0  0  0  0  0  0  0  0  0  0  0
   -4.4222   -0.1340    4.2169 C   0  0  0  0  0  0  0  0  0  0  0  0
   -6.7508    1.1031   -3.2127 H   0  0  0  0  0  0  0  0  0  0  0  0
   -8.3638    0.3347   -3.0497 H   0  0  0  0  0  0  0  0  0  0  0  0
   -7.4455    0.1786   -4.5607 H   0  0  0  0  0  0  0  0  0  0  0  0
   -6.6921   -2.0204   -1.2711 H   0  0  0  0  0  0  0  0  0  0  0  0
   -7.3040   -0.3736   -1.0845 H   0  0  0  0  0  0  0  0  0  0  0  0
   -4.9273    0.4991   -1.6254 H   0  0  0  0  0  0  0  0  0  0  0  0
   -4.4926   -2.2392   -0.2980 H   0  0  0  0  0  0  0  0  0  0  0  0
   -2.4490   -0.4991   -2.4088 H   0  0  0  0  0  0  0  0  0  0  0  0
   -0.2137    0.2168   -3.1874 H   0  0  0  0  0  0  0  0  0  0  0  0
    0.5523    2.8030   -0.1828 H   0  0  0  0  0  0  0  0  0  0  0  0
    2.1720    3.0446    0.4950 H   0  0  0  0  0  0  0  0  0  0  0  0
    1.8873    3.1996   -1.2444 H   0  0  0  0  0  0  0  0  0  0  0  0
    6.6871    2.2517   -1.9177 H   0  0  0  0  0  0  0  0  0  0  0  0
   10.1686   -0.4244   -0.5699 H   0  0  0  0  0  0  0  0  0  0  0  0
   10.3826   -2.4319    0.8672 H   0  0  0  0  0  0  0  0  0  0  0  0
    8.3585   -3.3976    1.9444 H   0  0  0  0  0  0  0  0  0  0  0  0
    6.1473   -2.3438    1.5696 H   0  0  0  0  0  0  0  0  0  0  0  0
   -0.8026   -0.3684    2.2672 H   0  0  0  0  0  0  0  0  0  0  0  0
   -4.1814   -1.6188    1.8829 H   0  0  0  0  0  0  0  0  0  0  0  0
   -2.7320   -1.6868    2.8437 H   0  0  0  0  0  0  0  0  0  0  0  0
   -2.8284    0.8269    3.1678 H   0  0  0  0  0  0  0  0  0  0  0  0
   -5.5375    0.5928    1.7563 H   0  0  0  0  0  0  0  0  0  0  0  0
   -4.1264    1.5025    1.1780 H   0  0  0  0  0  0  0  0  0  0  0  0
   -4.9583    2.0090    2.6463 H   0  0  0  0  0  0  0  0  0  0  0  0
   -4.6991    0.7621    4.7824 H   0  0  0  0  0  0  0  0  0  0  0  0
   -3.7651   -0.7378    4.8516 H   0  0  0  0  0  0  0  0  0  0  0  0
   -5.3340   -0.7102    4.0269 H   0  0  0  0  0  0  0  0  0  0  0  0
  1  2  1  0
  2  3  1  0
  3  4  1  0
  4  5  2  3
  5  6  1  0
  6  7  2  0
  7  8  1  0
  8  9  2  0
  9 10  1  0
 10 11  2  0
 10 12  1  0
 12 13  1  0
 12 14  1  0
 14 15  1  0
 15 16  2  0
 15 17  1  0
 17 18  2  0
 18 19  1  0
 19 20  2  0
 20 21  1  0
 21 22  2  0
 22 23  1  0
 23 24  2  0
 24 25  1  0
 25 26  2  0
 12 27  1  0
 27 28  2  0
 27 29  1  0
 29 30  2  0
 30 31  1  0
 31 32  1  0
 32 33  1  0
 33 34  1  0
 33 35  1  0
 31  6  1  0
 29  8  1  0
 26 17  1  0
 25 20  1  0
  1 36  1  0
  1 37  1  0
  1 38  1  0
  3 39  1  0
  3 40  1  0
  4 41  1  0
  5 42  1  0
  7 43  1  0
  9 44  1  0
 13 45  1  0
 13 46  1  0
 13 47  1  0
 18 48  1  0
 21 49  1  0
 22 50  1  0
 23 51  1  0
 24 52  1  0
 30 53  1  0
 32 54  1  0
 32 55  1  0
 33 56  1  0
 34 57  1  0
 34 58  1  0
 34 59  1  0
 35 60  1  0
 35 61  1  0
 35 62  1  0
M  END
$$$$
