
     RDKit          3D

 36 38  0  0  0  0  0  0  0  0999 V2000
    4.9371    1.0148    1.8834 C   0  0  0  0  0  0  0  0  0  0  0  0
    5.0546    0.2324    0.6692 N   0  0  0  0  0  0  0  0  0  0  0  0
    6.2535   -0.2202    0.1750 C   0  0  0  0  0  0  0  0  0  0  0  0
    6.0021   -0.9385   -0.9694 C   0  0  0  0  0  0  0  0  0  0  0  0
    4.6035   -0.9201   -1.1737 C   0  0  0  0  0  0  0  0  0  0  0  0
    4.0217   -0.1976   -0.1447 C   0  0  0  0  0  0  0  0  0  0  0  0
    2.6800    0.1648    0.1556 C   0  0  0  0  0  0  0  0  0  0  0  0
    1.6133   -0.6318   -0.0024 C   0  0  0  0  0  0  0  0  0  0  0  0
    1.5317   -2.2691   -0.5431 S   0  0  0  0  0  0  0  0  0  0  0  0
   -0.2190   -2.3536   -0.3763 C   0  0  0  0  0  0  0  0  0  0  0  0
   -1.1084   -3.7289   -0.6936 S   0  0  0  0  0  0  0  0  0  0  0  0
   -0.6715   -1.1363    0.0862 N   0  0  0  0  0  0  0  0  0  0  0  0
   -2.0395   -0.8556    0.2669 N   0  0  0  0  0  0  0  0  0  0  0  0
   -2.6883   -0.2790   -0.8129 C   0  0  0  0  0  0  0  0  0  0  0  0
   -2.1918   -0.1832   -1.9306 O   0  0  0  0  0  0  0  0  0  0  0  0
   -4.0422    0.2756   -0.5396 C   0  0  0  0  0  0  0  0  0  0  0  0
   -4.5072    1.3244   -1.3469 C   0  0  0  0  0  0  0  0  0  0  0  0
   -5.7718    1.8727   -1.1243 C   0  0  0  0  0  0  0  0  0  0  0  0
   -6.5683    1.3647   -0.1046 C   0  0  0  0  0  0  0  0  0  0  0  0
   -7.7818    1.8889    0.1084 F   0  0  0  0  0  0  0  0  0  0  0  0
   -6.1275    0.3143    0.6941 C   0  0  0  0  0  0  0  0  0  0  0  0
   -4.8622   -0.2376    0.4770 C   0  0  0  0  0  0  0  0  0  0  0  0
    0.2518   -0.1425    0.3554 C   0  0  0  0  0  0  0  0  0  0  0  0
    0.0105    0.9482    0.8580 O   0  0  0  0  0  0  0  0  0  0  0  0
    5.9116    1.0760    2.3751 H   0  0  0  0  0  0  0  0  0  0  0  0
    4.2244    0.5229    2.5502 H   0  0  0  0  0  0  0  0  0  0  0  0
    4.5961    2.0176    1.6144 H   0  0  0  0  0  0  0  0  0  0  0  0
    7.1879    0.0047    0.6727 H   0  0  0  0  0  0  0  0  0  0  0  0
    6.7444   -1.4188   -1.5935 H   0  0  0  0  0  0  0  0  0  0  0  0
    4.0798   -1.3805   -2.0019 H   0  0  0  0  0  0  0  0  0  0  0  0
    2.5133    1.1685    0.5456 H   0  0  0  0  0  0  0  0  0  0  0  0
   -2.2874   -0.5467    1.2015 H   0  0  0  0  0  0  0  0  0  0  0  0
   -3.8844    1.7171   -2.1491 H   0  0  0  0  0  0  0  0  0  0  0  0
   -6.1396    2.6869   -1.7412 H   0  0  0  0  0  0  0  0  0  0  0  0
   -6.7778   -0.0736    1.4726 H   0  0  0  0  0  0  0  0  0  0  0  0
   -4.5490   -1.0808    1.0866 H   0  0  0  0  0  0  0  0  0  0  0  0
  1  2  1  0
  2  3  1  0
  3  4  2  0
  4  5  1  0
  5  6  2  0
  6  7  1  0
  7  8  2  3
  8  9  1  0
  9 10  1  0
 10 11  2  0
 10 12  1  0
 12 13  1  0
 13 14  1  0
 14 15  2  0
 14 16  1  0
 16 17  2  0
 17 18  1  0
 18 19  2  0
 19 20  1  0
 19 21  1  0
 21 22  2  0
 12 23  1  0
 23 24  2  0
  6  2  1  0
 23  8  1  0
 22 16  1  0
  1 25  1  0
  1 26  1  0
  1 27  1  0
  3 28  1  0
  4 29  1  0
  5 30  1  0
  7 31  1  0
 13 32  1  0
 17 33  1  0
 18 34  1  0
 21 35  1  0
 22 36  1  0
M  END
$$$$
