
     RDKit          3D

 53 55  0  0  0  0  0  0  0  0999 V2000
   -8.1485    0.3130   -2.2857 C   0  0  0  0  0  0  0  0  0  0  0  0
   -7.1550    1.2936   -2.5485 O   0  0  0  0  0  0  0  0  0  0  0  0
   -5.9775    1.2117   -1.8480 C   0  0  0  0  0  0  0  0  0  0  0  0
   -5.6542    0.1790   -0.9641 C   0  0  0  0  0  0  0  0  0  0  0  0
   -4.4257    0.1767   -0.2956 C   0  0  0  0  0  0  0  0  0  0  0  0
   -3.5050    1.2099   -0.4930 C   0  0  0  0  0  0  0  0  0  0  0  0
   -2.1888    1.2217    0.1628 C   0  0  0  0  0  0  0  0  0  0  0  0
   -1.9822    0.8052    1.4221 C   0  0  0  0  0  0  0  0  0  0  0  0
   -0.6588    0.8614    2.1006 C   0  0  0  0  0  0  0  0  0  0  0  0
   -0.6282    1.1202    3.2969 O   0  0  0  0  0  0  0  0  0  0  0  0
    0.4021    0.5308    1.2864 N   0  0  0  0  0  0  0  0  0  0  0  0
    1.7710    0.5288    1.6258 C   0  0  0  0  0  0  0  0  0  0  0  0
    2.2714    0.9730    2.8527 C   0  0  0  0  0  0  0  0  0  0  0  0
    3.6478    0.9724    3.1064 C   0  0  0  0  0  0  0  0  0  0  0  0
    4.5390    0.5156    2.1394 C   0  0  0  0  0  0  0  0  0  0  0  0
    4.0420    0.0404    0.9251 C   0  0  0  0  0  0  0  0  0  0  0  0
    5.1707   -0.5172   -0.3346 S   0  0  0  0  0  6  0  0  0  0  0  0
    6.4407    0.1345   -0.0963 O   0  0  0  0  0  0  0  0  0  0  0  0
    4.4882   -0.3913   -1.6058 O   0  0  0  0  0  0  0  0  0  0  0  0
    5.3562   -2.1555   -0.0083 N   0  0  0  0  0  0  0  0  0  0  0  0
    6.1213   -2.5826    1.1780 C   0  0  0  0  0  0  0  0  0  0  0  0
    5.7214   -4.0405    1.3571 C   0  0  0  0  0  0  0  0  0  0  0  0
    4.2592   -4.0300    0.9521 C   0  0  0  0  0  0  0  0  0  0  0  0
    4.2378   -3.0892   -0.2461 C   0  0  0  0  0  0  0  0  0  0  0  0
    2.6681    0.0693    0.6556 C   0  0  0  0  0  0  0  0  0  0  0  0
   -3.8229    2.2373   -1.3928 C   0  0  0  0  0  0  0  0  0  0  0  0
   -5.0515    2.2501   -2.0670 C   0  0  0  0  0  0  0  0  0  0  0  0
   -5.4388    3.2229   -2.9556 O   0  0  0  0  0  0  0  0  0  0  0  0
   -4.5530    4.3108   -3.1761 C   0  0  0  0  0  0  0  0  0  0  0  0
   -9.0275    0.5563   -2.8899 H   0  0  0  0  0  0  0  0  0  0  0  0
   -7.8071   -0.6833   -2.5840 H   0  0  0  0  0  0  0  0  0  0  0  0
   -8.4536    0.3288   -1.2343 H   0  0  0  0  0  0  0  0  0  0  0  0
   -6.3330   -0.6462   -0.7774 H   0  0  0  0  0  0  0  0  0  0  0  0
   -4.2002   -0.6521    0.3711 H   0  0  0  0  0  0  0  0  0  0  0  0
   -1.3777    1.6407   -0.4278 H   0  0  0  0  0  0  0  0  0  0  0  0
   -2.7923    0.4810    2.0669 H   0  0  0  0  0  0  0  0  0  0  0  0
    0.1777    0.2170    0.3510 H   0  0  0  0  0  0  0  0  0  0  0  0
    1.6148    1.3506    3.6320 H   0  0  0  0  0  0  0  0  0  0  0  0
    4.0187    1.3421    4.0597 H   0  0  0  0  0  0  0  0  0  0  0  0
    5.6086    0.5390    2.3356 H   0  0  0  0  0  0  0  0  0  0  0  0
    7.1970   -2.4834    1.0112 H   0  0  0  0  0  0  0  0  0  0  0  0
    5.8344   -2.0092    2.0631 H   0  0  0  0  0  0  0  0  0  0  0  0
    6.2970   -4.6800    0.6776 H   0  0  0  0  0  0  0  0  0  0  0  0
    5.8769   -4.3944    2.3800 H   0  0  0  0  0  0  0  0  0  0  0  0
    3.6484   -3.6173    1.7642 H   0  0  0  0  0  0  0  0  0  0  0  0
    3.8771   -5.0250    0.7090 H   0  0  0  0  0  0  0  0  0  0  0  0
    4.4357   -3.6367   -1.1740 H   0  0  0  0  0  0  0  0  0  0  0  0
    3.2673   -2.5970   -0.3364 H   0  0  0  0  0  0  0  0  0  0  0  0
    2.3073   -0.2635   -0.3146 H   0  0  0  0  0  0  0  0  0  0  0  0
   -3.0985    3.0296   -1.5497 H   0  0  0  0  0  0  0  0  0  0  0  0
   -5.0295    4.9905   -3.8890 H   0  0  0  0  0  0  0  0  0  0  0  0
   -4.3753    4.8705   -2.2518 H   0  0  0  0  0  0  0  0  0  0  0  0
   -3.6126    3.9702   -3.6207 H   0  0  0  0  0  0  0  0  0  0  0  0
  1  2  1  0
  2  3  1  0
  3  4  2  0
  4  5  1  0
  5  6  2  0
  6  7  1  0
  7  8  2  3
  8  9  1  0
  9 10  2  0
  9 11  1  0
 11 12  1  0
 12 13  2  0
 13 14  1  0
 14 15  2  0
 15 16  1  0
 16 17  1  0
 17 18  2  0
 17 19  2  0
 17 20  1  0
 20 21  1  0
 21 22  1  0
 22 23  1  0
 23 24  1  0
 16 25  2  0
  6 26  1  0
 26 27  2  0
 27 28  1  0
 28 29  1  0
 27  3  1  0
 25 12  1  0
 24 20  1  0
  1 30  1  0
  1 31  1  0
  1 32  1  0
  4 33  1  0
  5 34  1  0
  7 35  1  0
  8 36  1  0
 11 37  1  0
 13 38  1  0
 14 39  1  0
 15 40  1  0
 21 41  1  0
 21 42  1  0
 22 43  1  0
 22 44  1  0
 23 45  1  0
 23 46  1  0
 24 47  1  0
 24 48  1  0
 25 49  1  0
 26 50  1  0
 29 51  1  0
 29 52  1  0
 29 53  1  0
M  END
$$$$
