
     RDKit          3D

 45 46  0  0  0  0  0  0  0  0999 V2000
    2.1214   -2.8452    1.7631 C   0  0  0  0  0  0  0  0  0  0  0  0
    3.1241   -1.7633    2.1226 C   0  0  0  0  0  0  0  0  0  0  0  0
    2.7919   -0.4869    1.5155 N   0  0  0  0  0  0  0  0  0  0  0  0
    3.2441   -0.2265    0.2738 N   0  0  0  0  0  0  0  0  0  0  0  0
    2.7886    0.9985    0.0168 C   0  0  0  0  0  0  0  0  0  0  0  0
    2.0132    1.5239    1.0719 C   0  0  0  0  0  0  0  0  0  0  0  0
    1.3631    2.8096    1.1824 C   0  0  0  0  0  0  0  0  0  0  0  0
    0.6785    3.4061    0.2536 N   0  0  0  0  0  0  0  0  0  0  0  0
    0.4250    2.7495   -0.9136 N   0  0  0  0  0  0  0  0  0  0  0  0
   -0.4051    3.3190   -1.8688 C   0  0  0  0  0  0  0  0  0  0  0  0
   -0.8630    4.4590   -1.8338 O   0  0  0  0  0  0  0  0  0  0  0  0
   -0.6877    2.3799   -3.0461 C   0  0  0  0  0  0  0  0  0  0  0  0
   -0.3747    1.0075   -2.8377 O   0  0  0  0  0  0  0  0  0  0  0  0
   -1.2085    0.2524   -2.0596 C   0  0  0  0  0  0  0  0  0  0  0  0
   -0.7556   -1.0506   -1.8340 C   0  0  0  0  0  0  0  0  0  0  0  0
   -1.4840   -1.9386   -1.0362 C   0  0  0  0  0  0  0  0  0  0  0  0
   -0.9855   -3.3299   -0.7849 C   0  0  0  0  0  0  0  0  0  0  0  0
   -2.6762   -1.5010   -0.4496 C   0  0  0  0  0  0  0  0  0  0  0  0
   -3.1363   -0.1941   -0.6559 C   0  0  0  0  0  0  0  0  0  0  0  0
   -4.4281    0.2657   -0.0458 C   0  0  0  0  0  0  0  0  0  0  0  0
   -2.4013    0.6764   -1.4753 C   0  0  0  0  0  0  0  0  0  0  0  0
    2.0491    0.5407    2.0486 C   0  0  0  0  0  0  0  0  0  0  0  0
    1.4417    0.5038    3.4054 C   0  0  0  0  0  0  0  0  0  0  0  0
    2.3923   -3.7897    2.2452 H   0  0  0  0  0  0  0  0  0  0  0  0
    1.1109   -2.5728    2.0835 H   0  0  0  0  0  0  0  0  0  0  0  0
    2.0951   -3.0076    0.6812 H   0  0  0  0  0  0  0  0  0  0  0  0
    3.1789   -1.6223    3.2070 H   0  0  0  0  0  0  0  0  0  0  0  0
    4.1285   -2.0405    1.7796 H   0  0  0  0  0  0  0  0  0  0  0  0
    3.0419    1.4619   -0.9292 H   0  0  0  0  0  0  0  0  0  0  0  0
    1.4543    3.3214    2.1553 H   0  0  0  0  0  0  0  0  0  0  0  0
    0.5830    1.7459   -0.9686 H   0  0  0  0  0  0  0  0  0  0  0  0
   -1.7220    2.5055   -3.3889 H   0  0  0  0  0  0  0  0  0  0  0  0
   -0.0411    2.7217   -3.8649 H   0  0  0  0  0  0  0  0  0  0  0  0
    0.1814   -1.3697   -2.2860 H   0  0  0  0  0  0  0  0  0  0  0  0
   -1.7729   -4.0608   -0.9898 H   0  0  0  0  0  0  0  0  0  0  0  0
   -0.1357   -3.5715   -1.4299 H   0  0  0  0  0  0  0  0  0  0  0  0
   -0.6648   -3.4303    0.2563 H   0  0  0  0  0  0  0  0  0  0  0  0
   -3.2481   -2.1836    0.1770 H   0  0  0  0  0  0  0  0  0  0  0  0
   -5.2249    0.2435   -0.7958 H   0  0  0  0  0  0  0  0  0  0  0  0
   -4.3274    1.2854    0.3427 H   0  0  0  0  0  0  0  0  0  0  0  0
   -4.7208   -0.3749    0.7932 H   0  0  0  0  0  0  0  0  0  0  0  0
   -2.7871    1.6795   -1.6289 H   0  0  0  0  0  0  0  0  0  0  0  0
    1.1527   -0.5107    3.7003 H   0  0  0  0  0  0  0  0  0  0  0  0
    2.1524    0.8911    4.1456 H   0  0  0  0  0  0  0  0  0  0  0  0
    0.5386    1.1225    3.4440 H   0  0  0  0  0  0  0  0  0  0  0  0
  1  2  1  0
  2  3  1  0
  3  4  1  0
  4  5  2  0
  5  6  1  0
  6  7  1  0
  7  8  2  3
  8  9  1  0
  9 10  1  0
 10 11  2  0
 10 12  1  0
 12 13  1  0
 13 14  1  0
 14 15  2  0
 15 16  1  0
 16 17  1  0
 16 18  2  0
 18 19  1  0
 19 20  1  0
 19 21  2  0
  6 22  2  0
 22 23  1  0
 22  3  1  0
 21 14  1  0
  1 24  1  0
  1 25  1  0
  1 26  1  0
  2 27  1  0
  2 28  1  0
  5 29  1  0
  7 30  1  0
  9 31  1  0
 12 32  1  0
 12 33  1  0
 15 34  1  0
 17 35  1  0
 17 36  1  0
 17 37  1  0
 18 38  1  0
 20 39  1  0
 20 40  1  0
 20 41  1  0
 21 42  1  0
 23 43  1  0
 23 44  1  0
 23 45  1  0
M  END
$$$$
