
     RDKit          3D

 42 44  0  0  0  0  0  0  0  0999 V2000
   -6.5146   -1.1032    1.1433 C   0  0  0  0  0  0  0  0  0  0  0  0
   -5.2128   -0.5625    0.6288 C   0  0  0  0  0  0  0  0  0  0  0  0
   -4.6473   -1.0748   -0.5435 C   0  0  0  0  0  0  0  0  0  0  0  0
   -3.4149   -0.6010   -1.0217 C   0  0  0  0  0  0  0  0  0  0  0  0
   -2.8503   -1.1849   -2.2903 C   0  0  0  0  0  0  0  0  0  0  0  0
   -2.7365    0.4065   -0.3010 C   0  0  0  0  0  0  0  0  0  0  0  0
   -1.4686    0.9206   -0.7950 C   0  0  0  0  0  0  0  0  0  0  0  0
   -1.3740    2.0532   -1.5783 C   0  0  0  0  0  0  0  0  0  0  0  0
    0.2714    2.3393   -1.9604 S   0  0  0  0  0  0  0  0  0  0  0  0
    0.7116    0.9503   -1.0780 C   0  0  0  0  0  0  0  0  0  0  0  0
    2.0075    0.5286   -0.9342 N   0  0  0  0  0  0  0  0  0  0  0  0
    3.1237    1.0806   -1.5038 C   0  0  0  0  0  0  0  0  0  0  0  0
    3.1910    2.0079   -2.2994 O   0  0  0  0  0  0  0  0  0  0  0  0
    4.3840    0.3839   -1.1296 C   0  0  0  0  0  0  0  0  0  0  0  0
    4.6562    0.0186    0.1331 C   0  0  0  0  0  0  0  0  0  0  0  0
    5.8707   -0.6166    0.5393 C   0  0  0  0  0  0  0  0  0  0  0  0
    6.3044   -0.8112    1.8430 C   0  0  0  0  0  0  0  0  0  0  0  0
    7.5546   -1.4891    1.9311 C   0  0  0  0  0  0  0  0  0  0  0  0
    8.0502   -1.8074    0.6897 C   0  0  0  0  0  0  0  0  0  0  0  0
    7.0122   -1.2940   -0.5627 S   0  0  0  0  0  0  0  0  0  0  0  0
   -0.2710    0.2923   -0.5089 N   0  0  0  0  0  0  0  0  0  0  0  0
   -3.2828    0.9076    0.9011 C   0  0  0  0  0  0  0  0  0  0  0  0
   -2.5778    1.9595    1.7166 C   0  0  0  0  0  0  0  0  0  0  0  0
   -4.5192    0.4153    1.3496 C   0  0  0  0  0  0  0  0  0  0  0  0
   -7.0714   -0.3307    1.6841 H   0  0  0  0  0  0  0  0  0  0  0  0
   -7.1501   -1.4433    0.3191 H   0  0  0  0  0  0  0  0  0  0  0  0
   -6.3296   -1.9448    1.8178 H   0  0  0  0  0  0  0  0  0  0  0  0
   -5.1736   -1.8547   -1.0914 H   0  0  0  0  0  0  0  0  0  0  0  0
   -2.7553   -0.4108   -3.0584 H   0  0  0  0  0  0  0  0  0  0  0  0
   -1.8722   -1.6387   -2.1012 H   0  0  0  0  0  0  0  0  0  0  0  0
   -3.4998   -1.9688   -2.6945 H   0  0  0  0  0  0  0  0  0  0  0  0
   -2.1622    2.7030   -1.9306 H   0  0  0  0  0  0  0  0  0  0  0  0
    2.0821   -0.3133   -0.3820 H   0  0  0  0  0  0  0  0  0  0  0  0
    5.0853    0.2801   -1.9500 H   0  0  0  0  0  0  0  0  0  0  0  0
    3.9426    0.2394    0.9241 H   0  0  0  0  0  0  0  0  0  0  0  0
    5.7461   -0.4734    2.7085 H   0  0  0  0  0  0  0  0  0  0  0  0
    8.0620   -1.7297    2.8574 H   0  0  0  0  0  0  0  0  0  0  0  0
    8.9734   -2.3197    0.4560 H   0  0  0  0  0  0  0  0  0  0  0  0
   -1.5613    1.6373    1.9654 H   0  0  0  0  0  0  0  0  0  0  0  0
   -3.0965    2.1467    2.6631 H   0  0  0  0  0  0  0  0  0  0  0  0
   -2.5404    2.9058    1.1678 H   0  0  0  0  0  0  0  0  0  0  0  0
   -4.9466    0.7962    2.2759 H   0  0  0  0  0  0  0  0  0  0  0  0
  1  2  1  0
  2  3  2  0
  3  4  1  0
  4  5  1  0
  4  6  2  0
  6  7  1  0
  7  8  2  0
  8  9  1  0
  9 10  1  0
 10 11  1  0
 11 12  1  0
 12 13  2  0
 12 14  1  0
 14 15  2  3
 15 16  1  0
 16 17  2  0
 17 18  1  0
 18 19  2  0
 19 20  1  0
 10 21  2  0
  6 22  1  0
 22 23  1  0
 22 24  2  0
 24  2  1  0
 21  7  1  0
 20 16  1  0
  1 25  1  0
  1 26  1  0
  1 27  1  0
  3 28  1  0
  5 29  1  0
  5 30  1  0
  5 31  1  0
  8 32  1  0
 11 33  1  0
 14 34  1  0
 15 35  1  0
 17 36  1  0
 18 37  1  0
 19 38  1  0
 23 39  1  0
 23 40  1  0
 23 41  1  0
 24 42  1  0
M  END
$$$$
