
     RDKit          3D

 55 58  0  0  0  0  0  0  0  0999 V2000
   -4.6346    2.4844   -1.2198 C   0  0  0  0  0  0  0  0  0  0  0  0
   -4.5089    1.2116   -2.0449 C   0  0  0  0  0  0  0  0  0  0  0  0
   -4.9075    0.0359   -1.2624 N   0  0  0  0  0  0  0  0  0  0  0  0
   -6.2040   -0.4521   -1.2263 C   0  0  0  0  0  0  0  0  0  0  0  0
   -6.6391   -1.4997   -0.5047 C   0  0  0  0  0  0  0  0  0  0  0  0
   -8.0489   -1.9345   -0.5454 C   0  0  0  0  0  0  0  0  0  0  0  0
   -8.5533   -2.8600    0.0622 O   0  0  0  0  0  0  0  0  0  0  0  0
   -8.8160   -1.1836   -1.3631 O   0  0  0  0  0  0  0  0  0  0  0  0
   -5.6185   -2.1857    0.3323 C   0  0  0  0  0  0  0  0  0  0  0  0
   -5.8652   -3.1666    1.0237 O   0  0  0  0  0  0  0  0  0  0  0  0
   -4.2506   -1.6464    0.3237 C   0  0  0  0  0  0  0  0  0  0  0  0
   -3.2524   -2.1936    1.0876 C   0  0  0  0  0  0  0  0  0  0  0  0
   -1.9929   -1.7140    1.1026 N   0  0  0  0  0  0  0  0  0  0  0  0
   -1.7222   -0.6487    0.3327 C   0  0  0  0  0  0  0  0  0  0  0  0
   -0.4373   -0.1499    0.3196 N   0  0  0  0  0  0  0  0  0  0  0  0
    0.5246   -0.7005    1.2695 C   0  0  0  0  0  0  0  0  0  0  0  0
    1.9515   -0.2515    0.9050 C   0  0  0  0  0  0  0  0  0  0  0  0
    2.1089    1.2141    0.8065 N   0  0  0  0  0  0  0  0  0  0  0  0
    3.3246    1.8619    1.1199 C   0  0  0  0  0  0  0  0  0  0  0  0
    3.4229    3.4700    1.5882 S   0  0  0  0  0  0  0  0  0  0  0  0
    4.4269    1.0102    0.9771 N   0  0  0  0  0  0  0  0  0  0  0  0
    5.7709    1.2234    1.2856 C   0  0  0  0  0  0  0  0  0  0  0  0
    6.2177    2.0557    2.0638 O   0  0  0  0  0  0  0  0  0  0  0  0
    6.7237    0.2855    0.6307 C   0  0  0  0  0  0  0  0  0  0  0  0
    7.9675    0.7838    0.2247 C   0  0  0  0  0  0  0  0  0  0  0  0
    8.8894   -0.0587   -0.3981 C   0  0  0  0  0  0  0  0  0  0  0  0
    8.5754   -1.4011   -0.6081 C   0  0  0  0  0  0  0  0  0  0  0  0
    7.3454   -1.9074   -0.1866 C   0  0  0  0  0  0  0  0  0  0  0  0
    6.4189   -1.0687    0.4376 C   0  0  0  0  0  0  0  0  0  0  0  0
    0.8440    1.9628    0.6424 C   0  0  0  0  0  0  0  0  0  0  0  0
   -0.2191    1.2089   -0.1805 C   0  0  0  0  0  0  0  0  0  0  0  0
   -2.6512   -0.0659   -0.4455 N   0  0  0  0  0  0  0  0  0  0  0  0
   -3.9093   -0.5575   -0.4537 C   0  0  0  0  0  0  0  0  0  0  0  0
   -3.9800    2.4616   -0.3430 H   0  0  0  0  0  0  0  0  0  0  0  0
   -5.6617    2.6240   -0.8665 H   0  0  0  0  0  0  0  0  0  0  0  0
   -4.3617    3.3552   -1.8241 H   0  0  0  0  0  0  0  0  0  0  0  0
   -5.1561    1.3000   -2.9271 H   0  0  0  0  0  0  0  0  0  0  0  0
   -3.4915    1.1126   -2.4428 H   0  0  0  0  0  0  0  0  0  0  0  0
   -6.8819    0.1107   -1.8648 H   0  0  0  0  0  0  0  0  0  0  0  0
   -9.7018   -1.5971   -1.2748 H   0  0  0  0  0  0  0  0  0  0  0  0
   -3.4304   -3.0528    1.7284 H   0  0  0  0  0  0  0  0  0  0  0  0
    0.5103   -1.7973    1.2593 H   0  0  0  0  0  0  0  0  0  0  0  0
    0.2795   -0.3650    2.2853 H   0  0  0  0  0  0  0  0  0  0  0  0
    2.6535   -0.6488    1.6460 H   0  0  0  0  0  0  0  0  0  0  0  0
    2.2256   -0.6590   -0.0757 H   0  0  0  0  0  0  0  0  0  0  0  0
    4.2634    0.3015    0.2808 H   0  0  0  0  0  0  0  0  0  0  0  0
    8.2192    1.8292    0.3947 H   0  0  0  0  0  0  0  0  0  0  0  0
    9.8541    0.3322   -0.7135 H   0  0  0  0  0  0  0  0  0  0  0  0
    9.2969   -2.0567   -1.0900 H   0  0  0  0  0  0  0  0  0  0  0  0
    7.1164   -2.9604   -0.3334 H   0  0  0  0  0  0  0  0  0  0  0  0
    5.4859   -1.4946    0.7948 H   0  0  0  0  0  0  0  0  0  0  0  0
    0.4583    2.1615    1.6504 H   0  0  0  0  0  0  0  0  0  0  0  0
    1.0403    2.9257    0.1597 H   0  0  0  0  0  0  0  0  0  0  0  0
    0.1130    1.1394   -1.2234 H   0  0  0  0  0  0  0  0  0  0  0  0
   -1.1326    1.8158   -0.1644 H   0  0  0  0  0  0  0  0  0  0  0  0
  1  2  1  0
  2  3  1  0
  3  4  1  0
  4  5  2  0
  5  6  1  0
  6  7  2  0
  6  8  1  0
  5  9  1  0
  9 10  2  0
  9 11  1  0
 11 12  2  0
 12 13  1  0
 13 14  2  0
 14 15  1  0
 15 16  1  0
 16 17  1  0
 17 18  1  0
 18 19  1  0
 19 20  2  0
 19 21  1  0
 21 22  1  0
 22 23  2  0
 22 24  1  0
 24 25  2  0
 25 26  1  0
 26 27  2  0
 27 28  1  0
 28 29  2  0
 18 30  1  0
 30 31  1  0
 14 32  1  0
 32 33  2  0
 33  3  1  0
 33 11  1  0
 31 15  1  0
 29 24  1  0
  1 34  1  0
  1 35  1  0
  1 36  1  0
  2 37  1  0
  2 38  1  0
  4 39  1  0
  8 40  1  0
 12 41  1  0
 16 42  1  0
 16 43  1  0
 17 44  1  0
 17 45  1  0
 21 46  1  0
 25 47  1  0
 26 48  1  0
 27 49  1  0
 28 50  1  0
 29 51  1  0
 30 52  1  0
 30 53  1  0
 31 54  1  0
 31 55  1  0
M  END
$$$$
