
     RDKit          3D

 68 72  0  0  0  0  0  0  0  0999 V2000
    7.7916    3.4944   -3.0733 C   0  0  0  0  0  0  0  0  0  0  0  0
    7.7501    2.8357   -1.8136 O   0  0  0  0  0  0  0  0  0  0  0  0
    6.5292    2.3908   -1.3904 C   0  0  0  0  0  0  0  0  0  0  0  0
    6.5345    1.7396   -0.1608 C   0  0  0  0  0  0  0  0  0  0  0  0
    5.3475    1.2351    0.3881 C   0  0  0  0  0  0  0  0  0  0  0  0
    4.1152    1.3580   -0.2700 C   0  0  0  0  0  0  0  0  0  0  0  0
    2.9428    0.8600    0.2702 N   0  0  0  0  0  0  0  0  0  0  0  0
    2.8122    0.5736    1.7056 C   0  0  0  0  0  0  0  0  0  0  0  0
    1.3325    0.6561    2.1495 C   0  0  0  0  0  0  0  0  0  0  0  0
    0.3860   -0.2212    1.4235 N   0  0  0  0  0  0  0  0  0  0  0  0
    0.0972   -1.4444    2.1869 C   0  0  0  0  0  0  0  0  0  0  0  0
   -1.0216   -2.2513    1.5879 C   0  0  0  0  0  0  0  0  0  0  0  0
   -0.8559   -3.3840    0.9190 N   0  0  0  0  0  0  0  0  0  0  0  0
   -2.1109   -3.8252    0.6521 C   0  0  0  0  0  0  0  0  0  0  0  0
   -3.0629   -2.9754    1.1345 C   0  0  0  0  0  0  0  0  0  0  0  0
   -4.4538   -3.2537    1.0247 C   0  0  0  0  0  0  0  0  0  0  0  0
   -5.3557   -2.5632    1.4846 O   0  0  0  0  0  0  0  0  0  0  0  0
   -4.7059   -4.4231    0.3428 N   0  0  0  0  0  0  0  0  0  0  0  0
   -3.7792   -5.3108   -0.1718 C   0  0  0  0  0  0  0  0  0  0  0  0
   -4.1821   -6.3217   -0.7472 O   0  0  0  0  0  0  0  0  0  0  0  0
   -2.4365   -4.9965    0.0026 N   0  0  0  0  0  0  0  0  0  0  0  0
   -1.3993   -5.8706   -0.5092 C   0  0  0  0  0  0  0  0  0  0  0  0
   -2.3671   -1.9275    1.6801 N   0  0  0  0  0  0  0  0  0  0  0  0
   -2.9519   -0.7481    2.2918 C   0  0  0  0  0  0  0  0  0  0  0  0
   -3.6202    0.2195    1.3095 C   0  0  0  0  0  0  0  0  0  0  0  0
   -2.6267    0.9157    0.3783 C   0  0  0  0  0  0  0  0  0  0  0  0
   -3.3118    1.9135   -0.5234 C   0  0  0  0  0  0  0  0  0  0  0  0
   -3.3629    3.2697   -0.1748 C   0  0  0  0  0  0  0  0  0  0  0  0
   -4.0082    4.1887   -1.0037 C   0  0  0  0  0  0  0  0  0  0  0  0
   -4.6108    3.7608   -2.1852 C   0  0  0  0  0  0  0  0  0  0  0  0
   -4.5701    2.4133   -2.5383 C   0  0  0  0  0  0  0  0  0  0  0  0
   -3.9251    1.4925   -1.7111 C   0  0  0  0  0  0  0  0  0  0  0  0
    0.9146   -0.5578    0.0750 C   0  0  0  0  0  0  0  0  0  0  0  0
    1.7713    0.5576   -0.5690 C   0  0  0  0  0  0  0  0  0  0  0  0
    4.1382    2.0192   -1.5078 C   0  0  0  0  0  0  0  0  0  0  0  0
    5.3218    2.5316   -2.0640 C   0  0  0  0  0  0  0  0  0  0  0  0
    7.2031    4.4179   -3.0539 H   0  0  0  0  0  0  0  0  0  0  0  0
    8.8332    3.7660   -3.2748 H   0  0  0  0  0  0  0  0  0  0  0  0
    7.4601    2.8296   -3.8781 H   0  0  0  0  0  0  0  0  0  0  0  0
    7.4696    1.6150    0.3789 H   0  0  0  0  0  0  0  0  0  0  0  0
    5.4182    0.7174    1.3398 H   0  0  0  0  0  0  0  0  0  0  0  0
    3.2143   -0.4233    1.9226 H   0  0  0  0  0  0  0  0  0  0  0  0
    3.3719    1.3057    2.3006 H   0  0  0  0  0  0  0  0  0  0  0  0
    0.9907    1.6868    1.9823 H   0  0  0  0  0  0  0  0  0  0  0  0
    1.2677    0.5043    3.2342 H   0  0  0  0  0  0  0  0  0  0  0  0
   -0.1901   -1.1914    3.2151 H   0  0  0  0  0  0  0  0  0  0  0  0
    0.9932   -2.0739    2.2718 H   0  0  0  0  0  0  0  0  0  0  0  0
   -5.6734   -4.6798    0.2277 H   0  0  0  0  0  0  0  0  0  0  0  0
   -0.6845   -6.0947    0.2886 H   0  0  0  0  0  0  0  0  0  0  0  0
   -0.8850   -5.3635   -1.3314 H   0  0  0  0  0  0  0  0  0  0  0  0
   -1.8137   -6.8115   -0.8807 H   0  0  0  0  0  0  0  0  0  0  0  0
   -3.6910   -1.1091    3.0166 H   0  0  0  0  0  0  0  0  0  0  0  0
   -2.1845   -0.2257    2.8700 H   0  0  0  0  0  0  0  0  0  0  0  0
   -4.1592    0.9776    1.8933 H   0  0  0  0  0  0  0  0  0  0  0  0
   -4.3765   -0.3006    0.7106 H   0  0  0  0  0  0  0  0  0  0  0  0
   -1.8581    1.4306    0.9663 H   0  0  0  0  0  0  0  0  0  0  0  0
   -2.1066    0.1806   -0.2464 H   0  0  0  0  0  0  0  0  0  0  0  0
   -2.8990    3.6187    0.7449 H   0  0  0  0  0  0  0  0  0  0  0  0
   -4.0420    5.2391   -0.7268 H   0  0  0  0  0  0  0  0  0  0  0  0
   -5.1144    4.4767   -2.8291 H   0  0  0  0  0  0  0  0  0  0  0  0
   -5.0426    2.0782   -3.4579 H   0  0  0  0  0  0  0  0  0  0  0  0
   -3.9045    0.4435   -1.9973 H   0  0  0  0  0  0  0  0  0  0  0  0
    0.0758   -0.7818   -0.5934 H   0  0  0  0  0  0  0  0  0  0  0  0
    1.5391   -1.4607    0.1240 H   0  0  0  0  0  0  0  0  0  0  0  0
    1.1693    1.4643   -0.7058 H   0  0  0  0  0  0  0  0  0  0  0  0
    2.0817    0.2009   -1.5591 H   0  0  0  0  0  0  0  0  0  0  0  0
    3.2174    2.1754   -2.0631 H   0  0  0  0  0  0  0  0  0  0  0  0
    5.2540    3.0369   -3.0208 H   0  0  0  0  0  0  0  0  0  0  0  0
  1  2  1  0
  2  3  1  0
  3  4  2  0
  4  5  1  0
  5  6  2  0
  6  7  1  0
  7  8  1  0
  8  9  1  0
  9 10  1  0
 10 11  1  0
 11 12  1  0
 12 13  2  0
 13 14  1  0
 14 15  2  0
 15 16  1  0
 16 17  2  0
 16 18  1  0
 18 19  1  0
 19 20  2  0
 19 21  1  0
 21 22  1  0
 15 23  1  0
 23 24  1  0
 24 25  1  0
 25 26  1  0
 26 27  1  0
 27 28  2  0
 28 29  1  0
 29 30  2  0
 30 31  1  0
 31 32  2  0
 10 33  1  0
 33 34  1  0
  6 35  1  0
 35 36  2  0
 36  3  1  0
 34  7  1  0
 23 12  1  0
 32 27  1  0
 21 14  1  0
  1 37  1  0
  1 38  1  0
  1 39  1  0
  4 40  1  0
  5 41  1  0
  8 42  1  0
  8 43  1  0
  9 44  1  0
  9 45  1  0
 11 46  1  0
 11 47  1  0
 18 48  1  0
 22 49  1  0
 22 50  1  0
 22 51  1  0
 24 52  1  0
 24 53  1  0
 25 54  1  0
 25 55  1  0
 26 56  1  0
 26 57  1  0
 28 58  1  0
 29 59  1  0
 30 60  1  0
 31 61  1  0
 32 62  1  0
 33 63  1  0
 33 64  1  0
 34 65  1  0
 34 66  1  0
 35 67  1  0
 36 68  1  0
M  END
$$$$
