
     RDKit          3D

 46 49  0  0  0  0  0  0  0  0999 V2000
   -1.4055    1.4380    2.1158 O   0  0  0  0  0  0  0  0  0  0  0  0
   -1.2208    0.5307    1.3094 C   0  0  0  0  0  0  0  0  0  0  0  0
    0.1090    0.2882    0.7858 C   0  0  0  0  0  0  0  0  0  0  0  0
    0.8907   -0.8215    1.0443 C   0  0  0  0  0  0  0  0  0  0  0  0
    2.0953   -0.6236    0.4162 N   0  0  0  0  0  0  0  0  0  0  0  0
    3.2217   -1.4947    0.3888 C   0  0  0  0  0  0  0  0  0  0  0  0
    4.3679   -1.1161   -0.3283 C   0  0  0  0  0  0  0  0  0  0  0  0
    5.4830   -1.9556   -0.3704 C   0  0  0  0  0  0  0  0  0  0  0  0
    5.4637   -3.1758    0.3011 C   0  0  0  0  0  0  0  0  0  0  0  0
    4.3302   -3.5592    1.0160 C   0  0  0  0  0  0  0  0  0  0  0  0
    3.2094   -2.7242    1.0627 C   0  0  0  0  0  0  0  0  0  0  0  0
    2.1226    0.5640   -0.2321 N   0  0  0  0  0  0  0  0  0  0  0  0
    0.9319    1.1399   -0.0001 C   0  0  0  0  0  0  0  0  0  0  0  0
    0.6352    2.4666   -0.5516 C   0  0  0  0  0  0  0  0  0  0  0  0
   -0.6570    2.8131   -0.9770 C   0  0  0  0  0  0  0  0  0  0  0  0
   -0.9139    4.0829   -1.5031 C   0  0  0  0  0  0  0  0  0  0  0  0
    0.1195    5.0053   -1.6109 C   0  0  0  0  0  0  0  0  0  0  0  0
   -0.1299    6.2197   -2.1178 F   0  0  0  0  0  0  0  0  0  0  0  0
    1.4078    4.6832   -1.2058 C   0  0  0  0  0  0  0  0  0  0  0  0
    1.6653    3.4152   -0.6793 C   0  0  0  0  0  0  0  0  0  0  0  0
   -2.2578   -0.2937    0.8554 N   0  0  0  0  0  0  0  0  0  0  0  0
   -2.0787   -1.4209   -0.0636 C   0  0  0  0  0  0  0  0  0  0  0  0
   -3.2826   -1.6124   -0.9828 C   0  0  0  0  0  0  0  0  0  0  0  0
   -4.5871   -1.6676   -0.1973 C   0  0  0  0  0  0  0  0  0  0  0  0
   -4.7283   -0.4253    0.6743 C   0  0  0  0  0  0  0  0  0  0  0  0
   -3.5211   -0.2533    1.5897 C   0  0  0  0  0  0  0  0  0  0  0  0
    0.6795   -1.7001    1.6333 H   0  0  0  0  0  0  0  0  0  0  0  0
    4.4076   -0.1675   -0.8612 H   0  0  0  0  0  0  0  0  0  0  0  0
    6.3663   -1.6540   -0.9279 H   0  0  0  0  0  0  0  0  0  0  0  0
    6.3332   -3.8275    0.2682 H   0  0  0  0  0  0  0  0  0  0  0  0
    4.3199   -4.5115    1.5409 H   0  0  0  0  0  0  0  0  0  0  0  0
    2.3522   -3.0640    1.6346 H   0  0  0  0  0  0  0  0  0  0  0  0
   -1.4784    2.1048   -0.9171 H   0  0  0  0  0  0  0  0  0  0  0  0
   -1.9124    4.3552   -1.8293 H   0  0  0  0  0  0  0  0  0  0  0  0
    2.2030    5.4152   -1.3006 H   0  0  0  0  0  0  0  0  0  0  0  0
    2.6772    3.1670   -0.3638 H   0  0  0  0  0  0  0  0  0  0  0  0
   -1.9194   -2.3164    0.5487 H   0  0  0  0  0  0  0  0  0  0  0  0
   -1.1928   -1.2807   -0.6883 H   0  0  0  0  0  0  0  0  0  0  0  0
   -3.3286   -0.7784   -1.6946 H   0  0  0  0  0  0  0  0  0  0  0  0
   -3.1595   -2.5295   -1.5694 H   0  0  0  0  0  0  0  0  0  0  0  0
   -5.4352   -1.7371   -0.8874 H   0  0  0  0  0  0  0  0  0  0  0  0
   -4.6048   -2.5665    0.4307 H   0  0  0  0  0  0  0  0  0  0  0  0
   -4.8252    0.4580    0.0306 H   0  0  0  0  0  0  0  0  0  0  0  0
   -5.6431   -0.4910    1.2733 H   0  0  0  0  0  0  0  0  0  0  0  0
   -3.6227    0.6844    2.1457 H   0  0  0  0  0  0  0  0  0  0  0  0
   -3.4873   -1.0634    2.3285 H   0  0  0  0  0  0  0  0  0  0  0  0
  1  2  2  0
  2  3  1  0
  3  4  2  0
  4  5  1  0
  5  6  1  0
  6  7  2  0
  7  8  1  0
  8  9  2  0
  9 10  1  0
 10 11  2  0
  5 12  1  0
 12 13  2  0
 13 14  1  0
 14 15  2  0
 15 16  1  0
 16 17  2  0
 17 18  1  0
 17 19  1  0
 19 20  2  0
  2 21  1  0
 21 22  1  0
 22 23  1  0
 23 24  1  0
 24 25  1  0
 25 26  1  0
 13  3  1  0
 20 14  1  0
 26 21  1  0
 11  6  1  0
  4 27  1  0
  7 28  1  0
  8 29  1  0
  9 30  1  0
 10 31  1  0
 11 32  1  0
 15 33  1  0
 16 34  1  0
 19 35  1  0
 20 36  1  0
 22 37  1  0
 22 38  1  0
 23 39  1  0
 23 40  1  0
 24 41  1  0
 24 42  1  0
 25 43  1  0
 25 44  1  0
 26 45  1  0
 26 46  1  0
M  END
$$$$
