
     RDKit          3D

 50 53  0  0  0  0  0  0  0  0999 V2000
   -6.3218   -2.5368    2.2088 C   0  0  0  0  0  0  0  0  0  0  0  0
   -6.3645   -2.0350    0.8247 C   0  0  0  0  0  0  0  0  0  0  0  0
   -6.2426   -0.7946    0.2486 C   0  0  0  0  0  0  0  0  0  0  0  0
   -6.3892   -1.0341   -1.1318 C   0  0  0  0  0  0  0  0  0  0  0  0
   -6.3512   -0.1420   -2.1856 N   0  0  0  0  0  0  0  0  0  0  0  0
   -5.7959    1.4216   -2.1174 S   0  0  0  0  0  6  0  0  0  0  0  0
   -5.8674    1.9508   -3.4627 O   0  0  0  0  0  0  0  0  0  0  0  0
   -6.4254    2.1008   -1.0055 O   0  0  0  0  0  0  0  0  0  0  0  0
   -4.0720    1.2066   -1.7396 C   0  0  0  0  0  0  0  0  0  0  0  0
   -3.2302    0.6357   -2.6958 C   0  0  0  0  0  0  0  0  0  0  0  0
   -1.8748    0.4621   -2.4022 C   0  0  0  0  0  0  0  0  0  0  0  0
   -1.3515    0.8593   -1.1628 C   0  0  0  0  0  0  0  0  0  0  0  0
    0.0251    0.6415   -0.9485 N   0  0  0  0  0  0  0  0  0  0  0  0
    0.7567    0.9209    0.1954 C   0  0  0  0  0  0  0  0  0  0  0  0
    0.3263    1.4026    1.2364 O   0  0  0  0  0  0  0  0  0  0  0  0
    2.2162    0.5475    0.0265 C   0  0  0  0  0  0  0  0  0  0  0  0
    3.0160    0.8586    1.2861 C   0  0  0  0  0  0  0  0  0  0  0  0
    4.4136    0.4956    1.1304 N   0  0  0  0  0  0  0  0  0  0  0  0
    5.3625    1.3203    0.5901 C   0  0  0  0  0  0  0  0  0  0  0  0
    5.2415    2.4514    0.1613 O   0  0  0  0  0  0  0  0  0  0  0  0
    6.6108    0.5598    0.5711 C   0  0  0  0  0  0  0  0  0  0  0  0
    7.8760    0.9250    0.1551 C   0  0  0  0  0  0  0  0  0  0  0  0
    8.8820   -0.0422    0.2481 C   0  0  0  0  0  0  0  0  0  0  0  0
    8.6017   -1.3332    0.7437 C   0  0  0  0  0  0  0  0  0  0  0  0
    7.3105   -1.6795    1.1548 C   0  0  0  0  0  0  0  0  0  0  0  0
    6.3360   -0.7060    1.0570 C   0  0  0  0  0  0  0  0  0  0  0  0
    4.9124   -0.7527    1.3859 C   0  0  0  0  0  0  0  0  0  0  0  0
    4.3297   -1.7472    1.7728 O   0  0  0  0  0  0  0  0  0  0  0  0
   -2.2056    1.4455   -0.2242 C   0  0  0  0  0  0  0  0  0  0  0  0
   -3.5635    1.6258   -0.5101 C   0  0  0  0  0  0  0  0  0  0  0  0
   -6.5983   -2.3294   -1.3806 N   0  0  0  0  0  0  0  0  0  0  0  0
   -6.5761   -2.9595   -0.1490 O   0  0  0  0  0  0  0  0  0  0  0  0
   -5.5234   -3.2762    2.3245 H   0  0  0  0  0  0  0  0  0  0  0  0
   -7.2722   -3.0095    2.4750 H   0  0  0  0  0  0  0  0  0  0  0  0
   -6.1366   -1.7225    2.9162 H   0  0  0  0  0  0  0  0  0  0  0  0
   -6.0866    0.1400    0.7650 H   0  0  0  0  0  0  0  0  0  0  0  0
   -6.5259   -0.5137   -3.1150 H   0  0  0  0  0  0  0  0  0  0  0  0
   -3.6163    0.3291   -3.6652 H   0  0  0  0  0  0  0  0  0  0  0  0
   -1.2350    0.0125   -3.1581 H   0  0  0  0  0  0  0  0  0  0  0  0
    0.5318    0.2229   -1.7192 H   0  0  0  0  0  0  0  0  0  0  0  0
    2.2795   -0.5223   -0.2061 H   0  0  0  0  0  0  0  0  0  0  0  0
    2.6241    1.1031   -0.8264 H   0  0  0  0  0  0  0  0  0  0  0  0
    2.6086    0.3052    2.1404 H   0  0  0  0  0  0  0  0  0  0  0  0
    2.9601    1.9292    1.5157 H   0  0  0  0  0  0  0  0  0  0  0  0
    8.0768    1.9207   -0.2270 H   0  0  0  0  0  0  0  0  0  0  0  0
    9.8954    0.2020   -0.0665 H   0  0  0  0  0  0  0  0  0  0  0  0
    9.4025   -2.0684    0.8051 H   0  0  0  0  0  0  0  0  0  0  0  0
    7.0803   -2.6695    1.5351 H   0  0  0  0  0  0  0  0  0  0  0  0
   -1.8454    1.7829    0.7432 H   0  0  0  0  0  0  0  0  0  0  0  0
   -4.2048    2.0956    0.2326 H   0  0  0  0  0  0  0  0  0  0  0  0
  1  2  1  0
  2  3  2  0
  3  4  1  0
  4  5  1  0
  5  6  1  0
  6  7  2  0
  6  8  2  0
  6  9  1  0
  9 10  2  0
 10 11  1  0
 11 12  2  0
 12 13  1  0
 13 14  1  0
 14 15  2  0
 14 16  1  0
 16 17  1  0
 17 18  1  0
 18 19  1  0
 19 20  2  0
 19 21  1  0
 21 22  2  0
 22 23  1  0
 23 24  2  0
 24 25  1  0
 25 26  2  0
 26 27  1  0
 27 28  2  0
 12 29  1  0
 29 30  2  0
  4 31  2  0
 31 32  1  0
 32  2  1  0
 30  9  1  0
 27 18  1  0
 26 21  1  0
  1 33  1  0
  1 34  1  0
  1 35  1  0
  3 36  1  0
  5 37  1  0
 10 38  1  0
 11 39  1  0
 13 40  1  0
 16 41  1  0
 16 42  1  0
 17 43  1  0
 17 44  1  0
 22 45  1  0
 23 46  1  0
 24 47  1  0
 25 48  1  0
 29 49  1  0
 30 50  1  0
M  END
$$$$
