
     RDKit          3D

 48 49  0  0  0  0  0  0  0  0999 V2000
   -4.1387   -3.9976    1.7948 C   0  0  0  0  0  0  0  0  0  0  0  0
   -3.6051   -2.8190    1.0360 C   0  0  0  0  0  0  0  0  0  0  0  0
   -4.0119   -1.5201    1.3612 C   0  0  0  0  0  0  0  0  0  0  0  0
   -3.4925   -0.4212    0.6730 C   0  0  0  0  0  0  0  0  0  0  0  0
   -2.5494   -0.6032   -0.3460 C   0  0  0  0  0  0  0  0  0  0  0  0
   -1.9553    0.5881   -1.0661 C   0  0  0  0  0  0  0  0  0  0  0  0
   -0.8750    1.3009   -0.2320 C   0  0  0  0  0  0  0  0  0  0  0  0
    0.2300    0.4219    0.1934 N   0  0  0  0  0  0  0  0  0  0  0  0
    1.0362   -0.2056   -0.7373 C   0  0  0  0  0  0  0  0  0  0  0  0
    1.0531    0.1032   -1.9223 O   0  0  0  0  0  0  0  0  0  0  0  0
    1.8949   -1.3132   -0.2342 C   0  0  0  0  0  0  0  0  0  0  0  0
    2.3105   -2.2954   -1.1420 C   0  0  0  0  0  0  0  0  0  0  0  0
    3.1144   -3.3528   -0.7134 C   0  0  0  0  0  0  0  0  0  0  0  0
    3.5129   -3.4284    0.6204 C   0  0  0  0  0  0  0  0  0  0  0  0
    3.1159   -2.4449    1.5260 C   0  0  0  0  0  0  0  0  0  0  0  0
    2.3109   -1.3849    1.1017 C   0  0  0  0  0  0  0  0  0  0  0  0
   -0.3995    2.5972   -0.9273 C   0  0  0  0  0  0  0  0  0  0  0  0
   -1.1240    3.2748   -1.6526 O   0  0  0  0  0  0  0  0  0  0  0  0
    0.8490    3.0223   -0.5226 N   0  0  0  0  0  0  0  0  0  0  0  0
    1.5347    4.1211   -1.1964 C   0  0  0  0  0  0  0  0  0  0  0  0
    1.1127    5.4636   -0.6164 C   0  0  0  0  0  0  0  0  0  0  0  0
    3.0527    3.9570   -1.0732 C   0  0  0  0  0  0  0  0  0  0  0  0
    3.9045    4.7165   -1.5079 O   0  0  0  0  0  0  0  0  0  0  0  0
    3.4273    2.8390   -0.4049 O   0  0  0  0  0  0  0  0  0  0  0  0
   -2.1371   -1.9027   -0.6653 C   0  0  0  0  0  0  0  0  0  0  0  0
   -2.6552   -3.0004    0.0249 C   0  0  0  0  0  0  0  0  0  0  0  0
   -5.1402   -3.7917    2.1866 H   0  0  0  0  0  0  0  0  0  0  0  0
   -3.4747   -4.2350    2.6315 H   0  0  0  0  0  0  0  0  0  0  0  0
   -4.2185   -4.8752    1.1447 H   0  0  0  0  0  0  0  0  0  0  0  0
   -4.7423   -1.3554    2.1503 H   0  0  0  0  0  0  0  0  0  0  0  0
   -3.8331    0.5780    0.9366 H   0  0  0  0  0  0  0  0  0  0  0  0
   -1.5526    0.2718   -2.0364 H   0  0  0  0  0  0  0  0  0  0  0  0
   -2.7694    1.2846   -1.3073 H   0  0  0  0  0  0  0  0  0  0  0  0
   -1.3269    1.6418    0.7098 H   0  0  0  0  0  0  0  0  0  0  0  0
    0.0348   -0.1095    1.0330 H   0  0  0  0  0  0  0  0  0  0  0  0
    2.0071   -2.2397   -2.1857 H   0  0  0  0  0  0  0  0  0  0  0  0
    3.4314   -4.1146   -1.4213 H   0  0  0  0  0  0  0  0  0  0  0  0
    4.1413   -4.2515    0.9525 H   0  0  0  0  0  0  0  0  0  0  0  0
    3.4406   -2.5007    2.5624 H   0  0  0  0  0  0  0  0  0  0  0  0
    2.0405   -0.6159    1.8189 H   0  0  0  0  0  0  0  0  0  0  0  0
    1.4529    2.2962   -0.1442 H   0  0  0  0  0  0  0  0  0  0  0  0
    1.2909    4.0683   -2.2637 H   0  0  0  0  0  0  0  0  0  0  0  0
    1.3617    5.5282    0.4490 H   0  0  0  0  0  0  0  0  0  0  0  0
    0.0332    5.6187   -0.7142 H   0  0  0  0  0  0  0  0  0  0  0  0
    1.6215    6.2892   -1.1255 H   0  0  0  0  0  0  0  0  0  0  0  0
    4.4068    2.8647   -0.4522 H   0  0  0  0  0  0  0  0  0  0  0  0
   -1.4059   -2.0688   -1.4545 H   0  0  0  0  0  0  0  0  0  0  0  0
   -2.3152   -4.0000   -0.2368 H   0  0  0  0  0  0  0  0  0  0  0  0
  1  2  1  0
  2  3  2  0
  3  4  1  0
  4  5  2  0
  5  6  1  0
  6  7  1  0
  7  8  1  0
  8  9  1  0
  9 10  2  0
  9 11  1  0
 11 12  2  0
 12 13  1  0
 13 14  2  0
 14 15  1  0
 15 16  2  0
  7 17  1  0
 17 18  2  0
 17 19  1  0
 19 20  1  0
 20 21  1  0
 20 22  1  0
 22 23  2  0
 22 24  1  0
  5 25  1  0
 25 26  2  0
 26  2  1  0
 16 11  1  0
  1 27  1  0
  1 28  1  0
  1 29  1  0
  3 30  1  0
  4 31  1  0
  6 32  1  0
  6 33  1  0
  7 34  1  0
  8 35  1  0
 12 36  1  0
 13 37  1  0
 14 38  1  0
 15 39  1  0
 16 40  1  0
 19 41  1  0
 20 42  1  0
 21 43  1  0
 21 44  1  0
 21 45  1  0
 24 46  1  0
 25 47  1  0
 26 48  1  0
M  END
$$$$
