
     RDKit          3D

 43 45  0  0  0  0  0  0  0  0999 V2000
    5.0453    2.3765   -1.3661 C   0  0  0  0  0  0  0  0  0  0  0  0
    4.1250    2.5380   -0.2857 O   0  0  0  0  0  0  0  0  0  0  0  0
    3.4039    1.3865   -0.0881 C   0  0  0  0  0  0  0  0  0  0  0  0
    2.0736    1.3980   -0.5261 C   0  0  0  0  0  0  0  0  0  0  0  0
    1.2477    0.2824   -0.3301 C   0  0  0  0  0  0  0  0  0  0  0  0
   -0.1552    0.3619   -0.7904 C   0  0  0  0  0  0  0  0  0  0  0  0
   -0.4141    0.3435   -2.1983 C   0  0  0  0  0  0  0  0  0  0  0  0
   -0.5823    0.3607   -3.3463 N   0  0  0  0  0  0  0  0  0  0  0  0
   -1.1285    0.4996    0.1320 C   0  0  0  0  0  0  0  0  0  0  0  0
   -2.5642    0.6342   -0.1754 C   0  0  0  0  0  0  0  0  0  0  0  0
   -3.0167    1.8818   -0.6328 C   0  0  0  0  0  0  0  0  0  0  0  0
   -4.3600    2.0762   -0.9358 C   0  0  0  0  0  0  0  0  0  0  0  0
   -5.2644    1.0288   -0.7805 C   0  0  0  0  0  0  0  0  0  0  0  0
   -4.8422   -0.2277   -0.3203 C   0  0  0  0  0  0  0  0  0  0  0  0
   -5.7702   -1.2718   -0.1690 C   0  0  0  0  0  0  0  0  0  0  0  0
   -5.3710   -2.5275    0.2856 C   0  0  0  0  0  0  0  0  0  0  0  0
   -4.0371   -2.7564    0.5946 C   0  0  0  0  0  0  0  0  0  0  0  0
   -3.1022   -1.7290    0.4501 C   0  0  0  0  0  0  0  0  0  0  0  0
   -3.4760   -0.4437   -0.0088 C   0  0  0  0  0  0  0  0  0  0  0  0
    1.8105   -0.8267    0.3242 C   0  0  0  0  0  0  0  0  0  0  0  0
    1.0247   -2.0270    0.5452 N   0  0  0  0  0  4  0  0  0  0  0  0
    0.5410   -2.5811   -0.4487 O   0  0  0  0  0  0  0  0  0  0  0  0
    0.9074   -2.4112    1.7161 O   0  0  0  0  0  1  0  0  0  0  0  0
    3.1354   -0.8354    0.7961 C   0  0  0  0  0  0  0  0  0  0  0  0
    3.9398    0.2861    0.6015 C   0  0  0  0  0  0  0  0  0  0  0  0
    5.2319    0.4069    1.0345 O   0  0  0  0  0  0  0  0  0  0  0  0
    5.7458   -0.6179    1.8760 C   0  0  0  0  0  0  0  0  0  0  0  0
    5.5215    3.3452   -1.5463 H   0  0  0  0  0  0  0  0  0  0  0  0
    5.8328    1.6557   -1.1248 H   0  0  0  0  0  0  0  0  0  0  0  0
    4.5268    2.0792   -2.2847 H   0  0  0  0  0  0  0  0  0  0  0  0
    1.6951    2.2944   -1.0155 H   0  0  0  0  0  0  0  0  0  0  0  0
   -0.9050    0.5266    1.1970 H   0  0  0  0  0  0  0  0  0  0  0  0
   -2.3254    2.7124   -0.7580 H   0  0  0  0  0  0  0  0  0  0  0  0
   -4.7039    3.0428   -1.2953 H   0  0  0  0  0  0  0  0  0  0  0  0
   -6.3106    1.2014   -1.0253 H   0  0  0  0  0  0  0  0  0  0  0  0
   -6.8197   -1.1137   -0.4085 H   0  0  0  0  0  0  0  0  0  0  0  0
   -6.1011   -3.3248    0.3948 H   0  0  0  0  0  0  0  0  0  0  0  0
   -3.7168   -3.7346    0.9449 H   0  0  0  0  0  0  0  0  0  0  0  0
   -2.0681   -1.9525    0.6986 H   0  0  0  0  0  0  0  0  0  0  0  0
    3.5081   -1.7192    1.3054 H   0  0  0  0  0  0  0  0  0  0  0  0
    5.1343   -0.7361    2.7768 H   0  0  0  0  0  0  0  0  0  0  0  0
    6.7497   -0.3192    2.1922 H   0  0  0  0  0  0  0  0  0  0  0  0
    5.8347   -1.5632    1.3312 H   0  0  0  0  0  0  0  0  0  0  0  0
  1  2  1  0
  2  3  1  0
  3  4  2  0
  4  5  1  0
  5  6  1  0
  6  7  1  0
  7  8  3  0
  6  9  2  3
  9 10  1  0
 10 11  2  0
 11 12  1  0
 12 13  2  0
 13 14  1  0
 14 15  2  0
 15 16  1  0
 16 17  2  0
 17 18  1  0
 18 19  2  0
  5 20  2  0
 20 21  1  0
 21 22  2  0
 21 23  1  0
 20 24  1  0
 24 25  2  0
 25 26  1  0
 26 27  1  0
 25  3  1  0
 19 10  1  0
 19 14  1  0
  1 28  1  0
  1 29  1  0
  1 30  1  0
  4 31  1  0
  9 32  1  0
 11 33  1  0
 12 34  1  0
 13 35  1  0
 15 36  1  0
 16 37  1  0
 17 38  1  0
 18 39  1  0
 24 40  1  0
 27 41  1  0
 27 42  1  0
 27 43  1  0
M  CHG  2  21   1  23  -1
M  END
$$$$
