
     RDKit          3D

 55 57  0  0  0  0  0  0  0  0999 V2000
    1.9731    1.3764    0.2090 C   0  0  0  0  0  0  0  0  0  0  0  0
    1.9579   -0.1542    0.3026 C   0  0  0  0  0  0  0  0  0  0  0  0
    0.9431   -0.8241   -0.6419 C   0  0  0  0  0  0  0  0  0  0  0  0
    1.2537   -1.7659   -1.3683 O   0  0  0  0  0  0  0  0  0  0  0  0
   -0.3437   -0.3260   -0.4900 N   0  0  0  0  0  0  0  0  0  0  0  0
   -1.5545   -0.8070   -1.0523 C   0  0  0  0  0  0  0  0  0  0  0  0
   -1.5906   -1.8465   -1.9879 C   0  0  0  0  0  0  0  0  0  0  0  0
   -2.8103   -2.3525   -2.4479 C   0  0  0  0  0  0  0  0  0  0  0  0
   -4.0125   -1.8370   -1.9705 C   0  0  0  0  0  0  0  0  0  0  0  0
   -4.0000   -0.7873   -1.0553 C   0  0  0  0  0  0  0  0  0  0  0  0
   -2.7809   -0.2378   -0.6281 C   0  0  0  0  0  0  0  0  0  0  0  0
   -2.7858    0.9003    0.3375 C   0  0  0  0  0  0  0  0  0  0  0  0
   -1.9536    0.8839    1.2480 O   0  0  0  0  0  0  0  0  0  0  0  0
   -3.6782    1.9557    0.1762 N   0  0  0  0  0  0  0  0  0  0  0  0
   -4.3822    2.2963   -1.0704 C   0  0  0  0  0  0  0  0  0  0  0  0
   -4.4841    3.8178   -1.2519 C   0  0  0  0  0  0  0  0  0  0  0  0
   -5.1458    4.4803   -0.1660 O   0  0  0  0  0  0  0  0  0  0  0  0
   -4.9876    3.8294    1.1045 C   0  0  0  0  0  0  0  0  0  0  0  0
   -3.7040    3.0014    1.2023 C   0  0  0  0  0  0  0  0  0  0  0  0
    3.3355   -0.7090    0.1612 N   0  0  0  0  0  0  0  0  0  0  0  0
    3.9030   -1.4049    1.2773 C   0  0  0  0  0  0  0  0  0  0  0  0
    4.9306   -0.8331    2.0316 C   0  0  0  0  0  0  0  0  0  0  0  0
    5.4284   -1.4974    3.1619 C   0  0  0  0  0  0  0  0  0  0  0  0
    4.8852   -2.7223    3.5399 C   0  0  0  0  0  0  0  0  0  0  0  0
    5.4863   -3.5337    4.9385 Cl  0  0  0  0  0  0  0  0  0  0  0  0
    3.8524   -3.2945    2.7966 C   0  0  0  0  0  0  0  0  0  0  0  0
    3.3621   -2.6362    1.6623 C   0  0  0  0  0  0  0  0  0  0  0  0
    4.2411   -0.4997   -1.2465 S   0  0  0  0  0  6  0  0  0  0  0  0
    4.3428   -2.1490   -1.9146 C   0  0  0  0  0  0  0  0  0  0  0  0
    3.4881    0.3159   -2.1860 O   0  0  0  0  0  0  0  0  0  0  0  0
    5.5918   -0.1168   -0.8728 O   0  0  0  0  0  0  0  0  0  0  0  0
    2.8364    1.8036    0.7300 H   0  0  0  0  0  0  0  0  0  0  0  0
    1.0732    1.8026    0.6694 H   0  0  0  0  0  0  0  0  0  0  0  0
    1.9889    1.7321   -0.8248 H   0  0  0  0  0  0  0  0  0  0  0  0
    1.6033   -0.3957    1.3159 H   0  0  0  0  0  0  0  0  0  0  0  0
   -0.4828    0.3558    0.2595 H   0  0  0  0  0  0  0  0  0  0  0  0
   -0.6827   -2.3015   -2.3757 H   0  0  0  0  0  0  0  0  0  0  0  0
   -2.8150   -3.1730   -3.1639 H   0  0  0  0  0  0  0  0  0  0  0  0
   -4.9572   -2.2587   -2.3066 H   0  0  0  0  0  0  0  0  0  0  0  0
   -4.9446   -0.4153   -0.6649 H   0  0  0  0  0  0  0  0  0  0  0  0
   -5.3890    1.8734   -0.9878 H   0  0  0  0  0  0  0  0  0  0  0  0
   -3.8745    1.8534   -1.9323 H   0  0  0  0  0  0  0  0  0  0  0  0
   -3.4838    4.2536   -1.3505 H   0  0  0  0  0  0  0  0  0  0  0  0
   -5.0393    4.0547   -2.1661 H   0  0  0  0  0  0  0  0  0  0  0  0
   -5.0055    4.6035    1.8795 H   0  0  0  0  0  0  0  0  0  0  0  0
   -5.8632    3.1863    1.2578 H   0  0  0  0  0  0  0  0  0  0  0  0
   -3.6071    2.5425    2.1921 H   0  0  0  0  0  0  0  0  0  0  0  0
   -2.8250    3.6359    1.0313 H   0  0  0  0  0  0  0  0  0  0  0  0
    5.3512    0.1257    1.7517 H   0  0  0  0  0  0  0  0  0  0  0  0
    6.2342   -1.0505    3.7389 H   0  0  0  0  0  0  0  0  0  0  0  0
    3.4238   -4.2475    3.0958 H   0  0  0  0  0  0  0  0  0  0  0  0
    2.5557   -3.0881    1.0875 H   0  0  0  0  0  0  0  0  0  0  0  0
    3.3583   -2.4869   -2.2310 H   0  0  0  0  0  0  0  0  0  0  0  0
    4.7766   -2.8218   -1.1654 H   0  0  0  0  0  0  0  0  0  0  0  0
    5.0070   -2.1066   -2.7851 H   0  0  0  0  0  0  0  0  0  0  0  0
  1  2  1  0
  2  3  1  0
  3  4  2  0
  3  5  1  0
  5  6  1  0
  6  7  2  0
  7  8  1  0
  8  9  2  0
  9 10  1  0
 10 11  2  0
 11 12  1  0
 12 13  2  0
 12 14  1  0
 14 15  1  0
 15 16  1  0
 16 17  1  0
 17 18  1  0
 18 19  1  0
  2 20  1  0
 20 21  1  0
 21 22  2  0
 22 23  1  0
 23 24  2  0
 24 25  1  0
 24 26  1  0
 26 27  2  0
 20 28  1  0
 28 29  1  0
 28 30  2  0
 28 31  2  0
 11  6  1  0
 19 14  1  0
 27 21  1  0
  1 32  1  0
  1 33  1  0
  1 34  1  0
  2 35  1  0
  5 36  1  0
  7 37  1  0
  8 38  1  0
  9 39  1  0
 10 40  1  0
 15 41  1  0
 15 42  1  0
 16 43  1  0
 16 44  1  0
 18 45  1  0
 18 46  1  0
 19 47  1  0
 19 48  1  0
 22 49  1  0
 23 50  1  0
 26 51  1  0
 27 52  1  0
 29 53  1  0
 29 54  1  0
 29 55  1  0
M  END
$$$$
