
     RDKit          3D

 68 73  0  0  0  0  0  0  0  0999 V2000
   -2.5839    3.4354   -2.3571 C   0  0  0  0  0  0  0  0  0  0  0  0
   -3.0379    4.0669   -1.1663 O   0  0  0  0  0  0  0  0  0  0  0  0
   -2.8266    3.3974    0.0091 C   0  0  0  0  0  0  0  0  0  0  0  0
   -3.4237    4.0010    1.1342 C   0  0  0  0  0  0  0  0  0  0  0  0
   -3.3179    3.4349    2.4070 C   0  0  0  0  0  0  0  0  0  0  0  0
   -2.5944    2.2688    2.5185 C   0  0  0  0  0  0  0  0  0  0  0  0
   -1.9693    1.6621    1.4247 C   0  0  0  0  0  0  0  0  0  0  0  0
   -2.0909    2.2165    0.1539 C   0  0  0  0  0  0  0  0  0  0  0  0
   -1.2617    0.4182    1.9020 C   0  0  1  0  0  0  0  0  0  0  0  0
   -1.6339    0.3800    3.4161 C   0  0  0  0  0  0  0  0  0  0  0  0
   -1.3428   -0.4537    4.2604 O   0  0  0  0  0  0  0  0  0  0  0  0
   -2.3975    1.5219    3.6699 N   0  0  0  0  0  0  0  0  0  0  0  0
   -1.7939   -0.7208    1.1207 C   0  0  0  0  0  0  0  0  0  0  0  0
   -0.7594   -1.4377    0.5218 C   0  0  0  0  0  0  0  0  0  0  0  0
   -1.2921   -2.4864   -0.1796 C   0  0  0  0  0  0  0  0  0  0  0  0
   -0.6778   -3.4011   -0.9258 O   0  0  0  0  0  0  0  0  0  0  0  0
   -2.6971   -2.4286   -0.0310 N   0  0  0  0  0  0  0  0  0  0  0  0
   -3.6539   -3.3392   -0.6042 C   0  0  0  0  0  0  0  0  0  0  0  0
   -3.2816   -4.6454   -0.9575 C   0  0  0  0  0  0  0  0  0  0  0  0
   -4.2124   -5.5320   -1.5098 C   0  0  0  0  0  0  0  0  0  0  0  0
   -5.5266   -5.1270   -1.7191 C   0  0  0  0  0  0  0  0  0  0  0  0
   -5.9116   -3.8347   -1.3754 C   0  0  0  0  0  0  0  0  0  0  0  0
   -4.9830   -2.9461   -0.8213 C   0  0  0  0  0  0  0  0  0  0  0  0
   -2.9870   -1.3130    0.7888 C   0  0  0  0  0  0  0  0  0  0  0  0
   -4.2231   -0.9947    1.1660 O   0  0  0  0  0  0  0  0  0  0  0  0
    0.5641   -0.8606    0.8407 C   0  0  1  0  0  0  0  0  0  0  0  0
    1.3988   -0.4583   -0.3886 C   0  0  0  0  0  0  0  0  0  0  0  0
    2.5893    0.2996   -0.0021 N   0  0  0  0  0  0  0  0  0  0  0  0
    3.7917    0.0693   -0.6364 C   0  0  0  0  0  0  0  0  0  0  0  0
    3.9224   -0.7146   -1.5671 O   0  0  0  0  0  0  0  0  0  0  0  0
    4.7954    0.8087   -0.0999 O   0  0  0  0  0  0  0  0  0  0  0  0
    6.1487    0.7178   -0.6143 C   0  0  0  0  0  0  0  0  0  0  0  0
    6.9606    1.6911    0.2551 C   0  0  0  0  0  0  0  0  0  0  0  0
    6.7228   -0.6917   -0.4331 C   0  0  0  0  0  0  0  0  0  0  0  0
    6.2229    1.1873   -2.0718 C   0  0  0  0  0  0  0  0  0  0  0  0
    2.4557    1.2098    1.1406 C   0  0  0  0  0  0  0  0  0  0  0  0
    0.9828    1.5145    1.4787 C   0  0  0  0  0  0  0  0  0  0  0  0
    0.2160    0.2967    1.7320 N   0  0  0  0  0  0  0  0  0  0  0  0
   -3.0488    2.4527   -2.4868 H   0  0  0  0  0  0  0  0  0  0  0  0
   -2.8859    4.0610   -3.2029 H   0  0  0  0  0  0  0  0  0  0  0  0
   -1.4918    3.3612   -2.3697 H   0  0  0  0  0  0  0  0  0  0  0  0
   -3.9886    4.9227    1.0044 H   0  0  0  0  0  0  0  0  0  0  0  0
   -3.7960    3.9008    3.2611 H   0  0  0  0  0  0  0  0  0  0  0  0
   -1.6179    1.7223   -0.6874 H   0  0  0  0  0  0  0  0  0  0  0  0
   -2.7544    1.7385    4.5889 H   0  0  0  0  0  0  0  0  0  0  0  0
    0.2826   -3.2950   -0.8209 H   0  0  0  0  0  0  0  0  0  0  0  0
   -2.2794   -5.0226   -0.7809 H   0  0  0  0  0  0  0  0  0  0  0  0
   -3.9077   -6.5429   -1.7684 H   0  0  0  0  0  0  0  0  0  0  0  0
   -6.2476   -5.8177   -2.1469 H   0  0  0  0  0  0  0  0  0  0  0  0
   -6.9361   -3.5104   -1.5406 H   0  0  0  0  0  0  0  0  0  0  0  0
   -5.3251   -1.9395   -0.6020 H   0  0  0  0  0  0  0  0  0  0  0  0
   -4.1789   -0.2186    1.7514 H   0  0  0  0  0  0  0  0  0  0  0  0
    1.1384   -1.5740    1.4458 H   0  0  0  0  0  0  0  0  0  0  0  0
    1.6805   -1.3472   -0.9633 H   0  0  0  0  0  0  0  0  0  0  0  0
    0.8178    0.1845   -1.0626 H   0  0  0  0  0  0  0  0  0  0  0  0
    6.8989    1.4133    1.3144 H   0  0  0  0  0  0  0  0  0  0  0  0
    8.0165    1.7127   -0.0357 H   0  0  0  0  0  0  0  0  0  0  0  0
    6.5591    2.7090    0.1786 H   0  0  0  0  0  0  0  0  0  0  0  0
    7.7932   -0.7177   -0.6657 H   0  0  0  0  0  0  0  0  0  0  0  0
    6.5804   -1.0399    0.5964 H   0  0  0  0  0  0  0  0  0  0  0  0
    6.2298   -1.4213   -1.0822 H   0  0  0  0  0  0  0  0  0  0  0  0
    5.7383    2.1637   -2.1894 H   0  0  0  0  0  0  0  0  0  0  0  0
    5.7110    0.5001   -2.7519 H   0  0  0  0  0  0  0  0  0  0  0  0
    7.2609    1.2718   -2.4125 H   0  0  0  0  0  0  0  0  0  0  0  0
    2.9872    2.1426    0.9193 H   0  0  0  0  0  0  0  0  0  0  0  0
    2.9542    0.7361    1.9962 H   0  0  0  0  0  0  0  0  0  0  0  0
    0.9447    2.1677    2.3574 H   0  0  0  0  0  0  0  0  0  0  0  0
    0.5736    2.0736    0.6304 H   0  0  0  0  0  0  0  0  0  0  0  0
  1  2  1  0
  2  3  1  0
  3  4  2  0
  4  5  1  0
  5  6  2  0
  6  7  1  0
  7  8  2  0
  7  9  1  0
  9 10  1  0
 10 11  2  0
 10 12  1  0
  9 13  1  0
 13 14  1  0
 14 15  2  0
 15 16  1  0
 15 17  1  0
 17 18  1  0
 18 19  2  0
 19 20  1  0
 20 21  2  0
 21 22  1  0
 22 23  2  0
 17 24  1  0
 24 25  1  0
 14 26  1  0
 26 27  1  0
 27 28  1  0
 28 29  1  0
 29 30  2  0
 29 31  1  0
 31 32  1  0
 32 33  1  0
 32 34  1  0
 32 35  1  0
 28 36  1  0
 36 37  1  0
 37 38  1  0
  8  3  1  0
  9 38  1  1
 12  6  1  0
 24 13  2  0
 38 26  1  0
 23 18  1  0
  1 39  1  0
  1 40  1  0
  1 41  1  0
  4 42  1  0
  5 43  1  0
  8 44  1  0
 12 45  1  0
 16 46  1  0
 19 47  1  0
 20 48  1  0
 21 49  1  0
 22 50  1  0
 23 51  1  0
 25 52  1  0
 26 53  1  1
 27 54  1  0
 27 55  1  0
 33 56  1  0
 33 57  1  0
 33 58  1  0
 34 59  1  0
 34 60  1  0
 34 61  1  0
 35 62  1  0
 35 63  1  0
 35 64  1  0
 36 65  1  0
 36 66  1  0
 37 67  1  0
 37 68  1  0
M  END
$$$$
