
     RDKit          3D

 44 46  0  0  0  0  0  0  0  0999 V2000
    4.7367    2.1521   -1.1496 C   0  0  0  0  0  0  0  0  0  0  0  0
    4.0484    1.0263   -0.6120 O   0  0  0  0  0  0  0  0  0  0  0  0
    4.7990   -0.0265   -0.1473 C   0  0  0  0  0  0  0  0  0  0  0  0
    6.2024   -0.0472   -0.2002 C   0  0  0  0  0  0  0  0  0  0  0  0
    6.9248   -1.1400    0.2855 C   0  0  0  0  0  0  0  0  0  0  0  0
    6.2579   -2.2282    0.8312 C   0  0  0  0  0  0  0  0  0  0  0  0
    4.8652   -2.2240    0.8902 C   0  0  0  0  0  0  0  0  0  0  0  0
    4.1156   -1.1329    0.4057 C   0  0  0  0  0  0  0  0  0  0  0  0
    2.6160   -1.2561    0.5284 C   0  0  0  0  0  0  0  0  0  0  0  0
    2.1541   -2.2661    1.0532 O   0  0  0  0  0  0  0  0  0  0  0  0
    1.8649   -0.2090    0.0327 N   0  0  0  0  0  0  0  0  0  0  0  0
    0.4642   -0.0691    0.0150 C   0  0  0  0  0  0  0  0  0  0  0  0
   -0.4255   -1.0199    0.5139 C   0  0  0  0  0  0  0  0  0  0  0  0
   -1.8108   -0.8055    0.4597 C   0  0  0  0  0  0  0  0  0  0  0  0
   -2.3282    0.3686   -0.0948 C   0  0  0  0  0  0  0  0  0  0  0  0
   -3.8021    0.6477   -0.1731 C   0  0  0  0  0  0  0  0  0  0  0  0
   -4.2139    1.6334   -0.9190 N   0  0  0  0  0  0  0  0  0  0  0  0
   -5.5466    1.9049   -0.9600 N   0  0  0  0  0  0  0  0  0  0  0  0
   -6.4873    1.4601   -0.0671 C   0  0  0  0  0  0  0  0  0  0  0  0
   -7.6672    1.7927   -0.1430 O   0  0  0  0  0  0  0  0  0  0  0  0
   -5.9580    0.6042    1.0488 C   0  0  0  0  0  0  0  0  0  0  0  0
   -4.7807   -0.2419    0.5847 C   0  0  0  0  0  0  0  0  0  0  0  0
   -5.2332   -1.3987   -0.3084 C   0  0  0  0  0  0  0  0  0  0  0  0
   -1.4341    1.3209   -0.6006 C   0  0  0  0  0  0  0  0  0  0  0  0
   -0.0526    1.1036   -0.5447 C   0  0  0  0  0  0  0  0  0  0  0  0
    5.3740    2.6228   -0.3940 H   0  0  0  0  0  0  0  0  0  0  0  0
    3.9842    2.8863   -1.4533 H   0  0  0  0  0  0  0  0  0  0  0  0
    5.3086    1.8746   -2.0408 H   0  0  0  0  0  0  0  0  0  0  0  0
    6.7743    0.7760   -0.6167 H   0  0  0  0  0  0  0  0  0  0  0  0
    8.0113   -1.1388    0.2362 H   0  0  0  0  0  0  0  0  0  0  0  0
    6.8154   -3.0811    1.2105 H   0  0  0  0  0  0  0  0  0  0  0  0
    4.3597   -3.0878    1.3208 H   0  0  0  0  0  0  0  0  0  0  0  0
    2.3964    0.5578   -0.3674 H   0  0  0  0  0  0  0  0  0  0  0  0
   -0.0748   -1.9493    0.9527 H   0  0  0  0  0  0  0  0  0  0  0  0
   -2.4515   -1.5886    0.8522 H   0  0  0  0  0  0  0  0  0  0  0  0
   -5.8536    2.5714   -1.6616 H   0  0  0  0  0  0  0  0  0  0  0  0
   -5.6472    1.2794    1.8552 H   0  0  0  0  0  0  0  0  0  0  0  0
   -6.7658   -0.0302    1.4295 H   0  0  0  0  0  0  0  0  0  0  0  0
   -4.3048   -0.6512    1.4815 H   0  0  0  0  0  0  0  0  0  0  0  0
   -4.3828   -2.0138   -0.6199 H   0  0  0  0  0  0  0  0  0  0  0  0
   -5.9377   -2.0464    0.2236 H   0  0  0  0  0  0  0  0  0  0  0  0
   -5.7224   -1.0428   -1.2213 H   0  0  0  0  0  0  0  0  0  0  0  0
   -1.8016    2.2454   -1.0414 H   0  0  0  0  0  0  0  0  0  0  0  0
    0.6097    1.8666   -0.9460 H   0  0  0  0  0  0  0  0  0  0  0  0
  1  2  1  0
  2  3  1  0
  3  4  2  0
  4  5  1  0
  5  6  2  0
  6  7  1  0
  7  8  2  0
  8  9  1  0
  9 10  2  0
  9 11  1  0
 11 12  1  0
 12 13  2  0
 13 14  1  0
 14 15  2  0
 15 16  1  0
 16 17  2  0
 17 18  1  0
 18 19  1  0
 19 20  2  0
 19 21  1  0
 21 22  1  0
 22 23  1  0
 15 24  1  0
 24 25  2  0
  8  3  1  0
 25 12  1  0
 22 16  1  0
  1 26  1  0
  1 27  1  0
  1 28  1  0
  4 29  1  0
  5 30  1  0
  6 31  1  0
  7 32  1  0
 11 33  1  0
 13 34  1  0
 14 35  1  0
 18 36  1  0
 21 37  1  0
 21 38  1  0
 22 39  1  0
 23 40  1  0
 23 41  1  0
 23 42  1  0
 24 43  1  0
 25 44  1  0
M  END
$$$$
