
     RDKit          3D

 67 72  0  0  0  0  0  0  0  0999 V2000
    5.1941    2.5994    1.8405 C   0  0  0  0  0  0  0  0  0  0  0  0
    5.5863    1.4578    0.8911 C   0  0  0  0  0  0  0  0  0  0  0  0
    6.4923    0.4853    1.6545 C   0  0  0  0  0  0  0  0  0  0  0  0
    6.2824    2.0513   -0.3351 C   0  0  0  0  0  0  0  0  0  0  0  0
    4.3270    0.8438    0.5212 O   0  0  0  0  0  0  0  0  0  0  0  0
    4.2779   -0.2481   -0.2828 C   0  0  0  0  0  0  0  0  0  0  0  0
    5.2611   -0.8216   -0.7323 O   0  0  0  0  0  0  0  0  0  0  0  0
    2.9777   -0.6452   -0.5387 N   0  0  0  0  0  0  0  0  0  0  0  0
    2.7632   -1.9807   -1.1211 C   0  0  0  0  0  0  0  0  0  0  0  0
    1.3766   -2.1776   -1.7910 C   0  0  0  0  0  0  0  0  0  0  0  0
    0.3439   -1.6757   -0.9007 N   0  0  0  0  0  0  0  0  0  0  0  0
    0.5518   -0.2072   -0.6643 C   0  0  2  0  0  0  0  0  0  0  0  0
    1.8255   -0.0190    0.1503 C   0  0  0  0  0  0  0  0  0  0  0  0
   -0.7431    0.1458   -0.0561 C   0  0  0  0  0  0  0  0  0  0  0  0
   -1.7153   -0.8204   -0.3803 C   0  0  0  0  0  0  0  0  0  0  0  0
   -2.9007   -0.4309    0.1858 C   0  0  0  0  0  0  0  0  0  0  0  0
   -4.1036   -0.9896    0.2050 O   0  0  0  0  0  0  0  0  0  0  0  0
   -2.6525    0.7713    0.8416 N   0  0  0  0  0  0  0  0  0  0  0  0
   -3.6197    1.4497    1.7009 C   0  0  0  0  0  0  0  0  0  0  0  0
   -4.1519    2.7191    1.0811 C   0  0  0  0  0  0  0  0  0  0  0  0
   -4.8483    2.6832   -0.1368 C   0  0  0  0  0  0  0  0  0  0  0  0
   -5.3526    3.8566   -0.7008 C   0  0  0  0  0  0  0  0  0  0  0  0
   -5.1696    5.0775   -0.0541 C   0  0  0  0  0  0  0  0  0  0  0  0
   -4.4856    5.1265    1.1597 C   0  0  0  0  0  0  0  0  0  0  0  0
   -3.9853    3.9536    1.7293 C   0  0  0  0  0  0  0  0  0  0  0  0
   -1.3266    1.1508    0.6580 C   0  0  0  0  0  0  0  0  0  0  0  0
   -0.7967    2.2798    1.1086 O   0  0  0  0  0  0  0  0  0  0  0  0
   -1.0893   -1.8963   -1.1995 C   0  0  1  0  0  0  0  0  0  0  0  0
   -1.4746   -1.8233   -2.7045 C   0  0  0  0  0  0  0  0  0  0  0  0
   -1.2112   -0.9579   -3.5249 O   0  0  0  0  0  0  0  0  0  0  0  0
   -2.1999   -2.9863   -2.9857 N   0  0  0  0  0  0  0  0  0  0  0  0
   -2.2973   -3.8056   -1.8676 C   0  0  0  0  0  0  0  0  0  0  0  0
   -2.9262   -5.0304   -1.7895 C   0  0  0  0  0  0  0  0  0  0  0  0
   -2.8938   -5.6903   -0.5578 C   0  0  0  0  0  0  0  0  0  0  0  0
   -2.2368   -5.1205    0.5499 C   0  0  0  0  0  0  0  0  0  0  0  0
   -1.6050   -3.8778    0.4461 C   0  0  0  0  0  0  0  0  0  0  0  0
   -1.6495   -3.2212   -0.7740 C   0  0  0  0  0  0  0  0  0  0  0  0
    6.0630    3.1838    2.1583 H   0  0  0  0  0  0  0  0  0  0  0  0
    4.4735    3.2735    1.3688 H   0  0  0  0  0  0  0  0  0  0  0  0
    4.7035    2.2034    2.7361 H   0  0  0  0  0  0  0  0  0  0  0  0
    5.9374   -0.0166    2.4558 H   0  0  0  0  0  0  0  0  0  0  0  0
    6.8904   -0.3020    1.0061 H   0  0  0  0  0  0  0  0  0  0  0  0
    7.3493    1.0057    2.0963 H   0  0  0  0  0  0  0  0  0  0  0  0
    7.1521    2.6507   -0.0481 H   0  0  0  0  0  0  0  0  0  0  0  0
    5.5923    2.6859   -0.9028 H   0  0  0  0  0  0  0  0  0  0  0  0
    6.6291    1.2748   -1.0234 H   0  0  0  0  0  0  0  0  0  0  0  0
    2.8729   -2.6979   -0.2973 H   0  0  0  0  0  0  0  0  0  0  0  0
    3.5551   -2.1964   -1.8463 H   0  0  0  0  0  0  0  0  0  0  0  0
    1.2347   -3.2449   -1.9930 H   0  0  0  0  0  0  0  0  0  0  0  0
    1.3645   -1.6515   -2.7543 H   0  0  0  0  0  0  0  0  0  0  0  0
    0.6446    0.3206   -1.6245 H   0  0  0  0  0  0  0  0  0  0  0  0
    2.0114    1.0500    0.3049 H   0  0  0  0  0  0  0  0  0  0  0  0
    1.7458   -0.4827    1.1440 H   0  0  0  0  0  0  0  0  0  0  0  0
   -4.0305   -1.8582   -0.2324 H   0  0  0  0  0  0  0  0  0  0  0  0
   -4.4454    0.7664    1.9318 H   0  0  0  0  0  0  0  0  0  0  0  0
   -3.1023    1.6543    2.6460 H   0  0  0  0  0  0  0  0  0  0  0  0
   -5.0006    1.7348   -0.6522 H   0  0  0  0  0  0  0  0  0  0  0  0
   -5.8923    3.8155   -1.6445 H   0  0  0  0  0  0  0  0  0  0  0  0
   -5.5646    5.9911   -0.4947 H   0  0  0  0  0  0  0  0  0  0  0  0
   -4.3508    6.0792    1.6662 H   0  0  0  0  0  0  0  0  0  0  0  0
   -3.4692    4.0131    2.6870 H   0  0  0  0  0  0  0  0  0  0  0  0
   -1.5080    2.9332    1.2296 H   0  0  0  0  0  0  0  0  0  0  0  0
   -2.5638   -3.1888   -3.9046 H   0  0  0  0  0  0  0  0  0  0  0  0
   -3.4259   -5.4724   -2.6451 H   0  0  0  0  0  0  0  0  0  0  0  0
   -3.3778   -6.6597   -0.4530 H   0  0  0  0  0  0  0  0  0  0  0  0
   -2.2186   -5.6555    1.4977 H   0  0  0  0  0  0  0  0  0  0  0  0
   -1.0945   -3.4351    1.2970 H   0  0  0  0  0  0  0  0  0  0  0  0
  1  2  1  0
  2  3  1  0
  2  4  1  0
  2  5  1  0
  5  6  1  0
  6  7  2  0
  6  8  1  0
  8  9  1  0
  9 10  1  0
 10 11  1  0
 11 12  1  0
 12 13  1  0
 12 14  1  0
 14 15  1  0
 15 16  2  0
 16 17  1  0
 16 18  1  0
 18 19  1  0
 19 20  1  0
 20 21  2  0
 21 22  1  0
 22 23  2  0
 23 24  1  0
 24 25  2  0
 18 26  1  0
 26 27  1  0
 15 28  1  0
 28 29  1  0
 29 30  2  0
 29 31  1  0
 31 32  1  0
 32 33  2  0
 33 34  1  0
 34 35  2  0
 35 36  1  0
 36 37  2  0
 13  8  1  0
 26 14  2  0
 37 28  1  0
 28 11  1  6
 37 32  1  0
 25 20  1  0
  1 38  1  0
  1 39  1  0
  1 40  1  0
  3 41  1  0
  3 42  1  0
  3 43  1  0
  4 44  1  0
  4 45  1  0
  4 46  1  0
  9 47  1  0
  9 48  1  0
 10 49  1  0
 10 50  1  0
 12 51  1  6
 13 52  1  0
 13 53  1  0
 17 54  1  0
 19 55  1  0
 19 56  1  0
 21 57  1  0
 22 58  1  0
 23 59  1  0
 24 60  1  0
 25 61  1  0
 27 62  1  0
 31 63  1  0
 33 64  1  0
 34 65  1  0
 35 66  1  0
 36 67  1  0
M  END
$$$$
