
     RDKit          3D

 55 56  0  0  0  0  0  0  0  0999 V2000
   -4.4364    2.9640    0.3297 C   0  0  0  0  0  0  0  0  0  0  0  0
   -3.6976    1.6289    0.4206 C   0  0  0  0  0  0  0  0  0  0  0  0
   -2.9889    1.3718   -0.8225 N   0  0  0  0  0  0  0  0  0  0  0  0
   -3.0012    0.1321   -1.4248 C   0  0  0  0  0  0  0  0  0  0  0  0
   -3.7088   -0.7975   -1.0567 O   0  0  0  0  0  0  0  0  0  0  0  0
   -2.0091    0.0259   -2.5611 C   0  0  0  0  0  0  0  0  0  0  0  0
   -2.1898   -1.2675   -3.3470 C   0  0  0  0  0  0  0  0  0  0  0  0
   -0.7585   -1.5281   -4.4482 S   0  0  0  0  0  0  0  0  0  0  0  0
    0.1653   -2.8155   -3.5209 C   0  0  0  0  0  0  0  0  0  0  0  0
    0.4975   -2.4940   -2.0666 C   0  0  0  0  0  0  0  0  0  0  0  0
    1.5199   -1.3862   -1.9105 C   0  0  0  0  0  0  0  0  0  0  0  0
    2.3644   -1.1210   -2.7590 O   0  0  0  0  0  0  0  0  0  0  0  0
    1.4226   -0.7349   -0.6972 N   0  0  0  0  0  0  0  0  0  0  0  0
    2.4069    0.2505   -0.2812 C   0  0  0  0  0  0  0  0  0  0  0  0
    1.6983    1.4367    0.3704 C   0  0  0  0  0  0  0  0  0  0  0  0
    3.4479   -0.4213    0.5991 C   0  0  0  0  0  0  0  0  0  0  0  0
    4.5918   -0.9717   -0.0052 C   0  0  0  0  0  0  0  0  0  0  0  0
    5.5620   -1.6247    0.7559 C   0  0  0  0  0  0  0  0  0  0  0  0
    5.4013   -1.7437    2.1341 C   0  0  0  0  0  0  0  0  0  0  0  0
    4.2665   -1.2175    2.7489 C   0  0  0  0  0  0  0  0  0  0  0  0
    3.2923   -0.5658    1.9874 C   0  0  0  0  0  0  0  0  0  0  0  0
   -2.7180    1.5255    1.5802 C   0  0  0  0  0  0  0  0  0  0  0  0
   -1.9745    2.6203    2.0491 C   0  0  0  0  0  0  0  0  0  0  0  0
   -1.0693    2.4694    3.1048 C   0  0  0  0  0  0  0  0  0  0  0  0
   -0.8856    1.2245    3.6981 C   0  0  0  0  0  0  0  0  0  0  0  0
   -1.6001    0.1237    3.2331 C   0  0  0  0  0  0  0  0  0  0  0  0
   -2.5046    0.2717    2.1796 C   0  0  0  0  0  0  0  0  0  0  0  0
   -5.1870    2.9280   -0.4705 H   0  0  0  0  0  0  0  0  0  0  0  0
   -4.9499    3.1961    1.2691 H   0  0  0  0  0  0  0  0  0  0  0  0
   -3.7610    3.7967    0.0904 H   0  0  0  0  0  0  0  0  0  0  0  0
   -4.4665    0.8582    0.5587 H   0  0  0  0  0  0  0  0  0  0  0  0
   -2.2356    2.0055   -1.0589 H   0  0  0  0  0  0  0  0  0  0  0  0
   -1.0113    0.0863   -2.1123 H   0  0  0  0  0  0  0  0  0  0  0  0
   -2.1358    0.8914   -3.2250 H   0  0  0  0  0  0  0  0  0  0  0  0
   -2.3384   -2.1432   -2.7060 H   0  0  0  0  0  0  0  0  0  0  0  0
   -3.0845   -1.1861   -3.9758 H   0  0  0  0  0  0  0  0  0  0  0  0
   -0.4340   -3.7331   -3.5624 H   0  0  0  0  0  0  0  0  0  0  0  0
    1.0846   -3.0141   -4.0850 H   0  0  0  0  0  0  0  0  0  0  0  0
    0.9399   -3.3864   -1.6060 H   0  0  0  0  0  0  0  0  0  0  0  0
   -0.4049   -2.2650   -1.4909 H   0  0  0  0  0  0  0  0  0  0  0  0
    0.8779   -1.1702    0.0372 H   0  0  0  0  0  0  0  0  0  0  0  0
    2.9103    0.6437   -1.1714 H   0  0  0  0  0  0  0  0  0  0  0  0
    2.4163    2.1680    0.7445 H   0  0  0  0  0  0  0  0  0  0  0  0
    1.0451    1.9398   -0.3549 H   0  0  0  0  0  0  0  0  0  0  0  0
    1.0626    1.1243    1.2016 H   0  0  0  0  0  0  0  0  0  0  0  0
    4.7247   -0.8995   -1.0845 H   0  0  0  0  0  0  0  0  0  0  0  0
    6.4401   -2.0434    0.2689 H   0  0  0  0  0  0  0  0  0  0  0  0
    6.1581   -2.2519    2.7256 H   0  0  0  0  0  0  0  0  0  0  0  0
    4.1384   -1.3186    3.8238 H   0  0  0  0  0  0  0  0  0  0  0  0
    2.4116   -0.1781    2.4948 H   0  0  0  0  0  0  0  0  0  0  0  0
   -2.0857    3.6046    1.6049 H   0  0  0  0  0  0  0  0  0  0  0  0
   -0.5090    3.3302    3.4642 H   0  0  0  0  0  0  0  0  0  0  0  0
   -0.1863    1.1124    4.5226 H   0  0  0  0  0  0  0  0  0  0  0  0
   -1.4601   -0.8521    3.6929 H   0  0  0  0  0  0  0  0  0  0  0  0
   -3.0537   -0.5993    1.8238 H   0  0  0  0  0  0  0  0  0  0  0  0
  1  2  1  0
  2  3  1  0
  3  4  1  0
  4  5  2  0
  4  6  1  0
  6  7  1  0
  7  8  1  0
  8  9  1  0
  9 10  1  0
 10 11  1  0
 11 12  2  0
 11 13  1  0
 13 14  1  0
 14 15  1  0
 14 16  1  0
 16 17  2  0
 17 18  1  0
 18 19  2  0
 19 20  1  0
 20 21  2  0
  2 22  1  0
 22 23  2  0
 23 24  1  0
 24 25  2  0
 25 26  1  0
 26 27  2  0
 21 16  1  0
 27 22  1  0
  1 28  1  0
  1 29  1  0
  1 30  1  0
  2 31  1  0
  3 32  1  0
  6 33  1  0
  6 34  1  0
  7 35  1  0
  7 36  1  0
  9 37  1  0
  9 38  1  0
 10 39  1  0
 10 40  1  0
 13 41  1  0
 14 42  1  0
 15 43  1  0
 15 44  1  0
 15 45  1  0
 17 46  1  0
 18 47  1  0
 19 48  1  0
 20 49  1  0
 21 50  1  0
 23 51  1  0
 24 52  1  0
 25 53  1  0
 26 54  1  0
 27 55  1  0
M  END
$$$$
