
     RDKit          3D

 46 48  0  0  0  0  0  0  0  0999 V2000
    3.6231    1.2611   -4.1043 C   0  0  0  0  0  0  0  0  0  0  0  0
    4.2030    2.5445   -3.9218 O   0  0  0  0  0  0  0  0  0  0  0  0
    3.7720    3.2068   -2.7285 C   0  0  0  0  0  0  0  0  0  0  0  0
    4.4945    2.6868   -1.4812 C   0  0  0  0  0  0  0  0  0  0  0  0
    3.9438    1.4415   -1.0136 O   0  0  0  0  0  0  0  0  0  0  0  0
    2.7759    1.5357   -0.3149 C   0  0  0  0  0  0  0  0  0  0  0  0
    2.2050    2.5953   -0.0852 O   0  0  0  0  0  0  0  0  0  0  0  0
    2.2644    0.2480    0.1211 C   0  0  0  0  0  0  0  0  0  0  0  0
    2.8917   -0.9864    0.0241 C   0  0  0  0  0  0  0  0  0  0  0  0
    4.2009   -1.4400   -0.4956 C   0  0  0  0  0  0  0  0  0  0  0  0
    2.0972   -1.9685    0.5357 O   0  0  0  0  0  0  0  0  0  0  0  0
    0.9557   -1.3804    0.9738 C   0  0  0  0  0  0  0  0  0  0  0  0
   -0.1159   -2.0463    1.5639 C   0  0  0  0  0  0  0  0  0  0  0  0
   -1.2047   -1.2582    1.9508 C   0  0  0  0  0  0  0  0  0  0  0  0
   -1.1965    0.1245    1.7542 C   0  0  0  0  0  0  0  0  0  0  0  0
   -2.3398    0.8910    2.1163 N   0  0  0  0  0  0  0  0  0  0  0  0
   -3.5865    1.0291    0.9782 S   0  0  0  0  0  6  0  0  0  0  0  0
   -4.4342    2.1086    1.4377 O   0  0  0  0  0  0  0  0  0  0  0  0
   -3.0223    1.0339   -0.3537 O   0  0  0  0  0  0  0  0  0  0  0  0
   -4.4942   -0.4798    1.2130 C   0  0  0  0  0  0  0  0  0  0  0  0
   -4.4742   -1.4682    0.2216 C   0  0  0  0  0  0  0  0  0  0  0  0
   -5.1931   -2.6478    0.4186 C   0  0  0  0  0  0  0  0  0  0  0  0
   -5.9246   -2.8207    1.5906 C   0  0  0  0  0  0  0  0  0  0  0  0
   -6.6102   -3.9561    1.7759 F   0  0  0  0  0  0  0  0  0  0  0  0
   -5.9547   -1.8353    2.5742 C   0  0  0  0  0  0  0  0  0  0  0  0
   -5.2393   -0.6524    2.3865 C   0  0  0  0  0  0  0  0  0  0  0  0
   -0.1068    0.7650    1.1479 C   0  0  0  0  0  0  0  0  0  0  0  0
    1.0027   -0.0105    0.7520 C   0  0  0  0  0  0  0  0  0  0  0  0
    2.5314    1.3119   -4.0487 H   0  0  0  0  0  0  0  0  0  0  0  0
    4.0113    0.5508   -3.3705 H   0  0  0  0  0  0  0  0  0  0  0  0
    3.9036    0.9018   -5.0981 H   0  0  0  0  0  0  0  0  0  0  0  0
    4.0352    4.2613   -2.8624 H   0  0  0  0  0  0  0  0  0  0  0  0
    2.6825    3.1450   -2.6433 H   0  0  0  0  0  0  0  0  0  0  0  0
    4.4638    3.4271   -0.6730 H   0  0  0  0  0  0  0  0  0  0  0  0
    5.5466    2.4932   -1.7127 H   0  0  0  0  0  0  0  0  0  0  0  0
    5.0146   -0.8582   -0.0527 H   0  0  0  0  0  0  0  0  0  0  0  0
    4.3785   -2.4935   -0.2566 H   0  0  0  0  0  0  0  0  0  0  0  0
    4.2414   -1.3282   -1.5827 H   0  0  0  0  0  0  0  0  0  0  0  0
   -0.1001   -3.1196    1.7121 H   0  0  0  0  0  0  0  0  0  0  0  0
   -2.0560   -1.7403    2.4247 H   0  0  0  0  0  0  0  0  0  0  0  0
   -2.1717    1.7936    2.5614 H   0  0  0  0  0  0  0  0  0  0  0  0
   -3.9056   -1.3288   -0.6959 H   0  0  0  0  0  0  0  0  0  0  0  0
   -5.1909   -3.4310   -0.3335 H   0  0  0  0  0  0  0  0  0  0  0  0
   -6.5367   -1.9956    3.4769 H   0  0  0  0  0  0  0  0  0  0  0  0
   -5.2639    0.1246    3.1474 H   0  0  0  0  0  0  0  0  0  0  0  0
   -0.1169    1.8367    0.9703 H   0  0  0  0  0  0  0  0  0  0  0  0
  1  2  1  0
  2  3  1  0
  3  4  1  0
  4  5  1  0
  5  6  1  0
  6  7  2  0
  6  8  1  0
  8  9  2  0
  9 10  1  0
  9 11  1  0
 11 12  1  0
 12 13  2  0
 13 14  1  0
 14 15  2  0
 15 16  1  0
 16 17  1  0
 17 18  2  0
 17 19  2  0
 17 20  1  0
 20 21  2  0
 21 22  1  0
 22 23  2  0
 23 24  1  0
 23 25  1  0
 25 26  2  0
 15 27  1  0
 27 28  2  0
 28  8  1  0
 28 12  1  0
 26 20  1  0
  1 29  1  0
  1 30  1  0
  1 31  1  0
  3 32  1  0
  3 33  1  0
  4 34  1  0
  4 35  1  0
 10 36  1  0
 10 37  1  0
 10 38  1  0
 13 39  1  0
 14 40  1  0
 16 41  1  0
 21 42  1  0
 22 43  1  0
 25 44  1  0
 26 45  1  0
 27 46  1  0
M  END
$$$$
