
     RDKit          3D

 42 45  0  0  0  0  0  0  0  0999 V2000
    2.3566   -0.8560    1.9312 O   0  0  0  0  0  0  0  0  0  0  0  0
    1.1852   -0.8363    1.5755 C   0  0  0  0  0  0  0  0  0  0  0  0
    0.2014   -0.5754    2.4821 N   0  0  0  0  0  0  0  0  0  0  0  0
   -1.1254   -0.8452    2.3498 C   0  0  0  0  0  0  0  0  0  0  0  0
   -1.8630   -0.7328    3.3285 O   0  0  0  0  0  0  0  0  0  0  0  0
   -1.5615   -1.2575    1.1081 N   0  0  0  0  0  0  0  0  0  0  0  0
   -3.0024   -1.4584    0.9387 C   0  0  0  0  0  0  0  0  0  0  0  0
   -3.7531   -0.1248    0.8195 C   0  0  0  0  0  0  0  0  0  0  0  0
   -5.2466   -0.3046    0.5946 C   0  0  0  0  0  0  0  0  0  0  0  0
   -5.6044    0.9743   -0.1199 C   0  0  0  0  0  0  0  0  0  0  0  0
   -4.3951    1.1851   -1.0049 C   0  0  0  0  0  0  0  0  0  0  0  0
   -3.2686    0.6385   -0.3042 O   0  0  0  0  0  0  0  0  0  0  0  0
   -0.7425   -1.4329    0.0010 C   0  0  0  0  0  0  0  0  0  0  0  0
   -1.1543   -1.8316   -1.0882 O   0  0  0  0  0  0  0  0  0  0  0  0
    0.7006   -1.1355    0.2124 C   0  0  0  0  0  0  0  0  0  0  0  0
    1.4955   -1.1615   -0.8762 C   0  0  0  0  0  0  0  0  0  0  0  0
    2.8820   -0.8455   -0.9520 C   0  0  0  0  0  0  0  0  0  0  0  0
    3.8602   -1.7633   -1.2580 C   0  0  0  0  0  0  0  0  0  0  0  0
    5.0618   -1.1040   -1.2505 N   0  0  0  0  0  0  0  0  0  0  0  0
    4.8728    0.2355   -0.9916 C   0  0  0  0  0  0  0  0  0  0  0  0
    5.8038    1.2785   -0.9134 C   0  0  0  0  0  0  0  0  0  0  0  0
    5.3194    2.5605   -0.6378 C   0  0  0  0  0  0  0  0  0  0  0  0
    3.9584    2.7886   -0.4493 C   0  0  0  0  0  0  0  0  0  0  0  0
    3.0406    1.7347   -0.5289 C   0  0  0  0  0  0  0  0  0  0  0  0
    3.5031    0.4297   -0.8004 C   0  0  0  0  0  0  0  0  0  0  0  0
    0.5155   -0.3758    3.4210 H   0  0  0  0  0  0  0  0  0  0  0  0
   -3.3838   -2.0194    1.8005 H   0  0  0  0  0  0  0  0  0  0  0  0
   -3.1857   -2.0677    0.0468 H   0  0  0  0  0  0  0  0  0  0  0  0
   -3.5856    0.4940    1.7092 H   0  0  0  0  0  0  0  0  0  0  0  0
   -5.8006   -0.4518    1.5258 H   0  0  0  0  0  0  0  0  0  0  0  0
   -5.4464   -1.1599   -0.0622 H   0  0  0  0  0  0  0  0  0  0  0  0
   -6.5402    0.9179   -0.6818 H   0  0  0  0  0  0  0  0  0  0  0  0
   -5.6864    1.7937    0.6041 H   0  0  0  0  0  0  0  0  0  0  0  0
   -4.2149    2.2406   -1.2267 H   0  0  0  0  0  0  0  0  0  0  0  0
   -4.4955    0.6409   -1.9499 H   0  0  0  0  0  0  0  0  0  0  0  0
    1.0555   -1.4329   -1.8359 H   0  0  0  0  0  0  0  0  0  0  0  0
    3.8151   -2.8247   -1.4613 H   0  0  0  0  0  0  0  0  0  0  0  0
    5.9611   -1.5307   -1.4223 H   0  0  0  0  0  0  0  0  0  0  0  0
    6.8646    1.1050   -1.0604 H   0  0  0  0  0  0  0  0  0  0  0  0
    6.0172    3.3919   -0.5697 H   0  0  0  0  0  0  0  0  0  0  0  0
    3.6033    3.7938   -0.2371 H   0  0  0  0  0  0  0  0  0  0  0  0
    1.9823    1.9250   -0.3819 H   0  0  0  0  0  0  0  0  0  0  0  0
  1  2  2  0
  2  3  1  0
  3  4  1  0
  4  5  2  0
  4  6  1  0
  6  7  1  0
  7  8  1  0
  8  9  1  0
  9 10  1  0
 10 11  1  0
 11 12  1  0
  6 13  1  0
 13 14  2  0
 13 15  1  0
 15 16  2  3
 16 17  1  0
 17 18  2  0
 18 19  1  0
 19 20  1  0
 20 21  2  0
 21 22  1  0
 22 23  2  0
 23 24  1  0
 24 25  2  0
 15  2  1  0
 25 17  1  0
 12  8  1  0
 25 20  1  0
  3 26  1  0
  7 27  1  0
  7 28  1  0
  8 29  1  0
  9 30  1  0
  9 31  1  0
 10 32  1  0
 10 33  1  0
 11 34  1  0
 11 35  1  0
 16 36  1  0
 18 37  1  0
 19 38  1  0
 21 39  1  0
 22 40  1  0
 23 41  1  0
 24 42  1  0
M  END
$$$$
