
     RDKit          3D

 60 61  0  0  0  0  0  0  0  0999 V2000
   -6.9949   -1.2398    2.1141 C   0  0  0  0  0  0  0  0  0  0  0  0
   -6.3190   -0.4393    1.1521 O   0  0  0  0  0  0  0  0  0  0  0  0
   -4.9643   -0.2977    1.2950 C   0  0  0  0  0  0  0  0  0  0  0  0
   -4.3645    0.5015    0.3178 C   0  0  0  0  0  0  0  0  0  0  0  0
   -2.9869    0.7359    0.3283 C   0  0  0  0  0  0  0  0  0  0  0  0
   -2.3306    1.5077   -0.6007 O   0  0  0  0  0  0  0  0  0  0  0  0
   -3.0708    1.9383   -1.7357 C   0  0  0  0  0  0  0  0  0  0  0  0
   -2.1992    0.1678    1.3515 C   0  0  0  0  0  0  0  0  0  0  0  0
   -0.7577    0.4140    1.3794 C   0  0  0  0  0  0  0  0  0  0  0  0
   -0.1944    1.1421    2.3569 N   0  0  0  0  0  0  0  0  0  0  0  0
    1.1503    1.2044    2.0609 O   0  0  0  0  0  0  0  0  0  0  0  0
    1.4068    0.5160    0.9131 C   0  0  0  0  0  0  0  0  0  0  0  0
    2.7701    0.3904    0.4718 C   0  0  0  0  0  0  0  0  0  0  0  0
    3.1767   -0.4215   -0.3486 O   0  0  0  0  0  0  0  0  0  0  0  0
    3.5496    1.3054    1.1119 O   0  0  0  0  0  0  0  0  0  0  0  0
    4.9715    1.3970    0.8422 C   0  0  0  0  0  0  0  0  0  0  0  0
    5.2372    1.7809   -0.6178 C   0  0  0  0  0  0  0  0  0  0  0  0
    5.4669    2.5358    1.7465 C   0  0  0  0  0  0  0  0  0  0  0  0
    5.6978    0.1071    1.2382 C   0  0  0  0  0  0  0  0  0  0  0  0
    0.2169    0.0165    0.4225 C   0  0  0  0  0  0  0  0  0  0  0  0
    0.0151   -0.7364   -0.7890 C   0  0  0  0  0  0  0  0  0  0  0  0
   -0.8133   -1.6310   -0.8891 O   0  0  0  0  0  0  0  0  0  0  0  0
    0.8163   -0.2973   -1.7965 O   0  0  0  0  0  0  0  0  0  0  0  0
    0.7852   -0.9206   -3.1041 C   0  0  0  0  0  0  0  0  0  0  0  0
    1.8490   -0.1684   -3.9178 C   0  0  0  0  0  0  0  0  0  0  0  0
    1.1817   -2.3990   -3.0297 C   0  0  0  0  0  0  0  0  0  0  0  0
   -0.5775   -0.7239   -3.7765 C   0  0  0  0  0  0  0  0  0  0  0  0
   -2.7995   -0.6470    2.3353 C   0  0  0  0  0  0  0  0  0  0  0  0
   -1.9574   -1.2053    3.2662 O   0  0  0  0  0  0  0  0  0  0  0  0
   -2.5392   -1.8920    4.3663 C   0  0  0  0  0  0  0  0  0  0  0  0
   -4.1819   -0.8735    2.2970 C   0  0  0  0  0  0  0  0  0  0  0  0
   -6.8962   -0.8165    3.1192 H   0  0  0  0  0  0  0  0  0  0  0  0
   -6.6415   -2.2758    2.0834 H   0  0  0  0  0  0  0  0  0  0  0  0
   -8.0587   -1.2436    1.8577 H   0  0  0  0  0  0  0  0  0  0  0  0
   -5.0089    0.9313   -0.4422 H   0  0  0  0  0  0  0  0  0  0  0  0
   -3.8481    2.6534   -1.4488 H   0  0  0  0  0  0  0  0  0  0  0  0
   -3.4927    1.0877   -2.2810 H   0  0  0  0  0  0  0  0  0  0  0  0
   -2.3781    2.4528   -2.4086 H   0  0  0  0  0  0  0  0  0  0  0  0
    6.2958    2.0095   -0.7831 H   0  0  0  0  0  0  0  0  0  0  0  0
    4.9643    0.9780   -1.3093 H   0  0  0  0  0  0  0  0  0  0  0  0
    4.6427    2.6562   -0.9035 H   0  0  0  0  0  0  0  0  0  0  0  0
    4.9416    3.4704    1.5187 H   0  0  0  0  0  0  0  0  0  0  0  0
    6.5424    2.7070    1.6331 H   0  0  0  0  0  0  0  0  0  0  0  0
    5.2607    2.3146    2.7999 H   0  0  0  0  0  0  0  0  0  0  0  0
    5.4248   -0.1956    2.2550 H   0  0  0  0  0  0  0  0  0  0  0  0
    6.7848    0.2317    1.1920 H   0  0  0  0  0  0  0  0  0  0  0  0
    5.4368   -0.7282    0.5815 H   0  0  0  0  0  0  0  0  0  0  0  0
    1.6233    0.9038   -3.9594 H   0  0  0  0  0  0  0  0  0  0  0  0
    2.8350   -0.2567   -3.4461 H   0  0  0  0  0  0  0  0  0  0  0  0
    1.9210   -0.5475   -4.9427 H   0  0  0  0  0  0  0  0  0  0  0  0
    1.3281   -2.8228   -4.0290 H   0  0  0  0  0  0  0  0  0  0  0  0
    0.4187   -3.0023   -2.5290 H   0  0  0  0  0  0  0  0  0  0  0  0
    2.1076   -2.5254   -2.4584 H   0  0  0  0  0  0  0  0  0  0  0  0
   -1.3682   -1.2877   -3.2726 H   0  0  0  0  0  0  0  0  0  0  0  0
   -0.5573   -1.0507   -4.8216 H   0  0  0  0  0  0  0  0  0  0  0  0
   -0.8773    0.3299   -3.7461 H   0  0  0  0  0  0  0  0  0  0  0  0
   -3.0379   -2.8095    4.0354 H   0  0  0  0  0  0  0  0  0  0  0  0
   -1.7311   -2.1806    5.0456 H   0  0  0  0  0  0  0  0  0  0  0  0
   -3.2261   -1.2450    4.9227 H   0  0  0  0  0  0  0  0  0  0  0  0
   -4.6455   -1.5064    3.0415 H   0  0  0  0  0  0  0  0  0  0  0  0
  1  2  1  0
  2  3  1  0
  3  4  2  0
  4  5  1  0
  5  6  1  0
  6  7  1  0
  5  8  2  0
  8  9  1  0
  9 10  2  0
 10 11  1  0
 11 12  1  0
 12 13  1  0
 13 14  2  0
 13 15  1  0
 15 16  1  0
 16 17  1  0
 16 18  1  0
 16 19  1  0
 12 20  2  0
 20 21  1  0
 21 22  2  0
 21 23  1  0
 23 24  1  0
 24 25  1  0
 24 26  1  0
 24 27  1  0
  8 28  1  0
 28 29  1  0
 29 30  1  0
 28 31  2  0
 31  3  1  0
 20  9  1  0
  1 32  1  0
  1 33  1  0
  1 34  1  0
  4 35  1  0
  7 36  1  0
  7 37  1  0
  7 38  1  0
 17 39  1  0
 17 40  1  0
 17 41  1  0
 18 42  1  0
 18 43  1  0
 18 44  1  0
 19 45  1  0
 19 46  1  0
 19 47  1  0
 25 48  1  0
 25 49  1  0
 25 50  1  0
 26 51  1  0
 26 52  1  0
 26 53  1  0
 27 54  1  0
 27 55  1  0
 27 56  1  0
 30 57  1  0
 30 58  1  0
 30 59  1  0
 31 60  1  0
M  END
$$$$
