
     RDKit          3D

 36 37  0  0  0  0  0  0  0  0999 V2000
   -0.3728   -0.5555    1.6645 O   0  0  0  0  0  0  0  0  0  0  0  0
    0.1701   -0.6047    0.5649 C   0  0  0  0  0  0  0  0  0  0  0  0
   -0.5607   -0.9732   -0.7257 C   0  0  0  0  0  0  0  0  0  0  0  0
   -1.9668   -0.7829   -0.5805 O   0  0  0  0  0  0  0  0  0  0  0  0
   -2.6665   -1.0759   -1.6976 C   0  0  0  0  0  0  0  0  0  0  0  0
   -2.2322   -1.4612   -2.7677 O   0  0  0  0  0  0  0  0  0  0  0  0
   -4.0803   -0.8203   -1.4229 C   0  0  0  0  0  0  0  0  0  0  0  0
   -4.6442    0.4081   -1.7844 C   0  0  0  0  0  0  0  0  0  0  0  0
   -3.7244    1.6656   -2.5282 Cl  0  0  0  0  0  0  0  0  0  0  0  0
   -5.9977    0.6526   -1.5336 C   0  0  0  0  0  0  0  0  0  0  0  0
   -6.7858   -0.3253   -0.9253 C   0  0  0  0  0  0  0  0  0  0  0  0
   -6.2220   -1.5514   -0.5680 C   0  0  0  0  0  0  0  0  0  0  0  0
   -4.8684   -1.8026   -0.8168 C   0  0  0  0  0  0  0  0  0  0  0  0
   -4.2370   -3.3441   -0.3603 Cl  0  0  0  0  0  0  0  0  0  0  0  0
    1.5160   -0.3518    0.3849 N   0  0  0  0  0  0  0  0  0  0  0  0
    2.3225    0.1654    1.4770 C   0  0  0  0  0  0  0  0  0  0  0  0
    3.8056    0.1647    1.1094 C   0  0  0  0  0  0  0  0  0  0  0  0
    4.6923    0.7648    2.1889 C   0  0  0  0  0  0  0  0  0  0  0  0
    5.8226    1.3505    1.3803 C   0  0  0  0  0  0  0  0  0  0  0  0
    5.0947    1.8670    0.1593 C   0  0  0  0  0  0  0  0  0  0  0  0
    4.0114    0.9569   -0.0837 O   0  0  0  0  0  0  0  0  0  0  0  0
   -0.3491   -2.0295   -0.9330 H   0  0  0  0  0  0  0  0  0  0  0  0
   -0.1851   -0.3420   -1.5420 H   0  0  0  0  0  0  0  0  0  0  0  0
   -6.4438    1.6061   -1.8097 H   0  0  0  0  0  0  0  0  0  0  0  0
   -7.8391   -0.1323   -0.7296 H   0  0  0  0  0  0  0  0  0  0  0  0
   -6.8449   -2.3084   -0.0929 H   0  0  0  0  0  0  0  0  0  0  0  0
    1.8365   -0.0976   -0.5448 H   0  0  0  0  0  0  0  0  0  0  0  0
    2.1397   -0.4363    2.3744 H   0  0  0  0  0  0  0  0  0  0  0  0
    1.9701    1.1849    1.6678 H   0  0  0  0  0  0  0  0  0  0  0  0
    4.1341   -0.8538    0.8691 H   0  0  0  0  0  0  0  0  0  0  0  0
    5.0302    0.0242    2.9199 H   0  0  0  0  0  0  0  0  0  0  0  0
    4.1702    1.5669    2.7260 H   0  0  0  0  0  0  0  0  0  0  0  0
    6.5233    0.5579    1.0923 H   0  0  0  0  0  0  0  0  0  0  0  0
    6.3817    2.1298    1.9058 H   0  0  0  0  0  0  0  0  0  0  0  0
    4.6631    2.8564    0.3428 H   0  0  0  0  0  0  0  0  0  0  0  0
    5.7367    1.9269   -0.7245 H   0  0  0  0  0  0  0  0  0  0  0  0
  1  2  2  0
  2  3  1  0
  3  4  1  0
  4  5  1  0
  5  6  2  0
  5  7  1  0
  7  8  2  0
  8  9  1  0
  8 10  1  0
 10 11  2  0
 11 12  1  0
 12 13  2  0
 13 14  1  0
  2 15  1  0
 15 16  1  0
 16 17  1  0
 17 18  1  0
 18 19  1  0
 19 20  1  0
 20 21  1  0
 13  7  1  0
 21 17  1  0
  3 22  1  0
  3 23  1  0
 10 24  1  0
 11 25  1  0
 12 26  1  0
 15 27  1  0
 16 28  1  0
 16 29  1  0
 17 30  1  0
 18 31  1  0
 18 32  1  0
 19 33  1  0
 19 34  1  0
 20 35  1  0
 20 36  1  0
M  END
$$$$
