
     RDKit          3D

 48 49  0  0  0  0  0  0  0  0999 V2000
    1.9082   -0.5127    3.0045 C   0  0  0  0  0  0  0  0  0  0  0  0
    1.6149   -1.4646    1.9827 O   0  0  0  0  0  0  0  0  0  0  0  0
    1.2168   -0.8217    0.8337 C   0  0  0  0  0  0  0  0  0  0  0  0
   -0.1543   -0.6505    0.6202 C   0  0  0  0  0  0  0  0  0  0  0  0
   -0.6223   -0.0564   -0.5551 C   0  0  0  0  0  0  0  0  0  0  0  0
   -2.0148    0.0873   -0.7023 N   0  0  0  0  0  0  0  0  0  0  0  0
   -2.7072    0.6381   -1.7613 C   0  0  0  0  0  0  0  0  0  0  0  0
   -2.2184    1.1366   -2.7705 O   0  0  0  0  0  0  0  0  0  0  0  0
   -4.2389    0.5677   -1.5763 C   0  0  0  0  0  0  0  0  0  0  0  0
   -4.7635   -0.8720   -1.7318 C   0  0  0  0  0  0  0  0  0  0  0  0
   -5.1574   -1.5118   -0.4003 C   0  0  0  0  0  0  0  0  0  0  0  0
   -6.1014   -0.6190    0.4122 C   0  0  0  0  0  0  0  0  0  0  0  0
   -5.9812    0.8667    0.0581 C   0  0  0  0  0  0  0  0  0  0  0  0
   -4.5999    1.1770   -0.2703 N   0  0  0  0  0  0  0  0  0  0  0  0
    0.3044    0.3432   -1.5165 C   0  0  0  0  0  0  0  0  0  0  0  0
    1.6775    0.1648   -1.3051 C   0  0  0  0  0  0  0  0  0  0  0  0
    2.1460   -0.4137   -0.1242 C   0  0  0  0  0  0  0  0  0  0  0  0
    3.4690   -0.6673    0.1217 O   0  0  0  0  0  0  0  0  0  0  0  0
    4.3644    0.3719   -0.2890 C   0  0  0  0  0  0  0  0  0  0  0  0
    5.7897    0.0277    0.1658 C   0  0  0  0  0  0  0  0  0  0  0  0
    5.8738   -0.1857    1.6755 C   0  0  0  0  0  0  0  0  0  0  0  0
    6.7651    1.1135   -0.2798 C   0  0  0  0  0  0  0  0  0  0  0  0
    1.0495    0.1487    3.2004 H   0  0  0  0  0  0  0  0  0  0  0  0
    2.1215   -1.0689    3.9283 H   0  0  0  0  0  0  0  0  0  0  0  0
    2.7870    0.0843    2.7463 H   0  0  0  0  0  0  0  0  0  0  0  0
   -0.8428   -1.0015    1.3782 H   0  0  0  0  0  0  0  0  0  0  0  0
   -2.5936   -0.1352    0.0956 H   0  0  0  0  0  0  0  0  0  0  0  0
   -4.6727    1.1785   -2.3825 H   0  0  0  0  0  0  0  0  0  0  0  0
   -4.0342   -1.5136   -2.2357 H   0  0  0  0  0  0  0  0  0  0  0  0
   -5.6571   -0.8456   -2.3691 H   0  0  0  0  0  0  0  0  0  0  0  0
   -5.6208   -2.4956   -0.5724 H   0  0  0  0  0  0  0  0  0  0  0  0
   -4.2525   -1.7036    0.1878 H   0  0  0  0  0  0  0  0  0  0  0  0
   -7.1387   -0.9397    0.2592 H   0  0  0  0  0  0  0  0  0  0  0  0
   -5.8865   -0.7628    1.4776 H   0  0  0  0  0  0  0  0  0  0  0  0
   -6.3102    1.4740    0.9113 H   0  0  0  0  0  0  0  0  0  0  0  0
   -6.6411    1.1254   -0.7871 H   0  0  0  0  0  0  0  0  0  0  0  0
   -4.4709    2.1859   -0.3305 H   0  0  0  0  0  0  0  0  0  0  0  0
   -0.0059    0.7935   -2.4555 H   0  0  0  0  0  0  0  0  0  0  0  0
    2.3509    0.4610   -2.0971 H   0  0  0  0  0  0  0  0  0  0  0  0
    4.3676    0.4654   -1.3799 H   0  0  0  0  0  0  0  0  0  0  0  0
    4.0504    1.3256    0.1521 H   0  0  0  0  0  0  0  0  0  0  0  0
    6.0837   -0.9134   -0.3093 H   0  0  0  0  0  0  0  0  0  0  0  0
    5.3769   -1.1172    1.9512 H   0  0  0  0  0  0  0  0  0  0  0  0
    5.4026    0.6260    2.2281 H   0  0  0  0  0  0  0  0  0  0  0  0
    6.9138   -0.2619    2.0074 H   0  0  0  0  0  0  0  0  0  0  0  0
    6.7348    1.2389   -1.3728 H   0  0  0  0  0  0  0  0  0  0  0  0
    7.7950    0.8543   -0.0033 H   0  0  0  0  0  0  0  0  0  0  0  0
    6.5228    2.0787    0.1796 H   0  0  0  0  0  0  0  0  0  0  0  0
  1  2  1  0
  2  3  1  0
  3  4  2  0
  4  5  1  0
  5  6  1  0
  6  7  1  0
  7  8  2  0
  7  9  1  0
  9 10  1  0
 10 11  1  0
 11 12  1  0
 12 13  1  0
 13 14  1  0
  5 15  2  0
 15 16  1  0
 16 17  2  0
 17 18  1  0
 18 19  1  0
 19 20  1  0
 20 21  1  0
 20 22  1  0
 17  3  1  0
 14  9  1  0
  1 23  1  0
  1 24  1  0
  1 25  1  0
  4 26  1  0
  6 27  1  0
  9 28  1  0
 10 29  1  0
 10 30  1  0
 11 31  1  0
 11 32  1  0
 12 33  1  0
 12 34  1  0
 13 35  1  0
 13 36  1  0
 14 37  1  0
 15 38  1  0
 16 39  1  0
 19 40  1  0
 19 41  1  0
 20 42  1  0
 21 43  1  0
 21 44  1  0
 21 45  1  0
 22 46  1  0
 22 47  1  0
 22 48  1  0
M  END
$$$$
