
     RDKit          3D

 69 72  0  0  0  0  0  0  0  0999 V2000
    7.3599    3.3054    1.0530 C   0  0  0  0  0  0  0  0  0  0  0  0
    6.8328    1.8995    1.0395 C   0  0  0  0  0  0  0  0  0  0  0  0
    7.0564    1.0459    2.1311 C   0  0  0  0  0  0  0  0  0  0  0  0
    6.6079   -0.2777    2.1064 C   0  0  0  0  0  0  0  0  0  0  0  0
    5.9289   -0.7640    0.9899 C   0  0  0  0  0  0  0  0  0  0  0  0
    5.7012    0.0859   -0.0991 C   0  0  0  0  0  0  0  0  0  0  0  0
    4.9660   -0.4111   -1.2820 C   0  0  0  0  0  0  0  0  0  0  0  0
    5.5747   -0.4684   -2.3484 O   0  0  0  0  0  0  0  0  0  0  0  0
    3.6354   -0.8043   -1.1184 N   0  0  0  0  0  0  0  0  0  0  0  0
    2.9657   -1.4698   -2.2310 C   0  0  0  0  0  0  0  0  0  0  0  0
    2.1455   -2.6563   -1.7769 C   0  0  0  0  0  0  0  0  0  0  0  0
    0.7300   -2.3527   -1.3324 C   0  0  0  0  0  0  0  0  0  0  0  0
   -0.1794   -3.0706   -1.7588 O   0  0  0  0  0  0  0  0  0  0  0  0
    0.4939   -1.3718   -0.3726 N   0  0  0  0  0  0  0  0  0  0  0  0
   -0.9167   -1.1658    0.0784 C   0  0  0  0  0  0  0  0  0  0  0  0
   -1.7867   -0.5038   -1.0191 C   0  0  0  0  0  0  0  0  0  0  0  0
   -1.4923    0.8971   -1.1660 O   0  0  0  0  0  0  0  0  0  0  0  0
   -2.1589    1.7327   -0.2149 C   0  0  0  0  0  0  0  0  0  0  0  0
   -3.6414    1.8405   -0.4819 C   0  0  0  0  0  0  0  0  0  0  0  0
   -4.5660    1.5941    0.5417 C   0  0  0  0  0  0  0  0  0  0  0  0
   -5.9354    1.6802    0.2949 C   0  0  0  0  0  0  0  0  0  0  0  0
   -6.3954    2.0207   -0.9774 C   0  0  0  0  0  0  0  0  0  0  0  0
   -5.4894    2.2831   -2.0183 C   0  0  0  0  0  0  0  0  0  0  0  0
   -6.0003    2.6300   -3.3957 C   0  0  0  0  0  0  0  0  0  0  0  0
   -6.5564    1.5587   -4.0277 F   0  0  0  0  0  0  0  0  0  0  0  0
   -6.9673    3.5911   -3.3694 F   0  0  0  0  0  0  0  0  0  0  0  0
   -5.0359    3.1005   -4.2358 F   0  0  0  0  0  0  0  0  0  0  0  0
   -4.1132    2.1884   -1.7580 C   0  0  0  0  0  0  0  0  0  0  0  0
   -1.5781   -2.4571    0.6257 C   0  0  0  0  0  0  0  0  0  0  0  0
   -2.6468   -2.1591    1.6584 C   0  0  0  0  0  0  0  0  0  0  0  0
   -2.2893   -1.8022    2.9668 C   0  0  0  0  0  0  0  0  0  0  0  0
   -3.2712   -1.4917    3.9093 C   0  0  0  0  0  0  0  0  0  0  0  0
   -4.6185   -1.5417    3.5561 C   0  0  0  0  0  0  0  0  0  0  0  0
   -4.9852   -1.9056    2.2623 C   0  0  0  0  0  0  0  0  0  0  0  0
   -4.0042   -2.2104    1.3169 C   0  0  0  0  0  0  0  0  0  0  0  0
    1.3779   -0.2095   -0.1968 C   0  0  0  0  0  0  0  0  0  0  0  0
    2.8477   -0.5258    0.0854 C   0  0  0  0  0  0  0  0  0  0  0  0
    6.1642    1.4039   -0.0889 C   0  0  0  0  0  0  0  0  0  0  0  0
    8.3550    3.3414    0.6008 H   0  0  0  0  0  0  0  0  0  0  0  0
    7.4254    3.6890    2.0785 H   0  0  0  0  0  0  0  0  0  0  0  0
    6.6943    3.9731    0.4959 H   0  0  0  0  0  0  0  0  0  0  0  0
    7.5940    1.4068    3.0065 H   0  0  0  0  0  0  0  0  0  0  0  0
    6.7964   -0.9315    2.9561 H   0  0  0  0  0  0  0  0  0  0  0  0
    5.5992   -1.7987    0.9618 H   0  0  0  0  0  0  0  0  0  0  0  0
    2.3574   -0.7293   -2.7591 H   0  0  0  0  0  0  0  0  0  0  0  0
    3.7203   -1.8215   -2.9414 H   0  0  0  0  0  0  0  0  0  0  0  0
    2.6483   -3.2275   -0.9871 H   0  0  0  0  0  0  0  0  0  0  0  0
    2.0495   -3.3334   -2.6365 H   0  0  0  0  0  0  0  0  0  0  0  0
   -0.8396   -0.4778    0.9266 H   0  0  0  0  0  0  0  0  0  0  0  0
   -2.8548   -0.6383   -0.8289 H   0  0  0  0  0  0  0  0  0  0  0  0
   -1.5911   -0.9606   -1.9938 H   0  0  0  0  0  0  0  0  0  0  0  0
   -1.9535    1.3888    0.8041 H   0  0  0  0  0  0  0  0  0  0  0  0
   -1.7248    2.7359   -0.3013 H   0  0  0  0  0  0  0  0  0  0  0  0
   -4.2261    1.3181    1.5389 H   0  0  0  0  0  0  0  0  0  0  0  0
   -6.6414    1.4795    1.0983 H   0  0  0  0  0  0  0  0  0  0  0  0
   -7.4676    2.0813   -1.1597 H   0  0  0  0  0  0  0  0  0  0  0  0
   -3.3948    2.3745   -2.5580 H   0  0  0  0  0  0  0  0  0  0  0  0
   -2.0241   -3.0426   -0.1850 H   0  0  0  0  0  0  0  0  0  0  0  0
   -0.8280   -3.1068    1.0911 H   0  0  0  0  0  0  0  0  0  0  0  0
   -1.2425   -1.7655    3.2613 H   0  0  0  0  0  0  0  0  0  0  0  0
   -2.9849   -1.2189    4.9227 H   0  0  0  0  0  0  0  0  0  0  0  0
   -5.3804   -1.3029    4.2924 H   0  0  0  0  0  0  0  0  0  0  0  0
   -6.0363   -1.9552    1.9869 H   0  0  0  0  0  0  0  0  0  0  0  0
   -4.3108   -2.4912    0.3107 H   0  0  0  0  0  0  0  0  0  0  0  0
    1.2663    0.4394   -1.0712 H   0  0  0  0  0  0  0  0  0  0  0  0
    1.0183    0.3518    0.6719 H   0  0  0  0  0  0  0  0  0  0  0  0
    3.2803    0.3384    0.5985 H   0  0  0  0  0  0  0  0  0  0  0  0
    2.9357   -1.3894    0.7542 H   0  0  0  0  0  0  0  0  0  0  0  0
    6.0000    2.0348   -0.9619 H   0  0  0  0  0  0  0  0  0  0  0  0
  1  2  1  0
  2  3  2  0
  3  4  1  0
  4  5  2  0
  5  6  1  0
  6  7  1  0
  7  8  2  0
  7  9  1  0
  9 10  1  0
 10 11  1  0
 11 12  1  0
 12 13  2  0
 12 14  1  0
 14 15  1  0
 15 16  1  0
 16 17  1  0
 17 18  1  0
 18 19  1  0
 19 20  2  0
 20 21  1  0
 21 22  2  0
 22 23  1  0
 23 24  1  0
 24 25  1  0
 24 26  1  0
 24 27  1  0
 23 28  2  0
 15 29  1  0
 29 30  1  0
 30 31  2  0
 31 32  1  0
 32 33  2  0
 33 34  1  0
 34 35  2  0
 14 36  1  0
 36 37  1  0
  6 38  2  0
 38  2  1  0
 37  9  1  0
 28 19  1  0
 35 30  1  0
  1 39  1  0
  1 40  1  0
  1 41  1  0
  3 42  1  0
  4 43  1  0
  5 44  1  0
 10 45  1  0
 10 46  1  0
 11 47  1  0
 11 48  1  0
 15 49  1  0
 16 50  1  0
 16 51  1  0
 18 52  1  0
 18 53  1  0
 20 54  1  0
 21 55  1  0
 22 56  1  0
 28 57  1  0
 29 58  1  0
 29 59  1  0
 31 60  1  0
 32 61  1  0
 33 62  1  0
 34 63  1  0
 35 64  1  0
 36 65  1  0
 36 66  1  0
 37 67  1  0
 37 68  1  0
 38 69  1  0
M  END
$$$$
