
     RDKit          3D

 44 46  0  0  0  0  0  0  0  0999 V2000
   -5.5908    2.0809    0.1281 C   0  0  0  0  0  0  0  0  0  0  0  0
   -5.2313    0.6564    0.4512 C   0  0  0  0  0  0  0  0  0  0  0  0
   -5.7923    0.0399    1.5798 C   0  0  0  0  0  0  0  0  0  0  0  0
   -5.4701   -1.2770    1.9006 C   0  0  0  0  0  0  0  0  0  0  0  0
   -4.5842   -1.9881    1.0977 C   0  0  0  0  0  0  0  0  0  0  0  0
   -4.0179   -1.3866   -0.0293 C   0  0  0  0  0  0  0  0  0  0  0  0
   -4.3377   -0.0661   -0.3615 C   0  0  0  0  0  0  0  0  0  0  0  0
   -3.8268    0.6247   -1.4303 O   0  0  0  0  0  0  0  0  0  0  0  0
   -2.9875   -0.0662   -2.3459 C   0  0  0  0  0  0  0  0  0  0  0  0
   -1.5319   -0.2177   -1.8879 C   0  0  0  0  0  0  0  0  0  0  0  0
   -0.8184   -1.0936   -2.3675 O   0  0  0  0  0  0  0  0  0  0  0  0
   -1.1730    0.7339   -0.9610 N   0  0  0  0  0  0  0  0  0  0  0  0
    0.0487    0.8951   -0.3631 C   0  0  0  0  0  0  0  0  0  0  0  0
    0.2673    1.8170    0.5472 N   0  0  0  0  0  0  0  0  0  0  0  0
    1.5688    1.7998    1.0056 N   0  0  0  0  0  0  0  0  0  0  0  0
    2.2901    0.8630    0.4219 C   0  0  0  0  0  0  0  0  0  0  0  0
    3.7456    0.6158    0.7279 C   0  0  0  0  0  0  0  0  0  0  0  0
    4.6509    1.0128   -0.4524 C   0  0  0  0  0  0  0  0  0  0  0  0
    6.0491    0.4288   -0.2901 C   0  0  0  0  0  0  0  0  0  0  0  0
    6.0323   -1.1003   -0.2627 C   0  0  0  0  0  0  0  0  0  0  0  0
    4.7058   -1.6939    0.2141 C   0  0  0  0  0  0  0  0  0  0  0  0
    4.0196   -0.8090    1.2509 C   0  0  0  0  0  0  0  0  0  0  0  0
    1.4088   -0.0572   -0.7350 S   0  0  0  0  0  0  0  0  0  0  0  0
   -6.0469    2.1412   -0.8654 H   0  0  0  0  0  0  0  0  0  0  0  0
   -4.6969    2.7124    0.1578 H   0  0  0  0  0  0  0  0  0  0  0  0
   -6.3095    2.4878    0.8472 H   0  0  0  0  0  0  0  0  0  0  0  0
   -6.4848    0.5851    2.2178 H   0  0  0  0  0  0  0  0  0  0  0  0
   -5.9085   -1.7463    2.7776 H   0  0  0  0  0  0  0  0  0  0  0  0
   -4.3297   -3.0149    1.3492 H   0  0  0  0  0  0  0  0  0  0  0  0
   -3.3280   -1.9849   -0.6159 H   0  0  0  0  0  0  0  0  0  0  0  0
   -3.4056   -1.0410   -2.6222 H   0  0  0  0  0  0  0  0  0  0  0  0
   -2.9601    0.5329   -3.2636 H   0  0  0  0  0  0  0  0  0  0  0  0
   -1.8920    1.3605   -0.6165 H   0  0  0  0  0  0  0  0  0  0  0  0
    3.9927    1.2924    1.5600 H   0  0  0  0  0  0  0  0  0  0  0  0
    4.2366    0.6731   -1.4098 H   0  0  0  0  0  0  0  0  0  0  0  0
    4.7096    2.1065   -0.5174 H   0  0  0  0  0  0  0  0  0  0  0  0
    6.7018    0.7750   -1.0995 H   0  0  0  0  0  0  0  0  0  0  0  0
    6.4877    0.8032    0.6436 H   0  0  0  0  0  0  0  0  0  0  0  0
    6.8476   -1.4485    0.3830 H   0  0  0  0  0  0  0  0  0  0  0  0
    6.2504   -1.4913   -1.2640 H   0  0  0  0  0  0  0  0  0  0  0  0
    4.0413   -1.8319   -0.6472 H   0  0  0  0  0  0  0  0  0  0  0  0
    4.8817   -2.6929    0.6297 H   0  0  0  0  0  0  0  0  0  0  0  0
    4.6836   -0.7378    2.1233 H   0  0  0  0  0  0  0  0  0  0  0  0
    3.1038   -1.2929    1.6110 H   0  0  0  0  0  0  0  0  0  0  0  0
  1  2  1  0
  2  3  2  0
  3  4  1  0
  4  5  2  0
  5  6  1  0
  6  7  2  0
  7  8  1  0
  8  9  1  0
  9 10  1  0
 10 11  2  0
 10 12  1  0
 12 13  1  0
 13 14  2  0
 14 15  1  0
 15 16  2  0
 16 17  1  0
 17 18  1  0
 18 19  1  0
 19 20  1  0
 20 21  1  0
 21 22  1  0
 16 23  1  0
  7  2  1  0
 23 13  1  0
 22 17  1  0
  1 24  1  0
  1 25  1  0
  1 26  1  0
  3 27  1  0
  4 28  1  0
  5 29  1  0
  6 30  1  0
  9 31  1  0
  9 32  1  0
 12 33  1  0
 17 34  1  0
 18 35  1  0
 18 36  1  0
 19 37  1  0
 19 38  1  0
 20 39  1  0
 20 40  1  0
 21 41  1  0
 21 42  1  0
 22 43  1  0
 22 44  1  0
M  END
$$$$
