
     RDKit          3D

 36 38  0  0  0  0  0  0  0  0999 V2000
   -1.7964    0.7115   -3.2239 C   0  0  0  0  0  0  0  0  0  0  0  0
   -2.3567    0.1355   -1.9728 C   0  0  0  0  0  0  0  0  0  0  0  0
   -3.6781   -0.0606   -1.6222 C   0  0  0  0  0  0  0  0  0  0  0  0
   -3.7170   -0.6419   -0.3281 C   0  0  0  0  0  0  0  0  0  0  0  0
   -4.7615   -1.0519    0.5238 C   0  0  0  0  0  0  0  0  0  0  0  0
   -4.4558   -1.6017    1.7731 C   0  0  0  0  0  0  0  0  0  0  0  0
   -3.1320   -1.7454    2.1772 C   0  0  0  0  0  0  0  0  0  0  0  0
   -2.0790   -1.3462    1.3484 C   0  0  0  0  0  0  0  0  0  0  0  0
   -2.3960   -0.7957    0.0947 C   0  0  0  0  0  0  0  0  0  0  0  0
   -1.5869   -0.3169   -0.9209 N   0  0  0  0  0  0  0  0  0  0  0  0
   -0.1321   -0.2910   -0.8583 C   0  0  0  0  0  0  0  0  0  0  0  0
    0.3762    0.9505   -0.1253 C   0  0  0  0  0  0  0  0  0  0  0  0
    1.8264    1.0466   -0.1052 N   0  0  0  0  0  0  0  0  0  0  0  0
    2.5891    0.2218    0.7048 C   0  0  0  0  0  0  0  0  0  0  0  0
    2.0625   -0.6652    1.3727 O   0  0  0  0  0  0  0  0  0  0  0  0
    4.0163    0.4868    0.6920 C   0  0  0  0  0  0  0  0  0  0  0  0
    4.8130    1.3941    0.0120 C   0  0  0  0  0  0  0  0  0  0  0  0
    6.1496    1.1608    0.4247 C   0  0  0  0  0  0  0  0  0  0  0  0
    6.0958    0.1275    1.3291 C   0  0  0  0  0  0  0  0  0  0  0  0
    7.5929   -0.6274    2.2262 Br  0  0  0  0  0  0  0  0  0  0  0  0
    4.8143   -0.2860    1.4961 O   0  0  0  0  0  0  0  0  0  0  0  0
   -1.1227    1.5452   -3.0030 H   0  0  0  0  0  0  0  0  0  0  0  0
   -1.2446   -0.0492   -3.7850 H   0  0  0  0  0  0  0  0  0  0  0  0
   -2.5948    1.0909   -3.8701 H   0  0  0  0  0  0  0  0  0  0  0  0
   -4.5344    0.1888   -2.2353 H   0  0  0  0  0  0  0  0  0  0  0  0
   -5.7965   -0.9430    0.2143 H   0  0  0  0  0  0  0  0  0  0  0  0
   -5.2599   -1.9194    2.4317 H   0  0  0  0  0  0  0  0  0  0  0  0
   -2.9095   -2.1755    3.1510 H   0  0  0  0  0  0  0  0  0  0  0  0
   -1.0499   -1.4652    1.6762 H   0  0  0  0  0  0  0  0  0  0  0  0
    0.2592   -0.3244   -1.8808 H   0  0  0  0  0  0  0  0  0  0  0  0
    0.1978   -1.2173   -0.3760 H   0  0  0  0  0  0  0  0  0  0  0  0
    0.0189    0.9637    0.9110 H   0  0  0  0  0  0  0  0  0  0  0  0
    0.0054    1.8605   -0.6103 H   0  0  0  0  0  0  0  0  0  0  0  0
    2.2628    1.8207   -0.5836 H   0  0  0  0  0  0  0  0  0  0  0  0
    4.4836    2.1375   -0.6993 H   0  0  0  0  0  0  0  0  0  0  0  0
    7.0401    1.6815    0.1011 H   0  0  0  0  0  0  0  0  0  0  0  0
  1  2  1  0
  2  3  2  0
  3  4  1  0
  4  5  2  0
  5  6  1  0
  6  7  2  0
  7  8  1  0
  8  9  2  0
  9 10  1  0
 10 11  1  0
 11 12  1  0
 12 13  1  0
 13 14  1  0
 14 15  2  0
 14 16  1  0
 16 17  2  0
 17 18  1  0
 18 19  2  0
 19 20  1  0
 19 21  1  0
 10  2  1  0
 21 16  1  0
  9  4  1  0
  1 22  1  0
  1 23  1  0
  1 24  1  0
  3 25  1  0
  5 26  1  0
  6 27  1  0
  7 28  1  0
  8 29  1  0
 11 30  1  0
 11 31  1  0
 12 32  1  0
 12 33  1  0
 13 34  1  0
 17 35  1  0
 18 36  1  0
M  END
$$$$
