
     RDKit          3D

 47 49  0  0  0  0  0  0  0  0999 V2000
   -7.4053   -0.9508   -0.9045 C   0  0  0  0  0  0  0  0  0  0  0  0
   -6.2952   -0.6645   -1.9007 C   0  0  0  0  0  0  0  0  0  0  0  0
   -5.5520    0.4910   -1.5164 O   0  0  0  0  0  0  0  0  0  0  0  0
   -4.4870    0.3464   -0.6730 C   0  0  0  0  0  0  0  0  0  0  0  0
   -4.0701   -0.8365   -0.0593 C   0  0  0  0  0  0  0  0  0  0  0  0
   -2.9568   -0.8352    0.7874 C   0  0  0  0  0  0  0  0  0  0  0  0
   -2.2616    0.3549    1.0167 C   0  0  0  0  0  0  0  0  0  0  0  0
   -0.8488    0.3326    2.0892 S   0  0  0  0  0  6  0  0  0  0  0  0
   -0.2356    1.6446    2.0803 O   0  0  0  0  0  0  0  0  0  0  0  0
   -1.2544   -0.3059    3.3222 O   0  0  0  0  0  0  0  0  0  0  0  0
    0.2215   -0.7184    1.2730 N   0  0  0  0  0  0  0  0  0  0  0  0
    0.7459   -0.2150   -0.0380 C   0  0  0  0  0  0  0  0  0  0  0  0
    2.1754    0.3334    0.0777 C   0  0  0  0  0  0  0  0  0  0  0  0
    3.1121   -0.6678    0.6070 N   0  0  0  0  0  0  0  0  0  0  0  0
    4.4442   -0.7885    0.2289 C   0  0  0  0  0  0  0  0  0  0  0  0
    5.1136   -1.7959    0.4429 O   0  0  0  0  0  0  0  0  0  0  0  0
    5.1000    0.3400   -0.4660 C   0  0  0  0  0  0  0  0  0  0  0  0
    5.8046    0.0821   -1.6395 C   0  0  0  0  0  0  0  0  0  0  0  0
    6.4241    1.1485   -2.2613 C   0  0  0  0  0  0  0  0  0  0  0  0
    6.3884    2.4142   -1.7888 N   0  0  0  0  0  0  0  0  0  0  0  0
    5.7268    2.6230   -0.6296 C   0  0  0  0  0  0  0  0  0  0  0  0
    5.0739    1.6261    0.0701 C   0  0  0  0  0  0  0  0  0  0  0  0
    2.5174   -1.7491    1.3956 C   0  0  0  0  0  0  0  0  0  0  0  0
    1.2854   -1.2788    2.1744 C   0  0  0  0  0  0  0  0  0  0  0  0
   -2.6743    1.5457    0.4204 C   0  0  0  0  0  0  0  0  0  0  0  0
   -3.7861    1.5329   -0.4240 C   0  0  0  0  0  0  0  0  0  0  0  0
   -8.0191   -1.7912   -1.2411 H   0  0  0  0  0  0  0  0  0  0  0  0
   -8.0477   -0.0721   -0.7842 H   0  0  0  0  0  0  0  0  0  0  0  0
   -7.0045   -1.1876    0.0855 H   0  0  0  0  0  0  0  0  0  0  0  0
   -6.7532   -0.4288   -2.8682 H   0  0  0  0  0  0  0  0  0  0  0  0
   -5.6553   -1.5358   -2.0778 H   0  0  0  0  0  0  0  0  0  0  0  0
   -4.5926   -1.7755   -0.2067 H   0  0  0  0  0  0  0  0  0  0  0  0
   -2.6399   -1.7585    1.2682 H   0  0  0  0  0  0  0  0  0  0  0  0
    0.7221   -1.0569   -0.7412 H   0  0  0  0  0  0  0  0  0  0  0  0
    0.0927    0.5545   -0.4600 H   0  0  0  0  0  0  0  0  0  0  0  0
    2.5122    0.6756   -0.9056 H   0  0  0  0  0  0  0  0  0  0  0  0
    2.1959    1.1855    0.7657 H   0  0  0  0  0  0  0  0  0  0  0  0
    5.8707   -0.9195   -2.0499 H   0  0  0  0  0  0  0  0  0  0  0  0
    6.9860    1.0129   -3.1813 H   0  0  0  0  0  0  0  0  0  0  0  0
    5.7432    3.6468   -0.2658 H   0  0  0  0  0  0  0  0  0  0  0  0
    4.5787    1.8441    1.0090 H   0  0  0  0  0  0  0  0  0  0  0  0
    3.2659   -2.1525    2.0868 H   0  0  0  0  0  0  0  0  0  0  0  0
    2.2471   -2.5499    0.6964 H   0  0  0  0  0  0  0  0  0  0  0  0
    1.5978   -0.5144    2.8966 H   0  0  0  0  0  0  0  0  0  0  0  0
    0.8589   -2.1234    2.7261 H   0  0  0  0  0  0  0  0  0  0  0  0
   -2.1488    2.4794    0.6053 H   0  0  0  0  0  0  0  0  0  0  0  0
   -4.1161    2.4580   -0.8924 H   0  0  0  0  0  0  0  0  0  0  0  0
  1  2  1  0
  2  3  1  0
  3  4  1  0
  4  5  2  0
  5  6  1  0
  6  7  2  0
  7  8  1  0
  8  9  2  0
  8 10  2  0
  8 11  1  0
 11 12  1  0
 12 13  1  0
 13 14  1  0
 14 15  1  0
 15 16  2  0
 15 17  1  0
 17 18  2  0
 18 19  1  0
 19 20  2  0
 20 21  1  0
 21 22  2  0
 14 23  1  0
 23 24  1  0
  7 25  1  0
 25 26  2  0
 26  4  1  0
 24 11  1  0
 22 17  1  0
  1 27  1  0
  1 28  1  0
  1 29  1  0
  2 30  1  0
  2 31  1  0
  5 32  1  0
  6 33  1  0
 12 34  1  0
 12 35  1  0
 13 36  1  0
 13 37  1  0
 18 38  1  0
 19 39  1  0
 21 40  1  0
 22 41  1  0
 23 42  1  0
 23 43  1  0
 24 44  1  0
 24 45  1  0
 25 46  1  0
 26 47  1  0
M  END
$$$$
