
     RDKit          3D

 39 41  0  0  0  0  0  0  0  0999 V2000
   -6.0326    1.6105   -0.6589 O   0  0  0  0  0  0  0  0  0  0  0  0
   -4.9762    1.2277   -0.1917 C   0  0  0  0  0  0  0  0  0  0  0  0
   -4.0407    2.0993    0.2417 O   0  0  0  0  0  0  0  0  0  0  0  0
   -4.5829   -0.1698    0.0901 C   0  0  0  0  0  0  0  0  0  0  0  0
   -5.5183   -0.9286    0.7418 N   0  0  0  0  0  0  0  0  0  0  0  0
   -5.1381   -2.1882    1.0508 C   0  0  0  0  0  0  0  0  0  0  0  0
   -3.8802   -2.6804    0.7442 C   0  0  0  0  0  0  0  0  0  0  0  0
   -2.9464   -1.9406    0.1027 N   0  0  0  0  0  0  0  0  0  0  0  0
   -3.3271   -0.6662   -0.2306 C   0  0  0  0  0  0  0  0  0  0  0  0
   -2.3768    0.1169   -1.0668 C   0  0  0  0  0  0  0  0  0  0  0  0
   -2.8274    0.7278   -2.0360 O   0  0  0  0  0  0  0  0  0  0  0  0
   -1.0182    0.1110   -0.7544 N   0  0  0  0  0  0  0  0  0  0  0  0
   -0.0852    0.7928   -1.6520 C   0  0  0  0  0  0  0  0  0  0  0  0
    1.3396    0.2133   -1.5949 C   0  0  0  0  0  0  0  0  0  0  0  0
    1.8684    0.1891   -0.2189 N   0  0  0  0  0  0  0  0  0  0  0  0
    3.2322    0.2581    0.0229 C   0  0  0  0  0  0  0  0  0  0  0  0
    3.7502    0.7069    1.2493 C   0  0  0  0  0  0  0  0  0  0  0  0
    5.1277    0.7752    1.4951 C   0  0  0  0  0  0  0  0  0  0  0  0
    6.0312    0.3897    0.5131 C   0  0  0  0  0  0  0  0  0  0  0  0
    5.5539   -0.0625   -0.7103 C   0  0  0  0  0  0  0  0  0  0  0  0
    4.1746   -0.1253   -0.9465 C   0  0  0  0  0  0  0  0  0  0  0  0
    0.8897    0.1993    0.8792 C   0  0  0  0  0  0  0  0  0  0  0  0
   -0.4385   -0.4651    0.4651 C   0  0  0  0  0  0  0  0  0  0  0  0
   -4.4085    2.9728   -0.0137 H   0  0  0  0  0  0  0  0  0  0  0  0
   -5.8779   -2.7974    1.5594 H   0  0  0  0  0  0  0  0  0  0  0  0
   -3.5910   -3.6938    1.0022 H   0  0  0  0  0  0  0  0  0  0  0  0
   -0.0718    1.8470   -1.3486 H   0  0  0  0  0  0  0  0  0  0  0  0
   -0.4599    0.7520   -2.6807 H   0  0  0  0  0  0  0  0  0  0  0  0
    1.3339   -0.8105   -1.9882 H   0  0  0  0  0  0  0  0  0  0  0  0
    1.9699    0.8286   -2.2482 H   0  0  0  0  0  0  0  0  0  0  0  0
    3.0862    1.0406    2.0413 H   0  0  0  0  0  0  0  0  0  0  0  0
    5.4878    1.1353    2.4550 H   0  0  0  0  0  0  0  0  0  0  0  0
    7.0999    0.4407    0.7001 H   0  0  0  0  0  0  0  0  0  0  0  0
    6.2491   -0.3736   -1.4853 H   0  0  0  0  0  0  0  0  0  0  0  0
    3.8498   -0.5091   -1.9095 H   0  0  0  0  0  0  0  0  0  0  0  0
    0.7019    1.2371    1.1806 H   0  0  0  0  0  0  0  0  0  0  0  0
    1.2705   -0.3474    1.7501 H   0  0  0  0  0  0  0  0  0  0  0  0
   -0.2651   -1.5283    0.2602 H   0  0  0  0  0  0  0  0  0  0  0  0
   -1.1537   -0.3850    1.2898 H   0  0  0  0  0  0  0  0  0  0  0  0
  1  2  2  0
  2  3  1  0
  2  4  1  0
  4  5  2  0
  5  6  1  0
  6  7  2  0
  7  8  1  0
  8  9  2  0
  9 10  1  0
 10 11  2  0
 10 12  1  0
 12 13  1  0
 13 14  1  0
 14 15  1  0
 15 16  1  0
 16 17  2  0
 17 18  1  0
 18 19  2  0
 19 20  1  0
 20 21  2  0
 15 22  1  0
 22 23  1  0
  9  4  1  0
 23 12  1  0
 21 16  1  0
  3 24  1  0
  6 25  1  0
  7 26  1  0
 13 27  1  0
 13 28  1  0
 14 29  1  0
 14 30  1  0
 17 31  1  0
 18 32  1  0
 19 33  1  0
 20 34  1  0
 21 35  1  0
 22 36  1  0
 22 37  1  0
 23 38  1  0
 23 39  1  0
M  END
$$$$
