
     RDKit          3D

 45 49  0  0  0  0  0  0  0  0999 V2000
   -1.6724    1.0557    3.1704 O   0  0  0  0  0  0  0  0  0  0  0  0
   -1.6133    0.6559    2.0047 C   0  0  0  0  0  0  0  0  0  0  0  0
   -0.2931    0.3902    1.3922 C   0  0  0  0  0  0  0  0  0  0  0  0
    0.9359    0.9531    1.8102 C   0  0  0  0  0  0  0  0  0  0  0  0
    1.8969    0.4069    0.9959 C   0  0  0  0  0  0  0  0  0  0  0  0
    3.2458    0.6021    0.9419 N   0  0  0  0  0  0  0  0  0  0  0  0
    3.9243   -0.0703    0.0492 C   0  0  0  0  0  0  0  0  0  0  0  0
    5.3692    0.1536    0.0096 C   0  0  0  0  0  0  0  0  0  0  0  0
    6.0999    0.9977    0.8325 C   0  0  0  0  0  0  0  0  0  0  0  0
    7.4941    0.9951    0.5413 C   0  0  0  0  0  0  0  0  0  0  0  0
    7.7958    0.1484   -0.4990 C   0  0  0  0  0  0  0  0  0  0  0  0
    6.4055   -0.6302   -1.1110 S   0  0  0  0  0  0  0  0  0  0  0  0
    3.2742   -1.0345   -0.9051 C   0  0  0  0  0  0  0  0  0  0  0  0
    1.9389   -1.1913   -0.8106 C   0  0  0  0  0  0  0  0  0  0  0  0
    1.1522   -2.0987   -1.6772 C   0  0  0  0  0  0  0  0  0  0  0  0
    1.9574   -2.7559   -2.5607 F   0  0  0  0  0  0  0  0  0  0  0  0
    0.2383   -1.4421   -2.4327 F   0  0  0  0  0  0  0  0  0  0  0  0
    0.5048   -3.0654   -0.9816 F   0  0  0  0  0  0  0  0  0  0  0  0
    1.2306   -0.4741    0.1432 N   0  0  0  0  0  0  0  0  0  0  0  0
   -0.0956   -0.4956    0.3997 N   0  0  0  0  0  0  0  0  0  0  0  0
   -2.7738    0.3325    1.2839 N   0  0  0  0  0  0  0  0  0  0  0  0
   -3.9240   -0.1066    2.0652 C   0  0  0  0  0  0  0  0  0  0  0  0
   -4.6419   -1.2474    1.3672 C   0  0  0  0  0  0  0  0  0  0  0  0
   -5.1614   -0.7730    0.0211 C   0  0  0  0  0  0  0  0  0  0  0  0
   -4.1471    0.0487   -0.7347 C   0  0  0  0  0  0  0  0  0  0  0  0
   -4.3981    0.3132   -2.0931 C   0  0  0  0  0  0  0  0  0  0  0  0
   -3.5357    1.1171   -2.8319 C   0  0  0  0  0  0  0  0  0  0  0  0
   -2.4280    1.6832   -2.2144 C   0  0  0  0  0  0  0  0  0  0  0  0
   -2.1729    1.4328   -0.8625 C   0  0  0  0  0  0  0  0  0  0  0  0
   -3.0054    0.5931   -0.1072 C   0  0  0  0  0  0  0  0  0  0  0  0
    1.0939    1.6690    2.6046 H   0  0  0  0  0  0  0  0  0  0  0  0
    5.6447    1.5942    1.6160 H   0  0  0  0  0  0  0  0  0  0  0  0
    8.2345    1.5842    1.0689 H   0  0  0  0  0  0  0  0  0  0  0  0
    8.7679   -0.0508   -0.9297 H   0  0  0  0  0  0  0  0  0  0  0  0
    3.8663   -1.5732   -1.6325 H   0  0  0  0  0  0  0  0  0  0  0  0
   -3.5967   -0.4479    3.0543 H   0  0  0  0  0  0  0  0  0  0  0  0
   -4.5848    0.7555    2.2193 H   0  0  0  0  0  0  0  0  0  0  0  0
   -3.9466   -2.0842    1.2212 H   0  0  0  0  0  0  0  0  0  0  0  0
   -5.4711   -1.6162    1.9807 H   0  0  0  0  0  0  0  0  0  0  0  0
   -6.0539   -0.1533    0.1746 H   0  0  0  0  0  0  0  0  0  0  0  0
   -5.4601   -1.6444   -0.5737 H   0  0  0  0  0  0  0  0  0  0  0  0
   -5.2768   -0.1065   -2.5784 H   0  0  0  0  0  0  0  0  0  0  0  0
   -3.7361    1.3129   -3.8817 H   0  0  0  0  0  0  0  0  0  0  0  0
   -1.7618    2.3296   -2.7796 H   0  0  0  0  0  0  0  0  0  0  0  0
   -1.3202    1.9368   -0.4211 H   0  0  0  0  0  0  0  0  0  0  0  0
  1  2  2  0
  2  3  1  0
  3  4  1  0
  4  5  2  0
  5  6  1  0
  6  7  2  0
  7  8  1  0
  8  9  2  0
  9 10  1  0
 10 11  2  0
 11 12  1  0
  7 13  1  0
 13 14  2  0
 14 15  1  0
 15 16  1  0
 15 17  1  0
 15 18  1  0
 14 19  1  0
 19 20  1  0
  2 21  1  0
 21 22  1  0
 22 23  1  0
 23 24  1  0
 24 25  1  0
 25 26  2  0
 26 27  1  0
 27 28  2  0
 28 29  1  0
 29 30  2  0
 20  3  2  0
 30 21  1  0
 19  5  1  0
 30 25  1  0
 12  8  1  0
  4 31  1  0
  9 32  1  0
 10 33  1  0
 11 34  1  0
 13 35  1  0
 22 36  1  0
 22 37  1  0
 23 38  1  0
 23 39  1  0
 24 40  1  0
 24 41  1  0
 26 42  1  0
 27 43  1  0
 28 44  1  0
 29 45  1  0
M  END
$$$$
