
     RDKit          3D

 55 58  0  0  0  0  0  0  0  0999 V2000
   -5.7098   -4.2322    0.1150 C   0  0  0  0  0  0  0  0  0  0  0  0
   -6.2196   -3.0648    0.9513 C   0  0  0  0  0  0  0  0  0  0  0  0
   -7.6860   -2.7815    0.6451 C   0  0  0  0  0  0  0  0  0  0  0  0
   -5.4240   -1.9162    0.6043 O   0  0  0  0  0  0  0  0  0  0  0  0
   -5.3436   -0.9401    1.5426 C   0  0  0  0  0  0  0  0  0  0  0  0
   -5.8854   -0.9502    2.6365 O   0  0  0  0  0  0  0  0  0  0  0  0
   -4.4927    0.1812    1.0586 C   0  0  0  0  0  0  0  0  0  0  0  0
   -3.8692    0.1666   -0.1952 C   0  0  0  0  0  0  0  0  0  0  0  0
   -3.0787    1.2467   -0.5996 C   0  0  0  0  0  0  0  0  0  0  0  0
   -2.8993    2.3558    0.2400 C   0  0  0  0  0  0  0  0  0  0  0  0
   -2.0388    3.5130   -0.2024 C   0  0  0  0  0  0  0  0  0  0  0  0
   -0.6920    3.0447   -0.3137 O   0  0  0  0  0  0  0  0  0  0  0  0
    0.1946    4.0043   -0.6646 C   0  0  0  0  0  0  0  0  0  0  0  0
   -0.0691    5.1762   -0.8812 O   0  0  0  0  0  0  0  0  0  0  0  0
    1.5688    3.4395   -0.7524 C   0  0  0  0  0  0  0  0  0  0  0  0
    2.6239    4.3143   -1.0390 C   0  0  0  0  0  0  0  0  0  0  0  0
    3.9291    3.8333   -1.1322 C   0  0  0  0  0  0  0  0  0  0  0  0
    4.1875    2.4740   -0.9418 C   0  0  0  0  0  0  0  0  0  0  0  0
    3.1461    1.5774   -0.6564 C   0  0  0  0  0  0  0  0  0  0  0  0
    3.3895    0.1535   -0.4596 C   0  0  0  0  0  0  0  0  0  0  0  0
    2.5392   -0.8248   -0.2232 N   0  0  0  0  0  0  0  0  0  0  0  0
    3.2884   -1.9790   -0.1201 N   0  0  0  0  0  0  0  0  0  0  0  0
    4.5463   -1.6278   -0.2993 C   0  0  0  0  0  0  0  0  0  0  0  0
    5.7563   -2.4400   -0.2933 C   0  0  0  0  0  0  0  0  0  0  0  0
    7.0267   -1.8822   -0.5046 C   0  0  0  0  0  0  0  0  0  0  0  0
    8.1706   -2.6858   -0.4931 C   0  0  0  0  0  0  0  0  0  0  0  0
    8.0587   -4.0564   -0.2703 C   0  0  0  0  0  0  0  0  0  0  0  0
    6.8054   -4.6258   -0.0589 C   0  0  0  0  0  0  0  0  0  0  0  0
    5.6621   -3.8226   -0.0702 C   0  0  0  0  0  0  0  0  0  0  0  0
    4.6881   -0.2816   -0.5227 O   0  0  0  0  0  0  0  0  0  0  0  0
    1.8353    2.0748   -0.5631 C   0  0  0  0  0  0  0  0  0  0  0  0
   -3.5228    2.3652    1.4945 C   0  0  0  0  0  0  0  0  0  0  0  0
   -4.3142    1.2868    1.9001 C   0  0  0  0  0  0  0  0  0  0  0  0
   -5.7852   -4.0121   -0.9559 H   0  0  0  0  0  0  0  0  0  0  0  0
   -4.6502   -4.4157    0.3239 H   0  0  0  0  0  0  0  0  0  0  0  0
   -6.2704   -5.1480    0.3260 H   0  0  0  0  0  0  0  0  0  0  0  0
   -6.0911   -3.3149    2.0116 H   0  0  0  0  0  0  0  0  0  0  0  0
   -8.3099   -3.6565    0.8519 H   0  0  0  0  0  0  0  0  0  0  0  0
   -7.8186   -2.4949   -0.4042 H   0  0  0  0  0  0  0  0  0  0  0  0
   -8.0562   -1.9452    1.2471 H   0  0  0  0  0  0  0  0  0  0  0  0
   -3.9841   -0.6798   -0.8677 H   0  0  0  0  0  0  0  0  0  0  0  0
   -2.5945    1.2161   -1.5740 H   0  0  0  0  0  0  0  0  0  0  0  0
   -2.3948    3.8788   -1.1733 H   0  0  0  0  0  0  0  0  0  0  0  0
   -2.0903    4.3303    0.5272 H   0  0  0  0  0  0  0  0  0  0  0  0
    2.4324    5.3757   -1.1899 H   0  0  0  0  0  0  0  0  0  0  0  0
    4.7453    4.5174   -1.3539 H   0  0  0  0  0  0  0  0  0  0  0  0
    5.2149    2.1229   -1.0212 H   0  0  0  0  0  0  0  0  0  0  0  0
    7.1416   -0.8149   -0.6804 H   0  0  0  0  0  0  0  0  0  0  0  0
    9.1489   -2.2409   -0.6578 H   0  0  0  0  0  0  0  0  0  0  0  0
    8.9485   -4.6812   -0.2612 H   0  0  0  0  0  0  0  0  0  0  0  0
    6.7151   -5.6952    0.1155 H   0  0  0  0  0  0  0  0  0  0  0  0
    4.6902   -4.2851    0.0975 H   0  0  0  0  0  0  0  0  0  0  0  0
    1.0217    1.3846   -0.3408 H   0  0  0  0  0  0  0  0  0  0  0  0
   -3.3954    3.2094    2.1692 H   0  0  0  0  0  0  0  0  0  0  0  0
   -4.7893    1.3118    2.8793 H   0  0  0  0  0  0  0  0  0  0  0  0
  1  2  1  0
  2  3  1  0
  2  4  1  0
  4  5  1  0
  5  6  2  0
  5  7  1  0
  7  8  2  0
  8  9  1  0
  9 10  2  0
 10 11  1  0
 11 12  1  0
 12 13  1  0
 13 14  2  0
 13 15  1  0
 15 16  2  0
 16 17  1  0
 17 18  2  0
 18 19  1  0
 19 20  1  0
 20 21  2  0
 21 22  1  0
 22 23  2  0
 23 24  1  0
 24 25  2  0
 25 26  1  0
 26 27  2  0
 27 28  1  0
 28 29  2  0
 23 30  1  0
 19 31  2  0
 10 32  1  0
 32 33  2  0
 33  7  1  0
 31 15  1  0
 30 20  1  0
 29 24  1  0
  1 34  1  0
  1 35  1  0
  1 36  1  0
  2 37  1  0
  3 38  1  0
  3 39  1  0
  3 40  1  0
  8 41  1  0
  9 42  1  0
 11 43  1  0
 11 44  1  0
 16 45  1  0
 17 46  1  0
 18 47  1  0
 25 48  1  0
 26 49  1  0
 27 50  1  0
 28 51  1  0
 29 52  1  0
 31 53  1  0
 32 54  1  0
 33 55  1  0
M  END
$$$$
