
     RDKit          3D

 38 39  0  0  0  0  0  0  0  0999 V2000
    4.5777    0.6546    1.4823 C   0  0  0  0  0  0  0  0  0  0  0  0
    5.2325    0.1734    0.1942 C   0  0  0  0  0  0  0  0  0  0  0  0
    4.4068    0.4878   -1.0532 C   0  0  0  0  0  0  0  0  0  0  0  0
    3.1596   -0.3074   -1.1212 C   0  0  0  0  0  0  0  0  0  0  0  0
    2.9788   -1.5512   -1.5082 N   0  0  0  0  0  0  0  0  0  0  0  0
    1.6295   -1.8047   -1.3733 N   0  0  0  0  0  0  0  0  0  0  0  0
    1.0806   -0.6976   -0.9136 C   0  0  0  0  0  0  0  0  0  0  0  0
   -0.3109   -0.4077   -0.5867 C   0  0  0  0  0  0  0  0  0  0  0  0
   -0.7046    0.8439   -0.0824 C   0  0  0  0  0  0  0  0  0  0  0  0
   -2.0423    1.1018    0.2278 C   0  0  0  0  0  0  0  0  0  0  0  0
   -2.5157    2.2886    0.7249 O   0  0  0  0  0  0  0  0  0  0  0  0
   -1.6255    3.3959    0.7407 C   0  0  0  0  0  0  0  0  0  0  0  0
   -2.9905    0.0814    0.0454 C   0  0  0  0  0  0  0  0  0  0  0  0
   -4.3177    0.3421    0.3092 O   0  0  0  0  0  0  0  0  0  0  0  0
   -4.6227   -0.0169    1.6556 C   0  0  0  0  0  0  0  0  0  0  0  0
   -2.6251   -1.1700   -0.4768 C   0  0  0  0  0  0  0  0  0  0  0  0
   -3.6358   -2.0822   -0.6353 O   0  0  0  0  0  0  0  0  0  0  0  0
   -3.3227   -3.2989   -1.3003 C   0  0  0  0  0  0  0  0  0  0  0  0
   -1.2825   -1.4056   -0.7802 C   0  0  0  0  0  0  0  0  0  0  0  0
    1.9995    0.3049   -0.7297 O   0  0  0  0  0  0  0  0  0  0  0  0
    4.3752    1.7296    1.4416 H   0  0  0  0  0  0  0  0  0  0  0  0
    5.2402    0.4670    2.3333 H   0  0  0  0  0  0  0  0  0  0  0  0
    3.6350    0.1325    1.6724 H   0  0  0  0  0  0  0  0  0  0  0  0
    6.2088    0.6637    0.0993 H   0  0  0  0  0  0  0  0  0  0  0  0
    5.4222   -0.9045    0.2656 H   0  0  0  0  0  0  0  0  0  0  0  0
    4.1768    1.5589   -1.0940 H   0  0  0  0  0  0  0  0  0  0  0  0
    5.0086    0.2619   -1.9416 H   0  0  0  0  0  0  0  0  0  0  0  0
    0.0523    1.6075    0.0664 H   0  0  0  0  0  0  0  0  0  0  0  0
   -0.8133    3.2348    1.4568 H   0  0  0  0  0  0  0  0  0  0  0  0
   -2.1895    4.2737    1.0704 H   0  0  0  0  0  0  0  0  0  0  0  0
   -1.2350    3.6077   -0.2603 H   0  0  0  0  0  0  0  0  0  0  0  0
   -4.4745   -1.0885    1.8278 H   0  0  0  0  0  0  0  0  0  0  0  0
   -5.6788    0.2094    1.8309 H   0  0  0  0  0  0  0  0  0  0  0  0
   -4.0301    0.5664    2.3689 H   0  0  0  0  0  0  0  0  0  0  0  0
   -2.9272   -3.1130   -2.3044 H   0  0  0  0  0  0  0  0  0  0  0  0
   -4.2505   -3.8688   -1.4086 H   0  0  0  0  0  0  0  0  0  0  0  0
   -2.6293   -3.9030   -0.7063 H   0  0  0  0  0  0  0  0  0  0  0  0
   -0.9600   -2.3674   -1.1710 H   0  0  0  0  0  0  0  0  0  0  0  0
  1  2  1  0
  2  3  1  0
  3  4  1  0
  4  5  2  0
  5  6  1  0
  6  7  2  0
  7  8  1  0
  8  9  2  0
  9 10  1  0
 10 11  1  0
 11 12  1  0
 10 13  2  0
 13 14  1  0
 14 15  1  0
 13 16  1  0
 16 17  1  0
 17 18  1  0
 16 19  2  0
  7 20  1  0
 20  4  1  0
 19  8  1  0
  1 21  1  0
  1 22  1  0
  1 23  1  0
  2 24  1  0
  2 25  1  0
  3 26  1  0
  3 27  1  0
  9 28  1  0
 12 29  1  0
 12 30  1  0
 12 31  1  0
 15 32  1  0
 15 33  1  0
 15 34  1  0
 18 35  1  0
 18 36  1  0
 18 37  1  0
 19 38  1  0
M  END
$$$$
