
     RDKit          3D

 40 41  0  0  0  0  0  0  0  0999 V2000
    4.8873    1.6539   -1.6601 C   0  0  0  0  0  0  0  0  0  0  0  0
    4.4649    1.7348   -0.2052 C   0  0  0  0  0  0  0  0  0  0  0  0
    3.0873    1.3623   -0.0691 O   0  0  0  0  0  0  0  0  0  0  0  0
    2.8383    0.0258    0.0729 C   0  0  0  0  0  0  0  0  0  0  0  0
    3.7208   -0.8252    0.0956 O   0  0  0  0  0  0  0  0  0  0  0  0
    1.4121   -0.2840    0.2158 C   0  0  0  0  0  0  0  0  0  0  0  0
    0.3297    0.5735    0.0099 C   0  0  0  0  0  0  0  0  0  0  0  0
    0.3081    1.9923   -0.4577 C   0  0  0  0  0  0  0  0  0  0  0  0
   -0.8247   -0.1238    0.3193 N   0  0  0  0  0  0  0  0  0  0  0  0
   -2.1733    0.4414    0.3620 C   0  0  0  0  0  0  0  0  0  0  0  0
   -2.6955    0.4299   -0.9637 O   0  0  0  0  0  0  0  0  0  0  0  0
   -4.1174    0.5696   -1.0057 C   0  0  0  0  0  0  0  0  0  0  0  0
   -4.5881    1.9637   -0.5907 C   0  0  0  0  0  0  0  0  0  0  0  0
   -4.5368    2.0983    0.8289 O   0  0  0  0  0  0  0  0  0  0  0  0
   -0.5255   -1.4391    0.6219 C   0  0  0  0  0  0  0  0  0  0  0  0
   -1.3607   -2.5283    0.9340 C   0  0  0  0  0  0  0  0  0  0  0  0
   -0.7697   -3.7615    1.2229 C   0  0  0  0  0  0  0  0  0  0  0  0
    0.6102   -3.8958    1.1994 C   0  0  0  0  0  0  0  0  0  0  0  0
    1.2085   -5.0903    1.4815 O   0  0  0  0  0  0  0  0  0  0  0  0
    1.4370   -2.8191    0.8843 C   0  0  0  0  0  0  0  0  0  0  0  0
    0.8653   -1.5620    0.5810 C   0  0  0  0  0  0  0  0  0  0  0  0
    5.9189    1.9953   -1.7840 H   0  0  0  0  0  0  0  0  0  0  0  0
    4.8112    0.6286   -2.0355 H   0  0  0  0  0  0  0  0  0  0  0  0
    4.2332    2.2710   -2.2849 H   0  0  0  0  0  0  0  0  0  0  0  0
    5.1111    1.1253    0.4368 H   0  0  0  0  0  0  0  0  0  0  0  0
    4.5515    2.7689    0.1444 H   0  0  0  0  0  0  0  0  0  0  0  0
   -0.6712    2.2983   -0.8354 H   0  0  0  0  0  0  0  0  0  0  0  0
    0.5831    2.6637    0.3617 H   0  0  0  0  0  0  0  0  0  0  0  0
    1.0122    2.1380   -1.2832 H   0  0  0  0  0  0  0  0  0  0  0  0
   -2.0942    1.4618    0.7485 H   0  0  0  0  0  0  0  0  0  0  0  0
   -2.7796   -0.1580    1.0481 H   0  0  0  0  0  0  0  0  0  0  0  0
   -4.4099    0.3948   -2.0461 H   0  0  0  0  0  0  0  0  0  0  0  0
   -4.5793   -0.2107   -0.3900 H   0  0  0  0  0  0  0  0  0  0  0  0
   -5.6258    2.1168   -0.9019 H   0  0  0  0  0  0  0  0  0  0  0  0
   -3.9522    2.7380   -1.0307 H   0  0  0  0  0  0  0  0  0  0  0  0
   -4.8681    2.9898    1.0389 H   0  0  0  0  0  0  0  0  0  0  0  0
   -2.4414   -2.4295    0.9461 H   0  0  0  0  0  0  0  0  0  0  0  0
   -1.4096   -4.6049    1.4633 H   0  0  0  0  0  0  0  0  0  0  0  0
    0.5174   -5.7478    1.6598 H   0  0  0  0  0  0  0  0  0  0  0  0
    2.5149   -2.9558    0.8667 H   0  0  0  0  0  0  0  0  0  0  0  0
  1  2  1  0
  2  3  1  0
  3  4  1  0
  4  5  2  0
  4  6  1  0
  6  7  2  0
  7  8  1  0
  7  9  1  0
  9 10  1  0
 10 11  1  0
 11 12  1  0
 12 13  1  0
 13 14  1  0
  9 15  1  0
 15 16  2  0
 16 17  1  0
 17 18  2  0
 18 19  1  0
 18 20  1  0
 20 21  2  0
 21  6  1  0
 21 15  1  0
  1 22  1  0
  1 23  1  0
  1 24  1  0
  2 25  1  0
  2 26  1  0
  8 27  1  0
  8 28  1  0
  8 29  1  0
 10 30  1  0
 10 31  1  0
 12 32  1  0
 12 33  1  0
 13 34  1  0
 13 35  1  0
 14 36  1  0
 16 37  1  0
 17 38  1  0
 19 39  1  0
 20 40  1  0
M  END
$$$$
