
     RDKit          3D

 31 33  0  0  0  0  0  0  0  0999 V2000
    0.7389   -2.3721   -0.8723 O   0  0  0  0  0  0  0  0  0  0  0  0
   -0.1610   -2.3147   -0.0514 C   0  0  0  0  0  0  0  0  0  0  0  0
   -0.1647   -3.1058    1.0349 O   0  0  0  0  0  0  0  0  0  0  0  0
   -1.3279   -1.4011   -0.1218 C   0  0  0  0  0  0  0  0  0  0  0  0
   -2.3263   -1.4462    0.8650 C   0  0  0  0  0  0  0  0  0  0  0  0
   -3.4273   -0.5912    0.7943 C   0  0  0  0  0  0  0  0  0  0  0  0
   -3.5412    0.3103   -0.2607 C   0  0  0  0  0  0  0  0  0  0  0  0
   -2.5539    0.3630   -1.2459 C   0  0  0  0  0  0  0  0  0  0  0  0
   -1.4413   -0.4824   -1.1835 C   0  0  0  0  0  0  0  0  0  0  0  0
   -0.4453   -0.3805   -2.2131 N   0  0  0  0  0  0  0  0  0  0  0  0
    0.5210    1.0116   -2.2872 S   0  0  0  0  0  6  0  0  0  0  0  0
   -0.3015    2.1997   -2.3236 O   0  0  0  0  0  0  0  0  0  0  0  0
    1.4728    0.7600   -3.3524 O   0  0  0  0  0  0  0  0  0  0  0  0
    1.4331    0.9880   -0.7814 C   0  0  0  0  0  0  0  0  0  0  0  0
    2.7621    0.5005   -0.7704 C   0  0  0  0  0  0  0  0  0  0  0  0
    3.5645    0.4612    0.3930 C   0  0  0  0  0  0  0  0  0  0  0  0
    3.1139    0.9093    1.6440 C   0  0  0  0  0  0  0  0  0  0  0  0
    1.7934    1.4168    1.6898 C   0  0  0  0  0  0  0  0  0  0  0  0
    1.1815    1.8846    2.7878 N   0  0  0  0  0  0  0  0  0  0  0  0
   -0.3349    2.3609    2.3151 S   0  0  0  0  0  0  0  0  0  0  0  0
   -0.2872    1.9750    0.7067 N   0  0  0  0  0  0  0  0  0  0  0  0
    0.9273    1.4662    0.4487 C   0  0  0  0  0  0  0  0  0  0  0  0
    0.6437   -3.6543    0.9523 H   0  0  0  0  0  0  0  0  0  0  0  0
   -2.2584   -2.1447    1.6959 H   0  0  0  0  0  0  0  0  0  0  0  0
   -4.1967   -0.6286    1.5621 H   0  0  0  0  0  0  0  0  0  0  0  0
   -4.3962    0.9800   -0.3183 H   0  0  0  0  0  0  0  0  0  0  0  0
   -2.6587    1.0750   -2.0624 H   0  0  0  0  0  0  0  0  0  0  0  0
    0.1525   -1.2116   -2.3134 H   0  0  0  0  0  0  0  0  0  0  0  0
    3.2013    0.1294   -1.6992 H   0  0  0  0  0  0  0  0  0  0  0  0
    4.5786    0.0670    0.3129 H   0  0  0  0  0  0  0  0  0  0  0  0
    3.7378    0.8747    2.5295 H   0  0  0  0  0  0  0  0  0  0  0  0
  1  2  2  0
  2  3  1  0
  2  4  1  0
  4  5  2  0
  5  6  1  0
  6  7  2  0
  7  8  1  0
  8  9  2  0
  9 10  1  0
 10 11  1  0
 11 12  2  0
 11 13  2  0
 11 14  1  0
 14 15  2  0
 15 16  1  0
 16 17  2  0
 17 18  1  0
 18 19  2  0
 19 20  1  0
 20 21  1  0
 21 22  2  0
  9  4  1  0
 22 14  1  0
 22 18  1  0
  3 23  1  0
  5 24  1  0
  6 25  1  0
  7 26  1  0
  8 27  1  0
 10 28  1  0
 15 29  1  0
 16 30  1  0
 17 31  1  0
M  END
$$$$
