
     RDKit          3D

 39 41  0  0  0  0  0  0  0  0999 V2000
    5.7070    3.4360   -0.6803 C   0  0  0  0  0  0  0  0  0  0  0  0
    4.7299    2.3145   -0.9069 C   0  0  0  0  0  0  0  0  0  0  0  0
    3.8922    2.3507   -2.0322 C   0  0  0  0  0  0  0  0  0  0  0  0
    2.9800    1.3229   -2.2755 C   0  0  0  0  0  0  0  0  0  0  0  0
    2.8815    0.2475   -1.3954 C   0  0  0  0  0  0  0  0  0  0  0  0
    1.9541   -0.7752   -1.6298 N   0  0  0  0  0  0  0  0  0  0  0  0
    0.7779   -0.6765   -1.1131 C   0  0  0  0  0  0  0  0  0  0  0  0
    0.2950    0.3293   -0.3382 N   0  0  0  0  0  0  0  0  0  0  0  0
   -0.9916    0.2259    0.1048 C   0  0  0  0  0  0  0  0  0  0  0  0
   -1.5481    1.0553    0.8063 O   0  0  0  0  0  0  0  0  0  0  0  0
   -1.5981   -1.0399   -0.3961 C   0  0  0  0  0  0  0  0  0  0  0  0
   -2.8601   -1.3867   -0.1046 C   0  0  0  0  0  0  0  0  0  0  0  0
   -3.5433   -2.5911   -0.5401 C   0  0  0  0  0  0  0  0  0  0  0  0
   -4.7979   -2.9972   -0.2838 C   0  0  0  0  0  0  0  0  0  0  0  0
   -5.7765   -2.3204    0.4988 C   0  0  0  0  0  0  0  0  0  0  0  0
   -7.0813   -2.7314    0.7625 C   0  0  0  0  0  0  0  0  0  0  0  0
   -7.6970   -1.7561    1.5818 C   0  0  0  0  0  0  0  0  0  0  0  0
   -6.7463   -0.7912    1.7855 C   0  0  0  0  0  0  0  0  0  0  0  0
   -5.5996   -1.1179    1.1452 O   0  0  0  0  0  0  0  0  0  0  0  0
   -0.4430   -1.9001   -1.3494 S   0  0  0  0  0  0  0  0  0  0  0  0
    3.7287    0.1919   -0.2860 C   0  0  0  0  0  0  0  0  0  0  0  0
    4.6531    1.2173   -0.0258 C   0  0  0  0  0  0  0  0  0  0  0  0
    5.5432    1.1161    1.1826 C   0  0  0  0  0  0  0  0  0  0  0  0
    5.5422    3.8936    0.3002 H   0  0  0  0  0  0  0  0  0  0  0  0
    5.5948    4.2248   -1.4319 H   0  0  0  0  0  0  0  0  0  0  0  0
    6.7339    3.0621   -0.7419 H   0  0  0  0  0  0  0  0  0  0  0  0
    3.9493    3.1795   -2.7350 H   0  0  0  0  0  0  0  0  0  0  0  0
    2.3467    1.3595   -3.1578 H   0  0  0  0  0  0  0  0  0  0  0  0
    0.8507    1.1313   -0.0877 H   0  0  0  0  0  0  0  0  0  0  0  0
   -3.4269   -0.6983    0.5183 H   0  0  0  0  0  0  0  0  0  0  0  0
   -2.9550   -3.2632   -1.1655 H   0  0  0  0  0  0  0  0  0  0  0  0
   -5.1088   -3.9457   -0.7176 H   0  0  0  0  0  0  0  0  0  0  0  0
   -7.5337   -3.6431    0.3966 H   0  0  0  0  0  0  0  0  0  0  0  0
   -8.7043   -1.7578    1.9728 H   0  0  0  0  0  0  0  0  0  0  0  0
   -6.7267    0.1412    2.3322 H   0  0  0  0  0  0  0  0  0  0  0  0
    3.6650   -0.6681    0.3773 H   0  0  0  0  0  0  0  0  0  0  0  0
    6.5955    1.1154    0.8814 H   0  0  0  0  0  0  0  0  0  0  0  0
    5.3602    0.1916    1.7407 H   0  0  0  0  0  0  0  0  0  0  0  0
    5.3574    1.9537    1.8623 H   0  0  0  0  0  0  0  0  0  0  0  0
  1  2  1  0
  2  3  2  0
  3  4  1  0
  4  5  2  0
  5  6  1  0
  6  7  2  3
  7  8  1  0
  8  9  1  0
  9 10  2  0
  9 11  1  0
 11 12  2  3
 12 13  1  0
 13 14  2  3
 14 15  1  0
 15 16  2  0
 16 17  1  0
 17 18  2  0
 18 19  1  0
 11 20  1  0
  5 21  1  0
 21 22  2  0
 22 23  1  0
 22  2  1  0
 20  7  1  0
 19 15  1  0
  1 24  1  0
  1 25  1  0
  1 26  1  0
  3 27  1  0
  4 28  1  0
  8 29  1  0
 12 30  1  0
 13 31  1  0
 14 32  1  0
 16 33  1  0
 17 34  1  0
 18 35  1  0
 21 36  1  0
 23 37  1  0
 23 38  1  0
 23 39  1  0
M  END
$$$$
