
     RDKit          3D

 61 64  0  0  0  0  0  0  0  0999 V2000
   -4.9780   -5.3496   -2.3811 C   0  0  0  0  0  0  0  0  0  0  0  0
   -4.3758   -4.0616   -2.2434 O   0  0  0  0  0  0  0  0  0  0  0  0
   -4.0433   -3.7387   -0.9615 C   0  0  0  0  0  0  0  0  0  0  0  0
   -4.2159   -4.4577    0.0120 O   0  0  0  0  0  0  0  0  0  0  0  0
   -3.4160   -2.3669   -0.9343 C   0  0  0  0  0  0  0  0  0  0  0  0
   -3.1632   -1.9014    0.4971 C   0  0  0  0  0  0  0  0  0  0  0  0
   -2.5600   -0.5214    0.5230 C   0  0  0  0  0  0  0  0  0  0  0  0
   -1.2793   -0.1395    0.7373 C   0  0  0  0  0  0  0  0  0  0  0  0
   -0.2282   -1.1589    0.9118 C   0  0  0  0  0  0  0  0  0  0  0  0
    1.0822   -0.8482    1.0021 C   0  0  0  0  0  0  0  0  0  0  0  0
    2.1344   -1.9073    1.1567 C   0  0  0  0  0  0  0  0  0  0  0  0
    3.2654   -1.3321    1.9772 C   0  0  0  0  0  0  0  0  0  0  0  0
    3.5449   -1.7790    3.0892 O   0  0  0  0  0  0  0  0  0  0  0  0
    3.9629   -0.1123    1.3494 C   0  0  0  0  0  0  0  0  0  0  0  0
    5.0674    0.4281    2.2625 C   0  0  0  0  0  0  0  0  0  0  0  0
    4.4827   -0.2990    0.0165 O   0  0  0  0  0  0  0  0  0  0  0  0
    5.3098   -1.3549   -0.2146 C   0  0  0  0  0  0  0  0  0  0  0  0
    5.5506   -2.2177    0.6173 O   0  0  0  0  0  0  0  0  0  0  0  0
    5.8019   -1.2966   -1.5767 C   0  0  0  0  0  0  0  0  0  0  0  0
    5.5974   -0.3319   -2.5488 C   0  0  0  0  0  0  0  0  0  0  0  0
    6.2560   -0.6414   -3.7748 C   0  0  0  0  0  0  0  0  0  0  0  0
    6.9432   -1.8313   -3.7026 C   0  0  0  0  0  0  0  0  0  0  0  0
    6.7936   -2.5657   -2.1667 S   0  0  0  0  0  0  0  0  0  0  0  0
    2.9175    0.9839    1.1185 C   0  0  0  0  0  0  0  0  0  0  0  0
    3.2262    2.1716    1.0008 O   0  0  0  0  0  0  0  0  0  0  0  0
    1.4882    0.5517    0.9640 C   0  0  0  0  0  0  0  0  0  0  0  0
    0.5356    1.4912    0.8401 C   0  0  0  0  0  0  0  0  0  0  0  0
   -0.8327    1.2121    0.7407 N   0  0  0  0  0  0  0  0  0  0  0  0
   -1.7382    2.3202    0.7544 C   0  0  0  0  0  0  0  0  0  0  0  0
   -2.6833    2.4696    1.7817 C   0  0  0  0  0  0  0  0  0  0  0  0
   -3.5601    3.5612    1.8032 C   0  0  0  0  0  0  0  0  0  0  0  0
   -3.5014    4.5257    0.7980 C   0  0  0  0  0  0  0  0  0  0  0  0
   -4.2969    5.6333    0.6975 O   0  0  0  0  0  0  0  0  0  0  0  0
   -5.2590    5.8292    1.7262 C   0  0  0  0  0  0  0  0  0  0  0  0
   -2.5573    4.3909   -0.2220 C   0  0  0  0  0  0  0  0  0  0  0  0
   -1.6800    3.3030   -0.2436 C   0  0  0  0  0  0  0  0  0  0  0  0
   -5.9056   -5.4040   -1.8023 H   0  0  0  0  0  0  0  0  0  0  0  0
   -4.2795   -6.1330   -2.0706 H   0  0  0  0  0  0  0  0  0  0  0  0
   -5.2198   -5.4993   -3.4371 H   0  0  0  0  0  0  0  0  0  0  0  0
   -4.0934   -1.6683   -1.4393 H   0  0  0  0  0  0  0  0  0  0  0  0
   -2.4726   -2.4132   -1.4903 H   0  0  0  0  0  0  0  0  0  0  0  0
   -4.1133   -1.8647    1.0460 H   0  0  0  0  0  0  0  0  0  0  0  0
   -2.5533   -2.6315    1.0373 H   0  0  0  0  0  0  0  0  0  0  0  0
   -3.3007    0.2523    0.3263 H   0  0  0  0  0  0  0  0  0  0  0  0
   -0.5173   -2.2039    0.9409 H   0  0  0  0  0  0  0  0  0  0  0  0
    1.7462   -2.7960    1.6665 H   0  0  0  0  0  0  0  0  0  0  0  0
    2.5210   -2.2207    0.1819 H   0  0  0  0  0  0  0  0  0  0  0  0
    5.8128   -0.3426    2.4873 H   0  0  0  0  0  0  0  0  0  0  0  0
    5.6065    1.2563    1.7881 H   0  0  0  0  0  0  0  0  0  0  0  0
    4.6603    0.7850    3.2151 H   0  0  0  0  0  0  0  0  0  0  0  0
    5.0052    0.5625   -2.3905 H   0  0  0  0  0  0  0  0  0  0  0  0
    6.2289   -0.0210   -4.6627 H   0  0  0  0  0  0  0  0  0  0  0  0
    7.5297   -2.3065   -4.4774 H   0  0  0  0  0  0  0  0  0  0  0  0
    0.7805    2.5515    0.8478 H   0  0  0  0  0  0  0  0  0  0  0  0
   -2.7300    1.7359    2.5833 H   0  0  0  0  0  0  0  0  0  0  0  0
   -4.2698    3.6272    2.6208 H   0  0  0  0  0  0  0  0  0  0  0  0
   -4.7753    5.9548    2.7006 H   0  0  0  0  0  0  0  0  0  0  0  0
   -5.8032    6.7520    1.5034 H   0  0  0  0  0  0  0  0  0  0  0  0
   -5.9863    5.0108    1.7476 H   0  0  0  0  0  0  0  0  0  0  0  0
   -2.5029    5.1404   -1.0075 H   0  0  0  0  0  0  0  0  0  0  0  0
   -0.9594    3.2177   -1.0528 H   0  0  0  0  0  0  0  0  0  0  0  0
  1  2  1  0
  2  3  1  0
  3  4  2  0
  3  5  1  0
  5  6  1  0
  6  7  1  0
  7  8  2  3
  8  9  1  0
  9 10  2  0
 10 11  1  0
 11 12  1  0
 12 13  2  0
 12 14  1  0
 14 15  1  0
 14 16  1  0
 16 17  1  0
 17 18  2  0
 17 19  1  0
 19 20  2  0
 20 21  1  0
 21 22  2  0
 22 23  1  0
 14 24  1  0
 24 25  2  0
 24 26  1  0
 26 27  2  0
 27 28  1  0
 28 29  1  0
 29 30  2  0
 30 31  1  0
 31 32  2  0
 32 33  1  0
 33 34  1  0
 32 35  1  0
 35 36  2  0
 28  8  1  0
 36 29  1  0
 26 10  1  0
 23 19  1  0
  1 37  1  0
  1 38  1  0
  1 39  1  0
  5 40  1  0
  5 41  1  0
  6 42  1  0
  6 43  1  0
  7 44  1  0
  9 45  1  0
 11 46  1  0
 11 47  1  0
 15 48  1  0
 15 49  1  0
 15 50  1  0
 20 51  1  0
 21 52  1  0
 22 53  1  0
 27 54  1  0
 30 55  1  0
 31 56  1  0
 34 57  1  0
 34 58  1  0
 34 59  1  0
 35 60  1  0
 36 61  1  0
M  END
$$$$
