
     RDKit          3D

 45 46  0  0  0  0  0  0  0  0999 V2000
   -3.5185   -1.8871    2.5484 C   0  0  0  0  0  0  0  0  0  0  0  0
   -3.0924   -0.7647    1.7822 O   0  0  0  0  0  0  0  0  0  0  0  0
   -2.2695   -1.0710    0.7430 C   0  0  0  0  0  0  0  0  0  0  0  0
   -1.9226   -2.2060    0.4270 O   0  0  0  0  0  0  0  0  0  0  0  0
   -1.8366    0.1928   -0.0074 C   0  0  0  0  0  0  0  0  0  0  0  0
   -2.6894    0.3659   -1.2733 C   0  0  0  0  0  0  0  0  0  0  0  0
   -4.1191    0.7598   -0.9933 C   0  0  0  0  0  0  0  0  0  0  0  0
   -4.4384    2.0929   -0.6951 C   0  0  0  0  0  0  0  0  0  0  0  0
   -5.7582    2.4587   -0.4271 C   0  0  0  0  0  0  0  0  0  0  0  0
   -6.7693    1.4969   -0.4504 C   0  0  0  0  0  0  0  0  0  0  0  0
   -6.4621    0.1676   -0.7435 C   0  0  0  0  0  0  0  0  0  0  0  0
   -5.1433   -0.2010   -1.0145 C   0  0  0  0  0  0  0  0  0  0  0  0
   -0.4237    0.0141   -0.3749 N   0  0  0  0  0  0  0  0  0  0  0  0
    0.5752    0.3100    0.5330 C   0  0  0  0  0  0  0  0  0  0  0  0
    0.3716    0.8869    1.5969 O   0  0  0  0  0  0  0  0  0  0  0  0
    1.9363   -0.1668    0.0791 C   0  0  0  0  0  0  0  0  0  0  0  0
    3.0151    0.1814    1.0890 C   0  0  0  0  0  0  0  0  0  0  0  0
    4.3118   -0.3373    0.6861 N   0  0  0  0  0  0  0  0  0  0  0  0
    5.0874    0.2966   -0.2705 C   0  0  0  0  0  0  0  0  0  0  0  0
    4.7103    1.3341   -0.8067 O   0  0  0  0  0  0  0  0  0  0  0  0
    6.3483   -0.3597   -0.5691 C   0  0  0  0  0  0  0  0  0  0  0  0
    6.8886   -1.5887   -0.2210 C   0  0  0  0  0  0  0  0  0  0  0  0
    8.1690   -1.6671   -0.8142 C   0  0  0  0  0  0  0  0  0  0  0  0
    8.3396   -0.4837   -1.4988 C   0  0  0  0  0  0  0  0  0  0  0  0
    7.2467    0.3076   -1.3627 O   0  0  0  0  0  0  0  0  0  0  0  0
   -4.2332   -2.4847    1.9761 H   0  0  0  0  0  0  0  0  0  0  0  0
   -2.6630   -2.4982    2.8568 H   0  0  0  0  0  0  0  0  0  0  0  0
   -4.0137   -1.5165    3.4471 H   0  0  0  0  0  0  0  0  0  0  0  0
   -1.9159    1.0605    0.6604 H   0  0  0  0  0  0  0  0  0  0  0  0
   -2.6758   -0.5566   -1.8757 H   0  0  0  0  0  0  0  0  0  0  0  0
   -2.2416    1.1374   -1.9203 H   0  0  0  0  0  0  0  0  0  0  0  0
   -3.6615    2.8570   -0.6728 H   0  0  0  0  0  0  0  0  0  0  0  0
   -5.9978    3.4956   -0.2000 H   0  0  0  0  0  0  0  0  0  0  0  0
   -7.7964    1.7845   -0.2416 H   0  0  0  0  0  0  0  0  0  0  0  0
   -7.2513   -0.5824   -0.7620 H   0  0  0  0  0  0  0  0  0  0  0  0
   -4.9236   -1.2441   -1.2406 H   0  0  0  0  0  0  0  0  0  0  0  0
   -0.2275   -0.7281   -1.0357 H   0  0  0  0  0  0  0  0  0  0  0  0
    2.1585    0.2757   -0.8959 H   0  0  0  0  0  0  0  0  0  0  0  0
    1.8949   -1.2517   -0.0495 H   0  0  0  0  0  0  0  0  0  0  0  0
    3.0913    1.2628    1.2314 H   0  0  0  0  0  0  0  0  0  0  0  0
    2.7839   -0.2660    2.0599 H   0  0  0  0  0  0  0  0  0  0  0  0
    4.6772   -1.1453    1.1734 H   0  0  0  0  0  0  0  0  0  0  0  0
    6.4186   -2.3493    0.3825 H   0  0  0  0  0  0  0  0  0  0  0  0
    8.8805   -2.4811   -0.7557 H   0  0  0  0  0  0  0  0  0  0  0  0
    9.1392   -0.0713   -2.1003 H   0  0  0  0  0  0  0  0  0  0  0  0
  1  2  1  0
  2  3  1  0
  3  4  2  0
  3  5  1  0
  5  6  1  0
  6  7  1  0
  7  8  2  0
  8  9  1  0
  9 10  2  0
 10 11  1  0
 11 12  2  0
  5 13  1  0
 13 14  1  0
 14 15  2  0
 14 16  1  0
 16 17  1  0
 17 18  1  0
 18 19  1  0
 19 20  2  0
 19 21  1  0
 21 22  2  0
 22 23  1  0
 23 24  2  0
 24 25  1  0
 12  7  1  0
 25 21  1  0
  1 26  1  0
  1 27  1  0
  1 28  1  0
  5 29  1  0
  6 30  1  0
  6 31  1  0
  8 32  1  0
  9 33  1  0
 10 34  1  0
 11 35  1  0
 12 36  1  0
 13 37  1  0
 16 38  1  0
 16 39  1  0
 17 40  1  0
 17 41  1  0
 18 42  1  0
 22 43  1  0
 23 44  1  0
 24 45  1  0
M  END
$$$$
