
     RDKit          3D

 60 63  0  0  0  0  0  0  0  0999 V2000
   -6.4564    2.9389   -1.3981 C   0  0  0  0  0  0  0  0  0  0  0  0
   -6.0491    1.5781   -1.4115 O   0  0  0  0  0  0  0  0  0  0  0  0
   -4.7781    1.2836   -0.9815 C   0  0  0  0  0  0  0  0  0  0  0  0
   -3.8033    2.2414   -0.6798 C   0  0  0  0  0  0  0  0  0  0  0  0
   -2.5265    1.8524   -0.2598 C   0  0  0  0  0  0  0  0  0  0  0  0
   -1.5031    2.7192    0.0217 O   0  0  0  0  0  0  0  0  0  0  0  0
   -1.7615    4.1144   -0.0761 C   0  0  0  0  0  0  0  0  0  0  0  0
   -2.2088    0.4860   -0.1252 C   0  0  0  0  0  0  0  0  0  0  0  0
   -0.7889    0.0928    0.3002 C   0  0  0  0  0  0  0  0  0  0  0  0
    0.1558    0.0398   -0.9075 C   0  0  0  0  0  0  0  0  0  0  0  0
    1.5461    0.5206   -0.5154 C   0  0  0  0  0  0  0  0  0  0  0  0
    1.8760    1.6690   -0.8010 O   0  0  0  0  0  0  0  0  0  0  0  0
    2.3150   -0.3969    0.1774 N   0  0  0  0  0  0  0  0  0  0  0  0
    3.6139   -0.2179    0.7177 C   0  0  0  0  0  0  0  0  0  0  0  0
    4.3053    0.9953    0.6353 C   0  0  0  0  0  0  0  0  0  0  0  0
    5.5831    1.1372    1.1859 C   0  0  0  0  0  0  0  0  0  0  0  0
    6.2037    0.0647    1.8262 C   0  0  0  0  0  0  0  0  0  0  0  0
    7.5565    0.2293    2.4511 C   0  0  0  0  0  0  0  0  0  0  0  0
    5.5148   -1.1478    1.9280 C   0  0  0  0  0  0  0  0  0  0  0  0
    4.2292   -1.3076    1.3755 C   0  0  0  0  0  0  0  0  0  0  0  0
    3.5560   -2.6483    1.5274 C   0  0  0  0  0  0  0  0  0  0  0  0
    0.1691   -1.3382   -1.5487 C   0  0  0  0  0  0  0  0  0  0  0  0
    0.5422   -1.4221   -3.0081 C   0  0  0  0  0  0  0  0  0  0  0  0
   -0.0501   -2.4452   -0.9038 N   0  0  0  0  0  0  0  0  0  0  0  0
   -0.3705   -2.3606    0.4093 C   0  0  0  0  0  0  0  0  0  0  0  0
   -0.3595   -3.2888    1.3389 N   0  0  0  0  0  0  0  0  0  0  0  0
   -0.7363   -2.6234    2.4732 C   0  0  0  0  0  0  0  0  0  0  0  0
   -0.9628   -1.3170    2.3188 N   0  0  0  0  0  0  0  0  0  0  0  0
   -0.7537   -1.1826    1.0000 N   0  0  0  0  0  0  0  0  0  0  0  0
   -3.1923   -0.4703   -0.4482 C   0  0  0  0  0  0  0  0  0  0  0  0
   -4.4704   -0.0831   -0.8666 C   0  0  0  0  0  0  0  0  0  0  0  0
   -5.4741   -0.9585   -1.1986 O   0  0  0  0  0  0  0  0  0  0  0  0
   -5.2650   -2.3397   -0.9341 C   0  0  0  0  0  0  0  0  0  0  0  0
   -6.3825    3.3654   -0.3918 H   0  0  0  0  0  0  0  0  0  0  0  0
   -7.5079    2.9767   -1.6985 H   0  0  0  0  0  0  0  0  0  0  0  0
   -5.8841    3.5282   -2.1225 H   0  0  0  0  0  0  0  0  0  0  0  0
   -4.0375    3.2917   -0.7860 H   0  0  0  0  0  0  0  0  0  0  0  0
   -2.5430    4.4211    0.6270 H   0  0  0  0  0  0  0  0  0  0  0  0
   -0.8433    4.6433    0.1949 H   0  0  0  0  0  0  0  0  0  0  0  0
   -2.0175    4.3963   -1.1025 H   0  0  0  0  0  0  0  0  0  0  0  0
   -0.4290    0.8190    1.0424 H   0  0  0  0  0  0  0  0  0  0  0  0
   -0.1857    0.7398   -1.6837 H   0  0  0  0  0  0  0  0  0  0  0  0
    1.9441   -1.3318    0.2968 H   0  0  0  0  0  0  0  0  0  0  0  0
    3.8788    1.8675    0.1504 H   0  0  0  0  0  0  0  0  0  0  0  0
    6.0853    2.0989    1.1106 H   0  0  0  0  0  0  0  0  0  0  0  0
    8.1055   -0.7182    2.4526 H   0  0  0  0  0  0  0  0  0  0  0  0
    7.4520    0.5772    3.4831 H   0  0  0  0  0  0  0  0  0  0  0  0
    8.1597    0.9529    1.8925 H   0  0  0  0  0  0  0  0  0  0  0  0
    5.9862   -1.9819    2.4461 H   0  0  0  0  0  0  0  0  0  0  0  0
    4.2102   -3.3781    2.0171 H   0  0  0  0  0  0  0  0  0  0  0  0
    3.2954   -3.0566    0.5464 H   0  0  0  0  0  0  0  0  0  0  0  0
    2.6543   -2.5514    2.1395 H   0  0  0  0  0  0  0  0  0  0  0  0
    1.5957   -1.1490   -3.1253 H   0  0  0  0  0  0  0  0  0  0  0  0
   -0.0765   -0.7286   -3.5854 H   0  0  0  0  0  0  0  0  0  0  0  0
    0.3897   -2.4376   -3.3871 H   0  0  0  0  0  0  0  0  0  0  0  0
   -0.8372   -3.1044    3.4379 H   0  0  0  0  0  0  0  0  0  0  0  0
   -2.9555   -1.5266   -0.3748 H   0  0  0  0  0  0  0  0  0  0  0  0
   -5.0450   -2.5124    0.1248 H   0  0  0  0  0  0  0  0  0  0  0  0
   -4.4764   -2.7470   -1.5753 H   0  0  0  0  0  0  0  0  0  0  0  0
   -6.1922   -2.8692   -1.1712 H   0  0  0  0  0  0  0  0  0  0  0  0
  1  2  1  0
  2  3  1  0
  3  4  2  0
  4  5  1  0
  5  6  1  0
  6  7  1  0
  5  8  2  0
  8  9  1  0
  9 10  1  0
 10 11  1  0
 11 12  2  0
 11 13  1  0
 13 14  1  0
 14 15  2  0
 15 16  1  0
 16 17  2  0
 17 18  1  0
 17 19  1  0
 19 20  2  0
 20 21  1  0
 10 22  1  0
 22 23  1  0
 22 24  2  0
 24 25  1  0
 25 26  2  0
 26 27  1  0
 27 28  2  0
 28 29  1  0
  8 30  1  0
 30 31  2  0
 31 32  1  0
 32 33  1  0
 31  3  1  0
 29  9  1  0
 20 14  1  0
 29 25  1  0
  1 34  1  0
  1 35  1  0
  1 36  1  0
  4 37  1  0
  7 38  1  0
  7 39  1  0
  7 40  1  0
  9 41  1  0
 10 42  1  0
 13 43  1  0
 15 44  1  0
 16 45  1  0
 18 46  1  0
 18 47  1  0
 18 48  1  0
 19 49  1  0
 21 50  1  0
 21 51  1  0
 21 52  1  0
 23 53  1  0
 23 54  1  0
 23 55  1  0
 27 56  1  0
 30 57  1  0
 33 58  1  0
 33 59  1  0
 33 60  1  0
M  END
$$$$
