
     RDKit          3D

 51 56  0  0  0  0  0  0  0  0999 V2000
   -1.4984   -1.0499    2.4302 O   0  0  0  0  0  0  0  0  0  0  0  0
   -1.9870   -1.0897    1.2981 C   0  0  0  0  0  0  0  0  0  0  0  0
   -3.1740   -1.9596    1.0793 C   0  0  0  0  0  0  0  0  0  0  0  0
   -4.1841   -1.6200    0.1714 C   0  0  0  0  0  0  0  0  0  0  0  0
   -5.2841   -2.4666    0.0018 C   0  0  0  0  0  0  0  0  0  0  0  0
   -5.3775   -3.6440    0.7434 C   0  0  0  0  0  0  0  0  0  0  0  0
   -6.7328   -4.6819    0.5305 Cl  0  0  0  0  0  0  0  0  0  0  0  0
   -4.3843   -3.9813    1.6609 C   0  0  0  0  0  0  0  0  0  0  0  0
   -3.2849   -3.1365    1.8330 C   0  0  0  0  0  0  0  0  0  0  0  0
   -1.4554   -0.2898    0.1078 C   0  0  0  0  0  0  0  0  0  0  0  0
    0.0238   -0.3313    0.0369 C   0  0  0  0  0  0  0  0  0  0  0  0
    0.6198    0.9054    0.3338 C   0  0  0  0  0  0  0  0  0  0  0  0
    1.9775    0.6980    0.3997 C   0  0  0  0  0  0  0  0  0  0  0  0
    2.9477    1.4858    0.8601 O   0  0  0  0  0  0  0  0  0  0  0  0
    2.2295   -0.6254   -0.0159 N   0  0  0  0  0  0  0  0  0  0  0  0
    3.5148   -1.2523   -0.0768 C   0  0  0  0  0  0  0  0  0  0  0  0
    4.6501   -0.5063   -0.4228 C   0  0  0  0  0  0  0  0  0  0  0  0
    5.9045   -1.1209   -0.4874 C   0  0  0  0  0  0  0  0  0  0  0  0
    6.0295   -2.4770   -0.1963 C   0  0  0  0  0  0  0  0  0  0  0  0
    7.5740   -3.2302   -0.2745 Cl  0  0  0  0  0  0  0  0  0  0  0  0
    4.9115   -3.2254    0.1644 C   0  0  0  0  0  0  0  0  0  0  0  0
    3.6547   -2.6155    0.2272 C   0  0  0  0  0  0  0  0  0  0  0  0
    0.9930   -1.2383   -0.2864 C   0  0  0  0  0  0  0  0  0  0  0  0
    0.8321   -2.4585   -0.7954 O   0  0  0  0  0  0  0  0  0  0  0  0
   -0.4085    1.9406    0.6196 C   0  0  0  0  0  0  0  0  0  0  0  0
   -0.2967    3.1176   -0.3127 C   0  0  0  0  0  0  0  0  0  0  0  0
    0.8853    3.8193   -0.5894 C   0  0  0  0  0  0  0  0  0  0  0  0
    0.8693    4.9697   -1.3870 C   0  0  0  0  0  0  0  0  0  0  0  0
   -0.3300    5.4534   -1.9048 C   0  0  0  0  0  0  0  0  0  0  0  0
   -1.5193    4.7858   -1.6293 C   0  0  0  0  0  0  0  0  0  0  0  0
   -1.4910    3.6319   -0.8400 C   0  0  0  0  0  0  0  0  0  0  0  0
   -2.7500    2.9196   -0.5763 C   0  0  0  0  0  0  0  0  0  0  0  0
   -2.8347    1.7318   -0.0584 N   0  0  0  0  0  0  0  0  0  0  0  0
   -1.6564    1.1620    0.3583 N   0  0  0  0  0  0  0  0  0  0  0  0
   -4.1493   -0.6894   -0.3905 H   0  0  0  0  0  0  0  0  0  0  0  0
   -6.0677   -2.1961   -0.7016 H   0  0  0  0  0  0  0  0  0  0  0  0
   -4.4598   -4.8933    2.2471 H   0  0  0  0  0  0  0  0  0  0  0  0
   -2.5135   -3.3974    2.5557 H   0  0  0  0  0  0  0  0  0  0  0  0
   -1.8965   -0.5695   -0.8524 H   0  0  0  0  0  0  0  0  0  0  0  0
    2.5347    2.1573    1.4312 H   0  0  0  0  0  0  0  0  0  0  0  0
    4.5787    0.5496   -0.6733 H   0  0  0  0  0  0  0  0  0  0  0  0
    6.7762   -0.5342   -0.7652 H   0  0  0  0  0  0  0  0  0  0  0  0
    5.0126   -4.2784    0.4148 H   0  0  0  0  0  0  0  0  0  0  0  0
    2.8120   -3.2109    0.5736 H   0  0  0  0  0  0  0  0  0  0  0  0
    1.6492   -2.7115   -1.2617 H   0  0  0  0  0  0  0  0  0  0  0  0
   -0.4113    2.2496    1.6697 H   0  0  0  0  0  0  0  0  0  0  0  0
    1.8418    3.4936   -0.1971 H   0  0  0  0  0  0  0  0  0  0  0  0
    1.7998    5.4925   -1.5986 H   0  0  0  0  0  0  0  0  0  0  0  0
   -0.3350    6.3486   -2.5216 H   0  0  0  0  0  0  0  0  0  0  0  0
   -2.4535    5.1625   -2.0365 H   0  0  0  0  0  0  0  0  0  0  0  0
   -3.6864    3.4064   -0.8964 H   0  0  0  0  0  0  0  0  0  0  0  0
  1  2  2  0
  2  3  1  0
  3  4  2  0
  4  5  1  0
  5  6  2  0
  6  7  1  0
  6  8  1  0
  8  9  2  0
  2 10  1  0
 10 11  1  0
 11 12  1  0
 12 13  2  0
 13 14  1  0
 13 15  1  0
 15 16  1  0
 16 17  2  0
 17 18  1  0
 18 19  2  0
 19 20  1  0
 19 21  1  0
 21 22  2  0
 15 23  1  0
 23 24  1  0
 12 25  1  0
 25 26  1  0
 26 27  2  0
 27 28  1  0
 28 29  2  0
 29 30  1  0
 30 31  2  0
 31 32  1  0
 32 33  2  0
 33 34  1  0
  9  3  1  0
 34 10  1  0
 23 11  2  0
 34 25  1  0
 22 16  1  0
 31 26  1  0
  4 35  1  0
  5 36  1  0
  8 37  1  0
  9 38  1  0
 10 39  1  0
 14 40  1  0
 17 41  1  0
 18 42  1  0
 21 43  1  0
 22 44  1  0
 24 45  1  0
 25 46  1  0
 27 47  1  0
 28 48  1  0
 29 49  1  0
 30 50  1  0
 32 51  1  0
M  END
$$$$
