
     RDKit          3D

 54 57  0  0  0  0  0  0  0  0999 V2000
   -7.7694   -0.7393    2.4030 C   0  0  0  0  0  0  0  0  0  0  0  0
   -7.2979    0.4746    1.8279 O   0  0  0  0  0  0  0  0  0  0  0  0
   -6.0491    0.4426    1.2728 C   0  0  0  0  0  0  0  0  0  0  0  0
   -5.4922    1.6886    1.0012 C   0  0  0  0  0  0  0  0  0  0  0  0
   -4.2206    1.7905    0.4268 C   0  0  0  0  0  0  0  0  0  0  0  0
   -3.4753    0.6400    0.1162 C   0  0  0  0  0  0  0  0  0  0  0  0
   -2.1823    0.7981   -0.4780 N   0  0  0  0  0  0  0  0  0  0  0  0
   -1.8037    2.0420   -0.9010 N   0  0  0  0  0  0  0  0  0  0  0  0
   -0.6322    1.8735   -1.5076 C   0  0  0  0  0  0  0  0  0  0  0  0
   -0.1812    0.5527   -1.4335 C   0  0  0  0  0  0  0  0  0  0  0  0
   -1.1704   -0.1208   -0.7377 C   0  0  0  0  0  0  0  0  0  0  0  0
   -1.1052   -1.5672   -0.3729 C   0  0  0  0  0  0  0  0  0  0  0  0
    0.3441   -2.1316   -0.5040 C   0  0  0  0  0  0  0  0  0  0  0  0
    1.1651   -1.7802    0.7537 C   0  0  0  0  0  0  0  0  0  0  0  0
    0.2664   -3.6700   -0.5948 C   0  0  0  0  0  0  0  0  0  0  0  0
    1.0314   -1.5989   -1.8015 C   0  0  0  0  0  0  0  0  0  0  0  0
    1.0799   -0.0575   -1.9350 C   0  0  0  0  0  0  0  0  0  0  0  0
    2.1806    0.5228   -1.1996 N   0  0  0  0  0  0  0  0  0  0  0  0
    3.4821    0.4742   -1.6446 C   0  0  0  0  0  0  0  0  0  0  0  0
    3.8237   -0.0045   -2.7191 O   0  0  0  0  0  0  0  0  0  0  0  0
    4.4767    1.0592   -0.7034 C   0  0  0  0  0  0  0  0  0  0  0  0
    5.8232    1.0656   -1.0273 C   0  0  0  0  0  0  0  0  0  0  0  0
    6.7637    1.5887   -0.1988 N   0  0  0  0  0  0  0  0  0  0  0  0
    6.3040    2.1059    0.9682 C   0  0  0  0  0  0  0  0  0  0  0  0
    7.2996    2.7143    1.9057 C   0  0  0  0  0  0  0  0  0  0  0  0
    4.9460    2.0963    1.2828 C   0  0  0  0  0  0  0  0  0  0  0  0
    3.9991    1.5733    0.4667 N   0  0  0  0  0  0  0  0  0  0  0  0
   -4.0487   -0.6073    0.3747 C   0  0  0  0  0  0  0  0  0  0  0  0
   -5.3234   -0.7050    0.9558 C   0  0  0  0  0  0  0  0  0  0  0  0
   -7.9338   -1.5055    1.6380 H   0  0  0  0  0  0  0  0  0  0  0  0
   -7.0834   -1.0950    3.1813 H   0  0  0  0  0  0  0  0  0  0  0  0
   -8.7341   -0.5325    2.8775 H   0  0  0  0  0  0  0  0  0  0  0  0
   -6.0475    2.5930    1.2391 H   0  0  0  0  0  0  0  0  0  0  0  0
   -3.8228    2.7862    0.2352 H   0  0  0  0  0  0  0  0  0  0  0  0
   -0.1472    2.7291   -1.9610 H   0  0  0  0  0  0  0  0  0  0  0  0
   -1.4593   -1.7294    0.6507 H   0  0  0  0  0  0  0  0  0  0  0  0
   -1.7628   -2.1155   -1.0592 H   0  0  0  0  0  0  0  0  0  0  0  0
    0.7729   -2.3039    1.6334 H   0  0  0  0  0  0  0  0  0  0  0  0
    1.1364   -0.7122    0.9865 H   0  0  0  0  0  0  0  0  0  0  0  0
    2.2128   -2.0736    0.6345 H   0  0  0  0  0  0  0  0  0  0  0  0
   -0.3012   -3.9876   -1.4770 H   0  0  0  0  0  0  0  0  0  0  0  0
   -0.2271   -4.0942    0.2873 H   0  0  0  0  0  0  0  0  0  0  0  0
    1.2657   -4.1137   -0.6672 H   0  0  0  0  0  0  0  0  0  0  0  0
    0.4617   -1.9837   -2.6606 H   0  0  0  0  0  0  0  0  0  0  0  0
    2.0400   -2.0230   -1.8932 H   0  0  0  0  0  0  0  0  0  0  0  0
    1.2200    0.1938   -2.9941 H   0  0  0  0  0  0  0  0  0  0  0  0
    2.0297    0.9115   -0.2712 H   0  0  0  0  0  0  0  0  0  0  0  0
    6.1895    0.6482   -1.9587 H   0  0  0  0  0  0  0  0  0  0  0  0
    7.1632    3.7995    1.9433 H   0  0  0  0  0  0  0  0  0  0  0  0
    8.3225    2.5073    1.5738 H   0  0  0  0  0  0  0  0  0  0  0  0
    7.1813    2.3020    2.9121 H   0  0  0  0  0  0  0  0  0  0  0  0
    4.5785    2.5148    2.2150 H   0  0  0  0  0  0  0  0  0  0  0  0
   -3.5618   -1.5383    0.1183 H   0  0  0  0  0  0  0  0  0  0  0  0
   -5.7266   -1.6978    1.1309 H   0  0  0  0  0  0  0  0  0  0  0  0
  1  2  1  0
  2  3  1  0
  3  4  2  0
  4  5  1  0
  5  6  2  0
  6  7  1  0
  7  8  1  0
  8  9  2  0
  9 10  1  0
 10 11  2  0
 11 12  1  0
 12 13  1  0
 13 14  1  0
 13 15  1  0
 13 16  1  0
 16 17  1  0
 17 18  1  0
 18 19  1  0
 19 20  2  0
 19 21  1  0
 21 22  2  0
 22 23  1  0
 23 24  2  0
 24 25  1  0
 24 26  1  0
 26 27  2  0
  6 28  1  0
 28 29  2  0
 29  3  1  0
 11  7  1  0
 27 21  1  0
 17 10  1  0
  1 30  1  0
  1 31  1  0
  1 32  1  0
  4 33  1  0
  5 34  1  0
  9 35  1  0
 12 36  1  0
 12 37  1  0
 14 38  1  0
 14 39  1  0
 14 40  1  0
 15 41  1  0
 15 42  1  0
 15 43  1  0
 16 44  1  0
 16 45  1  0
 17 46  1  0
 18 47  1  0
 22 48  1  0
 25 49  1  0
 25 50  1  0
 25 51  1  0
 26 52  1  0
 28 53  1  0
 29 54  1  0
M  END
$$$$
