
     RDKit          3D

 55 57  0  0  0  0  0  0  0  0999 V2000
    2.5982    0.3597   -0.6708 C   0  0  0  0  0  0  0  0  0  0  0  0
    1.9096    0.8145    0.6202 C   0  0  0  0  0  0  0  0  0  0  0  0
    2.2153    2.3023    0.8427 C   0  0  0  0  0  0  0  0  0  0  0  0
    0.3892    0.5547    0.5745 C   0  0  0  0  0  0  0  0  0  0  0  0
   -0.2253    1.0394    1.8437 N   0  0  0  0  0  0  0  0  0  0  0  0
   -1.8789    1.3456    1.8233 S   0  0  0  0  0  6  0  0  0  0  0  0
   -2.3232    1.3052    3.1976 O   0  0  0  0  0  0  0  0  0  0  0  0
   -2.4803    0.5231    0.7978 O   0  0  0  0  0  0  0  0  0  0  0  0
   -1.9091    3.0389    1.2991 C   0  0  0  0  0  0  0  0  0  0  0  0
   -1.5781    4.0440    2.2151 C   0  0  0  0  0  0  0  0  0  0  0  0
   -1.6066    5.3792    1.8107 C   0  0  0  0  0  0  0  0  0  0  0  0
   -1.9720    5.7006    0.5037 C   0  0  0  0  0  0  0  0  0  0  0  0
   -2.2853    4.6874   -0.4112 C   0  0  0  0  0  0  0  0  0  0  0  0
   -2.2746    3.3535   -0.0122 C   0  0  0  0  0  0  0  0  0  0  0  0
   -2.6207    4.9335   -1.7180 O   0  0  0  0  0  0  0  0  0  0  0  0
   -2.2828    6.2713   -2.1034 C   0  0  0  0  0  0  0  0  0  0  0  0
   -2.7127    7.2637   -1.0359 C   0  0  0  0  0  0  0  0  0  0  0  0
   -1.9971    7.0339    0.1835 O   0  0  0  0  0  0  0  0  0  0  0  0
    0.0748   -0.9422    0.4770 C   0  0  0  0  0  0  0  0  0  0  0  0
    0.0711   -1.7054    1.4381 O   0  0  0  0  0  0  0  0  0  0  0  0
   -0.2165   -1.2972   -0.8047 O   0  0  0  0  0  0  0  0  0  0  0  0
   -0.5800   -2.6684   -0.9458 C   0  0  0  0  0  0  0  0  0  0  0  0
    0.6049   -3.6369   -0.8185 C   0  0  0  0  0  0  0  0  0  0  0  0
    1.7549   -3.2706   -1.0442 O   0  0  0  0  0  0  0  0  0  0  0  0
    0.2102   -4.9142   -0.4584 N   0  0  0  0  0  0  0  0  0  0  0  0
    1.0225   -6.0588   -0.2542 C   0  0  0  0  0  0  0  0  0  0  0  0
    2.4105   -6.0466   -0.4270 C   0  0  0  0  0  0  0  0  0  0  0  0
    3.1674   -7.2018   -0.2117 C   0  0  0  0  0  0  0  0  0  0  0  0
    2.5462   -8.3853    0.1782 C   0  0  0  0  0  0  0  0  0  0  0  0
    1.1622   -8.4200    0.3547 C   0  0  0  0  0  0  0  0  0  0  0  0
    0.4591   -9.9248    0.8369 Cl  0  0  0  0  0  0  0  0  0  0  0  0
    0.3974   -7.2631    0.1402 C   0  0  0  0  0  0  0  0  0  0  0  0
   -1.3312   -7.2876    0.3500 Cl  0  0  0  0  0  0  0  0  0  0  0  0
    3.6676    0.5958   -0.6458 H   0  0  0  0  0  0  0  0  0  0  0  0
    2.5112   -0.7209   -0.8083 H   0  0  0  0  0  0  0  0  0  0  0  0
    2.1640    0.8522   -1.5474 H   0  0  0  0  0  0  0  0  0  0  0  0
    2.3503    0.2509    1.4534 H   0  0  0  0  0  0  0  0  0  0  0  0
    3.2958    2.4826    0.8342 H   0  0  0  0  0  0  0  0  0  0  0  0
    1.7631    2.9205    0.0595 H   0  0  0  0  0  0  0  0  0  0  0  0
    1.8382    2.6491    1.8100 H   0  0  0  0  0  0  0  0  0  0  0  0
   -0.0550    1.0888   -0.2737 H   0  0  0  0  0  0  0  0  0  0  0  0
    0.0358    0.5111    2.6815 H   0  0  0  0  0  0  0  0  0  0  0  0
   -1.3028    3.7936    3.2375 H   0  0  0  0  0  0  0  0  0  0  0  0
   -1.3579    6.1686    2.5150 H   0  0  0  0  0  0  0  0  0  0  0  0
   -2.5388    2.5761   -0.7242 H   0  0  0  0  0  0  0  0  0  0  0  0
   -1.2017    6.3187   -2.2835 H   0  0  0  0  0  0  0  0  0  0  0  0
   -2.7957    6.4840   -3.0466 H   0  0  0  0  0  0  0  0  0  0  0  0
   -2.4957    8.2862   -1.3601 H   0  0  0  0  0  0  0  0  0  0  0  0
   -3.7877    7.1913   -0.8290 H   0  0  0  0  0  0  0  0  0  0  0  0
   -1.3766   -2.9229   -0.2361 H   0  0  0  0  0  0  0  0  0  0  0  0
   -0.9914   -2.7930   -1.9534 H   0  0  0  0  0  0  0  0  0  0  0  0
   -0.7778   -5.0625   -0.2703 H   0  0  0  0  0  0  0  0  0  0  0  0
    2.9426   -5.1491   -0.7284 H   0  0  0  0  0  0  0  0  0  0  0  0
    4.2465   -7.1720   -0.3491 H   0  0  0  0  0  0  0  0  0  0  0  0
    3.1470   -9.2768    0.3431 H   0  0  0  0  0  0  0  0  0  0  0  0
  1  2  1  0
  2  3  1  0
  2  4  1  0
  4  5  1  0
  5  6  1  0
  6  7  2  0
  6  8  2  0
  6  9  1  0
  9 10  2  0
 10 11  1  0
 11 12  2  0
 12 13  1  0
 13 14  2  0
 13 15  1  0
 15 16  1  0
 16 17  1  0
 17 18  1  0
  4 19  1  0
 19 20  2  0
 19 21  1  0
 21 22  1  0
 22 23  1  0
 23 24  2  0
 23 25  1  0
 25 26  1  0
 26 27  2  0
 27 28  1  0
 28 29  2  0
 29 30  1  0
 30 31  1  0
 30 32  2  0
 32 33  1  0
 14  9  1  0
 32 26  1  0
 18 12  1  0
  1 34  1  0
  1 35  1  0
  1 36  1  0
  2 37  1  0
  3 38  1  0
  3 39  1  0
  3 40  1  0
  4 41  1  0
  5 42  1  0
 10 43  1  0
 11 44  1  0
 14 45  1  0
 16 46  1  0
 16 47  1  0
 17 48  1  0
 17 49  1  0
 22 50  1  0
 22 51  1  0
 25 52  1  0
 27 53  1  0
 28 54  1  0
 29 55  1  0
M  END
$$$$
