
     RDKit          3D

 33 35  0  0  0  0  0  0  0  0999 V2000
    4.7938    0.2943    0.9044 C   0  0  0  0  0  0  0  0  0  0  0  0
    3.5944    0.2912    0.0446 C   0  0  0  0  0  0  0  0  0  0  0  0
    3.3190    0.7970   -1.2029 C   0  0  0  0  0  0  0  0  0  0  0  0
    1.9770    0.4441   -1.4791 C   0  0  0  0  0  0  0  0  0  0  0  0
    1.4899   -0.2658   -0.3871 C   0  0  0  0  0  0  0  0  0  0  0  0
    0.1924   -0.8476   -0.1791 C   0  0  0  0  0  0  0  0  0  0  0  0
   -1.0200   -0.0256   -0.0061 C   0  0  0  0  0  0  0  0  0  0  0  0
   -2.2183   -0.6180    0.1476 C   0  0  0  0  0  0  0  0  0  0  0  0
   -2.3025   -1.9862    0.1686 N   0  0  0  0  0  0  0  0  0  0  0  0
   -1.2318   -2.8417    0.0552 C   0  0  0  0  0  0  0  0  0  0  0  0
   -1.5729   -4.4852    0.1415 S   0  0  0  0  0  0  0  0  0  0  0  0
    0.1138   -2.2025   -0.1405 C   0  0  0  0  0  0  0  0  0  0  0  0
    1.2553   -3.0472   -0.3151 C   0  0  0  0  0  0  0  0  0  0  0  0
    2.1810   -3.7303   -0.4755 N   0  0  0  0  0  0  0  0  0  0  0  0
   -3.5135    0.1359    0.3077 C   0  0  0  0  0  0  0  0  0  0  0  0
   -3.3921    1.6191   -0.0386 C   0  0  0  0  0  0  0  0  0  0  0  0
   -2.1202    2.2082    0.5548 C   0  0  0  0  0  0  0  0  0  0  0  0
   -0.8793    1.4826    0.0263 C   0  0  0  0  0  0  0  0  0  0  0  0
    2.5002   -0.3402    0.5444 O   0  0  0  0  0  0  0  0  0  0  0  0
    4.5808    0.7891    1.8569 H   0  0  0  0  0  0  0  0  0  0  0  0
    5.1190   -0.7299    1.1113 H   0  0  0  0  0  0  0  0  0  0  0  0
    5.6213    0.8241    0.4225 H   0  0  0  0  0  0  0  0  0  0  0  0
    4.0024    1.3436   -1.8376 H   0  0  0  0  0  0  0  0  0  0  0  0
    1.4208    0.6688   -2.3791 H   0  0  0  0  0  0  0  0  0  0  0  0
   -3.2105   -2.4247    0.2986 H   0  0  0  0  0  0  0  0  0  0  0  0
   -4.2902   -0.3080   -0.3269 H   0  0  0  0  0  0  0  0  0  0  0  0
   -3.8496    0.0321    1.3472 H   0  0  0  0  0  0  0  0  0  0  0  0
   -4.2693    2.1589    0.3353 H   0  0  0  0  0  0  0  0  0  0  0  0
   -3.3802    1.7449   -1.1288 H   0  0  0  0  0  0  0  0  0  0  0  0
   -2.1555    2.1283    1.6489 H   0  0  0  0  0  0  0  0  0  0  0  0
   -2.0518    3.2755    0.3158 H   0  0  0  0  0  0  0  0  0  0  0  0
   -0.0317    1.7784    0.6563 H   0  0  0  0  0  0  0  0  0  0  0  0
   -0.6719    1.8368   -0.9915 H   0  0  0  0  0  0  0  0  0  0  0  0
  1  2  1  0
  2  3  2  0
  3  4  1  0
  4  5  2  0
  5  6  1  0
  6  7  1  0
  7  8  2  0
  8  9  1  0
  9 10  1  0
 10 11  2  0
 10 12  1  0
 12 13  1  0
 13 14  3  0
  8 15  1  0
 15 16  1  0
 16 17  1  0
 17 18  1  0
  5 19  1  0
 19  2  1  0
 12  6  2  0
 18  7  1  0
  1 20  1  0
  1 21  1  0
  1 22  1  0
  3 23  1  0
  4 24  1  0
  9 25  1  0
 15 26  1  0
 15 27  1  0
 16 28  1  0
 16 29  1  0
 17 30  1  0
 17 31  1  0
 18 32  1  0
 18 33  1  0
M  END
$$$$
