
     RDKit          3D

 57 60  0  0  0  0  0  0  0  0999 V2000
    8.2539    1.5446   -0.2043 C   0  0  0  0  0  0  0  0  0  0  0  0
    6.7602    1.5122   -0.4826 C   0  0  0  0  0  0  0  0  0  0  0  0
    5.9395    0.8328    0.6249 C   0  0  0  0  0  0  0  0  0  0  0  0
    6.3186   -0.6359    0.8256 C   0  0  0  0  0  0  0  0  0  0  0  0
    4.5201    0.9303    0.2986 N   0  0  0  0  0  0  0  0  0  0  0  0
    3.7466    1.9985    0.7052 C   0  0  0  0  0  0  0  0  0  0  0  0
    4.1306    2.8802    1.4648 O   0  0  0  0  0  0  0  0  0  0  0  0
    2.3576    2.0229    0.1798 C   0  0  0  0  0  0  0  0  0  0  0  0
    1.3317    2.4490    1.0299 C   0  0  0  0  0  0  0  0  0  0  0  0
    0.0163    2.5060    0.5590 C   0  0  0  0  0  0  0  0  0  0  0  0
   -0.2888    2.1598   -0.7717 C   0  0  0  0  0  0  0  0  0  0  0  0
   -1.7035    2.2830   -1.2871 C   0  0  0  0  0  0  0  0  0  0  0  0
   -2.5252    0.6930   -1.5769 S   0  0  0  0  0  0  0  0  0  0  0  0
   -3.2276    0.3715   -0.0264 C   0  0  0  0  0  0  0  0  0  0  0  0
   -2.7919    0.8535    1.1133 N   0  0  0  0  0  0  0  0  0  0  0  0
   -3.6251    0.3334    2.0708 C   0  0  0  0  0  0  0  0  0  0  0  0
   -3.5973    0.5111    3.4541 C   0  0  0  0  0  0  0  0  0  0  0  0
   -4.5955   -0.1376    4.1615 C   0  0  0  0  0  0  0  0  0  0  0  0
   -5.5654   -0.9082    3.6066 N   0  0  0  0  0  0  0  0  0  0  0  0
   -5.5876   -1.0796    2.2648 C   0  0  0  0  0  0  0  0  0  0  0  0
   -4.6100   -0.4587    1.4962 C   0  0  0  0  0  0  0  0  0  0  0  0
   -4.3281   -0.4339    0.1452 N   0  0  0  0  0  0  0  0  0  0  0  0
   -5.1238   -1.0772   -0.8931 C   0  0  0  0  0  0  0  0  0  0  0  0
   -4.4914   -2.3446   -1.4186 C   0  0  0  0  0  0  0  0  0  0  0  0
   -4.1844   -3.4171   -0.5642 C   0  0  0  0  0  0  0  0  0  0  0  0
   -3.6041   -4.5880   -1.0704 C   0  0  0  0  0  0  0  0  0  0  0  0
   -3.3392   -4.6943   -2.4298 C   0  0  0  0  0  0  0  0  0  0  0  0
   -2.7804   -5.8104   -2.9141 F   0  0  0  0  0  0  0  0  0  0  0  0
   -3.6515   -3.6514   -3.2968 C   0  0  0  0  0  0  0  0  0  0  0  0
   -4.2295   -2.4792   -2.7938 C   0  0  0  0  0  0  0  0  0  0  0  0
    0.7503    1.7335   -1.6176 C   0  0  0  0  0  0  0  0  0  0  0  0
    2.0668    1.6683   -1.1476 C   0  0  0  0  0  0  0  0  0  0  0  0
    8.7675    2.1042   -0.9932 H   0  0  0  0  0  0  0  0  0  0  0  0
    8.4632    2.0369    0.7488 H   0  0  0  0  0  0  0  0  0  0  0  0
    8.6833    0.5344   -0.1788 H   0  0  0  0  0  0  0  0  0  0  0  0
    6.5794    1.0063   -1.4378 H   0  0  0  0  0  0  0  0  0  0  0  0
    6.4098    2.5469   -0.6127 H   0  0  0  0  0  0  0  0  0  0  0  0
    6.1112    1.3658    1.5683 H   0  0  0  0  0  0  0  0  0  0  0  0
    5.6411   -1.1178    1.5420 H   0  0  0  0  0  0  0  0  0  0  0  0
    6.2580   -1.1962   -0.1164 H   0  0  0  0  0  0  0  0  0  0  0  0
    7.3359   -0.7320    1.2211 H   0  0  0  0  0  0  0  0  0  0  0  0
    4.1113    0.2251   -0.3025 H   0  0  0  0  0  0  0  0  0  0  0  0
    1.5553    2.7332    2.0608 H   0  0  0  0  0  0  0  0  0  0  0  0
   -0.7739    2.8277    1.2403 H   0  0  0  0  0  0  0  0  0  0  0  0
   -2.3117    2.9137   -0.6288 H   0  0  0  0  0  0  0  0  0  0  0  0
   -1.6673    2.8135   -2.2458 H   0  0  0  0  0  0  0  0  0  0  0  0
   -2.8410    1.1242    3.9399 H   0  0  0  0  0  0  0  0  0  0  0  0
   -4.6448   -0.0496    5.2448 H   0  0  0  0  0  0  0  0  0  0  0  0
   -6.3755   -1.7072    1.8650 H   0  0  0  0  0  0  0  0  0  0  0  0
   -5.2816   -0.3427   -1.6894 H   0  0  0  0  0  0  0  0  0  0  0  0
   -6.1147   -1.3060   -0.4884 H   0  0  0  0  0  0  0  0  0  0  0  0
   -4.3834   -3.3532    0.5038 H   0  0  0  0  0  0  0  0  0  0  0  0
   -3.3558   -5.4115   -0.4142 H   0  0  0  0  0  0  0  0  0  0  0  0
   -3.4395   -3.7557   -4.3560 H   0  0  0  0  0  0  0  0  0  0  0  0
   -4.4646   -1.6670   -3.4862 H   0  0  0  0  0  0  0  0  0  0  0  0
    0.5382    1.4658   -2.6553 H   0  0  0  0  0  0  0  0  0  0  0  0
    2.8576    1.3738   -1.8345 H   0  0  0  0  0  0  0  0  0  0  0  0
  1  2  1  0
  2  3  1  0
  3  4  1  0
  3  5  1  0
  5  6  1  0
  6  7  2  0
  6  8  1  0
  8  9  2  0
  9 10  1  0
 10 11  2  0
 11 12  1  0
 12 13  1  0
 13 14  1  0
 14 15  2  0
 15 16  1  0
 16 17  2  0
 17 18  1  0
 18 19  2  0
 19 20  1  0
 20 21  2  0
 21 22  1  0
 22 23  1  0
 23 24  1  0
 24 25  2  0
 25 26  1  0
 26 27  2  0
 27 28  1  0
 27 29  1  0
 29 30  2  0
 11 31  1  0
 31 32  2  0
 32  8  1  0
 22 14  1  0
 30 24  1  0
 21 16  1  0
  1 33  1  0
  1 34  1  0
  1 35  1  0
  2 36  1  0
  2 37  1  0
  3 38  1  0
  4 39  1  0
  4 40  1  0
  4 41  1  0
  5 42  1  0
  9 43  1  0
 10 44  1  0
 12 45  1  0
 12 46  1  0
 17 47  1  0
 18 48  1  0
 20 49  1  0
 23 50  1  0
 23 51  1  0
 25 52  1  0
 26 53  1  0
 29 54  1  0
 30 55  1  0
 31 56  1  0
 32 57  1  0
M  END
$$$$
