
     RDKit          3D

 56 61  0  0  0  0  0  0  0  0999 V2000
   -0.0687    3.4511    0.8103 C   0  0  0  0  0  0  0  0  0  0  0  0
    0.7491    2.2339    0.5905 C   0  0  0  0  0  0  0  0  0  0  0  0
    2.0492    2.3523    0.3060 N   0  0  0  0  0  0  0  0  0  0  0  0
    2.5166    1.0714    0.1660 N   0  0  0  0  0  0  0  0  0  0  0  0
    3.8933    0.8551   -0.1567 C   0  0  0  0  0  0  0  0  0  0  0  0
    4.4248   -0.4308   -0.3301 C   0  0  0  0  0  0  0  0  0  0  0  0
    5.7788   -0.6039   -0.6466 C   0  0  0  0  0  0  0  0  0  0  0  0
    6.6082    0.5136   -0.7918 C   0  0  0  0  0  0  0  0  0  0  0  0
    8.0272    0.3325   -1.1204 N   0  0  0  0  0  4  0  0  0  0  0  0
    8.7334    1.3473   -1.2064 O   0  0  0  0  0  0  0  0  0  0  0  0
    8.4377   -0.8236   -1.2944 O   0  0  0  0  0  1  0  0  0  0  0  0
    6.0938    1.8032   -0.6226 C   0  0  0  0  0  0  0  0  0  0  0  0
    4.7409    1.9692   -0.3085 C   0  0  0  0  0  0  0  0  0  0  0  0
    1.4939    0.1540    0.3891 C   0  0  0  0  0  0  0  0  0  0  0  0
    0.3550    0.8861    0.6322 C   0  0  0  0  0  0  0  0  0  0  0  0
   -0.9233    0.1778    0.9125 C   0  0  0  0  0  0  0  0  0  0  0  0
   -1.8202    0.5232   -0.2781 C   0  0  0  0  0  0  0  0  0  0  0  0
   -1.6355   -0.0610   -1.5426 C   0  0  0  0  0  0  0  0  0  0  0  0
   -2.4750    0.2663   -2.6102 C   0  0  0  0  0  0  0  0  0  0  0  0
   -3.5083    1.1901   -2.4488 C   0  0  0  0  0  0  0  0  0  0  0  0
   -4.2581    1.4112   -3.5691 O   0  0  0  0  0  0  0  0  0  0  0  0
   -5.0726    2.5704   -3.5675 C   0  0  0  0  0  0  0  0  0  0  0  0
   -6.1291    2.3748   -2.7399 F   0  0  0  0  0  0  0  0  0  0  0  0
   -5.5820    2.7108   -4.8172 F   0  0  0  0  0  0  0  0  0  0  0  0
   -3.7075    1.7750   -1.1990 C   0  0  0  0  0  0  0  0  0  0  0  0
   -2.8702    1.4465   -0.1257 C   0  0  0  0  0  0  0  0  0  0  0  0
   -0.7490   -1.2834    1.0654 N   0  0  0  0  0  0  0  0  0  0  0  0
    0.4969   -1.8437    0.7232 C   0  0  0  0  0  0  0  0  0  0  0  0
    1.5865   -1.1993    0.3846 N   0  0  0  0  0  0  0  0  0  0  0  0
    0.6485   -3.3841    0.7344 C   0  0  0  0  0  0  0  0  0  0  0  0
    1.6747   -3.9389    0.3664 O   0  0  0  0  0  0  0  0  0  0  0  0
   -0.4359   -4.0877    1.1848 N   0  0  0  0  0  0  0  0  0  0  0  0
   -1.6313   -3.4957    1.6011 C   0  0  0  0  0  0  0  0  0  0  0  0
   -2.6450   -4.3431    2.0647 C   0  0  0  0  0  0  0  0  0  0  0  0
   -3.8539   -3.8095    2.4956 C   0  0  0  0  0  0  0  0  0  0  0  0
   -4.0449   -2.4340    2.4630 C   0  0  0  0  0  0  0  0  0  0  0  0
   -3.0288   -1.5899    1.9966 C   0  0  0  0  0  0  0  0  0  0  0  0
   -1.7968   -2.0945    1.5466 C   0  0  0  0  0  0  0  0  0  0  0  0
   -0.8319    3.2756    1.5743 H   0  0  0  0  0  0  0  0  0  0  0  0
    0.5496    4.2894    1.1472 H   0  0  0  0  0  0  0  0  0  0  0  0
   -0.5675    3.7461   -0.1177 H   0  0  0  0  0  0  0  0  0  0  0  0
    3.8198   -1.3277   -0.2298 H   0  0  0  0  0  0  0  0  0  0  0  0
    6.1622   -1.6147   -0.7761 H   0  0  0  0  0  0  0  0  0  0  0  0
    6.7233    2.6844   -0.7300 H   0  0  0  0  0  0  0  0  0  0  0  0
    4.3598    2.9821   -0.1822 H   0  0  0  0  0  0  0  0  0  0  0  0
   -1.3298    0.5960    1.8426 H   0  0  0  0  0  0  0  0  0  0  0  0
   -0.8342   -0.7785   -1.7112 H   0  0  0  0  0  0  0  0  0  0  0  0
   -2.3155   -0.2044   -3.5783 H   0  0  0  0  0  0  0  0  0  0  0  0
   -4.5305    3.4842   -3.2999 H   0  0  0  0  0  0  0  0  0  0  0  0
   -4.5194    2.4724   -1.0133 H   0  0  0  0  0  0  0  0  0  0  0  0
   -3.0555    1.9163    0.8387 H   0  0  0  0  0  0  0  0  0  0  0  0
   -0.3228   -5.0920    1.2064 H   0  0  0  0  0  0  0  0  0  0  0  0
   -2.5018   -5.4203    2.0959 H   0  0  0  0  0  0  0  0  0  0  0  0
   -4.6438   -4.4638    2.8566 H   0  0  0  0  0  0  0  0  0  0  0  0
   -4.9888   -2.0105    2.7996 H   0  0  0  0  0  0  0  0  0  0  0  0
   -3.2457   -0.5274    2.0031 H   0  0  0  0  0  0  0  0  0  0  0  0
  1  2  1  0
  2  3  2  0
  3  4  1  0
  4  5  1  0
  5  6  2  0
  6  7  1  0
  7  8  2  0
  8  9  1  0
  9 10  2  0
  9 11  1  0
  8 12  1  0
 12 13  2  0
  4 14  1  0
 14 15  2  0
 15 16  1  0
 16 17  1  0
 17 18  2  0
 18 19  1  0
 19 20  2  0
 20 21  1  0
 21 22  1  0
 22 23  1  0
 22 24  1  0
 20 25  1  0
 25 26  2  0
 16 27  1  0
 27 28  1  0
 28 29  2  0
 28 30  1  0
 30 31  2  0
 30 32  1  0
 32 33  1  0
 33 34  2  0
 34 35  1  0
 35 36  2  0
 36 37  1  0
 37 38  2  0
 15  2  1  0
 26 17  1  0
 38 27  1  0
 13  5  1  0
 29 14  1  0
 38 33  1  0
  1 39  1  0
  1 40  1  0
  1 41  1  0
  6 42  1  0
  7 43  1  0
 12 44  1  0
 13 45  1  0
 16 46  1  0
 18 47  1  0
 19 48  1  0
 22 49  1  0
 25 50  1  0
 26 51  1  0
 32 52  1  0
 34 53  1  0
 35 54  1  0
 36 55  1  0
 37 56  1  0
M  CHG  2   9   1  11  -1
M  END
$$$$
