
     RDKit          3D

 54 58  0  0  0  0  0  0  0  0999 V2000
   -7.8639    2.1885    3.3757 O   0  0  0  0  0  0  0  0  0  0  0  0
   -7.5871    1.2701    2.6268 C   0  0  0  0  0  0  0  0  0  0  0  0
   -8.5378    0.4435    2.1560 O   0  0  0  0  0  0  0  0  0  0  0  0
   -6.2320    0.9288    2.1319 C   0  0  0  0  0  0  0  0  0  0  0  0
   -6.0019   -0.1404    1.2648 C   0  0  0  0  0  0  0  0  0  0  0  0
   -4.7021   -0.4222    0.8208 C   0  0  0  0  0  0  0  0  0  0  0  0
   -3.6045    0.3541    1.2234 C   0  0  0  0  0  0  0  0  0  0  0  0
   -2.2775    0.0730    0.7682 N   0  0  0  0  0  0  0  0  0  0  0  0
   -1.1351    0.3938    1.5457 C   0  0  0  0  0  0  0  0  0  0  0  0
   -1.0262    0.9343    2.6325 O   0  0  0  0  0  0  0  0  0  0  0  0
    0.0172   -0.1398    0.7431 C   0  0  0  0  0  0  0  0  0  0  0  0
    1.2749   -0.0086    1.1826 C   0  0  0  0  0  0  0  0  0  0  0  0
    2.4348   -0.4780    0.5094 C   0  0  0  0  0  0  0  0  0  0  0  0
    2.6569   -1.5969   -0.2838 C   0  0  0  0  0  0  0  0  0  0  0  0
    4.0156   -1.5898   -0.6837 C   0  0  0  0  0  0  0  0  0  0  0  0
    4.5861   -0.4780   -0.1061 C   0  0  0  0  0  0  0  0  0  0  0  0
    5.9263    0.1056   -0.1043 C   0  0  0  0  0  0  0  0  0  0  0  0
    6.2128    1.2675    0.6332 C   0  0  0  0  0  0  0  0  0  0  0  0
    7.4963    1.8263    0.6371 C   0  0  0  0  0  0  0  0  0  0  0  0
    8.5133    1.2189   -0.1061 C   0  0  0  0  0  0  0  0  0  0  0  0
    9.8627    1.7976   -0.1075 N   0  0  0  0  0  4  0  0  0  0  0  0
   10.0528    2.8212    0.5649 O   0  0  0  0  0  0  0  0  0  0  0  0
   10.7329    1.2277   -0.7820 O   0  0  0  0  0  1  0  0  0  0  0  0
    8.2521    0.0619   -0.8488 C   0  0  0  0  0  0  0  0  0  0  0  0
    6.9636   -0.4867   -0.8437 C   0  0  0  0  0  0  0  0  0  0  0  0
    3.6390    0.1812    0.6198 O   0  0  0  0  0  0  0  0  0  0  0  0
   -0.5343   -0.7039   -0.4571 C   0  0  0  0  0  0  0  0  0  0  0  0
   -1.8690   -0.5665   -0.4062 C   0  0  0  0  0  0  0  0  0  0  0  0
   -2.7134   -0.9182   -1.5493 C   0  0  0  0  0  0  0  0  0  0  0  0
   -2.8149   -2.2498   -1.9772 C   0  0  0  0  0  0  0  0  0  0  0  0
   -3.6065   -2.5795   -3.0793 C   0  0  0  0  0  0  0  0  0  0  0  0
   -4.2969   -1.5821   -3.7659 C   0  0  0  0  0  0  0  0  0  0  0  0
   -4.1957   -0.2541   -3.3547 C   0  0  0  0  0  0  0  0  0  0  0  0
   -3.4041    0.0780   -2.2536 C   0  0  0  0  0  0  0  0  0  0  0  0
   -3.8555    1.4158    2.1075 C   0  0  0  0  0  0  0  0  0  0  0  0
   -5.1520    1.7050    2.5545 C   0  0  0  0  0  0  0  0  0  0  0  0
   -9.3628    0.7832    2.5622 H   0  0  0  0  0  0  0  0  0  0  0  0
   -6.8221   -0.7717    0.9306 H   0  0  0  0  0  0  0  0  0  0  0  0
   -4.5769   -1.2924    0.1851 H   0  0  0  0  0  0  0  0  0  0  0  0
    1.4543    0.5257    2.1141 H   0  0  0  0  0  0  0  0  0  0  0  0
    1.9248   -2.3516   -0.5339 H   0  0  0  0  0  0  0  0  0  0  0  0
    4.5125   -2.3198   -1.3063 H   0  0  0  0  0  0  0  0  0  0  0  0
    5.4319    1.7524    1.2181 H   0  0  0  0  0  0  0  0  0  0  0  0
    7.6790    2.7262    1.2212 H   0  0  0  0  0  0  0  0  0  0  0  0
    9.0317   -0.4235   -1.4328 H   0  0  0  0  0  0  0  0  0  0  0  0
    6.7834   -1.3862   -1.4286 H   0  0  0  0  0  0  0  0  0  0  0  0
    0.0287   -1.0998   -1.2865 H   0  0  0  0  0  0  0  0  0  0  0  0
   -2.2864   -3.0409   -1.4499 H   0  0  0  0  0  0  0  0  0  0  0  0
   -3.6853   -3.6147   -3.4024 H   0  0  0  0  0  0  0  0  0  0  0  0
   -4.9135   -1.8392   -4.6238 H   0  0  0  0  0  0  0  0  0  0  0  0
   -4.7321    0.5243   -3.8916 H   0  0  0  0  0  0  0  0  0  0  0  0
   -3.3322    1.1196   -1.9462 H   0  0  0  0  0  0  0  0  0  0  0  0
   -3.0545    2.0668    2.4503 H   0  0  0  0  0  0  0  0  0  0  0  0
   -5.3077    2.5432    3.2318 H   0  0  0  0  0  0  0  0  0  0  0  0
  1  2  2  0
  2  3  1  0
  2  4  1  0
  4  5  2  0
  5  6  1  0
  6  7  2  0
  7  8  1  0
  8  9  1  0
  9 10  2  0
  9 11  1  0
 11 12  2  3
 12 13  1  0
 13 14  2  0
 14 15  1  0
 15 16  2  0
 16 17  1  0
 17 18  2  0
 18 19  1  0
 19 20  2  0
 20 21  1  0
 21 22  2  0
 21 23  1  0
 20 24  1  0
 24 25  2  0
 16 26  1  0
 11 27  1  0
 27 28  2  0
 28 29  1  0
 29 30  2  0
 30 31  1  0
 31 32  2  0
 32 33  1  0
 33 34  2  0
  7 35  1  0
 35 36  2  0
 36  4  1  0
 28  8  1  0
 34 29  1  0
 26 13  1  0
 25 17  1  0
  3 37  1  0
  5 38  1  0
  6 39  1  0
 12 40  1  0
 14 41  1  0
 15 42  1  0
 18 43  1  0
 19 44  1  0
 24 45  1  0
 25 46  1  0
 27 47  1  0
 30 48  1  0
 31 49  1  0
 32 50  1  0
 33 51  1  0
 34 52  1  0
 35 53  1  0
 36 54  1  0
M  CHG  2  21   1  23  -1
M  END
$$$$
