
     RDKit          3D

 43 46  0  0  0  0  0  0  0  0999 V2000
    3.2468   -0.2463    4.1123 C   0  0  0  0  0  0  0  0  0  0  0  0
    2.4501    0.2536    3.0465 O   0  0  0  0  0  0  0  0  0  0  0  0
    2.2312   -0.6737    2.0486 C   0  0  0  0  0  0  0  0  0  0  0  0
    1.5180   -0.2173    1.0274 N   0  0  0  0  0  0  0  0  0  0  0  0
    1.2855   -1.0864    0.0595 C   0  0  0  0  0  0  0  0  0  0  0  0
    0.5662   -0.7359   -1.0655 N   0  0  0  0  0  0  0  0  0  0  0  0
   -0.4717    0.2954   -1.0511 C   0  0  0  0  0  0  0  0  0  0  0  0
   -1.1905    0.2259   -2.4311 C   0  0  0  0  0  0  0  0  0  0  0  0
   -2.3080    1.2764   -2.5268 C   0  0  0  0  0  0  0  0  0  0  0  0
   -1.6989    2.6755   -2.3527 C   0  0  0  0  0  0  0  0  0  0  0  0
   -1.0001    2.7748   -0.9884 C   0  0  0  0  0  0  0  0  0  0  0  0
   -2.0256    2.5110    0.1283 C   0  0  0  0  0  0  0  0  0  0  0  0
   -2.6464    1.1129   -0.0385 C   0  0  0  0  0  0  0  0  0  0  0  0
   -3.3330    1.0240   -1.4103 C   0  0  0  0  0  0  0  0  0  0  0  0
   -1.5354    0.0502    0.0451 C   0  0  0  0  0  0  0  0  0  0  0  0
    0.1181    1.7189   -0.9093 C   0  0  0  0  0  0  0  0  0  0  0  0
    1.7144   -2.3407    0.0752 N   0  0  0  0  0  0  0  0  0  0  0  0
    2.4225   -2.6844    1.1474 C   0  0  0  0  0  0  0  0  0  0  0  0
    2.9141   -3.9685    1.2606 O   0  0  0  0  0  0  0  0  0  0  0  0
    2.6627   -4.7698    0.1139 C   0  0  0  0  0  0  0  0  0  0  0  0
    2.7119   -1.9013    2.1731 N   0  0  0  0  0  0  0  0  0  0  0  0
    2.7501   -1.0781    4.6241 H   0  0  0  0  0  0  0  0  0  0  0  0
    4.2433   -0.5380    3.7626 H   0  0  0  0  0  0  0  0  0  0  0  0
    3.3746    0.5609    4.8401 H   0  0  0  0  0  0  0  0  0  0  0  0
    0.3074   -1.6033   -1.5231 H   0  0  0  0  0  0  0  0  0  0  0  0
   -1.6148   -0.7753   -2.5872 H   0  0  0  0  0  0  0  0  0  0  0  0
   -0.4664    0.3804   -3.2425 H   0  0  0  0  0  0  0  0  0  0  0  0
   -2.8001    1.2062   -3.5033 H   0  0  0  0  0  0  0  0  0  0  0  0
   -0.9806    2.8751   -3.1574 H   0  0  0  0  0  0  0  0  0  0  0  0
   -2.4831    3.4386   -2.4293 H   0  0  0  0  0  0  0  0  0  0  0  0
   -0.5706    3.7756   -0.8665 H   0  0  0  0  0  0  0  0  0  0  0  0
   -1.5407    2.5910    1.1090 H   0  0  0  0  0  0  0  0  0  0  0  0
   -2.8129    3.2744    0.0994 H   0  0  0  0  0  0  0  0  0  0  0  0
   -3.3827    0.9386    0.7542 H   0  0  0  0  0  0  0  0  0  0  0  0
   -4.1438    1.7602   -1.4723 H   0  0  0  0  0  0  0  0  0  0  0  0
   -3.7905    0.0352   -1.5373 H   0  0  0  0  0  0  0  0  0  0  0  0
   -1.0888    0.0870    1.0456 H   0  0  0  0  0  0  0  0  0  0  0  0
   -1.9686   -0.9530   -0.0621 H   0  0  0  0  0  0  0  0  0  0  0  0
    0.8627    1.9020   -1.6950 H   0  0  0  0  0  0  0  0  0  0  0  0
    0.6419    1.8446    0.0439 H   0  0  0  0  0  0  0  0  0  0  0  0
    1.5881   -4.9186   -0.0392 H   0  0  0  0  0  0  0  0  0  0  0  0
    3.1113   -5.7526    0.2887 H   0  0  0  0  0  0  0  0  0  0  0  0
    3.1324   -4.3452   -0.7803 H   0  0  0  0  0  0  0  0  0  0  0  0
  1  2  1  0
  2  3  1  0
  3  4  2  0
  4  5  1  0
  5  6  1  0
  6  7  1  0
  7  8  1  0
  8  9  1  0
  9 10  1  0
 10 11  1  0
 11 12  1  0
 12 13  1  0
 13 14  1  0
 13 15  1  0
 11 16  1  0
  5 17  2  0
 17 18  1  0
 18 19  1  0
 19 20  1  0
 18 21  2  0
 21  3  1  0
 15  7  1  0
 16  7  1  0
 14  9  1  0
  1 22  1  0
  1 23  1  0
  1 24  1  0
  6 25  1  0
  8 26  1  0
  8 27  1  0
  9 28  1  0
 10 29  1  0
 10 30  1  0
 11 31  1  0
 12 32  1  0
 12 33  1  0
 13 34  1  0
 14 35  1  0
 14 36  1  0
 15 37  1  0
 15 38  1  0
 16 39  1  0
 16 40  1  0
 20 41  1  0
 20 42  1  0
 20 43  1  0
M  END
$$$$
