
     RDKit          3D

 46 49  0  0  0  0  0  0  0  0999 V2000
    2.1827    2.6994   -2.5004 C   0  0  0  0  0  0  0  0  0  0  0  0
    1.2003    1.8522   -1.9045 O   0  0  0  0  0  0  0  0  0  0  0  0
    0.1576    2.5236   -1.3276 C   0  0  0  0  0  0  0  0  0  0  0  0
    0.0339    3.7436   -1.3652 O   0  0  0  0  0  0  0  0  0  0  0  0
   -0.8197    1.6246   -0.7181 C   0  0  0  0  0  0  0  0  0  0  0  0
   -2.1285    1.9383   -0.6316 N   0  0  0  0  0  0  0  0  0  0  0  0
   -2.6694    0.8419   -0.0457 N   0  0  0  0  0  0  0  0  0  0  0  0
   -4.0593    0.7398    0.2226 C   0  0  0  0  0  0  0  0  0  0  0  0
   -4.9192    1.7959   -0.1125 C   0  0  0  0  0  0  0  0  0  0  0  0
   -6.2864    1.6909    0.1510 C   0  0  0  0  0  0  0  0  0  0  0  0
   -6.7980    0.5383    0.7469 C   0  0  0  0  0  0  0  0  0  0  0  0
   -5.9461   -0.5138    1.0825 C   0  0  0  0  0  0  0  0  0  0  0  0
   -4.5775   -0.4175    0.8226 C   0  0  0  0  0  0  0  0  0  0  0  0
   -1.8049   -0.1603    0.2562 N   0  0  0  0  0  0  0  0  0  0  0  0
   -0.6361    0.3422   -0.1582 C   0  0  0  0  0  0  0  0  0  0  0  0
    0.6359   -0.3436    0.0442 C   0  0  0  0  0  0  0  0  0  0  0  0
    1.7162    0.2653    0.5469 N   0  0  0  0  0  0  0  0  0  0  0  0
    2.6001   -0.7599    0.6484 N   0  0  0  0  0  0  0  0  0  0  0  0
    3.9167   -0.5690    1.1427 C   0  0  0  0  0  0  0  0  0  0  0  0
    4.3378    0.7055    1.5505 C   0  0  0  0  0  0  0  0  0  0  0  0
    5.6351    0.8886    2.0337 C   0  0  0  0  0  0  0  0  0  0  0  0
    6.5122   -0.1930    2.1114 C   0  0  0  0  0  0  0  0  0  0  0  0
    6.0969   -1.4618    1.7078 C   0  0  0  0  0  0  0  0  0  0  0  0
    4.8015   -1.6542    1.2235 C   0  0  0  0  0  0  0  0  0  0  0  0
    2.1555   -1.9724    0.2357 N   0  0  0  0  0  0  0  0  0  0  0  0
    0.8937   -1.7152   -0.1652 C   0  0  0  0  0  0  0  0  0  0  0  0
    0.0296   -2.7501   -0.7281 C   0  0  0  0  0  0  0  0  0  0  0  0
    0.1302   -3.9437   -0.4628 O   0  0  0  0  0  0  0  0  0  0  0  0
   -0.8692   -2.2501   -1.6298 O   0  0  0  0  0  0  0  0  0  0  0  0
   -1.7394   -3.2315   -2.1931 C   0  0  0  0  0  0  0  0  0  0  0  0
    2.9796    2.0648   -2.8979 H   0  0  0  0  0  0  0  0  0  0  0  0
    1.7469    3.2676   -3.3279 H   0  0  0  0  0  0  0  0  0  0  0  0
    2.6168    3.3704   -1.7526 H   0  0  0  0  0  0  0  0  0  0  0  0
   -4.5408    2.7053   -0.5763 H   0  0  0  0  0  0  0  0  0  0  0  0
   -6.9526    2.5105   -0.1077 H   0  0  0  0  0  0  0  0  0  0  0  0
   -7.8630    0.4609    0.9520 H   0  0  0  0  0  0  0  0  0  0  0  0
   -6.3482   -1.4097    1.5494 H   0  0  0  0  0  0  0  0  0  0  0  0
   -3.9313   -1.2494    1.0953 H   0  0  0  0  0  0  0  0  0  0  0  0
    3.6697    1.5631    1.5011 H   0  0  0  0  0  0  0  0  0  0  0  0
    5.9614    1.8759    2.3517 H   0  0  0  0  0  0  0  0  0  0  0  0
    7.5213   -0.0475    2.4894 H   0  0  0  0  0  0  0  0  0  0  0  0
    6.7822   -2.3037    1.7714 H   0  0  0  0  0  0  0  0  0  0  0  0
    4.4975   -2.6533    0.9157 H   0  0  0  0  0  0  0  0  0  0  0  0
   -2.3232   -3.7238   -1.4090 H   0  0  0  0  0  0  0  0  0  0  0  0
   -1.1672   -3.9639   -2.7710 H   0  0  0  0  0  0  0  0  0  0  0  0
   -2.4313   -2.7215   -2.8690 H   0  0  0  0  0  0  0  0  0  0  0  0
  1  2  1  0
  2  3  1  0
  3  4  2  0
  3  5  1  0
  5  6  2  0
  6  7  1  0
  7  8  1  0
  8  9  2  0
  9 10  1  0
 10 11  2  0
 11 12  1  0
 12 13  2  0
  7 14  1  0
 14 15  2  0
 15 16  1  0
 16 17  2  0
 17 18  1  0
 18 19  1  0
 19 20  2  0
 20 21  1  0
 21 22  2  0
 22 23  1  0
 23 24  2  0
 18 25  1  0
 25 26  2  0
 26 27  1  0
 27 28  2  0
 27 29  1  0
 29 30  1  0
 15  5  1  0
 26 16  1  0
 13  8  1  0
 24 19  1  0
  1 31  1  0
  1 32  1  0
  1 33  1  0
  9 34  1  0
 10 35  1  0
 11 36  1  0
 12 37  1  0
 13 38  1  0
 20 39  1  0
 21 40  1  0
 22 41  1  0
 23 42  1  0
 24 43  1  0
 30 44  1  0
 30 45  1  0
 30 46  1  0
M  END
$$$$
