
     RDKit          3D

 46 48  0  0  0  0  0  0  0  0999 V2000
    6.2647   -0.6581    0.9069 C   0  0  0  0  0  0  0  0  0  0  0  0
    5.1139   -1.4554    0.6588 O   0  0  0  0  0  0  0  0  0  0  0  0
    4.0179   -0.8183    0.1474 C   0  0  0  0  0  0  0  0  0  0  0  0
    2.9109   -1.6384   -0.0648 C   0  0  0  0  0  0  0  0  0  0  0  0
    1.7240   -1.1147   -0.5840 C   0  0  0  0  0  0  0  0  0  0  0  0
    1.6108    0.2518   -0.8956 C   0  0  0  0  0  0  0  0  0  0  0  0
    0.3032    0.7802   -1.4817 C   0  0  0  0  0  0  0  0  0  0  0  0
    0.2587    2.2588   -1.8867 C   0  0  0  0  0  0  0  0  0  0  0  0
   -0.8817    0.4351   -0.6538 N   0  0  0  0  0  0  0  0  0  0  0  0
   -1.0251    0.6456    0.7203 C   0  0  0  0  0  0  0  0  0  0  0  0
   -0.0327    1.3860    1.5534 C   0  0  0  0  0  0  0  0  0  0  0  0
   -2.1929    0.0063    1.0959 C   0  0  0  0  0  0  0  0  0  0  0  0
   -2.7171   -0.1406    2.3967 C   0  0  0  0  0  0  0  0  0  0  0  0
   -2.1804    0.3180    3.7062 C   0  0  0  0  0  0  0  0  0  0  0  0
   -3.9076   -0.8193    2.3880 N   0  0  0  0  0  0  0  0  0  0  0  0
   -4.5519   -1.3427    1.1812 N   0  0  0  0  0  0  0  0  0  0  0  0
   -4.0424   -1.2167   -0.0847 C   0  0  0  0  0  0  0  0  0  0  0  0
   -4.8080   -1.8174   -1.2096 C   0  0  0  0  0  0  0  0  0  0  0  0
   -2.8241   -0.5063   -0.0865 C   0  0  0  0  0  0  0  0  0  0  0  0
   -2.0357   -0.1698   -1.1707 C   0  0  0  0  0  0  0  0  0  0  0  0
   -2.2469   -0.3848   -2.6331 C   0  0  0  0  0  0  0  0  0  0  0  0
    2.7370    1.0637   -0.6893 C   0  0  0  0  0  0  0  0  0  0  0  0
    3.9267    0.5353   -0.1691 C   0  0  0  0  0  0  0  0  0  0  0  0
    6.0546    0.1185    1.6498 H   0  0  0  0  0  0  0  0  0  0  0  0
    7.0411   -1.3105    1.3180 H   0  0  0  0  0  0  0  0  0  0  0  0
    6.6514   -0.2241   -0.0210 H   0  0  0  0  0  0  0  0  0  0  0  0
    2.9703   -2.6970    0.1770 H   0  0  0  0  0  0  0  0  0  0  0  0
    0.8806   -1.7872   -0.7345 H   0  0  0  0  0  0  0  0  0  0  0  0
    0.1975    0.2103   -2.4133 H   0  0  0  0  0  0  0  0  0  0  0  0
   -0.7063    2.5114   -2.3404 H   0  0  0  0  0  0  0  0  0  0  0  0
    1.0367    2.4852   -2.6241 H   0  0  0  0  0  0  0  0  0  0  0  0
    0.3993    2.9315   -1.0357 H   0  0  0  0  0  0  0  0  0  0  0  0
    0.6298    0.6844    2.0697 H   0  0  0  0  0  0  0  0  0  0  0  0
    0.5795    2.0792    0.9766 H   0  0  0  0  0  0  0  0  0  0  0  0
   -0.5383    2.0003    2.3038 H   0  0  0  0  0  0  0  0  0  0  0  0
   -2.7569   -0.1115    4.5319 H   0  0  0  0  0  0  0  0  0  0  0  0
   -1.1402    0.0041    3.8292 H   0  0  0  0  0  0  0  0  0  0  0  0
   -2.2452    1.4070    3.7816 H   0  0  0  0  0  0  0  0  0  0  0  0
   -5.2632   -1.0320   -1.8194 H   0  0  0  0  0  0  0  0  0  0  0  0
   -5.6111   -2.4585   -0.8317 H   0  0  0  0  0  0  0  0  0  0  0  0
   -4.1566   -2.4352   -1.8341 H   0  0  0  0  0  0  0  0  0  0  0  0
   -1.8059   -1.3369   -2.9439 H   0  0  0  0  0  0  0  0  0  0  0  0
   -1.8081    0.4185   -3.2322 H   0  0  0  0  0  0  0  0  0  0  0  0
   -3.3082   -0.3930   -2.8904 H   0  0  0  0  0  0  0  0  0  0  0  0
    2.7146    2.1256   -0.9215 H   0  0  0  0  0  0  0  0  0  0  0  0
    4.7631    1.2114   -0.0256 H   0  0  0  0  0  0  0  0  0  0  0  0
  1  2  1  0
  2  3  1  0
  3  4  2  0
  4  5  1  0
  5  6  2  0
  6  7  1  0
  7  8  1  0
  7  9  1  0
  9 10  1  0
 10 11  1  0
 10 12  2  0
 12 13  1  0
 13 14  1  0
 13 15  2  0
 15 16  1  0
 16 17  2  0
 17 18  1  0
 17 19  1  0
 19 20  2  0
 20 21  1  0
  6 22  1  0
 22 23  2  0
 23  3  1  0
 20  9  1  0
 19 12  1  0
  1 24  1  0
  1 25  1  0
  1 26  1  0
  4 27  1  0
  5 28  1  0
  7 29  1  0
  8 30  1  0
  8 31  1  0
  8 32  1  0
 11 33  1  0
 11 34  1  0
 11 35  1  0
 14 36  1  0
 14 37  1  0
 14 38  1  0
 18 39  1  0
 18 40  1  0
 18 41  1  0
 21 42  1  0
 21 43  1  0
 21 44  1  0
 22 45  1  0
 23 46  1  0
M  END
$$$$
