
     RDKit          3D

 35 36  0  0  0  0  0  0  0  0999 V2000
    6.0765   -0.7798   -2.4794 C   0  0  0  0  0  0  0  0  0  0  0  0
    4.6976   -0.5616   -1.9324 C   0  0  0  0  0  0  0  0  0  0  0  0
    4.5162   -0.1222   -0.6181 C   0  0  0  0  0  0  0  0  0  0  0  0
    3.2298    0.0551   -0.0932 C   0  0  0  0  0  0  0  0  0  0  0  0
    2.1029   -0.1987   -0.8733 C   0  0  0  0  0  0  0  0  0  0  0  0
    0.7708   -0.0754   -0.4210 N   0  0  0  0  0  0  0  0  0  0  0  0
    0.2135    0.6429    0.6297 C   0  0  0  0  0  0  0  0  0  0  0  0
    0.9029    1.9035    1.4834 S   0  0  0  0  0  0  0  0  0  0  0  0
   -1.0882    0.1985    0.8336 N   0  0  0  0  0  0  0  0  0  0  0  0
   -1.9762    0.6510    1.8900 C   0  0  0  0  0  0  0  0  0  0  0  0
   -3.3221    0.0816    1.6042 C   0  0  0  0  0  0  0  0  0  0  0  0
   -3.9249   -1.0523    2.1215 C   0  0  0  0  0  0  0  0  0  0  0  0
   -5.2044   -1.1710    1.5330 C   0  0  0  0  0  0  0  0  0  0  0  0
   -5.3571   -0.1091    0.6712 C   0  0  0  0  0  0  0  0  0  0  0  0
   -4.2153    0.6482    0.7199 N   0  0  0  0  0  0  0  0  0  0  0  0
   -3.9971    1.8526   -0.0529 C   0  0  0  0  0  0  0  0  0  0  0  0
    2.2874   -0.6783   -2.1767 C   0  0  0  0  0  0  0  0  0  0  0  0
    3.5709   -0.8557   -2.7036 C   0  0  0  0  0  0  0  0  0  0  0  0
    6.7885   -0.0762   -2.0353 H   0  0  0  0  0  0  0  0  0  0  0  0
    6.4071   -1.8007   -2.2651 H   0  0  0  0  0  0  0  0  0  0  0  0
    6.0965   -0.6211   -3.5627 H   0  0  0  0  0  0  0  0  0  0  0  0
    5.3761    0.0808    0.0170 H   0  0  0  0  0  0  0  0  0  0  0  0
    3.1508    0.3580    0.9445 H   0  0  0  0  0  0  0  0  0  0  0  0
    0.0754   -0.4415   -1.0582 H   0  0  0  0  0  0  0  0  0  0  0  0
   -1.2588   -0.7546    0.5423 H   0  0  0  0  0  0  0  0  0  0  0  0
   -1.5882    0.2800    2.8450 H   0  0  0  0  0  0  0  0  0  0  0  0
   -2.0003    1.7440    1.9285 H   0  0  0  0  0  0  0  0  0  0  0  0
   -3.4861   -1.7227    2.8499 H   0  0  0  0  0  0  0  0  0  0  0  0
   -5.9374   -1.9453    1.7185 H   0  0  0  0  0  0  0  0  0  0  0  0
   -6.1873    0.1653    0.0333 H   0  0  0  0  0  0  0  0  0  0  0  0
   -4.8643    2.0385   -0.6918 H   0  0  0  0  0  0  0  0  0  0  0  0
   -3.1083    1.7131   -0.6728 H   0  0  0  0  0  0  0  0  0  0  0  0
   -3.8640    2.6876    0.6392 H   0  0  0  0  0  0  0  0  0  0  0  0
    1.4346   -0.9106   -2.8092 H   0  0  0  0  0  0  0  0  0  0  0  0
    3.6824   -1.2239   -3.7209 H   0  0  0  0  0  0  0  0  0  0  0  0
  1  2  1  0
  2  3  2  0
  3  4  1  0
  4  5  2  0
  5  6  1  0
  6  7  1  0
  7  8  2  0
  7  9  1  0
  9 10  1  0
 10 11  1  0
 11 12  2  0
 12 13  1  0
 13 14  2  0
 14 15  1  0
 15 16  1  0
  5 17  1  0
 17 18  2  0
 18  2  1  0
 15 11  1  0
  1 19  1  0
  1 20  1  0
  1 21  1  0
  3 22  1  0
  4 23  1  0
  6 24  1  0
  9 25  1  0
 10 26  1  0
 10 27  1  0
 12 28  1  0
 13 29  1  0
 14 30  1  0
 16 31  1  0
 16 32  1  0
 16 33  1  0
 17 34  1  0
 18 35  1  0
M  END
$$$$
