
     RDKit          3D

 39 40  0  0  0  0  0  0  0  0999 V2000
    1.9200   -2.1702    2.7046 C   0  0  0  0  0  0  0  0  0  0  0  0
    0.9319   -1.0248    2.9032 C   0  0  0  0  0  0  0  0  0  0  0  0
    0.4019   -0.3478    1.6253 C   0  0  0  0  0  0  0  0  0  0  0  0
    1.7339    0.1443    0.4538 S   0  0  0  0  0  0  0  0  0  0  0  0
    2.3855    1.5225    1.2611 C   0  0  0  0  0  0  0  0  0  0  0  0
    1.8115    2.2216    2.2124 N   0  0  0  0  0  0  0  0  0  0  0  0
    2.6730    3.2372    2.5625 N   0  0  0  0  0  0  0  0  0  0  0  0
    3.7438    3.1264    1.8095 C   0  0  0  0  0  0  0  0  0  0  0  0
    3.6055    2.0603    0.9719 N   0  0  0  0  0  0  0  0  0  0  0  0
    4.5704    1.6149    0.0038 C   0  0  0  0  0  0  0  0  0  0  0  0
   -0.6150   -1.2255    0.8697 C   0  0  0  0  0  0  0  0  0  0  0  0
   -0.8561   -2.3833    1.2003 O   0  0  0  0  0  0  0  0  0  0  0  0
   -1.2305   -0.5441   -0.1678 N   0  0  0  0  0  0  0  0  0  0  0  0
   -2.2239   -0.9997   -1.0612 C   0  0  0  0  0  0  0  0  0  0  0  0
   -2.7917   -2.2737   -1.0037 C   0  0  0  0  0  0  0  0  0  0  0  0
   -3.7717   -2.6489   -1.9250 C   0  0  0  0  0  0  0  0  0  0  0  0
   -4.1892   -1.7544   -2.9069 C   0  0  0  0  0  0  0  0  0  0  0  0
   -3.6302   -0.4769   -2.9746 C   0  0  0  0  0  0  0  0  0  0  0  0
   -2.6489   -0.0916   -2.0562 C   0  0  0  0  0  0  0  0  0  0  0  0
   -2.0313    1.1388   -2.0330 O   0  0  0  0  0  0  0  0  0  0  0  0
   -2.4671    2.0982   -2.9883 C   0  0  0  0  0  0  0  0  0  0  0  0
    2.1329   -2.6442    3.6688 H   0  0  0  0  0  0  0  0  0  0  0  0
    2.8740   -1.8173    2.3022 H   0  0  0  0  0  0  0  0  0  0  0  0
    1.5252   -2.9400    2.0359 H   0  0  0  0  0  0  0  0  0  0  0  0
    0.0800   -1.4042    3.4822 H   0  0  0  0  0  0  0  0  0  0  0  0
    1.4111   -0.2702    3.5395 H   0  0  0  0  0  0  0  0  0  0  0  0
   -0.1556    0.5490    1.9261 H   0  0  0  0  0  0  0  0  0  0  0  0
    4.6107    3.7716    1.8365 H   0  0  0  0  0  0  0  0  0  0  0  0
    4.1208    1.6672   -0.9911 H   0  0  0  0  0  0  0  0  0  0  0  0
    4.8640    0.5899    0.2438 H   0  0  0  0  0  0  0  0  0  0  0  0
    5.4503    2.2629    0.0399 H   0  0  0  0  0  0  0  0  0  0  0  0
   -0.9146    0.4035   -0.3595 H   0  0  0  0  0  0  0  0  0  0  0  0
   -2.4934   -2.9980   -0.2527 H   0  0  0  0  0  0  0  0  0  0  0  0
   -4.2074   -3.6438   -1.8719 H   0  0  0  0  0  0  0  0  0  0  0  0
   -4.9524   -2.0526   -3.6215 H   0  0  0  0  0  0  0  0  0  0  0  0
   -3.9818    0.1894   -3.7546 H   0  0  0  0  0  0  0  0  0  0  0  0
   -2.2568    1.7616   -4.0087 H   0  0  0  0  0  0  0  0  0  0  0  0
   -3.5285    2.3333   -2.8576 H   0  0  0  0  0  0  0  0  0  0  0  0
   -1.9001    3.0188   -2.8188 H   0  0  0  0  0  0  0  0  0  0  0  0
  1  2  1  0
  2  3  1  0
  3  4  1  0
  4  5  1  0
  5  6  2  0
  6  7  1  0
  7  8  2  0
  8  9  1  0
  9 10  1  0
  3 11  1  0
 11 12  2  0
 11 13  1  0
 13 14  1  0
 14 15  2  0
 15 16  1  0
 16 17  2  0
 17 18  1  0
 18 19  2  0
 19 20  1  0
 20 21  1  0
  9  5  1  0
 19 14  1  0
  1 22  1  0
  1 23  1  0
  1 24  1  0
  2 25  1  0
  2 26  1  0
  3 27  1  0
  8 28  1  0
 10 29  1  0
 10 30  1  0
 10 31  1  0
 13 32  1  0
 15 33  1  0
 16 34  1  0
 17 35  1  0
 18 36  1  0
 21 37  1  0
 21 38  1  0
 21 39  1  0
M  END
$$$$
