
     RDKit          3D

 51 56  0  0  0  0  0  0  0  0999 V2000
   -1.8921    0.9470    1.3802 O   0  0  0  0  0  0  0  0  0  0  0  0
   -2.1340   -0.1244    0.8181 C   0  0  0  0  0  0  0  0  0  0  0  0
   -2.9677   -1.1187    1.5510 C   0  0  0  0  0  0  0  0  0  0  0  0
   -3.9135   -0.6415    2.4702 C   0  0  0  0  0  0  0  0  0  0  0  0
   -4.7153   -1.5338    3.1865 C   0  0  0  0  0  0  0  0  0  0  0  0
   -4.5659   -2.9050    2.9914 C   0  0  0  0  0  0  0  0  0  0  0  0
   -5.5487   -4.0069    3.8738 Cl  0  0  0  0  0  0  0  0  0  0  0  0
   -3.6189   -3.3907    2.0904 C   0  0  0  0  0  0  0  0  0  0  0  0
   -2.8159   -2.4991    1.3713 C   0  0  0  0  0  0  0  0  0  0  0  0
   -1.6315   -0.4996   -0.5853 C   0  0  0  0  0  0  0  0  0  0  0  0
   -0.1546   -0.6116   -0.5974 C   0  0  0  0  0  0  0  0  0  0  0  0
    0.4526    0.3760   -1.3887 C   0  0  0  0  0  0  0  0  0  0  0  0
    1.8023    0.1301   -1.4079 C   0  0  0  0  0  0  0  0  0  0  0  0
    2.7326    0.6953   -2.1779 O   0  0  0  0  0  0  0  0  0  0  0  0
    2.0478   -0.9238   -0.5063 N   0  0  0  0  0  0  0  0  0  0  0  0
    3.3321   -1.4440   -0.1651 C   0  0  0  0  0  0  0  0  0  0  0  0
    4.4187   -0.5719   -0.0046 C   0  0  0  0  0  0  0  0  0  0  0  0
    5.6766   -1.0786    0.3327 C   0  0  0  0  0  0  0  0  0  0  0  0
    5.8496   -2.4507    0.5054 C   0  0  0  0  0  0  0  0  0  0  0  0
    7.3996   -3.0713    0.9175 Cl  0  0  0  0  0  0  0  0  0  0  0  0
    4.7746   -3.3234    0.3455 C   0  0  0  0  0  0  0  0  0  0  0  0
    3.5129   -2.8228    0.0119 C   0  0  0  0  0  0  0  0  0  0  0  0
    0.8126   -1.3896   -0.0239 C   0  0  0  0  0  0  0  0  0  0  0  0
    0.6575   -2.3581    0.8771 O   0  0  0  0  0  0  0  0  0  0  0  0
   -0.5497    1.2338   -2.0647 C   0  0  0  0  0  0  0  0  0  0  0  0
   -0.4671    2.6665   -1.6258 C   0  0  0  0  0  0  0  0  0  0  0  0
    0.7133    3.4184   -1.5607 C   0  0  0  0  0  0  0  0  0  0  0  0
    0.6749    4.7777   -1.2329 C   0  0  0  0  0  0  0  0  0  0  0  0
   -0.5438    5.4115   -0.9916 C   0  0  0  0  0  0  0  0  0  0  0  0
   -1.7316    4.6897   -1.0834 C   0  0  0  0  0  0  0  0  0  0  0  0
   -1.6826    3.3304   -1.4023 C   0  0  0  0  0  0  0  0  0  0  0  0
   -2.9380    2.5669   -1.5226 C   0  0  0  0  0  0  0  0  0  0  0  0
   -3.0182    1.2699   -1.5889 N   0  0  0  0  0  0  0  0  0  0  0  0
   -1.8157    0.5995   -1.5827 N   0  0  0  0  0  0  0  0  0  0  0  0
   -4.0295    0.4299    2.6269 H   0  0  0  0  0  0  0  0  0  0  0  0
   -5.4478   -1.1518    3.8926 H   0  0  0  0  0  0  0  0  0  0  0  0
   -3.4948   -4.4614    1.9484 H   0  0  0  0  0  0  0  0  0  0  0  0
   -2.0646   -2.9059    0.6993 H   0  0  0  0  0  0  0  0  0  0  0  0
   -2.1285   -1.3801   -0.9988 H   0  0  0  0  0  0  0  0  0  0  0  0
    3.4947    0.0935   -2.2534 H   0  0  0  0  0  0  0  0  0  0  0  0
    4.2978    0.5072   -0.0913 H   0  0  0  0  0  0  0  0  0  0  0  0
    6.5135   -0.3978    0.4699 H   0  0  0  0  0  0  0  0  0  0  0  0
    4.9146   -4.3948    0.4690 H   0  0  0  0  0  0  0  0  0  0  0  0
    2.7008   -3.5293   -0.1516 H   0  0  0  0  0  0  0  0  0  0  0  0
    1.4577   -2.3963    1.4331 H   0  0  0  0  0  0  0  0  0  0  0  0
   -0.5176    1.1416   -3.1551 H   0  0  0  0  0  0  0  0  0  0  0  0
    1.6759    2.9618   -1.7727 H   0  0  0  0  0  0  0  0  0  0  0  0
    1.6015    5.3439   -1.1738 H   0  0  0  0  0  0  0  0  0  0  0  0
   -0.5657    6.4680   -0.7371 H   0  0  0  0  0  0  0  0  0  0  0  0
   -2.6800    5.1859   -0.8999 H   0  0  0  0  0  0  0  0  0  0  0  0
   -3.8809    3.1383   -1.5152 H   0  0  0  0  0  0  0  0  0  0  0  0
  1  2  2  0
  2  3  1  0
  3  4  2  0
  4  5  1  0
  5  6  2  0
  6  7  1  0
  6  8  1  0
  8  9  2  0
  2 10  1  0
 10 11  1  0
 11 12  1  0
 12 13  2  0
 13 14  1  0
 13 15  1  0
 15 16  1  0
 16 17  2  0
 17 18  1  0
 18 19  2  0
 19 20  1  0
 19 21  1  0
 21 22  2  0
 15 23  1  0
 23 24  1  0
 12 25  1  0
 25 26  1  0
 26 27  2  0
 27 28  1  0
 28 29  2  0
 29 30  1  0
 30 31  2  0
 31 32  1  0
 32 33  2  0
 33 34  1  0
  9  3  1  0
 34 10  1  0
 23 11  2  0
 34 25  1  0
 22 16  1  0
 31 26  1  0
  4 35  1  0
  5 36  1  0
  8 37  1  0
  9 38  1  0
 10 39  1  0
 14 40  1  0
 17 41  1  0
 18 42  1  0
 21 43  1  0
 22 44  1  0
 24 45  1  0
 25 46  1  0
 27 47  1  0
 28 48  1  0
 29 49  1  0
 30 50  1  0
 32 51  1  0
M  END
$$$$
