
     RDKit          3D

 46 48  0  0  0  0  0  0  0  0999 V2000
   -1.1260   -4.1828    0.0296 C   0  0  0  0  0  0  0  0  0  0  0  0
   -1.0700   -2.7737    0.2239 O   0  0  0  0  0  0  0  0  0  0  0  0
   -2.1310   -2.0377   -0.2560 C   0  0  0  0  0  0  0  0  0  0  0  0
   -3.2419   -2.5697   -0.9149 C   0  0  0  0  0  0  0  0  0  0  0  0
   -4.2615   -1.7265   -1.3644 C   0  0  0  0  0  0  0  0  0  0  0  0
   -4.1870   -0.3466   -1.1544 C   0  0  0  0  0  0  0  0  0  0  0  0
   -5.2656    0.5668   -1.6591 C   0  0  0  0  0  0  0  0  0  0  0  0
   -3.0656    0.1891   -0.5044 C   0  0  0  0  0  0  0  0  0  0  0  0
   -2.0410   -0.6442   -0.0495 C   0  0  0  0  0  0  0  0  0  0  0  0
   -0.8842   -0.1768    0.6156 N   0  0  0  0  0  0  0  0  0  0  0  0
   -0.5382    1.1234    0.9231 C   0  0  0  0  0  0  0  0  0  0  0  0
   -1.2000    2.1250    0.6762 O   0  0  0  0  0  0  0  0  0  0  0  0
    0.8266    1.2211    1.6056 C   0  0  0  0  0  0  0  0  0  0  0  0
    0.8723    2.4473    2.5040 C   0  0  0  0  0  0  0  0  0  0  0  0
    1.4866    3.4834    1.6149 C   0  0  0  0  0  0  0  0  0  0  0  0
    1.5329    4.6799    1.8492 O   0  0  0  0  0  0  0  0  0  0  0  0
    2.0588    2.8952    0.5258 O   0  0  0  0  0  0  0  0  0  0  0  0
    1.9933    1.4572    0.6371 C   0  0  0  0  0  0  0  0  0  0  0  0
    1.7999    0.8808   -0.7809 C   0  0  0  0  0  0  0  0  0  0  0  0
    3.1270    0.7744   -1.5293 C   0  0  0  0  0  0  0  0  0  0  0  0
    4.0786   -0.2035   -0.8377 C   0  0  0  0  0  0  0  0  0  0  0  0
    3.8377   -0.3144    0.6683 C   0  0  0  0  0  0  0  0  0  0  0  0
    3.3483    1.0055    1.2522 C   0  0  0  0  0  0  0  0  0  0  0  0
   -1.1387   -4.4334   -1.0363 H   0  0  0  0  0  0  0  0  0  0  0  0
   -1.9835   -4.6179    0.5529 H   0  0  0  0  0  0  0  0  0  0  0  0
   -0.2194   -4.6154    0.4624 H   0  0  0  0  0  0  0  0  0  0  0  0
   -3.3483   -3.6332   -1.0996 H   0  0  0  0  0  0  0  0  0  0  0  0
   -5.1171   -2.1565   -1.8812 H   0  0  0  0  0  0  0  0  0  0  0  0
   -6.1897    0.0155   -1.8628 H   0  0  0  0  0  0  0  0  0  0  0  0
   -5.5008    1.3316   -0.9120 H   0  0  0  0  0  0  0  0  0  0  0  0
   -4.9411    1.0554   -2.5824 H   0  0  0  0  0  0  0  0  0  0  0  0
   -3.0177    1.2650   -0.3664 H   0  0  0  0  0  0  0  0  0  0  0  0
   -0.2538   -0.9292    0.8765 H   0  0  0  0  0  0  0  0  0  0  0  0
    0.9644    0.3107    2.2021 H   0  0  0  0  0  0  0  0  0  0  0  0
   -0.1099    2.7718    2.8564 H   0  0  0  0  0  0  0  0  0  0  0  0
    1.5380    2.2888    3.3581 H   0  0  0  0  0  0  0  0  0  0  0  0
    1.3655   -0.1243   -0.7383 H   0  0  0  0  0  0  0  0  0  0  0  0
    1.1206    1.5167   -1.3618 H   0  0  0  0  0  0  0  0  0  0  0  0
    3.5951    1.7650   -1.5888 H   0  0  0  0  0  0  0  0  0  0  0  0
    2.9550    0.4480   -2.5617 H   0  0  0  0  0  0  0  0  0  0  0  0
    3.9780   -1.2004   -1.2837 H   0  0  0  0  0  0  0  0  0  0  0  0
    5.1106    0.1144   -1.0289 H   0  0  0  0  0  0  0  0  0  0  0  0
    4.7624   -0.6300    1.1648 H   0  0  0  0  0  0  0  0  0  0  0  0
    3.0945   -1.0969    0.8667 H   0  0  0  0  0  0  0  0  0  0  0  0
    3.2710    0.9072    2.3418 H   0  0  0  0  0  0  0  0  0  0  0  0
    4.1150    1.7737    1.0816 H   0  0  0  0  0  0  0  0  0  0  0  0
  1  2  1  0
  2  3  1  0
  3  4  2  0
  4  5  1  0
  5  6  2  0
  6  7  1  0
  6  8  1  0
  8  9  2  0
  9 10  1  0
 10 11  1  0
 11 12  2  0
 11 13  1  0
 13 14  1  0
 14 15  1  0
 15 16  2  0
 15 17  1  0
 17 18  1  0
 18 19  1  0
 19 20  1  0
 20 21  1  0
 21 22  1  0
 22 23  1  0
  9  3  1  0
 18 13  1  0
 23 18  1  0
  1 24  1  0
  1 25  1  0
  1 26  1  0
  4 27  1  0
  5 28  1  0
  7 29  1  0
  7 30  1  0
  7 31  1  0
  8 32  1  0
 10 33  1  0
 13 34  1  0
 14 35  1  0
 14 36  1  0
 19 37  1  0
 19 38  1  0
 20 39  1  0
 20 40  1  0
 21 41  1  0
 21 42  1  0
 22 43  1  0
 22 44  1  0
 23 45  1  0
 23 46  1  0
M  END
$$$$
