
     RDKit          3D

 48 48  0  0  0  0  0  0  0  0999 V2000
   -7.4936   -0.2634    1.3960 C   0  0  0  0  0  0  0  0  0  0  0  0
   -6.9675    1.0315    0.7939 C   0  0  0  0  0  0  0  0  0  0  0  0
   -6.0809    0.8124   -0.4354 C   0  0  0  0  0  0  0  0  0  0  0  0
   -4.5753    0.7902   -0.1460 C   0  0  0  0  0  0  0  0  0  0  0  0
   -4.1241   -0.3753    0.7343 C   0  0  0  0  0  0  0  0  0  0  0  0
   -2.6004   -0.5361    0.7904 C   0  0  0  0  0  0  0  0  0  0  0  0
   -1.8912    0.6558    1.4389 C   0  0  0  0  0  0  0  0  0  0  0  0
   -0.4011    0.4077    1.6920 C   0  0  0  0  0  0  0  0  0  0  0  0
    0.4103    0.2311    0.4092 C   0  0  0  0  0  0  0  0  0  0  0  0
    1.9008    0.1118    0.6804 C   0  0  0  0  0  0  0  0  0  0  0  0
    2.3802    0.1237    1.8095 O   0  0  0  0  0  0  0  0  0  0  0  0
    2.6250   -0.0099   -0.5006 N   0  0  0  0  0  0  0  0  0  0  0  0
    3.9740   -0.1706   -0.4486 N   0  0  0  0  0  0  0  0  0  0  0  0
    4.6580   -0.2460   -1.5523 C   0  0  0  0  0  0  0  0  0  0  0  0
    4.0464   -0.1211   -2.9326 C   0  0  0  0  0  0  0  0  0  0  0  0
    6.1286   -0.4659   -1.4470 C   0  0  0  0  0  0  0  0  0  0  0  0
    6.8787   -1.0696   -2.4584 C   0  0  0  0  0  0  0  0  0  0  0  0
    8.2520   -1.2409   -2.2852 C   0  0  0  0  0  0  0  0  0  0  0  0
    8.8288   -0.8062   -1.1028 C   0  0  0  0  0  0  0  0  0  0  0  0
    8.1338   -0.2297   -0.1006 N   0  0  0  0  0  0  0  0  0  0  0  0
    6.7974   -0.0815   -0.2888 C   0  0  0  0  0  0  0  0  0  0  0  0
   -6.6881   -0.9047    1.7604 H   0  0  0  0  0  0  0  0  0  0  0  0
   -8.1528   -0.0424    2.2418 H   0  0  0  0  0  0  0  0  0  0  0  0
   -8.0730   -0.8290    0.6590 H   0  0  0  0  0  0  0  0  0  0  0  0
   -7.8367    1.6279    0.4898 H   0  0  0  0  0  0  0  0  0  0  0  0
   -6.4398    1.6143    1.5571 H   0  0  0  0  0  0  0  0  0  0  0  0
   -6.2585    1.6454   -1.1281 H   0  0  0  0  0  0  0  0  0  0  0  0
   -6.3754   -0.0982   -0.9705 H   0  0  0  0  0  0  0  0  0  0  0  0
   -4.2887    1.7412    0.3181 H   0  0  0  0  0  0  0  0  0  0  0  0
   -4.0485    0.7386   -1.1072 H   0  0  0  0  0  0  0  0  0  0  0  0
   -4.5037   -0.2423    1.7534 H   0  0  0  0  0  0  0  0  0  0  0  0
   -4.5519   -1.3082    0.3476 H   0  0  0  0  0  0  0  0  0  0  0  0
   -2.3732   -1.4446    1.3616 H   0  0  0  0  0  0  0  0  0  0  0  0
   -2.2199   -0.6955   -0.2250 H   0  0  0  0  0  0  0  0  0  0  0  0
   -2.3691    0.8784    2.4008 H   0  0  0  0  0  0  0  0  0  0  0  0
   -2.0045    1.5486    0.8134 H   0  0  0  0  0  0  0  0  0  0  0  0
   -0.0030    1.2603    2.2568 H   0  0  0  0  0  0  0  0  0  0  0  0
   -0.2764   -0.4726    2.3349 H   0  0  0  0  0  0  0  0  0  0  0  0
    0.0946   -0.6757   -0.1185 H   0  0  0  0  0  0  0  0  0  0  0  0
    0.2505    1.0904   -0.2527 H   0  0  0  0  0  0  0  0  0  0  0  0
    2.1410   -0.0490   -1.3880 H   0  0  0  0  0  0  0  0  0  0  0  0
    3.3651    0.7347   -2.9619 H   0  0  0  0  0  0  0  0  0  0  0  0
    3.4927   -1.0346   -3.1668 H   0  0  0  0  0  0  0  0  0  0  0  0
    4.7972    0.0528   -3.7062 H   0  0  0  0  0  0  0  0  0  0  0  0
    6.4186   -1.4314   -3.3721 H   0  0  0  0  0  0  0  0  0  0  0  0
    8.8588   -1.7092   -3.0527 H   0  0  0  0  0  0  0  0  0  0  0  0
    9.8944   -0.9184   -0.9226 H   0  0  0  0  0  0  0  0  0  0  0  0
    6.2703    0.3754    0.5464 H   0  0  0  0  0  0  0  0  0  0  0  0
  1  2  1  0
  2  3  1  0
  3  4  1  0
  4  5  1  0
  5  6  1  0
  6  7  1  0
  7  8  1  0
  8  9  1  0
  9 10  1  0
 10 11  2  0
 10 12  1  0
 12 13  1  0
 13 14  2  3
 14 15  1  0
 14 16  1  0
 16 17  2  0
 17 18  1  0
 18 19  2  0
 19 20  1  0
 20 21  2  0
 21 16  1  0
  1 22  1  0
  1 23  1  0
  1 24  1  0
  2 25  1  0
  2 26  1  0
  3 27  1  0
  3 28  1  0
  4 29  1  0
  4 30  1  0
  5 31  1  0
  5 32  1  0
  6 33  1  0
  6 34  1  0
  7 35  1  0
  7 36  1  0
  8 37  1  0
  8 38  1  0
  9 39  1  0
  9 40  1  0
 12 41  1  0
 15 42  1  0
 15 43  1  0
 15 44  1  0
 17 45  1  0
 18 46  1  0
 19 47  1  0
 21 48  1  0
M  END
$$$$
