
     RDKit          3D

 50 54  0  0  0  0  0  0  0  0999 V2000
    7.1238    1.5546   -2.0260 F   0  0  0  0  0  0  0  0  0  0  0  0
    5.9700    1.4631   -1.3514 C   0  0  0  0  0  0  0  0  0  0  0  0
    4.8002    1.9411   -1.9300 C   0  0  0  0  0  0  0  0  0  0  0  0
    3.5962    1.8471   -1.2299 C   0  0  0  0  0  0  0  0  0  0  0  0
    3.5635    1.2715    0.0504 C   0  0  0  0  0  0  0  0  0  0  0  0
    2.2602    1.1755    0.8193 C   0  0  0  0  0  0  0  0  0  0  0  0
    1.8996   -0.2051    1.1783 N   0  0  0  0  0  0  0  0  0  0  0  0
    0.7420   -0.2353    2.1009 C   0  0  0  0  0  0  0  0  0  0  0  0
   -0.6465   -0.2763    1.4201 C   0  0  0  0  0  0  0  0  0  0  0  0
   -0.7586   -1.3828    0.4429 N   0  0  0  0  0  0  0  0  0  0  0  0
   -1.8397   -2.2358    0.6962 C   0  0  0  0  0  0  0  0  0  0  0  0
   -1.5887   -3.4959    1.1328 N   0  0  0  0  0  0  0  0  0  0  0  0
   -2.6101   -4.3103    1.4262 C   0  0  0  0  0  0  0  0  0  0  0  0
   -3.9100   -4.0404    1.3386 N   0  0  0  0  0  0  0  0  0  0  0  0
   -4.1419   -2.8052    0.8667 C   0  0  0  0  0  0  0  0  0  0  0  0
   -5.7474   -2.2778    0.6586 S   0  0  0  0  0  0  0  0  0  0  0  0
   -5.2332   -0.7791    0.0328 C   0  0  0  0  0  0  0  0  0  0  0  0
   -3.8549   -0.6646   -0.0048 C   0  0  0  0  0  0  0  0  0  0  0  0
   -3.2563    0.5380   -0.5739 C   0  0  0  0  0  0  0  0  0  0  0  0
   -2.4160    0.4457   -1.6900 C   0  0  0  0  0  0  0  0  0  0  0  0
   -1.8438    1.5953   -2.2386 C   0  0  0  0  0  0  0  0  0  0  0  0
   -2.1122    2.8437   -1.6790 C   0  0  0  0  0  0  0  0  0  0  0  0
   -2.9521    2.9453   -0.5706 C   0  0  0  0  0  0  0  0  0  0  0  0
   -3.5245    1.7969   -0.0191 C   0  0  0  0  0  0  0  0  0  0  0  0
   -3.1954   -1.8530    0.5094 C   0  0  0  0  0  0  0  0  0  0  0  0
    0.5129   -2.0737    0.1535 C   0  0  0  0  0  0  0  0  0  0  0  0
    1.6302   -1.0234   -0.0339 C   0  0  0  0  0  0  0  0  0  0  0  0
    4.7589    0.7971    0.6167 C   0  0  0  0  0  0  0  0  0  0  0  0
    5.9610    0.8920   -0.0850 C   0  0  0  0  0  0  0  0  0  0  0  0
    4.8336    2.3825   -2.9206 H   0  0  0  0  0  0  0  0  0  0  0  0
    2.6841    2.2215   -1.6890 H   0  0  0  0  0  0  0  0  0  0  0  0
    2.3979    1.7726    1.7309 H   0  0  0  0  0  0  0  0  0  0  0  0
    1.4486    1.6577    0.2584 H   0  0  0  0  0  0  0  0  0  0  0  0
    0.7811    0.6043    2.8061 H   0  0  0  0  0  0  0  0  0  0  0  0
    0.8457   -1.1341    2.7234 H   0  0  0  0  0  0  0  0  0  0  0  0
   -0.7948    0.6698    0.8897 H   0  0  0  0  0  0  0  0  0  0  0  0
   -1.4140   -0.3328    2.2028 H   0  0  0  0  0  0  0  0  0  0  0  0
   -2.3456   -5.3015    1.7802 H   0  0  0  0  0  0  0  0  0  0  0  0
   -5.9700   -0.0580   -0.2964 H   0  0  0  0  0  0  0  0  0  0  0  0
   -2.1936   -0.5228   -2.1328 H   0  0  0  0  0  0  0  0  0  0  0  0
   -1.1901    1.5138   -3.1031 H   0  0  0  0  0  0  0  0  0  0  0  0
   -1.6691    3.7383   -2.1094 H   0  0  0  0  0  0  0  0  0  0  0  0
   -3.1631    3.9194   -0.1365 H   0  0  0  0  0  0  0  0  0  0  0  0
   -4.1733    1.8924    0.8484 H   0  0  0  0  0  0  0  0  0  0  0  0
    0.4126   -2.6528   -0.7727 H   0  0  0  0  0  0  0  0  0  0  0  0
    0.7998   -2.7656    0.9564 H   0  0  0  0  0  0  0  0  0  0  0  0
    2.5562   -1.5341   -0.3217 H   0  0  0  0  0  0  0  0  0  0  0  0
    1.3341   -0.3844   -0.8773 H   0  0  0  0  0  0  0  0  0  0  0  0
    4.7473    0.3429    1.6057 H   0  0  0  0  0  0  0  0  0  0  0  0
    6.8854    0.5228    0.3465 H   0  0  0  0  0  0  0  0  0  0  0  0
  1  2  1  0
  2  3  2  0
  3  4  1  0
  4  5  2  0
  5  6  1  0
  6  7  1  0
  7  8  1  0
  8  9  1  0
  9 10  1  0
 10 11  1  0
 11 12  2  0
 12 13  1  0
 13 14  2  0
 14 15  1  0
 15 16  1  0
 16 17  1  0
 17 18  2  0
 18 19  1  0
 19 20  2  0
 20 21  1  0
 21 22  2  0
 22 23  1  0
 23 24  2  0
 18 25  1  0
 10 26  1  0
 26 27  1  0
  5 28  1  0
 28 29  2  0
 29  2  1  0
 27  7  1  0
 25 11  1  0
 25 15  2  0
 24 19  1  0
  3 30  1  0
  4 31  1  0
  6 32  1  0
  6 33  1  0
  8 34  1  0
  8 35  1  0
  9 36  1  0
  9 37  1  0
 13 38  1  0
 17 39  1  0
 20 40  1  0
 21 41  1  0
 22 42  1  0
 23 43  1  0
 24 44  1  0
 26 45  1  0
 26 46  1  0
 27 47  1  0
 27 48  1  0
 28 49  1  0
 29 50  1  0
M  END
$$$$
