
     RDKit          3D

 41 42  0  0  0  0  0  0  0  0999 V2000
   -7.2362   -1.0363    2.6260 C   0  0  0  0  0  0  0  0  0  0  0  0
   -6.0808   -0.4519    3.2134 O   0  0  0  0  0  0  0  0  0  0  0  0
   -4.9359   -0.4650    2.4652 C   0  0  0  0  0  0  0  0  0  0  0  0
   -4.7825   -1.0482    1.2081 C   0  0  0  0  0  0  0  0  0  0  0  0
   -3.5481   -0.9910    0.5508 C   0  0  0  0  0  0  0  0  0  0  0  0
   -2.4504   -0.3511    1.1418 C   0  0  0  0  0  0  0  0  0  0  0  0
   -1.1204   -0.2920    0.4283 C   0  0  0  0  0  0  0  0  0  0  0  0
   -1.0474    0.7273   -0.6900 C   0  0  0  0  0  0  0  0  0  0  0  0
   -1.9918    1.3567   -1.1499 O   0  0  0  0  0  0  0  0  0  0  0  0
    0.2649    0.7856   -1.1089 O   0  0  0  0  0  0  0  0  0  0  0  0
    0.4044    1.7111   -2.1583 N   0  0  0  0  0  0  0  0  0  0  0  0
    1.6209    1.7514   -2.6226 C   0  0  0  0  0  0  0  0  0  0  0  0
    1.8848    2.5814   -3.6792 N   0  0  0  0  0  0  0  0  0  0  0  0
    2.7455    0.9482   -2.0804 C   0  0  0  0  0  0  0  0  0  0  0  0
    3.3223   -0.0496   -2.8655 C   0  0  0  0  0  0  0  0  0  0  0  0
    4.3909   -0.7873   -2.3526 C   0  0  0  0  0  0  0  0  0  0  0  0
    4.8877   -0.5298   -1.0693 C   0  0  0  0  0  0  0  0  0  0  0  0
    5.9354   -1.3259   -0.6962 O   0  0  0  0  0  0  0  0  0  0  0  0
    6.4831   -1.1060    0.5978 C   0  0  0  0  0  0  0  0  0  0  0  0
    4.3056    0.4770   -0.2946 C   0  0  0  0  0  0  0  0  0  0  0  0
    3.2337    1.2192   -0.8003 C   0  0  0  0  0  0  0  0  0  0  0  0
   -2.6122    0.2386    2.4008 C   0  0  0  0  0  0  0  0  0  0  0  0
   -3.8450    0.1764    3.0552 C   0  0  0  0  0  0  0  0  0  0  0  0
   -8.0638   -0.9231    3.3327 H   0  0  0  0  0  0  0  0  0  0  0  0
   -7.5150   -0.5195    1.7016 H   0  0  0  0  0  0  0  0  0  0  0  0
   -7.0913   -2.1076    2.4527 H   0  0  0  0  0  0  0  0  0  0  0  0
   -5.6020   -1.5513    0.7065 H   0  0  0  0  0  0  0  0  0  0  0  0
   -3.4550   -1.4413   -0.4355 H   0  0  0  0  0  0  0  0  0  0  0  0
   -0.3324   -0.0605    1.1558 H   0  0  0  0  0  0  0  0  0  0  0  0
   -0.8989   -1.2808    0.0083 H   0  0  0  0  0  0  0  0  0  0  0  0
    2.6551    2.3452   -4.2917 H   0  0  0  0  0  0  0  0  0  0  0  0
    1.0476    2.9008   -4.1565 H   0  0  0  0  0  0  0  0  0  0  0  0
    2.9400   -0.2665   -3.8584 H   0  0  0  0  0  0  0  0  0  0  0  0
    4.8426   -1.5726   -2.9547 H   0  0  0  0  0  0  0  0  0  0  0  0
    6.8967   -0.0958    0.6851 H   0  0  0  0  0  0  0  0  0  0  0  0
    5.7400   -1.2986    1.3786 H   0  0  0  0  0  0  0  0  0  0  0  0
    7.3047   -1.8151    0.7379 H   0  0  0  0  0  0  0  0  0  0  0  0
    4.6627    0.7116    0.7026 H   0  0  0  0  0  0  0  0  0  0  0  0
    2.7852    2.0088   -0.2024 H   0  0  0  0  0  0  0  0  0  0  0  0
   -1.7858    0.7535    2.8848 H   0  0  0  0  0  0  0  0  0  0  0  0
   -3.9589    0.6382    4.0329 H   0  0  0  0  0  0  0  0  0  0  0  0
  1  2  1  0
  2  3  1  0
  3  4  2  0
  4  5  1  0
  5  6  2  0
  6  7  1  0
  7  8  1  0
  8  9  2  0
  8 10  1  0
 10 11  1  0
 11 12  2  3
 12 13  1  0
 12 14  1  0
 14 15  2  0
 15 16  1  0
 16 17  2  0
 17 18  1  0
 18 19  1  0
 17 20  1  0
 20 21  2  0
  6 22  1  0
 22 23  2  0
 23  3  1  0
 21 14  1  0
  1 24  1  0
  1 25  1  0
  1 26  1  0
  4 27  1  0
  5 28  1  0
  7 29  1  0
  7 30  1  0
 13 31  1  0
 13 32  1  0
 15 33  1  0
 16 34  1  0
 19 35  1  0
 19 36  1  0
 19 37  1  0
 20 38  1  0
 21 39  1  0
 22 40  1  0
 23 41  1  0
M  END
$$$$
