
     RDKit          3D

 35 37  0  0  0  0  0  0  0  0999 V2000
    5.5092   -0.6976   -0.1735 C   0  0  0  0  0  0  0  0  0  0  0  0
    4.1338   -0.7624    0.4331 C   0  0  0  0  0  0  0  0  0  0  0  0
    3.3923   -1.9491    0.3279 C   0  0  0  0  0  0  0  0  0  0  0  0
    2.1167   -2.0447    0.8860 C   0  0  0  0  0  0  0  0  0  0  0  0
    1.5563   -0.9555    1.5496 C   0  0  0  0  0  0  0  0  0  0  0  0
    0.2693   -1.0454    2.0943 N   0  0  0  0  0  0  0  0  0  0  0  0
   -0.7365   -0.6910    1.3718 C   0  0  0  0  0  0  0  0  0  0  0  0
   -0.7182   -0.2230    0.0988 N   0  0  0  0  0  0  0  0  0  0  0  0
   -1.9085    0.1159   -0.4793 C   0  0  0  0  0  0  0  0  0  0  0  0
   -1.9895    0.5813   -1.6036 O   0  0  0  0  0  0  0  0  0  0  0  0
   -3.0334   -0.1554    0.4666 C   0  0  0  0  0  0  0  0  0  0  0  0
   -4.3536    0.0273    0.3199 C   0  0  0  0  0  0  0  0  0  0  0  0
   -5.0062    0.5072   -0.8497 C   0  0  0  0  0  0  0  0  0  0  0  0
   -4.8432    0.1847   -2.1859 C   0  0  0  0  0  0  0  0  0  0  0  0
   -5.7334    0.8906   -3.0474 C   0  0  0  0  0  0  0  0  0  0  0  0
   -6.5742    1.7216   -2.3464 C   0  0  0  0  0  0  0  0  0  0  0  0
   -6.2950    1.6419   -0.6645 S   0  0  0  0  0  0  0  0  0  0  0  0
   -2.3728   -0.7656    1.9612 S   0  0  0  0  0  0  0  0  0  0  0  0
    2.2978    0.2213    1.6800 C   0  0  0  0  0  0  0  0  0  0  0  0
    3.5833    0.3352    1.1248 C   0  0  0  0  0  0  0  0  0  0  0  0
    4.3437    1.6228    1.2881 C   0  0  0  0  0  0  0  0  0  0  0  0
    5.5719    0.1273   -0.8902 H   0  0  0  0  0  0  0  0  0  0  0  0
    5.7540   -1.6186   -0.7134 H   0  0  0  0  0  0  0  0  0  0  0  0
    6.2624   -0.5609    0.6088 H   0  0  0  0  0  0  0  0  0  0  0  0
    3.8075   -2.8143   -0.1850 H   0  0  0  0  0  0  0  0  0  0  0  0
    1.5602   -2.9747    0.8069 H   0  0  0  0  0  0  0  0  0  0  0  0
    0.1402   -0.0890   -0.4115 H   0  0  0  0  0  0  0  0  0  0  0  0
   -5.0019   -0.1850    1.1693 H   0  0  0  0  0  0  0  0  0  0  0  0
   -4.1082   -0.5265   -2.5441 H   0  0  0  0  0  0  0  0  0  0  0  0
   -5.7528    0.7897   -4.1254 H   0  0  0  0  0  0  0  0  0  0  0  0
   -7.3450    2.3695   -2.7404 H   0  0  0  0  0  0  0  0  0  0  0  0
    1.8633    1.0547    2.2279 H   0  0  0  0  0  0  0  0  0  0  0  0
    4.5544    2.0661    0.3097 H   0  0  0  0  0  0  0  0  0  0  0  0
    3.7725    2.3567    1.8665 H   0  0  0  0  0  0  0  0  0  0  0  0
    5.2838    1.4449    1.8196 H   0  0  0  0  0  0  0  0  0  0  0  0
  1  2  1  0
  2  3  2  0
  3  4  1  0
  4  5  2  0
  5  6  1  0
  6  7  2  3
  7  8  1  0
  8  9  1  0
  9 10  2  0
  9 11  1  0
 11 12  2  3
 12 13  1  0
 13 14  2  0
 14 15  1  0
 15 16  2  0
 16 17  1  0
 11 18  1  0
  5 19  1  0
 19 20  2  0
 20 21  1  0
 20  2  1  0
 18  7  1  0
 17 13  1  0
  1 22  1  0
  1 23  1  0
  1 24  1  0
  3 25  1  0
  4 26  1  0
  8 27  1  0
 12 28  1  0
 14 29  1  0
 15 30  1  0
 16 31  1  0
 19 32  1  0
 21 33  1  0
 21 34  1  0
 21 35  1  0
M  END
$$$$
