
     RDKit          3D

 47 50  0  0  0  0  0  0  0  0999 V2000
   -3.5912    1.3073   -1.2233 O   0  0  0  0  0  0  0  0  0  0  0  0
   -3.5700    0.4849   -0.3008 C   0  0  0  0  0  0  0  0  0  0  0  0
   -4.7022    0.4368    0.7675 C   0  0  0  0  0  0  0  0  0  0  0  0
   -4.4682    1.2287    2.0857 C   0  0  0  0  0  0  0  0  0  0  0  0
   -5.9704    1.5646    2.0790 C   0  0  0  0  0  0  0  0  0  0  0  0
   -5.9368    1.3623    0.5545 C   0  0  0  0  0  0  0  0  0  0  0  0
   -2.5498   -0.4485   -0.1418 N   0  0  0  0  0  0  0  0  0  0  0  0
   -2.4715   -1.4526    0.9317 C   0  0  0  0  0  0  0  0  0  0  0  0
   -1.1805   -2.2560    0.7281 C   0  0  0  0  0  0  0  0  0  0  0  0
   -0.5967   -1.6110   -0.4847 C   0  0  0  0  0  0  0  0  0  0  0  0
    0.5928   -1.9427   -1.1170 C   0  0  0  0  0  0  0  0  0  0  0  0
    0.9589   -1.2061   -2.2493 C   0  0  0  0  0  0  0  0  0  0  0  0
    2.4781   -1.6088   -3.0814 S   0  0  0  0  0  6  0  0  0  0  0  0
    2.5763   -0.7888   -4.2701 O   0  0  0  0  0  0  0  0  0  0  0  0
    2.5628   -3.0517   -3.1352 O   0  0  0  0  0  0  0  0  0  0  0  0
    3.6409   -1.0812   -2.0035 N   0  0  0  0  0  0  0  0  0  0  0  0
    3.7442    0.3650   -1.7492 C   0  0  0  0  0  0  0  0  0  0  0  0
    4.5995    0.6250   -0.5230 C   0  0  0  0  0  0  0  0  0  0  0  0
    5.4816    1.7050   -0.4816 C   0  0  0  0  0  0  0  0  0  0  0  0
    6.2465    1.9014    0.6661 C   0  0  0  0  0  0  0  0  0  0  0  0
    6.1038    1.0268    1.7381 C   0  0  0  0  0  0  0  0  0  0  0  0
    5.1921   -0.0127    1.6238 C   0  0  0  0  0  0  0  0  0  0  0  0
    4.4357   -0.2339    0.5250 N   0  0  0  0  0  0  0  0  0  0  0  0
    0.1383   -0.1800   -2.7456 C   0  0  0  0  0  0  0  0  0  0  0  0
   -1.0580    0.1378   -2.0925 C   0  0  0  0  0  0  0  0  0  0  0  0
   -1.4136   -0.5825   -0.9615 C   0  0  0  0  0  0  0  0  0  0  0  0
   -5.0411   -0.5916    0.9600 H   0  0  0  0  0  0  0  0  0  0  0  0
   -4.1264    0.6396    2.9418 H   0  0  0  0  0  0  0  0  0  0  0  0
   -3.8171    2.1041    1.9742 H   0  0  0  0  0  0  0  0  0  0  0  0
   -6.2361    2.5673    2.4215 H   0  0  0  0  0  0  0  0  0  0  0  0
   -6.5883    0.8301    2.6068 H   0  0  0  0  0  0  0  0  0  0  0  0
   -6.8192    0.8803    0.1277 H   0  0  0  0  0  0  0  0  0  0  0  0
   -5.7320    2.2824   -0.0033 H   0  0  0  0  0  0  0  0  0  0  0  0
   -2.4748   -0.9434    1.9037 H   0  0  0  0  0  0  0  0  0  0  0  0
   -3.3532   -2.1042    0.8824 H   0  0  0  0  0  0  0  0  0  0  0  0
   -1.3990   -3.3129    0.5472 H   0  0  0  0  0  0  0  0  0  0  0  0
   -0.5151   -2.1599    1.5909 H   0  0  0  0  0  0  0  0  0  0  0  0
    1.2156   -2.7521   -0.7475 H   0  0  0  0  0  0  0  0  0  0  0  0
    3.6986   -1.6317   -1.1439 H   0  0  0  0  0  0  0  0  0  0  0  0
    4.1762    0.8525   -2.6326 H   0  0  0  0  0  0  0  0  0  0  0  0
    2.7598    0.8027   -1.5466 H   0  0  0  0  0  0  0  0  0  0  0  0
    5.5859    2.3793   -1.3264 H   0  0  0  0  0  0  0  0  0  0  0  0
    6.9532    2.7282    0.7207 H   0  0  0  0  0  0  0  0  0  0  0  0
    6.6896    1.1525    2.6429 H   0  0  0  0  0  0  0  0  0  0  0  0
    5.0439   -0.7204    2.4378 H   0  0  0  0  0  0  0  0  0  0  0  0
    0.4192    0.3746   -3.6398 H   0  0  0  0  0  0  0  0  0  0  0  0
   -1.6825    0.9333   -2.4868 H   0  0  0  0  0  0  0  0  0  0  0  0
  1  2  2  0
  2  3  1  0
  3  4  1  0
  4  5  1  0
  5  6  1  0
  2  7  1  0
  7  8  1  0
  8  9  1  0
  9 10  1  0
 10 11  2  0
 11 12  1  0
 12 13  1  0
 13 14  2  0
 13 15  2  0
 13 16  1  0
 16 17  1  0
 17 18  1  0
 18 19  2  0
 19 20  1  0
 20 21  2  0
 21 22  1  0
 22 23  2  0
 12 24  2  0
 24 25  1  0
 25 26  2  0
  6  3  1  0
 26  7  1  0
 26 10  1  0
 23 18  1  0
  3 27  1  0
  4 28  1  0
  4 29  1  0
  5 30  1  0
  5 31  1  0
  6 32  1  0
  6 33  1  0
  8 34  1  0
  8 35  1  0
  9 36  1  0
  9 37  1  0
 11 38  1  0
 16 39  1  0
 17 40  1  0
 17 41  1  0
 19 42  1  0
 20 43  1  0
 21 44  1  0
 22 45  1  0
 24 46  1  0
 25 47  1  0
M  END
$$$$
