
     RDKit          3D

 53 56  0  0  0  0  0  0  0  0999 V2000
    0.3130   -2.9160    0.5181 C   0  0  0  0  0  0  0  0  0  0  0  0
   -0.4002   -1.7481   -0.1130 C   0  0  0  0  0  0  0  0  0  0  0  0
    0.0693   -1.1851   -1.3113 C   0  0  0  0  0  0  0  0  0  0  0  0
    1.2057   -1.7481   -1.8272 O   0  0  0  0  0  0  0  0  0  0  0  0
    1.7743   -1.2044   -3.0162 C   0  0  0  0  0  0  0  0  0  0  0  0
    2.8391   -2.1904   -3.4856 C   0  0  0  0  0  0  0  0  0  0  0  0
    2.4356    0.1683   -2.8043 C   0  0  0  0  0  0  0  0  0  0  0  0
    2.3731    1.0610   -3.6472 O   0  0  0  0  0  0  0  0  0  0  0  0
    3.1143    0.3013   -1.6172 N   0  0  0  0  0  0  0  0  0  0  0  0
    3.8884    1.4846   -1.3180 C   0  0  0  0  0  0  0  0  0  0  0  0
    4.3805    1.4630    0.1070 C   0  0  0  0  0  0  0  0  0  0  0  0
    3.6279    2.0425    1.1248 C   0  0  0  0  0  0  0  0  0  0  0  0
    4.0906    1.9582    2.4360 C   0  0  0  0  0  0  0  0  0  0  0  0
    5.2806    1.2927    2.6975 C   0  0  0  0  0  0  0  0  0  0  0  0
    5.9601    0.7314    1.6311 C   0  0  0  0  0  0  0  0  0  0  0  0
    5.5341    0.7916    0.3500 N   0  0  0  0  0  0  0  0  0  0  0  0
   -0.6242   -0.1168   -1.8819 C   0  0  0  0  0  0  0  0  0  0  0  0
   -1.7756    0.3975   -1.2703 C   0  0  0  0  0  0  0  0  0  0  0  0
   -2.2714   -0.1495   -0.0841 C   0  0  0  0  0  0  0  0  0  0  0  0
   -3.4745    0.3522    0.5996 C   0  0  0  0  0  0  0  0  0  0  0  0
   -3.9202   -0.2876    1.6984 C   0  0  0  0  0  0  0  0  0  0  0  0
   -3.2098   -1.4572    2.2707 C   0  0  0  0  0  0  0  0  0  0  0  0
   -3.6130   -2.0313    3.2771 O   0  0  0  0  0  0  0  0  0  0  0  0
   -2.0581   -1.8616    1.6258 O   0  0  0  0  0  0  0  0  0  0  0  0
   -1.5791   -1.2312    0.4584 C   0  0  0  0  0  0  0  0  0  0  0  0
   -5.1711    0.1139    2.4356 C   0  0  0  0  0  0  0  0  0  0  0  0
   -6.0513    1.0873    1.6520 C   0  0  0  0  0  0  0  0  0  0  0  0
   -5.2070    2.1779    1.0133 C   0  0  0  0  0  0  0  0  0  0  0  0
   -4.1757    1.5765    0.0557 C   0  0  0  0  0  0  0  0  0  0  0  0
   -0.0045   -3.8498    0.0428 H   0  0  0  0  0  0  0  0  0  0  0  0
    1.3988   -2.8154    0.4187 H   0  0  0  0  0  0  0  0  0  0  0  0
    0.1141   -2.9834    1.5917 H   0  0  0  0  0  0  0  0  0  0  0  0
    1.0137   -1.1267   -3.8014 H   0  0  0  0  0  0  0  0  0  0  0  0
    3.3462   -1.8330   -4.3864 H   0  0  0  0  0  0  0  0  0  0  0  0
    2.3855   -3.1642   -3.7001 H   0  0  0  0  0  0  0  0  0  0  0  0
    3.5961   -2.3586   -2.7106 H   0  0  0  0  0  0  0  0  0  0  0  0
    3.2842   -0.5274   -1.0579 H   0  0  0  0  0  0  0  0  0  0  0  0
    4.7402    1.5134   -2.0060 H   0  0  0  0  0  0  0  0  0  0  0  0
    3.2816    2.3767   -1.5156 H   0  0  0  0  0  0  0  0  0  0  0  0
    2.6931    2.5450    0.9084 H   0  0  0  0  0  0  0  0  0  0  0  0
    3.5236    2.4037    3.2475 H   0  0  0  0  0  0  0  0  0  0  0  0
    5.6673    1.2110    3.7074 H   0  0  0  0  0  0  0  0  0  0  0  0
    6.8962    0.1971    1.7830 H   0  0  0  0  0  0  0  0  0  0  0  0
   -0.3030    0.3542   -2.8061 H   0  0  0  0  0  0  0  0  0  0  0  0
   -2.2717    1.2326   -1.7569 H   0  0  0  0  0  0  0  0  0  0  0  0
   -5.7723   -0.7712    2.6762 H   0  0  0  0  0  0  0  0  0  0  0  0
   -4.8821    0.5759    3.3867 H   0  0  0  0  0  0  0  0  0  0  0  0
   -6.5991    0.5428    0.8726 H   0  0  0  0  0  0  0  0  0  0  0  0
   -6.7985    1.5298    2.3187 H   0  0  0  0  0  0  0  0  0  0  0  0
   -4.6939    2.7493    1.7962 H   0  0  0  0  0  0  0  0  0  0  0  0
   -5.8452    2.8854    0.4720 H   0  0  0  0  0  0  0  0  0  0  0  0
   -3.4490    2.3653   -0.1728 H   0  0  0  0  0  0  0  0  0  0  0  0
   -4.6766    1.3077   -0.8833 H   0  0  0  0  0  0  0  0  0  0  0  0
  1  2  1  0
  2  3  2  0
  3  4  1  0
  4  5  1  0
  5  6  1  0
  5  7  1  0
  7  8  2  0
  7  9  1  0
  9 10  1  0
 10 11  1  0
 11 12  2  0
 12 13  1  0
 13 14  2  0
 14 15  1  0
 15 16  2  0
  3 17  1  0
 17 18  2  0
 18 19  1  0
 19 20  1  0
 20 21  2  0
 21 22  1  0
 22 23  2  0
 22 24  1  0
 24 25  1  0
 21 26  1  0
 26 27  1  0
 27 28  1  0
 28 29  1  0
 25  2  1  0
 16 11  1  0
 25 19  2  0
 29 20  1  0
  1 30  1  0
  1 31  1  0
  1 32  1  0
  5 33  1  0
  6 34  1  0
  6 35  1  0
  6 36  1  0
  9 37  1  0
 10 38  1  0
 10 39  1  0
 12 40  1  0
 13 41  1  0
 14 42  1  0
 15 43  1  0
 17 44  1  0
 18 45  1  0
 26 46  1  0
 26 47  1  0
 27 48  1  0
 27 49  1  0
 28 50  1  0
 28 51  1  0
 29 52  1  0
 29 53  1  0
M  END
$$$$
