
     RDKit          3D

 48 50  0  0  0  0  0  0  0  0999 V2000
    5.7041   -2.3417   -0.7850 C   0  0  0  0  0  0  0  0  0  0  0  0
    5.6806   -0.9739   -0.1156 C   0  0  0  0  0  0  0  0  0  0  0  0
    4.6248   -0.1164   -0.6709 N   0  0  0  0  0  0  0  0  0  0  0  0
    5.0664    1.0289   -1.4773 C   0  0  0  0  0  0  0  0  0  0  0  0
    5.2693    0.6342   -2.9322 C   0  0  0  0  0  0  0  0  0  0  0  0
    3.2767   -0.3302   -0.3973 C   0  0  0  0  0  0  0  0  0  0  0  0
    2.2543    0.2847   -1.1419 C   0  0  0  0  0  0  0  0  0  0  0  0
    0.8928    0.0728   -0.8751 C   0  0  0  0  0  0  0  0  0  0  0  0
    0.5041   -0.7689    0.1622 C   0  0  0  0  0  0  0  0  0  0  0  0
   -0.9106   -1.0234    0.4376 C   0  0  0  0  0  0  0  0  0  0  0  0
   -1.7609   -0.2504    1.1437 C   0  0  0  0  0  0  0  0  0  0  0  0
   -1.3837    1.0316    1.7771 C   0  0  0  0  0  0  0  0  0  0  0  0
   -0.3020    1.5914    1.6550 O   0  0  0  0  0  0  0  0  0  0  0  0
   -2.3622    1.6002    2.5373 N   0  0  0  0  0  0  0  0  0  0  0  0
   -3.6816    1.2659    2.5640 C   0  0  0  0  0  0  0  0  0  0  0  0
   -4.4735    2.0069    3.1448 O   0  0  0  0  0  0  0  0  0  0  0  0
   -4.0426    0.1005    1.9233 N   0  0  0  0  0  0  0  0  0  0  0  0
   -5.4522   -0.2662    1.9396 C   0  0  0  0  0  0  0  0  0  0  0  0
   -6.1511    0.4381    0.8281 C   0  0  0  0  0  0  0  0  0  0  0  0
   -6.8760    1.6105    0.7575 C   0  0  0  0  0  0  0  0  0  0  0  0
   -7.2800    1.7496   -0.5919 C   0  0  0  0  0  0  0  0  0  0  0  0
   -6.7761    0.6571   -1.2573 C   0  0  0  0  0  0  0  0  0  0  0  0
   -6.0872   -0.1430   -0.4043 O   0  0  0  0  0  0  0  0  0  0  0  0
   -3.1575   -0.7529    1.2853 C   0  0  0  0  0  0  0  0  0  0  0  0
   -3.4763   -1.8666    0.8710 O   0  0  0  0  0  0  0  0  0  0  0  0
    1.4882   -1.3986    0.9180 C   0  0  0  0  0  0  0  0  0  0  0  0
    2.8458   -1.1788    0.6376 C   0  0  0  0  0  0  0  0  0  0  0  0
    6.5304   -2.9399   -0.3880 H   0  0  0  0  0  0  0  0  0  0  0  0
    4.7775   -2.8976   -0.6151 H   0  0  0  0  0  0  0  0  0  0  0  0
    5.8421   -2.2501   -1.8668 H   0  0  0  0  0  0  0  0  0  0  0  0
    5.5848   -1.0702    0.9715 H   0  0  0  0  0  0  0  0  0  0  0  0
    6.6632   -0.5115   -0.2728 H   0  0  0  0  0  0  0  0  0  0  0  0
    4.3722    1.8739   -1.4016 H   0  0  0  0  0  0  0  0  0  0  0  0
    6.0141    1.4166   -1.0825 H   0  0  0  0  0  0  0  0  0  0  0  0
    4.3582    0.2146   -3.3695 H   0  0  0  0  0  0  0  0  0  0  0  0
    6.0618   -0.1144   -3.0300 H   0  0  0  0  0  0  0  0  0  0  0  0
    5.5602    1.5084   -3.5231 H   0  0  0  0  0  0  0  0  0  0  0  0
    2.4890    0.9411   -1.9739 H   0  0  0  0  0  0  0  0  0  0  0  0
    0.1505    0.5761   -1.4888 H   0  0  0  0  0  0  0  0  0  0  0  0
   -1.2556   -1.9629    0.0049 H   0  0  0  0  0  0  0  0  0  0  0  0
   -2.1275    2.4901    2.9540 H   0  0  0  0  0  0  0  0  0  0  0  0
   -5.8986    0.0179    2.8998 H   0  0  0  0  0  0  0  0  0  0  0  0
   -5.5793   -1.3490    1.8342 H   0  0  0  0  0  0  0  0  0  0  0  0
   -7.0781    2.2827    1.5810 H   0  0  0  0  0  0  0  0  0  0  0  0
   -7.8644    2.5478   -1.0273 H   0  0  0  0  0  0  0  0  0  0  0  0
   -6.8154    0.3203   -2.2840 H   0  0  0  0  0  0  0  0  0  0  0  0
    1.2198   -2.0652    1.7334 H   0  0  0  0  0  0  0  0  0  0  0  0
    3.5615   -1.6900    1.2732 H   0  0  0  0  0  0  0  0  0  0  0  0
  1  2  1  0
  2  3  1  0
  3  4  1  0
  4  5  1  0
  3  6  1  0
  6  7  2  0
  7  8  1  0
  8  9  2  0
  9 10  1  0
 10 11  2  3
 11 12  1  0
 12 13  2  0
 12 14  1  0
 14 15  1  0
 15 16  2  0
 15 17  1  0
 17 18  1  0
 18 19  1  0
 19 20  2  0
 20 21  1  0
 21 22  2  0
 22 23  1  0
 17 24  1  0
 24 25  2  0
  9 26  1  0
 26 27  2  0
 27  6  1  0
 24 11  1  0
 23 19  1  0
  1 28  1  0
  1 29  1  0
  1 30  1  0
  2 31  1  0
  2 32  1  0
  4 33  1  0
  4 34  1  0
  5 35  1  0
  5 36  1  0
  5 37  1  0
  7 38  1  0
  8 39  1  0
 10 40  1  0
 14 41  1  0
 18 42  1  0
 18 43  1  0
 20 44  1  0
 21 45  1  0
 22 46  1  0
 26 47  1  0
 27 48  1  0
M  END
$$$$
