
     RDKit          3D

 50 51  0  0  0  0  0  0  0  0999 V2000
    3.7165    3.1403   -2.1841 C   0  0  0  0  0  0  0  0  0  0  0  0
    3.7207    1.8716   -1.3824 C   0  0  0  0  0  0  0  0  0  0  0  0
    4.6127    0.8378   -1.6941 C   0  0  0  0  0  0  0  0  0  0  0  0
    4.5933   -0.3563   -0.9685 C   0  0  0  0  0  0  0  0  0  0  0  0
    3.6711   -0.5371    0.0693 C   0  0  0  0  0  0  0  0  0  0  0  0
    3.6503   -1.7857    0.8294 C   0  0  0  0  0  0  0  0  0  0  0  0
    4.4940   -2.0121    1.8453 C   0  0  0  0  0  0  0  0  0  0  0  0
    4.2389   -3.5675    2.5617 S   0  0  0  0  0  0  0  0  0  0  0  0
    2.9104   -3.9214    1.4373 C   0  0  0  0  0  0  0  0  0  0  0  0
    2.0285   -5.3349    1.4850 S   0  0  0  0  0  0  0  0  0  0  0  0
    2.7715   -2.8327    0.5705 N   0  0  0  0  0  0  0  0  0  0  0  0
    1.7506   -2.7658   -0.4855 C   0  0  0  0  0  0  0  0  0  0  0  0
    0.3710   -2.2991   -0.0264 C   0  0  0  0  0  0  0  0  0  0  0  0
   -0.5950   -2.2214   -0.7811 O   0  0  0  0  0  0  0  0  0  0  0  0
    0.3248   -2.0073    1.3035 O   0  0  0  0  0  0  0  0  0  0  0  0
   -0.9607   -1.5962    1.7644 C   0  0  0  0  0  0  0  0  0  0  0  0
   -1.3647   -0.2028    1.2698 C   0  0  0  0  0  0  0  0  0  0  0  0
   -0.5724    0.7374    1.2360 O   0  0  0  0  0  0  0  0  0  0  0  0
   -2.6912   -0.1031    0.8858 N   0  0  0  0  0  0  0  0  0  0  0  0
   -3.2182    1.1162    0.2740 C   0  0  0  0  0  0  0  0  0  0  0  0
   -2.8814    1.1385   -1.2228 C   0  0  0  0  0  0  0  0  0  0  0  0
   -4.7306    1.2698    0.5933 C   0  0  0  0  0  0  0  0  0  0  0  0
   -5.2482    2.6632    0.2216 C   0  0  0  0  0  0  0  0  0  0  0  0
   -5.6163    0.2036   -0.0638 C   0  0  0  0  0  0  0  0  0  0  0  0
    2.7749    0.4920    0.3768 C   0  0  0  0  0  0  0  0  0  0  0  0
    2.7921    1.6833   -0.3521 C   0  0  0  0  0  0  0  0  0  0  0  0
    3.3979    3.9904   -1.5689 H   0  0  0  0  0  0  0  0  0  0  0  0
    4.7217    3.3688   -2.5576 H   0  0  0  0  0  0  0  0  0  0  0  0
    3.0346    3.0429   -3.0364 H   0  0  0  0  0  0  0  0  0  0  0  0
    5.3296    0.9564   -2.5049 H   0  0  0  0  0  0  0  0  0  0  0  0
    5.2959   -1.1455   -1.2269 H   0  0  0  0  0  0  0  0  0  0  0  0
    5.2483   -1.3240    2.2030 H   0  0  0  0  0  0  0  0  0  0  0  0
    2.0868   -2.1042   -1.2902 H   0  0  0  0  0  0  0  0  0  0  0  0
    1.6275   -3.7652   -0.9153 H   0  0  0  0  0  0  0  0  0  0  0  0
   -1.7116   -2.3530    1.5031 H   0  0  0  0  0  0  0  0  0  0  0  0
   -0.9224   -1.5509    2.8578 H   0  0  0  0  0  0  0  0  0  0  0  0
   -3.1577   -0.9701    0.6398 H   0  0  0  0  0  0  0  0  0  0  0  0
   -2.6917    1.9598    0.7418 H   0  0  0  0  0  0  0  0  0  0  0  0
   -3.3079    0.2746   -1.7468 H   0  0  0  0  0  0  0  0  0  0  0  0
   -1.7953    1.0994   -1.3778 H   0  0  0  0  0  0  0  0  0  0  0  0
   -3.2472    2.0515   -1.7025 H   0  0  0  0  0  0  0  0  0  0  0  0
   -4.8496    1.1641    1.6820 H   0  0  0  0  0  0  0  0  0  0  0  0
   -4.6299    3.4468    0.6775 H   0  0  0  0  0  0  0  0  0  0  0  0
   -6.2743    2.8002    0.5818 H   0  0  0  0  0  0  0  0  0  0  0  0
   -5.2564    2.8184   -0.8617 H   0  0  0  0  0  0  0  0  0  0  0  0
   -5.3112   -0.8046    0.2307 H   0  0  0  0  0  0  0  0  0  0  0  0
   -6.6616    0.3309    0.2469 H   0  0  0  0  0  0  0  0  0  0  0  0
   -5.5871    0.2644   -1.1580 H   0  0  0  0  0  0  0  0  0  0  0  0
    2.0483    0.3777    1.1798 H   0  0  0  0  0  0  0  0  0  0  0  0
    2.0704    2.4607   -0.1066 H   0  0  0  0  0  0  0  0  0  0  0  0
  1  2  1  0
  2  3  2  0
  3  4  1  0
  4  5  2  0
  5  6  1  0
  6  7  2  0
  7  8  1  0
  8  9  1  0
  9 10  2  0
  9 11  1  0
 11 12  1  0
 12 13  1  0
 13 14  2  0
 13 15  1  0
 15 16  1  0
 16 17  1  0
 17 18  2  0
 17 19  1  0
 19 20  1  0
 20 21  1  0
 20 22  1  0
 22 23  1  0
 22 24  1  0
  5 25  1  0
 25 26  2  0
 26  2  1  0
 11  6  1  0
  1 27  1  0
  1 28  1  0
  1 29  1  0
  3 30  1  0
  4 31  1  0
  7 32  1  0
 12 33  1  0
 12 34  1  0
 16 35  1  0
 16 36  1  0
 19 37  1  0
 20 38  1  0
 21 39  1  0
 21 40  1  0
 21 41  1  0
 22 42  1  0
 23 43  1  0
 23 44  1  0
 23 45  1  0
 24 46  1  0
 24 47  1  0
 24 48  1  0
 25 49  1  0
 26 50  1  0
M  END
$$$$
