
     RDKit          3D

 44 46  0  0  0  0  0  0  0  0999 V2000
   -2.0788   -2.3511    3.0982 O   0  0  0  0  0  0  0  0  0  0  0  0
   -1.6021   -2.4110    1.9672 C   0  0  0  0  0  0  0  0  0  0  0  0
   -1.0048   -3.6908    1.4048 C   0  0  0  0  0  0  0  0  0  0  0  0
    0.7415   -3.8662    1.8971 S   0  0  0  0  0  0  0  0  0  0  0  0
    1.4968   -2.5974    0.9095 C   0  0  0  0  0  0  0  0  0  0  0  0
    2.7256   -2.0770    1.2682 C   0  0  0  0  0  0  0  0  0  0  0  0
    3.2851   -1.0673    0.4846 C   0  0  0  0  0  0  0  0  0  0  0  0
    2.6004   -0.6090   -0.6358 C   0  0  0  0  0  0  0  0  0  0  0  0
    3.0940    0.4666   -1.5161 C   0  0  0  0  0  0  0  0  0  0  0  0
    4.4681    0.6701   -1.7488 C   0  0  0  0  0  0  0  0  0  0  0  0
    4.9210    1.7012   -2.5794 C   0  0  0  0  0  0  0  0  0  0  0  0
    4.0082    2.5509   -3.1980 C   0  0  0  0  0  0  0  0  0  0  0  0
    2.6438    2.3670   -2.9935 C   0  0  0  0  0  0  0  0  0  0  0  0
    2.1937    1.3347   -2.1646 C   0  0  0  0  0  0  0  0  0  0  0  0
    1.3999   -1.1470   -0.9556 N   0  0  0  0  0  0  0  0  0  0  0  0
    0.8556   -2.1523   -0.1897 N   0  0  0  0  0  0  0  0  0  0  0  0
   -1.5721   -1.3361    1.1011 N   0  0  0  0  0  0  0  0  0  0  0  0
   -2.0632   -0.0172    1.4820 C   0  0  0  0  0  0  0  0  0  0  0  0
   -3.6046   -0.0100    1.4911 C   0  0  0  0  0  0  0  0  0  0  0  0
   -4.1778    1.3523    1.1221 C   0  0  0  0  0  0  0  0  0  0  0  0
   -3.7505    1.7800   -0.2839 C   0  0  0  0  0  0  0  0  0  0  0  0
   -2.3449    1.3050   -0.6647 C   0  0  0  0  0  0  0  0  0  0  0  0
   -1.4728    1.0701    0.5646 C   0  0  0  0  0  0  0  0  0  0  0  0
   -1.1253   -3.7405    0.3181 H   0  0  0  0  0  0  0  0  0  0  0  0
   -1.5681   -4.5325    1.8214 H   0  0  0  0  0  0  0  0  0  0  0  0
    3.2457   -2.4326    2.1511 H   0  0  0  0  0  0  0  0  0  0  0  0
    4.2374   -0.6370    0.7745 H   0  0  0  0  0  0  0  0  0  0  0  0
    5.2108    0.0136   -1.3004 H   0  0  0  0  0  0  0  0  0  0  0  0
    5.9859    1.8353   -2.7488 H   0  0  0  0  0  0  0  0  0  0  0  0
    4.3586    3.3507   -3.8453 H   0  0  0  0  0  0  0  0  0  0  0  0
    1.9264    3.0243   -3.4793 H   0  0  0  0  0  0  0  0  0  0  0  0
    1.1198    1.2150   -2.0223 H   0  0  0  0  0  0  0  0  0  0  0  0
   -0.9681   -1.4085    0.2828 H   0  0  0  0  0  0  0  0  0  0  0  0
   -1.7002    0.1738    2.5009 H   0  0  0  0  0  0  0  0  0  0  0  0
   -3.9675   -0.3093    2.4823 H   0  0  0  0  0  0  0  0  0  0  0  0
   -3.9951   -0.7563    0.7864 H   0  0  0  0  0  0  0  0  0  0  0  0
   -3.8365    2.0972    1.8522 H   0  0  0  0  0  0  0  0  0  0  0  0
   -5.2728    1.3327    1.1861 H   0  0  0  0  0  0  0  0  0  0  0  0
   -3.8030    2.8738   -0.3493 H   0  0  0  0  0  0  0  0  0  0  0  0
   -4.4651    1.3951   -1.0231 H   0  0  0  0  0  0  0  0  0  0  0  0
   -1.8752    2.0409   -1.3278 H   0  0  0  0  0  0  0  0  0  0  0  0
   -2.4193    0.3726   -1.2395 H   0  0  0  0  0  0  0  0  0  0  0  0
   -1.3984    2.0114    1.1254 H   0  0  0  0  0  0  0  0  0  0  0  0
   -0.4521    0.8149    0.2574 H   0  0  0  0  0  0  0  0  0  0  0  0
  1  2  2  0
  2  3  1  0
  3  4  1  0
  4  5  1  0
  5  6  2  0
  6  7  1  0
  7  8  2  0
  8  9  1  0
  9 10  2  0
 10 11  1  0
 11 12  2  0
 12 13  1  0
 13 14  2  0
  8 15  1  0
 15 16  2  0
  2 17  1  0
 17 18  1  0
 18 19  1  0
 19 20  1  0
 20 21  1  0
 21 22  1  0
 22 23  1  0
 16  5  1  0
 23 18  1  0
 14  9  1  0
  3 24  1  0
  3 25  1  0
  6 26  1  0
  7 27  1  0
 10 28  1  0
 11 29  1  0
 12 30  1  0
 13 31  1  0
 14 32  1  0
 17 33  1  0
 18 34  1  0
 19 35  1  0
 19 36  1  0
 20 37  1  0
 20 38  1  0
 21 39  1  0
 21 40  1  0
 22 41  1  0
 22 42  1  0
 23 43  1  0
 23 44  1  0
M  END
$$$$
