
     RDKit          3D

 62 64  0  0  0  0  0  0  0  0999 V2000
    8.5950    4.2960    1.7358 C   0  0  0  0  0  0  0  0  0  0  0  0
    7.6546    3.5957    2.5410 O   0  0  0  0  0  0  0  0  0  0  0  0
    6.4454    3.3115    1.9690 C   0  0  0  0  0  0  0  0  0  0  0  0
    6.1075    3.5005    0.6283 C   0  0  0  0  0  0  0  0  0  0  0  0
    4.8301    3.1599    0.1698 C   0  0  0  0  0  0  0  0  0  0  0  0
    3.8739    2.6305    1.0459 C   0  0  0  0  0  0  0  0  0  0  0  0
    2.5001    2.2581    0.5448 C   0  0  0  0  0  0  0  0  0  0  0  0
    2.3175    0.7447    0.4604 C   0  0  0  0  0  0  0  0  0  0  0  0
    0.9502    0.3704   -0.0809 C   0  0  0  0  0  0  0  0  0  0  0  0
    0.1429    1.2113   -0.4609 O   0  0  0  0  0  0  0  0  0  0  0  0
    0.7565   -0.9932   -0.0624 N   0  0  0  0  0  0  0  0  0  0  0  0
   -0.3774   -1.7244   -0.4676 C   0  0  0  0  0  0  0  0  0  0  0  0
   -1.4770   -1.1635   -1.1118 C   0  0  0  0  0  0  0  0  0  0  0  0
   -2.5595   -1.9818   -1.4504 C   0  0  0  0  0  0  0  0  0  0  0  0
   -3.9645   -1.2559   -2.2589 S   0  0  0  0  0  6  0  0  0  0  0  0
   -5.0772   -2.1733   -2.1273 O   0  0  0  0  0  0  0  0  0  0  0  0
   -3.5095   -0.8166   -3.5595 O   0  0  0  0  0  0  0  0  0  0  0  0
   -4.2976    0.1033   -1.2974 N   0  0  0  0  0  0  0  0  0  0  0  0
   -4.7408   -0.1154    0.1006 C   0  0  0  0  0  0  0  0  0  0  0  0
   -6.2566   -0.2700    0.2003 C   0  0  0  0  0  0  0  0  0  0  0  0
   -6.9933    0.8726   -0.4943 C   0  0  0  0  0  0  0  0  0  0  0  0
   -6.4992    1.0472   -1.9277 C   0  0  0  0  0  0  0  0  0  0  0  0
   -4.9879    1.2348   -1.9592 C   0  0  0  0  0  0  0  0  0  0  0  0
   -2.5552   -3.3473   -1.1563 C   0  0  0  0  0  0  0  0  0  0  0  0
   -1.4449   -3.9117   -0.5274 C   0  0  0  0  0  0  0  0  0  0  0  0
   -0.3441   -3.1135   -0.1797 C   0  0  0  0  0  0  0  0  0  0  0  0
    0.8132   -3.6362    0.4681 N   0  0  0  0  0  0  0  0  0  0  0  0
    1.4715   -4.6700   -0.3410 C   0  0  0  0  0  0  0  0  0  0  0  0
    0.5033   -4.0634    1.8382 C   0  0  0  0  0  0  0  0  0  0  0  0
    4.2184    2.4430    2.3899 C   0  0  0  0  0  0  0  0  0  0  0  0
    5.4962    2.7774    2.8437 C   0  0  0  0  0  0  0  0  0  0  0  0
    8.1858    5.2501    1.3869 H   0  0  0  0  0  0  0  0  0  0  0  0
    9.4687    4.5159    2.3582 H   0  0  0  0  0  0  0  0  0  0  0  0
    8.9308    3.6786    0.8957 H   0  0  0  0  0  0  0  0  0  0  0  0
    6.8146    3.9063   -0.0894 H   0  0  0  0  0  0  0  0  0  0  0  0
    4.5869    3.3162   -0.8807 H   0  0  0  0  0  0  0  0  0  0  0  0
    1.7484    2.6941    1.2169 H   0  0  0  0  0  0  0  0  0  0  0  0
    2.3234    2.7173   -0.4369 H   0  0  0  0  0  0  0  0  0  0  0  0
    3.0799    0.3020   -0.1911 H   0  0  0  0  0  0  0  0  0  0  0  0
    2.4236    0.2986    1.4567 H   0  0  0  0  0  0  0  0  0  0  0  0
    1.4649   -1.5908    0.3588 H   0  0  0  0  0  0  0  0  0  0  0  0
   -1.5121   -0.1082   -1.3636 H   0  0  0  0  0  0  0  0  0  0  0  0
   -4.2476   -0.9892    0.5371 H   0  0  0  0  0  0  0  0  0  0  0  0
   -4.4116    0.7454    0.6964 H   0  0  0  0  0  0  0  0  0  0  0  0
   -6.5529   -0.3079    1.2551 H   0  0  0  0  0  0  0  0  0  0  0  0
   -6.5670   -1.2215   -0.2454 H   0  0  0  0  0  0  0  0  0  0  0  0
   -8.0720    0.6789   -0.4911 H   0  0  0  0  0  0  0  0  0  0  0  0
   -6.8345    1.8020    0.0649 H   0  0  0  0  0  0  0  0  0  0  0  0
   -6.7825    0.1704   -2.5224 H   0  0  0  0  0  0  0  0  0  0  0  0
   -6.9881    1.9153   -2.3829 H   0  0  0  0  0  0  0  0  0  0  0  0
   -4.6363    1.3607   -2.9884 H   0  0  0  0  0  0  0  0  0  0  0  0
   -4.7108    2.1579   -1.4352 H   0  0  0  0  0  0  0  0  0  0  0  0
   -3.4044   -3.9749   -1.4195 H   0  0  0  0  0  0  0  0  0  0  0  0
   -1.4508   -4.9753   -0.3034 H   0  0  0  0  0  0  0  0  0  0  0  0
    0.8772   -5.5873   -0.4131 H   0  0  0  0  0  0  0  0  0  0  0  0
    1.6783   -4.2988   -1.3513 H   0  0  0  0  0  0  0  0  0  0  0  0
    2.4364   -4.9260    0.1112 H   0  0  0  0  0  0  0  0  0  0  0  0
    1.4299   -4.3382    2.3555 H   0  0  0  0  0  0  0  0  0  0  0  0
    0.0471   -3.2454    2.4079 H   0  0  0  0  0  0  0  0  0  0  0  0
   -0.1660   -4.9314    1.8597 H   0  0  0  0  0  0  0  0  0  0  0  0
    3.4956    2.0399    3.0944 H   0  0  0  0  0  0  0  0  0  0  0  0
    5.7537    2.6249    3.8896 H   0  0  0  0  0  0  0  0  0  0  0  0
  1  2  1  0
  2  3  1  0
  3  4  2  0
  4  5  1  0
  5  6  2  0
  6  7  1  0
  7  8  1  0
  8  9  1  0
  9 10  2  0
  9 11  1  0
 11 12  1  0
 12 13  2  0
 13 14  1  0
 14 15  1  0
 15 16  2  0
 15 17  2  0
 15 18  1  0
 18 19  1  0
 19 20  1  0
 20 21  1  0
 21 22  1  0
 22 23  1  0
 14 24  2  0
 24 25  1  0
 25 26  2  0
 26 27  1  0
 27 28  1  0
 27 29  1  0
  6 30  1  0
 30 31  2  0
 31  3  1  0
 26 12  1  0
 23 18  1  0
  1 32  1  0
  1 33  1  0
  1 34  1  0
  4 35  1  0
  5 36  1  0
  7 37  1  0
  7 38  1  0
  8 39  1  0
  8 40  1  0
 11 41  1  0
 13 42  1  0
 19 43  1  0
 19 44  1  0
 20 45  1  0
 20 46  1  0
 21 47  1  0
 21 48  1  0
 22 49  1  0
 22 50  1  0
 23 51  1  0
 23 52  1  0
 24 53  1  0
 25 54  1  0
 28 55  1  0
 28 56  1  0
 28 57  1  0
 29 58  1  0
 29 59  1  0
 29 60  1  0
 30 61  1  0
 31 62  1  0
M  END
$$$$
