
     RDKit          3D

 35 37  0  0  0  0  0  0  0  0999 V2000
   -3.7107    2.5325   -0.7505 C   0  0  0  0  0  0  0  0  0  0  0  0
   -3.1341    1.1830   -0.4351 C   0  0  0  0  0  0  0  0  0  0  0  0
   -2.3183    1.0109    0.6919 C   0  0  0  0  0  0  0  0  0  0  0  0
   -1.7599   -0.2357    0.9775 C   0  0  0  0  0  0  0  0  0  0  0  0
   -1.9995   -1.3099    0.1172 C   0  0  0  0  0  0  0  0  0  0  0  0
   -1.2952   -2.9037    0.4739 S   0  0  0  0  0  6  0  0  0  0  0  0
   -0.9201   -2.9315    1.8711 O   0  0  0  0  0  0  0  0  0  0  0  0
   -2.1776   -3.9052   -0.0876 O   0  0  0  0  0  0  0  0  0  0  0  0
    0.0985   -2.9231   -0.4834 N   0  0  0  0  0  0  0  0  0  0  0  0
    1.0415   -1.8669   -0.3650 C   0  0  0  0  0  0  0  0  0  0  0  0
    1.2373   -1.0089   -1.4478 C   0  0  0  0  0  0  0  0  0  0  0  0
    2.1291    0.0650   -1.3454 C   0  0  0  0  0  0  0  0  0  0  0  0
    2.8311    0.2802   -0.1509 C   0  0  0  0  0  0  0  0  0  0  0  0
    3.7338    1.3634   -0.0193 N   0  0  0  0  0  0  0  0  0  0  0  0
    4.0816    2.3278   -0.9313 C   0  0  0  0  0  0  0  0  0  0  0  0
    4.9523    3.1475   -0.3890 N   0  0  0  0  0  0  0  0  0  0  0  0
    5.1529    2.6856    0.8842 N   0  0  0  0  0  0  0  0  0  0  0  0
    4.4214    1.6058    1.1201 N   0  0  0  0  0  0  0  0  0  0  0  0
    2.6343   -0.5904    0.9319 C   0  0  0  0  0  0  0  0  0  0  0  0
    1.7414   -1.6601    0.8213 C   0  0  0  0  0  0  0  0  0  0  0  0
   -2.8131   -1.1549   -1.0082 C   0  0  0  0  0  0  0  0  0  0  0  0
   -3.3701    0.0945   -1.2862 C   0  0  0  0  0  0  0  0  0  0  0  0
   -4.6468    2.4377   -1.3109 H   0  0  0  0  0  0  0  0  0  0  0  0
   -3.9369    3.0834    0.1685 H   0  0  0  0  0  0  0  0  0  0  0  0
   -2.9995    3.1126   -1.3466 H   0  0  0  0  0  0  0  0  0  0  0  0
   -2.1208    1.8475    1.3596 H   0  0  0  0  0  0  0  0  0  0  0  0
   -1.1412   -0.3580    1.8638 H   0  0  0  0  0  0  0  0  0  0  0  0
   -0.0844   -3.3073   -1.4086 H   0  0  0  0  0  0  0  0  0  0  0  0
    0.6897   -1.1560   -2.3752 H   0  0  0  0  0  0  0  0  0  0  0  0
    2.2425    0.7099   -2.2121 H   0  0  0  0  0  0  0  0  0  0  0  0
    3.6929    2.3924   -1.9344 H   0  0  0  0  0  0  0  0  0  0  0  0
    3.1656   -0.4560    1.8736 H   0  0  0  0  0  0  0  0  0  0  0  0
    1.6055   -2.3293    1.6687 H   0  0  0  0  0  0  0  0  0  0  0  0
   -3.0228   -1.9957   -1.6652 H   0  0  0  0  0  0  0  0  0  0  0  0
   -4.0005    0.2132   -2.1655 H   0  0  0  0  0  0  0  0  0  0  0  0
  1  2  1  0
  2  3  2  0
  3  4  1  0
  4  5  2  0
  5  6  1  0
  6  7  2  0
  6  8  2  0
  6  9  1  0
  9 10  1  0
 10 11  2  0
 11 12  1  0
 12 13  2  0
 13 14  1  0
 14 15  1  0
 15 16  2  0
 16 17  1  0
 17 18  2  0
 13 19  1  0
 19 20  2  0
  5 21  1  0
 21 22  2  0
 22  2  1  0
 20 10  1  0
 18 14  1  0
  1 23  1  0
  1 24  1  0
  1 25  1  0
  3 26  1  0
  4 27  1  0
  9 28  1  0
 11 29  1  0
 12 30  1  0
 15 31  1  0
 19 32  1  0
 20 33  1  0
 21 34  1  0
 22 35  1  0
M  END
$$$$
