
     RDKit          3D

 29 31  0  0  0  0  0  0  0  0999 V2000
   -0.8046   -1.7345   -1.2885 O   0  0  0  0  0  0  0  0  0  0  0  0
   -1.8357   -1.3954   -0.7331 C   0  0  0  0  0  0  0  0  0  0  0  0
   -2.6266   -2.2693   -0.0373 N   0  0  0  0  0  0  0  0  0  0  0  0
   -3.8905   -1.8822    0.2766 C   0  0  0  0  0  0  0  0  0  0  0  0
   -5.0033   -2.8707    1.0011 S   0  0  0  0  0  0  0  0  0  0  0  0
   -4.1379   -0.2239   -0.2127 S   0  0  0  0  0  0  0  0  0  0  0  0
   -2.5053   -0.0600   -0.7989 C   0  0  0  0  0  0  0  0  0  0  0  0
   -2.0243    1.1197   -1.2139 C   0  0  0  0  0  0  0  0  0  0  0  0
   -0.6658    1.3485   -1.5520 C   0  0  0  0  0  0  0  0  0  0  0  0
   -0.1247    2.2825   -2.4253 C   0  0  0  0  0  0  0  0  0  0  0  0
    1.2858    2.1494   -2.3781 C   0  0  0  0  0  0  0  0  0  0  0  0
    1.5538    1.1525   -1.4675 C   0  0  0  0  0  0  0  0  0  0  0  0
    3.1022    0.5307   -0.9686 S   0  0  0  0  0  0  0  0  0  0  0  0
    2.5964   -0.8476    0.1092 C   0  0  0  0  0  0  0  0  0  0  0  0
    2.1125   -0.3951    1.4416 C   0  0  0  0  0  0  0  0  0  0  0  0
    2.6233    0.4456    2.4117 C   0  0  0  0  0  0  0  0  0  0  0  0
    1.6848    0.4561    3.4710 C   0  0  0  0  0  0  0  0  0  0  0  0
    0.6674   -0.3850    3.0889 C   0  0  0  0  0  0  0  0  0  0  0  0
    0.9193   -0.9119    1.8641 O   0  0  0  0  0  0  0  0  0  0  0  0
    0.3811    0.6886   -0.9647 O   0  0  0  0  0  0  0  0  0  0  0  0
   -2.3248   -3.2251    0.0737 H   0  0  0  0  0  0  0  0  0  0  0  0
   -2.6806    1.9852   -1.2482 H   0  0  0  0  0  0  0  0  0  0  0  0
   -0.6879    2.9787   -3.0317 H   0  0  0  0  0  0  0  0  0  0  0  0
    2.0186    2.7135   -2.9374 H   0  0  0  0  0  0  0  0  0  0  0  0
    3.4761   -1.4831    0.2586 H   0  0  0  0  0  0  0  0  0  0  0  0
    1.8482   -1.4636   -0.4001 H   0  0  0  0  0  0  0  0  0  0  0  0
    3.5562    0.9891    2.3535 H   0  0  0  0  0  0  0  0  0  0  0  0
    1.7431    1.0075    4.3986 H   0  0  0  0  0  0  0  0  0  0  0  0
   -0.2568   -0.7002    3.5520 H   0  0  0  0  0  0  0  0  0  0  0  0
  1  2  2  0
  2  3  1  0
  3  4  1  0
  4  5  2  0
  4  6  1  0
  6  7  1  0
  7  8  2  3
  8  9  1  0
  9 10  2  0
 10 11  1  0
 11 12  2  0
 12 13  1  0
 13 14  1  0
 14 15  1  0
 15 16  2  0
 16 17  1  0
 17 18  2  0
 18 19  1  0
 12 20  1  0
  7  2  1  0
 20  9  1  0
 19 15  1  0
  3 21  1  0
  8 22  1  0
 10 23  1  0
 11 24  1  0
 14 25  1  0
 14 26  1  0
 16 27  1  0
 17 28  1  0
 18 29  1  0
M  END
$$$$
