
     RDKit          3D

 41 42  0  0  0  0  0  0  0  0999 V2000
   -2.8177   -1.8371   -2.7597 O   0  0  0  0  0  0  0  0  0  0  0  0
   -2.0835   -1.4808   -1.8412 C   0  0  0  0  0  0  0  0  0  0  0  0
   -0.6068   -1.8603   -1.7864 C   0  0  0  0  0  0  0  0  0  0  0  0
    0.1186   -0.9698   -0.9406 O   0  0  0  0  0  0  0  0  0  0  0  0
    1.4537   -1.3981   -0.8788 N   0  0  0  0  0  0  0  0  0  0  0  0
    2.1295   -0.5657   -0.1536 C   0  0  0  0  0  0  0  0  0  0  0  0
    3.5718   -0.7437    0.1011 C   0  0  0  0  0  0  0  0  0  0  0  0
    4.2667   -1.8308   -0.4420 C   0  0  0  0  0  0  0  0  0  0  0  0
    5.6320   -1.9862   -0.1923 C   0  0  0  0  0  0  0  0  0  0  0  0
    6.3074   -1.0570    0.6004 C   0  0  0  0  0  0  0  0  0  0  0  0
    5.6055    0.0297    1.1415 C   0  0  0  0  0  0  0  0  0  0  0  0
    6.3139    1.0083    1.9762 N   0  0  0  0  0  4  0  0  0  0  0  0
    7.5254    0.8351    2.1671 O   0  0  0  0  0  0  0  0  0  0  0  0
    5.6548    1.9495    2.4402 O   0  0  0  0  0  1  0  0  0  0  0  0
    4.2348    0.1943    0.8961 C   0  0  0  0  0  0  0  0  0  0  0  0
   -2.5268   -0.7510   -0.7556 N   0  0  0  0  0  0  0  0  0  0  0  0
   -3.8750   -0.2002   -0.6872 C   0  0  0  0  0  0  0  0  0  0  0  0
   -4.0030    1.0810   -1.5328 C   0  0  0  0  0  0  0  0  0  0  0  0
   -3.9206    2.3770   -0.7204 C   0  0  0  0  0  0  0  0  0  0  0  0
   -2.9943    2.2454    0.4788 C   0  0  0  0  0  0  0  0  0  0  0  0
   -3.4582    1.1519    1.4415 C   0  0  0  0  0  0  0  0  0  0  0  0
   -4.2757    0.0442    0.7693 C   0  0  0  0  0  0  0  0  0  0  0  0
   -0.5317   -2.8842   -1.4048 H   0  0  0  0  0  0  0  0  0  0  0  0
   -0.1991   -1.8020   -2.8012 H   0  0  0  0  0  0  0  0  0  0  0  0
    1.6420    0.3152    0.3027 H   0  0  0  0  0  0  0  0  0  0  0  0
    3.7497   -2.5615   -1.0621 H   0  0  0  0  0  0  0  0  0  0  0  0
    6.1676   -2.8329   -0.6171 H   0  0  0  0  0  0  0  0  0  0  0  0
    7.3717   -1.1928    0.7853 H   0  0  0  0  0  0  0  0  0  0  0  0
    3.6907    1.0376    1.3156 H   0  0  0  0  0  0  0  0  0  0  0  0
   -1.8025   -0.3570   -0.1646 H   0  0  0  0  0  0  0  0  0  0  0  0
   -4.5444   -0.9578   -1.1137 H   0  0  0  0  0  0  0  0  0  0  0  0
   -3.2408    1.0994   -2.3216 H   0  0  0  0  0  0  0  0  0  0  0  0
   -4.9710    1.0740   -2.0500 H   0  0  0  0  0  0  0  0  0  0  0  0
   -3.5862    3.1945   -1.3693 H   0  0  0  0  0  0  0  0  0  0  0  0
   -4.9243    2.6500   -0.3704 H   0  0  0  0  0  0  0  0  0  0  0  0
   -2.9284    3.2000    1.0132 H   0  0  0  0  0  0  0  0  0  0  0  0
   -1.9799    2.0190    0.1275 H   0  0  0  0  0  0  0  0  0  0  0  0
   -4.0648    1.5962    2.2402 H   0  0  0  0  0  0  0  0  0  0  0  0
   -2.5791    0.7205    1.9356 H   0  0  0  0  0  0  0  0  0  0  0  0
   -5.3370    0.3243    0.7973 H   0  0  0  0  0  0  0  0  0  0  0  0
   -4.1851   -0.8782    1.3559 H   0  0  0  0  0  0  0  0  0  0  0  0
  1  2  2  0
  2  3  1  0
  3  4  1  0
  4  5  1  0
  5  6  2  3
  6  7  1  0
  7  8  2  0
  8  9  1  0
  9 10  2  0
 10 11  1  0
 11 12  1  0
 12 13  2  0
 12 14  1  0
 11 15  2  0
  2 16  1  0
 16 17  1  0
 17 18  1  0
 18 19  1  0
 19 20  1  0
 20 21  1  0
 21 22  1  0
 15  7  1  0
 22 17  1  0
  3 23  1  0
  3 24  1  0
  6 25  1  0
  8 26  1  0
  9 27  1  0
 10 28  1  0
 15 29  1  0
 16 30  1  0
 17 31  1  0
 18 32  1  0
 18 33  1  0
 19 34  1  0
 19 35  1  0
 20 36  1  0
 20 37  1  0
 21 38  1  0
 21 39  1  0
 22 40  1  0
 22 41  1  0
M  CHG  2  12   1  14  -1
M  END
$$$$
