
     RDKit          3D

 48 50  0  0  0  0  0  0  0  0999 V2000
   -3.1986   -2.6783   -3.8074 C   0  0  0  0  0  0  0  0  0  0  0  0
   -3.8142   -2.1393   -2.5276 C   0  0  0  0  0  0  0  0  0  0  0  0
   -2.9019   -1.2427   -1.8717 O   0  0  0  0  0  0  0  0  0  0  0  0
   -1.9582   -1.8263   -1.0799 C   0  0  0  0  0  0  0  0  0  0  0  0
   -1.8339   -3.0317   -0.9074 O   0  0  0  0  0  0  0  0  0  0  0  0
   -1.0358   -0.7842   -0.4985 C   0  0  0  0  0  0  0  0  0  0  0  0
    0.1443   -1.4205    0.2007 C   0  0  0  0  0  0  0  0  0  0  0  0
    1.2529   -1.9990   -0.6394 C   0  0  0  0  0  0  0  0  0  0  0  0
    2.4267   -0.7726   -1.1158 S   0  0  0  0  0  6  0  0  0  0  0  0
    3.5284   -1.4484   -1.7768 O   0  0  0  0  0  0  0  0  0  0  0  0
    1.6971    0.2752   -1.8075 O   0  0  0  0  0  0  0  0  0  0  0  0
    3.0740   -0.0966    0.3890 C   0  0  0  0  0  0  0  0  0  0  0  0
    3.7330   -0.9397    1.2874 C   0  0  0  0  0  0  0  0  0  0  0  0
    4.2381   -0.4107    2.4766 C   0  0  0  0  0  0  0  0  0  0  0  0
    4.0967    0.9504    2.7546 C   0  0  0  0  0  0  0  0  0  0  0  0
    3.4580    1.7889    1.8400 C   0  0  0  0  0  0  0  0  0  0  0  0
    2.9459    1.2694    0.6513 C   0  0  0  0  0  0  0  0  0  0  0  0
    0.2415   -1.5632    1.4833 N   0  0  0  0  0  0  0  0  0  0  0  0
   -0.7567   -1.1712    2.3243 C   0  0  0  0  0  0  0  0  0  0  0  0
   -0.7510   -1.4165    3.5240 O   0  0  0  0  0  0  0  0  0  0  0  0
   -1.7964   -0.4680    1.8052 N   0  0  0  0  0  0  0  0  0  0  0  0
   -1.7881    0.1034    0.4844 C   0  0  0  0  0  0  0  0  0  0  0  0
   -1.2897    1.5443    0.4633 C   0  0  0  0  0  0  0  0  0  0  0  0
   -0.4650    2.0908    1.4578 C   0  0  0  0  0  0  0  0  0  0  0  0
   -0.0451    3.4229    1.3870 C   0  0  0  0  0  0  0  0  0  0  0  0
   -0.4368    4.2269    0.3203 C   0  0  0  0  0  0  0  0  0  0  0  0
   -1.2507    3.7021   -0.6771 C   0  0  0  0  0  0  0  0  0  0  0  0
   -1.6762    2.3733   -0.6066 C   0  0  0  0  0  0  0  0  0  0  0  0
   -2.8612   -1.8584   -4.4514 H   0  0  0  0  0  0  0  0  0  0  0  0
   -3.9215   -3.2881   -4.3576 H   0  0  0  0  0  0  0  0  0  0  0  0
   -2.3188   -3.2928   -3.5909 H   0  0  0  0  0  0  0  0  0  0  0  0
   -4.1228   -2.9495   -1.8556 H   0  0  0  0  0  0  0  0  0  0  0  0
   -4.7125   -1.5584   -2.7682 H   0  0  0  0  0  0  0  0  0  0  0  0
   -0.6627   -0.2155   -1.3552 H   0  0  0  0  0  0  0  0  0  0  0  0
    1.7806   -2.7850   -0.0921 H   0  0  0  0  0  0  0  0  0  0  0  0
    0.8438   -2.4338   -1.5558 H   0  0  0  0  0  0  0  0  0  0  0  0
    3.8636   -1.9973    1.0764 H   0  0  0  0  0  0  0  0  0  0  0  0
    4.7457   -1.0588    3.1881 H   0  0  0  0  0  0  0  0  0  0  0  0
    4.4912    1.3581    3.6836 H   0  0  0  0  0  0  0  0  0  0  0  0
    3.3607    2.8497    2.0558 H   0  0  0  0  0  0  0  0  0  0  0  0
    2.4524    1.9342   -0.0559 H   0  0  0  0  0  0  0  0  0  0  0  0
   -2.4261   -0.1055    2.5082 H   0  0  0  0  0  0  0  0  0  0  0  0
   -2.8523    0.1566    0.2214 H   0  0  0  0  0  0  0  0  0  0  0  0
   -0.1220    1.4961    2.3002 H   0  0  0  0  0  0  0  0  0  0  0  0
    0.5952    3.8315    2.1655 H   0  0  0  0  0  0  0  0  0  0  0  0
   -0.1052    5.2603    0.2652 H   0  0  0  0  0  0  0  0  0  0  0  0
   -1.5565    4.3291   -1.5125 H   0  0  0  0  0  0  0  0  0  0  0  0
   -2.3102    1.9891   -1.4027 H   0  0  0  0  0  0  0  0  0  0  0  0
  1  2  1  0
  2  3  1  0
  3  4  1  0
  4  5  2  0
  4  6  1  0
  6  7  1  0
  7  8  1  0
  8  9  1  0
  9 10  2  0
  9 11  2  0
  9 12  1  0
 12 13  2  0
 13 14  1  0
 14 15  2  0
 15 16  1  0
 16 17  2  0
  7 18  2  0
 18 19  1  0
 19 20  2  0
 19 21  1  0
 21 22  1  0
 22 23  1  0
 23 24  2  0
 24 25  1  0
 25 26  2  0
 26 27  1  0
 27 28  2  0
 22  6  1  0
 28 23  1  0
 17 12  1  0
  1 29  1  0
  1 30  1  0
  1 31  1  0
  2 32  1  0
  2 33  1  0
  6 34  1  0
  8 35  1  0
  8 36  1  0
 13 37  1  0
 14 38  1  0
 15 39  1  0
 16 40  1  0
 17 41  1  0
 21 42  1  0
 22 43  1  0
 24 44  1  0
 25 45  1  0
 26 46  1  0
 27 47  1  0
 28 48  1  0
M  END
$$$$
