
     RDKit          3D

 47 50  0  0  0  0  0  0  0  0999 V2000
   -7.0644   -0.3819   -0.7427 C   0  0  0  0  0  0  0  0  0  0  0  0
   -5.5592   -0.1516   -0.8576 C   0  0  0  0  0  0  0  0  0  0  0  0
   -5.2432    1.3485   -1.0069 C   0  0  0  0  0  0  0  0  0  0  0  0
   -3.7421    1.6053   -1.2243 C   0  0  0  0  0  0  0  0  0  0  0  0
   -2.8724    0.7858   -0.3073 C   0  0  0  0  0  0  0  0  0  0  0  0
   -3.3949   -0.2971    0.3781 C   0  0  0  0  0  0  0  0  0  0  0  0
   -2.2285   -1.1347    1.2756 S   0  0  0  0  0  0  0  0  0  0  0  0
   -0.9817   -0.1311    0.7231 C   0  0  0  0  0  0  0  0  0  0  0  0
    0.3393   -0.3657    1.0679 N   0  0  0  0  0  0  0  0  0  0  0  0
    0.8564   -1.3536    1.8849 C   0  0  0  0  0  0  0  0  0  0  0  0
    0.2190   -2.1907    2.5137 O   0  0  0  0  0  0  0  0  0  0  0  0
    2.3091   -1.3031    1.9446 C   0  0  0  0  0  0  0  0  0  0  0  0
    3.2216   -2.0918    2.6189 C   0  0  0  0  0  0  0  0  0  0  0  0
    4.5077   -1.5905    2.3055 C   0  0  0  0  0  0  0  0  0  0  0  0
    4.3129   -0.5216    1.4558 C   0  0  0  0  0  0  0  0  0  0  0  0
    5.2323    0.4212    0.7731 C   0  0  0  0  0  0  0  0  0  0  0  0
    5.9571   -0.2550   -0.2939 N   0  0  0  0  0  0  0  0  0  0  0  0
    5.5027   -0.4983   -1.5629 C   0  0  0  0  0  0  0  0  0  0  0  0
    6.5336   -1.1346   -2.2002 C   0  0  0  0  0  0  0  0  0  0  0  0
    6.5928   -1.7672   -3.9537 Br  0  0  0  0  0  0  0  0  0  0  0  0
    7.5695   -1.2254   -1.2626 C   0  0  0  0  0  0  0  0  0  0  0  0
    7.2289   -0.6777   -0.0900 N   0  0  0  0  0  0  0  0  0  0  0  0
    2.9791   -0.3367    1.2375 O   0  0  0  0  0  0  0  0  0  0  0  0
   -1.4409    0.9059   -0.0851 C   0  0  0  0  0  0  0  0  0  0  0  0
   -0.5129    1.9013   -0.6241 C   0  0  0  0  0  0  0  0  0  0  0  0
   -1.0165    3.1489   -0.8511 N   0  0  0  0  0  0  0  0  0  0  0  0
    0.6857    1.6858   -0.7899 O   0  0  0  0  0  0  0  0  0  0  0  0
   -4.8281   -0.7355    0.3679 C   0  0  0  0  0  0  0  0  0  0  0  0
   -7.2873   -1.4504   -0.6544 H   0  0  0  0  0  0  0  0  0  0  0  0
   -7.5835   -0.0032   -1.6293 H   0  0  0  0  0  0  0  0  0  0  0  0
   -7.4798    0.1253    0.1348 H   0  0  0  0  0  0  0  0  0  0  0  0
   -5.2039   -0.6685   -1.7599 H   0  0  0  0  0  0  0  0  0  0  0  0
   -5.8037    1.7762   -1.8469 H   0  0  0  0  0  0  0  0  0  0  0  0
   -5.5726    1.8801   -0.1039 H   0  0  0  0  0  0  0  0  0  0  0  0
   -3.4798    1.3543   -2.2597 H   0  0  0  0  0  0  0  0  0  0  0  0
   -3.5683    2.6753   -1.0916 H   0  0  0  0  0  0  0  0  0  0  0  0
    1.0248    0.2448    0.6220 H   0  0  0  0  0  0  0  0  0  0  0  0
    2.9733   -2.9315    3.2547 H   0  0  0  0  0  0  0  0  0  0  0  0
    5.4639   -1.9660    2.6462 H   0  0  0  0  0  0  0  0  0  0  0  0
    4.6906    1.2580    0.3186 H   0  0  0  0  0  0  0  0  0  0  0  0
    5.9663    0.8323    1.4749 H   0  0  0  0  0  0  0  0  0  0  0  0
    4.5091   -0.2130   -1.8803 H   0  0  0  0  0  0  0  0  0  0  0  0
    8.5547   -1.6596   -1.3741 H   0  0  0  0  0  0  0  0  0  0  0  0
   -0.3232    3.8589   -1.0472 H   0  0  0  0  0  0  0  0  0  0  0  0
   -1.8353    3.4482   -0.3416 H   0  0  0  0  0  0  0  0  0  0  0  0
   -5.3063   -0.3902    1.2937 H   0  0  0  0  0  0  0  0  0  0  0  0
   -4.9018   -1.8296    0.3480 H   0  0  0  0  0  0  0  0  0  0  0  0
  1  2  1  0
  2  3  1  0
  3  4  1  0
  4  5  1  0
  5  6  2  0
  6  7  1  0
  7  8  1  0
  8  9  1  0
  9 10  1  0
 10 11  2  0
 10 12  1  0
 12 13  2  0
 13 14  1  0
 14 15  2  0
 15 16  1  0
 16 17  1  0
 17 18  1  0
 18 19  2  0
 19 20  1  0
 19 21  1  0
 21 22  2  0
 15 23  1  0
  8 24  2  0
 24 25  1  0
 25 26  1  0
 25 27  2  0
  6 28  1  0
 28  2  1  0
 24  5  1  0
 23 12  1  0
 22 17  1  0
  1 29  1  0
  1 30  1  0
  1 31  1  0
  2 32  1  0
  3 33  1  0
  3 34  1  0
  4 35  1  0
  4 36  1  0
  9 37  1  0
 13 38  1  0
 14 39  1  0
 16 40  1  0
 16 41  1  0
 18 42  1  0
 21 43  1  0
 26 44  1  0
 26 45  1  0
 28 46  1  0
 28 47  1  0
M  END
$$$$
