
     RDKit          3D

 43 46  0  0  0  0  0  0  0  0999 V2000
    4.5759   -0.3416    2.0785 C   0  0  0  0  0  0  0  0  0  0  0  0
    3.2898    0.1255    1.6956 O   0  0  0  0  0  0  0  0  0  0  0  0
    2.4266   -0.8854    1.3265 C   0  0  0  0  0  0  0  0  0  0  0  0
    1.2085   -0.4712    1.0068 N   0  0  0  0  0  0  0  0  0  0  0  0
    0.3611   -1.4186    0.6429 C   0  0  0  0  0  0  0  0  0  0  0  0
   -0.9442   -1.1249    0.3012 N   0  0  0  0  0  0  0  0  0  0  0  0
   -1.3286    0.1412   -0.3227 C   0  0  0  0  0  0  0  0  0  0  0  0
   -0.4867    0.4625   -1.5802 C   0  0  0  0  0  0  0  0  0  0  0  0
   -0.9870    1.7586   -2.2438 C   0  0  0  0  0  0  0  0  0  0  0  0
   -0.8930    2.9155   -1.2335 C   0  0  0  0  0  0  0  0  0  0  0  0
   -1.7658    2.6184   -0.0013 C   0  0  0  0  0  0  0  0  0  0  0  0
   -3.2245    2.4334   -0.4455 C   0  0  0  0  0  0  0  0  0  0  0  0
   -3.3229    1.2707   -1.4443 C   0  0  0  0  0  0  0  0  0  0  0  0
   -2.4518    1.5781   -2.6720 C   0  0  0  0  0  0  0  0  0  0  0  0
   -2.8114   -0.0135   -0.7729 C   0  0  0  0  0  0  0  0  0  0  0  0
   -1.2690    1.3253    0.6716 C   0  0  0  0  0  0  0  0  0  0  0  0
    0.6751   -2.7037    0.5799 N   0  0  0  0  0  0  0  0  0  0  0  0
    1.9218   -3.0023    0.9226 C   0  0  0  0  0  0  0  0  0  0  0  0
    2.2233   -4.3464    0.8440 O   0  0  0  0  0  0  0  0  0  0  0  0
    3.5480   -4.6531    1.2567 C   0  0  0  0  0  0  0  0  0  0  0  0
    2.8539   -2.1402    1.3036 N   0  0  0  0  0  0  0  0  0  0  0  0
    5.1747    0.5277    2.3674 H   0  0  0  0  0  0  0  0  0  0  0  0
    5.0859   -0.8325    1.2423 H   0  0  0  0  0  0  0  0  0  0  0  0
    4.5161   -1.0067    2.9472 H   0  0  0  0  0  0  0  0  0  0  0  0
   -1.3062   -1.9577   -0.1533 H   0  0  0  0  0  0  0  0  0  0  0  0
   -0.5389   -0.3683   -2.2961 H   0  0  0  0  0  0  0  0  0  0  0  0
    0.5730    0.5841   -1.3265 H   0  0  0  0  0  0  0  0  0  0  0  0
   -0.3713    1.9839   -3.1218 H   0  0  0  0  0  0  0  0  0  0  0  0
    0.1502    3.0618   -0.9274 H   0  0  0  0  0  0  0  0  0  0  0  0
   -1.2201    3.8502   -1.7054 H   0  0  0  0  0  0  0  0  0  0  0  0
   -1.6994    3.4512    0.7078 H   0  0  0  0  0  0  0  0  0  0  0  0
   -3.5966    3.3566   -0.9064 H   0  0  0  0  0  0  0  0  0  0  0  0
   -3.8598    2.2343    0.4263 H   0  0  0  0  0  0  0  0  0  0  0  0
   -4.3652    1.1369   -1.7545 H   0  0  0  0  0  0  0  0  0  0  0  0
   -2.8119    2.4872   -3.1691 H   0  0  0  0  0  0  0  0  0  0  0  0
   -2.5312    0.7633   -3.4021 H   0  0  0  0  0  0  0  0  0  0  0  0
   -2.9093   -0.8558   -1.4713 H   0  0  0  0  0  0  0  0  0  0  0  0
   -3.4450   -0.2577    0.0906 H   0  0  0  0  0  0  0  0  0  0  0  0
   -0.2497    1.4962    1.0331 H   0  0  0  0  0  0  0  0  0  0  0  0
   -1.8770    1.1074    1.5594 H   0  0  0  0  0  0  0  0  0  0  0  0
    3.6814   -5.7361    1.1739 H   0  0  0  0  0  0  0  0  0  0  0  0
    3.7131   -4.3777    2.3043 H   0  0  0  0  0  0  0  0  0  0  0  0
    4.2882   -4.1769    0.6042 H   0  0  0  0  0  0  0  0  0  0  0  0
  1  2  1  0
  2  3  1  0
  3  4  2  0
  4  5  1  0
  5  6  1  0
  6  7  1  0
  7  8  1  0
  8  9  1  0
  9 10  1  0
 10 11  1  0
 11 12  1  0
 12 13  1  0
 13 14  1  0
 13 15  1  0
 11 16  1  0
  5 17  2  0
 17 18  1  0
 18 19  1  0
 19 20  1  0
 18 21  2  0
 21  3  1  0
 15  7  1  0
 16  7  1  0
 14  9  1  0
  1 22  1  0
  1 23  1  0
  1 24  1  0
  6 25  1  0
  8 26  1  0
  8 27  1  0
  9 28  1  0
 10 29  1  0
 10 30  1  0
 11 31  1  0
 12 32  1  0
 12 33  1  0
 13 34  1  0
 14 35  1  0
 14 36  1  0
 15 37  1  0
 15 38  1  0
 16 39  1  0
 16 40  1  0
 20 41  1  0
 20 42  1  0
 20 43  1  0
M  END
$$$$
