
     RDKit          3D

 45 46  0  0  0  0  0  0  0  0999 V2000
   -1.1857    2.5441    1.2601 C   0  0  0  0  0  0  0  0  0  0  0  0
   -1.4638    1.1651    1.0229 O   0  0  0  0  0  0  0  0  0  0  0  0
   -1.1420    0.7382   -0.2284 C   0  0  0  0  0  0  0  0  0  0  0  0
   -0.6574    1.4390   -1.1124 O   0  0  0  0  0  0  0  0  0  0  0  0
   -1.4863   -0.7416   -0.4116 C   0  0  0  0  0  0  0  0  0  0  0  0
   -2.8236   -0.8769   -1.1493 C   0  0  0  0  0  0  0  0  0  0  0  0
   -4.0124   -0.4297   -0.3337 C   0  0  0  0  0  0  0  0  0  0  0  0
   -4.4958   -1.2270    0.7126 C   0  0  0  0  0  0  0  0  0  0  0  0
   -5.5834   -0.8046    1.4782 C   0  0  0  0  0  0  0  0  0  0  0  0
   -6.1970    0.4166    1.2060 C   0  0  0  0  0  0  0  0  0  0  0  0
   -5.7241    1.2167    0.1678 C   0  0  0  0  0  0  0  0  0  0  0  0
   -4.6366    0.7968   -0.5994 C   0  0  0  0  0  0  0  0  0  0  0  0
   -0.4058   -1.3438   -1.2088 N   0  0  0  0  0  0  0  0  0  0  0  0
    0.7079   -1.8683   -0.5841 C   0  0  0  0  0  0  0  0  0  0  0  0
    0.7807   -2.0308    0.6287 O   0  0  0  0  0  0  0  0  0  0  0  0
    1.8087   -2.2433   -1.5547 C   0  0  0  0  0  0  0  0  0  0  0  0
    3.0636   -2.7311   -0.8408 C   0  0  0  0  0  0  0  0  0  0  0  0
    3.7600   -1.6688   -0.1464 N   0  0  0  0  0  0  0  0  0  0  0  0
    4.5803   -0.7662   -0.7882 C   0  0  0  0  0  0  0  0  0  0  0  0
    4.8443   -0.8566   -1.9847 O   0  0  0  0  0  0  0  0  0  0  0  0
    5.0766    0.2929    0.0653 C   0  0  0  0  0  0  0  0  0  0  0  0
    5.9112    1.3612   -0.2042 C   0  0  0  0  0  0  0  0  0  0  0  0
    6.0571    2.0817    1.0053 C   0  0  0  0  0  0  0  0  0  0  0  0
    5.3039    1.4137    1.9410 C   0  0  0  0  0  0  0  0  0  0  0  0
    4.7043    0.3294    1.3856 O   0  0  0  0  0  0  0  0  0  0  0  0
   -1.4770    2.7769    2.2881 H   0  0  0  0  0  0  0  0  0  0  0  0
   -0.1154    2.7444    1.1493 H   0  0  0  0  0  0  0  0  0  0  0  0
   -1.7709    3.1746    0.5833 H   0  0  0  0  0  0  0  0  0  0  0  0
   -1.5165   -1.2320    0.5680 H   0  0  0  0  0  0  0  0  0  0  0  0
   -2.9820   -1.9246   -1.4393 H   0  0  0  0  0  0  0  0  0  0  0  0
   -2.7944   -0.3176   -2.0944 H   0  0  0  0  0  0  0  0  0  0  0  0
   -4.0286   -2.1830    0.9403 H   0  0  0  0  0  0  0  0  0  0  0  0
   -5.9518   -1.4285    2.2884 H   0  0  0  0  0  0  0  0  0  0  0  0
   -7.0438    0.7444    1.8031 H   0  0  0  0  0  0  0  0  0  0  0  0
   -6.2029    2.1691   -0.0444 H   0  0  0  0  0  0  0  0  0  0  0  0
   -4.2804    1.4370   -1.4039 H   0  0  0  0  0  0  0  0  0  0  0  0
   -0.2464   -0.9193   -2.1172 H   0  0  0  0  0  0  0  0  0  0  0  0
    1.4241   -3.0466   -2.1938 H   0  0  0  0  0  0  0  0  0  0  0  0
    2.0339   -1.3776   -2.1878 H   0  0  0  0  0  0  0  0  0  0  0  0
    2.8293   -3.5040   -0.1014 H   0  0  0  0  0  0  0  0  0  0  0  0
    3.7509   -3.1656   -1.5753 H   0  0  0  0  0  0  0  0  0  0  0  0
    3.4931   -1.4547    0.8107 H   0  0  0  0  0  0  0  0  0  0  0  0
    6.3545    1.5812   -1.1661 H   0  0  0  0  0  0  0  0  0  0  0  0
    6.6388    2.9770    1.1742 H   0  0  0  0  0  0  0  0  0  0  0  0
    5.1009    1.5729    2.9911 H   0  0  0  0  0  0  0  0  0  0  0  0
  1  2  1  0
  2  3  1  0
  3  4  2  0
  3  5  1  0
  5  6  1  0
  6  7  1  0
  7  8  2  0
  8  9  1  0
  9 10  2  0
 10 11  1  0
 11 12  2  0
  5 13  1  0
 13 14  1  0
 14 15  2  0
 14 16  1  0
 16 17  1  0
 17 18  1  0
 18 19  1  0
 19 20  2  0
 19 21  1  0
 21 22  2  0
 22 23  1  0
 23 24  2  0
 24 25  1  0
 12  7  1  0
 25 21  1  0
  1 26  1  0
  1 27  1  0
  1 28  1  0
  5 29  1  0
  6 30  1  0
  6 31  1  0
  8 32  1  0
  9 33  1  0
 10 34  1  0
 11 35  1  0
 12 36  1  0
 13 37  1  0
 16 38  1  0
 16 39  1  0
 17 40  1  0
 17 41  1  0
 18 42  1  0
 22 43  1  0
 23 44  1  0
 24 45  1  0
M  END
$$$$
