
     RDKit          3D

 44 46  0  0  0  0  0  0  0  0999 V2000
    3.7142    1.9443    1.4125 C   0  0  0  0  0  0  0  0  0  0  0  0
    2.5980    1.2136    0.7446 C   0  0  0  0  0  0  0  0  0  0  0  0
    1.2633    1.5667    0.7413 C   0  0  0  0  0  0  0  0  0  0  0  0
    0.5561    0.6714   -0.1002 C   0  0  0  0  0  0  0  0  0  0  0  0
   -0.8793    0.6882   -0.4243 C   0  0  0  0  0  0  0  0  0  0  0  0
   -1.3594   -0.0461   -1.2913 O   0  0  0  0  0  0  0  0  0  0  0  0
   -1.7620    1.6956    0.3203 C   0  0  0  0  0  0  0  0  0  0  0  0
   -3.1527    1.4975    0.0565 O   0  0  0  0  0  0  0  0  0  0  0  0
   -3.6881    0.4382    0.7245 C   0  0  0  0  0  0  0  0  0  0  0  0
   -3.1105   -0.2279    1.5687 O   0  0  0  0  0  0  0  0  0  0  0  0
   -5.0649    0.2036    0.2627 C   0  0  0  0  0  0  0  0  0  0  0  0
   -5.3166    0.1047   -1.0572 C   0  0  0  0  0  0  0  0  0  0  0  0
   -6.6466   -0.1828   -1.5449 C   0  0  0  0  0  0  0  0  0  0  0  0
   -7.6447   -0.3761   -0.6752 C   0  0  0  0  0  0  0  0  0  0  0  0
   -7.4102   -0.2869    0.6723 N   0  0  0  0  0  0  0  0  0  0  0  0
   -6.1806    0.0054    1.2276 C   0  0  0  0  0  0  0  0  0  0  0  0
   -6.0461    0.1222    2.4405 O   0  0  0  0  0  0  0  0  0  0  0  0
    1.4905   -0.2565   -0.5566 C   0  0  0  0  0  0  0  0  0  0  0  0
    1.2316   -1.4987   -1.3533 C   0  0  0  0  0  0  0  0  0  0  0  0
    2.7514    0.1014   -0.0775 N   0  0  0  0  0  0  0  0  0  0  0  0
    3.9850   -0.5401   -0.3964 C   0  0  0  0  0  0  0  0  0  0  0  0
    4.9157   -0.8254    0.6125 C   0  0  0  0  0  0  0  0  0  0  0  0
    6.1233   -1.4482    0.2895 C   0  0  0  0  0  0  0  0  0  0  0  0
    6.3953   -1.7785   -1.0332 C   0  0  0  0  0  0  0  0  0  0  0  0
    7.5553   -2.3740   -1.3388 F   0  0  0  0  0  0  0  0  0  0  0  0
    5.4815   -1.5010   -2.0430 C   0  0  0  0  0  0  0  0  0  0  0  0
    4.2709   -0.8811   -1.7271 C   0  0  0  0  0  0  0  0  0  0  0  0
    3.9956    1.4519    2.3478 H   0  0  0  0  0  0  0  0  0  0  0  0
    3.4055    2.9657    1.6620 H   0  0  0  0  0  0  0  0  0  0  0  0
    4.5920    2.0265    0.7646 H   0  0  0  0  0  0  0  0  0  0  0  0
    0.8585    2.4164    1.2780 H   0  0  0  0  0  0  0  0  0  0  0  0
   -1.5076    2.6976   -0.0410 H   0  0  0  0  0  0  0  0  0  0  0  0
   -1.5668    1.6644    1.3983 H   0  0  0  0  0  0  0  0  0  0  0  0
   -4.5244    0.2103   -1.7946 H   0  0  0  0  0  0  0  0  0  0  0  0
   -6.8074   -0.2491   -2.6161 H   0  0  0  0  0  0  0  0  0  0  0  0
   -8.6597   -0.6028   -0.9851 H   0  0  0  0  0  0  0  0  0  0  0  0
   -8.1663   -0.4213    1.3333 H   0  0  0  0  0  0  0  0  0  0  0  0
    1.9759   -2.2775   -1.1644 H   0  0  0  0  0  0  0  0  0  0  0  0
    1.2165   -1.2696   -2.4232 H   0  0  0  0  0  0  0  0  0  0  0  0
    0.2670   -1.9403   -1.0835 H   0  0  0  0  0  0  0  0  0  0  0  0
    4.7016   -0.6136    1.6562 H   0  0  0  0  0  0  0  0  0  0  0  0
    6.8485   -1.6860    1.0614 H   0  0  0  0  0  0  0  0  0  0  0  0
    5.7196   -1.7625   -3.0692 H   0  0  0  0  0  0  0  0  0  0  0  0
    3.5811   -0.6394   -2.5320 H   0  0  0  0  0  0  0  0  0  0  0  0
  1  2  1  0
  2  3  2  0
  3  4  1  0
  4  5  1  0
  5  6  2  0
  5  7  1  0
  7  8  1  0
  8  9  1  0
  9 10  2  0
  9 11  1  0
 11 12  2  0
 12 13  1  0
 13 14  2  0
 14 15  1  0
 15 16  1  0
 16 17  2  0
  4 18  2  0
 18 19  1  0
 18 20  1  0
 20 21  1  0
 21 22  2  0
 22 23  1  0
 23 24  2  0
 24 25  1  0
 24 26  1  0
 26 27  2  0
 20  2  1  0
 27 21  1  0
 16 11  1  0
  1 28  1  0
  1 29  1  0
  1 30  1  0
  3 31  1  0
  7 32  1  0
  7 33  1  0
 12 34  1  0
 13 35  1  0
 14 36  1  0
 15 37  1  0
 19 38  1  0
 19 39  1  0
 19 40  1  0
 22 41  1  0
 23 42  1  0
 26 43  1  0
 27 44  1  0
M  END
$$$$
