
     RDKit          3D

 47 50  0  0  0  0  0  0  0  0999 V2000
   -6.1808    2.2236    0.3392 C   0  0  0  0  0  0  0  0  0  0  0  0
   -5.7918    1.0617   -0.5637 C   0  0  0  0  0  0  0  0  0  0  0  0
   -5.0757    0.0247    0.1915 N   0  0  0  0  0  0  0  0  0  0  0  0
   -5.9099   -1.0498    0.7461 C   0  0  0  0  0  0  0  0  0  0  0  0
   -6.0233   -2.2139   -0.2281 C   0  0  0  0  0  0  0  0  0  0  0  0
   -3.6942    0.0476    0.3512 C   0  0  0  0  0  0  0  0  0  0  0  0
   -2.9063    1.1343   -0.0679 C   0  0  0  0  0  0  0  0  0  0  0  0
   -1.5114    1.1648    0.0887 C   0  0  0  0  0  0  0  0  0  0  0  0
   -0.8447    0.0913    0.6716 C   0  0  0  0  0  0  0  0  0  0  0  0
    0.6075    0.0982    0.8610 C   0  0  0  0  0  0  0  0  0  0  0  0
    1.5268    0.0683   -0.1139 C   0  0  0  0  0  0  0  0  0  0  0  0
    1.2473    0.0064   -1.8390 S   0  0  0  0  0  0  0  0  0  0  0  0
    2.9419   -0.0192   -2.1014 C   0  0  0  0  0  0  0  0  0  0  0  0
    3.7078   -0.0057   -3.1540 N   0  0  0  0  0  0  0  0  0  0  0  0
    5.0111   -0.0059   -2.6740 N   0  0  0  0  0  0  0  0  0  0  0  0
    4.9802   -0.0443   -1.3459 C   0  0  0  0  0  0  0  0  0  0  0  0
    6.1346   -0.0772   -0.4572 C   0  0  0  0  0  0  0  0  0  0  0  0
    7.0343    1.0002   -0.4933 C   0  0  0  0  0  0  0  0  0  0  0  0
    8.1555    1.0219    0.3393 C   0  0  0  0  0  0  0  0  0  0  0  0
    8.3970   -0.0375    1.2105 C   0  0  0  0  0  0  0  0  0  0  0  0
    7.5241   -1.1251    1.2424 C   0  0  0  0  0  0  0  0  0  0  0  0
    6.4009   -1.1508    0.4088 C   0  0  0  0  0  0  0  0  0  0  0  0
    5.3979   -2.5616    0.4619 Cl  0  0  0  0  0  0  0  0  0  0  0  0
    3.6657   -0.0071   -0.9606 N   0  0  0  0  0  0  0  0  0  0  0  0
    2.9802    0.0687    0.2259 C   0  0  0  0  0  0  0  0  0  0  0  0
    3.5276    0.1488    1.3089 O   0  0  0  0  0  0  0  0  0  0  0  0
   -1.5930   -0.9970    1.1090 C   0  0  0  0  0  0  0  0  0  0  0  0
   -2.9875   -1.0123    0.9465 C   0  0  0  0  0  0  0  0  0  0  0  0
   -6.7307    2.9780   -0.2320 H   0  0  0  0  0  0  0  0  0  0  0  0
   -5.3039    2.7058    0.7814 H   0  0  0  0  0  0  0  0  0  0  0  0
   -6.8222    1.8859    1.1601 H   0  0  0  0  0  0  0  0  0  0  0  0
   -5.2142    1.4110   -1.4267 H   0  0  0  0  0  0  0  0  0  0  0  0
   -6.7081    0.6381   -0.9947 H   0  0  0  0  0  0  0  0  0  0  0  0
   -5.5433   -1.3884    1.7215 H   0  0  0  0  0  0  0  0  0  0  0  0
   -6.9190   -0.6667    0.9455 H   0  0  0  0  0  0  0  0  0  0  0  0
   -5.0473   -2.6570   -0.4472 H   0  0  0  0  0  0  0  0  0  0  0  0
   -6.6642   -2.9958    0.1912 H   0  0  0  0  0  0  0  0  0  0  0  0
   -6.4609   -1.8905   -1.1784 H   0  0  0  0  0  0  0  0  0  0  0  0
   -3.3589    2.0091   -0.5242 H   0  0  0  0  0  0  0  0  0  0  0  0
   -0.9662    2.0425   -0.2495 H   0  0  0  0  0  0  0  0  0  0  0  0
    0.9237    0.1085    1.9038 H   0  0  0  0  0  0  0  0  0  0  0  0
    6.8657    1.8316   -1.1764 H   0  0  0  0  0  0  0  0  0  0  0  0
    8.8418    1.8649    0.3036 H   0  0  0  0  0  0  0  0  0  0  0  0
    9.2705   -0.0220    1.8581 H   0  0  0  0  0  0  0  0  0  0  0  0
    7.7287   -1.9549    1.9145 H   0  0  0  0  0  0  0  0  0  0  0  0
   -1.1098   -1.8525    1.5750 H   0  0  0  0  0  0  0  0  0  0  0  0
   -3.5035   -1.9006    1.2970 H   0  0  0  0  0  0  0  0  0  0  0  0
  1  2  1  0
  2  3  1  0
  3  4  1  0
  4  5  1  0
  3  6  1  0
  6  7  2  0
  7  8  1  0
  8  9  2  0
  9 10  1  0
 10 11  2  3
 11 12  1  0
 12 13  1  0
 13 14  2  0
 14 15  1  0
 15 16  2  0
 16 17  1  0
 17 18  2  0
 18 19  1  0
 19 20  2  0
 20 21  1  0
 21 22  2  0
 22 23  1  0
 16 24  1  0
 24 25  1  0
 25 26  2  0
  9 27  1  0
 27 28  2  0
 28  6  1  0
 25 11  1  0
 24 13  1  0
 22 17  1  0
  1 29  1  0
  1 30  1  0
  1 31  1  0
  2 32  1  0
  2 33  1  0
  4 34  1  0
  4 35  1  0
  5 36  1  0
  5 37  1  0
  5 38  1  0
  7 39  1  0
  8 40  1  0
 10 41  1  0
 18 42  1  0
 19 43  1  0
 20 44  1  0
 21 45  1  0
 27 46  1  0
 28 47  1  0
M  END
$$$$
