
     RDKit          3D

 60 64  0  0  0  0  0  0  0  0999 V2000
   -1.8877   -2.3753    2.3689 O   0  0  0  0  0  0  0  0  0  0  0  0
   -2.2194   -1.3699    1.7403 C   0  0  0  0  0  0  0  0  0  0  0  0
   -1.1787   -0.4433    1.1382 C   0  0  0  0  0  0  0  0  0  0  0  0
    0.2367   -0.9154    1.4675 C   0  0  0  0  0  0  0  0  0  0  0  0
    1.2534   -0.0241    0.9041 N   0  0  0  0  0  0  0  0  0  0  0  0
    1.6088    1.0863    1.6519 C   0  0  0  0  0  0  0  0  0  0  0  0
    1.0788    1.3908    2.7183 O   0  0  0  0  0  0  0  0  0  0  0  0
    2.6642    1.9468    1.0995 C   0  0  0  0  0  0  0  0  0  0  0  0
    3.1216    3.0356    1.8606 C   0  0  0  0  0  0  0  0  0  0  0  0
    4.1149    3.8694    1.3601 C   0  0  0  0  0  0  0  0  0  0  0  0
    4.6452    3.6160    0.1015 C   0  0  0  0  0  0  0  0  0  0  0  0
    4.1841    2.5302   -0.6543 C   0  0  0  0  0  0  0  0  0  0  0  0
    3.1860    1.6713   -0.1650 C   0  0  0  0  0  0  0  0  0  0  0  0
    2.6778    0.5636   -0.9020 N   0  0  0  0  0  0  0  0  0  0  0  0
    3.1763    0.2312   -2.2380 C   0  0  0  0  0  0  0  0  0  0  0  0
    4.1925   -0.8961   -2.2228 C   0  0  0  0  0  0  0  0  0  0  0  0
    5.5089   -0.6872   -1.7826 C   0  0  0  0  0  0  0  0  0  0  0  0
    6.4341   -1.7352   -1.7576 C   0  0  0  0  0  0  0  0  0  0  0  0
    6.0597   -3.0121   -2.1727 C   0  0  0  0  0  0  0  0  0  0  0  0
    4.7498   -3.2327   -2.6124 C   0  0  0  0  0  0  0  0  0  0  0  0
    4.3521   -4.5727   -3.0582 N   0  0  0  0  0  4  0  0  0  0  0  0
    3.2836   -4.6821   -3.6760 O   0  0  0  0  0  0  0  0  0  0  0  0
    5.1172   -5.5142   -2.8031 O   0  0  0  0  0  1  0  0  0  0  0  0
    3.8175   -2.1859   -2.6373 C   0  0  0  0  0  0  0  0  0  0  0  0
    1.6786   -0.2668   -0.3940 C   0  0  0  0  0  0  0  0  0  0  0  0
    1.1809   -1.1686   -1.0731 O   0  0  0  0  0  0  0  0  0  0  0  0
   -3.5540   -1.0333    1.5270 N   0  0  0  0  0  0  0  0  0  0  0  0
   -4.5809   -1.8300    2.1935 C   0  0  0  0  0  0  0  0  0  0  0  0
   -5.8094   -2.0079    1.3064 C   0  0  0  0  0  0  0  0  0  0  0  0
   -6.3100   -0.6841    0.7914 C   0  0  0  0  0  0  0  0  0  0  0  0
   -7.6468   -0.5437    0.3949 C   0  0  0  0  0  0  0  0  0  0  0  0
   -8.1093    0.6723   -0.1062 C   0  0  0  0  0  0  0  0  0  0  0  0
   -7.2393    1.7529   -0.2237 C   0  0  0  0  0  0  0  0  0  0  0  0
   -5.9034    1.6173    0.1548 C   0  0  0  0  0  0  0  0  0  0  0  0
   -5.4228    0.3981    0.6582 C   0  0  0  0  0  0  0  0  0  0  0  0
   -3.9682    0.2875    1.0533 C   0  0  0  0  0  0  0  0  0  0  0  0
   -1.3286    0.5677    1.5316 H   0  0  0  0  0  0  0  0  0  0  0  0
   -1.3163   -0.4197    0.0515 H   0  0  0  0  0  0  0  0  0  0  0  0
    0.3962   -1.9316    1.0864 H   0  0  0  0  0  0  0  0  0  0  0  0
    0.3725   -0.9659    2.5552 H   0  0  0  0  0  0  0  0  0  0  0  0
    2.7023    3.2327    2.8459 H   0  0  0  0  0  0  0  0  0  0  0  0
    4.4702    4.7118    1.9484 H   0  0  0  0  0  0  0  0  0  0  0  0
    5.4204    4.2657   -0.2996 H   0  0  0  0  0  0  0  0  0  0  0  0
    4.6404    2.3971   -1.6290 H   0  0  0  0  0  0  0  0  0  0  0  0
    3.5870    1.1009   -2.7578 H   0  0  0  0  0  0  0  0  0  0  0  0
    2.3223   -0.0635   -2.8630 H   0  0  0  0  0  0  0  0  0  0  0  0
    5.8322    0.2942   -1.4456 H   0  0  0  0  0  0  0  0  0  0  0  0
    7.4489   -1.5544   -1.4093 H   0  0  0  0  0  0  0  0  0  0  0  0
    6.7913   -3.8169   -2.1473 H   0  0  0  0  0  0  0  0  0  0  0  0
    2.7931   -2.3696   -2.9623 H   0  0  0  0  0  0  0  0  0  0  0  0
   -4.8413   -1.3099    3.1242 H   0  0  0  0  0  0  0  0  0  0  0  0
   -4.1942   -2.8163    2.4710 H   0  0  0  0  0  0  0  0  0  0  0  0
   -6.5936   -2.5148    1.8805 H   0  0  0  0  0  0  0  0  0  0  0  0
   -5.5587   -2.6379    0.4441 H   0  0  0  0  0  0  0  0  0  0  0  0
   -8.3346   -1.3825    0.4753 H   0  0  0  0  0  0  0  0  0  0  0  0
   -9.1485    0.7752   -0.4074 H   0  0  0  0  0  0  0  0  0  0  0  0
   -7.6006    2.7006   -0.6144 H   0  0  0  0  0  0  0  0  0  0  0  0
   -5.2357    2.4699    0.0516 H   0  0  0  0  0  0  0  0  0  0  0  0
   -3.7659    0.9952    1.8666 H   0  0  0  0  0  0  0  0  0  0  0  0
   -3.3516    0.5646    0.1922 H   0  0  0  0  0  0  0  0  0  0  0  0
  1  2  2  0
  2  3  1  0
  3  4  1  0
  4  5  1  0
  5  6  1  0
  6  7  2  0
  6  8  1  0
  8  9  2  0
  9 10  1  0
 10 11  2  0
 11 12  1  0
 12 13  2  0
 13 14  1  0
 14 15  1  0
 15 16  1  0
 16 17  2  0
 17 18  1  0
 18 19  2  0
 19 20  1  0
 20 21  1  0
 21 22  2  0
 21 23  1  0
 20 24  2  0
 14 25  1  0
 25 26  2  0
  2 27  1  0
 27 28  1  0
 28 29  1  0
 29 30  1  0
 30 31  2  0
 31 32  1  0
 32 33  2  0
 33 34  1  0
 34 35  2  0
 35 36  1  0
 25  5  1  0
 36 27  1  0
 13  8  1  0
 24 16  1  0
 35 30  1  0
  3 37  1  0
  3 38  1  0
  4 39  1  0
  4 40  1  0
  9 41  1  0
 10 42  1  0
 11 43  1  0
 12 44  1  0
 15 45  1  0
 15 46  1  0
 17 47  1  0
 18 48  1  0
 19 49  1  0
 24 50  1  0
 28 51  1  0
 28 52  1  0
 29 53  1  0
 29 54  1  0
 31 55  1  0
 32 56  1  0
 33 57  1  0
 34 58  1  0
 36 59  1  0
 36 60  1  0
M  CHG  2  21   1  23  -1
M  END
$$$$
