
     RDKit          3D

 49 50  0  0  0  0  0  0  0  0999 V2000
   -4.6151   -2.3504    1.7596 C   0  0  0  0  0  0  0  0  0  0  0  0
   -5.4376   -1.2023    1.5758 O   0  0  0  0  0  0  0  0  0  0  0  0
   -4.8879   -0.1952    0.8266 C   0  0  0  0  0  0  0  0  0  0  0  0
   -3.5231    0.1020    0.8041 C   0  0  0  0  0  0  0  0  0  0  0  0
   -3.0355    1.1407   -0.0014 C   0  0  0  0  0  0  0  0  0  0  0  0
   -1.6023    1.4406    0.0145 C   0  0  0  0  0  0  0  0  0  0  0  0
   -0.8434    1.3846   -1.0908 C   0  0  0  0  0  0  0  0  0  0  0  0
    0.6107    1.6443   -1.0984 C   0  0  0  0  0  0  0  0  0  0  0  0
    1.3161    1.3907   -2.0644 O   0  0  0  0  0  0  0  0  0  0  0  0
    1.0272    2.1889    0.0664 O   0  0  0  0  0  0  0  0  0  0  0  0
    2.4288    2.4448    0.1563 C   0  0  0  0  0  0  0  0  0  0  0  0
    3.2126    1.2025    0.5772 C   0  0  0  0  0  0  0  0  0  0  0  0
    3.6508    1.0574    1.7157 O   0  0  0  0  0  0  0  0  0  0  0  0
    3.3796    0.2668   -0.4183 N   0  0  0  0  0  0  0  0  0  0  0  0
    4.1755   -0.9297   -0.2173 C   0  0  0  0  0  0  0  0  0  0  0  0
    5.6866   -0.6434   -0.2587 C   0  0  0  0  0  0  0  0  0  0  0  0
    6.5178   -1.8651    0.1161 C   0  0  0  0  0  0  0  0  0  0  0  0
    6.7932   -2.5059   -1.2217 C   0  0  0  0  0  0  0  0  0  0  0  0
    6.9554   -1.2986   -2.1151 C   0  0  0  0  0  0  0  0  0  0  0  0
    6.0593   -0.2971   -1.6136 O   0  0  0  0  0  0  0  0  0  0  0  0
   -3.9254    1.8920   -0.7762 C   0  0  0  0  0  0  0  0  0  0  0  0
   -5.2928    1.6185   -0.7376 C   0  0  0  0  0  0  0  0  0  0  0  0
   -5.7719    0.5991    0.0827 C   0  0  0  0  0  0  0  0  0  0  0  0
   -7.1231    0.3639    0.0612 O   0  0  0  0  0  0  0  0  0  0  0  0
   -7.7413    0.7144    1.3091 C   0  0  0  0  0  0  0  0  0  0  0  0
   -8.9544   -0.0914    1.5189 C   0  0  0  0  0  0  0  0  0  0  0  0
   -9.9141   -0.7162    1.7190 N   0  0  0  0  0  0  0  0  0  0  0  0
   -5.2560   -3.1677    2.1059 H   0  0  0  0  0  0  0  0  0  0  0  0
   -3.8609   -2.1664    2.5307 H   0  0  0  0  0  0  0  0  0  0  0  0
   -4.1470   -2.6684    0.8217 H   0  0  0  0  0  0  0  0  0  0  0  0
   -2.8249   -0.4617    1.4129 H   0  0  0  0  0  0  0  0  0  0  0  0
   -1.1802    1.6763    0.9882 H   0  0  0  0  0  0  0  0  0  0  0  0
   -1.2551    1.1092   -2.0553 H   0  0  0  0  0  0  0  0  0  0  0  0
    2.8320    2.8540   -0.7782 H   0  0  0  0  0  0  0  0  0  0  0  0
    2.5735    3.2127    0.9251 H   0  0  0  0  0  0  0  0  0  0  0  0
    3.1118    0.5122   -1.3701 H   0  0  0  0  0  0  0  0  0  0  0  0
    3.8948   -1.3639    0.7495 H   0  0  0  0  0  0  0  0  0  0  0  0
    3.8858   -1.6271   -1.0115 H   0  0  0  0  0  0  0  0  0  0  0  0
    5.9340    0.2026    0.3912 H   0  0  0  0  0  0  0  0  0  0  0  0
    7.4663   -1.5397    0.5631 H   0  0  0  0  0  0  0  0  0  0  0  0
    6.0257   -2.5337    0.8294 H   0  0  0  0  0  0  0  0  0  0  0  0
    7.6695   -3.1583   -1.2247 H   0  0  0  0  0  0  0  0  0  0  0  0
    5.9243   -3.0948   -1.5372 H   0  0  0  0  0  0  0  0  0  0  0  0
    6.7216   -1.5127   -3.1614 H   0  0  0  0  0  0  0  0  0  0  0  0
    7.9731   -0.8974   -2.0593 H   0  0  0  0  0  0  0  0  0  0  0  0
   -3.5654    2.7058   -1.4031 H   0  0  0  0  0  0  0  0  0  0  0  0
   -5.9822    2.2015   -1.3435 H   0  0  0  0  0  0  0  0  0  0  0  0
   -8.0095    1.7769    1.2655 H   0  0  0  0  0  0  0  0  0  0  0  0
   -7.0765    0.5850    2.1699 H   0  0  0  0  0  0  0  0  0  0  0  0
  1  2  1  0
  2  3  1  0
  3  4  2  0
  4  5  1  0
  5  6  1  0
  6  7  2  3
  7  8  1  0
  8  9  2  0
  8 10  1  0
 10 11  1  0
 11 12  1  0
 12 13  2  0
 12 14  1  0
 14 15  1  0
 15 16  1  0
 16 17  1  0
 17 18  1  0
 18 19  1  0
 19 20  1  0
  5 21  2  0
 21 22  1  0
 22 23  2  0
 23 24  1  0
 24 25  1  0
 25 26  1  0
 26 27  3  0
 23  3  1  0
 20 16  1  0
  1 28  1  0
  1 29  1  0
  1 30  1  0
  4 31  1  0
  6 32  1  0
  7 33  1  0
 11 34  1  0
 11 35  1  0
 14 36  1  0
 15 37  1  0
 15 38  1  0
 16 39  1  0
 17 40  1  0
 17 41  1  0
 18 42  1  0
 18 43  1  0
 19 44  1  0
 19 45  1  0
 21 46  1  0
 22 47  1  0
 25 48  1  0
 25 49  1  0
M  END
$$$$
