
     RDKit          3D

 57 59  0  0  0  0  0  0  0  0999 V2000
    6.5892    1.4814   -1.5277 C   0  0  0  0  0  0  0  0  0  0  0  0
    6.5906    0.0409   -1.7994 N   0  0  0  0  0  0  0  0  0  0  0  0
    7.9294   -0.3712   -2.2357 C   0  0  0  0  0  0  0  0  0  0  0  0
    6.1860   -0.7387   -0.6138 C   0  0  0  0  0  0  0  0  0  0  0  0
    4.6951   -0.5882   -0.2559 C   0  0  0  0  0  0  0  0  0  0  0  0
    4.3434   -1.5320    0.8066 N   0  0  0  0  0  0  0  0  0  0  0  0
    3.6526   -1.0225    2.2317 S   0  0  0  0  0  6  0  0  0  0  0  0
    3.4357   -2.2035    3.0359 O   0  0  0  0  0  0  0  0  0  0  0  0
    4.4058    0.1113    2.7181 O   0  0  0  0  0  0  0  0  0  0  0  0
    2.0616   -0.4459    1.6934 C   0  0  0  0  0  0  0  0  0  0  0  0
    1.0629   -1.3768    1.3958 C   0  0  0  0  0  0  0  0  0  0  0  0
   -0.1972   -0.9388    0.9683 C   0  0  0  0  0  0  0  0  0  0  0  0
   -0.4900    0.4283    0.8313 C   0  0  0  0  0  0  0  0  0  0  0  0
   -1.7413    0.8707    0.3924 N   0  0  0  0  0  0  0  0  0  0  0  0
   -2.2684    0.2789   -0.8598 C   0  0  0  0  0  0  0  0  0  0  0  0
   -3.7559    0.6398   -1.0802 C   0  0  0  0  0  0  0  0  0  0  0  0
   -4.5883    0.1475    0.0371 N   0  0  0  0  0  0  0  0  0  0  0  0
   -5.8996   -0.2521   -0.1532 C   0  0  0  0  0  0  0  0  0  0  0  0
   -6.6534    0.1873   -1.2577 C   0  0  0  0  0  0  0  0  0  0  0  0
   -7.9781   -0.2182   -1.4595 C   0  0  0  0  0  0  0  0  0  0  0  0
   -8.5748   -1.0759   -0.5508 C   0  0  0  0  0  0  0  0  0  0  0  0
   -9.8407   -1.4689   -0.7404 F   0  0  0  0  0  0  0  0  0  0  0  0
   -7.8728   -1.5294    0.5541 C   0  0  0  0  0  0  0  0  0  0  0  0
   -6.5490   -1.1168    0.7475 C   0  0  0  0  0  0  0  0  0  0  0  0
   -3.9360    0.0699    1.3594 C   0  0  0  0  0  0  0  0  0  0  0  0
   -2.7436    1.0491    1.4765 C   0  0  0  0  0  0  0  0  0  0  0  0
    0.5342    1.3297    1.1817 C   0  0  0  0  0  0  0  0  0  0  0  0
    0.3027    2.7547    1.0784 N   0  0  0  0  0  4  0  0  0  0  0  0
   -0.3752    3.2856    1.9705 O   0  0  0  0  0  0  0  0  0  0  0  0
    0.8639    3.3447    0.1433 O   0  0  0  0  0  1  0  0  0  0  0  0
    1.8053    0.9197    1.6052 C   0  0  0  0  0  0  0  0  0  0  0  0
    7.2528    1.7469   -0.6968 H   0  0  0  0  0  0  0  0  0  0  0  0
    5.5814    1.8392   -1.2968 H   0  0  0  0  0  0  0  0  0  0  0  0
    6.9100    2.0395   -2.4160 H   0  0  0  0  0  0  0  0  0  0  0  0
    8.2293    0.1781   -3.1351 H   0  0  0  0  0  0  0  0  0  0  0  0
    8.6873   -0.2052   -1.4600 H   0  0  0  0  0  0  0  0  0  0  0  0
    7.9359   -1.4336   -2.5055 H   0  0  0  0  0  0  0  0  0  0  0  0
    6.8069   -0.4854    0.2560 H   0  0  0  0  0  0  0  0  0  0  0  0
    6.3614   -1.8036   -0.8174 H   0  0  0  0  0  0  0  0  0  0  0  0
    4.0710   -0.8109   -1.1292 H   0  0  0  0  0  0  0  0  0  0  0  0
    4.4795    0.4394    0.0522 H   0  0  0  0  0  0  0  0  0  0  0  0
    4.4055   -2.5356    0.6500 H   0  0  0  0  0  0  0  0  0  0  0  0
    1.2546   -2.4438    1.4967 H   0  0  0  0  0  0  0  0  0  0  0  0
   -0.9568   -1.6889    0.7585 H   0  0  0  0  0  0  0  0  0  0  0  0
   -1.6772    0.6538   -1.7057 H   0  0  0  0  0  0  0  0  0  0  0  0
   -2.1845   -0.8155   -0.8537 H   0  0  0  0  0  0  0  0  0  0  0  0
   -4.0604    0.1852   -2.0311 H   0  0  0  0  0  0  0  0  0  0  0  0
   -3.8723    1.7277   -1.1649 H   0  0  0  0  0  0  0  0  0  0  0  0
   -6.2282    0.8827   -1.9763 H   0  0  0  0  0  0  0  0  0  0  0  0
   -8.5412    0.1383   -2.3162 H   0  0  0  0  0  0  0  0  0  0  0  0
   -8.3515   -2.2026    1.2578 H   0  0  0  0  0  0  0  0  0  0  0  0
   -6.0246   -1.5094    1.6149 H   0  0  0  0  0  0  0  0  0  0  0  0
   -3.5836   -0.9559    1.5245 H   0  0  0  0  0  0  0  0  0  0  0  0
   -4.6478    0.3208    2.1557 H   0  0  0  0  0  0  0  0  0  0  0  0
   -3.1223    2.0763    1.4046 H   0  0  0  0  0  0  0  0  0  0  0  0
   -2.2900    0.9504    2.4706 H   0  0  0  0  0  0  0  0  0  0  0  0
    2.5702    1.6518    1.8543 H   0  0  0  0  0  0  0  0  0  0  0  0
  1  2  1  0
  2  3  1  0
  2  4  1  0
  4  5  1  0
  5  6  1  0
  6  7  1  0
  7  8  2  0
  7  9  2  0
  7 10  1  0
 10 11  2  0
 11 12  1  0
 12 13  2  0
 13 14  1  0
 14 15  1  0
 15 16  1  0
 16 17  1  0
 17 18  1  0
 18 19  2  0
 19 20  1  0
 20 21  2  0
 21 22  1  0
 21 23  1  0
 23 24  2  0
 17 25  1  0
 25 26  1  0
 13 27  1  0
 27 28  1  0
 28 29  2  0
 28 30  1  0
 27 31  2  0
 31 10  1  0
 26 14  1  0
 24 18  1  0
  1 32  1  0
  1 33  1  0
  1 34  1  0
  3 35  1  0
  3 36  1  0
  3 37  1  0
  4 38  1  0
  4 39  1  0
  5 40  1  0
  5 41  1  0
  6 42  1  0
 11 43  1  0
 12 44  1  0
 15 45  1  0
 15 46  1  0
 16 47  1  0
 16 48  1  0
 19 49  1  0
 20 50  1  0
 23 51  1  0
 24 52  1  0
 25 53  1  0
 25 54  1  0
 26 55  1  0
 26 56  1  0
 31 57  1  0
M  CHG  2  28   1  30  -1
M  END
$$$$
