
     RDKit          3D

 61 63  0  0  0  0  0  0  0  0999 V2000
   -4.5766   -0.9721    0.0542 C   0  0  0  0  0  0  0  0  0  0  0  0
   -4.4545    0.5374   -0.0905 C   0  0  0  0  0  0  0  0  0  0  0  0
   -3.0425    1.0624    0.1739 C   0  0  0  0  0  0  0  0  0  0  0  0
   -2.0175    0.5649   -0.8393 C   0  0  0  0  0  0  0  0  0  0  0  0
   -0.7193    1.1752   -0.6241 N   0  0  0  0  0  0  0  0  0  0  0  0
    0.3102    0.9337   -1.5116 C   0  0  0  0  0  0  0  0  0  0  0  0
    0.1699    0.2818   -2.5465 O   0  0  0  0  0  0  0  0  0  0  0  0
    1.6634    1.5419   -1.1208 C   0  0  0  0  0  0  0  0  0  0  0  0
    1.7532    2.9498   -1.7289 C   0  0  0  0  0  0  0  0  0  0  0  0
    2.7494    3.8319   -1.0124 C   0  0  0  0  0  0  0  0  0  0  0  0
    4.1261    3.6590   -1.2075 C   0  0  0  0  0  0  0  0  0  0  0  0
    5.0437    4.4638   -0.5307 C   0  0  0  0  0  0  0  0  0  0  0  0
    4.5952    5.4492    0.3458 C   0  0  0  0  0  0  0  0  0  0  0  0
    3.2285    5.6319    0.5462 C   0  0  0  0  0  0  0  0  0  0  0  0
    2.3086    4.8271   -0.1284 C   0  0  0  0  0  0  0  0  0  0  0  0
    2.7231    0.6657   -1.6862 N   0  0  0  0  0  0  0  0  0  0  0  0
    3.3882   -0.5324   -0.7202 S   0  0  0  0  0  6  0  0  0  0  0  0
    4.2903   -1.2900   -1.5576 O   0  0  0  0  0  0  0  0  0  0  0  0
    3.8239    0.0713    0.5179 O   0  0  0  0  0  0  0  0  0  0  0  0
    2.0036   -1.5788   -0.3435 C   0  0  0  0  0  0  0  0  0  0  0  0
    1.6967   -2.6566   -1.1726 C   0  0  0  0  0  0  0  0  0  0  0  0
    0.5948   -3.4680   -0.8755 C   0  0  0  0  0  0  0  0  0  0  0  0
   -0.2139   -3.2084    0.2435 C   0  0  0  0  0  0  0  0  0  0  0  0
    0.1192   -2.1283    1.0589 C   0  0  0  0  0  0  0  0  0  0  0  0
    1.2397   -1.3289    0.7943 C   0  0  0  0  0  0  0  0  0  0  0  0
   -0.7522   -1.7889    2.1909 C   0  0  0  0  0  0  0  0  0  0  0  0
   -0.5893   -0.7113    2.7598 O   0  0  0  0  0  0  0  0  0  0  0  0
   -1.7416   -2.7021    2.5075 N   0  0  0  0  0  0  0  0  0  0  0  0
   -2.5651   -2.4296    3.6707 C   0  0  0  0  0  0  0  0  0  0  0  0
   -2.1312   -3.7580    1.6907 C   0  0  0  0  0  0  0  0  0  0  0  0
   -3.1269   -4.4370    1.9528 O   0  0  0  0  0  0  0  0  0  0  0  0
   -1.3542   -3.9939    0.5589 N   0  0  0  0  0  0  0  0  0  0  0  0
   -1.7289   -5.1002   -0.3137 C   0  0  0  0  0  0  0  0  0  0  0  0
   -5.6221   -1.2768   -0.0560 H   0  0  0  0  0  0  0  0  0  0  0  0
   -3.9956   -1.4987   -0.7089 H   0  0  0  0  0  0  0  0  0  0  0  0
   -4.2311   -1.2994    1.0388 H   0  0  0  0  0  0  0  0  0  0  0  0
   -4.7798    0.8353   -1.0945 H   0  0  0  0  0  0  0  0  0  0  0  0
   -5.1417    1.0136    0.6197 H   0  0  0  0  0  0  0  0  0  0  0  0
   -2.7270    0.7850    1.1879 H   0  0  0  0  0  0  0  0  0  0  0  0
   -3.0688    2.1599    0.1501 H   0  0  0  0  0  0  0  0  0  0  0  0
   -1.8847   -0.5201   -0.7685 H   0  0  0  0  0  0  0  0  0  0  0  0
   -2.3377    0.7953   -1.8624 H   0  0  0  0  0  0  0  0  0  0  0  0
   -0.4775    1.4231    0.3305 H   0  0  0  0  0  0  0  0  0  0  0  0
    1.7431    1.5949   -0.0296 H   0  0  0  0  0  0  0  0  0  0  0  0
    2.0217    2.9020   -2.7930 H   0  0  0  0  0  0  0  0  0  0  0  0
    0.7703    3.4390   -1.6997 H   0  0  0  0  0  0  0  0  0  0  0  0
    4.4962    2.8894   -1.8825 H   0  0  0  0  0  0  0  0  0  0  0  0
    6.1096    4.3162   -0.6844 H   0  0  0  0  0  0  0  0  0  0  0  0
    5.3116    6.0725    0.8746 H   0  0  0  0  0  0  0  0  0  0  0  0
    2.8799    6.4004    1.2315 H   0  0  0  0  0  0  0  0  0  0  0  0
    1.2468    4.9863    0.0434 H   0  0  0  0  0  0  0  0  0  0  0  0
    2.5299    0.3414   -2.6378 H   0  0  0  0  0  0  0  0  0  0  0  0
    2.3003   -2.8705   -2.0529 H   0  0  0  0  0  0  0  0  0  0  0  0
    0.3891   -4.2952   -1.5499 H   0  0  0  0  0  0  0  0  0  0  0  0
    1.4940   -0.5062    1.4609 H   0  0  0  0  0  0  0  0  0  0  0  0
   -2.8161   -3.3641    4.1821 H   0  0  0  0  0  0  0  0  0  0  0  0
   -2.0570   -1.7680    4.3781 H   0  0  0  0  0  0  0  0  0  0  0  0
   -3.4915   -1.9523    3.3374 H   0  0  0  0  0  0  0  0  0  0  0  0
   -1.9181   -4.7198   -1.3226 H   0  0  0  0  0  0  0  0  0  0  0  0
   -2.6368   -5.6066    0.0253 H   0  0  0  0  0  0  0  0  0  0  0  0
   -0.9210   -5.8389   -0.3292 H   0  0  0  0  0  0  0  0  0  0  0  0
  1  2  1  0
  2  3  1  0
  3  4  1  0
  4  5  1  0
  5  6  1  0
  6  7  2  0
  6  8  1  0
  8  9  1  0
  9 10  1  0
 10 11  2  0
 11 12  1  0
 12 13  2  0
 13 14  1  0
 14 15  2  0
  8 16  1  0
 16 17  1  0
 17 18  2  0
 17 19  2  0
 17 20  1  0
 20 21  2  0
 21 22  1  0
 22 23  2  0
 23 24  1  0
 24 25  2  0
 24 26  1  0
 26 27  2  0
 26 28  1  0
 28 29  1  0
 28 30  1  0
 30 31  2  0
 30 32  1  0
 32 33  1  0
 15 10  1  0
 25 20  1  0
 32 23  1  0
  1 34  1  0
  1 35  1  0
  1 36  1  0
  2 37  1  0
  2 38  1  0
  3 39  1  0
  3 40  1  0
  4 41  1  0
  4 42  1  0
  5 43  1  0
  8 44  1  0
  9 45  1  0
  9 46  1  0
 11 47  1  0
 12 48  1  0
 13 49  1  0
 14 50  1  0
 15 51  1  0
 16 52  1  0
 21 53  1  0
 22 54  1  0
 25 55  1  0
 29 56  1  0
 29 57  1  0
 29 58  1  0
 33 59  1  0
 33 60  1  0
 33 61  1  0
M  END
$$$$
