
     RDKit          3D

 57 61  0  0  0  0  0  0  0  0999 V2000
    4.6403   -3.2820    0.7954 C   0  0  0  0  0  0  0  0  0  0  0  0
    4.8302   -2.2355   -0.1033 C   0  0  0  0  0  0  0  0  0  0  0  0
    3.7315   -1.6345   -0.7213 C   0  0  0  0  0  0  0  0  0  0  0  0
    2.4262   -2.0620   -0.4391 C   0  0  0  0  0  0  0  0  0  0  0  0
    1.2267   -1.4148   -1.1056 C   0  0  0  0  0  0  0  0  0  0  0  0
    0.6605   -0.1759   -0.4958 N   0  0  0  0  0  0  0  0  0  0  0  0
    1.5772    0.9729   -0.7016 C   0  0  0  0  0  0  0  0  0  0  0  0
    1.7018    1.3493   -2.1431 C   0  0  0  0  0  0  0  0  0  0  0  0
    0.8000    1.7972   -3.0877 C   0  0  0  0  0  0  0  0  0  0  0  0
    1.5345    1.9875   -4.2825 C   0  0  0  0  0  0  0  0  0  0  0  0
    2.8345    1.6476   -3.9915 C   0  0  0  0  0  0  0  0  0  0  0  0
    2.9460    1.2597   -2.6954 O   0  0  0  0  0  0  0  0  0  0  0  0
    0.3023   -0.3427    0.9447 C   0  0  0  0  0  0  0  0  0  0  0  0
   -0.7314   -1.4380    1.2404 C   0  0  0  0  0  0  0  0  0  0  0  0
   -0.7353   -2.0398    2.5091 C   0  0  0  0  0  0  0  0  0  0  0  0
   -1.6848   -3.0077    2.7957 C   0  0  0  0  0  0  0  0  0  0  0  0
   -2.6240   -3.4159    1.9187 N   0  0  0  0  0  0  0  0  0  0  0  0
   -2.6196   -2.8254    0.7071 C   0  0  0  0  0  0  0  0  0  0  0  0
   -1.7154   -1.8439    0.3299 C   0  0  0  0  0  0  0  0  0  0  0  0
   -0.1390    0.9352    1.6238 C   0  0  0  0  0  0  0  0  0  0  0  0
    0.4552    1.4808    2.6715 N   0  0  0  0  0  0  0  0  0  0  0  0
   -0.2488    2.6121    2.9765 N   0  0  0  0  0  0  0  0  0  0  0  0
   -1.2577    2.7800    2.1391 N   0  0  0  0  0  0  0  0  0  0  0  0
   -1.2014    1.7393    1.2856 N   0  0  0  0  0  0  0  0  0  0  0  0
   -2.1475    1.6302    0.1952 C   0  0  0  0  0  0  0  0  0  0  0  0
   -2.4105    2.9444   -0.5481 C   0  0  0  0  0  0  0  0  0  0  0  0
   -3.6308    3.5764    0.1217 C   0  0  0  0  0  0  0  0  0  0  0  0
   -4.2588    2.4980    1.0010 C   0  0  0  0  0  0  0  0  0  0  0  0
   -3.5420    1.2003    0.6501 C   0  0  0  0  0  0  0  0  0  0  0  0
    2.2541   -3.1342    0.4515 C   0  0  0  0  0  0  0  0  0  0  0  0
    3.3526   -3.7353    1.0689 C   0  0  0  0  0  0  0  0  0  0  0  0
    5.4961   -3.7503    1.2743 H   0  0  0  0  0  0  0  0  0  0  0  0
    5.8353   -1.8881   -0.3287 H   0  0  0  0  0  0  0  0  0  0  0  0
    3.9085   -0.8321   -1.4338 H   0  0  0  0  0  0  0  0  0  0  0  0
    1.4775   -1.2358   -2.1595 H   0  0  0  0  0  0  0  0  0  0  0  0
    0.4378   -2.1713   -1.1861 H   0  0  0  0  0  0  0  0  0  0  0  0
    2.5590    0.8007   -0.2483 H   0  0  0  0  0  0  0  0  0  0  0  0
    1.1862    1.8772   -0.2222 H   0  0  0  0  0  0  0  0  0  0  0  0
   -0.2559    1.9625   -2.9300 H   0  0  0  0  0  0  0  0  0  0  0  0
    1.1650    2.3317   -5.2381 H   0  0  0  0  0  0  0  0  0  0  0  0
    3.7506    1.6292   -4.5653 H   0  0  0  0  0  0  0  0  0  0  0  0
    1.2238   -0.6347    1.4692 H   0  0  0  0  0  0  0  0  0  0  0  0
   -0.0132   -1.7553    3.2702 H   0  0  0  0  0  0  0  0  0  0  0  0
   -1.7156   -3.4909    3.7683 H   0  0  0  0  0  0  0  0  0  0  0  0
   -3.3886   -3.1715    0.0220 H   0  0  0  0  0  0  0  0  0  0  0  0
   -1.7814   -1.4205   -0.6666 H   0  0  0  0  0  0  0  0  0  0  0  0
   -1.7397    0.9090   -0.5145 H   0  0  0  0  0  0  0  0  0  0  0  0
   -1.5497    3.6212   -0.5582 H   0  0  0  0  0  0  0  0  0  0  0  0
   -2.6611    2.7233   -1.5935 H   0  0  0  0  0  0  0  0  0  0  0  0
   -4.3397    3.9344   -0.6328 H   0  0  0  0  0  0  0  0  0  0  0  0
   -3.3420    4.4415    0.7287 H   0  0  0  0  0  0  0  0  0  0  0  0
   -4.1052    2.7429    2.0583 H   0  0  0  0  0  0  0  0  0  0  0  0
   -5.3388    2.4190    0.8417 H   0  0  0  0  0  0  0  0  0  0  0  0
   -4.0652    0.7152   -0.1833 H   0  0  0  0  0  0  0  0  0  0  0  0
   -3.5329    0.5020    1.4930 H   0  0  0  0  0  0  0  0  0  0  0  0
    1.2599   -3.5204    0.6659 H   0  0  0  0  0  0  0  0  0  0  0  0
    3.2027   -4.5620    1.7586 H   0  0  0  0  0  0  0  0  0  0  0  0
  1  2  2  0
  2  3  1  0
  3  4  2  0
  4  5  1  0
  5  6  1  0
  6  7  1  0
  7  8  1  0
  8  9  2  0
  9 10  1  0
 10 11  2  0
 11 12  1  0
  6 13  1  0
 13 14  1  0
 14 15  2  0
 15 16  1  0
 16 17  2  0
 17 18  1  0
 18 19  2  0
 13 20  1  0
 20 21  2  0
 21 22  1  0
 22 23  2  0
 23 24  1  0
 24 25  1  0
 25 26  1  0
 26 27  1  0
 27 28  1  0
 28 29  1  0
  4 30  1  0
 30 31  2  0
 31  1  1  0
 12  8  1  0
 19 14  1  0
 24 20  1  0
 29 25  1  0
  1 32  1  0
  2 33  1  0
  3 34  1  0
  5 35  1  0
  5 36  1  0
  7 37  1  0
  7 38  1  0
  9 39  1  0
 10 40  1  0
 11 41  1  0
 13 42  1  0
 15 43  1  0
 16 44  1  0
 18 45  1  0
 19 46  1  0
 25 47  1  0
 26 48  1  0
 26 49  1  0
 27 50  1  0
 27 51  1  0
 28 52  1  0
 28 53  1  0
 29 54  1  0
 29 55  1  0
 30 56  1  0
 31 57  1  0
M  END
$$$$
