
     RDKit          3D

 48 50  0  0  0  0  0  0  0  0999 V2000
    5.7428   -3.4220   -1.3064 C   0  0  0  0  0  0  0  0  0  0  0  0
    5.3373   -3.2149    0.1447 C   0  0  0  0  0  0  0  0  0  0  0  0
    3.9817   -2.5359    0.3098 C   0  0  0  0  0  0  0  0  0  0  0  0
    3.9994   -0.8109   -0.1437 S   0  0  0  0  0  6  0  0  0  0  0  0
    4.0163   -0.6890   -1.5888 O   0  0  0  0  0  0  0  0  0  0  0  0
    4.9434   -0.1061    0.7027 O   0  0  0  0  0  0  0  0  0  0  0  0
    2.3920   -0.2536    0.3545 C   0  0  0  0  0  0  0  0  0  0  0  0
    1.4163   -1.0196    0.7887 N   0  0  0  0  0  0  0  0  0  0  0  0
    0.3156   -0.2115    1.0951 C   0  0  0  0  0  0  0  0  0  0  0  0
   -1.1736   -0.9362    1.6613 S   0  0  0  0  0  6  0  0  0  0  0  0
   -0.7902   -2.2124    2.2344 O   0  0  0  0  0  0  0  0  0  0  0  0
   -1.8365    0.0883    2.4485 O   0  0  0  0  0  0  0  0  0  0  0  0
   -2.1030   -1.2251    0.1829 C   0  0  0  0  0  0  0  0  0  0  0  0
   -3.0218   -0.2692   -0.2571 C   0  0  0  0  0  0  0  0  0  0  0  0
   -3.7618   -0.5108   -1.4154 C   0  0  0  0  0  0  0  0  0  0  0  0
   -3.5879   -1.7009   -2.1353 C   0  0  0  0  0  0  0  0  0  0  0  0
   -4.4117   -1.9706   -3.3608 C   0  0  0  0  0  0  0  0  0  0  0  0
   -2.6826   -2.6625   -1.6656 C   0  0  0  0  0  0  0  0  0  0  0  0
   -1.9384   -2.4280   -0.5085 C   0  0  0  0  0  0  0  0  0  0  0  0
    0.4741    1.1552    0.8679 C   0  0  0  0  0  0  0  0  0  0  0  0
   -0.4378    2.1548    1.0600 N   0  0  0  0  0  0  0  0  0  0  0  0
   -0.0539    3.5623    1.1421 C   0  0  0  0  0  0  0  0  0  0  0  0
   -1.2189    4.4694    1.3511 C   0  0  0  0  0  0  0  0  0  0  0  0
   -1.7734    5.4940    0.6120 C   0  0  0  0  0  0  0  0  0  0  0  0
   -2.8863    5.9625    1.3520 C   0  0  0  0  0  0  0  0  0  0  0  0
   -2.9419    5.1935    2.4904 C   0  0  0  0  0  0  0  0  0  0  0  0
   -1.9345    4.2835    2.4991 O   0  0  0  0  0  0  0  0  0  0  0  0
    2.0652    1.4103    0.2389 S   0  0  0  0  0  0  0  0  0  0  0  0
    4.9602   -3.9458   -1.8642 H   0  0  0  0  0  0  0  0  0  0  0  0
    6.6551   -4.0250   -1.3577 H   0  0  0  0  0  0  0  0  0  0  0  0
    5.9497   -2.4721   -1.8065 H   0  0  0  0  0  0  0  0  0  0  0  0
    6.1173   -2.6453    0.6619 H   0  0  0  0  0  0  0  0  0  0  0  0
    5.2889   -4.1981    0.6282 H   0  0  0  0  0  0  0  0  0  0  0  0
    3.6920   -2.5793    1.3651 H   0  0  0  0  0  0  0  0  0  0  0  0
    3.2132   -3.0350   -0.2887 H   0  0  0  0  0  0  0  0  0  0  0  0
   -3.1706    0.6605    0.2882 H   0  0  0  0  0  0  0  0  0  0  0  0
   -4.4790    0.2348   -1.7537 H   0  0  0  0  0  0  0  0  0  0  0  0
   -3.8695   -2.6126   -4.0626 H   0  0  0  0  0  0  0  0  0  0  0  0
   -5.3480   -2.4627   -3.0814 H   0  0  0  0  0  0  0  0  0  0  0  0
   -4.6445   -1.0387   -3.8866 H   0  0  0  0  0  0  0  0  0  0  0  0
   -2.5554   -3.6027   -2.1988 H   0  0  0  0  0  0  0  0  0  0  0  0
   -1.2416   -3.1851   -0.1543 H   0  0  0  0  0  0  0  0  0  0  0  0
   -1.2127    1.9572    1.7078 H   0  0  0  0  0  0  0  0  0  0  0  0
    0.6468    3.7054    1.9742 H   0  0  0  0  0  0  0  0  0  0  0  0
    0.4557    3.8669    0.2200 H   0  0  0  0  0  0  0  0  0  0  0  0
   -1.4189    5.8552   -0.3434 H   0  0  0  0  0  0  0  0  0  0  0  0
   -3.5666    6.7601    1.0884 H   0  0  0  0  0  0  0  0  0  0  0  0
   -3.6017    5.1678    3.3467 H   0  0  0  0  0  0  0  0  0  0  0  0
  1  2  1  0
  2  3  1  0
  3  4  1  0
  4  5  2  0
  4  6  2  0
  4  7  1  0
  7  8  2  0
  8  9  1  0
  9 10  1  0
 10 11  2  0
 10 12  2  0
 10 13  1  0
 13 14  2  0
 14 15  1  0
 15 16  2  0
 16 17  1  0
 16 18  1  0
 18 19  2  0
  9 20  2  0
 20 21  1  0
 21 22  1  0
 22 23  1  0
 23 24  2  0
 24 25  1  0
 25 26  2  0
 26 27  1  0
 20 28  1  0
 28  7  1  0
 19 13  1  0
 27 23  1  0
  1 29  1  0
  1 30  1  0
  1 31  1  0
  2 32  1  0
  2 33  1  0
  3 34  1  0
  3 35  1  0
 14 36  1  0
 15 37  1  0
 17 38  1  0
 17 39  1  0
 17 40  1  0
 18 41  1  0
 19 42  1  0
 21 43  1  0
 22 44  1  0
 22 45  1  0
 24 46  1  0
 25 47  1  0
 26 48  1  0
M  END
$$$$
