
     RDKit          3D

 55 57  0  0  0  0  0  0  0  0999 V2000
    4.4263    1.0033    2.5578 C   0  0  0  0  0  0  0  0  0  0  0  0
    3.2036    1.9019    2.7667 C   0  0  0  0  0  0  0  0  0  0  0  0
    2.6240    1.6766    4.1675 C   0  0  0  0  0  0  0  0  0  0  0  0
    2.1620    1.7324    1.6339 C   0  0  0  0  0  0  0  0  0  0  0  0
    1.2194    2.8688    1.7065 N   0  0  0  0  0  0  0  0  0  0  0  0
    0.7773    3.6795    0.3120 S   0  0  0  0  0  6  0  0  0  0  0  0
    1.9789    3.9579   -0.4411 O   0  0  0  0  0  0  0  0  0  0  0  0
   -0.1294    4.7279    0.7208 O   0  0  0  0  0  0  0  0  0  0  0  0
   -0.1618    2.4627   -0.5719 C   0  0  0  0  0  0  0  0  0  0  0  0
    0.4464    1.6891   -1.5664 C   0  0  0  0  0  0  0  0  0  0  0  0
   -0.3178    0.7614   -2.2767 C   0  0  0  0  0  0  0  0  0  0  0  0
   -1.6782    0.6219   -2.0005 C   0  0  0  0  0  0  0  0  0  0  0  0
   -2.2862    1.4317   -1.0346 C   0  0  0  0  0  0  0  0  0  0  0  0
   -1.5286    2.3433   -0.3063 C   0  0  0  0  0  0  0  0  0  0  0  0
   -3.6266    1.3899   -0.7519 O   0  0  0  0  0  0  0  0  0  0  0  0
   -4.3534    0.7016   -1.7759 C   0  0  0  0  0  0  0  0  0  0  0  0
   -3.6479   -0.5881   -2.1580 C   0  0  0  0  0  0  0  0  0  0  0  0
   -2.3619   -0.3165   -2.7297 O   0  0  0  0  0  0  0  0  0  0  0  0
    1.4667    0.3752    1.6897 C   0  0  0  0  0  0  0  0  0  0  0  0
    1.9947   -0.6830    1.3684 O   0  0  0  0  0  0  0  0  0  0  0  0
    0.1996    0.4587    2.1814 O   0  0  0  0  0  0  0  0  0  0  0  0
   -0.4231   -0.7953    2.4635 C   0  0  0  0  0  0  0  0  0  0  0  0
   -1.0740   -1.5397    1.2859 C   0  0  0  0  0  0  0  0  0  0  0  0
   -2.2949   -1.6713    1.2335 O   0  0  0  0  0  0  0  0  0  0  0  0
   -0.1671   -2.0409    0.3702 N   0  0  0  0  0  0  0  0  0  0  0  0
   -0.4372   -2.8493   -0.7639 C   0  0  0  0  0  0  0  0  0  0  0  0
   -1.6674   -3.4915   -0.9475 C   0  0  0  0  0  0  0  0  0  0  0  0
   -1.9027   -4.2841   -2.0736 C   0  0  0  0  0  0  0  0  0  0  0  0
   -0.9071   -4.4504   -3.0313 C   0  0  0  0  0  0  0  0  0  0  0  0
    0.3317   -3.8297   -2.8625 C   0  0  0  0  0  0  0  0  0  0  0  0
    1.5198   -4.0852   -4.0940 Cl  0  0  0  0  0  0  0  0  0  0  0  0
    0.5749   -3.0354   -1.7307 C   0  0  0  0  0  0  0  0  0  0  0  0
    2.1122   -2.2498   -1.5210 Cl  0  0  0  0  0  0  0  0  0  0  0  0
    5.2054    1.2407    3.2905 H   0  0  0  0  0  0  0  0  0  0  0  0
    4.1789   -0.0564    2.6724 H   0  0  0  0  0  0  0  0  0  0  0  0
    4.8541    1.1505    1.5606 H   0  0  0  0  0  0  0  0  0  0  0  0
    3.5662    2.9389    2.7308 H   0  0  0  0  0  0  0  0  0  0  0  0
    1.7720    2.3365    4.3579 H   0  0  0  0  0  0  0  0  0  0  0  0
    3.3796    1.8884    4.9320 H   0  0  0  0  0  0  0  0  0  0  0  0
    2.2939    0.6422    4.3084 H   0  0  0  0  0  0  0  0  0  0  0  0
    2.6868    1.7714    0.6719 H   0  0  0  0  0  0  0  0  0  0  0  0
    0.4948    2.8444    2.4243 H   0  0  0  0  0  0  0  0  0  0  0  0
    1.5022    1.8067   -1.8021 H   0  0  0  0  0  0  0  0  0  0  0  0
    0.1436    0.1506   -3.0488 H   0  0  0  0  0  0  0  0  0  0  0  0
   -2.0135    2.9693    0.4388 H   0  0  0  0  0  0  0  0  0  0  0  0
   -4.4608    1.3715   -2.6380 H   0  0  0  0  0  0  0  0  0  0  0  0
   -5.3527    0.4854   -1.3852 H   0  0  0  0  0  0  0  0  0  0  0  0
   -4.2330   -1.1339   -2.9046 H   0  0  0  0  0  0  0  0  0  0  0  0
   -3.5165   -1.2378   -1.2862 H   0  0  0  0  0  0  0  0  0  0  0  0
   -1.2167   -0.5882    3.1911 H   0  0  0  0  0  0  0  0  0  0  0  0
    0.2741   -1.4730    2.9732 H   0  0  0  0  0  0  0  0  0  0  0  0
    0.8052   -1.7357    0.4646 H   0  0  0  0  0  0  0  0  0  0  0  0
   -2.4681   -3.4051   -0.2186 H   0  0  0  0  0  0  0  0  0  0  0  0
   -2.8664   -4.7730   -2.1986 H   0  0  0  0  0  0  0  0  0  0  0  0
   -1.1014   -5.0668   -3.9058 H   0  0  0  0  0  0  0  0  0  0  0  0
  1  2  1  0
  2  3  1  0
  2  4  1  0
  4  5  1  0
  5  6  1  0
  6  7  2  0
  6  8  2  0
  6  9  1  0
  9 10  2  0
 10 11  1  0
 11 12  2  0
 12 13  1  0
 13 14  2  0
 13 15  1  0
 15 16  1  0
 16 17  1  0
 17 18  1  0
  4 19  1  0
 19 20  2  0
 19 21  1  0
 21 22  1  0
 22 23  1  0
 23 24  2  0
 23 25  1  0
 25 26  1  0
 26 27  2  0
 27 28  1  0
 28 29  2  0
 29 30  1  0
 30 31  1  0
 30 32  2  0
 32 33  1  0
 14  9  1  0
 32 26  1  0
 18 12  1  0
  1 34  1  0
  1 35  1  0
  1 36  1  0
  2 37  1  0
  3 38  1  0
  3 39  1  0
  3 40  1  0
  4 41  1  0
  5 42  1  0
 10 43  1  0
 11 44  1  0
 14 45  1  0
 16 46  1  0
 16 47  1  0
 17 48  1  0
 17 49  1  0
 22 50  1  0
 22 51  1  0
 25 52  1  0
 27 53  1  0
 28 54  1  0
 29 55  1  0
M  END
$$$$
