
     RDKit          3D

 46 48  0  0  0  0  0  0  0  0999 V2000
   -4.6995   -2.4952   -0.3308 C   0  0  0  0  0  0  0  0  0  0  0  0
   -5.7056   -1.4775   -0.8391 C   0  0  0  0  0  0  0  0  0  0  0  0
   -5.2343   -0.0233   -0.7135 C   0  0  0  0  0  0  0  0  0  0  0  0
   -5.1943    0.5681    1.0193 S   0  0  0  0  0  0  0  0  0  0  0  0
   -3.4520    0.9118    1.1779 C   0  0  0  0  0  0  0  0  0  0  0  0
   -2.6309   -0.1229    0.8862 N   0  0  0  0  0  0  0  0  0  0  0  0
   -1.2844    0.0433    1.0020 C   0  0  0  0  0  0  0  0  0  0  0  0
   -0.4625   -1.1582    0.6331 C   0  0  0  0  0  0  0  0  0  0  0  0
   -0.7119    1.2515    1.4088 C   0  0  0  0  0  0  0  0  0  0  0  0
    0.7254    1.4448    1.5064 C   0  0  0  0  0  0  0  0  0  0  0  0
    1.3482    1.9650    2.6215 C   0  0  0  0  0  0  0  0  0  0  0  0
    3.0337    2.0659    2.3514 S   0  0  0  0  0  0  0  0  0  0  0  0
    2.8296    1.4133    0.7483 C   0  0  0  0  0  0  0  0  0  0  0  0
    3.9671    1.2398   -0.1111 C   0  0  0  0  0  0  0  0  0  0  0  0
    4.9898    2.2439   -0.1303 C   0  0  0  0  0  0  0  0  0  0  0  0
    5.8229    3.0514   -0.1571 N   0  0  0  0  0  0  0  0  0  0  0  0
    4.0648    0.1613   -0.9223 C   0  0  0  0  0  0  0  0  0  0  0  0
    3.0855   -0.9860   -1.0173 C   0  0  0  0  0  0  0  0  0  0  0  0
    3.8873   -2.0798   -1.7094 C   0  0  0  0  0  0  0  0  0  0  0  0
    4.7812   -1.3180   -2.6709 C   0  0  0  0  0  0  0  0  0  0  0  0
    5.2114   -0.0886   -1.8819 C   0  0  0  0  0  0  0  0  0  0  0  0
    1.5701    1.1143    0.4634 N   0  0  0  0  0  0  0  0  0  0  0  0
   -1.5779    2.3090    1.7074 C   0  0  0  0  0  0  0  0  0  0  0  0
   -2.9643    2.1452    1.5962 C   0  0  0  0  0  0  0  0  0  0  0  0
   -3.8201    3.2568    1.8785 C   0  0  0  0  0  0  0  0  0  0  0  0
   -4.4712    4.1911    2.0980 N   0  0  0  0  0  0  0  0  0  0  0  0
   -4.5341   -2.3964    0.7455 H   0  0  0  0  0  0  0  0  0  0  0  0
   -5.0682   -3.5083   -0.5199 H   0  0  0  0  0  0  0  0  0  0  0  0
   -3.7370   -2.3854   -0.8415 H   0  0  0  0  0  0  0  0  0  0  0  0
   -5.8940   -1.6831   -1.9025 H   0  0  0  0  0  0  0  0  0  0  0  0
   -6.6626   -1.6232   -0.3246 H   0  0  0  0  0  0  0  0  0  0  0  0
   -4.2708    0.1161   -1.2152 H   0  0  0  0  0  0  0  0  0  0  0  0
   -5.9518    0.6203   -1.2362 H   0  0  0  0  0  0  0  0  0  0  0  0
   -0.0361   -1.0319   -0.3643 H   0  0  0  0  0  0  0  0  0  0  0  0
    0.3367   -1.3302    1.3597 H   0  0  0  0  0  0  0  0  0  0  0  0
   -1.0861   -2.0589    0.6238 H   0  0  0  0  0  0  0  0  0  0  0  0
    0.9144    2.2828    3.5600 H   0  0  0  0  0  0  0  0  0  0  0  0
    2.2374   -0.6869   -1.6397 H   0  0  0  0  0  0  0  0  0  0  0  0
    2.7231   -1.3316   -0.0480 H   0  0  0  0  0  0  0  0  0  0  0  0
    4.4949   -2.6274   -0.9790 H   0  0  0  0  0  0  0  0  0  0  0  0
    3.2439   -2.7953   -2.2253 H   0  0  0  0  0  0  0  0  0  0  0  0
    5.6319   -1.9158   -3.0085 H   0  0  0  0  0  0  0  0  0  0  0  0
    4.2108   -1.0170   -3.5587 H   0  0  0  0  0  0  0  0  0  0  0  0
    6.1363   -0.2866   -1.3271 H   0  0  0  0  0  0  0  0  0  0  0  0
    5.3785    0.7543   -2.5600 H   0  0  0  0  0  0  0  0  0  0  0  0
   -1.1754    3.2773    2.0024 H   0  0  0  0  0  0  0  0  0  0  0  0
  1  2  1  0
  2  3  1  0
  3  4  1  0
  4  5  1  0
  5  6  2  0
  6  7  1  0
  7  8  1  0
  7  9  2  0
  9 10  1  0
 10 11  2  0
 11 12  1  0
 12 13  1  0
 13 14  1  0
 14 15  1  0
 15 16  3  0
 14 17  2  3
 17 18  1  0
 18 19  1  0
 19 20  1  0
 20 21  1  0
 13 22  2  0
  9 23  1  0
 23 24  2  0
 24 25  1  0
 25 26  3  0
 24  5  1  0
 22 10  1  0
 21 17  1  0
  1 27  1  0
  1 28  1  0
  1 29  1  0
  2 30  1  0
  2 31  1  0
  3 32  1  0
  3 33  1  0
  8 34  1  0
  8 35  1  0
  8 36  1  0
 11 37  1  0
 18 38  1  0
 18 39  1  0
 19 40  1  0
 19 41  1  0
 20 42  1  0
 20 43  1  0
 21 44  1  0
 21 45  1  0
 23 46  1  0
M  END
$$$$
