
     RDKit          3D

 57 59  0  0  0  0  0  0  0  0999 V2000
   -0.7173   -4.0870   -1.4133 C   0  0  0  0  0  0  0  0  0  0  0  0
   -1.5397   -3.6525   -0.2066 C   0  0  0  0  0  0  0  0  0  0  0  0
   -1.0455   -2.3367    0.3959 C   0  0  0  0  0  0  0  0  0  0  0  0
   -1.1766   -1.2981   -0.5888 O   0  0  0  0  0  0  0  0  0  0  0  0
   -1.5019   -0.1054    0.0116 C   0  0  0  0  0  0  0  0  0  0  0  0
   -2.8635    0.1991    0.1580 C   0  0  0  0  0  0  0  0  0  0  0  0
   -3.3071    1.3946    0.7509 C   0  0  0  0  0  0  0  0  0  0  0  0
   -4.6584    1.6825    0.9205 N   0  0  0  0  0  0  0  0  0  0  0  0
   -5.1245    2.9146    1.5724 C   0  0  0  0  0  0  0  0  0  0  0  0
   -5.2092    4.0619    0.5753 C   0  0  0  0  0  0  0  0  0  0  0  0
   -5.7112    0.8211    0.3627 C   0  0  0  0  0  0  0  0  0  0  0  0
   -6.0722   -0.2956    1.3326 C   0  0  0  0  0  0  0  0  0  0  0  0
   -2.2904    2.2725    1.1674 C   0  0  0  0  0  0  0  0  0  0  0  0
   -0.9233    1.9882    1.0039 C   0  0  0  0  0  0  0  0  0  0  0  0
   -0.5144    0.7978    0.4083 C   0  0  0  0  0  0  0  0  0  0  0  0
    0.9215    0.5374    0.2432 C   0  0  0  0  0  0  0  0  0  0  0  0
    1.5722    0.4267   -0.9345 C   0  0  0  0  0  0  0  0  0  0  0  0
    0.9044    0.5912   -2.1887 C   0  0  0  0  0  0  0  0  0  0  0  0
    0.4683    0.7183   -3.2552 N   0  0  0  0  0  0  0  0  0  0  0  0
    2.9793    0.1703   -0.8856 C   0  0  0  0  0  0  0  0  0  0  0  0
    3.7902    0.0646    0.1541 N   0  0  0  0  0  0  0  0  0  0  0  0
    5.0449   -0.1573   -0.3574 C   0  0  0  0  0  0  0  0  0  0  0  0
    6.2696   -0.3182    0.3071 C   0  0  0  0  0  0  0  0  0  0  0  0
    7.4373   -0.5162   -0.4520 C   0  0  0  0  0  0  0  0  0  0  0  0
    8.7589   -0.7023    0.2343 C   0  0  0  0  0  0  0  0  0  0  0  0
    7.3587   -0.5811   -1.8518 C   0  0  0  0  0  0  0  0  0  0  0  0
    6.1426   -0.4276   -2.5308 C   0  0  0  0  0  0  0  0  0  0  0  0
    5.0108   -0.2118   -1.7433 C   0  0  0  0  0  0  0  0  0  0  0  0
    3.6907   -0.0106   -2.0570 N   0  0  0  0  0  0  0  0  0  0  0  0
   -0.7467   -3.3356   -2.2101 H   0  0  0  0  0  0  0  0  0  0  0  0
    0.3289   -4.2543   -1.1329 H   0  0  0  0  0  0  0  0  0  0  0  0
   -1.1142   -5.0239   -1.8183 H   0  0  0  0  0  0  0  0  0  0  0  0
   -2.5886   -3.5352   -0.5228 H   0  0  0  0  0  0  0  0  0  0  0  0
   -1.5047   -4.4445    0.5555 H   0  0  0  0  0  0  0  0  0  0  0  0
    0.0114   -2.4229    0.6794 H   0  0  0  0  0  0  0  0  0  0  0  0
   -1.6319   -2.1242    1.3002 H   0  0  0  0  0  0  0  0  0  0  0  0
   -3.5678   -0.5458   -0.2049 H   0  0  0  0  0  0  0  0  0  0  0  0
   -6.1232    2.7483    1.9984 H   0  0  0  0  0  0  0  0  0  0  0  0
   -4.4989    3.1847    2.4318 H   0  0  0  0  0  0  0  0  0  0  0  0
   -4.2299    4.3018    0.1519 H   0  0  0  0  0  0  0  0  0  0  0  0
   -5.5977    4.9614    1.0632 H   0  0  0  0  0  0  0  0  0  0  0  0
   -5.8780    3.8122   -0.2539 H   0  0  0  0  0  0  0  0  0  0  0  0
   -5.4323    0.4207   -0.6195 H   0  0  0  0  0  0  0  0  0  0  0  0
   -6.6164    1.4139    0.1721 H   0  0  0  0  0  0  0  0  0  0  0  0
   -6.4358    0.1134    2.2816 H   0  0  0  0  0  0  0  0  0  0  0  0
   -5.2130   -0.9379    1.5585 H   0  0  0  0  0  0  0  0  0  0  0  0
   -6.8646   -0.9232    0.9056 H   0  0  0  0  0  0  0  0  0  0  0  0
   -2.5312    3.2249    1.6231 H   0  0  0  0  0  0  0  0  0  0  0  0
   -0.1900    2.7195    1.3421 H   0  0  0  0  0  0  0  0  0  0  0  0
    1.4642    0.4322    1.1816 H   0  0  0  0  0  0  0  0  0  0  0  0
    6.2975   -0.2768    1.3913 H   0  0  0  0  0  0  0  0  0  0  0  0
    8.7343   -0.3074    1.2558 H   0  0  0  0  0  0  0  0  0  0  0  0
    9.0127   -1.7659    0.2778 H   0  0  0  0  0  0  0  0  0  0  0  0
    9.5495   -0.1676   -0.3022 H   0  0  0  0  0  0  0  0  0  0  0  0
    8.2634   -0.7507   -2.4350 H   0  0  0  0  0  0  0  0  0  0  0  0
    6.0936   -0.4704   -3.6129 H   0  0  0  0  0  0  0  0  0  0  0  0
    3.3149    0.0130   -2.9980 H   0  0  0  0  0  0  0  0  0  0  0  0
  1  2  1  0
  2  3  1  0
  3  4  1  0
  4  5  1  0
  5  6  2  0
  6  7  1  0
  7  8  1  0
  8  9  1  0
  9 10  1  0
  8 11  1  0
 11 12  1  0
  7 13  2  0
 13 14  1  0
 14 15  2  0
 15 16  1  0
 16 17  2  3
 17 18  1  0
 18 19  3  0
 17 20  1  0
 20 21  2  0
 21 22  1  0
 22 23  2  0
 23 24  1  0
 24 25  1  0
 24 26  2  0
 26 27  1  0
 27 28  2  0
 28 29  1  0
 15  5  1  0
 29 20  1  0
 28 22  1  0
  1 30  1  0
  1 31  1  0
  1 32  1  0
  2 33  1  0
  2 34  1  0
  3 35  1  0
  3 36  1  0
  6 37  1  0
  9 38  1  0
  9 39  1  0
 10 40  1  0
 10 41  1  0
 10 42  1  0
 11 43  1  0
 11 44  1  0
 12 45  1  0
 12 46  1  0
 12 47  1  0
 13 48  1  0
 14 49  1  0
 16 50  1  0
 23 51  1  0
 25 52  1  0
 25 53  1  0
 25 54  1  0
 26 55  1  0
 27 56  1  0
 29 57  1  0
M  END
$$$$
