
     RDKit          3D

 53 56  0  0  0  0  0  0  0  0999 V2000
    7.7935    0.5913    1.2534 C   0  0  0  0  0  0  0  0  0  0  0  0
    7.1413   -0.7383    1.5902 C   0  0  0  0  0  0  0  0  0  0  0  0
    5.8491   -0.5388    2.1609 O   0  0  0  0  0  0  0  0  0  0  0  0
    4.7653   -0.4780    1.3324 C   0  0  0  0  0  0  0  0  0  0  0  0
    4.7839   -0.4573   -0.0581 C   0  0  0  0  0  0  0  0  0  0  0  0
    3.5825   -0.3870   -0.7783 C   0  0  0  0  0  0  0  0  0  0  0  0
    2.3314   -0.3373   -0.1364 C   0  0  0  0  0  0  0  0  0  0  0  0
    1.0814   -0.2675   -0.9235 C   0  0  0  0  0  0  0  0  0  0  0  0
   -0.1234   -0.7810   -0.4767 C   0  0  0  0  0  0  0  0  0  0  0  0
   -1.2449   -0.6485   -1.2958 C   0  0  0  0  0  0  0  0  0  0  0  0
   -2.5212   -1.1900   -0.7895 C   0  0  0  0  0  0  0  0  0  0  0  0
   -2.9644   -2.2092   -1.3099 O   0  0  0  0  0  0  0  0  0  0  0  0
   -3.1397   -0.5241    0.2596 N   0  0  0  0  0  0  0  0  0  0  0  0
   -2.7309    0.7872    0.7815 C   0  0  0  0  0  0  0  0  0  0  0  0
   -3.9008    1.5312    1.4507 C   0  0  0  0  0  0  0  0  0  0  0  0
   -4.5030    0.7763    2.5658 N   0  0  0  0  0  0  0  0  0  0  0  0
   -5.8133    1.3203    2.9115 C   0  0  0  0  0  0  0  0  0  0  0  0
   -4.5610   -0.6771    2.3010 C   0  0  0  0  0  0  0  0  0  0  0  0
   -4.3608   -1.0915    0.8315 C   0  0  0  0  0  0  0  0  0  0  0  0
   -1.1638   -0.0421   -2.5633 C   0  0  0  0  0  0  0  0  0  0  0  0
   -2.2522    0.1098   -3.4581 C   0  0  0  0  0  0  0  0  0  0  0  0
   -2.0822    0.7347   -4.6914 C   0  0  0  0  0  0  0  0  0  0  0  0
   -0.8292    1.2148   -5.0452 C   0  0  0  0  0  0  0  0  0  0  0  0
    0.2446    1.0636   -4.1640 C   0  0  0  0  0  0  0  0  0  0  0  0
    0.1023    0.4429   -2.9298 C   0  0  0  0  0  0  0  0  0  0  0  0
    1.1823    0.3370   -2.1349 N   0  0  0  0  0  0  0  0  0  0  0  0
    2.3372   -0.3456    1.2684 C   0  0  0  0  0  0  0  0  0  0  0  0
    3.5363   -0.4150    1.9889 C   0  0  0  0  0  0  0  0  0  0  0  0
    8.8112    0.4394    0.8828 H   0  0  0  0  0  0  0  0  0  0  0  0
    7.8342    1.2329    2.1399 H   0  0  0  0  0  0  0  0  0  0  0  0
    7.2243    1.1363    0.4945 H   0  0  0  0  0  0  0  0  0  0  0  0
    7.7452   -1.2335    2.3591 H   0  0  0  0  0  0  0  0  0  0  0  0
    7.1237   -1.4245    0.7363 H   0  0  0  0  0  0  0  0  0  0  0  0
    5.7086   -0.4837   -0.6236 H   0  0  0  0  0  0  0  0  0  0  0  0
    3.6296   -0.3715   -1.8669 H   0  0  0  0  0  0  0  0  0  0  0  0
   -0.2061   -1.2925    0.4760 H   0  0  0  0  0  0  0  0  0  0  0  0
   -2.3256    1.3984   -0.0312 H   0  0  0  0  0  0  0  0  0  0  0  0
   -1.9286    0.6138    1.5083 H   0  0  0  0  0  0  0  0  0  0  0  0
   -4.6556    1.7400    0.6801 H   0  0  0  0  0  0  0  0  0  0  0  0
   -3.5421    2.4969    1.8251 H   0  0  0  0  0  0  0  0  0  0  0  0
   -6.2065    0.8328    3.8106 H   0  0  0  0  0  0  0  0  0  0  0  0
   -6.5398    1.1901    2.1014 H   0  0  0  0  0  0  0  0  0  0  0  0
   -5.7391    2.3890    3.1417 H   0  0  0  0  0  0  0  0  0  0  0  0
   -3.7529   -1.1312    2.8892 H   0  0  0  0  0  0  0  0  0  0  0  0
   -5.4899   -1.1212    2.6798 H   0  0  0  0  0  0  0  0  0  0  0  0
   -4.3325   -2.1841    0.7546 H   0  0  0  0  0  0  0  0  0  0  0  0
   -5.2003   -0.7399    0.2195 H   0  0  0  0  0  0  0  0  0  0  0  0
   -3.2387   -0.2722   -3.2002 H   0  0  0  0  0  0  0  0  0  0  0  0
   -2.9233    0.8393   -5.3719 H   0  0  0  0  0  0  0  0  0  0  0  0
   -0.6794    1.7028   -6.0048 H   0  0  0  0  0  0  0  0  0  0  0  0
    1.2241    1.4408   -4.4501 H   0  0  0  0  0  0  0  0  0  0  0  0
    1.4100   -0.2803    1.8324 H   0  0  0  0  0  0  0  0  0  0  0  0
    3.5091   -0.4165    3.0762 H   0  0  0  0  0  0  0  0  0  0  0  0
  1  2  1  0
  2  3  1  0
  3  4  1  0
  4  5  2  0
  5  6  1  0
  6  7  2  0
  7  8  1  0
  8  9  2  0
  9 10  1  0
 10 11  1  0
 11 12  2  0
 11 13  1  0
 13 14  1  0
 14 15  1  0
 15 16  1  0
 16 17  1  0
 16 18  1  0
 18 19  1  0
 10 20  2  0
 20 21  1  0
 21 22  2  0
 22 23  1  0
 23 24  2  0
 24 25  1  0
 25 26  2  0
  7 27  1  0
 27 28  2  0
 28  4  1  0
 26  8  1  0
 19 13  1  0
 25 20  1  0
  1 29  1  0
  1 30  1  0
  1 31  1  0
  2 32  1  0
  2 33  1  0
  5 34  1  0
  6 35  1  0
  9 36  1  0
 14 37  1  0
 14 38  1  0
 15 39  1  0
 15 40  1  0
 17 41  1  0
 17 42  1  0
 17 43  1  0
 18 44  1  0
 18 45  1  0
 19 46  1  0
 19 47  1  0
 21 48  1  0
 22 49  1  0
 23 50  1  0
 24 51  1  0
 27 52  1  0
 28 53  1  0
M  END
$$$$
