
     RDKit          3D

 43 45  0  0  0  0  0  0  0  0999 V2000
   -5.7006    0.6412    3.0770 C   0  0  0  0  0  0  0  0  0  0  0  0
   -5.3791    1.7255    2.0588 C   0  0  0  0  0  0  0  0  0  0  0  0
   -5.0853    1.1628    0.6694 C   0  0  0  0  0  0  0  0  0  0  0  0
   -3.7767    0.4304    0.6243 C   0  0  0  0  0  0  0  0  0  0  0  0
   -2.6276    0.9987    0.8147 N   0  0  0  0  0  0  0  0  0  0  0  0
   -1.6402    0.0462    0.7080 N   0  0  0  0  0  0  0  0  0  0  0  0
   -0.3057    0.3622    0.8243 C   0  0  0  0  0  0  0  0  0  0  0  0
    0.1772    1.4780    0.9887 O   0  0  0  0  0  0  0  0  0  0  0  0
    0.5936   -0.8048    0.6797 C   0  0  0  0  0  0  0  0  0  0  0  0
    0.0833   -2.0065    0.3583 C   0  0  0  0  0  0  0  0  0  0  0  0
    0.9980   -3.1981    0.1554 C   0  0  0  0  0  0  0  0  0  0  0  0
    0.8824   -3.8997   -1.5288 S   0  0  0  0  0  0  0  0  0  0  0  0
    1.3071   -2.4553   -2.5542 C   0  0  0  0  0  0  0  0  0  0  0  0
    2.6038   -1.7784   -2.1239 C   0  0  0  0  0  0  0  0  0  0  0  0
    3.6188   -2.4206   -1.8729 O   0  0  0  0  0  0  0  0  0  0  0  0
    2.4798   -0.3975   -2.0373 N   0  0  0  0  0  0  0  0  0  0  0  0
    3.4637    0.5279   -1.6282 C   0  0  0  0  0  0  0  0  0  0  0  0
    3.0620    1.8660   -1.4942 C   0  0  0  0  0  0  0  0  0  0  0  0
    3.9712    2.8444   -1.0837 C   0  0  0  0  0  0  0  0  0  0  0  0
    5.2841    2.4865   -0.8116 C   0  0  0  0  0  0  0  0  0  0  0  0
    6.1584    3.4223   -0.4196 F   0  0  0  0  0  0  0  0  0  0  0  0
    5.7017    1.1690   -0.9410 C   0  0  0  0  0  0  0  0  0  0  0  0
    4.7909    0.1884   -1.3482 C   0  0  0  0  0  0  0  0  0  0  0  0
   -1.2707   -2.2406    0.2185 N   0  0  0  0  0  0  0  0  0  0  0  0
   -2.0442   -1.2260    0.4047 C   0  0  0  0  0  0  0  0  0  0  0  0
   -3.7714   -1.2838    0.2829 S   0  0  0  0  0  0  0  0  0  0  0  0
   -5.9641    1.0941    4.0383 H   0  0  0  0  0  0  0  0  0  0  0  0
   -4.8435   -0.0184    3.2420 H   0  0  0  0  0  0  0  0  0  0  0  0
   -6.5476    0.0313    2.7469 H   0  0  0  0  0  0  0  0  0  0  0  0
   -4.5313    2.3187    2.4206 H   0  0  0  0  0  0  0  0  0  0  0  0
   -6.2373    2.4041    1.9884 H   0  0  0  0  0  0  0  0  0  0  0  0
   -5.9062    0.5189    0.3356 H   0  0  0  0  0  0  0  0  0  0  0  0
   -5.0156    1.9934   -0.0432 H   0  0  0  0  0  0  0  0  0  0  0  0
    1.6527   -0.6184    0.8121 H   0  0  0  0  0  0  0  0  0  0  0  0
    0.7126   -3.9872    0.8603 H   0  0  0  0  0  0  0  0  0  0  0  0
    2.0438   -2.9558    0.3708 H   0  0  0  0  0  0  0  0  0  0  0  0
    0.4634   -1.7590   -2.5407 H   0  0  0  0  0  0  0  0  0  0  0  0
    1.4358   -2.7892   -3.5890 H   0  0  0  0  0  0  0  0  0  0  0  0
    1.5760    0.0040   -2.2562 H   0  0  0  0  0  0  0  0  0  0  0  0
    2.0350    2.1671   -1.6873 H   0  0  0  0  0  0  0  0  0  0  0  0
    3.6605    3.8783   -0.9695 H   0  0  0  0  0  0  0  0  0  0  0  0
    6.7334    0.9083   -0.7269 H   0  0  0  0  0  0  0  0  0  0  0  0
    5.1580   -0.8285   -1.4452 H   0  0  0  0  0  0  0  0  0  0  0  0
  1  2  1  0
  2  3  1  0
  3  4  1  0
  4  5  2  0
  5  6  1  0
  6  7  1  0
  7  8  2  0
  7  9  1  0
  9 10  2  0
 10 11  1  0
 11 12  1  0
 12 13  1  0
 13 14  1  0
 14 15  2  0
 14 16  1  0
 16 17  1  0
 17 18  2  0
 18 19  1  0
 19 20  2  0
 20 21  1  0
 20 22  1  0
 22 23  2  0
 10 24  1  0
 24 25  2  0
 25 26  1  0
 26  4  1  0
 25  6  1  0
 23 17  1  0
  1 27  1  0
  1 28  1  0
  1 29  1  0
  2 30  1  0
  2 31  1  0
  3 32  1  0
  3 33  1  0
  9 34  1  0
 11 35  1  0
 11 36  1  0
 13 37  1  0
 13 38  1  0
 16 39  1  0
 18 40  1  0
 19 41  1  0
 22 42  1  0
 23 43  1  0
M  END
$$$$
