
     RDKit          3D

 37 38  0  0  0  0  0  0  0  0999 V2000
    5.4245    1.7831    0.3134 C   0  0  0  0  0  0  0  0  0  0  0  0
    4.0692    1.5320   -0.0349 O   0  0  0  0  0  0  0  0  0  0  0  0
    3.5916    0.2490    0.1425 C   0  0  0  0  0  0  0  0  0  0  0  0
    4.3267   -0.8108    0.6799 C   0  0  0  0  0  0  0  0  0  0  0  0
    3.7502   -2.0793    0.8185 C   0  0  0  0  0  0  0  0  0  0  0  0
    2.4273   -2.2914    0.4360 C   0  0  0  0  0  0  0  0  0  0  0  0
    1.6735   -1.2373   -0.0805 C   0  0  0  0  0  0  0  0  0  0  0  0
    0.2626   -1.5052   -0.4252 C   0  0  0  0  0  0  0  0  0  0  0  0
   -0.0928   -2.4948   -1.0477 O   0  0  0  0  0  0  0  0  0  0  0  0
   -0.4932   -0.5217    0.1340 O   0  0  0  0  0  0  0  0  0  0  0  0
   -1.8646   -0.7787   -0.0515 N   0  0  0  0  0  0  0  0  0  0  0  0
   -2.5803    0.1370    0.5300 C   0  0  0  0  0  0  0  0  0  0  0  0
   -2.0332    1.2183    1.1829 N   0  0  0  0  0  0  0  0  0  0  0  0
   -4.0659    0.0088    0.4684 C   0  0  0  0  0  0  0  0  0  0  0  0
   -4.6603   -0.6849   -0.5847 C   0  0  0  0  0  0  0  0  0  0  0  0
   -6.0403   -0.7789   -0.5986 C   0  0  0  0  0  0  0  0  0  0  0  0
   -6.8387   -0.2421    0.3484 N   0  0  0  0  0  0  0  0  0  0  0  0
   -6.2314    0.4036    1.3672 C   0  0  0  0  0  0  0  0  0  0  0  0
   -4.8602    0.5586    1.4713 C   0  0  0  0  0  0  0  0  0  0  0  0
    2.2603    0.0240   -0.2520 C   0  0  0  0  0  0  0  0  0  0  0  0
    1.5207    1.0661   -0.7606 O   0  0  0  0  0  0  0  0  0  0  0  0
    1.7266    1.1694   -2.1703 C   0  0  0  0  0  0  0  0  0  0  0  0
    5.5725    1.6876    1.3945 H   0  0  0  0  0  0  0  0  0  0  0  0
    6.1086    1.1310   -0.2462 H   0  0  0  0  0  0  0  0  0  0  0  0
    5.6563    2.8217    0.0351 H   0  0  0  0  0  0  0  0  0  0  0  0
    5.3545   -0.6848    1.0045 H   0  0  0  0  0  0  0  0  0  0  0  0
    4.3332   -2.8986    1.2342 H   0  0  0  0  0  0  0  0  0  0  0  0
    1.9804   -3.2698    0.5563 H   0  0  0  0  0  0  0  0  0  0  0  0
   -2.5576    2.0870    1.1278 H   0  0  0  0  0  0  0  0  0  0  0  0
   -1.0548    1.3435    0.9339 H   0  0  0  0  0  0  0  0  0  0  0  0
   -4.0673   -1.1442   -1.3688 H   0  0  0  0  0  0  0  0  0  0  0  0
   -6.5560   -1.3111   -1.3944 H   0  0  0  0  0  0  0  0  0  0  0  0
   -6.9000    0.8015    2.1247 H   0  0  0  0  0  0  0  0  0  0  0  0
   -4.4331    1.0680    2.3246 H   0  0  0  0  0  0  0  0  0  0  0  0
    1.1272    2.0055   -2.5341 H   0  0  0  0  0  0  0  0  0  0  0  0
    2.7734    1.3768   -2.4136 H   0  0  0  0  0  0  0  0  0  0  0  0
    1.3904    0.2614   -2.6829 H   0  0  0  0  0  0  0  0  0  0  0  0
  1  2  1  0
  2  3  1  0
  3  4  2  0
  4  5  1  0
  5  6  2  0
  6  7  1  0
  7  8  1  0
  8  9  2  0
  8 10  1  0
 10 11  1  0
 11 12  2  3
 12 13  1  0
 12 14  1  0
 14 15  2  0
 15 16  1  0
 16 17  2  0
 17 18  1  0
 18 19  2  0
  7 20  2  0
 20 21  1  0
 21 22  1  0
 20  3  1  0
 19 14  1  0
  1 23  1  0
  1 24  1  0
  1 25  1  0
  4 26  1  0
  5 27  1  0
  6 28  1  0
 13 29  1  0
 13 30  1  0
 15 31  1  0
 16 32  1  0
 18 33  1  0
 19 34  1  0
 22 35  1  0
 22 36  1  0
 22 37  1  0
M  END
$$$$
