
     RDKit          3D

 63 67  0  0  0  0  0  0  0  0999 V2000
    8.8525    2.1818   -2.2941 C   0  0  0  0  0  0  0  0  0  0  0  0
    8.3980    1.1284   -1.4574 O   0  0  0  0  0  0  0  0  0  0  0  0
    7.0578    1.0793   -1.1653 C   0  0  0  0  0  0  0  0  0  0  0  0
    6.1178    2.0117   -1.6091 C   0  0  0  0  0  0  0  0  0  0  0  0
    4.7698    1.8797   -1.2601 C   0  0  0  0  0  0  0  0  0  0  0  0
    4.3266    0.8140   -0.4644 C   0  0  0  0  0  0  0  0  0  0  0  0
    2.9038    0.6760   -0.1050 C   0  0  0  0  0  0  0  0  0  0  0  0
    1.8980    0.7382   -1.0881 C   0  0  0  0  0  0  0  0  0  0  0  0
    0.5448    0.6068   -0.7557 C   0  0  0  0  0  0  0  0  0  0  0  0
    0.1725    0.3983    0.5730 C   0  0  0  0  0  0  0  0  0  0  0  0
    1.1545    0.3600    1.5500 C   0  0  0  0  0  0  0  0  0  0  0  0
    2.5101    0.4860    1.2291 C   0  0  0  0  0  0  0  0  0  0  0  0
    0.6582    0.1448    3.2151 S   0  0  0  0  0  6  0  0  0  0  0  0
    0.3880    1.4585    3.7565 O   0  0  0  0  0  0  0  0  0  0  0  0
    1.6213   -0.7540    3.8198 O   0  0  0  0  0  0  0  0  0  0  0  0
   -0.8779   -0.7159    3.1667 C   0  0  0  0  0  0  0  0  0  0  0  0
   -1.2175   -1.5233    4.2568 C   0  0  0  0  0  0  0  0  0  0  0  0
   -2.3919   -2.2625    4.2159 C   0  0  0  0  0  0  0  0  0  0  0  0
   -3.2000   -2.2042    3.0817 C   0  0  0  0  0  0  0  0  0  0  0  0
   -2.8621   -1.3894    1.9802 C   0  0  0  0  0  0  0  0  0  0  0  0
   -3.7702   -1.5431    0.8116 C   0  0  0  0  0  0  0  0  0  0  0  0
   -4.0930   -2.6774    0.4730 O   0  0  0  0  0  0  0  0  0  0  0  0
   -4.2461   -0.4047    0.2125 N   0  0  0  0  0  0  0  0  0  0  0  0
   -5.1124   -0.4545   -0.9579 C   0  0  0  0  0  0  0  0  0  0  0  0
   -6.5483   -0.8274   -0.5605 C   0  0  0  0  0  0  0  0  0  0  0  0
   -7.4878   -0.8213   -1.7639 C   0  0  0  0  0  0  0  0  0  0  0  0
   -7.4505    0.5130   -2.5014 C   0  0  0  0  0  0  0  0  0  0  0  0
   -6.0282    0.8934   -2.8995 C   0  0  0  0  0  0  0  0  0  0  0  0
   -5.0882    0.8898   -1.6970 C   0  0  0  0  0  0  0  0  0  0  0  0
   -1.6848   -0.6230    2.0242 C   0  0  0  0  0  0  0  0  0  0  0  0
   -1.2572    0.2595    0.9122 C   0  0  0  0  0  0  0  0  0  0  0  0
   -2.0744    0.9188    0.2832 O   0  0  0  0  0  0  0  0  0  0  0  0
    5.2810   -0.1183   -0.0199 C   0  0  0  0  0  0  0  0  0  0  0  0
    6.6371    0.0082   -0.3548 C   0  0  0  0  0  0  0  0  0  0  0  0
    7.6169   -0.8678    0.0440 O   0  0  0  0  0  0  0  0  0  0  0  0
    7.2786   -1.8295    1.0352 C   0  0  0  0  0  0  0  0  0  0  0  0
    8.7014    3.1555   -1.8183 H   0  0  0  0  0  0  0  0  0  0  0  0
    9.9275    2.0493   -2.4450 H   0  0  0  0  0  0  0  0  0  0  0  0
    8.3735    2.1424   -3.2772 H   0  0  0  0  0  0  0  0  0  0  0  0
    6.3996    2.8583   -2.2260 H   0  0  0  0  0  0  0  0  0  0  0  0
    4.0663    2.6321   -1.6125 H   0  0  0  0  0  0  0  0  0  0  0  0
    2.1652    0.8818   -2.1348 H   0  0  0  0  0  0  0  0  0  0  0  0
   -0.2090    0.6620   -1.5395 H   0  0  0  0  0  0  0  0  0  0  0  0
    3.2573    0.4554    2.0222 H   0  0  0  0  0  0  0  0  0  0  0  0
   -0.5693   -1.5842    5.1298 H   0  0  0  0  0  0  0  0  0  0  0  0
   -2.6697   -2.9013    5.0511 H   0  0  0  0  0  0  0  0  0  0  0  0
   -4.1016   -2.8170    3.0429 H   0  0  0  0  0  0  0  0  0  0  0  0
   -3.7299    0.4609    0.3733 H   0  0  0  0  0  0  0  0  0  0  0  0
   -4.7169   -1.2310   -1.6259 H   0  0  0  0  0  0  0  0  0  0  0  0
   -6.9189   -0.1210    0.1941 H   0  0  0  0  0  0  0  0  0  0  0  0
   -6.5717   -1.8183   -0.0920 H   0  0  0  0  0  0  0  0  0  0  0  0
   -8.5111   -1.0293   -1.4332 H   0  0  0  0  0  0  0  0  0  0  0  0
   -7.2037   -1.6272   -2.4512 H   0  0  0  0  0  0  0  0  0  0  0  0
   -8.0814    0.4587   -3.3956 H   0  0  0  0  0  0  0  0  0  0  0  0
   -7.8723    1.2959   -1.8589 H   0  0  0  0  0  0  0  0  0  0  0  0
   -6.0277    1.8850   -3.3657 H   0  0  0  0  0  0  0  0  0  0  0  0
   -5.6591    0.1874   -3.6536 H   0  0  0  0  0  0  0  0  0  0  0  0
   -4.0670    1.1122   -2.0323 H   0  0  0  0  0  0  0  0  0  0  0  0
   -5.3725    1.6993   -1.0103 H   0  0  0  0  0  0  0  0  0  0  0  0
    4.9405   -0.9566    0.5798 H   0  0  0  0  0  0  0  0  0  0  0  0
    6.5788   -2.5730    0.6373 H   0  0  0  0  0  0  0  0  0  0  0  0
    6.8796   -1.3506    1.9371 H   0  0  0  0  0  0  0  0  0  0  0  0
    8.1953   -2.3567    1.3177 H   0  0  0  0  0  0  0  0  0  0  0  0
  1  2  1  0
  2  3  1  0
  3  4  2  0
  4  5  1  0
  5  6  2  0
  6  7  1  0
  7  8  2  0
  8  9  1  0
  9 10  2  0
 10 11  1  0
 11 12  2  0
 11 13  1  0
 13 14  2  0
 13 15  2  0
 13 16  1  0
 16 17  2  0
 17 18  1  0
 18 19  2  0
 19 20  1  0
 20 21  1  0
 21 22  2  0
 21 23  1  0
 23 24  1  0
 24 25  1  0
 25 26  1  0
 26 27  1  0
 27 28  1  0
 28 29  1  0
 20 30  2  0
 30 31  1  0
 31 32  2  0
  6 33  1  0
 33 34  2  0
 34 35  1  0
 35 36  1  0
 34  3  1  0
 12  7  1  0
 30 16  1  0
 31 10  1  0
 29 24  1  0
  1 37  1  0
  1 38  1  0
  1 39  1  0
  4 40  1  0
  5 41  1  0
  8 42  1  0
  9 43  1  0
 12 44  1  0
 17 45  1  0
 18 46  1  0
 19 47  1  0
 23 48  1  0
 24 49  1  0
 25 50  1  0
 25 51  1  0
 26 52  1  0
 26 53  1  0
 27 54  1  0
 27 55  1  0
 28 56  1  0
 28 57  1  0
 29 58  1  0
 29 59  1  0
 33 60  1  0
 36 61  1  0
 36 62  1  0
 36 63  1  0
M  END
$$$$
