
     RDKit          3D

 57 60  0  0  0  0  0  0  0  0999 V2000
    7.2558    2.5906   -2.1188 C   0  0  0  0  0  0  0  0  0  0  0  0
    5.9742    1.8912   -1.6889 C   0  0  0  0  0  0  0  0  0  0  0  0
    5.8361    1.7504   -0.1654 C   0  0  0  0  0  0  0  0  0  0  0  0
    6.9334    0.8800    0.4483 C   0  0  0  0  0  0  0  0  0  0  0  0
    4.5325    1.1839    0.1606 N   0  0  0  0  0  0  0  0  0  0  0  0
    3.8619    1.5281    1.3158 C   0  0  0  0  0  0  0  0  0  0  0  0
    4.2210    2.4216    2.0733 O   0  0  0  0  0  0  0  0  0  0  0  0
    2.6351    0.7507    1.6172 C   0  0  0  0  0  0  0  0  0  0  0  0
    1.5564    1.4111    2.2092 C   0  0  0  0  0  0  0  0  0  0  0  0
    0.4009    0.7046    2.5407 C   0  0  0  0  0  0  0  0  0  0  0  0
    0.3154   -0.6742    2.3060 C   0  0  0  0  0  0  0  0  0  0  0  0
   -0.9157   -1.4397    2.7306 C   0  0  0  0  0  0  0  0  0  0  0  0
   -1.9330   -2.0381    1.3505 S   0  0  0  0  0  0  0  0  0  0  0  0
   -2.9686   -0.6787    1.0675 C   0  0  0  0  0  0  0  0  0  0  0  0
   -2.6827    0.5596    1.3838 N   0  0  0  0  0  0  0  0  0  0  0  0
   -3.7687    1.2969    0.9997 C   0  0  0  0  0  0  0  0  0  0  0  0
   -3.9867    2.6679    1.0964 C   0  0  0  0  0  0  0  0  0  0  0  0
   -5.2155    3.1166    0.6293 C   0  0  0  0  0  0  0  0  0  0  0  0
   -6.1814    2.3285    0.1034 N   0  0  0  0  0  0  0  0  0  0  0  0
   -5.9613    1.0008    0.0056 C   0  0  0  0  0  0  0  0  0  0  0  0
   -4.7489    0.4846    0.4540 C   0  0  0  0  0  0  0  0  0  0  0  0
   -4.2022   -0.7809    0.4943 N   0  0  0  0  0  0  0  0  0  0  0  0
   -4.8867   -1.9994    0.0787 C   0  0  0  0  0  0  0  0  0  0  0  0
   -4.4122   -2.5082   -1.2670 C   0  0  0  0  0  0  0  0  0  0  0  0
   -4.5899   -1.7525   -2.4344 C   0  0  0  0  0  0  0  0  0  0  0  0
   -4.1728   -2.2522   -3.6773 C   0  0  0  0  0  0  0  0  0  0  0  0
   -3.5875   -3.5084   -3.7514 C   0  0  0  0  0  0  0  0  0  0  0  0
   -3.2076   -3.9929   -4.9340 F   0  0  0  0  0  0  0  0  0  0  0  0
   -3.4082   -4.2771   -2.6079 C   0  0  0  0  0  0  0  0  0  0  0  0
   -3.8190   -3.7783   -1.3697 C   0  0  0  0  0  0  0  0  0  0  0  0
    1.4050   -1.3296    1.7130 C   0  0  0  0  0  0  0  0  0  0  0  0
    2.5603   -0.6230    1.3703 C   0  0  0  0  0  0  0  0  0  0  0  0
    7.2406    2.7861   -3.1961 H   0  0  0  0  0  0  0  0  0  0  0  0
    8.1353    1.9714   -1.9100 H   0  0  0  0  0  0  0  0  0  0  0  0
    7.3751    3.5495   -1.6040 H   0  0  0  0  0  0  0  0  0  0  0  0
    5.9240    0.9054   -2.1669 H   0  0  0  0  0  0  0  0  0  0  0  0
    5.1193    2.4652   -2.0711 H   0  0  0  0  0  0  0  0  0  0  0  0
    5.8967    2.7472    0.2874 H   0  0  0  0  0  0  0  0  0  0  0  0
    6.9534   -0.1132   -0.0151 H   0  0  0  0  0  0  0  0  0  0  0  0
    7.9202    1.3327    0.3240 H   0  0  0  0  0  0  0  0  0  0  0  0
    6.7654    0.7351    1.5223 H   0  0  0  0  0  0  0  0  0  0  0  0
    4.1773    0.4358   -0.4188 H   0  0  0  0  0  0  0  0  0  0  0  0
    1.6134    2.4758    2.4153 H   0  0  0  0  0  0  0  0  0  0  0  0
   -0.4348    1.2371    2.9896 H   0  0  0  0  0  0  0  0  0  0  0  0
   -1.5283   -0.8489    3.4219 H   0  0  0  0  0  0  0  0  0  0  0  0
   -0.5892   -2.3146    3.3066 H   0  0  0  0  0  0  0  0  0  0  0  0
   -3.2426    3.3316    1.5095 H   0  0  0  0  0  0  0  0  0  0  0  0
   -5.4695    4.1698    0.6669 H   0  0  0  0  0  0  0  0  0  0  0  0
   -6.7578    0.4110   -0.4370 H   0  0  0  0  0  0  0  0  0  0  0  0
   -5.9640   -1.8060    0.0310 H   0  0  0  0  0  0  0  0  0  0  0  0
   -4.7513   -2.7464    0.8716 H   0  0  0  0  0  0  0  0  0  0  0  0
   -5.0547   -0.7699   -2.3945 H   0  0  0  0  0  0  0  0  0  0  0  0
   -4.3128   -1.6759   -4.5776 H   0  0  0  0  0  0  0  0  0  0  0  0
   -2.9511   -5.2585   -2.6864 H   0  0  0  0  0  0  0  0  0  0  0  0
   -3.6714   -4.3916   -0.4834 H   0  0  0  0  0  0  0  0  0  0  0  0
    1.3638   -2.4004    1.5310 H   0  0  0  0  0  0  0  0  0  0  0  0
    3.4036   -1.1620    0.9505 H   0  0  0  0  0  0  0  0  0  0  0  0
  1  2  1  0
  2  3  1  0
  3  4  1  0
  3  5  1  0
  5  6  1  0
  6  7  2  0
  6  8  1  0
  8  9  2  0
  9 10  1  0
 10 11  2  0
 11 12  1  0
 12 13  1  0
 13 14  1  0
 14 15  2  0
 15 16  1  0
 16 17  2  0
 17 18  1  0
 18 19  2  0
 19 20  1  0
 20 21  2  0
 21 22  1  0
 22 23  1  0
 23 24  1  0
 24 25  2  0
 25 26  1  0
 26 27  2  0
 27 28  1  0
 27 29  1  0
 29 30  2  0
 11 31  1  0
 31 32  2  0
 32  8  1  0
 22 14  1  0
 30 24  1  0
 21 16  1  0
  1 33  1  0
  1 34  1  0
  1 35  1  0
  2 36  1  0
  2 37  1  0
  3 38  1  0
  4 39  1  0
  4 40  1  0
  4 41  1  0
  5 42  1  0
  9 43  1  0
 10 44  1  0
 12 45  1  0
 12 46  1  0
 17 47  1  0
 18 48  1  0
 20 49  1  0
 23 50  1  0
 23 51  1  0
 25 52  1  0
 26 53  1  0
 29 54  1  0
 30 55  1  0
 31 56  1  0
 32 57  1  0
M  END
$$$$
