
     RDKit          3D

 38 39  0  0  0  0  0  0  0  0999 V2000
   -0.0542    0.7791   -1.5001 O   0  0  0  0  0  0  0  0  0  0  0  0
    0.9019    0.3689   -0.8667 C   0  0  0  0  0  0  0  0  0  0  0  0
    2.2263    0.5639   -1.1699 N   0  0  0  0  0  0  0  0  0  0  0  0
    2.6033    1.4442   -2.2609 C   0  0  0  0  0  0  0  0  0  0  0  0
    4.0776    1.2875   -2.6413 C   0  0  0  0  0  0  0  0  0  0  0  0
    4.3647   -0.0468   -3.0549 O   0  0  0  0  0  0  0  0  0  0  0  0
    0.6699   -0.4469    0.3920 C   0  0  0  0  0  0  0  0  0  0  0  0
    0.4741   -1.9234    0.1688 C   0  0  0  0  0  0  0  0  0  0  0  0
   -0.9529   -2.2730   -0.1727 C   0  0  0  0  0  0  0  0  0  0  0  0
   -1.9217   -2.3929    0.8354 C   0  0  0  0  0  0  0  0  0  0  0  0
   -3.2418   -2.7027    0.5116 C   0  0  0  0  0  0  0  0  0  0  0  0
   -3.6041   -2.8898   -0.8230 C   0  0  0  0  0  0  0  0  0  0  0  0
   -5.3957   -3.3123   -1.2583 Br  0  0  0  0  0  0  0  0  0  0  0  0
   -2.6543   -2.7715   -1.8343 C   0  0  0  0  0  0  0  0  0  0  0  0
   -1.3334   -2.4599   -1.5101 C   0  0  0  0  0  0  0  0  0  0  0  0
    0.6247    0.0486    1.5934 N   0  0  0  0  0  0  0  0  0  0  0  0
    0.8518    1.3971    1.7237 C   0  0  0  0  0  0  0  0  0  0  0  0
    1.8737    1.9406    1.3182 O   0  0  0  0  0  0  0  0  0  0  0  0
   -0.2228    2.0531    2.4537 C   0  0  0  0  0  0  0  0  0  0  0  0
   -1.3845    1.5230    2.9904 C   0  0  0  0  0  0  0  0  0  0  0  0
   -2.1803    2.5011    3.6570 C   0  0  0  0  0  0  0  0  0  0  0  0
   -1.5996    3.7486    3.6152 C   0  0  0  0  0  0  0  0  0  0  0  0
   -0.1241    3.7392    2.7516 S   0  0  0  0  0  0  0  0  0  0  0  0
    2.8717    0.5120   -0.3893 H   0  0  0  0  0  0  0  0  0  0  0  0
    1.9640    1.2073   -3.1171 H   0  0  0  0  0  0  0  0  0  0  0  0
    2.3960    2.4748   -1.9499 H   0  0  0  0  0  0  0  0  0  0  0  0
    4.3329    1.9641   -3.4590 H   0  0  0  0  0  0  0  0  0  0  0  0
    4.7168    1.5203   -1.7838 H   0  0  0  0  0  0  0  0  0  0  0  0
    3.7214   -0.2852   -3.7434 H   0  0  0  0  0  0  0  0  0  0  0  0
    0.7753   -2.4655    1.0742 H   0  0  0  0  0  0  0  0  0  0  0  0
    1.1491   -2.2624   -0.6287 H   0  0  0  0  0  0  0  0  0  0  0  0
   -1.6526   -2.2389    1.8754 H   0  0  0  0  0  0  0  0  0  0  0  0
   -3.9826   -2.7849    1.3018 H   0  0  0  0  0  0  0  0  0  0  0  0
   -2.9284   -2.9120   -2.8742 H   0  0  0  0  0  0  0  0  0  0  0  0
   -0.6024   -2.3479   -2.3094 H   0  0  0  0  0  0  0  0  0  0  0  0
   -1.6556    0.4769    2.9008 H   0  0  0  0  0  0  0  0  0  0  0  0
   -3.1282    2.2984    4.1424 H   0  0  0  0  0  0  0  0  0  0  0  0
   -1.9759    4.6674    4.0416 H   0  0  0  0  0  0  0  0  0  0  0  0
  1  2  2  0
  2  3  1  0
  3  4  1  0
  4  5  1  0
  5  6  1  0
  2  7  1  0
  7  8  1  0
  8  9  1  0
  9 10  2  0
 10 11  1  0
 11 12  2  0
 12 13  1  0
 12 14  1  0
 14 15  2  0
  7 16  2  3
 16 17  1  0
 17 18  2  0
 17 19  1  0
 19 20  2  0
 20 21  1  0
 21 22  2  0
 22 23  1  0
 15  9  1  0
 23 19  1  0
  3 24  1  0
  4 25  1  0
  4 26  1  0
  5 27  1  0
  5 28  1  0
  6 29  1  0
  8 30  1  0
  8 31  1  0
 10 32  1  0
 11 33  1  0
 14 34  1  0
 15 35  1  0
 20 36  1  0
 21 37  1  0
 22 38  1  0
M  END
$$$$
