
     RDKit          3D

 73 78  0  0  0  0  0  0  0  0999 V2000
   -8.6486   -1.4710   -1.3219 C   0  0  0  0  0  0  0  0  0  0  0  0
   -7.8715   -0.1918   -1.4126 C   0  0  0  0  0  0  0  0  0  0  0  0
   -8.5306    1.0391   -1.4720 C   0  0  0  0  0  0  0  0  0  0  0  0
   -7.7991    2.2240   -1.5330 C   0  0  0  0  0  0  0  0  0  0  0  0
   -6.3954    2.2045   -1.5157 C   0  0  0  0  0  0  0  0  0  0  0  0
   -5.6404    3.5033   -1.5999 C   0  0  0  0  0  0  0  0  0  0  0  0
   -5.7153    0.9739   -1.4085 C   0  0  0  0  0  0  0  0  0  0  0  0
   -4.3125    0.9622   -1.2890 N   0  0  0  0  0  0  0  0  0  0  0  0
   -3.5795    0.0177   -2.1645 C   0  0  0  0  0  0  0  0  0  0  0  0
   -2.8610   -1.0966   -1.3826 C   0  0  0  0  0  0  0  0  0  0  0  0
   -1.9899   -0.5872   -0.3143 N   0  0  0  0  0  0  0  0  0  0  0  0
   -0.8341   -1.2922    0.0042 C   0  0  0  0  0  0  0  0  0  0  0  0
   -0.5327   -2.3302   -0.5878 O   0  0  0  0  0  0  0  0  0  0  0  0
    0.0145   -0.7722    1.1630 C   0  0  0  0  0  0  0  0  0  0  0  0
   -0.6396   -1.1464    2.5079 C   0  0  0  0  0  0  0  0  0  0  0  0
    0.1496   -2.2158    3.2519 C   0  0  0  0  0  0  0  0  0  0  0  0
    1.5960   -1.7792    3.4863 C   0  0  0  0  0  0  0  0  0  0  0  0
    2.1482   -1.0775    2.3219 N   0  0  0  0  0  0  0  0  0  0  0  0
    3.5284   -0.8566    2.3711 C   0  0  0  0  0  0  0  0  0  0  0  0
    4.1562   -1.0150    3.5818 N   0  0  0  0  0  0  0  0  0  0  0  0
    5.4805   -0.7987    3.6936 C   0  0  0  0  0  0  0  0  0  0  0  0
    6.3387   -0.4106    2.7404 N   0  0  0  0  0  0  0  0  0  0  0  0
    5.7051   -0.2437    1.5694 C   0  0  0  0  0  0  0  0  0  0  0  0
    4.3598   -0.4395    1.2956 C   0  0  0  0  0  0  0  0  0  0  0  0
    4.1211   -0.1647   -0.0381 N   0  0  0  0  0  0  0  0  0  0  0  0
    5.2823    0.1731   -0.5684 C   0  0  0  0  0  0  0  0  0  0  0  0
    6.2707    0.1678    0.3895 N   0  0  0  0  0  0  0  0  0  0  0  0
    7.6772    0.4901    0.2425 C   0  0  0  0  0  0  0  0  0  0  0  0
    7.9963    1.5196   -0.8351 C   0  0  0  0  0  0  0  0  0  0  0  0
    7.9843    0.9454   -2.2531 C   0  0  0  0  0  0  0  0  0  0  0  0
    6.8047    0.0284   -2.5817 C   0  0  0  0  0  0  0  0  0  0  0  0
    5.4768    0.5159   -2.0118 C   0  0  0  0  0  0  0  0  0  0  0  0
    1.4635   -1.2820    1.0424 C   0  0  0  0  0  0  0  0  0  0  0  0
   -2.3944    0.6953    0.2806 C   0  0  0  0  0  0  0  0  0  0  0  0
   -3.9004    0.9640    0.1335 C   0  0  0  0  0  0  0  0  0  0  0  0
   -6.4706   -0.2115   -1.3647 C   0  0  0  0  0  0  0  0  0  0  0  0
   -8.1548   -2.2625   -1.8961 H   0  0  0  0  0  0  0  0  0  0  0  0
   -9.6563   -1.3495   -1.7319 H   0  0  0  0  0  0  0  0  0  0  0  0
   -8.7309   -1.7853   -0.2765 H   0  0  0  0  0  0  0  0  0  0  0  0
   -9.6173    1.0844   -1.4835 H   0  0  0  0  0  0  0  0  0  0  0  0
   -8.3367    3.1698   -1.5858 H   0  0  0  0  0  0  0  0  0  0  0  0
   -6.2957    4.3259   -1.9059 H   0  0  0  0  0  0  0  0  0  0  0  0
   -5.2145    3.7581   -0.6244 H   0  0  0  0  0  0  0  0  0  0  0  0
   -4.8403    3.4311   -2.3429 H   0  0  0  0  0  0  0  0  0  0  0  0
   -4.2247   -0.4214   -2.9357 H   0  0  0  0  0  0  0  0  0  0  0  0
   -2.8254    0.6076   -2.7008 H   0  0  0  0  0  0  0  0  0  0  0  0
   -2.2895   -1.7202   -2.0756 H   0  0  0  0  0  0  0  0  0  0  0  0
   -3.5970   -1.7439   -0.8928 H   0  0  0  0  0  0  0  0  0  0  0  0
    0.0562    0.3216    1.0908 H   0  0  0  0  0  0  0  0  0  0  0  0
   -1.6728   -1.4891    2.3773 H   0  0  0  0  0  0  0  0  0  0  0  0
   -0.6874   -0.2476    3.1376 H   0  0  0  0  0  0  0  0  0  0  0  0
    0.1317   -3.1487    2.6723 H   0  0  0  0  0  0  0  0  0  0  0  0
   -0.3300   -2.4360    4.2150 H   0  0  0  0  0  0  0  0  0  0  0  0
    2.1837   -2.6734    3.7315 H   0  0  0  0  0  0  0  0  0  0  0  0
    1.6236   -1.1060    4.3535 H   0  0  0  0  0  0  0  0  0  0  0  0
    5.9020   -0.9591    4.6802 H   0  0  0  0  0  0  0  0  0  0  0  0
    8.2104   -0.4529    0.0687 H   0  0  0  0  0  0  0  0  0  0  0  0
    8.0138    0.8947    1.2065 H   0  0  0  0  0  0  0  0  0  0  0  0
    8.9972    1.9303   -0.6496 H   0  0  0  0  0  0  0  0  0  0  0  0
    7.3001    2.3649   -0.7686 H   0  0  0  0  0  0  0  0  0  0  0  0
    8.9149    0.3876   -2.4268 H   0  0  0  0  0  0  0  0  0  0  0  0
    7.9953    1.7846   -2.9611 H   0  0  0  0  0  0  0  0  0  0  0  0
    6.7247   -0.0355   -3.6745 H   0  0  0  0  0  0  0  0  0  0  0  0
    7.0174   -0.9908   -2.2321 H   0  0  0  0  0  0  0  0  0  0  0  0
    4.6690    0.0341   -2.5772 H   0  0  0  0  0  0  0  0  0  0  0  0
    5.3573    1.5958   -2.1593 H   0  0  0  0  0  0  0  0  0  0  0  0
    1.5204   -2.3420    0.7708 H   0  0  0  0  0  0  0  0  0  0  0  0
    1.9109   -0.7271    0.2172 H   0  0  0  0  0  0  0  0  0  0  0  0
   -1.8181    1.4751   -0.2312 H   0  0  0  0  0  0  0  0  0  0  0  0
   -2.1288    0.7247    1.3392 H   0  0  0  0  0  0  0  0  0  0  0  0
   -4.4490    0.1952    0.6947 H   0  0  0  0  0  0  0  0  0  0  0  0
   -4.1335    1.9331    0.5869 H   0  0  0  0  0  0  0  0  0  0  0  0
   -5.9641   -1.1692   -1.2689 H   0  0  0  0  0  0  0  0  0  0  0  0
  1  2  1  0
  2  3  2  0
  3  4  1  0
  4  5  2  0
  5  6  1  0
  5  7  1  0
  7  8  1  0
  8  9  1  0
  9 10  1  0
 10 11  1  0
 11 12  1  0
 12 13  2  0
 12 14  1  0
 14 15  1  0
 15 16  1  0
 16 17  1  0
 17 18  1  0
 18 19  1  0
 19 20  2  0
 20 21  1  0
 21 22  2  0
 22 23  1  0
 23 24  2  0
 24 25  1  0
 25 26  2  0
 26 27  1  0
 27 28  1  0
 28 29  1  0
 29 30  1  0
 30 31  1  0
 31 32  1  0
 18 33  1  0
 11 34  1  0
 34 35  1  0
  7 36  2  0
 36  2  1  0
 35  8  1  0
 33 14  1  0
 24 19  1  0
 32 26  1  0
 27 23  1  0
  1 37  1  0
  1 38  1  0
  1 39  1  0
  3 40  1  0
  4 41  1  0
  6 42  1  0
  6 43  1  0
  6 44  1  0
  9 45  1  0
  9 46  1  0
 10 47  1  0
 10 48  1  0
 14 49  1  0
 15 50  1  0
 15 51  1  0
 16 52  1  0
 16 53  1  0
 17 54  1  0
 17 55  1  0
 21 56  1  0
 28 57  1  0
 28 58  1  0
 29 59  1  0
 29 60  1  0
 30 61  1  0
 30 62  1  0
 31 63  1  0
 31 64  1  0
 32 65  1  0
 32 66  1  0
 33 67  1  0
 33 68  1  0
 34 69  1  0
 34 70  1  0
 35 71  1  0
 35 72  1  0
 36 73  1  0
M  END
$$$$
