
     RDKit          3D

 45 47  0  0  0  0  0  0  0  0999 V2000
   -1.8440    3.7401   -0.2668 C   0  0  0  0  0  0  0  0  0  0  0  0
   -0.7320    2.7621   -0.1186 C   0  0  0  0  0  0  0  0  0  0  0  0
    0.8898    3.3163   -0.0187 S   0  0  0  0  0  0  0  0  0  0  0  0
    1.4501    1.7171    0.0584 C   0  0  0  0  0  0  0  0  0  0  0  0
    2.7718    1.3532    0.1458 N   0  0  0  0  0  0  0  0  0  0  0  0
    3.9429    2.0630    0.2078 C   0  0  0  0  0  0  0  0  0  0  0  0
    4.2248    3.7114    0.2077 S   0  0  0  0  0  0  0  0  0  0  0  0
    5.0899    1.2827    0.2846 N   0  0  0  0  0  0  0  0  0  0  0  0
    5.2328   -0.1006    0.3060 C   0  0  0  0  0  0  0  0  0  0  0  0
    4.2555   -0.8471    0.2533 O   0  0  0  0  0  0  0  0  0  0  0  0
    6.6000   -0.5975    0.3938 C   0  0  0  0  0  0  0  0  0  0  0  0
    6.9955   -1.9229    0.4317 C   0  0  0  0  0  0  0  0  0  0  0  0
    8.4096   -2.0730    0.5186 C   0  0  0  0  0  0  0  0  0  0  0  0
    9.0536   -0.8571    0.5446 C   0  0  0  0  0  0  0  0  0  0  0  0
    7.9561    0.4506    0.4645 S   0  0  0  0  0  0  0  0  0  0  0  0
    0.5182    0.7948    0.0232 N   0  0  0  0  0  0  0  0  0  0  0  0
   -0.7375    1.3788   -0.0471 C   0  0  0  0  0  0  0  0  0  0  0  0
   -1.9288    0.5425   -0.0848 C   0  0  0  0  0  0  0  0  0  0  0  0
   -3.0392    0.8077    0.7238 C   0  0  0  0  0  0  0  0  0  0  0  0
   -4.1689   -0.0157    0.6703 C   0  0  0  0  0  0  0  0  0  0  0  0
   -4.2082   -1.1264   -0.1853 C   0  0  0  0  0  0  0  0  0  0  0  0
   -5.4217   -2.0363   -0.2581 C   0  0  0  0  0  0  0  0  0  0  0  0
   -6.6668   -1.2791   -0.7265 C   0  0  0  0  0  0  0  0  0  0  0  0
   -5.6794   -2.7360    1.0787 C   0  0  0  0  0  0  0  0  0  0  0  0
   -3.0853   -1.3982   -0.9794 C   0  0  0  0  0  0  0  0  0  0  0  0
   -1.9562   -0.5753   -0.9254 C   0  0  0  0  0  0  0  0  0  0  0  0
   -1.5058    4.6754   -0.7256 H   0  0  0  0  0  0  0  0  0  0  0  0
   -2.2730    3.9788    0.7117 H   0  0  0  0  0  0  0  0  0  0  0  0
   -2.6378    3.3382   -0.9046 H   0  0  0  0  0  0  0  0  0  0  0  0
    2.8605    0.3375    0.1719 H   0  0  0  0  0  0  0  0  0  0  0  0
    5.9467    1.8203    0.3309 H   0  0  0  0  0  0  0  0  0  0  0  0
    6.2925   -2.7487    0.3981 H   0  0  0  0  0  0  0  0  0  0  0  0
    8.9265   -3.0244    0.5600 H   0  0  0  0  0  0  0  0  0  0  0  0
   10.1180   -0.6733    0.6069 H   0  0  0  0  0  0  0  0  0  0  0  0
   -3.0331    1.6442    1.4176 H   0  0  0  0  0  0  0  0  0  0  0  0
   -5.0158    0.2156    1.3124 H   0  0  0  0  0  0  0  0  0  0  0  0
   -5.2252   -2.8213   -1.0006 H   0  0  0  0  0  0  0  0  0  0  0  0
   -7.5095   -1.9669   -0.8552 H   0  0  0  0  0  0  0  0  0  0  0  0
   -6.4864   -0.7862   -1.6884 H   0  0  0  0  0  0  0  0  0  0  0  0
   -6.9730   -0.5096   -0.0095 H   0  0  0  0  0  0  0  0  0  0  0  0
   -6.5055   -3.4495    0.9865 H   0  0  0  0  0  0  0  0  0  0  0  0
   -4.7932   -3.2899    1.4079 H   0  0  0  0  0  0  0  0  0  0  0  0
   -5.9413   -2.0248    1.8697 H   0  0  0  0  0  0  0  0  0  0  0  0
   -3.0745   -2.2580   -1.6458 H   0  0  0  0  0  0  0  0  0  0  0  0
   -1.0926   -0.8121   -1.5439 H   0  0  0  0  0  0  0  0  0  0  0  0
  1  2  1  0
  2  3  1  0
  3  4  1  0
  4  5  1  0
  5  6  1  0
  6  7  2  0
  6  8  1  0
  8  9  1  0
  9 10  2  0
  9 11  1  0
 11 12  2  0
 12 13  1  0
 13 14  2  0
 14 15  1  0
  4 16  2  0
 16 17  1  0
 17 18  1  0
 18 19  2  0
 19 20  1  0
 20 21  2  0
 21 22  1  0
 22 23  1  0
 22 24  1  0
 21 25  1  0
 25 26  2  0
 17  2  2  0
 26 18  1  0
 15 11  1  0
  1 27  1  0
  1 28  1  0
  1 29  1  0
  5 30  1  0
  8 31  1  0
 12 32  1  0
 13 33  1  0
 14 34  1  0
 19 35  1  0
 20 36  1  0
 22 37  1  0
 23 38  1  0
 23 39  1  0
 23 40  1  0
 24 41  1  0
 24 42  1  0
 24 43  1  0
 25 44  1  0
 26 45  1  0
M  END
$$$$
