
     RDKit          3D

 51 55  0  0  0  0  0  0  0  0999 V2000
   -1.5555    0.9660    1.1738 C   0  0  0  0  0  0  0  0  0  0  0  0
   -0.2114    1.1776    1.5034 C   0  0  0  0  0  0  0  0  0  0  0  0
    0.7724    0.5190    0.7488 C   0  0  0  0  0  0  0  0  0  0  0  0
    0.4347   -0.3215   -0.3144 C   0  0  0  0  0  0  0  0  0  0  0  0
   -0.9275   -0.5165   -0.6272 C   0  0  0  0  0  0  0  0  0  0  0  0
   -1.9313    0.1233    0.1219 C   0  0  0  0  0  0  0  0  0  0  0  0
   -3.3900   -0.1000   -0.2384 C   0  0  0  0  0  0  0  0  0  0  0  0
   -4.0123    1.1553   -0.8838 C   0  0  0  0  0  0  0  0  0  0  0  0
   -5.5359    1.2219   -0.7400 C   0  0  0  0  0  0  0  0  0  0  0  0
   -6.1652   -0.1627   -0.6750 C   0  0  0  0  0  0  0  0  0  0  0  0
   -5.6500   -0.9692    0.5186 C   0  0  0  0  0  0  0  0  0  0  0  0
   -4.2309   -0.5872    0.9507 C   0  0  0  0  0  0  0  0  0  0  0  0
    1.6495   -0.8009   -0.8723 C   0  0  0  0  0  0  0  0  0  0  0  0
    2.6943   -0.2501   -0.1508 C   0  0  0  0  0  0  0  0  0  0  0  0
    2.1565    0.5338    0.8411 N   0  0  0  0  0  0  0  0  0  0  0  0
    2.8929    1.3156    1.8237 C   0  0  0  0  0  0  0  0  0  0  0  0
    4.2808    0.7890    2.1642 C   0  0  0  0  0  0  0  0  0  0  0  0
    5.3153    1.0510    1.0683 C   0  0  0  0  0  0  0  0  0  0  0  0
    4.9385    0.7124   -0.2984 N   0  0  0  0  0  0  0  0  0  0  0  0
    4.1484   -0.5077   -0.4117 C   0  0  0  0  0  0  0  0  0  0  0  0
    4.3109   -1.0617   -1.8502 C   0  0  0  0  0  0  0  0  0  0  0  0
    3.3073   -2.1933   -2.1333 C   0  0  0  0  0  0  0  0  0  0  0  0
    1.8540   -1.6975   -2.0487 C   0  0  0  0  0  0  0  0  0  0  0  0
   -2.3147    1.4835    1.7567 H   0  0  0  0  0  0  0  0  0  0  0  0
    0.0478    1.8399    2.3225 H   0  0  0  0  0  0  0  0  0  0  0  0
   -1.1900   -1.1668   -1.4569 H   0  0  0  0  0  0  0  0  0  0  0  0
   -3.4266   -0.9025   -0.9900 H   0  0  0  0  0  0  0  0  0  0  0  0
   -3.5908    2.0791   -0.4682 H   0  0  0  0  0  0  0  0  0  0  0  0
   -3.7465    1.1645   -1.9492 H   0  0  0  0  0  0  0  0  0  0  0  0
   -5.7894    1.7741    0.1738 H   0  0  0  0  0  0  0  0  0  0  0  0
   -5.9582    1.7918   -1.5755 H   0  0  0  0  0  0  0  0  0  0  0  0
   -5.9400   -0.7031   -1.6031 H   0  0  0  0  0  0  0  0  0  0  0  0
   -7.2568   -0.0820   -0.6198 H   0  0  0  0  0  0  0  0  0  0  0  0
   -5.6858   -2.0353    0.2635 H   0  0  0  0  0  0  0  0  0  0  0  0
   -6.3240   -0.8380    1.3739 H   0  0  0  0  0  0  0  0  0  0  0  0
   -3.7574   -1.4480    1.4390 H   0  0  0  0  0  0  0  0  0  0  0  0
   -4.2969    0.1989    1.7139 H   0  0  0  0  0  0  0  0  0  0  0  0
    2.9349    2.3440    1.4473 H   0  0  0  0  0  0  0  0  0  0  0  0
    2.2983    1.3116    2.7441 H   0  0  0  0  0  0  0  0  0  0  0  0
    4.6295    1.2840    3.0793 H   0  0  0  0  0  0  0  0  0  0  0  0
    4.2327   -0.2824    2.3960 H   0  0  0  0  0  0  0  0  0  0  0  0
    6.2301    0.5017    1.3217 H   0  0  0  0  0  0  0  0  0  0  0  0
    5.5940    2.1117    1.0859 H   0  0  0  0  0  0  0  0  0  0  0  0
    4.4177    1.4738   -0.7330 H   0  0  0  0  0  0  0  0  0  0  0  0
    4.5136   -1.2816    0.2762 H   0  0  0  0  0  0  0  0  0  0  0  0
    4.1598   -0.2660   -2.5932 H   0  0  0  0  0  0  0  0  0  0  0  0
    5.3332   -1.4353   -1.9876 H   0  0  0  0  0  0  0  0  0  0  0  0
    3.4633   -3.0004   -1.4061 H   0  0  0  0  0  0  0  0  0  0  0  0
    3.4907   -2.6180   -3.1267 H   0  0  0  0  0  0  0  0  0  0  0  0
    1.6096   -1.1384   -2.9602 H   0  0  0  0  0  0  0  0  0  0  0  0
    1.1764   -2.5572   -1.9995 H   0  0  0  0  0  0  0  0  0  0  0  0
  1  2  2  0
  2  3  1  0
  3  4  2  0
  4  5  1  0
  5  6  2  0
  6  7  1  0
  7  8  1  0
  8  9  1  0
  9 10  1  0
 10 11  1  0
 11 12  1  0
  4 13  1  0
 13 14  2  0
 14 15  1  0
 15 16  1  0
 16 17  1  0
 17 18  1  0
 18 19  1  0
 19 20  1  0
 20 21  1  0
 21 22  1  0
 22 23  1  0
  6  1  1  0
 12  7  1  0
 23 13  1  0
 15  3  1  0
 20 14  1  0
  1 24  1  0
  2 25  1  0
  5 26  1  0
  7 27  1  0
  8 28  1  0
  8 29  1  0
  9 30  1  0
  9 31  1  0
 10 32  1  0
 10 33  1  0
 11 34  1  0
 11 35  1  0
 12 36  1  0
 12 37  1  0
 16 38  1  0
 16 39  1  0
 17 40  1  0
 17 41  1  0
 18 42  1  0
 18 43  1  0
 19 44  1  0
 20 45  1  0
 21 46  1  0
 21 47  1  0
 22 48  1  0
 22 49  1  0
 23 50  1  0
 23 51  1  0
M  END
$$$$
