
     RDKit          3D

 38 40  0  0  0  0  0  0  0  0999 V2000
   -5.3753   -0.2168   -2.3912 C   0  0  0  0  0  0  0  0  0  0  0  0
   -4.1946   -0.6333   -1.5654 C   0  0  0  0  0  0  0  0  0  0  0  0
   -3.9806   -0.0727   -0.3021 C   0  0  0  0  0  0  0  0  0  0  0  0
   -2.8982   -0.4810    0.4812 C   0  0  0  0  0  0  0  0  0  0  0  0
   -2.0051   -1.4577    0.0165 C   0  0  0  0  0  0  0  0  0  0  0  0
   -0.8387   -1.9248    0.8545 C   0  0  0  0  0  0  0  0  0  0  0  0
    0.0470   -0.7472    1.1238 C   0  0  0  0  0  0  0  0  0  0  0  0
    0.3895   -0.2645    2.4241 C   0  0  0  0  0  0  0  0  0  0  0  0
    1.2570    0.7937    2.2775 C   0  0  0  0  0  0  0  0  0  0  0  0
    1.8496    1.5679    3.1784 O   0  0  0  0  0  0  0  0  0  0  0  0
    1.4755    0.9685    0.9315 N   0  0  0  0  0  0  0  0  0  0  0  0
    2.3206    2.0018    0.3439 C   0  0  0  0  0  0  0  0  0  0  0  0
    3.7131    1.5242    0.1352 C   0  0  0  0  0  0  0  0  0  0  0  0
    4.5977    0.7785    0.8903 C   0  0  0  0  0  0  0  0  0  0  0  0
    5.7914    0.6825    0.1365 C   0  0  0  0  0  0  0  0  0  0  0  0
    5.5671    1.3825   -1.0248 C   0  0  0  0  0  0  0  0  0  0  0  0
    4.3137    1.9032   -1.0329 O   0  0  0  0  0  0  0  0  0  0  0  0
    0.7282    0.0562    0.2209 C   0  0  0  0  0  0  0  0  0  0  0  0
    0.7483    0.0644   -1.1072 O   0  0  0  0  0  0  0  0  0  0  0  0
   -2.2432   -2.0391   -1.2382 C   0  0  0  0  0  0  0  0  0  0  0  0
   -3.3264   -1.6307   -2.0206 C   0  0  0  0  0  0  0  0  0  0  0  0
   -5.6321    0.8313   -2.2046 H   0  0  0  0  0  0  0  0  0  0  0  0
   -5.1574   -0.3118   -3.4602 H   0  0  0  0  0  0  0  0  0  0  0  0
   -6.2404   -0.8418   -2.1494 H   0  0  0  0  0  0  0  0  0  0  0  0
   -4.6553    0.6891    0.0826 H   0  0  0  0  0  0  0  0  0  0  0  0
   -2.7520   -0.0240    1.4579 H   0  0  0  0  0  0  0  0  0  0  0  0
   -1.2151   -2.3654    1.7851 H   0  0  0  0  0  0  0  0  0  0  0  0
   -0.2618   -2.7001    0.3365 H   0  0  0  0  0  0  0  0  0  0  0  0
    0.0352   -0.6636    3.3654 H   0  0  0  0  0  0  0  0  0  0  0  0
    1.5457    1.2737    4.0554 H   0  0  0  0  0  0  0  0  0  0  0  0
    1.8601    2.3153   -0.5995 H   0  0  0  0  0  0  0  0  0  0  0  0
    2.3117    2.8699    1.0118 H   0  0  0  0  0  0  0  0  0  0  0  0
    4.3959    0.3561    1.8653 H   0  0  0  0  0  0  0  0  0  0  0  0
    6.7029    0.1688    0.4064 H   0  0  0  0  0  0  0  0  0  0  0  0
    6.1656    1.5949   -1.8994 H   0  0  0  0  0  0  0  0  0  0  0  0
    0.0389   -0.5278   -1.4129 H   0  0  0  0  0  0  0  0  0  0  0  0
   -1.5883   -2.8213   -1.6170 H   0  0  0  0  0  0  0  0  0  0  0  0
   -3.4900   -2.0992   -2.9887 H   0  0  0  0  0  0  0  0  0  0  0  0
  1  2  1  0
  2  3  2  0
  3  4  1  0
  4  5  2  0
  5  6  1  0
  6  7  1  0
  7  8  1  0
  8  9  2  0
  9 10  1  0
  9 11  1  0
 11 12  1  0
 12 13  1  0
 13 14  2  0
 14 15  1  0
 15 16  2  0
 16 17  1  0
 11 18  1  0
 18 19  1  0
  5 20  1  0
 20 21  2  0
 21  2  1  0
 18  7  2  0
 17 13  1  0
  1 22  1  0
  1 23  1  0
  1 24  1  0
  3 25  1  0
  4 26  1  0
  6 27  1  0
  6 28  1  0
  8 29  1  0
 10 30  1  0
 12 31  1  0
 12 32  1  0
 14 33  1  0
 15 34  1  0
 16 35  1  0
 19 36  1  0
 20 37  1  0
 21 38  1  0
M  END
$$$$
