
     RDKit          3D

 40 41  0  0  0  0  0  0  0  0999 V2000
    3.2697    2.6279    0.5194 O   0  0  0  0  0  0  0  0  0  0  0  0
    2.2996    2.8342    1.2277 C   0  0  0  0  0  0  0  0  0  0  0  0
    1.9813    4.0774    1.6284 O   0  0  0  0  0  0  0  0  0  0  0  0
    1.3453    1.7958    1.7414 C   0  0  0  0  0  0  0  0  0  0  0  0
   -0.0030    1.9055    1.0283 C   0  0  0  0  0  0  0  0  0  0  0  0
   -0.9834    0.8666    1.4226 N   0  0  0  0  0  0  0  0  0  0  0  0
   -1.4183    0.9710    2.8122 C   0  0  0  0  0  0  0  0  0  0  0  0
   -2.4448   -0.0653    3.1059 C   0  0  0  0  0  0  0  0  0  0  0  0
   -3.7160   -0.3050    2.6244 C   0  0  0  0  0  0  0  0  0  0  0  0
   -4.1892   -1.4558    3.2985 C   0  0  0  0  0  0  0  0  0  0  0  0
   -3.1795   -1.8446    4.1470 C   0  0  0  0  0  0  0  0  0  0  0  0
   -2.1161   -1.0070    4.0381 O   0  0  0  0  0  0  0  0  0  0  0  0
    0.2292    1.8126   -0.4895 C   0  0  0  0  0  0  0  0  0  0  0  0
    0.1206    2.7586   -1.2603 O   0  0  0  0  0  0  0  0  0  0  0  0
    0.6213    0.5547   -0.8421 O   0  0  0  0  0  0  0  0  0  0  0  0
    0.8687    0.3851   -2.2474 C   0  0  0  0  0  0  0  0  0  0  0  0
    1.3779   -1.0341   -2.4876 C   0  0  0  0  0  0  0  0  0  0  0  0
    1.8521   -1.2661   -3.9120 C   0  0  0  0  0  0  0  0  0  0  0  0
    1.6874   -2.7589   -4.0478 C   0  0  0  0  0  0  0  0  0  0  0  0
    0.4039   -3.0037   -3.2835 C   0  0  0  0  0  0  0  0  0  0  0  0
    0.3260   -1.9975   -2.2636 O   0  0  0  0  0  0  0  0  0  0  0  0
    2.6535    4.6528    1.2035 H   0  0  0  0  0  0  0  0  0  0  0  0
    1.2548    1.9326    2.8245 H   0  0  0  0  0  0  0  0  0  0  0  0
    1.8036    0.8116    1.5845 H   0  0  0  0  0  0  0  0  0  0  0  0
   -0.4518    2.8913    1.2068 H   0  0  0  0  0  0  0  0  0  0  0  0
   -0.5905   -0.0625    1.2536 H   0  0  0  0  0  0  0  0  0  0  0  0
   -0.5747    0.8423    3.4986 H   0  0  0  0  0  0  0  0  0  0  0  0
   -1.8553    1.9586    2.9994 H   0  0  0  0  0  0  0  0  0  0  0  0
   -4.2257    0.2792    1.8707 H   0  0  0  0  0  0  0  0  0  0  0  0
   -5.1452   -1.9450    3.1779 H   0  0  0  0  0  0  0  0  0  0  0  0
   -3.0657   -2.6537    4.8545 H   0  0  0  0  0  0  0  0  0  0  0  0
    1.6237    1.1110   -2.5707 H   0  0  0  0  0  0  0  0  0  0  0  0
   -0.0704    0.5491   -2.7885 H   0  0  0  0  0  0  0  0  0  0  0  0
    2.1739   -1.2744   -1.7716 H   0  0  0  0  0  0  0  0  0  0  0  0
    1.1988   -0.7568   -4.6308 H   0  0  0  0  0  0  0  0  0  0  0  0
    2.8779   -0.9263   -4.0786 H   0  0  0  0  0  0  0  0  0  0  0  0
    2.5210   -3.2716   -3.5532 H   0  0  0  0  0  0  0  0  0  0  0  0
    1.6395   -3.1049   -5.0835 H   0  0  0  0  0  0  0  0  0  0  0  0
    0.3710   -3.9963   -2.8257 H   0  0  0  0  0  0  0  0  0  0  0  0
   -0.4714   -2.8886   -3.9316 H   0  0  0  0  0  0  0  0  0  0  0  0
  1  2  2  0
  2  3  1  0
  2  4  1  0
  4  5  1  0
  5  6  1  0
  6  7  1  0
  7  8  1  0
  8  9  2  0
  9 10  1  0
 10 11  2  0
 11 12  1  0
  5 13  1  0
 13 14  2  0
 13 15  1  0
 15 16  1  0
 16 17  1  0
 17 18  1  0
 18 19  1  0
 19 20  1  0
 20 21  1  0
 12  8  1  0
 21 17  1  0
  3 22  1  0
  4 23  1  0
  4 24  1  0
  5 25  1  0
  6 26  1  0
  7 27  1  0
  7 28  1  0
  9 29  1  0
 10 30  1  0
 11 31  1  0
 16 32  1  0
 16 33  1  0
 17 34  1  0
 18 35  1  0
 18 36  1  0
 19 37  1  0
 19 38  1  0
 20 39  1  0
 20 40  1  0
M  END
$$$$
