
     RDKit          3D

 48 51  0  0  0  0  0  0  0  0999 V2000
    6.7302   -2.7295    0.6479 O   0  0  0  0  0  0  0  0  0  0  0  0
    5.4918   -2.3797   -0.0143 S   0  0  0  0  0  6  0  0  0  0  0  0
    5.2125   -2.8146   -1.3654 O   0  0  0  0  0  0  0  0  0  0  0  0
    4.2485   -2.8792    1.0112 N   0  0  0  0  0  0  0  0  0  0  0  0
    2.9227   -2.4255    0.7763 C   0  0  0  0  0  0  0  0  0  0  0  0
    2.3180   -1.5877    1.7083 C   0  0  0  0  0  0  0  0  0  0  0  0
    1.0313   -1.0927    1.4685 C   0  0  0  0  0  0  0  0  0  0  0  0
    0.3162   -1.4269    0.3018 C   0  0  0  0  0  0  0  0  0  0  0  0
   -1.0376   -0.8894    0.0693 C   0  0  0  0  0  0  0  0  0  0  0  0
   -2.0248   -1.5476   -0.6476 C   0  0  0  0  0  0  0  0  0  0  0  0
   -3.2754   -0.9450   -0.8078 C   0  0  0  0  0  0  0  0  0  0  0  0
   -3.5293    0.3066   -0.2591 C   0  0  0  0  0  0  0  0  0  0  0  0
   -4.8006    0.8997   -0.4075 N   0  0  0  0  0  0  0  0  0  0  0  0
   -5.1699    1.1349   -1.8214 C   0  0  0  0  0  0  0  0  0  0  0  0
   -6.5852    1.7331   -1.8962 C   0  0  0  0  0  0  0  0  0  0  0  0
   -6.6910    2.9418   -1.1287 O   0  0  0  0  0  0  0  0  0  0  0  0
   -6.3772    2.6815    0.2497 C   0  0  0  0  0  0  0  0  0  0  0  0
   -4.9512    2.1305    0.4044 C   0  0  0  0  0  0  0  0  0  0  0  0
   -2.5522    0.9033    0.4533 N   0  0  0  0  0  0  0  0  0  0  0  0
   -1.3069    0.3151    0.6129 N   0  0  0  0  0  0  0  0  0  0  0  0
    0.9528   -2.2776   -0.6204 C   0  0  0  0  0  0  0  0  0  0  0  0
    2.2413   -2.7727   -0.3863 C   0  0  0  0  0  0  0  0  0  0  0  0
    5.3553   -0.6052    0.0292 C   0  0  0  0  0  0  0  0  0  0  0  0
    4.6806    0.0675   -0.9933 C   0  0  0  0  0  0  0  0  0  0  0  0
    4.5835    1.4596   -0.9517 C   0  0  0  0  0  0  0  0  0  0  0  0
    5.1682    2.1758    0.0990 C   0  0  0  0  0  0  0  0  0  0  0  0
    5.0054    3.8953    0.0865 Cl  0  0  0  0  0  0  0  0  0  0  0  0
    5.8586    1.4943    1.1106 C   0  0  0  0  0  0  0  0  0  0  0  0
    6.6064    2.3144    2.4346 Cl  0  0  0  0  0  0  0  0  0  0  0  0
    5.9586    0.1009    1.0742 C   0  0  0  0  0  0  0  0  0  0  0  0
    4.5579   -2.9825    1.9764 H   0  0  0  0  0  0  0  0  0  0  0  0
    2.8322   -1.2978    2.6203 H   0  0  0  0  0  0  0  0  0  0  0  0
    0.5802   -0.4334    2.2107 H   0  0  0  0  0  0  0  0  0  0  0  0
   -1.8564   -2.5340   -1.0657 H   0  0  0  0  0  0  0  0  0  0  0  0
   -4.0560   -1.4802   -1.3380 H   0  0  0  0  0  0  0  0  0  0  0  0
   -4.4565    1.8360   -2.2744 H   0  0  0  0  0  0  0  0  0  0  0  0
   -5.1604    0.2067   -2.4027 H   0  0  0  0  0  0  0  0  0  0  0  0
   -6.8297    1.9777   -2.9347 H   0  0  0  0  0  0  0  0  0  0  0  0
   -7.3337    1.0169   -1.5363 H   0  0  0  0  0  0  0  0  0  0  0  0
   -6.4725    3.6257    0.7951 H   0  0  0  0  0  0  0  0  0  0  0  0
   -7.1173    1.9824    0.6573 H   0  0  0  0  0  0  0  0  0  0  0  0
   -4.7705    1.9199    1.4654 H   0  0  0  0  0  0  0  0  0  0  0  0
   -4.2393    2.8944    0.0643 H   0  0  0  0  0  0  0  0  0  0  0  0
    0.4625   -2.5569   -1.5508 H   0  0  0  0  0  0  0  0  0  0  0  0
    2.6994   -3.4316   -1.1208 H   0  0  0  0  0  0  0  0  0  0  0  0
    4.2249   -0.4799   -1.8166 H   0  0  0  0  0  0  0  0  0  0  0  0
    4.0497    1.9827   -1.7427 H   0  0  0  0  0  0  0  0  0  0  0  0
    6.5046   -0.4272    1.8531 H   0  0  0  0  0  0  0  0  0  0  0  0
  1  2  2  0
  2  3  2  0
  2  4  1  0
  4  5  1  0
  5  6  2  0
  6  7  1  0
  7  8  2  0
  8  9  1  0
  9 10  2  0
 10 11  1  0
 11 12  2  0
 12 13  1  0
 13 14  1  0
 14 15  1  0
 15 16  1  0
 16 17  1  0
 17 18  1  0
 12 19  1  0
 19 20  2  0
  8 21  1  0
 21 22  2  0
  2 23  1  0
 23 24  2  0
 24 25  1  0
 25 26  2  0
 26 27  1  0
 26 28  1  0
 28 29  1  0
 28 30  2  0
 22  5  1  0
 30 23  1  0
 20  9  1  0
 18 13  1  0
  4 31  1  0
  6 32  1  0
  7 33  1  0
 10 34  1  0
 11 35  1  0
 14 36  1  0
 14 37  1  0
 15 38  1  0
 15 39  1  0
 17 40  1  0
 17 41  1  0
 18 42  1  0
 18 43  1  0
 21 44  1  0
 22 45  1  0
 24 46  1  0
 25 47  1  0
 30 48  1  0
M  END
$$$$
