
     RDKit          3D

 52 54  0  0  0  0  0  0  0  0999 V2000
    3.2118    2.2831   -3.5856 C   0  0  0  0  0  0  0  0  0  0  0  0
    2.3074    1.7977   -2.4705 C   0  0  0  0  0  0  0  0  0  0  0  0
    3.0440    0.8614   -1.6730 O   0  0  0  0  0  0  0  0  0  0  0  0
    2.3546    0.3655   -0.6170 C   0  0  0  0  0  0  0  0  0  0  0  0
    1.2011    0.6515   -0.3269 O   0  0  0  0  0  0  0  0  0  0  0  0
    3.1800   -0.5844    0.1865 C   0  0  0  0  0  0  0  0  0  0  0  0
    4.4520   -0.9701   -0.2760 C   0  0  0  0  0  0  0  0  0  0  0  0
    5.2349   -1.8550    0.4624 C   0  0  0  0  0  0  0  0  0  0  0  0
    4.7545   -2.3615    1.6639 C   0  0  0  0  0  0  0  0  0  0  0  0
    3.4910   -1.9890    2.1332 C   0  0  0  0  0  0  0  0  0  0  0  0
    2.6835   -1.1022    1.4099 C   0  0  0  0  0  0  0  0  0  0  0  0
    1.3961   -0.7091    1.8664 N   0  0  0  0  0  0  0  0  0  0  0  0
    0.7301   -1.0997    3.0100 C   0  0  0  0  0  0  0  0  0  0  0  0
    1.1440   -1.8944    3.8498 O   0  0  0  0  0  0  0  0  0  0  0  0
   -0.6416   -0.4655    3.1962 C   0  0  0  0  0  0  0  0  0  0  0  0
   -0.5925    1.0598    3.2401 C   0  0  0  0  0  0  0  0  0  0  0  0
   -1.4754    1.5125    2.1113 C   0  0  0  0  0  0  0  0  0  0  0  0
   -1.6167    2.6756    1.7684 O   0  0  0  0  0  0  0  0  0  0  0  0
   -2.0969    0.4081    1.5544 N   0  0  0  0  0  0  0  0  0  0  0  0
   -2.9339    0.5028    0.3550 C   0  0  0  0  0  0  0  0  0  0  0  0
   -2.0775    0.5200   -0.9210 C   0  0  0  0  0  0  0  0  0  0  0  0
   -2.9373    0.6380   -2.1773 C   0  0  0  0  0  0  0  0  0  0  0  0
   -4.0084   -0.4468   -2.2345 C   0  0  0  0  0  0  0  0  0  0  0  0
   -4.8649   -0.4575   -0.9716 C   0  0  0  0  0  0  0  0  0  0  0  0
   -4.0064   -0.5938    0.2838 C   0  0  0  0  0  0  0  0  0  0  0  0
   -1.5999   -0.8417    2.0779 C   0  0  0  0  0  0  0  0  0  0  0  0
    2.6905    2.9972   -4.2287 H   0  0  0  0  0  0  0  0  0  0  0  0
    3.5551    1.4421   -4.1969 H   0  0  0  0  0  0  0  0  0  0  0  0
    4.1057    2.7635   -3.1750 H   0  0  0  0  0  0  0  0  0  0  0  0
    1.9944    2.6457   -1.8515 H   0  0  0  0  0  0  0  0  0  0  0  0
    1.4254    1.3055   -2.8958 H   0  0  0  0  0  0  0  0  0  0  0  0
    4.8487   -0.5891   -1.2146 H   0  0  0  0  0  0  0  0  0  0  0  0
    6.2177   -2.1479    0.1014 H   0  0  0  0  0  0  0  0  0  0  0  0
    5.3619   -3.0513    2.2469 H   0  0  0  0  0  0  0  0  0  0  0  0
    3.1700   -2.4154    3.0789 H   0  0  0  0  0  0  0  0  0  0  0  0
    0.9081   -0.0616    1.2412 H   0  0  0  0  0  0  0  0  0  0  0  0
   -1.0312   -0.8372    4.1532 H   0  0  0  0  0  0  0  0  0  0  0  0
    0.4128    1.4702    3.1119 H   0  0  0  0  0  0  0  0  0  0  0  0
   -1.0152    1.4344    4.1782 H   0  0  0  0  0  0  0  0  0  0  0  0
   -3.4472    1.4725    0.4144 H   0  0  0  0  0  0  0  0  0  0  0  0
   -1.4727   -0.3945   -0.9799 H   0  0  0  0  0  0  0  0  0  0  0  0
   -1.3730    1.3598   -0.8903 H   0  0  0  0  0  0  0  0  0  0  0  0
   -2.2998    0.5754   -3.0664 H   0  0  0  0  0  0  0  0  0  0  0  0
   -3.4171    1.6245   -2.1978 H   0  0  0  0  0  0  0  0  0  0  0  0
   -3.5297   -1.4260   -2.3583 H   0  0  0  0  0  0  0  0  0  0  0  0
   -4.6457   -0.2899   -3.1116 H   0  0  0  0  0  0  0  0  0  0  0  0
   -5.4499    0.4688   -0.9165 H   0  0  0  0  0  0  0  0  0  0  0  0
   -5.5813   -1.2856   -1.0198 H   0  0  0  0  0  0  0  0  0  0  0  0
   -4.6469   -0.5482    1.1725 H   0  0  0  0  0  0  0  0  0  0  0  0
   -3.5383   -1.5863    0.2835 H   0  0  0  0  0  0  0  0  0  0  0  0
   -2.4458   -1.4200    2.4663 H   0  0  0  0  0  0  0  0  0  0  0  0
   -1.1301   -1.4120    1.2699 H   0  0  0  0  0  0  0  0  0  0  0  0
  1  2  1  0
  2  3  1  0
  3  4  1  0
  4  5  2  0
  4  6  1  0
  6  7  2  0
  7  8  1  0
  8  9  2  0
  9 10  1  0
 10 11  2  0
 11 12  1  0
 12 13  1  0
 13 14  2  0
 13 15  1  0
 15 16  1  0
 16 17  1  0
 17 18  2  0
 17 19  1  0
 19 20  1  0
 20 21  1  0
 21 22  1  0
 22 23  1  0
 23 24  1  0
 24 25  1  0
 19 26  1  0
 11  6  1  0
 26 15  1  0
 25 20  1  0
  1 27  1  0
  1 28  1  0
  1 29  1  0
  2 30  1  0
  2 31  1  0
  7 32  1  0
  8 33  1  0
  9 34  1  0
 10 35  1  0
 12 36  1  0
 15 37  1  0
 16 38  1  0
 16 39  1  0
 20 40  1  0
 21 41  1  0
 21 42  1  0
 22 43  1  0
 22 44  1  0
 23 45  1  0
 23 46  1  0
 24 47  1  0
 24 48  1  0
 25 49  1  0
 25 50  1  0
 26 51  1  0
 26 52  1  0
M  END
$$$$
