
     RDKit          3D

 50 53  0  0  0  0  0  0  0  0999 V2000
   -1.7638   -1.9964    0.3474 O   0  0  0  0  0  0  0  0  0  0  0  0
   -2.1784   -0.9264   -0.1012 C   0  0  0  0  0  0  0  0  0  0  0  0
   -3.5596   -0.8332   -0.7643 C   0  0  0  0  0  0  0  0  0  0  0  0
   -4.5962   -0.2804    0.2356 C   0  0  0  0  0  0  0  0  0  0  0  0
   -5.4990   -1.3690    0.8076 C   0  0  0  0  0  0  0  0  0  0  0  0
   -6.2696   -2.1085   -0.2857 C   0  0  0  0  0  0  0  0  0  0  0  0
   -5.4890   -2.2441   -1.5929 C   0  0  0  0  0  0  0  0  0  0  0  0
   -3.9846   -2.1903   -1.3594 C   0  0  0  0  0  0  0  0  0  0  0  0
   -1.4318    0.2454    0.0126 N   0  0  0  0  0  0  0  0  0  0  0  0
   -1.8271    1.5384   -0.5506 C   0  0  0  0  0  0  0  0  0  0  0  0
   -1.0216    2.6947    0.0300 C   0  0  0  0  0  0  0  0  0  0  0  0
    0.4827    2.5079   -0.1719 C   0  0  0  0  0  0  0  0  0  0  0  0
    0.9224    1.0345   -0.0991 C   0  0  0  0  0  0  0  0  0  0  0  0
    2.2778    0.9043    0.4984 C   0  0  0  0  0  0  0  0  0  0  0  0
    3.4174    0.6087   -0.0817 N   0  0  0  0  0  0  0  0  0  0  0  0
    4.3107    0.6514    0.9692 C   0  0  0  0  0  0  0  0  0  0  0  0
    5.7337    0.3767    0.7934 C   0  0  0  0  0  0  0  0  0  0  0  0
    6.6238    0.4380    1.8793 C   0  0  0  0  0  0  0  0  0  0  0  0
    7.9844    0.1737    1.6985 C   0  0  0  0  0  0  0  0  0  0  0  0
    8.4579   -0.1523    0.4336 C   0  0  0  0  0  0  0  0  0  0  0  0
    9.7617   -0.4048    0.2614 F   0  0  0  0  0  0  0  0  0  0  0  0
    7.5977   -0.2199   -0.6551 C   0  0  0  0  0  0  0  0  0  0  0  0
    6.2371    0.0442   -0.4759 C   0  0  0  0  0  0  0  0  0  0  0  0
    3.7456    0.9710    2.1458 N   0  0  0  0  0  0  0  0  0  0  0  0
    2.3998    1.1395    1.8357 O   0  0  0  0  0  0  0  0  0  0  0  0
   -0.1042    0.1693    0.6391 C   0  0  0  0  0  0  0  0  0  0  0  0
   -3.4828   -0.1336   -1.6056 H   0  0  0  0  0  0  0  0  0  0  0  0
   -5.2251    0.4575   -0.2795 H   0  0  0  0  0  0  0  0  0  0  0  0
   -4.1116    0.2493    1.0640 H   0  0  0  0  0  0  0  0  0  0  0  0
   -4.8865   -2.0848    1.3705 H   0  0  0  0  0  0  0  0  0  0  0  0
   -6.2061   -0.9355    1.5240 H   0  0  0  0  0  0  0  0  0  0  0  0
   -7.2141   -1.5904   -0.4914 H   0  0  0  0  0  0  0  0  0  0  0  0
   -6.5427   -3.1025    0.0889 H   0  0  0  0  0  0  0  0  0  0  0  0
   -5.7767   -1.4334   -2.2744 H   0  0  0  0  0  0  0  0  0  0  0  0
   -5.7640   -3.1808   -2.0910 H   0  0  0  0  0  0  0  0  0  0  0  0
   -3.6991   -3.0254   -0.7077 H   0  0  0  0  0  0  0  0  0  0  0  0
   -3.4545   -2.3499   -2.3064 H   0  0  0  0  0  0  0  0  0  0  0  0
   -2.8904    1.7141   -0.3711 H   0  0  0  0  0  0  0  0  0  0  0  0
   -1.6781    1.4792   -1.6353 H   0  0  0  0  0  0  0  0  0  0  0  0
   -1.2289    2.7705    1.1052 H   0  0  0  0  0  0  0  0  0  0  0  0
   -1.3402    3.6421   -0.4189 H   0  0  0  0  0  0  0  0  0  0  0  0
    0.7680    2.9067   -1.1544 H   0  0  0  0  0  0  0  0  0  0  0  0
    1.0104    3.1295    0.5629 H   0  0  0  0  0  0  0  0  0  0  0  0
    0.9816    0.6600   -1.1313 H   0  0  0  0  0  0  0  0  0  0  0  0
    6.2652    0.6916    2.8755 H   0  0  0  0  0  0  0  0  0  0  0  0
    8.6738    0.2202    2.5357 H   0  0  0  0  0  0  0  0  0  0  0  0
    7.9880   -0.4773   -1.6347 H   0  0  0  0  0  0  0  0  0  0  0  0
    5.5699   -0.0122   -1.3343 H   0  0  0  0  0  0  0  0  0  0  0  0
   -0.2275    0.5016    1.6780 H   0  0  0  0  0  0  0  0  0  0  0  0
    0.2436   -0.8692    0.6814 H   0  0  0  0  0  0  0  0  0  0  0  0
  1  2  2  0
  2  3  1  0
  3  4  1  0
  4  5  1  0
  5  6  1  0
  6  7  1  0
  7  8  1  0
  2  9  1  0
  9 10  1  0
 10 11  1  0
 11 12  1  0
 12 13  1  0
 13 14  1  0
 14 15  2  0
 15 16  1  0
 16 17  1  0
 17 18  2  0
 18 19  1  0
 19 20  2  0
 20 21  1  0
 20 22  1  0
 22 23  2  0
 16 24  2  0
 24 25  1  0
 13 26  1  0
  8  3  1  0
 26  9  1  0
 25 14  1  0
 23 17  1  0
  3 27  1  0
  4 28  1  0
  4 29  1  0
  5 30  1  0
  5 31  1  0
  6 32  1  0
  6 33  1  0
  7 34  1  0
  7 35  1  0
  8 36  1  0
  8 37  1  0
 10 38  1  0
 10 39  1  0
 11 40  1  0
 11 41  1  0
 12 42  1  0
 12 43  1  0
 13 44  1  0
 18 45  1  0
 19 46  1  0
 22 47  1  0
 23 48  1  0
 26 49  1  0
 26 50  1  0
M  END
$$$$
