
     RDKit          3D

 57 60  0  0  0  0  0  0  0  0999 V2000
    6.2926    3.4209    0.8580 C   0  0  0  0  0  0  0  0  0  0  0  0
    6.9778    2.0707    0.9523 C   0  0  0  0  0  0  0  0  0  0  0  0
    5.9983    1.0250    1.0403 O   0  0  0  0  0  0  0  0  0  0  0  0
    5.5456    0.7366    2.2894 C   0  0  0  0  0  0  0  0  0  0  0  0
    5.8956    1.3085    3.3133 O   0  0  0  0  0  0  0  0  0  0  0  0
    4.4762   -0.3388    2.2657 C   0  0  0  0  0  0  0  0  0  0  0  0
    3.1099    0.3181    2.0560 C   0  0  0  0  0  0  0  0  0  0  0  0
    2.1184   -0.6704    1.4599 C   0  0  0  0  0  0  0  0  0  0  0  0
    2.5579   -1.0936    0.1022 N   0  0  0  0  0  0  0  0  0  0  0  0
    1.6767   -2.3945   -0.5802 S   0  0  0  0  0  6  0  0  0  0  0  0
    1.7292   -3.4904    0.3644 O   0  0  0  0  0  0  0  0  0  0  0  0
    2.1091   -2.5642   -1.9513 O   0  0  0  0  0  0  0  0  0  0  0  0
    0.0185   -1.7599   -0.6287 C   0  0  0  0  0  0  0  0  0  0  0  0
   -0.9595   -2.2800    0.2344 C   0  0  0  0  0  0  0  0  0  0  0  0
   -2.2657   -1.7792    0.1946 C   0  0  0  0  0  0  0  0  0  0  0  0
   -2.5684   -0.7744   -0.7122 C   0  0  0  0  0  0  0  0  0  0  0  0
   -1.5905   -0.2745   -1.5760 C   0  0  0  0  0  0  0  0  0  0  0  0
   -0.2898   -0.7558   -1.5522 C   0  0  0  0  0  0  0  0  0  0  0  0
   -2.1462    0.7723   -2.4854 C   0  0  0  0  0  0  0  0  0  0  0  0
   -3.5933    0.8896   -1.9929 C   0  0  0  0  0  0  0  0  0  0  0  0
   -3.7927   -0.1173   -0.9377 N   0  0  0  0  0  0  0  0  0  0  0  0
   -4.9895   -0.3587   -0.2676 C   0  0  0  0  0  0  0  0  0  0  0  0
   -5.0999   -1.2018    0.6302 O   0  0  0  0  0  0  0  0  0  0  0  0
   -6.2019    0.5161   -0.7215 C   0  0  0  0  0  0  0  0  0  0  0  0
   -7.5326    0.3756    0.0718 C   0  0  0  0  0  0  0  0  0  0  0  0
   -8.0059   -0.6214   -0.9990 C   0  0  0  0  0  0  0  0  0  0  0  0
   -6.9994    0.0294   -1.9631 C   0  0  0  0  0  0  0  0  0  0  0  0
    4.0358   -1.1995   -0.0772 C   0  0  0  0  0  0  0  0  0  0  0  0
    4.7524   -1.4502    1.2445 C   0  0  0  0  0  0  0  0  0  0  0  0
    5.7040    3.6267    1.7580 H   0  0  0  0  0  0  0  0  0  0  0  0
    7.0267    4.2209    0.7303 H   0  0  0  0  0  0  0  0  0  0  0  0
    5.5976    3.4412    0.0122 H   0  0  0  0  0  0  0  0  0  0  0  0
    7.6778    2.0320    1.7945 H   0  0  0  0  0  0  0  0  0  0  0  0
    7.5583    1.8892    0.0419 H   0  0  0  0  0  0  0  0  0  0  0  0
    4.5059   -0.8101    3.2576 H   0  0  0  0  0  0  0  0  0  0  0  0
    2.7335    0.6912    3.0163 H   0  0  0  0  0  0  0  0  0  0  0  0
    3.1941    1.1936    1.3983 H   0  0  0  0  0  0  0  0  0  0  0  0
    2.0116   -1.5367    2.1226 H   0  0  0  0  0  0  0  0  0  0  0  0
    1.1446   -0.1759    1.3811 H   0  0  0  0  0  0  0  0  0  0  0  0
   -0.7154   -3.0736    0.9377 H   0  0  0  0  0  0  0  0  0  0  0  0
   -3.0121   -2.1881    0.8676 H   0  0  0  0  0  0  0  0  0  0  0  0
    0.4656   -0.3703   -2.2310 H   0  0  0  0  0  0  0  0  0  0  0  0
   -1.6135    1.7223   -2.3822 H   0  0  0  0  0  0  0  0  0  0  0  0
   -2.1121    0.4420   -3.5283 H   0  0  0  0  0  0  0  0  0  0  0  0
   -4.3077    0.7191   -2.8049 H   0  0  0  0  0  0  0  0  0  0  0  0
   -3.7840    1.8831   -1.5718 H   0  0  0  0  0  0  0  0  0  0  0  0
   -5.9172    1.5742   -0.7904 H   0  0  0  0  0  0  0  0  0  0  0  0
   -7.4613   -0.0247    1.0863 H   0  0  0  0  0  0  0  0  0  0  0  0
   -8.1209    1.3004    0.1039 H   0  0  0  0  0  0  0  0  0  0  0  0
   -7.7760   -1.6661   -0.7619 H   0  0  0  0  0  0  0  0  0  0  0  0
   -9.0571   -0.5457   -1.2873 H   0  0  0  0  0  0  0  0  0  0  0  0
   -6.4834   -0.6654   -2.6314 H   0  0  0  0  0  0  0  0  0  0  0  0
   -7.4196    0.8467   -2.5602 H   0  0  0  0  0  0  0  0  0  0  0  0
    4.3797   -0.2696   -0.5438 H   0  0  0  0  0  0  0  0  0  0  0  0
    4.2953   -2.0022   -0.7756 H   0  0  0  0  0  0  0  0  0  0  0  0
    5.8282   -1.5703    1.0710 H   0  0  0  0  0  0  0  0  0  0  0  0
    4.3989   -2.4046    1.6573 H   0  0  0  0  0  0  0  0  0  0  0  0
  1  2  1  0
  2  3  1  0
  3  4  1  0
  4  5  2  0
  4  6  1  0
  6  7  1  0
  7  8  1  0
  8  9  1  0
  9 10  1  0
 10 11  2  0
 10 12  2  0
 10 13  1  0
 13 14  2  0
 14 15  1  0
 15 16  2  0
 16 17  1  0
 17 18  2  0
 17 19  1  0
 19 20  1  0
 20 21  1  0
 21 22  1  0
 22 23  2  0
 22 24  1  0
 24 25  1  0
 25 26  1  0
 26 27  1  0
  9 28  1  0
 28 29  1  0
 29  6  1  0
 18 13  1  0
 27 24  1  0
 21 16  1  0
  1 30  1  0
  1 31  1  0
  1 32  1  0
  2 33  1  0
  2 34  1  0
  6 35  1  0
  7 36  1  0
  7 37  1  0
  8 38  1  0
  8 39  1  0
 14 40  1  0
 15 41  1  0
 18 42  1  0
 19 43  1  0
 19 44  1  0
 20 45  1  0
 20 46  1  0
 24 47  1  0
 25 48  1  0
 25 49  1  0
 26 50  1  0
 26 51  1  0
 27 52  1  0
 27 53  1  0
 28 54  1  0
 28 55  1  0
 29 56  1  0
 29 57  1  0
M  END
$$$$
