
     RDKit          3D

 57 61  0  0  0  0  0  0  0  0999 V2000
    6.4337    0.8911   -0.1675 C   0  0  0  0  0  0  0  0  0  0  0  0
    5.0491    0.6306    0.4339 C   0  0  0  0  0  0  0  0  0  0  0  0
    4.8322    1.5541    1.6310 C   0  0  0  0  0  0  0  0  0  0  0  0
    3.9542    0.8416   -0.6182 C   0  0  0  0  0  0  0  0  0  0  0  0
    4.2108    1.3981   -1.6894 O   0  0  0  0  0  0  0  0  0  0  0  0
    2.6606    0.4190   -0.3281 N   0  0  0  0  0  0  0  0  0  0  0  0
    1.6169    0.7333   -1.3003 C   0  0  0  0  0  0  0  0  0  0  0  0
    0.2254    0.6322   -0.6840 C   0  0  0  0  0  0  0  0  0  0  0  0
   -0.0769   -0.8097   -0.1902 C   0  0  0  0  0  0  0  0  0  0  0  0
    1.2296   -1.4518    0.3746 C   0  0  0  0  0  0  0  0  0  0  0  0
    2.2641   -0.4159    0.8055 C   0  0  0  0  0  0  0  0  0  0  0  0
   -0.4643   -1.5254   -1.3941 O   0  0  0  0  0  0  0  0  0  0  0  0
   -1.0108   -2.7632   -1.2115 C   0  0  0  0  0  0  0  0  0  0  0  0
   -1.0138   -3.6033   -2.3245 C   0  0  0  0  0  0  0  0  0  0  0  0
   -1.5382   -4.8939   -2.2246 C   0  0  0  0  0  0  0  0  0  0  0  0
   -2.0640   -5.3383   -1.0115 C   0  0  0  0  0  0  0  0  0  0  0  0
   -2.7070   -6.9284   -0.8937 Cl  0  0  0  0  0  0  0  0  0  0  0  0
   -2.0787   -4.5008    0.1008 C   0  0  0  0  0  0  0  0  0  0  0  0
   -1.5579   -3.2073   -0.0102 C   0  0  0  0  0  0  0  0  0  0  0  0
   -1.6041   -2.2831    1.1374 C   0  0  0  0  0  0  0  0  0  0  0  0
   -1.9610   -2.6996    2.2346 O   0  0  0  0  0  0  0  0  0  0  0  0
   -1.2436   -0.8309    0.8376 C   0  0  0  0  0  0  0  0  0  0  0  0
   -2.5218   -0.1178    0.4135 C   0  0  0  0  0  0  0  0  0  0  0  0
   -2.4248    1.0914    1.2765 C   0  0  0  0  0  0  0  0  0  0  0  0
   -3.3352    2.2491    1.1122 C   0  0  0  0  0  0  0  0  0  0  0  0
   -4.3930    2.2248    0.1953 C   0  0  0  0  0  0  0  0  0  0  0  0
   -5.2303    3.3378    0.0631 C   0  0  0  0  0  0  0  0  0  0  0  0
   -5.0131    4.4706    0.8462 C   0  0  0  0  0  0  0  0  0  0  0  0
   -6.0460    5.8353    0.6785 Cl  0  0  0  0  0  0  0  0  0  0  0  0
   -3.9654    4.5021    1.7630 C   0  0  0  0  0  0  0  0  0  0  0  0
   -3.1273    3.3917    1.8967 C   0  0  0  0  0  0  0  0  0  0  0  0
   -1.4913    1.0494    2.1716 N   0  0  0  0  0  0  0  0  0  0  0  0
   -0.8381   -0.1973    2.0565 O   0  0  0  0  0  0  0  0  0  0  0  0
    6.6086    0.2445   -1.0346 H   0  0  0  0  0  0  0  0  0  0  0  0
    7.2208    0.6885    0.5666 H   0  0  0  0  0  0  0  0  0  0  0  0
    6.5399    1.9300   -0.5001 H   0  0  0  0  0  0  0  0  0  0  0  0
    5.0413   -0.4151    0.7553 H   0  0  0  0  0  0  0  0  0  0  0  0
    4.8139    2.6045    1.3190 H   0  0  0  0  0  0  0  0  0  0  0  0
    3.8859    1.3515    2.1390 H   0  0  0  0  0  0  0  0  0  0  0  0
    5.6335    1.4322    2.3675 H   0  0  0  0  0  0  0  0  0  0  0  0
    1.7253    0.0403   -2.1432 H   0  0  0  0  0  0  0  0  0  0  0  0
    1.7760    1.7468   -1.6862 H   0  0  0  0  0  0  0  0  0  0  0  0
    0.1746    1.3520    0.1399 H   0  0  0  0  0  0  0  0  0  0  0  0
   -0.5085    0.9423   -1.4376 H   0  0  0  0  0  0  0  0  0  0  0  0
    1.6845   -2.0979   -0.3886 H   0  0  0  0  0  0  0  0  0  0  0  0
    1.0151   -2.1043    1.2283 H   0  0  0  0  0  0  0  0  0  0  0  0
    1.8551    0.2441    1.5782 H   0  0  0  0  0  0  0  0  0  0  0  0
    3.1246   -0.9311    1.2346 H   0  0  0  0  0  0  0  0  0  0  0  0
   -0.5960   -3.2608   -3.2687 H   0  0  0  0  0  0  0  0  0  0  0  0
   -1.5299   -5.5481   -3.0935 H   0  0  0  0  0  0  0  0  0  0  0  0
   -2.4981   -4.8463    1.0432 H   0  0  0  0  0  0  0  0  0  0  0  0
   -3.4321   -0.6665    0.6795 H   0  0  0  0  0  0  0  0  0  0  0  0
   -2.5524    0.1306   -0.6497 H   0  0  0  0  0  0  0  0  0  0  0  0
   -4.5934    1.3542   -0.4221 H   0  0  0  0  0  0  0  0  0  0  0  0
   -6.0515    3.3142   -0.6492 H   0  0  0  0  0  0  0  0  0  0  0  0
   -3.7945    5.3826    2.3769 H   0  0  0  0  0  0  0  0  0  0  0  0
   -2.3130    3.4261    2.6189 H   0  0  0  0  0  0  0  0  0  0  0  0
  1  2  1  0
  2  3  1  0
  2  4  1  0
  4  5  2  0
  4  6  1  0
  6  7  1  0
  7  8  1  0
  8  9  1  0
  9 10  1  0
 10 11  1  0
  9 12  1  0
 12 13  1  0
 13 14  2  0
 14 15  1  0
 15 16  2  0
 16 17  1  0
 16 18  1  0
 18 19  2  0
 19 20  1  0
 20 21  2  0
 20 22  1  0
 22 23  1  0
 23 24  1  0
 24 25  1  0
 25 26  2  0
 26 27  1  0
 27 28  2  0
 28 29  1  0
 28 30  1  0
 30 31  2  0
 24 32  2  0
 32 33  1  0
 11  6  1  0
 19 13  1  0
 33 22  1  0
 22  9  1  0
 31 25  1  0
  1 34  1  0
  1 35  1  0
  1 36  1  0
  2 37  1  0
  3 38  1  0
  3 39  1  0
  3 40  1  0
  7 41  1  0
  7 42  1  0
  8 43  1  0
  8 44  1  0
 10 45  1  0
 10 46  1  0
 11 47  1  0
 11 48  1  0
 14 49  1  0
 15 50  1  0
 18 51  1  0
 23 52  1  0
 23 53  1  0
 26 54  1  0
 27 55  1  0
 30 56  1  0
 31 57  1  0
M  END
$$$$
