
     RDKit          3D

 61 63  0  0  0  0  0  0  0  0999 V2000
   -1.4079   -3.0704   -2.0779 C   0  0  0  0  0  0  0  0  0  0  0  0
   -1.5295   -1.6101   -2.4718 C   0  0  0  0  0  0  0  0  0  0  0  0
   -1.6515   -0.8181   -1.2833 O   0  0  0  0  0  0  0  0  0  0  0  0
   -0.5441   -0.1431   -0.8713 C   0  0  0  0  0  0  0  0  0  0  0  0
    0.5211   -0.1303   -1.4832 O   0  0  0  0  0  0  0  0  0  0  0  0
   -0.7257    0.5811    0.3914 C   0  0  0  0  0  0  0  0  0  0  0  0
   -1.8910    0.5972    1.2494 C   0  0  0  0  0  0  0  0  0  0  0  0
   -3.1544   -0.0999    1.0768 C   0  0  0  0  0  0  0  0  0  0  0  0
   -3.3757   -1.3160    1.7284 C   0  0  0  0  0  0  0  0  0  0  0  0
   -4.5789   -2.0009    1.5385 C   0  0  0  0  0  0  0  0  0  0  0  0
   -5.5821   -1.4874    0.7010 C   0  0  0  0  0  0  0  0  0  0  0  0
   -6.8431   -2.2178    0.4958 C   0  0  0  0  0  0  0  0  0  0  0  0
   -6.8430   -3.5572    0.0739 C   0  0  0  0  0  0  0  0  0  0  0  0
   -8.0398   -4.2551   -0.1149 C   0  0  0  0  0  0  0  0  0  0  0  0
   -9.2579   -3.6234    0.1159 C   0  0  0  0  0  0  0  0  0  0  0  0
   -9.2814   -2.2936    0.5293 C   0  0  0  0  0  0  0  0  0  0  0  0
   -8.0838   -1.5971    0.7168 C   0  0  0  0  0  0  0  0  0  0  0  0
   -5.3459   -0.2578    0.0619 C   0  0  0  0  0  0  0  0  0  0  0  0
   -4.1450    0.4327    0.2487 C   0  0  0  0  0  0  0  0  0  0  0  0
   -1.6938    1.3752    2.3746 C   0  0  0  0  0  0  0  0  0  0  0  0
   -0.1478    2.0872    2.4037 S   0  0  0  0  0  0  0  0  0  0  0  0
    0.2914    1.3638    0.9343 C   0  0  0  0  0  0  0  0  0  0  0  0
    1.5475    1.5600    0.3748 N   0  0  0  0  0  0  0  0  0  0  0  0
    2.6090    2.2943    0.8884 C   0  0  0  0  0  0  0  0  0  0  0  0
    2.6248    2.9372    1.9322 O   0  0  0  0  0  0  0  0  0  0  0  0
    3.8348    2.2066   -0.0470 C   0  0  0  0  0  0  0  0  0  0  0  0
    5.0701    2.5917    0.6508 N   0  0  0  0  0  0  0  0  0  0  0  0
    6.2580    2.2839   -0.1497 C   0  0  0  0  0  0  0  0  0  0  0  0
    7.5573    2.5261    0.6571 C   0  0  0  0  0  0  0  0  0  0  0  0
    8.8354    2.3210   -0.0480 N   0  0  0  0  0  0  0  0  0  0  0  0
    8.9671    0.9837   -0.6177 C   0  0  0  0  0  0  0  0  0  0  0  0
    9.0811    3.3501   -1.0543 C   0  0  0  0  0  0  0  0  0  0  0  0
   -0.5721   -3.2249   -1.3850 H   0  0  0  0  0  0  0  0  0  0  0  0
   -1.2627   -3.7015   -2.9591 H   0  0  0  0  0  0  0  0  0  0  0  0
   -2.3183   -3.4026   -1.5589 H   0  0  0  0  0  0  0  0  0  0  0  0
   -0.6815   -1.3037   -3.0928 H   0  0  0  0  0  0  0  0  0  0  0  0
   -2.4384   -1.4571   -3.0627 H   0  0  0  0  0  0  0  0  0  0  0  0
   -2.6176   -1.7398    2.3835 H   0  0  0  0  0  0  0  0  0  0  0  0
   -4.7354   -2.9420    2.0633 H   0  0  0  0  0  0  0  0  0  0  0  0
   -5.9020   -4.0684   -0.1170 H   0  0  0  0  0  0  0  0  0  0  0  0
   -8.0177   -5.2921   -0.4390 H   0  0  0  0  0  0  0  0  0  0  0  0
  -10.1891   -4.1674   -0.0278 H   0  0  0  0  0  0  0  0  0  0  0  0
  -10.2301   -1.7975    0.7164 H   0  0  0  0  0  0  0  0  0  0  0  0
   -8.1254   -0.5639    1.0550 H   0  0  0  0  0  0  0  0  0  0  0  0
   -6.0966    0.1659   -0.6041 H   0  0  0  0  0  0  0  0  0  0  0  0
   -3.9869    1.3767   -0.2664 H   0  0  0  0  0  0  0  0  0  0  0  0
   -2.3852    1.5598    3.1871 H   0  0  0  0  0  0  0  0  0  0  0  0
    1.6948    1.0714   -0.5076 H   0  0  0  0  0  0  0  0  0  0  0  0
    3.6583    2.8752   -0.8980 H   0  0  0  0  0  0  0  0  0  0  0  0
    3.9139    1.1732   -0.4080 H   0  0  0  0  0  0  0  0  0  0  0  0
    5.1035    2.1216    1.5574 H   0  0  0  0  0  0  0  0  0  0  0  0
    6.2516    2.9097   -1.0478 H   0  0  0  0  0  0  0  0  0  0  0  0
    6.2259    1.2355   -0.4649 H   0  0  0  0  0  0  0  0  0  0  0  0
    7.5497    1.8598    1.5312 H   0  0  0  0  0  0  0  0  0  0  0  0
    7.5438    3.5420    1.0742 H   0  0  0  0  0  0  0  0  0  0  0  0
    8.2994    0.8249   -1.4716 H   0  0  0  0  0  0  0  0  0  0  0  0
    9.9956    0.8152   -0.9593 H   0  0  0  0  0  0  0  0  0  0  0  0
    8.7583    0.2142    0.1338 H   0  0  0  0  0  0  0  0  0  0  0  0
    8.3617    3.3132   -1.8812 H   0  0  0  0  0  0  0  0  0  0  0  0
    9.0396    4.3477   -0.6029 H   0  0  0  0  0  0  0  0  0  0  0  0
   10.0876    3.2413   -1.4745 H   0  0  0  0  0  0  0  0  0  0  0  0
  1  2  1  0
  2  3  1  0
  3  4  1  0
  4  5  2  0
  4  6  1  0
  6  7  1  0
  7  8  1  0
  8  9  2  0
  9 10  1  0
 10 11  2  0
 11 12  1  0
 12 13  2  0
 13 14  1  0
 14 15  2  0
 15 16  1  0
 16 17  2  0
 11 18  1  0
 18 19  2  0
  7 20  2  0
 20 21  1  0
 21 22  1  0
 22 23  1  0
 23 24  1  0
 24 25  2  0
 24 26  1  0
 26 27  1  0
 27 28  1  0
 28 29  1  0
 29 30  1  0
 30 31  1  0
 30 32  1  0
 22  6  2  0
 19  8  1  0
 17 12  1  0
  1 33  1  0
  1 34  1  0
  1 35  1  0
  2 36  1  0
  2 37  1  0
  9 38  1  0
 10 39  1  0
 13 40  1  0
 14 41  1  0
 15 42  1  0
 16 43  1  0
 17 44  1  0
 18 45  1  0
 19 46  1  0
 20 47  1  0
 23 48  1  0
 26 49  1  0
 26 50  1  0
 27 51  1  0
 28 52  1  0
 28 53  1  0
 29 54  1  0
 29 55  1  0
 31 56  1  0
 31 57  1  0
 31 58  1  0
 32 59  1  0
 32 60  1  0
 32 61  1  0
M  END
$$$$
