
     RDKit          3D

 41 43  0  0  0  0  0  0  0  0999 V2000
   -1.9122    1.6262    2.6763 O   0  0  0  0  0  0  0  0  0  0  0  0
   -2.6803    1.5089    1.7211 C   0  0  0  0  0  0  0  0  0  0  0  0
   -4.1844    1.4086    1.9148 C   0  0  0  0  0  0  0  0  0  0  0  0
   -4.9036    0.5662    0.8873 C   0  0  0  0  0  0  0  0  0  0  0  0
   -4.6621   -0.8131    0.8081 C   0  0  0  0  0  0  0  0  0  0  0  0
   -5.2993   -1.5863   -0.1625 C   0  0  0  0  0  0  0  0  0  0  0  0
   -6.1854   -0.9913   -1.0585 C   0  0  0  0  0  0  0  0  0  0  0  0
   -6.4374    0.3771   -0.9836 C   0  0  0  0  0  0  0  0  0  0  0  0
   -5.8000    1.1542   -0.0154 C   0  0  0  0  0  0  0  0  0  0  0  0
   -2.2477    1.5386    0.4049 N   0  0  0  0  0  0  0  0  0  0  0  0
   -0.8623    1.3852    0.2057 N   0  0  0  0  0  0  0  0  0  0  0  0
   -0.3239    0.1100    0.2240 C   0  0  0  0  0  0  0  0  0  0  0  0
   -0.9456   -0.9411    0.3085 O   0  0  0  0  0  0  0  0  0  0  0  0
    1.1549    0.2096    0.0835 C   0  0  0  0  0  0  0  0  0  0  0  0
    1.9339   -0.8806    0.0972 C   0  0  0  0  0  0  0  0  0  0  0  0
    3.3947   -0.8971   -0.0239 C   0  0  0  0  0  0  0  0  0  0  0  0
    4.0293   -0.5179   -1.2127 C   0  0  0  0  0  0  0  0  0  0  0  0
    5.4238   -0.5550   -1.3130 C   0  0  0  0  0  0  0  0  0  0  0  0
    6.1949   -0.9797   -0.2251 C   0  0  0  0  0  0  0  0  0  0  0  0
    7.6756   -1.0375   -0.2832 C   0  0  0  0  0  0  0  0  0  0  0  0
    8.4106   -1.4016    0.6158 O   0  0  0  0  0  0  0  0  0  0  0  0
    8.1680   -0.6367   -1.4685 O   0  0  0  0  0  0  0  0  0  0  0  0
    5.5612   -1.3679    0.9613 C   0  0  0  0  0  0  0  0  0  0  0  0
    4.1671   -1.3295    1.0596 C   0  0  0  0  0  0  0  0  0  0  0  0
    1.6374    1.8596   -0.0677 S   0  0  0  0  0  0  0  0  0  0  0  0
   -0.0141    2.4623    0.0569 C   0  0  0  0  0  0  0  0  0  0  0  0
   -0.4120    4.0792   -0.0438 S   0  0  0  0  0  0  0  0  0  0  0  0
   -4.5825    2.4304    1.9249 H   0  0  0  0  0  0  0  0  0  0  0  0
   -4.3753    0.9791    2.9059 H   0  0  0  0  0  0  0  0  0  0  0  0
   -3.9694   -1.2956    1.4972 H   0  0  0  0  0  0  0  0  0  0  0  0
   -5.1043   -2.6547   -0.2179 H   0  0  0  0  0  0  0  0  0  0  0  0
   -6.6843   -1.5963   -1.8118 H   0  0  0  0  0  0  0  0  0  0  0  0
   -7.1348    0.8386   -1.6785 H   0  0  0  0  0  0  0  0  0  0  0  0
   -6.0121    2.2207    0.0281 H   0  0  0  0  0  0  0  0  0  0  0  0
   -2.8271    1.0913   -0.3013 H   0  0  0  0  0  0  0  0  0  0  0  0
    1.4823   -1.8629    0.2314 H   0  0  0  0  0  0  0  0  0  0  0  0
    3.4475   -0.1914   -2.0721 H   0  0  0  0  0  0  0  0  0  0  0  0
    5.8968   -0.2512   -2.2440 H   0  0  0  0  0  0  0  0  0  0  0  0
    9.1384   -0.7237   -1.3598 H   0  0  0  0  0  0  0  0  0  0  0  0
    6.1500   -1.7006    1.8142 H   0  0  0  0  0  0  0  0  0  0  0  0
    3.6937   -1.6339    1.9908 H   0  0  0  0  0  0  0  0  0  0  0  0
  1  2  2  0
  2  3  1  0
  3  4  1  0
  4  5  2  0
  5  6  1  0
  6  7  2  0
  7  8  1  0
  8  9  2  0
  2 10  1  0
 10 11  1  0
 11 12  1  0
 12 13  2  0
 12 14  1  0
 14 15  2  3
 15 16  1  0
 16 17  2  0
 17 18  1  0
 18 19  2  0
 19 20  1  0
 20 21  2  0
 20 22  1  0
 19 23  1  0
 23 24  2  0
 14 25  1  0
 25 26  1  0
 26 27  2  0
  9  4  1  0
 26 11  1  0
 24 16  1  0
  3 28  1  0
  3 29  1  0
  5 30  1  0
  6 31  1  0
  7 32  1  0
  8 33  1  0
  9 34  1  0
 10 35  1  0
 15 36  1  0
 17 37  1  0
 18 38  1  0
 22 39  1  0
 23 40  1  0
 24 41  1  0
M  END
$$$$
