
     RDKit          3D

 34 36  0  0  0  0  0  0  0  0999 V2000
    2.5592   -1.8248   -0.8273 O   0  0  0  0  0  0  0  0  0  0  0  0
    2.2369   -0.6552   -0.6301 C   0  0  0  0  0  0  0  0  0  0  0  0
    3.1526    0.4912   -0.9792 C   0  0  0  0  0  0  0  0  0  0  0  0
    4.0324    0.7768    0.1257 N   0  0  0  0  0  0  0  0  0  0  0  0
    5.0834    0.0349    0.5697 C   0  0  0  0  0  0  0  0  0  0  0  0
    5.6314    0.6330    1.6022 N   0  0  0  0  0  0  0  0  0  0  0  0
    4.8670    1.7599    1.7507 C   0  0  0  0  0  0  0  0  0  0  0  0
    3.8628    1.8888    0.8772 N   0  0  0  0  0  0  0  0  0  0  0  0
    1.0317   -0.2870   -0.0730 N   0  0  0  0  0  0  0  0  0  0  0  0
    0.1266   -1.2921    0.4446 C   0  0  0  0  0  0  0  0  0  0  0  0
   -1.2295   -0.6999    0.7498 C   0  0  0  0  0  0  0  0  0  0  0  0
   -1.5291   -0.3860    2.0899 C   0  0  0  0  0  0  0  0  0  0  0  0
   -2.7657    0.1477    2.4382 C   0  0  0  0  0  0  0  0  0  0  0  0
   -3.7168    0.3899    1.4498 C   0  0  0  0  0  0  0  0  0  0  0  0
   -3.4448    0.1141    0.1028 C   0  0  0  0  0  0  0  0  0  0  0  0
   -4.4159    0.3771   -0.8786 C   0  0  0  0  0  0  0  0  0  0  0  0
   -4.1660    0.1128   -2.2255 C   0  0  0  0  0  0  0  0  0  0  0  0
   -2.9414   -0.4220   -2.6081 C   0  0  0  0  0  0  0  0  0  0  0  0
   -1.9688   -0.6923   -1.6402 C   0  0  0  0  0  0  0  0  0  0  0  0
   -2.1897   -0.4352   -0.2678 C   0  0  0  0  0  0  0  0  0  0  0  0
    3.7631    0.2250   -1.8471 H   0  0  0  0  0  0  0  0  0  0  0  0
    2.5787    1.3915   -1.2264 H   0  0  0  0  0  0  0  0  0  0  0  0
    5.3742   -0.9177    0.1362 H   0  0  0  0  0  0  0  0  0  0  0  0
    5.0407    2.4999    2.5225 H   0  0  0  0  0  0  0  0  0  0  0  0
    0.9477    0.6490    0.3143 H   0  0  0  0  0  0  0  0  0  0  0  0
    0.0448   -2.1308   -0.2603 H   0  0  0  0  0  0  0  0  0  0  0  0
    0.5832   -1.7087    1.3494 H   0  0  0  0  0  0  0  0  0  0  0  0
   -0.7975   -0.5704    2.8737 H   0  0  0  0  0  0  0  0  0  0  0  0
   -2.9905    0.3718    3.4770 H   0  0  0  0  0  0  0  0  0  0  0  0
   -4.6806    0.8003    1.7439 H   0  0  0  0  0  0  0  0  0  0  0  0
   -5.3850    0.7896   -0.5966 H   0  0  0  0  0  0  0  0  0  0  0  0
   -4.9284    0.3212   -2.9695 H   0  0  0  0  0  0  0  0  0  0  0  0
   -2.7398   -0.6363   -3.6549 H   0  0  0  0  0  0  0  0  0  0  0  0
   -1.0269   -1.1162   -1.9815 H   0  0  0  0  0  0  0  0  0  0  0  0
  1  2  2  0
  2  3  1  0
  3  4  1  0
  4  5  1  0
  5  6  2  0
  6  7  1  0
  7  8  2  0
  2  9  1  0
  9 10  1  0
 10 11  1  0
 11 12  2  0
 12 13  1  0
 13 14  2  0
 14 15  1  0
 15 16  2  0
 16 17  1  0
 17 18  2  0
 18 19  1  0
 19 20  2  0
  8  4  1  0
 20 11  1  0
 20 15  1  0
  3 21  1  0
  3 22  1  0
  5 23  1  0
  7 24  1  0
  9 25  1  0
 10 26  1  0
 10 27  1  0
 12 28  1  0
 13 29  1  0
 14 30  1  0
 16 31  1  0
 17 32  1  0
 18 33  1  0
 19 34  1  0
M  END
$$$$
