
     RDKit          3D

 30 31  0  0  0  0  0  0  0  0999 V2000
    1.5314   -0.3707   -2.3853 C   0  0  0  0  0  0  0  0  0  0  0  0
    1.2238   -0.0974   -0.9261 C   0  0  0  0  0  0  0  0  0  0  0  0
    0.0162    0.0085   -0.4516 N   0  0  0  0  0  0  0  0  0  0  0  0
   -1.0222   -0.1318   -1.3218 N   0  0  0  0  0  0  0  0  0  0  0  0
   -2.3317   -0.0235   -0.8158 C   0  0  0  0  0  0  0  0  0  0  0  0
   -2.6034   -0.3220    0.4681 N   0  0  0  0  0  0  0  0  0  0  0  0
   -3.8660   -0.2144    0.8878 C   0  0  0  0  0  0  0  0  0  0  0  0
   -4.1034   -0.5063    2.2303 N   0  0  0  0  0  0  0  0  0  0  0  0
   -4.8837    0.1943    0.0713 C   0  0  0  0  0  0  0  0  0  0  0  0
   -4.5061    0.4737   -1.2136 C   0  0  0  0  0  0  0  0  0  0  0  0
   -5.6640    0.9987   -2.3686 Cl  0  0  0  0  0  0  0  0  0  0  0  0
   -3.2591    0.3740   -1.6934 N   0  0  0  0  0  0  0  0  0  0  0  0
    2.3674    0.0429    0.0276 C   0  0  0  0  0  0  0  0  0  0  0  0
    2.2017    0.8424    1.1694 C   0  0  0  0  0  0  0  0  0  0  0  0
    3.2475    0.9905    2.0826 C   0  0  0  0  0  0  0  0  0  0  0  0
    4.4505    0.3328    1.8571 C   0  0  0  0  0  0  0  0  0  0  0  0
    5.4540    0.4726    2.7327 F   0  0  0  0  0  0  0  0  0  0  0  0
    4.6260   -0.4751    0.7388 C   0  0  0  0  0  0  0  0  0  0  0  0
    3.5819   -0.6259   -0.1781 C   0  0  0  0  0  0  0  0  0  0  0  0
    1.2642   -1.4042   -2.6231 H   0  0  0  0  0  0  0  0  0  0  0  0
    2.5846   -0.2081   -2.6243 H   0  0  0  0  0  0  0  0  0  0  0  0
    0.9585    0.3074   -3.0241 H   0  0  0  0  0  0  0  0  0  0  0  0
   -1.0116    0.3758   -2.2021 H   0  0  0  0  0  0  0  0  0  0  0  0
   -4.8240   -1.2089    2.3493 H   0  0  0  0  0  0  0  0  0  0  0  0
   -3.2155   -0.8127    2.6263 H   0  0  0  0  0  0  0  0  0  0  0  0
   -5.9002    0.3017    0.4175 H   0  0  0  0  0  0  0  0  0  0  0  0
    1.2568    1.3514    1.3522 H   0  0  0  0  0  0  0  0  0  0  0  0
    3.1272    1.6087    2.9666 H   0  0  0  0  0  0  0  0  0  0  0  0
    5.5711   -0.9891    0.5932 H   0  0  0  0  0  0  0  0  0  0  0  0
    3.7279   -1.2852   -1.0288 H   0  0  0  0  0  0  0  0  0  0  0  0
  1  2  1  0
  2  3  2  3
  3  4  1  0
  4  5  1  0
  5  6  2  0
  6  7  1  0
  7  8  1  0
  7  9  2  0
  9 10  1  0
 10 11  1  0
 10 12  2  0
  2 13  1  0
 13 14  2  0
 14 15  1  0
 15 16  2  0
 16 17  1  0
 16 18  1  0
 18 19  2  0
 12  5  1  0
 19 13  1  0
  1 20  1  0
  1 21  1  0
  1 22  1  0
  4 23  1  0
  8 24  1  0
  8 25  1  0
  9 26  1  0
 14 27  1  0
 15 28  1  0
 18 29  1  0
 19 30  1  0
M  END
$$$$
