
     RDKit          3D

 52 54  0  0  0  0  0  0  0  0999 V2000
   -4.6030    3.2342   -1.1250 C   0  0  0  0  0  0  0  0  0  0  0  0
   -3.7263    1.9725   -1.2574 C   0  0  0  0  0  0  0  0  0  0  0  0
   -3.4163    1.7742   -2.7532 C   0  0  0  0  0  0  0  0  0  0  0  0
   -2.4185    2.2018   -0.4470 C   0  0  0  0  0  0  0  0  0  0  0  0
   -1.6725    0.9188   -0.2196 C   0  0  0  0  0  0  0  0  0  0  0  0
   -2.3532   -0.2860   -0.2733 C   0  0  0  0  0  0  0  0  0  0  0  0
   -1.2980   -1.6074   -0.0659 S   0  0  0  0  0  0  0  0  0  0  0  0
    0.0587   -0.6084    0.0978 C   0  0  0  0  0  0  0  0  0  0  0  0
    1.3257   -1.1363    0.2865 N   0  0  0  0  0  0  0  0  0  0  0  0
    1.6993   -2.4662    0.3391 C   0  0  0  0  0  0  0  0  0  0  0  0
    0.9819   -3.4543    0.2077 O   0  0  0  0  0  0  0  0  0  0  0  0
    3.2080   -2.6401    0.5406 C   0  0  0  0  0  0  0  0  0  0  0  0
    3.7858   -1.4698    1.1088 O   0  0  0  0  0  0  0  0  0  0  0  0
    5.1209   -1.4930    1.4108 C   0  0  0  0  0  0  0  0  0  0  0  0
    5.9925   -2.5336    1.0730 C   0  0  0  0  0  0  0  0  0  0  0  0
    7.3462   -2.4602    1.4195 C   0  0  0  0  0  0  0  0  0  0  0  0
    7.8337   -1.3478    2.1021 C   0  0  0  0  0  0  0  0  0  0  0  0
    9.4996   -1.2679    2.5229 Cl  0  0  0  0  0  0  0  0  0  0  0  0
    6.9826   -0.3032    2.4450 C   0  0  0  0  0  0  0  0  0  0  0  0
    5.6316   -0.3775    2.0990 C   0  0  0  0  0  0  0  0  0  0  0  0
    4.6066    0.9404    2.5549 Cl  0  0  0  0  0  0  0  0  0  0  0  0
   -0.2605    0.7427    0.0450 C   0  0  0  0  0  0  0  0  0  0  0  0
    0.7636    1.7727    0.2122 C   0  0  0  0  0  0  0  0  0  0  0  0
    0.3470    2.9647    0.7314 N   0  0  0  0  0  0  0  0  0  0  0  0
    1.9531    1.5819   -0.0235 O   0  0  0  0  0  0  0  0  0  0  0  0
   -3.8464   -0.4505   -0.5153 C   0  0  0  0  0  0  0  0  0  0  0  0
   -4.1395   -1.3624   -1.7226 C   0  0  0  0  0  0  0  0  0  0  0  0
   -4.5167   -1.0601    0.7337 C   0  0  0  0  0  0  0  0  0  0  0  0
   -4.5209    0.8601   -0.7009 N   0  0  0  0  0  0  0  0  0  0  0  0
   -4.0726    4.1221   -1.4883 H   0  0  0  0  0  0  0  0  0  0  0  0
   -4.8808    3.4221   -0.0809 H   0  0  0  0  0  0  0  0  0  0  0  0
   -5.5298    3.1424   -1.7040 H   0  0  0  0  0  0  0  0  0  0  0  0
   -4.3258    1.5475   -3.3216 H   0  0  0  0  0  0  0  0  0  0  0  0
   -2.9818    2.6841   -3.1841 H   0  0  0  0  0  0  0  0  0  0  0  0
   -2.6979    0.9685   -2.9297 H   0  0  0  0  0  0  0  0  0  0  0  0
   -1.7836    2.9240   -0.9739 H   0  0  0  0  0  0  0  0  0  0  0  0
   -2.6592    2.6278    0.5361 H   0  0  0  0  0  0  0  0  0  0  0  0
    2.0791   -0.4511    0.3825 H   0  0  0  0  0  0  0  0  0  0  0  0
    3.3496   -3.4923    1.2155 H   0  0  0  0  0  0  0  0  0  0  0  0
    3.6416   -2.8419   -0.4455 H   0  0  0  0  0  0  0  0  0  0  0  0
    5.6566   -3.4158    0.5368 H   0  0  0  0  0  0  0  0  0  0  0  0
    8.0147   -3.2753    1.1512 H   0  0  0  0  0  0  0  0  0  0  0  0
    7.3650    0.5630    2.9777 H   0  0  0  0  0  0  0  0  0  0  0  0
   -0.5131    3.0049    1.2590 H   0  0  0  0  0  0  0  0  0  0  0  0
    1.0904    3.5883    1.0178 H   0  0  0  0  0  0  0  0  0  0  0  0
   -5.2145   -1.4124   -1.9342 H   0  0  0  0  0  0  0  0  0  0  0  0
   -3.6371   -1.0245   -2.6336 H   0  0  0  0  0  0  0  0  0  0  0  0
   -3.8088   -2.3914   -1.5387 H   0  0  0  0  0  0  0  0  0  0  0  0
   -5.6033   -1.1420    0.6065 H   0  0  0  0  0  0  0  0  0  0  0  0
   -4.1422   -2.0687    0.9441 H   0  0  0  0  0  0  0  0  0  0  0  0
   -4.3300   -0.4517    1.6276 H   0  0  0  0  0  0  0  0  0  0  0  0
   -5.3811    0.7334   -1.2314 H   0  0  0  0  0  0  0  0  0  0  0  0
  1  2  1  0
  2  3  1  0
  2  4  1  0
  4  5  1  0
  5  6  2  0
  6  7  1  0
  7  8  1  0
  8  9  1  0
  9 10  1  0
 10 11  2  0
 10 12  1  0
 12 13  1  0
 13 14  1  0
 14 15  2  0
 15 16  1  0
 16 17  2  0
 17 18  1  0
 17 19  1  0
 19 20  2  0
 20 21  1  0
  8 22  2  0
 22 23  1  0
 23 24  1  0
 23 25  2  0
  6 26  1  0
 26 27  1  0
 26 28  1  0
 26 29  1  0
 29  2  1  0
 22  5  1  0
 20 14  1  0
  1 30  1  0
  1 31  1  0
  1 32  1  0
  3 33  1  0
  3 34  1  0
  3 35  1  0
  4 36  1  0
  4 37  1  0
  9 38  1  0
 12 39  1  0
 12 40  1  0
 15 41  1  0
 16 42  1  0
 19 43  1  0
 24 44  1  0
 24 45  1  0
 27 46  1  0
 27 47  1  0
 27 48  1  0
 28 49  1  0
 28 50  1  0
 28 51  1  0
 29 52  1  0
M  END
$$$$
