
     RDKit          3D

 50 53  0  0  0  0  0  0  0  0999 V2000
    1.4949   -2.9383    1.0580 O   0  0  0  0  0  0  0  0  0  0  0  0
    0.8329   -1.9409    0.8453 C   0  0  0  0  0  0  0  0  0  0  0  0
   -0.6632   -1.8431    1.1126 C   0  0  0  0  0  0  0  0  0  0  0  0
   -1.3454   -2.7496    1.5369 O   0  0  0  0  0  0  0  0  0  0  0  0
   -1.0344   -0.5519    0.7790 N   0  0  0  0  0  0  0  0  0  0  0  0
   -2.3025   -0.0020    1.2606 C   0  0  0  0  0  0  0  0  0  0  0  0
   -3.4846   -0.2948    0.3287 C   0  0  0  0  0  0  0  0  0  0  0  0
   -4.0333   -1.7102    0.4048 C   0  0  0  0  0  0  0  0  0  0  0  0
   -5.4573   -1.5112   -0.0504 C   0  0  0  0  0  0  0  0  0  0  0  0
   -5.8043   -0.1846    0.5880 C   0  0  0  0  0  0  0  0  0  0  0  0
   -4.5888    0.5760    0.6531 O   0  0  0  0  0  0  0  0  0  0  0  0
    0.1570    0.2850    0.6458 C   0  0  0  0  0  0  0  0  0  0  0  0
   -0.0356    1.4255   -0.3432 C   0  0  0  0  0  0  0  0  0  0  0  0
   -0.4630    1.1319   -1.6558 C   0  0  0  0  0  0  0  0  0  0  0  0
   -0.6039    2.1350   -2.6199 C   0  0  0  0  0  0  0  0  0  0  0  0
   -0.3218    3.4603   -2.3024 C   0  0  0  0  0  0  0  0  0  0  0  0
    0.0894    3.7894   -1.0138 C   0  0  0  0  0  0  0  0  0  0  0  0
    0.2229    2.7807   -0.0443 C   0  0  0  0  0  0  0  0  0  0  0  0
    0.5972    3.2229    1.2962 N   0  0  0  0  0  4  0  0  0  0  0  0
   -0.1356    2.8729    2.2309 O   0  0  0  0  0  0  0  0  0  0  0  0
    1.5852    3.9627    1.3911 O   0  0  0  0  0  1  0  0  0  0  0  0
    1.3002   -0.6701    0.2161 C   0  0  0  0  0  0  0  0  0  0  0  0
    2.6445   -0.1866    0.6927 C   0  0  0  0  0  0  0  0  0  0  0  0
    2.7301    0.7337    1.5050 O   0  0  0  0  0  0  0  0  0  0  0  0
    3.9008   -0.7846    0.1411 C   0  0  0  0  0  0  0  0  0  0  0  0
    3.9071   -1.8689   -0.7445 C   0  0  0  0  0  0  0  0  0  0  0  0
    5.1171   -2.3691   -1.2362 C   0  0  0  0  0  0  0  0  0  0  0  0
    6.3252   -1.7907   -0.8517 C   0  0  0  0  0  0  0  0  0  0  0  0
    6.3295   -0.7123    0.0289 C   0  0  0  0  0  0  0  0  0  0  0  0
    5.1236   -0.2117    0.5237 C   0  0  0  0  0  0  0  0  0  0  0  0
   -2.5006   -0.3887    2.2678 H   0  0  0  0  0  0  0  0  0  0  0  0
   -2.1981    1.0833    1.3696 H   0  0  0  0  0  0  0  0  0  0  0  0
   -3.2054   -0.0634   -0.7068 H   0  0  0  0  0  0  0  0  0  0  0  0
   -3.4800   -2.4170   -0.2195 H   0  0  0  0  0  0  0  0  0  0  0  0
   -4.0302   -2.0795    1.4371 H   0  0  0  0  0  0  0  0  0  0  0  0
   -6.1317   -2.3181    0.2475 H   0  0  0  0  0  0  0  0  0  0  0  0
   -5.4893   -1.4217   -1.1427 H   0  0  0  0  0  0  0  0  0  0  0  0
   -6.5568    0.3708    0.0213 H   0  0  0  0  0  0  0  0  0  0  0  0
   -6.1673   -0.3201    1.6124 H   0  0  0  0  0  0  0  0  0  0  0  0
    0.3497    0.6489    1.6589 H   0  0  0  0  0  0  0  0  0  0  0  0
   -0.7002    0.1084   -1.9449 H   0  0  0  0  0  0  0  0  0  0  0  0
   -0.9376    1.8795   -3.6239 H   0  0  0  0  0  0  0  0  0  0  0  0
   -0.4324    4.2376   -3.0553 H   0  0  0  0  0  0  0  0  0  0  0  0
    0.2936    4.8304   -0.7677 H   0  0  0  0  0  0  0  0  0  0  0  0
    1.3090   -0.8062   -0.8705 H   0  0  0  0  0  0  0  0  0  0  0  0
    2.9946   -2.3646   -1.0598 H   0  0  0  0  0  0  0  0  0  0  0  0
    5.1171   -3.2194   -1.9147 H   0  0  0  0  0  0  0  0  0  0  0  0
    7.2640   -2.1853   -1.2329 H   0  0  0  0  0  0  0  0  0  0  0  0
    7.2704   -0.2614    0.3351 H   0  0  0  0  0  0  0  0  0  0  0  0
    5.1471    0.6315    1.2127 H   0  0  0  0  0  0  0  0  0  0  0  0
  1  2  2  0
  2  3  1  0
  3  4  2  0
  3  5  1  0
  5  6  1  0
  6  7  1  0
  7  8  1  0
  8  9  1  0
  9 10  1  0
 10 11  1  0
  5 12  1  0
 12 13  1  0
 13 14  2  0
 14 15  1  0
 15 16  2  0
 16 17  1  0
 17 18  2  0
 18 19  1  0
 19 20  2  0
 19 21  1  0
 12 22  1  0
 22 23  1  0
 23 24  2  0
 23 25  1  0
 25 26  2  0
 26 27  1  0
 27 28  2  0
 28 29  1  0
 29 30  2  0
 22  2  1  0
 30 25  1  0
 11  7  1  0
 18 13  1  0
  6 31  1  0
  6 32  1  0
  7 33  1  0
  8 34  1  0
  8 35  1  0
  9 36  1  0
  9 37  1  0
 10 38  1  0
 10 39  1  0
 12 40  1  0
 14 41  1  0
 15 42  1  0
 16 43  1  0
 17 44  1  0
 22 45  1  0
 26 46  1  0
 27 47  1  0
 28 48  1  0
 29 49  1  0
 30 50  1  0
M  CHG  2  19   1  21  -1
M  END
$$$$
