
     RDKit          3D

 39 40  0  0  0  0  0  0  0  0999 V2000
   -5.8012   -0.3298   -2.0491 N   0  0  0  0  0  0  0  0  0  0  0  0
   -4.8757    0.9342   -1.4488 S   0  0  0  0  0  6  0  0  0  0  0  0
   -5.7610    1.7168   -0.6180 O   0  0  0  0  0  0  0  0  0  0  0  0
   -4.1803    1.4980   -2.5821 O   0  0  0  0  0  0  0  0  0  0  0  0
   -3.7127    0.0855   -0.4219 C   0  0  0  0  0  0  0  0  0  0  0  0
   -3.9623   -0.0464    0.9462 C   0  0  0  0  0  0  0  0  0  0  0  0
   -3.0257   -0.6884    1.7582 C   0  0  0  0  0  0  0  0  0  0  0  0
   -1.8376   -1.1932    1.2097 C   0  0  0  0  0  0  0  0  0  0  0  0
   -0.8082   -1.8629    2.0929 C   0  0  0  0  0  0  0  0  0  0  0  0
    0.0469   -0.8566    2.8741 C   0  0  0  0  0  0  0  0  0  0  0  0
    0.8096    0.0405    2.0205 N   0  0  0  0  0  0  0  0  0  0  0  0
    1.9246   -0.4166    1.3462 C   0  0  0  0  0  0  0  0  0  0  0  0
    2.3580   -1.5518    1.4851 O   0  0  0  0  0  0  0  0  0  0  0  0
    2.4439    0.5735    0.5411 N   0  0  0  0  0  0  0  0  0  0  0  0
    3.5241    0.4722   -0.3575 C   0  0  0  0  0  0  0  0  0  0  0  0
    4.1566   -0.7303   -0.6789 C   0  0  0  0  0  0  0  0  0  0  0  0
    5.2199   -0.7535   -1.5888 C   0  0  0  0  0  0  0  0  0  0  0  0
    5.6595    0.4262   -2.1904 C   0  0  0  0  0  0  0  0  0  0  0  0
    6.9752    0.3243   -3.3040 Cl  0  0  0  0  0  0  0  0  0  0  0  0
    5.0285    1.6333   -1.8792 C   0  0  0  0  0  0  0  0  0  0  0  0
    5.5087    3.1376   -2.5828 Cl  0  0  0  0  0  0  0  0  0  0  0  0
    3.9648    1.6529   -0.9680 C   0  0  0  0  0  0  0  0  0  0  0  0
   -1.5967   -1.0434   -0.1647 C   0  0  0  0  0  0  0  0  0  0  0  0
   -2.5289   -0.4016   -0.9808 C   0  0  0  0  0  0  0  0  0  0  0  0
   -6.7666   -0.2353   -1.7326 H   0  0  0  0  0  0  0  0  0  0  0  0
   -5.7031   -0.3828   -3.0633 H   0  0  0  0  0  0  0  0  0  0  0  0
   -4.8775    0.3449    1.3852 H   0  0  0  0  0  0  0  0  0  0  0  0
   -3.2283   -0.7919    2.8225 H   0  0  0  0  0  0  0  0  0  0  0  0
   -0.1712   -2.5155    1.4835 H   0  0  0  0  0  0  0  0  0  0  0  0
   -1.3257   -2.5241    2.7993 H   0  0  0  0  0  0  0  0  0  0  0  0
    0.7471   -1.3977    3.5204 H   0  0  0  0  0  0  0  0  0  0  0  0
   -0.5811   -0.2255    3.5122 H   0  0  0  0  0  0  0  0  0  0  0  0
    0.2674    0.7452    1.5414 H   0  0  0  0  0  0  0  0  0  0  0  0
    2.0836    1.4992    0.7205 H   0  0  0  0  0  0  0  0  0  0  0  0
    3.8448   -1.6741   -0.2401 H   0  0  0  0  0  0  0  0  0  0  0  0
    5.6984   -1.7025   -1.8208 H   0  0  0  0  0  0  0  0  0  0  0  0
    3.4853    2.6013   -0.7385 H   0  0  0  0  0  0  0  0  0  0  0  0
   -0.6765   -1.4252   -0.6051 H   0  0  0  0  0  0  0  0  0  0  0  0
   -2.3270   -0.2874   -2.0436 H   0  0  0  0  0  0  0  0  0  0  0  0
  1  2  1  0
  2  3  2  0
  2  4  2  0
  2  5  1  0
  5  6  2  0
  6  7  1  0
  7  8  2  0
  8  9  1  0
  9 10  1  0
 10 11  1  0
 11 12  1  0
 12 13  2  0
 12 14  1  0
 14 15  1  0
 15 16  2  0
 16 17  1  0
 17 18  2  0
 18 19  1  0
 18 20  1  0
 20 21  1  0
 20 22  2  0
  8 23  1  0
 23 24  2  0
 24  5  1  0
 22 15  1  0
  1 25  1  0
  1 26  1  0
  6 27  1  0
  7 28  1  0
  9 29  1  0
  9 30  1  0
 10 31  1  0
 10 32  1  0
 11 33  1  0
 14 34  1  0
 16 35  1  0
 17 36  1  0
 22 37  1  0
 23 38  1  0
 24 39  1  0
M  END
$$$$
