
     RDKit          3D

 42 44  0  0  0  0  0  0  0  0999 V2000
    1.3515    3.9834    2.0128 C   0  0  0  0  0  0  0  0  0  0  0  0
    0.0627    2.9174    2.7105 S   0  0  0  0  0  0  0  0  0  0  0  0
    0.1370    1.5490    1.5621 C   0  0  0  0  0  0  0  0  0  0  0  0
    1.3792    1.1593    1.2099 N   0  0  0  0  0  0  0  0  0  0  0  0
    1.4756    0.1474    0.3339 C   0  0  0  0  0  0  0  0  0  0  0  0
    2.8257   -0.3056   -0.0579 C   0  0  0  0  0  0  0  0  0  0  0  0
    3.9862    0.2788    0.4868 C   0  0  0  0  0  0  0  0  0  0  0  0
    5.2654   -0.1518    0.1192 C   0  0  0  0  0  0  0  0  0  0  0  0
    5.4151   -1.1823   -0.8032 C   0  0  0  0  0  0  0  0  0  0  0  0
    4.2886   -1.7796   -1.3598 C   0  0  0  0  0  0  0  0  0  0  0  0
    3.0115   -1.3452   -0.9911 C   0  0  0  0  0  0  0  0  0  0  0  0
    0.4182   -0.4732   -0.2216 N   0  0  0  0  0  0  0  0  0  0  0  0
   -0.8199   -0.0874    0.1430 C   0  0  0  0  0  0  0  0  0  0  0  0
   -1.9306   -0.7294   -0.4521 N   0  0  0  0  0  0  0  0  0  0  0  0
   -2.5268   -1.7303    0.4724 C   0  0  0  0  0  0  0  0  0  0  0  0
   -3.7683   -2.3558   -0.1877 C   0  0  0  0  0  0  0  0  0  0  0  0
   -3.4339   -2.9715   -1.4447 O   0  0  0  0  0  0  0  0  0  0  0  0
   -2.8795   -1.9934   -2.3419 C   0  0  0  0  0  0  0  0  0  0  0  0
   -1.6059   -1.3662   -1.7526 C   0  0  0  0  0  0  0  0  0  0  0  0
   -0.9980    0.9407    1.0590 C   0  0  0  0  0  0  0  0  0  0  0  0
   -2.3419    1.4376    1.3742 C   0  0  0  0  0  0  0  0  0  0  0  0
   -3.0173    2.2975    0.3401 C   0  0  0  0  0  0  0  0  0  0  0  0
   -2.8704    1.1463    2.4424 O   0  0  0  0  0  0  0  0  0  0  0  0
    1.1222    4.2267    0.9703 H   0  0  0  0  0  0  0  0  0  0  0  0
    2.3358    3.5141    2.0781 H   0  0  0  0  0  0  0  0  0  0  0  0
    1.3760    4.9152    2.5824 H   0  0  0  0  0  0  0  0  0  0  0  0
    3.9014    1.0831    1.2150 H   0  0  0  0  0  0  0  0  0  0  0  0
    6.1423    0.3181    0.5578 H   0  0  0  0  0  0  0  0  0  0  0  0
    6.4083   -1.5196   -1.0876 H   0  0  0  0  0  0  0  0  0  0  0  0
    4.3996   -2.5856   -2.0806 H   0  0  0  0  0  0  0  0  0  0  0  0
    2.1488   -1.8343   -1.4408 H   0  0  0  0  0  0  0  0  0  0  0  0
   -2.8268   -1.2801    1.4231 H   0  0  0  0  0  0  0  0  0  0  0  0
   -1.7928   -2.5202    0.6832 H   0  0  0  0  0  0  0  0  0  0  0  0
   -4.1878   -3.1306    0.4612 H   0  0  0  0  0  0  0  0  0  0  0  0
   -4.5427   -1.5984   -0.3658 H   0  0  0  0  0  0  0  0  0  0  0  0
   -2.6458   -2.4981   -3.2830 H   0  0  0  0  0  0  0  0  0  0  0  0
   -3.6373   -1.2291   -2.5489 H   0  0  0  0  0  0  0  0  0  0  0  0
   -0.8573   -2.1580   -1.6177 H   0  0  0  0  0  0  0  0  0  0  0  0
   -1.2125   -0.6219   -2.4560 H   0  0  0  0  0  0  0  0  0  0  0  0
   -3.2808    3.2599    0.7884 H   0  0  0  0  0  0  0  0  0  0  0  0
   -2.3572    2.4826   -0.5142 H   0  0  0  0  0  0  0  0  0  0  0  0
   -3.9173    1.7904   -0.0184 H   0  0  0  0  0  0  0  0  0  0  0  0
  1  2  1  0
  2  3  1  0
  3  4  2  0
  4  5  1  0
  5  6  1  0
  6  7  2  0
  7  8  1  0
  8  9  2  0
  9 10  1  0
 10 11  2  0
  5 12  2  0
 12 13  1  0
 13 14  1  0
 14 15  1  0
 15 16  1  0
 16 17  1  0
 17 18  1  0
 18 19  1  0
 13 20  2  0
 20 21  1  0
 21 22  1  0
 21 23  2  0
 20  3  1  0
 11  6  1  0
 19 14  1  0
  1 24  1  0
  1 25  1  0
  1 26  1  0
  7 27  1  0
  8 28  1  0
  9 29  1  0
 10 30  1  0
 11 31  1  0
 15 32  1  0
 15 33  1  0
 16 34  1  0
 16 35  1  0
 18 36  1  0
 18 37  1  0
 19 38  1  0
 19 39  1  0
 22 40  1  0
 22 41  1  0
 22 42  1  0
M  END
$$$$
