
     RDKit          3D

 36 38  0  0  0  0  0  0  0  0999 V2000
   -1.7612    3.1916    3.7634 N   0  0  0  0  0  0  0  0  0  0  0  0
   -1.3421    2.6257    2.8387 C   0  0  0  0  0  0  0  0  0  0  0  0
   -0.8592    1.8974    1.7122 C   0  0  0  0  0  0  0  0  0  0  0  0
    0.2067    2.3621    0.9716 N   0  0  0  0  0  0  0  0  0  0  0  0
    0.3474    1.4443    0.0361 C   0  0  0  0  0  0  0  0  0  0  0  0
    1.3365    1.3780   -1.0744 C   0  0  0  0  0  0  0  0  0  0  0  0
    2.2956    0.3705   -0.7219 O   0  0  0  0  0  0  0  0  0  0  0  0
    3.1631    0.1516   -1.7601 C   0  0  0  0  0  0  0  0  0  0  0  0
    2.8426   -0.8519   -2.6780 C   0  0  0  0  0  0  0  0  0  0  0  0
    3.7186   -1.1342   -3.7272 C   0  0  0  0  0  0  0  0  0  0  0  0
    4.9154   -0.4246   -3.8421 C   0  0  0  0  0  0  0  0  0  0  0  0
    5.9921   -0.7789   -5.1381 Cl  0  0  0  0  0  0  0  0  0  0  0  0
    5.2511    0.5619   -2.9150 C   0  0  0  0  0  0  0  0  0  0  0  0
    4.3757    0.8446   -1.8651 C   0  0  0  0  0  0  0  0  0  0  0  0
    4.8249    2.0514   -0.7172 Cl  0  0  0  0  0  0  0  0  0  0  0  0
   -0.5728    0.4320    0.0919 O   0  0  0  0  0  0  0  0  0  0  0  0
   -1.3507    0.7143    1.1869 C   0  0  0  0  0  0  0  0  0  0  0  0
   -2.3440   -0.1636    1.4779 N   0  0  0  0  0  0  0  0  0  0  0  0
   -2.6703   -1.2723    0.5711 C   0  0  0  0  0  0  0  0  0  0  0  0
   -4.1462   -1.6676    0.7411 C   0  0  0  0  0  0  0  0  0  0  0  0
   -4.4959   -2.0733    2.0711 O   0  0  0  0  0  0  0  0  0  0  0  0
   -3.6545   -1.5043    3.0838 C   0  0  0  0  0  0  0  0  0  0  0  0
   -3.1048   -0.1111    2.7327 C   0  0  0  0  0  0  0  0  0  0  0  0
    1.8261    2.3516   -1.1899 H   0  0  0  0  0  0  0  0  0  0  0  0
    0.8202    1.1188   -2.0063 H   0  0  0  0  0  0  0  0  0  0  0  0
    1.9202   -1.4177   -2.5723 H   0  0  0  0  0  0  0  0  0  0  0  0
    3.4699   -1.9131   -4.4442 H   0  0  0  0  0  0  0  0  0  0  0  0
    6.1920    1.0992   -3.0052 H   0  0  0  0  0  0  0  0  0  0  0  0
   -2.0219   -2.1247    0.8064 H   0  0  0  0  0  0  0  0  0  0  0  0
   -2.5086   -0.9926   -0.4765 H   0  0  0  0  0  0  0  0  0  0  0  0
   -4.7962   -0.8260    0.4729 H   0  0  0  0  0  0  0  0  0  0  0  0
   -4.3943   -2.4946    0.0684 H   0  0  0  0  0  0  0  0  0  0  0  0
   -2.8281   -2.2040    3.2567 H   0  0  0  0  0  0  0  0  0  0  0  0
   -4.2379   -1.4561    4.0089 H   0  0  0  0  0  0  0  0  0  0  0  0
   -2.4752    0.2203    3.5650 H   0  0  0  0  0  0  0  0  0  0  0  0
   -3.9341    0.5954    2.6114 H   0  0  0  0  0  0  0  0  0  0  0  0
  1  2  3  0
  2  3  1  0
  3  4  1  0
  4  5  2  0
  5  6  1  0
  6  7  1  0
  7  8  1  0
  8  9  2  0
  9 10  1  0
 10 11  2  0
 11 12  1  0
 11 13  1  0
 13 14  2  0
 14 15  1  0
  5 16  1  0
 16 17  1  0
 17 18  1  0
 18 19  1  0
 19 20  1  0
 20 21  1  0
 21 22  1  0
 22 23  1  0
 17  3  2  0
 23 18  1  0
 14  8  1  0
  6 24  1  0
  6 25  1  0
  9 26  1  0
 10 27  1  0
 13 28  1  0
 19 29  1  0
 19 30  1  0
 20 31  1  0
 20 32  1  0
 22 33  1  0
 22 34  1  0
 23 35  1  0
 23 36  1  0
M  END
$$$$
