
     RDKit          3D

 85 88  0  0  0  0  0  0  0  0999 V2000
    7.8924    0.1375   -0.6565 C   0  0  0  0  0  0  0  0  0  0  0  0
    6.5786    0.8660   -0.4111 C   0  0  0  0  0  0  0  0  0  0  0  0
    5.5334    0.0113    0.3108 C   0  0  0  0  0  0  0  0  0  0  0  0
    5.0148   -1.1545   -0.5395 C   0  0  0  0  0  0  0  0  0  0  0  0
    3.9758   -2.0185    0.1941 C   0  0  0  0  0  0  0  0  0  0  0  0
    2.6658   -1.3135    0.4783 C   0  0  0  0  0  0  0  0  0  0  0  0
    2.4376   -0.8982    1.7352 C   0  0  0  0  0  0  0  0  0  0  0  0
    1.2441   -0.1640    2.1482 C   0  0  0  0  0  0  0  0  0  0  0  0
    1.0729    0.1629    3.3158 O   0  0  0  0  0  0  0  0  0  0  0  0
    0.3504    0.1369    1.1481 O   0  0  0  0  0  0  0  0  0  0  0  0
    0.4977   -0.3109   -0.1884 C   0  0  0  0  0  0  0  0  0  0  0  0
   -0.5554    0.0269   -1.0724 C   0  0  0  0  0  0  0  0  0  0  0  0
   -1.7721    0.8449   -0.6108 C   0  0  0  0  0  0  0  0  0  0  0  0
   -2.6319    0.0846    0.4347 C   0  0  0  0  0  0  0  0  0  0  0  0
   -3.2223   -1.2197   -0.1312 C   0  0  0  0  0  0  0  0  0  0  0  0
   -3.9754   -1.9642    0.8916 N   0  0  0  0  0  0  0  0  0  0  0  0
   -3.0943   -2.6412    1.8610 C   0  0  0  0  0  0  0  0  0  0  0  0
   -3.0866   -4.1651    1.7370 C   0  0  0  0  0  0  0  0  0  0  0  0
   -4.4895   -4.7512    1.8910 C   0  0  0  0  0  0  0  0  0  0  0  0
   -5.5743   -3.8733    1.2412 C   0  0  0  0  0  0  0  0  0  0  0  0
   -6.4387   -3.1781    2.2995 C   0  0  0  0  0  0  0  0  0  0  0  0
   -4.9497   -2.8676    0.2595 C   0  0  0  0  0  0  0  0  0  0  0  0
   -1.3886    2.2756   -0.2255 C   0  0  0  0  0  0  0  0  0  0  0  0
   -1.3793    2.7407    1.0902 C   0  0  0  0  0  0  0  0  0  0  0  0
   -1.0284    4.0688    1.3839 C   0  0  0  0  0  0  0  0  0  0  0  0
   -0.6637    4.9934    0.3910 C   0  0  0  0  0  0  0  0  0  0  0  0
   -0.3462    6.3225    0.6943 N   0  0  0  0  0  0  0  0  0  0  0  0
    0.0033    6.6662    2.0706 C   0  0  0  0  0  0  0  0  0  0  0  0
    0.2197    7.1800   -0.3434 C   0  0  0  0  0  0  0  0  0  0  0  0
   -0.6839    4.5076   -0.9267 C   0  0  0  0  0  0  0  0  0  0  0  0
   -1.0303    3.1818   -1.2313 C   0  0  0  0  0  0  0  0  0  0  0  0
   -0.4701   -0.4334   -2.3962 C   0  0  0  0  0  0  0  0  0  0  0  0
   -1.5122   -0.1074   -3.2251 O   0  0  0  0  0  0  0  0  0  0  0  0
   -1.4222   -0.4664   -4.5984 C   0  0  0  0  0  0  0  0  0  0  0  0
    0.6238   -1.2128   -2.7875 C   0  0  0  0  0  0  0  0  0  0  0  0
    1.6663   -1.5242   -1.8951 C   0  0  0  0  0  0  0  0  0  0  0  0
    2.7104   -2.3306   -2.2718 O   0  0  0  0  0  0  0  0  0  0  0  0
    3.0272   -2.4083   -3.6575 C   0  0  0  0  0  0  0  0  0  0  0  0
    1.6267   -1.0677   -0.5606 C   0  0  0  0  0  0  0  0  0  0  0  0
    7.7681   -0.6902   -1.3633 H   0  0  0  0  0  0  0  0  0  0  0  0
    8.3016   -0.2621    0.2810 H   0  0  0  0  0  0  0  0  0  0  0  0
    8.6318    0.8297   -1.0805 H   0  0  0  0  0  0  0  0  0  0  0  0
    6.7835    1.7531    0.2007 H   0  0  0  0  0  0  0  0  0  0  0  0
    6.1734    1.2279   -1.3629 H   0  0  0  0  0  0  0  0  0  0  0  0
    4.6975    0.6679    0.5789 H   0  0  0  0  0  0  0  0  0  0  0  0
    5.9549   -0.3713    1.2491 H   0  0  0  0  0  0  0  0  0  0  0  0
    4.6016   -0.7586   -1.4721 H   0  0  0  0  0  0  0  0  0  0  0  0
    5.8498   -1.8068   -0.8147 H   0  0  0  0  0  0  0  0  0  0  0  0
    4.4332   -2.3532    1.1364 H   0  0  0  0  0  0  0  0  0  0  0  0
    3.7994   -2.9541   -0.3459 H   0  0  0  0  0  0  0  0  0  0  0  0
    3.1546   -1.0603    2.5325 H   0  0  0  0  0  0  0  0  0  0  0  0
   -2.4580    0.9840   -1.4577 H   0  0  0  0  0  0  0  0  0  0  0  0
   -3.4669    0.7271    0.7495 H   0  0  0  0  0  0  0  0  0  0  0  0
   -2.0571   -0.1214    1.3421 H   0  0  0  0  0  0  0  0  0  0  0  0
   -2.4504   -1.8642   -0.5676 H   0  0  0  0  0  0  0  0  0  0  0  0
   -3.8978   -0.9359   -0.9497 H   0  0  0  0  0  0  0  0  0  0  0  0
   -3.4468   -2.3727    2.8663 H   0  0  0  0  0  0  0  0  0  0  0  0
   -2.0586   -2.2797    1.8053 H   0  0  0  0  0  0  0  0  0  0  0  0
   -2.6756   -4.4487    0.7600 H   0  0  0  0  0  0  0  0  0  0  0  0
   -2.4213   -4.6006    2.4904 H   0  0  0  0  0  0  0  0  0  0  0  0
   -4.7070   -4.9105    2.9545 H   0  0  0  0  0  0  0  0  0  0  0  0
   -4.4992   -5.7480    1.4323 H   0  0  0  0  0  0  0  0  0  0  0  0
   -6.2432   -4.5294    0.6694 H   0  0  0  0  0  0  0  0  0  0  0  0
   -5.8439   -2.5487    2.9687 H   0  0  0  0  0  0  0  0  0  0  0  0
   -6.9583   -3.9205    2.9155 H   0  0  0  0  0  0  0  0  0  0  0  0
   -7.1991   -2.5479    1.8279 H   0  0  0  0  0  0  0  0  0  0  0  0
   -5.7499   -2.2690   -0.1947 H   0  0  0  0  0  0  0  0  0  0  0  0
   -4.4761   -3.4293   -0.5580 H   0  0  0  0  0  0  0  0  0  0  0  0
   -1.6387    2.0869    1.9189 H   0  0  0  0  0  0  0  0  0  0  0  0
   -1.0579    4.3560    2.4305 H   0  0  0  0  0  0  0  0  0  0  0  0
    0.8547    6.0716    2.4209 H   0  0  0  0  0  0  0  0  0  0  0  0
    0.2814    7.7232    2.1596 H   0  0  0  0  0  0  0  0  0  0  0  0
   -0.8497    6.5226    2.7432 H   0  0  0  0  0  0  0  0  0  0  0  0
    1.1871    6.7945   -0.6849 H   0  0  0  0  0  0  0  0  0  0  0  0
   -0.4607    7.2755   -1.1973 H   0  0  0  0  0  0  0  0  0  0  0  0
    0.3831    8.1984    0.0277 H   0  0  0  0  0  0  0  0  0  0  0  0
   -0.4298    5.1496   -1.7634 H   0  0  0  0  0  0  0  0  0  0  0  0
   -1.0249    2.8680   -2.2727 H   0  0  0  0  0  0  0  0  0  0  0  0
   -1.4313   -1.5534   -4.7211 H   0  0  0  0  0  0  0  0  0  0  0  0
   -0.5396   -0.0196   -5.0668 H   0  0  0  0  0  0  0  0  0  0  0  0
   -2.3049   -0.0698   -5.1066 H   0  0  0  0  0  0  0  0  0  0  0  0
    0.6566   -1.6114   -3.7948 H   0  0  0  0  0  0  0  0  0  0  0  0
    3.0669   -1.4173   -4.1213 H   0  0  0  0  0  0  0  0  0  0  0  0
    2.3212   -3.0608   -4.1789 H   0  0  0  0  0  0  0  0  0  0  0  0
    4.0207   -2.8573   -3.7458 H   0  0  0  0  0  0  0  0  0  0  0  0
  1  2  1  0
  2  3  1  0
  3  4  1  0
  4  5  1  0
  5  6  1  0
  6  7  2  0
  7  8  1  0
  8  9  2  0
  8 10  1  0
 10 11  1  0
 11 12  2  0
 12 13  1  0
 13 14  1  0
 14 15  1  0
 15 16  1  0
 16 17  1  0
 17 18  1  0
 18 19  1  0
 19 20  1  0
 20 21  1  0
 20 22  1  0
 13 23  1  0
 23 24  2  0
 24 25  1  0
 25 26  2  0
 26 27  1  0
 27 28  1  0
 27 29  1  0
 26 30  1  0
 30 31  2  0
 12 32  1  0
 32 33  1  0
 33 34  1  0
 32 35  2  0
 35 36  1  0
 36 37  1  0
 37 38  1  0
 36 39  2  0
 39  6  1  0
 39 11  1  0
 22 16  1  0
 31 23  1  0
  1 40  1  0
  1 41  1  0
  1 42  1  0
  2 43  1  0
  2 44  1  0
  3 45  1  0
  3 46  1  0
  4 47  1  0
  4 48  1  0
  5 49  1  0
  5 50  1  0
  7 51  1  0
 13 52  1  0
 14 53  1  0
 14 54  1  0
 15 55  1  0
 15 56  1  0
 17 57  1  0
 17 58  1  0
 18 59  1  0
 18 60  1  0
 19 61  1  0
 19 62  1  0
 20 63  1  0
 21 64  1  0
 21 65  1  0
 21 66  1  0
 22 67  1  0
 22 68  1  0
 24 69  1  0
 25 70  1  0
 28 71  1  0
 28 72  1  0
 28 73  1  0
 29 74  1  0
 29 75  1  0
 29 76  1  0
 30 77  1  0
 31 78  1  0
 34 79  1  0
 34 80  1  0
 34 81  1  0
 35 82  1  0
 38 83  1  0
 38 84  1  0
 38 85  1  0
M  END
$$$$
