
     RDKit          3D

 49 51  0  0  0  0  0  0  0  0999 V2000
   -3.1289    2.7950    1.9663 C   0  0  0  0  0  0  0  0  0  0  0  0
   -2.0823    1.8131    1.4617 C   0  0  0  0  0  0  0  0  0  0  0  0
   -2.2394    1.3712   -0.0086 C   0  0  0  0  0  0  0  0  0  0  0  0
   -3.6285    1.5228   -0.6364 C   0  0  0  0  0  0  0  0  0  0  0  0
   -1.6330    0.0275   -0.2350 N   0  0  0  0  0  0  0  0  0  0  0  0
   -0.3765   -0.1494   -0.8654 C   0  0  0  0  0  0  0  0  0  0  0  0
   -0.0145   -1.2686   -1.2352 O   0  0  0  0  0  0  0  0  0  0  0  0
    0.4850    1.0754   -1.0861 C   0  0  0  0  0  0  0  0  0  0  0  0
    1.8577    0.7129   -1.3619 N   0  0  0  0  0  0  0  0  0  0  0  0
    2.3743    0.8016   -2.5985 N   0  0  0  0  0  0  0  0  0  0  0  0
    3.6635    0.5388   -2.4442 N   0  0  0  0  0  0  0  0  0  0  0  0
    3.8796    0.3631   -1.0944 C   0  0  0  0  0  0  0  0  0  0  0  0
    5.1925    0.0711   -0.5340 C   0  0  0  0  0  0  0  0  0  0  0  0
    6.2882   -0.1673   -1.3800 C   0  0  0  0  0  0  0  0  0  0  0  0
    7.5495   -0.4421   -0.8456 C   0  0  0  0  0  0  0  0  0  0  0  0
    7.7179   -0.4799    0.5333 C   0  0  0  0  0  0  0  0  0  0  0  0
    8.9277   -0.7421    1.0446 F   0  0  0  0  0  0  0  0  0  0  0  0
    6.6486   -0.2515    1.3897 C   0  0  0  0  0  0  0  0  0  0  0  0
    5.3859    0.0212    0.8573 C   0  0  0  0  0  0  0  0  0  0  0  0
    2.7559    0.5204   -0.3718 N   0  0  0  0  0  0  0  0  0  0  0  0
   -2.3619   -1.2291    0.0844 C   0  0  0  0  0  0  0  0  0  0  0  0
   -3.1730   -1.7741   -1.1051 C   0  0  0  0  0  0  0  0  0  0  0  0
   -3.8368   -3.0457   -0.5961 C   0  0  0  0  0  0  0  0  0  0  0  0
   -4.3545   -2.6481    1.0623 S   0  0  0  0  0  6  0  0  0  0  0  0
   -3.9517   -3.7149    1.9518 O   0  0  0  0  0  0  0  0  0  0  0  0
   -5.7186   -2.1629    1.0103 O   0  0  0  0  0  0  0  0  0  0  0  0
   -3.2789   -1.2451    1.3082 C   0  0  0  0  0  0  0  0  0  0  0  0
   -2.8834    3.1135    2.9855 H   0  0  0  0  0  0  0  0  0  0  0  0
   -3.1806    3.6894    1.3370 H   0  0  0  0  0  0  0  0  0  0  0  0
   -4.1197    2.3300    1.9973 H   0  0  0  0  0  0  0  0  0  0  0  0
   -2.0594    0.9536    2.1411 H   0  0  0  0  0  0  0  0  0  0  0  0
   -1.0969    2.2861    1.5724 H   0  0  0  0  0  0  0  0  0  0  0  0
   -1.6436    2.0929   -0.5802 H   0  0  0  0  0  0  0  0  0  0  0  0
   -3.9474    2.5706   -0.6321 H   0  0  0  0  0  0  0  0  0  0  0  0
   -3.6105    1.2076   -1.6848 H   0  0  0  0  0  0  0  0  0  0  0  0
   -4.3994    0.9451   -0.1247 H   0  0  0  0  0  0  0  0  0  0  0  0
    0.1061    1.6421   -1.9441 H   0  0  0  0  0  0  0  0  0  0  0  0
    0.5034    1.7101   -0.1945 H   0  0  0  0  0  0  0  0  0  0  0  0
    6.1688   -0.1437   -2.4625 H   0  0  0  0  0  0  0  0  0  0  0  0
    8.4001   -0.6229   -1.4974 H   0  0  0  0  0  0  0  0  0  0  0  0
    6.8012   -0.2865    2.4632 H   0  0  0  0  0  0  0  0  0  0  0  0
    4.5524    0.1953    1.5361 H   0  0  0  0  0  0  0  0  0  0  0  0
   -1.5900   -1.9858    0.2971 H   0  0  0  0  0  0  0  0  0  0  0  0
   -3.9440   -1.0600   -1.4166 H   0  0  0  0  0  0  0  0  0  0  0  0
   -2.5471   -1.9801   -1.9819 H   0  0  0  0  0  0  0  0  0  0  0  0
   -4.7051   -3.3361   -1.1909 H   0  0  0  0  0  0  0  0  0  0  0  0
   -3.1233   -3.8733   -0.5395 H   0  0  0  0  0  0  0  0  0  0  0  0
   -3.9171   -0.3691    1.4135 H   0  0  0  0  0  0  0  0  0  0  0  0
   -2.7123   -1.3918    2.2343 H   0  0  0  0  0  0  0  0  0  0  0  0
  1  2  1  0
  2  3  1  0
  3  4  1  0
  3  5  1  0
  5  6  1  0
  6  7  2  0
  6  8  1  0
  8  9  1  0
  9 10  1  0
 10 11  2  0
 11 12  1  0
 12 13  1  0
 13 14  2  0
 14 15  1  0
 15 16  2  0
 16 17  1  0
 16 18  1  0
 18 19  2  0
 12 20  2  0
  5 21  1  0
 21 22  1  0
 22 23  1  0
 23 24  1  0
 24 25  2  0
 24 26  2  0
 24 27  1  0
 20  9  1  0
 27 21  1  0
 19 13  1  0
  1 28  1  0
  1 29  1  0
  1 30  1  0
  2 31  1  0
  2 32  1  0
  3 33  1  0
  4 34  1  0
  4 35  1  0
  4 36  1  0
  8 37  1  0
  8 38  1  0
 14 39  1  0
 15 40  1  0
 18 41  1  0
 19 42  1  0
 21 43  1  0
 22 44  1  0
 22 45  1  0
 23 46  1  0
 23 47  1  0
 27 48  1  0
 27 49  1  0
M  END
$$$$
