
     RDKit          3D

 48 50  0  0  0  0  0  0  0  0999 V2000
   -2.5049    1.6498    0.6838 O   0  0  0  0  0  0  0  0  0  0  0  0
   -2.2555    0.4492    0.5406 C   0  0  0  0  0  0  0  0  0  0  0  0
   -0.8508   -0.0896    0.8291 C   0  0  0  0  0  0  0  0  0  0  0  0
    0.1557    0.8112    0.2219 N   0  0  0  0  0  0  0  0  0  0  0  0
    1.2551    1.2488    1.0230 C   0  0  0  0  0  0  0  0  0  0  0  0
    2.0555    0.3423    1.7172 C   0  0  0  0  0  0  0  0  0  0  0  0
    3.1530    0.8030    2.4455 C   0  0  0  0  0  0  0  0  0  0  0  0
    3.4595    2.1683    2.4770 C   0  0  0  0  0  0  0  0  0  0  0  0
    4.8377    2.6497    3.3971 Cl  0  0  0  0  0  0  0  0  0  0  0  0
    2.6717    3.0900    1.7773 C   0  0  0  0  0  0  0  0  0  0  0  0
    2.9820    4.5621    1.7887 C   0  0  0  0  0  0  0  0  0  0  0  0
    2.0979    5.3063    1.0647 F   0  0  0  0  0  0  0  0  0  0  0  0
    4.2071    4.8492    1.2687 F   0  0  0  0  0  0  0  0  0  0  0  0
    2.9609    5.0977    3.0405 F   0  0  0  0  0  0  0  0  0  0  0  0
    1.5687    2.6100    1.0461 C   0  0  0  0  0  0  0  0  0  0  0  0
    0.4028    0.6664   -1.4576 S   0  0  0  0  0  6  0  0  0  0  0  0
   -0.8367    0.2311   -2.0694 O   0  0  0  0  0  0  0  0  0  0  0  0
    1.1069    1.8345   -1.9445 O   0  0  0  0  0  0  0  0  0  0  0  0
    1.5379   -0.7085   -1.5757 C   0  0  0  0  0  0  0  0  0  0  0  0
    2.9158   -0.4687   -1.5455 C   0  0  0  0  0  0  0  0  0  0  0  0
    3.8024   -1.5397   -1.6530 C   0  0  0  0  0  0  0  0  0  0  0  0
    3.3135   -2.8377   -1.8103 C   0  0  0  0  0  0  0  0  0  0  0  0
    1.9382   -3.0695   -1.8715 C   0  0  0  0  0  0  0  0  0  0  0  0
    1.0447   -2.0039   -1.7624 C   0  0  0  0  0  0  0  0  0  0  0  0
   -3.2354   -0.4481    0.1449 N   0  0  0  0  0  0  0  0  0  0  0  0
   -4.5256    0.0703   -0.3193 C   0  0  0  0  0  0  0  0  0  0  0  0
   -5.0692   -0.7836   -1.4695 C   0  0  0  0  0  0  0  0  0  0  0  0
   -5.2427   -2.1694   -1.1321 O   0  0  0  0  0  0  0  0  0  0  0  0
   -4.4191   -2.6141   -0.0489 C   0  0  0  0  0  0  0  0  0  0  0  0
   -3.0670   -1.8968    0.0215 C   0  0  0  0  0  0  0  0  0  0  0  0
   -0.6970   -1.1055    0.4635 H   0  0  0  0  0  0  0  0  0  0  0  0
   -0.7514   -0.1211    1.9205 H   0  0  0  0  0  0  0  0  0  0  0  0
    1.8484   -0.7239    1.6906 H   0  0  0  0  0  0  0  0  0  0  0  0
    3.7735    0.0896    2.9842 H   0  0  0  0  0  0  0  0  0  0  0  0
    0.9420    3.3058    0.4854 H   0  0  0  0  0  0  0  0  0  0  0  0
    3.3032    0.5428   -1.4413 H   0  0  0  0  0  0  0  0  0  0  0  0
    4.8753   -1.3623   -1.6270 H   0  0  0  0  0  0  0  0  0  0  0  0
    4.0083   -3.6695   -1.9044 H   0  0  0  0  0  0  0  0  0  0  0  0
    1.5660   -4.0806   -2.0204 H   0  0  0  0  0  0  0  0  0  0  0  0
   -0.0234   -2.1896   -1.8398 H   0  0  0  0  0  0  0  0  0  0  0  0
   -5.2066    0.0294    0.5386 H   0  0  0  0  0  0  0  0  0  0  0  0
   -4.4349    1.1140   -0.6362 H   0  0  0  0  0  0  0  0  0  0  0  0
   -6.0396   -0.4016   -1.8012 H   0  0  0  0  0  0  0  0  0  0  0  0
   -4.3875   -0.7401   -2.3269 H   0  0  0  0  0  0  0  0  0  0  0  0
   -4.9804   -2.4630    0.8806 H   0  0  0  0  0  0  0  0  0  0  0  0
   -4.2693   -3.6917   -0.1674 H   0  0  0  0  0  0  0  0  0  0  0  0
   -2.4882   -2.2705    0.8714 H   0  0  0  0  0  0  0  0  0  0  0  0
   -2.4984   -2.0725   -0.8984 H   0  0  0  0  0  0  0  0  0  0  0  0
  1  2  2  0
  2  3  1  0
  3  4  1  0
  4  5  1  0
  5  6  2  0
  6  7  1  0
  7  8  2  0
  8  9  1  0
  8 10  1  0
 10 11  1  0
 11 12  1  0
 11 13  1  0
 11 14  1  0
 10 15  2  0
  4 16  1  0
 16 17  2  0
 16 18  2  0
 16 19  1  0
 19 20  2  0
 20 21  1  0
 21 22  2  0
 22 23  1  0
 23 24  2  0
  2 25  1  0
 25 26  1  0
 26 27  1  0
 27 28  1  0
 28 29  1  0
 29 30  1  0
 15  5  1  0
 24 19  1  0
 30 25  1  0
  3 31  1  0
  3 32  1  0
  6 33  1  0
  7 34  1  0
 15 35  1  0
 20 36  1  0
 21 37  1  0
 22 38  1  0
 23 39  1  0
 24 40  1  0
 26 41  1  0
 26 42  1  0
 27 43  1  0
 27 44  1  0
 29 45  1  0
 29 46  1  0
 30 47  1  0
 30 48  1  0
M  END
$$$$
