
     RDKit          3D

 39 39  0  0  0  0  0  0  0  0999 V2000
   -1.9606   -2.9136   -2.9652 C   0  0  0  0  0  0  0  0  0  0  0  0
   -1.4296   -1.8233   -2.2113 O   0  0  0  0  0  0  0  0  0  0  0  0
   -2.0078   -1.6604   -0.9845 C   0  0  0  0  0  0  0  0  0  0  0  0
   -2.9516   -2.3251   -0.5717 O   0  0  0  0  0  0  0  0  0  0  0  0
   -1.3983   -0.4703   -0.2191 C   0  0  0  0  0  0  0  0  0  0  0  0
   -2.3752    0.7135   -0.2114 C   0  0  0  0  0  0  0  0  0  0  0  0
   -3.5850    0.4695    0.6913 C   0  0  0  0  0  0  0  0  0  0  0  0
   -4.6145    1.9725    0.7576 S   0  0  0  0  0  0  0  0  0  0  0  0
   -5.9174    1.3562    1.8512 C   0  0  0  0  0  0  0  0  0  0  0  0
   -0.1293   -0.0368   -0.8184 N   0  0  0  0  0  0  0  0  0  0  0  0
    1.0274   -0.6953   -0.4878 C   0  0  0  0  0  0  0  0  0  0  0  0
    1.0991   -1.5760    0.3572 O   0  0  0  0  0  0  0  0  0  0  0  0
    2.0800   -0.2450   -1.2357 N   0  0  0  0  0  0  0  0  0  0  0  0
    3.4237   -0.7093   -0.9508 C   0  0  0  0  0  0  0  0  0  0  0  0
    4.0899    0.1429    0.1048 C   0  0  0  0  0  0  0  0  0  0  0  0
    4.0592   -0.2391    1.4442 C   0  0  0  0  0  0  0  0  0  0  0  0
    4.6506    0.5894    2.3932 C   0  0  0  0  0  0  0  0  0  0  0  0
    5.2467    1.7758    1.9844 C   0  0  0  0  0  0  0  0  0  0  0  0
    5.2211    2.0902    0.6363 C   0  0  0  0  0  0  0  0  0  0  0  0
    4.6531    1.3090   -0.3090 N   0  0  0  0  0  0  0  0  0  0  0  0
   -1.8353   -3.8552   -2.4215 H   0  0  0  0  0  0  0  0  0  0  0  0
   -3.0149   -2.7373   -3.2000 H   0  0  0  0  0  0  0  0  0  0  0  0
   -1.4031   -2.9795   -3.9035 H   0  0  0  0  0  0  0  0  0  0  0  0
   -1.1917   -0.8075    0.8035 H   0  0  0  0  0  0  0  0  0  0  0  0
   -2.7078    0.9252   -1.2367 H   0  0  0  0  0  0  0  0  0  0  0  0
   -1.8387    1.6064    0.1383 H   0  0  0  0  0  0  0  0  0  0  0  0
   -3.2584    0.2207    1.7061 H   0  0  0  0  0  0  0  0  0  0  0  0
   -4.2031   -0.3460    0.3080 H   0  0  0  0  0  0  0  0  0  0  0  0
   -6.4227    0.5002    1.3966 H   0  0  0  0  0  0  0  0  0  0  0  0
   -5.4973    1.0660    2.8177 H   0  0  0  0  0  0  0  0  0  0  0  0
   -6.6537    2.1474    2.0155 H   0  0  0  0  0  0  0  0  0  0  0  0
   -0.1747    0.1941   -1.8023 H   0  0  0  0  0  0  0  0  0  0  0  0
    2.0263    0.7296   -1.4973 H   0  0  0  0  0  0  0  0  0  0  0  0
    3.9924   -0.6334   -1.8841 H   0  0  0  0  0  0  0  0  0  0  0  0
    3.4103   -1.7642   -0.6547 H   0  0  0  0  0  0  0  0  0  0  0  0
    3.5694   -1.1606    1.7468 H   0  0  0  0  0  0  0  0  0  0  0  0
    4.6383    0.3126    3.4435 H   0  0  0  0  0  0  0  0  0  0  0  0
    5.7143    2.4426    2.6998 H   0  0  0  0  0  0  0  0  0  0  0  0
    5.6691    3.0091    0.2691 H   0  0  0  0  0  0  0  0  0  0  0  0
  1  2  1  0
  2  3  1  0
  3  4  2  0
  3  5  1  0
  5  6  1  0
  6  7  1  0
  7  8  1  0
  8  9  1  0
  5 10  1  0
 10 11  1  0
 11 12  2  0
 11 13  1  0
 13 14  1  0
 14 15  1  0
 15 16  2  0
 16 17  1  0
 17 18  2  0
 18 19  1  0
 19 20  2  0
 20 15  1  0
  1 21  1  0
  1 22  1  0
  1 23  1  0
  5 24  1  0
  6 25  1  0
  6 26  1  0
  7 27  1  0
  7 28  1  0
  9 29  1  0
  9 30  1  0
  9 31  1  0
 10 32  1  0
 13 33  1  0
 14 34  1  0
 14 35  1  0
 16 36  1  0
 17 37  1  0
 18 38  1  0
 19 39  1  0
M  END
$$$$
