
     RDKit          3D

 38 41  0  0  0  0  0  0  0  0999 V2000
    6.3198    1.1683   -1.1552 C   0  0  0  0  0  0  0  0  0  0  0  0
    5.1936    0.6832   -1.9203 N   0  0  0  0  0  0  0  0  0  0  0  0
    4.0228    0.4603   -1.2821 C   0  0  0  0  0  0  0  0  0  0  0  0
    3.7025    0.9342   -0.0961 N   0  0  0  0  0  0  0  0  0  0  0  0
    2.4477    0.5103    0.2213 C   0  0  0  0  0  0  0  0  0  0  0  0
    1.8350    0.8428    1.4021 N   0  0  0  0  0  0  0  0  0  0  0  0
    0.5736    0.3907    1.7054 C   0  0  0  0  0  0  0  0  0  0  0  0
    0.0351    0.6421    2.7786 O   0  0  0  0  0  0  0  0  0  0  0  0
   -0.1254   -0.4495    0.6685 C   0  0  0  0  0  0  0  0  0  0  0  0
    0.4982   -0.7912   -0.4717 C   0  0  0  0  0  0  0  0  0  0  0  0
    1.7981   -0.2878   -0.6899 C   0  0  0  0  0  0  0  0  0  0  0  0
    2.8101   -0.5242   -2.0347 S   0  0  0  0  0  0  0  0  0  0  0  0
   -0.0803   -1.5715   -1.4799 O   0  0  0  0  0  0  0  0  0  0  0  0
   -1.2790   -2.1644   -1.2554 C   0  0  0  0  0  0  0  0  0  0  0  0
   -1.8960   -2.6699   -2.2720 N   0  0  0  0  0  0  0  0  0  0  0  0
   -1.8088   -2.2313    0.1578 C   0  0  0  0  0  0  0  0  0  0  0  0
   -1.2172   -3.4096    0.8128 C   0  0  0  0  0  0  0  0  0  0  0  0
   -0.7553   -4.3300    1.3466 N   0  0  0  0  0  0  0  0  0  0  0  0
   -1.5090   -0.9510    0.9603 C   0  0  0  0  0  0  0  0  0  0  0  0
   -2.5716    0.1240    0.7357 C   0  0  0  0  0  0  0  0  0  0  0  0
   -2.8403    0.6695   -0.5310 C   0  0  0  0  0  0  0  0  0  0  0  0
   -3.8287    1.6437   -0.6918 C   0  0  0  0  0  0  0  0  0  0  0  0
   -4.5566    2.0923    0.4068 C   0  0  0  0  0  0  0  0  0  0  0  0
   -4.2934    1.5726    1.6706 C   0  0  0  0  0  0  0  0  0  0  0  0
   -3.3075    0.5981    1.8350 C   0  0  0  0  0  0  0  0  0  0  0  0
    6.6404    0.4270   -0.4156 H   0  0  0  0  0  0  0  0  0  0  0  0
    6.0834    2.1078   -0.6440 H   0  0  0  0  0  0  0  0  0  0  0  0
    7.1617    1.3606   -1.8277 H   0  0  0  0  0  0  0  0  0  0  0  0
    5.4234    0.0538   -2.6815 H   0  0  0  0  0  0  0  0  0  0  0  0
    2.3392    1.4146    2.0643 H   0  0  0  0  0  0  0  0  0  0  0  0
   -2.7816   -3.1133   -2.0082 H   0  0  0  0  0  0  0  0  0  0  0  0
   -2.8950   -2.3866    0.1085 H   0  0  0  0  0  0  0  0  0  0  0  0
   -1.5468   -1.2280    2.0245 H   0  0  0  0  0  0  0  0  0  0  0  0
   -2.2865    0.3643   -1.4157 H   0  0  0  0  0  0  0  0  0  0  0  0
   -4.0257    2.0593   -1.6774 H   0  0  0  0  0  0  0  0  0  0  0  0
   -5.3210    2.8546    0.2800 H   0  0  0  0  0  0  0  0  0  0  0  0
   -4.8495    1.9322    2.5330 H   0  0  0  0  0  0  0  0  0  0  0  0
   -3.1093    0.2240    2.8387 H   0  0  0  0  0  0  0  0  0  0  0  0
  1  2  1  0
  2  3  1  0
  3  4  2  0
  4  5  1  0
  5  6  1  0
  6  7  1  0
  7  8  2  0
  7  9  1  0
  9 10  2  0
 10 11  1  0
 11 12  1  0
 10 13  1  0
 13 14  1  0
 14 15  2  3
 14 16  1  0
 16 17  1  0
 17 18  3  0
 16 19  1  0
 19 20  1  0
 20 21  2  0
 21 22  1  0
 22 23  2  0
 23 24  1  0
 24 25  2  0
 12  3  1  0
 25 20  1  0
 11  5  2  0
 19  9  1  0
  1 26  1  0
  1 27  1  0
  1 28  1  0
  2 29  1  0
  6 30  1  0
 15 31  1  0
 16 32  1  0
 19 33  1  0
 21 34  1  0
 22 35  1  0
 23 36  1  0
 24 37  1  0
 25 38  1  0
M  END
$$$$
