
     RDKit          3D

 36 38  0  0  0  0  0  0  0  0999 V2000
   -0.6588    2.1379   -2.1545 C   0  0  0  0  0  0  0  0  0  0  0  0
   -1.0856    0.6874   -2.3366 C   0  0  0  0  0  0  0  0  0  0  0  0
   -1.5241    0.0867   -1.0718 N   0  0  0  0  0  0  0  0  0  0  0  0
   -0.6592   -0.5166   -0.1743 C   0  0  0  0  0  0  0  0  0  0  0  0
    0.7652   -0.6376   -0.5711 C   0  0  0  0  0  0  0  0  0  0  0  0
    1.6928   -0.1057    0.2363 C   0  0  0  0  0  0  0  0  0  0  0  0
    3.0858   -0.1782   -0.0379 C   0  0  0  0  0  0  0  0  0  0  0  0
    3.7980   -0.8215   -1.0514 C   0  0  0  0  0  0  0  0  0  0  0  0
    5.1804   -0.5722   -0.8553 C   0  0  0  0  0  0  0  0  0  0  0  0
    5.2418    0.2103    0.2671 C   0  0  0  0  0  0  0  0  0  0  0  0
    6.3461    0.7858    0.9666 N   0  0  0  0  0  4  0  0  0  0  0  0
    7.4698    0.5497    0.5012 O   0  0  0  0  0  0  0  0  0  0  0  0
    6.1065    1.4701    1.9692 O   0  0  0  0  0  1  0  0  0  0  0  0
    4.0084    0.4580    0.7704 O   0  0  0  0  0  0  0  0  0  0  0  0
   -1.0222   -0.9890    0.9773 N   0  0  0  0  0  0  0  0  0  0  0  0
   -2.3648   -0.8902    1.3520 C   0  0  0  0  0  0  0  0  0  0  0  0
   -2.7624   -1.4129    2.5849 C   0  0  0  0  0  0  0  0  0  0  0  0
   -4.0956   -1.3316    2.9969 C   0  0  0  0  0  0  0  0  0  0  0  0
   -5.0444   -0.7236    2.1755 C   0  0  0  0  0  0  0  0  0  0  0  0
   -4.6587   -0.1979    0.9431 C   0  0  0  0  0  0  0  0  0  0  0  0
   -3.3202   -0.2872    0.5411 C   0  0  0  0  0  0  0  0  0  0  0  0
   -2.8728    0.2597   -0.7499 C   0  0  0  0  0  0  0  0  0  0  0  0
   -3.6832    0.8415   -1.4685 O   0  0  0  0  0  0  0  0  0  0  0  0
   -0.3420    2.5626   -3.1120 H   0  0  0  0  0  0  0  0  0  0  0  0
   -1.4830    2.7459   -1.7677 H   0  0  0  0  0  0  0  0  0  0  0  0
    0.1752    2.2229   -1.4510 H   0  0  0  0  0  0  0  0  0  0  0  0
   -0.2612    0.1124   -2.7671 H   0  0  0  0  0  0  0  0  0  0  0  0
   -1.9032    0.6425   -3.0656 H   0  0  0  0  0  0  0  0  0  0  0  0
    0.9856   -1.1795   -1.4800 H   0  0  0  0  0  0  0  0  0  0  0  0
    1.3968    0.4114    1.1471 H   0  0  0  0  0  0  0  0  0  0  0  0
    3.3663   -1.4147   -1.8466 H   0  0  0  0  0  0  0  0  0  0  0  0
    6.0145   -0.9186   -1.4501 H   0  0  0  0  0  0  0  0  0  0  0  0
   -2.0244   -1.8861    3.2279 H   0  0  0  0  0  0  0  0  0  0  0  0
   -4.3907   -1.7423    3.9594 H   0  0  0  0  0  0  0  0  0  0  0  0
   -6.0816   -0.6582    2.4952 H   0  0  0  0  0  0  0  0  0  0  0  0
   -5.3952    0.2789    0.3003 H   0  0  0  0  0  0  0  0  0  0  0  0
  1  2  1  0
  2  3  1  0
  3  4  1  0
  4  5  1  0
  5  6  2  3
  6  7  1  0
  7  8  2  0
  8  9  1  0
  9 10  2  0
 10 11  1  0
 11 12  2  0
 11 13  1  0
 10 14  1  0
  4 15  2  0
 15 16  1  0
 16 17  2  0
 17 18  1  0
 18 19  2  0
 19 20  1  0
 20 21  2  0
 21 22  1  0
 22 23  2  0
 22  3  1  0
 14  7  1  0
 21 16  1  0
  1 24  1  0
  1 25  1  0
  1 26  1  0
  2 27  1  0
  2 28  1  0
  5 29  1  0
  6 30  1  0
  8 31  1  0
  9 32  1  0
 17 33  1  0
 18 34  1  0
 19 35  1  0
 20 36  1  0
M  CHG  2  11   1  13  -1
M  END
$$$$
