
     RDKit          3D

 57 60  0  0  0  0  0  0  0  0999 V2000
   10.0099   -2.7397   -1.4325 C   0  0  0  0  0  0  0  0  0  0  0  0
    9.2238   -3.4481   -0.4791 O   0  0  0  0  0  0  0  0  0  0  0  0
    7.9021   -3.1045   -0.3958 C   0  0  0  0  0  0  0  0  0  0  0  0
    7.2640   -2.1031   -1.1300 C   0  0  0  0  0  0  0  0  0  0  0  0
    5.9044   -1.8377   -0.9307 C   0  0  0  0  0  0  0  0  0  0  0  0
    5.1581   -2.5776   -0.0025 C   0  0  0  0  0  0  0  0  0  0  0  0
    3.7053   -2.2582    0.2592 C   0  0  0  0  0  0  0  0  0  0  0  0
    2.7990   -2.2734   -0.9577 C   0  0  0  0  0  0  0  0  0  0  0  0
    3.1146   -2.5402   -2.1065 O   0  0  0  0  0  0  0  0  0  0  0  0
    1.5407   -1.8956   -0.5762 O   0  0  0  0  0  0  0  0  0  0  0  0
    0.6127   -1.7431   -1.6560 C   0  0  0  0  0  0  0  0  0  0  0  0
   -0.4516   -0.7366   -1.2454 C   0  0  0  0  0  0  0  0  0  0  0  0
   -0.7736    0.2114   -1.9605 O   0  0  0  0  0  0  0  0  0  0  0  0
   -1.0095   -0.9948   -0.0023 N   0  0  0  0  0  0  0  0  0  0  0  0
   -2.1640   -0.4493    0.4922 C   0  0  0  0  0  0  0  0  0  0  0  0
   -2.8673   -1.1095    1.2488 O   0  0  0  0  0  0  0  0  0  0  0  0
   -2.4301    0.8259    0.0912 N   0  0  0  0  0  0  0  0  0  0  0  0
   -3.6013    1.6138    0.4731 C   0  0  0  0  0  0  0  0  0  0  0  0
   -3.6896    1.7926    2.0112 C   0  0  0  0  0  0  0  0  0  0  0  0
   -4.8967    2.6688    2.3843 C   0  0  0  0  0  0  0  0  0  0  0  0
   -6.1819    2.0010    1.8692 C   0  0  0  0  0  0  0  0  0  0  0  0
   -6.1255    1.8533    0.3384 C   0  0  0  0  0  0  0  0  0  0  0  0
   -5.9661    3.2413   -0.3023 C   0  0  0  0  0  0  0  0  0  0  0  0
   -4.6770    3.9050    0.2011 C   0  0  0  0  0  0  0  0  0  0  0  0
   -4.7432    4.0497    1.7299 C   0  0  0  0  0  0  0  0  0  0  0  0
   -3.4752    3.0224   -0.1649 C   0  0  0  0  0  0  0  0  0  0  0  0
   -4.9151    0.9757   -0.0392 C   0  0  0  0  0  0  0  0  0  0  0  0
    5.8060   -3.5827    0.7320 C   0  0  0  0  0  0  0  0  0  0  0  0
    7.1640   -3.8431    0.5312 C   0  0  0  0  0  0  0  0  0  0  0  0
   10.0014   -1.6593   -1.2392 H   0  0  0  0  0  0  0  0  0  0  0  0
   11.0430   -3.0821   -1.3262 H   0  0  0  0  0  0  0  0  0  0  0  0
    9.6807   -2.9619   -2.4549 H   0  0  0  0  0  0  0  0  0  0  0  0
    7.7939   -1.5064   -1.8667 H   0  0  0  0  0  0  0  0  0  0  0  0
    5.4303   -1.0489   -1.5154 H   0  0  0  0  0  0  0  0  0  0  0  0
    3.6540   -1.2637    0.7191 H   0  0  0  0  0  0  0  0  0  0  0  0
    3.2950   -2.9817    0.9751 H   0  0  0  0  0  0  0  0  0  0  0  0
    0.1267   -2.7050   -1.8508 H   0  0  0  0  0  0  0  0  0  0  0  0
    1.0952   -1.3826   -2.5737 H   0  0  0  0  0  0  0  0  0  0  0  0
   -0.8314   -1.9104    0.3873 H   0  0  0  0  0  0  0  0  0  0  0  0
   -1.9090    1.1298   -0.7300 H   0  0  0  0  0  0  0  0  0  0  0  0
   -2.7644    2.2423    2.4021 H   0  0  0  0  0  0  0  0  0  0  0  0
   -3.7922    0.8210    2.5130 H   0  0  0  0  0  0  0  0  0  0  0  0
   -4.9487    2.7810    3.4734 H   0  0  0  0  0  0  0  0  0  0  0  0
   -7.0548    2.6019    2.1533 H   0  0  0  0  0  0  0  0  0  0  0  0
   -6.3063    1.0112    2.3298 H   0  0  0  0  0  0  0  0  0  0  0  0
   -7.0491    1.3832   -0.0194 H   0  0  0  0  0  0  0  0  0  0  0  0
   -5.9441    3.1438   -1.3947 H   0  0  0  0  0  0  0  0  0  0  0  0
   -6.8288    3.8729   -0.0566 H   0  0  0  0  0  0  0  0  0  0  0  0
   -4.5655    4.8939   -0.2585 H   0  0  0  0  0  0  0  0  0  0  0  0
   -3.8332    4.5388    2.0964 H   0  0  0  0  0  0  0  0  0  0  0  0
   -5.5861    4.6907    2.0092 H   0  0  0  0  0  0  0  0  0  0  0  0
   -2.5465    3.5071    0.1698 H   0  0  0  0  0  0  0  0  0  0  0  0
   -3.3950    2.9398   -1.2589 H   0  0  0  0  0  0  0  0  0  0  0  0
   -5.0507   -0.0315    0.3765 H   0  0  0  0  0  0  0  0  0  0  0  0
   -4.8727    0.8486   -1.1286 H   0  0  0  0  0  0  0  0  0  0  0  0
    5.2672   -4.1687    1.4740 H   0  0  0  0  0  0  0  0  0  0  0  0
    7.6542   -4.6276    1.1057 H   0  0  0  0  0  0  0  0  0  0  0  0
  1  2  1  0
  2  3  1  0
  3  4  2  0
  4  5  1  0
  5  6  2  0
  6  7  1  0
  7  8  1  0
  8  9  2  0
  8 10  1  0
 10 11  1  0
 11 12  1  0
 12 13  2  0
 12 14  1  0
 14 15  1  0
 15 16  2  0
 15 17  1  0
 17 18  1  0
 18 19  1  0
 19 20  1  0
 20 21  1  0
 21 22  1  0
 22 23  1  0
 23 24  1  0
 24 25  1  0
 24 26  1  0
 22 27  1  0
  6 28  1  0
 28 29  2  0
 29  3  1  0
 26 18  1  0
 27 18  1  0
 25 20  1  0
  1 30  1  0
  1 31  1  0
  1 32  1  0
  4 33  1  0
  5 34  1  0
  7 35  1  0
  7 36  1  0
 11 37  1  0
 11 38  1  0
 14 39  1  0
 17 40  1  0
 19 41  1  0
 19 42  1  0
 20 43  1  0
 21 44  1  0
 21 45  1  0
 22 46  1  0
 23 47  1  0
 23 48  1  0
 24 49  1  0
 25 50  1  0
 25 51  1  0
 26 52  1  0
 26 53  1  0
 27 54  1  0
 27 55  1  0
 28 56  1  0
 29 57  1  0
M  END
$$$$
