
     RDKit          3D

 69 73  0  0  0  0  0  0  0  0999 V2000
   -3.2234    4.0368    4.0889 C   0  0  0  0  0  0  0  0  0  0  0  0
   -2.5206    3.5331    2.8638 C   0  0  0  0  0  0  0  0  0  0  0  0
   -1.4488    2.6412    2.9660 C   0  0  0  0  0  0  0  0  0  0  0  0
   -0.8092    2.1673    1.8174 C   0  0  0  0  0  0  0  0  0  0  0  0
   -1.2330    2.5667    0.5440 C   0  0  0  0  0  0  0  0  0  0  0  0
   -0.5597    2.0351   -0.7090 C   0  0  0  0  0  0  0  0  0  0  0  0
   -1.0666    0.7212   -1.0918 N   0  0  0  0  0  0  0  0  0  0  0  0
   -2.3121    0.7275   -1.7359 C   0  0  0  0  0  0  0  0  0  0  0  0
   -2.7797    1.7281   -2.2889 O   0  0  0  0  0  0  0  0  0  0  0  0
   -3.1664   -0.5433   -1.6115 C   0  0  0  0  0  0  0  0  0  0  0  0
   -4.0411   -0.4596   -0.3415 C   0  0  0  0  0  0  0  0  0  0  0  0
   -5.4986   -0.9377   -0.5070 C   0  0  0  0  0  0  0  0  0  0  0  0
   -5.6005   -2.3790   -0.9998 C   0  0  0  0  0  0  0  0  0  0  0  0
   -6.3089   -0.0007   -1.4034 C   0  0  0  0  0  0  0  0  0  0  0  0
   -2.3523   -1.7507   -1.6179 N   0  0  0  0  0  0  0  0  0  0  0  0
   -1.2208   -1.7069   -0.8096 C   0  0  0  0  0  0  0  0  0  0  0  0
   -0.8752   -2.8969   -0.2981 N   0  0  0  0  0  0  0  0  0  0  0  0
    0.2419   -2.9131    0.4225 C   0  0  0  0  0  0  0  0  0  0  0  0
    1.0639   -1.8786    0.6107 N   0  0  0  0  0  0  0  0  0  0  0  0
    0.7327   -0.6990    0.0437 C   0  0  0  0  0  0  0  0  0  0  0  0
    1.7234    0.2971    0.0689 N   0  0  0  0  0  0  0  0  0  0  0  0
    2.4139    0.4304   -1.2456 C   0  0  0  0  0  0  0  0  0  0  0  0
    3.5293   -0.6186   -1.4533 C   0  0  0  0  0  0  0  0  0  0  0  0
    4.5088   -0.5517   -0.3473 N   0  0  0  0  0  0  0  0  0  0  0  0
    5.7236   -1.2394   -0.4984 C   0  0  0  0  0  0  0  0  0  0  0  0
    6.7997   -0.9316    0.3529 C   0  0  0  0  0  0  0  0  0  0  0  0
    8.0367   -1.5743    0.2411 C   0  0  0  0  0  0  0  0  0  0  0  0
    8.2292   -2.5423   -0.7376 C   0  0  0  0  0  0  0  0  0  0  0  0
    7.1864   -2.8591   -1.6021 C   0  0  0  0  0  0  0  0  0  0  0  0
    5.9506   -2.2108   -1.4846 C   0  0  0  0  0  0  0  0  0  0  0  0
    3.8636   -0.7689    0.9746 C   0  0  0  0  0  0  0  0  0  0  0  0
    2.6912    0.2189    1.1939 C   0  0  0  0  0  0  0  0  0  0  0  0
   -0.4987   -0.5215   -0.6142 C   0  0  0  0  0  0  0  0  0  0  0  0
   -2.3191    3.4478    0.4469 C   0  0  0  0  0  0  0  0  0  0  0  0
   -2.9567    3.9256    1.5943 C   0  0  0  0  0  0  0  0  0  0  0  0
   -4.2000    3.5516    4.1891 H   0  0  0  0  0  0  0  0  0  0  0  0
   -3.3660    5.1211    4.0274 H   0  0  0  0  0  0  0  0  0  0  0  0
   -2.6415    3.8352    4.9943 H   0  0  0  0  0  0  0  0  0  0  0  0
   -1.0993    2.3099    3.9410 H   0  0  0  0  0  0  0  0  0  0  0  0
    0.0247    1.4800    1.9276 H   0  0  0  0  0  0  0  0  0  0  0  0
    0.5186    2.0847   -0.5984 H   0  0  0  0  0  0  0  0  0  0  0  0
   -0.7572    2.7358   -1.5321 H   0  0  0  0  0  0  0  0  0  0  0  0
   -3.7855   -0.5735   -2.5144 H   0  0  0  0  0  0  0  0  0  0  0  0
   -4.0750    0.5770    0.0201 H   0  0  0  0  0  0  0  0  0  0  0  0
   -3.5873   -1.0367    0.4749 H   0  0  0  0  0  0  0  0  0  0  0  0
   -5.9570   -0.9013    0.4904 H   0  0  0  0  0  0  0  0  0  0  0  0
   -5.0143   -3.0495   -0.3633 H   0  0  0  0  0  0  0  0  0  0  0  0
   -5.2457   -2.4846   -2.0299 H   0  0  0  0  0  0  0  0  0  0  0  0
   -6.6410   -2.7203   -0.9727 H   0  0  0  0  0  0  0  0  0  0  0  0
   -7.3637   -0.2945   -1.4113 H   0  0  0  0  0  0  0  0  0  0  0  0
   -6.2550    1.0303   -1.0386 H   0  0  0  0  0  0  0  0  0  0  0  0
   -5.9543   -0.0125   -2.4378 H   0  0  0  0  0  0  0  0  0  0  0  0
   -2.8279   -2.6355   -1.4808 H   0  0  0  0  0  0  0  0  0  0  0  0
    0.5215   -3.8550    0.8806 H   0  0  0  0  0  0  0  0  0  0  0  0
    1.7060    0.3853   -2.0820 H   0  0  0  0  0  0  0  0  0  0  0  0
    2.8643    1.4310   -1.2785 H   0  0  0  0  0  0  0  0  0  0  0  0
    3.0895   -1.6214   -1.5156 H   0  0  0  0  0  0  0  0  0  0  0  0
    4.0201   -0.3960   -2.4083 H   0  0  0  0  0  0  0  0  0  0  0  0
    6.6878   -0.1550    1.1056 H   0  0  0  0  0  0  0  0  0  0  0  0
    8.8470   -1.3092    0.9151 H   0  0  0  0  0  0  0  0  0  0  0  0
    9.1884   -3.0433   -0.8309 H   0  0  0  0  0  0  0  0  0  0  0  0
    7.3293   -3.6131   -2.3721 H   0  0  0  0  0  0  0  0  0  0  0  0
    5.1660   -2.5025   -2.1745 H   0  0  0  0  0  0  0  0  0  0  0  0
    3.5202   -1.8072    1.0431 H   0  0  0  0  0  0  0  0  0  0  0  0
    4.5719   -0.6156    1.7967 H   0  0  0  0  0  0  0  0  0  0  0  0
    3.1154    1.2238    1.3137 H   0  0  0  0  0  0  0  0  0  0  0  0
    2.1777   -0.0035    2.1373 H   0  0  0  0  0  0  0  0  0  0  0  0
   -2.6837    3.7628   -0.5290 H   0  0  0  0  0  0  0  0  0  0  0  0
   -3.7975    4.6085    1.4890 H   0  0  0  0  0  0  0  0  0  0  0  0
  1  2  1  0
  2  3  2  0
  3  4  1  0
  4  5  2  0
  5  6  1  0
  6  7  1  0
  7  8  1  0
  8  9  2  0
  8 10  1  0
 10 11  1  0
 11 12  1  0
 12 13  1  0
 12 14  1  0
 10 15  1  0
 15 16  1  0
 16 17  2  0
 17 18  1  0
 18 19  2  0
 19 20  1  0
 20 21  1  0
 21 22  1  0
 22 23  1  0
 23 24  1  0
 24 25  1  0
 25 26  2  0
 26 27  1  0
 27 28  2  0
 28 29  1  0
 29 30  2  0
 24 31  1  0
 31 32  1  0
 20 33  2  0
  5 34  1  0
 34 35  2  0
 35  2  1  0
 33  7  1  0
 33 16  1  0
 32 21  1  0
 30 25  1  0
  1 36  1  0
  1 37  1  0
  1 38  1  0
  3 39  1  0
  4 40  1  0
  6 41  1  0
  6 42  1  0
 10 43  1  0
 11 44  1  0
 11 45  1  0
 12 46  1  0
 13 47  1  0
 13 48  1  0
 13 49  1  0
 14 50  1  0
 14 51  1  0
 14 52  1  0
 15 53  1  0
 18 54  1  0
 22 55  1  0
 22 56  1  0
 23 57  1  0
 23 58  1  0
 26 59  1  0
 27 60  1  0
 28 61  1  0
 29 62  1  0
 30 63  1  0
 31 64  1  0
 31 65  1  0
 32 66  1  0
 32 67  1  0
 34 68  1  0
 35 69  1  0
M  END
$$$$
