
     RDKit          3D

 55 58  0  0  0  0  0  0  0  0999 V2000
   -9.3773   -0.0685    2.8861 C   0  0  0  0  0  0  0  0  0  0  0  0
   -8.7518   -0.8202    1.7176 C   0  0  0  0  0  0  0  0  0  0  0  0
   -8.5359   -2.2868    2.0731 C   0  0  0  0  0  0  0  0  0  0  0  0
   -7.4819   -0.1986    1.4453 O   0  0  0  0  0  0  0  0  0  0  0  0
   -7.0047   -0.3437    0.1840 C   0  0  0  0  0  0  0  0  0  0  0  0
   -7.5514   -0.9481   -0.7249 O   0  0  0  0  0  0  0  0  0  0  0  0
   -5.6937    0.3461    0.0390 C   0  0  0  0  0  0  0  0  0  0  0  0
   -5.0668    1.0043    1.1050 C   0  0  0  0  0  0  0  0  0  0  0  0
   -3.8333    1.6354    0.9154 C   0  0  0  0  0  0  0  0  0  0  0  0
   -3.2134    1.6251   -0.3415 C   0  0  0  0  0  0  0  0  0  0  0  0
   -1.8734    2.2863   -0.5429 C   0  0  0  0  0  0  0  0  0  0  0  0
   -0.8714    1.2726   -0.4369 O   0  0  0  0  0  0  0  0  0  0  0  0
    0.3894    1.7327   -0.6130 C   0  0  0  0  0  0  0  0  0  0  0  0
    0.7001    2.8913   -0.8366 O   0  0  0  0  0  0  0  0  0  0  0  0
    1.3724    0.6206   -0.5021 C   0  0  0  0  0  0  0  0  0  0  0  0
    0.9857   -0.6950   -0.2177 C   0  0  0  0  0  0  0  0  0  0  0  0
    1.9468   -1.7016   -0.1267 C   0  0  0  0  0  0  0  0  0  0  0  0
    3.2973   -1.4005   -0.3195 C   0  0  0  0  0  0  0  0  0  0  0  0
    3.7081   -0.0894   -0.6054 C   0  0  0  0  0  0  0  0  0  0  0  0
    5.1108    0.2488   -0.8130 C   0  0  0  0  0  0  0  0  0  0  0  0
    5.6715    1.4117   -1.0756 N   0  0  0  0  0  0  0  0  0  0  0  0
    7.0273    1.1784   -1.1829 N   0  0  0  0  0  0  0  0  0  0  0  0
    7.2038   -0.1119   -0.9791 C   0  0  0  0  0  0  0  0  0  0  0  0
    8.4284   -0.9019   -0.9790 C   0  0  0  0  0  0  0  0  0  0  0  0
    8.4209   -2.2844   -0.7372 C   0  0  0  0  0  0  0  0  0  0  0  0
    9.6114   -3.0172   -0.7443 C   0  0  0  0  0  0  0  0  0  0  0  0
   10.8237   -2.3775   -0.9931 C   0  0  0  0  0  0  0  0  0  0  0  0
   10.8487   -1.0060   -1.2347 C   0  0  0  0  0  0  0  0  0  0  0  0
    9.6587   -0.2736   -1.2275 C   0  0  0  0  0  0  0  0  0  0  0  0
    6.0251   -0.7702   -0.7356 O   0  0  0  0  0  0  0  0  0  0  0  0
    2.7311    0.9153   -0.6930 C   0  0  0  0  0  0  0  0  0  0  0  0
   -3.8381    0.9557   -1.4028 C   0  0  0  0  0  0  0  0  0  0  0  0
   -5.0702    0.3239   -1.2151 C   0  0  0  0  0  0  0  0  0  0  0  0
  -10.3523   -0.4874    3.1530 H   0  0  0  0  0  0  0  0  0  0  0  0
   -8.7274   -0.0995    3.7677 H   0  0  0  0  0  0  0  0  0  0  0  0
   -9.5097    0.9886    2.6311 H   0  0  0  0  0  0  0  0  0  0  0  0
   -9.4176   -0.7303    0.8506 H   0  0  0  0  0  0  0  0  0  0  0  0
   -7.8438   -2.3872    2.9166 H   0  0  0  0  0  0  0  0  0  0  0  0
   -9.4804   -2.7743    2.3334 H   0  0  0  0  0  0  0  0  0  0  0  0
   -8.0881   -2.8300    1.2346 H   0  0  0  0  0  0  0  0  0  0  0  0
   -5.5239    1.0323    2.0912 H   0  0  0  0  0  0  0  0  0  0  0  0
   -3.3580    2.1342    1.7581 H   0  0  0  0  0  0  0  0  0  0  0  0
   -1.8382    2.7573   -1.5333 H   0  0  0  0  0  0  0  0  0  0  0  0
   -1.7126    3.0587    0.2193 H   0  0  0  0  0  0  0  0  0  0  0  0
   -0.0603   -0.9517   -0.0646 H   0  0  0  0  0  0  0  0  0  0  0  0
    1.6440   -2.7229    0.0942 H   0  0  0  0  0  0  0  0  0  0  0  0
    4.0265   -2.2052   -0.2436 H   0  0  0  0  0  0  0  0  0  0  0  0
    7.4879   -2.8079   -0.5407 H   0  0  0  0  0  0  0  0  0  0  0  0
    9.5915   -4.0878   -0.5558 H   0  0  0  0  0  0  0  0  0  0  0  0
   11.7495   -2.9475   -0.9989 H   0  0  0  0  0  0  0  0  0  0  0  0
   11.7932   -0.5039   -1.4294 H   0  0  0  0  0  0  0  0  0  0  0  0
    9.6972    0.7982   -1.4188 H   0  0  0  0  0  0  0  0  0  0  0  0
    3.0311    1.9406   -0.9145 H   0  0  0  0  0  0  0  0  0  0  0  0
   -3.3660    0.9200   -2.3829 H   0  0  0  0  0  0  0  0  0  0  0  0
   -5.5408   -0.1884   -2.0525 H   0  0  0  0  0  0  0  0  0  0  0  0
  1  2  1  0
  2  3  1  0
  2  4  1  0
  4  5  1  0
  5  6  2  0
  5  7  1  0
  7  8  2  0
  8  9  1  0
  9 10  2  0
 10 11  1  0
 11 12  1  0
 12 13  1  0
 13 14  2  0
 13 15  1  0
 15 16  2  0
 16 17  1  0
 17 18  2  0
 18 19  1  0
 19 20  1  0
 20 21  2  0
 21 22  1  0
 22 23  2  0
 23 24  1  0
 24 25  2  0
 25 26  1  0
 26 27  2  0
 27 28  1  0
 28 29  2  0
 23 30  1  0
 19 31  2  0
 10 32  1  0
 32 33  2  0
 33  7  1  0
 31 15  1  0
 30 20  1  0
 29 24  1  0
  1 34  1  0
  1 35  1  0
  1 36  1  0
  2 37  1  0
  3 38  1  0
  3 39  1  0
  3 40  1  0
  8 41  1  0
  9 42  1  0
 11 43  1  0
 11 44  1  0
 16 45  1  0
 17 46  1  0
 18 47  1  0
 25 48  1  0
 26 49  1  0
 27 50  1  0
 28 51  1  0
 29 52  1  0
 31 53  1  0
 32 54  1  0
 33 55  1  0
M  END
$$$$
