
     RDKit          3D

 53 56  0  0  0  0  0  0  0  0999 V2000
   -2.5950    5.2966   -1.8173 C   0  0  0  0  0  0  0  0  0  0  0  0
   -2.6246    4.9802   -0.4309 O   0  0  0  0  0  0  0  0  0  0  0  0
   -2.1089    3.7676   -0.0664 C   0  0  0  0  0  0  0  0  0  0  0  0
   -2.1122    3.5205    1.3075 C   0  0  0  0  0  0  0  0  0  0  0  0
   -1.6126    2.3195    1.8188 C   0  0  0  0  0  0  0  0  0  0  0  0
   -1.0941    1.3381    0.9601 C   0  0  0  0  0  0  0  0  0  0  0  0
   -0.5846    0.0290    1.5470 C   0  0  0  0  0  0  0  0  0  0  0  0
   -1.6898   -1.0299    1.5563 C   0  0  0  0  0  0  0  0  0  0  0  0
   -1.2220   -1.9020    0.4222 C   0  0  0  0  0  0  0  0  0  0  0  0
   -2.0852   -2.9535   -0.1605 C   0  0  0  0  0  0  0  0  0  0  0  0
   -3.0247   -3.5777    0.6773 C   0  0  0  0  0  0  0  0  0  0  0  0
   -3.8406   -4.6003    0.1925 C   0  0  0  0  0  0  0  0  0  0  0  0
   -3.7246   -5.0121   -1.1294 C   0  0  0  0  0  0  0  0  0  0  0  0
   -2.7989   -4.3941   -1.9705 C   0  0  0  0  0  0  0  0  0  0  0  0
   -1.9705   -3.3498   -1.5070 C   0  0  0  0  0  0  0  0  0  0  0  0
   -1.0193   -2.6929   -2.4818 C   0  0  0  0  0  0  0  0  0  0  0  0
   -1.0756   -1.3326   -2.4678 F   0  0  0  0  0  0  0  0  0  0  0  0
   -1.3058   -3.0293   -3.7796 F   0  0  0  0  0  0  0  0  0  0  0  0
    0.2795   -3.0559   -2.3119 F   0  0  0  0  0  0  0  0  0  0  0  0
   -0.0066   -1.6838    0.0311 N   0  0  0  0  0  0  0  0  0  0  0  0
    0.4593   -0.6186    0.7484 N   0  0  0  0  0  0  0  0  0  0  0  0
    1.7689   -0.1699    0.5883 C   0  0  0  0  0  0  0  0  0  0  0  0
    2.2766    0.9388    1.2870 C   0  0  0  0  0  0  0  0  0  0  0  0
    3.5961    1.3774    1.1147 C   0  0  0  0  0  0  0  0  0  0  0  0
    4.4384    0.6986    0.2360 C   0  0  0  0  0  0  0  0  0  0  0  0
    6.0929    1.2612   -0.0180 S   0  0  0  0  0  6  0  0  0  0  0  0
    6.9763    0.1988    0.9381 N   0  0  0  0  0  0  0  0  0  0  0  0
    6.4860    0.9903   -1.3818 O   0  0  0  0  0  0  0  0  0  0  0  0
    6.2582    2.5608    0.5913 O   0  0  0  0  0  0  0  0  0  0  0  0
    3.9681   -0.3987   -0.4808 C   0  0  0  0  0  0  0  0  0  0  0  0
    2.6484   -0.8247   -0.2952 C   0  0  0  0  0  0  0  0  0  0  0  0
   -1.1082    1.5906   -0.4202 C   0  0  0  0  0  0  0  0  0  0  0  0
   -1.6069    2.7955   -0.9292 C   0  0  0  0  0  0  0  0  0  0  0  0
   -3.0318    6.2927   -1.9428 H   0  0  0  0  0  0  0  0  0  0  0  0
   -1.5667    5.3319   -2.1927 H   0  0  0  0  0  0  0  0  0  0  0  0
   -3.2041    4.5936   -2.3958 H   0  0  0  0  0  0  0  0  0  0  0  0
   -2.5029    4.2744    1.9864 H   0  0  0  0  0  0  0  0  0  0  0  0
   -1.6333    2.1610    2.8953 H   0  0  0  0  0  0  0  0  0  0  0  0
   -0.2314    0.1969    2.5725 H   0  0  0  0  0  0  0  0  0  0  0  0
   -2.6993   -0.6435    1.3921 H   0  0  0  0  0  0  0  0  0  0  0  0
   -1.6546   -1.6110    2.4839 H   0  0  0  0  0  0  0  0  0  0  0  0
   -3.1225   -3.2974    1.7231 H   0  0  0  0  0  0  0  0  0  0  0  0
   -4.5596   -5.0826    0.8511 H   0  0  0  0  0  0  0  0  0  0  0  0
   -4.3545   -5.8134   -1.5095 H   0  0  0  0  0  0  0  0  0  0  0  0
   -2.7285   -4.7295   -3.0054 H   0  0  0  0  0  0  0  0  0  0  0  0
    1.6496    1.4951    1.9775 H   0  0  0  0  0  0  0  0  0  0  0  0
    3.9473    2.2470    1.6651 H   0  0  0  0  0  0  0  0  0  0  0  0
    7.6087   -0.3454    0.3506 H   0  0  0  0  0  0  0  0  0  0  0  0
    7.4457    0.7158    1.6816 H   0  0  0  0  0  0  0  0  0  0  0  0
    4.6083   -0.9256   -1.1835 H   0  0  0  0  0  0  0  0  0  0  0  0
    2.2961   -1.6844   -0.8633 H   0  0  0  0  0  0  0  0  0  0  0  0
   -0.7201    0.8501   -1.1187 H   0  0  0  0  0  0  0  0  0  0  0  0
   -1.5844    2.9370   -2.0044 H   0  0  0  0  0  0  0  0  0  0  0  0
  1  2  1  0
  2  3  1  0
  3  4  2  0
  4  5  1  0
  5  6  2  0
  6  7  1  0
  7  8  1  0
  8  9  1  0
  9 10  1  0
 10 11  2  0
 11 12  1  0
 12 13  2  0
 13 14  1  0
 14 15  2  0
 15 16  1  0
 16 17  1  0
 16 18  1  0
 16 19  1  0
  9 20  2  0
 20 21  1  0
 21 22  1  0
 22 23  2  0
 23 24  1  0
 24 25  2  0
 25 26  1  0
 26 27  1  0
 26 28  2  0
 26 29  2  0
 25 30  1  0
 30 31  2  0
  6 32  1  0
 32 33  2  0
 33  3  1  0
 21  7  1  0
 31 22  1  0
 15 10  1  0
  1 34  1  0
  1 35  1  0
  1 36  1  0
  4 37  1  0
  5 38  1  0
  7 39  1  0
  8 40  1  0
  8 41  1  0
 11 42  1  0
 12 43  1  0
 13 44  1  0
 14 45  1  0
 23 46  1  0
 24 47  1  0
 27 48  1  0
 27 49  1  0
 30 50  1  0
 31 51  1  0
 32 52  1  0
 33 53  1  0
M  END
$$$$
