
     RDKit          3D

 60 64  0  0  0  0  0  0  0  0999 V2000
   -6.0258   -1.9677   -0.5204 C   0  0  0  0  0  0  0  0  0  0  0  0
   -4.9322   -1.1408    0.1416 C   0  0  0  0  0  0  0  0  0  0  0  0
   -3.9254   -1.9983    0.9262 C   0  0  0  0  0  0  0  0  0  0  0  0
   -3.1308   -2.8409    0.0468 N   0  0  0  0  0  0  0  0  0  0  0  0
   -2.0908   -2.2020   -0.6170 C   0  0  0  0  0  0  0  0  0  0  0  0
   -1.8045   -2.7339   -1.8146 N   0  0  0  0  0  0  0  0  0  0  0  0
   -0.7533   -2.2154   -2.4438 C   0  0  0  0  0  0  0  0  0  0  0  0
    0.0568   -1.2704   -1.9624 N   0  0  0  0  0  0  0  0  0  0  0  0
   -0.2288   -0.7666   -0.7391 C   0  0  0  0  0  0  0  0  0  0  0  0
    0.7739    0.0467   -0.1603 N   0  0  0  0  0  0  0  0  0  0  0  0
    1.5434    0.8430   -1.1542 C   0  0  0  0  0  0  0  0  0  0  0  0
    2.9123    0.2261   -1.5165 C   0  0  0  0  0  0  0  0  0  0  0  0
    3.7479    0.0558   -0.3118 N   0  0  0  0  0  0  0  0  0  0  0  0
    5.1300    0.0167   -0.3774 C   0  0  0  0  0  0  0  0  0  0  0  0
    5.9298    0.2353    0.7569 C   0  0  0  0  0  0  0  0  0  0  0  0
    7.3289    0.2014    0.6991 C   0  0  0  0  0  0  0  0  0  0  0  0
    7.9701   -0.0543   -0.5061 C   0  0  0  0  0  0  0  0  0  0  0  0
    7.2101   -0.2728   -1.6480 C   0  0  0  0  0  0  0  0  0  0  0  0
    5.8114   -0.2349   -1.5795 C   0  0  0  0  0  0  0  0  0  0  0  0
    3.0277   -0.1821    0.9527 C   0  0  0  0  0  0  0  0  0  0  0  0
    1.6418   -0.8170    0.6959 C   0  0  0  0  0  0  0  0  0  0  0  0
   -1.3836   -1.1439   -0.0301 C   0  0  0  0  0  0  0  0  0  0  0  0
   -1.8818   -0.5759    1.2040 N   0  0  0  0  0  0  0  0  0  0  0  0
   -1.3926    0.6805    1.7629 C   0  0  0  0  0  0  0  0  0  0  0  0
   -2.1764    1.8773    1.2524 C   0  0  0  0  0  0  0  0  0  0  0  0
   -1.8527    2.4872    0.0331 C   0  0  0  0  0  0  0  0  0  0  0  0
   -2.5932    3.5722   -0.4406 C   0  0  0  0  0  0  0  0  0  0  0  0
   -3.6689    4.0597    0.2981 C   0  0  0  0  0  0  0  0  0  0  0  0
   -4.0054    3.4623    1.5101 C   0  0  0  0  0  0  0  0  0  0  0  0
   -3.2649    2.3779    1.9839 C   0  0  0  0  0  0  0  0  0  0  0  0
   -3.0496   -1.0820    1.7940 C   0  0  0  0  0  0  0  0  0  0  0  0
   -3.4421   -0.7384    2.9139 O   0  0  0  0  0  0  0  0  0  0  0  0
   -5.6179   -2.6312   -1.2885 H   0  0  0  0  0  0  0  0  0  0  0  0
   -6.5580   -2.5770    0.2169 H   0  0  0  0  0  0  0  0  0  0  0  0
   -6.7544   -1.3084   -1.0031 H   0  0  0  0  0  0  0  0  0  0  0  0
   -4.4255   -0.5396   -0.6232 H   0  0  0  0  0  0  0  0  0  0  0  0
   -5.4086   -0.4258    0.8245 H   0  0  0  0  0  0  0  0  0  0  0  0
   -4.4648   -2.6602    1.6149 H   0  0  0  0  0  0  0  0  0  0  0  0
   -3.6227   -3.4537   -0.5942 H   0  0  0  0  0  0  0  0  0  0  0  0
   -0.5209   -2.6108   -3.4262 H   0  0  0  0  0  0  0  0  0  0  0  0
    0.9614    1.0485   -2.0618 H   0  0  0  0  0  0  0  0  0  0  0  0
    1.7213    1.8248   -0.6953 H   0  0  0  0  0  0  0  0  0  0  0  0
    2.7802   -0.7448   -2.0075 H   0  0  0  0  0  0  0  0  0  0  0  0
    3.3966    0.9065   -2.2271 H   0  0  0  0  0  0  0  0  0  0  0  0
    5.4744    0.4650    1.7160 H   0  0  0  0  0  0  0  0  0  0  0  0
    7.9112    0.3815    1.5986 H   0  0  0  0  0  0  0  0  0  0  0  0
    9.0548   -0.0820   -0.5554 H   0  0  0  0  0  0  0  0  0  0  0  0
    7.6988   -0.4780   -2.5966 H   0  0  0  0  0  0  0  0  0  0  0  0
    5.2614   -0.4333   -2.4949 H   0  0  0  0  0  0  0  0  0  0  0  0
    3.5857   -0.8698    1.5994 H   0  0  0  0  0  0  0  0  0  0  0  0
    2.9098    0.7698    1.4841 H   0  0  0  0  0  0  0  0  0  0  0  0
    1.8014   -1.7986    0.2262 H   0  0  0  0  0  0  0  0  0  0  0  0
    1.1488   -0.9913    1.6595 H   0  0  0  0  0  0  0  0  0  0  0  0
   -0.3277    0.8446    1.6270 H   0  0  0  0  0  0  0  0  0  0  0  0
   -1.4995    0.6399    2.8555 H   0  0  0  0  0  0  0  0  0  0  0  0
   -1.0192    2.1227   -0.5590 H   0  0  0  0  0  0  0  0  0  0  0  0
   -2.3298    4.0361   -1.3874 H   0  0  0  0  0  0  0  0  0  0  0  0
   -4.2450    4.9039   -0.0709 H   0  0  0  0  0  0  0  0  0  0  0  0
   -4.8457    3.8380    2.0882 H   0  0  0  0  0  0  0  0  0  0  0  0
   -3.5474    1.9188    2.9303 H   0  0  0  0  0  0  0  0  0  0  0  0
  1  2  1  0
  2  3  1  0
  3  4  1  0
  4  5  1  0
  5  6  2  0
  6  7  1  0
  7  8  2  0
  8  9  1  0
  9 10  1  0
 10 11  1  0
 11 12  1  0
 12 13  1  0
 13 14  1  0
 14 15  2  0
 15 16  1  0
 16 17  2  0
 17 18  1  0
 18 19  2  0
 13 20  1  0
 20 21  1  0
  9 22  2  0
 22 23  1  0
 23 24  1  0
 24 25  1  0
 25 26  2  0
 26 27  1  0
 27 28  2  0
 28 29  1  0
 29 30  2  0
 23 31  1  0
 31 32  2  0
 31  3  1  0
 22  5  1  0
 30 25  1  0
 21 10  1  0
 19 14  1  0
  1 33  1  0
  1 34  1  0
  1 35  1  0
  2 36  1  0
  2 37  1  0
  3 38  1  0
  4 39  1  0
  7 40  1  0
 11 41  1  0
 11 42  1  0
 12 43  1  0
 12 44  1  0
 15 45  1  0
 16 46  1  0
 17 47  1  0
 18 48  1  0
 19 49  1  0
 20 50  1  0
 20 51  1  0
 21 52  1  0
 21 53  1  0
 24 54  1  0
 24 55  1  0
 26 56  1  0
 27 57  1  0
 28 58  1  0
 29 59  1  0
 30 60  1  0
M  END
$$$$
