
     RDKit          3D

 43 44  0  0  0  0  0  0  0  0999 V2000
    5.1793    3.5380    1.1790 C   0  0  0  0  0  0  0  0  0  0  0  0
    4.6893    3.0238   -0.1615 C   0  0  0  0  0  0  0  0  0  0  0  0
    5.0023    1.6302   -0.3014 O   0  0  0  0  0  0  0  0  0  0  0  0
    4.0785    0.7619    0.1969 C   0  0  0  0  0  0  0  0  0  0  0  0
    3.0556    1.0773    0.7952 O   0  0  0  0  0  0  0  0  0  0  0  0
    4.5357   -0.6748   -0.0226 C   0  0  0  0  0  0  0  0  0  0  0  0
    3.4025   -1.5844    0.0822 N   0  0  0  0  0  0  0  0  0  0  0  0
    2.6702   -1.9061   -1.0455 C   0  0  0  0  0  0  0  0  0  0  0  0
    3.0226   -1.6017   -2.1814 O   0  0  0  0  0  0  0  0  0  0  0  0
    1.3882   -2.6652   -0.7600 C   0  0  0  0  0  0  0  0  0  0  0  0
    0.0771   -1.4724   -0.3676 S   0  0  0  0  0  0  0  0  0  0  0  0
   -1.2360   -2.5433   -0.0016 C   0  0  0  0  0  0  0  0  0  0  0  0
   -1.1220   -3.8517    0.0606 N   0  0  0  0  0  0  0  0  0  0  0  0
   -2.3895   -4.3366    0.1910 N   0  0  0  0  0  0  0  0  0  0  0  0
   -3.2760   -3.3551    0.2045 N   0  0  0  0  0  0  0  0  0  0  0  0
   -2.5766   -2.1906    0.1322 N   0  0  0  0  0  0  0  0  0  0  0  0
   -3.2307   -0.9284    0.2535 C   0  0  0  0  0  0  0  0  0  0  0  0
   -2.5383    0.1525    0.8333 C   0  0  0  0  0  0  0  0  0  0  0  0
   -3.1482    1.4029    1.0102 C   0  0  0  0  0  0  0  0  0  0  0  0
   -2.3743    2.5431    1.6051 C   0  0  0  0  0  0  0  0  0  0  0  0
   -4.4656    1.5791    0.5937 C   0  0  0  0  0  0  0  0  0  0  0  0
   -5.1710    0.5166    0.0306 C   0  0  0  0  0  0  0  0  0  0  0  0
   -4.5738   -0.7447   -0.1551 C   0  0  0  0  0  0  0  0  0  0  0  0
   -5.4172   -1.8088   -0.8107 C   0  0  0  0  0  0  0  0  0  0  0  0
    4.9979    4.6123    1.2723 H   0  0  0  0  0  0  0  0  0  0  0  0
    4.6755    3.0255    2.0046 H   0  0  0  0  0  0  0  0  0  0  0  0
    6.2518    3.3493    1.2943 H   0  0  0  0  0  0  0  0  0  0  0  0
    5.2074    3.5507   -0.9696 H   0  0  0  0  0  0  0  0  0  0  0  0
    3.6168    3.2064   -0.2941 H   0  0  0  0  0  0  0  0  0  0  0  0
    5.0052   -0.7717   -1.0058 H   0  0  0  0  0  0  0  0  0  0  0  0
    5.2485   -0.9379    0.7635 H   0  0  0  0  0  0  0  0  0  0  0  0
    2.8859   -1.5433    0.9543 H   0  0  0  0  0  0  0  0  0  0  0  0
    1.1234   -3.2536   -1.6443 H   0  0  0  0  0  0  0  0  0  0  0  0
    1.5527   -3.3519    0.0770 H   0  0  0  0  0  0  0  0  0  0  0  0
   -1.5267    0.0414    1.2149 H   0  0  0  0  0  0  0  0  0  0  0  0
   -1.7513    2.1953    2.4360 H   0  0  0  0  0  0  0  0  0  0  0  0
   -1.7329    2.9972    0.8435 H   0  0  0  0  0  0  0  0  0  0  0  0
   -3.0447    3.3129    2.0016 H   0  0  0  0  0  0  0  0  0  0  0  0
   -4.9578    2.5425    0.7088 H   0  0  0  0  0  0  0  0  0  0  0  0
   -6.2019    0.6855   -0.2777 H   0  0  0  0  0  0  0  0  0  0  0  0
   -4.8648   -2.3054   -1.6148 H   0  0  0  0  0  0  0  0  0  0  0  0
   -6.3106   -1.3774   -1.2766 H   0  0  0  0  0  0  0  0  0  0  0  0
   -5.7564   -2.5396   -0.0705 H   0  0  0  0  0  0  0  0  0  0  0  0
  1  2  1  0
  2  3  1  0
  3  4  1  0
  4  5  2  0
  4  6  1  0
  6  7  1  0
  7  8  1  0
  8  9  2  0
  8 10  1  0
 10 11  1  0
 11 12  1  0
 12 13  2  0
 13 14  1  0
 14 15  2  0
 15 16  1  0
 16 17  1  0
 17 18  2  0
 18 19  1  0
 19 20  1  0
 19 21  2  0
 21 22  1  0
 22 23  2  0
 23 24  1  0
 16 12  1  0
 23 17  1  0
  1 25  1  0
  1 26  1  0
  1 27  1  0
  2 28  1  0
  2 29  1  0
  6 30  1  0
  6 31  1  0
  7 32  1  0
 10 33  1  0
 10 34  1  0
 18 35  1  0
 20 36  1  0
 20 37  1  0
 20 38  1  0
 21 39  1  0
 22 40  1  0
 24 41  1  0
 24 42  1  0
 24 43  1  0
M  END
$$$$
