
     RDKit          3D

 56 60  0  0  0  0  0  0  0  0999 V2000
   -6.8527   -1.2411    1.9262 C   0  0  0  0  0  0  0  0  0  0  0  0
   -5.8545   -1.1535    0.8086 C   0  0  0  0  0  0  0  0  0  0  0  0
   -5.9366   -0.1187   -0.1333 C   0  0  0  0  0  0  0  0  0  0  0  0
   -4.9941   -0.0166   -1.1577 C   0  0  0  0  0  0  0  0  0  0  0  0
   -3.9527   -0.9451   -1.2269 C   0  0  0  0  0  0  0  0  0  0  0  0
   -2.7409   -0.8262   -2.5308 S   0  0  0  0  0  6  0  0  0  0  0  0
   -2.4244   -2.1902   -2.9204 O   0  0  0  0  0  0  0  0  0  0  0  0
   -3.2677    0.0996   -3.5189 O   0  0  0  0  0  0  0  0  0  0  0  0
   -1.4049   -0.1170   -1.7048 C   0  0  0  0  0  0  0  0  0  0  0  0
   -1.3617    1.2144   -1.5318 C   0  0  0  0  0  0  0  0  0  0  0  0
   -0.2996    1.8647   -0.7789 C   0  0  0  0  0  0  0  0  0  0  0  0
   -0.2874    3.3503   -0.6604 C   0  0  0  0  0  0  0  0  0  0  0  0
   -1.1827    4.0121   -1.1900 O   0  0  0  0  0  0  0  0  0  0  0  0
    0.7582    3.8935    0.0638 N   0  0  0  0  0  0  0  0  0  0  0  0
    0.8480    5.2741    0.2084 C   0  0  0  0  0  0  0  0  0  0  0  0
    1.8373    5.8467    0.9051 C   0  0  0  0  0  0  0  0  0  0  0  0
    2.8412    5.0269    1.5287 C   0  0  0  0  0  0  0  0  0  0  0  0
    2.7924    3.6943    1.4166 C   0  0  0  0  0  0  0  0  0  0  0  0
    1.6925    3.0537    0.6407 C   0  0  0  0  0  0  0  0  0  0  0  0
    1.6706    1.7631    0.5501 N   0  0  0  0  0  0  0  0  0  0  0  0
    0.6684    1.1471   -0.1642 C   0  0  0  0  0  0  0  0  0  0  0  0
    0.6369   -0.2647   -0.2790 N   0  0  0  0  0  0  0  0  0  0  0  0
    1.6989   -1.0661    0.3647 C   0  0  0  0  0  0  0  0  0  0  0  0
    2.8981   -1.2326   -0.5737 C   0  0  0  0  0  0  0  0  0  0  0  0
    4.0048   -2.0309    0.0710 C   0  0  0  0  0  0  0  0  0  0  0  0
    5.0265   -1.3866    0.7808 C   0  0  0  0  0  0  0  0  0  0  0  0
    6.0367   -2.1296    1.3934 C   0  0  0  0  0  0  0  0  0  0  0  0
    6.0314   -3.5207    1.3057 C   0  0  0  0  0  0  0  0  0  0  0  0
    5.0155   -4.1706    0.6069 C   0  0  0  0  0  0  0  0  0  0  0  0
    4.0046   -3.4299   -0.0065 C   0  0  0  0  0  0  0  0  0  0  0  0
   -0.3071   -0.9221   -1.0848 C   0  0  0  0  0  0  0  0  0  0  0  0
   -0.2008   -2.2053   -1.2763 N   0  0  0  0  0  0  0  0  0  0  0  0
   -3.8571   -1.9830   -0.2956 C   0  0  0  0  0  0  0  0  0  0  0  0
   -4.8036   -2.0772    0.7255 C   0  0  0  0  0  0  0  0  0  0  0  0
   -7.0030   -2.2810    2.2350 H   0  0  0  0  0  0  0  0  0  0  0  0
   -6.5018   -0.6632    2.7867 H   0  0  0  0  0  0  0  0  0  0  0  0
   -7.8268   -0.8522    1.6114 H   0  0  0  0  0  0  0  0  0  0  0  0
   -6.7421    0.6112   -0.0770 H   0  0  0  0  0  0  0  0  0  0  0  0
   -5.0837    0.7841   -1.8887 H   0  0  0  0  0  0  0  0  0  0  0  0
   -2.1361    1.8587   -1.9451 H   0  0  0  0  0  0  0  0  0  0  0  0
    0.0778    5.8737   -0.2710 H   0  0  0  0  0  0  0  0  0  0  0  0
    1.8997    6.9250    1.0120 H   0  0  0  0  0  0  0  0  0  0  0  0
    3.6335    5.5130    2.0890 H   0  0  0  0  0  0  0  0  0  0  0  0
    3.5275    3.0420    1.8714 H   0  0  0  0  0  0  0  0  0  0  0  0
    1.3091   -2.0463    0.6689 H   0  0  0  0  0  0  0  0  0  0  0  0
    2.0144   -0.5980    1.3065 H   0  0  0  0  0  0  0  0  0  0  0  0
    2.5937   -1.7239   -1.5065 H   0  0  0  0  0  0  0  0  0  0  0  0
    3.2870   -0.2519   -0.8764 H   0  0  0  0  0  0  0  0  0  0  0  0
    5.0403   -0.3019    0.8594 H   0  0  0  0  0  0  0  0  0  0  0  0
    6.8281   -1.6233    1.9394 H   0  0  0  0  0  0  0  0  0  0  0  0
    6.8184   -4.0989    1.7823 H   0  0  0  0  0  0  0  0  0  0  0  0
    5.0092   -5.2553    0.5393 H   0  0  0  0  0  0  0  0  0  0  0  0
    3.2144   -3.9488   -0.5462 H   0  0  0  0  0  0  0  0  0  0  0  0
   -0.9145   -2.5761   -1.9266 H   0  0  0  0  0  0  0  0  0  0  0  0
   -3.0576   -2.7189   -0.3524 H   0  0  0  0  0  0  0  0  0  0  0  0
   -4.7210   -2.8812    1.4547 H   0  0  0  0  0  0  0  0  0  0  0  0
  1  2  1  0
  2  3  2  0
  3  4  1  0
  4  5  2  0
  5  6  1  0
  6  7  2  0
  6  8  2  0
  6  9  1  0
  9 10  2  0
 10 11  1  0
 11 12  1  0
 12 13  2  0
 12 14  1  0
 14 15  1  0
 15 16  2  0
 16 17  1  0
 17 18  2  0
 18 19  1  0
 19 20  2  0
 20 21  1  0
 21 22  1  0
 22 23  1  0
 23 24  1  0
 24 25  1  0
 25 26  2  0
 26 27  1  0
 27 28  2  0
 28 29  1  0
 29 30  2  0
 22 31  1  0
 31 32  2  3
  5 33  1  0
 33 34  2  0
 34  2  1  0
 31  9  1  0
 21 11  2  0
 30 25  1  0
 19 14  1  0
  1 35  1  0
  1 36  1  0
  1 37  1  0
  3 38  1  0
  4 39  1  0
 10 40  1  0
 15 41  1  0
 16 42  1  0
 17 43  1  0
 18 44  1  0
 23 45  1  0
 23 46  1  0
 24 47  1  0
 24 48  1  0
 26 49  1  0
 27 50  1  0
 28 51  1  0
 29 52  1  0
 30 53  1  0
 32 54  1  0
 33 55  1  0
 34 56  1  0
M  END
$$$$
