
     RDKit          3D

 47 48  0  0  0  0  0  0  0  0999 V2000
   -4.4783    3.4795    0.4313 C   0  0  0  0  0  0  0  0  0  0  0  0
   -3.1805    4.4011    1.2916 S   0  0  0  0  0  0  0  0  0  0  0  0
   -1.7069    3.5777    0.5969 C   0  0  0  0  0  0  0  0  0  0  0  0
   -1.4556    2.2248    1.2607 C   0  0  0  0  0  0  0  0  0  0  0  0
   -0.2666    1.4977    0.6245 C   0  0  0  0  0  0  0  0  0  0  0  0
    0.9847    2.2358    0.9190 N   0  0  0  0  0  0  0  0  0  0  0  0
    2.1636    2.3040   -0.2767 S   0  0  0  0  0  6  0  0  0  0  0  0
    1.5358    2.8713   -1.4512 O   0  0  0  0  0  0  0  0  0  0  0  0
    3.3412    2.8915    0.3193 O   0  0  0  0  0  0  0  0  0  0  0  0
    2.5188    0.5985   -0.6172 C   0  0  0  0  0  0  0  0  0  0  0  0
    2.0985    0.0233   -1.8193 C   0  0  0  0  0  0  0  0  0  0  0  0
    2.3627   -1.3248   -2.0659 C   0  0  0  0  0  0  0  0  0  0  0  0
    3.0616   -2.0946   -1.1262 C   0  0  0  0  0  0  0  0  0  0  0  0
    3.3109   -3.5532   -1.3761 C   0  0  0  0  0  0  0  0  0  0  0  0
    3.4830   -1.5014    0.0718 C   0  0  0  0  0  0  0  0  0  0  0  0
    3.2248   -0.1533    0.3240 C   0  0  0  0  0  0  0  0  0  0  0  0
   -0.1295    0.1014    1.2564 C   0  0  0  0  0  0  0  0  0  0  0  0
    0.5714   -0.0537    2.2627 O   0  0  0  0  0  0  0  0  0  0  0  0
   -0.8156   -0.9428    0.6828 N   0  0  0  0  0  0  0  0  0  0  0  0
   -0.7291   -2.2829    1.2379 C   0  0  0  0  0  0  0  0  0  0  0  0
   -1.8055   -3.0654    0.5025 C   0  0  0  0  0  0  0  0  0  0  0  0
   -1.8258   -2.4015   -0.8676 C   0  0  0  0  0  0  0  0  0  0  0  0
   -1.6013   -0.9307   -0.5422 C   0  0  0  0  0  0  0  0  0  0  0  0
   -5.4502    3.9097    0.6878 H   0  0  0  0  0  0  0  0  0  0  0  0
   -4.3445    3.5507   -0.6512 H   0  0  0  0  0  0  0  0  0  0  0  0
   -4.4777    2.4304    0.7355 H   0  0  0  0  0  0  0  0  0  0  0  0
   -0.8561    4.2454    0.7671 H   0  0  0  0  0  0  0  0  0  0  0  0
   -1.8292    3.4747   -0.4864 H   0  0  0  0  0  0  0  0  0  0  0  0
   -1.2753    2.3653    2.3352 H   0  0  0  0  0  0  0  0  0  0  0  0
   -2.3448    1.5896    1.1745 H   0  0  0  0  0  0  0  0  0  0  0  0
   -0.4185    1.4283   -0.4546 H   0  0  0  0  0  0  0  0  0  0  0  0
    1.3782    2.0282    1.8435 H   0  0  0  0  0  0  0  0  0  0  0  0
    1.5678    0.6113   -2.5645 H   0  0  0  0  0  0  0  0  0  0  0  0
    2.0271   -1.7716   -2.9996 H   0  0  0  0  0  0  0  0  0  0  0  0
    4.2337   -3.8817   -0.8865 H   0  0  0  0  0  0  0  0  0  0  0  0
    3.4229   -3.7525   -2.4470 H   0  0  0  0  0  0  0  0  0  0  0  0
    2.4752   -4.1456   -0.9909 H   0  0  0  0  0  0  0  0  0  0  0  0
    4.0162   -2.0872    0.8182 H   0  0  0  0  0  0  0  0  0  0  0  0
    3.5591    0.2947    1.2573 H   0  0  0  0  0  0  0  0  0  0  0  0
   -0.8768   -2.2702    2.3219 H   0  0  0  0  0  0  0  0  0  0  0  0
    0.2707   -2.6744    1.0187 H   0  0  0  0  0  0  0  0  0  0  0  0
   -2.7753   -2.9268    0.9954 H   0  0  0  0  0  0  0  0  0  0  0  0
   -1.5920   -4.1367    0.4569 H   0  0  0  0  0  0  0  0  0  0  0  0
   -2.7560   -2.5748   -1.4154 H   0  0  0  0  0  0  0  0  0  0  0  0
   -0.9943   -2.7814   -1.4740 H   0  0  0  0  0  0  0  0  0  0  0  0
   -2.5449   -0.4166   -0.3326 H   0  0  0  0  0  0  0  0  0  0  0  0
   -1.0778   -0.4113   -1.3484 H   0  0  0  0  0  0  0  0  0  0  0  0
  1  2  1  0
  2  3  1  0
  3  4  1  0
  4  5  1  0
  5  6  1  0
  6  7  1  0
  7  8  2  0
  7  9  2  0
  7 10  1  0
 10 11  2  0
 11 12  1  0
 12 13  2  0
 13 14  1  0
 13 15  1  0
 15 16  2  0
  5 17  1  0
 17 18  2  0
 17 19  1  0
 19 20  1  0
 20 21  1  0
 21 22  1  0
 22 23  1  0
 16 10  1  0
 23 19  1  0
  1 24  1  0
  1 25  1  0
  1 26  1  0
  3 27  1  0
  3 28  1  0
  4 29  1  0
  4 30  1  0
  5 31  1  0
  6 32  1  0
 11 33  1  0
 12 34  1  0
 14 35  1  0
 14 36  1  0
 14 37  1  0
 15 38  1  0
 16 39  1  0
 20 40  1  0
 20 41  1  0
 21 42  1  0
 21 43  1  0
 22 44  1  0
 22 45  1  0
 23 46  1  0
 23 47  1  0
M  END
$$$$
