
     RDKit          3D

 45 46  0  0  0  0  0  0  0  0999 V2000
   -1.7617    2.8499    3.8291 C   0  0  0  0  0  0  0  0  0  0  0  0
   -1.6695    1.9791    2.7010 O   0  0  0  0  0  0  0  0  0  0  0  0
   -2.7327    1.1325    2.5631 C   0  0  0  0  0  0  0  0  0  0  0  0
   -3.7215    1.1448    3.2884 O   0  0  0  0  0  0  0  0  0  0  0  0
   -2.5806    0.2078    1.3442 C   0  0  0  0  0  0  0  0  0  0  0  0
   -3.6970    0.5587    0.3475 C   0  0  0  0  0  0  0  0  0  0  0  0
   -3.7905   -0.4093   -0.8093 C   0  0  0  0  0  0  0  0  0  0  0  0
   -4.3554   -1.6790   -0.6251 C   0  0  0  0  0  0  0  0  0  0  0  0
   -4.4301   -2.5809   -1.6874 C   0  0  0  0  0  0  0  0  0  0  0  0
   -3.9414   -2.2235   -2.9423 C   0  0  0  0  0  0  0  0  0  0  0  0
   -3.3783   -0.9638   -3.1365 C   0  0  0  0  0  0  0  0  0  0  0  0
   -3.3028   -0.0597   -2.0757 C   0  0  0  0  0  0  0  0  0  0  0  0
   -1.2555    0.3191    0.7198 N   0  0  0  0  0  0  0  0  0  0  0  0
   -0.1995   -0.4424    1.1720 C   0  0  0  0  0  0  0  0  0  0  0  0
   -0.3140   -1.3045    2.0356 O   0  0  0  0  0  0  0  0  0  0  0  0
    1.1153   -0.0742    0.5227 C   0  0  0  0  0  0  0  0  0  0  0  0
    2.1979   -1.0915    0.8580 C   0  0  0  0  0  0  0  0  0  0  0  0
    3.4982   -0.7007    0.3500 N   0  0  0  0  0  0  0  0  0  0  0  0
    3.8375   -0.7804   -0.9841 C   0  0  0  0  0  0  0  0  0  0  0  0
    3.0334   -1.1126   -1.8505 O   0  0  0  0  0  0  0  0  0  0  0  0
    5.2156   -0.4319   -1.2613 C   0  0  0  0  0  0  0  0  0  0  0  0
    5.9223   -0.3931   -2.4485 C   0  0  0  0  0  0  0  0  0  0  0  0
    7.2384    0.0168   -2.1280 C   0  0  0  0  0  0  0  0  0  0  0  0
    7.2593    0.2045   -0.7665 C   0  0  0  0  0  0  0  0  0  0  0  0
    6.0414   -0.0629   -0.2285 O   0  0  0  0  0  0  0  0  0  0  0  0
   -2.6174    3.5238    3.7222 H   0  0  0  0  0  0  0  0  0  0  0  0
   -1.8339    2.2729    4.7564 H   0  0  0  0  0  0  0  0  0  0  0  0
   -0.8496    3.4519    3.8671 H   0  0  0  0  0  0  0  0  0  0  0  0
   -2.6976   -0.8176    1.7152 H   0  0  0  0  0  0  0  0  0  0  0  0
   -3.5496    1.5776   -0.0361 H   0  0  0  0  0  0  0  0  0  0  0  0
   -4.6716    0.5780    0.8534 H   0  0  0  0  0  0  0  0  0  0  0  0
   -4.7392   -1.9765    0.3485 H   0  0  0  0  0  0  0  0  0  0  0  0
   -4.8665   -3.5644   -1.5345 H   0  0  0  0  0  0  0  0  0  0  0  0
   -3.9966   -2.9279   -3.7680 H   0  0  0  0  0  0  0  0  0  0  0  0
   -2.9941   -0.6870   -4.1148 H   0  0  0  0  0  0  0  0  0  0  0  0
   -2.8568    0.9167   -2.2471 H   0  0  0  0  0  0  0  0  0  0  0  0
   -1.0364    1.1832    0.2413 H   0  0  0  0  0  0  0  0  0  0  0  0
    0.9704   -0.0090   -0.5615 H   0  0  0  0  0  0  0  0  0  0  0  0
    1.4070    0.9198    0.8822 H   0  0  0  0  0  0  0  0  0  0  0  0
    2.3049   -1.2066    1.9421 H   0  0  0  0  0  0  0  0  0  0  0  0
    1.9429   -2.0726    0.4405 H   0  0  0  0  0  0  0  0  0  0  0  0
    4.2413   -0.4652    0.9989 H   0  0  0  0  0  0  0  0  0  0  0  0
    5.5212   -0.6368   -3.4233 H   0  0  0  0  0  0  0  0  0  0  0  0
    8.0694    0.1569   -2.8052 H   0  0  0  0  0  0  0  0  0  0  0  0
    8.0237    0.5105   -0.0653 H   0  0  0  0  0  0  0  0  0  0  0  0
  1  2  1  0
  2  3  1  0
  3  4  2  0
  3  5  1  0
  5  6  1  0
  6  7  1  0
  7  8  2  0
  8  9  1  0
  9 10  2  0
 10 11  1  0
 11 12  2  0
  5 13  1  0
 13 14  1  0
 14 15  2  0
 14 16  1  0
 16 17  1  0
 17 18  1  0
 18 19  1  0
 19 20  2  0
 19 21  1  0
 21 22  2  0
 22 23  1  0
 23 24  2  0
 24 25  1  0
 12  7  1  0
 25 21  1  0
  1 26  1  0
  1 27  1  0
  1 28  1  0
  5 29  1  0
  6 30  1  0
  6 31  1  0
  8 32  1  0
  9 33  1  0
 10 34  1  0
 11 35  1  0
 12 36  1  0
 13 37  1  0
 16 38  1  0
 16 39  1  0
 17 40  1  0
 17 41  1  0
 18 42  1  0
 22 43  1  0
 23 44  1  0
 24 45  1  0
M  END
$$$$
