
     RDKit          3D

 45 47  0  0  0  0  0  0  0  0999 V2000
    5.8360    0.3812    0.5372 C   0  0  0  0  0  0  0  0  0  0  0  0
    4.4560    0.5004    0.2119 O   0  0  0  0  0  0  0  0  0  0  0  0
    4.1457    0.7298   -1.1106 C   0  0  0  0  0  0  0  0  0  0  0  0
    5.0822    0.9345   -2.1283 C   0  0  0  0  0  0  0  0  0  0  0  0
    4.6535    1.1643   -3.4370 C   0  0  0  0  0  0  0  0  0  0  0  0
    3.2929    1.1915   -3.7327 C   0  0  0  0  0  0  0  0  0  0  0  0
    2.3500    0.9913   -2.7224 C   0  0  0  0  0  0  0  0  0  0  0  0
    2.7654    0.7595   -1.4102 C   0  0  0  0  0  0  0  0  0  0  0  0
    1.8783    0.5469   -0.3314 N   0  0  0  0  0  0  0  0  0  0  0  0
    0.4943    0.5063   -0.3490 C   0  0  0  0  0  0  0  0  0  0  0  0
   -0.2166    0.6677   -1.3389 O   0  0  0  0  0  0  0  0  0  0  0  0
   -0.0964    0.2828    1.0534 C   0  0  0  0  0  0  0  0  0  0  0  0
   -0.1285    1.5826    1.8630 C   0  0  0  0  0  0  0  0  0  0  0  0
   -1.5553    2.0802    1.6966 C   0  0  0  0  0  0  0  0  0  0  0  0
   -2.3645    0.7921    1.7067 C   0  0  0  0  0  0  0  0  0  0  0  0
   -1.5140   -0.1443    0.9574 N   0  0  0  0  0  0  0  0  0  0  0  0
   -1.8090   -1.7915    1.0346 S   0  0  0  0  0  6  0  0  0  0  0  0
   -2.0063   -2.1266    2.4296 O   0  0  0  0  0  0  0  0  0  0  0  0
   -0.8149   -2.4760    0.2378 O   0  0  0  0  0  0  0  0  0  0  0  0
   -3.3621   -1.9342    0.1900 C   0  0  0  0  0  0  0  0  0  0  0  0
   -4.4809   -2.4469    0.8523 C   0  0  0  0  0  0  0  0  0  0  0  0
   -5.6951   -2.5428    0.1687 C   0  0  0  0  0  0  0  0  0  0  0  0
   -5.7794   -2.1281   -1.1625 C   0  0  0  0  0  0  0  0  0  0  0  0
   -7.2796   -2.2458   -1.9969 Cl  0  0  0  0  0  0  0  0  0  0  0  0
   -4.6595   -1.6186   -1.8215 C   0  0  0  0  0  0  0  0  0  0  0  0
   -3.4422   -1.5220   -1.1452 C   0  0  0  0  0  0  0  0  0  0  0  0
    6.3661    1.3214    0.3534 H   0  0  0  0  0  0  0  0  0  0  0  0
    5.9084    0.1635    1.6075 H   0  0  0  0  0  0  0  0  0  0  0  0
    6.3000   -0.4504   -0.0033 H   0  0  0  0  0  0  0  0  0  0  0  0
    6.1500    0.9226   -1.9397 H   0  0  0  0  0  0  0  0  0  0  0  0
    5.3823    1.3218   -4.2284 H   0  0  0  0  0  0  0  0  0  0  0  0
    2.9597    1.3685   -4.7525 H   0  0  0  0  0  0  0  0  0  0  0  0
    1.2997    1.0192   -2.9929 H   0  0  0  0  0  0  0  0  0  0  0  0
    2.3586    0.3692    0.5458 H   0  0  0  0  0  0  0  0  0  0  0  0
    0.5082   -0.4634    1.5823 H   0  0  0  0  0  0  0  0  0  0  0  0
    0.6043    2.3268    1.5376 H   0  0  0  0  0  0  0  0  0  0  0  0
    0.0599    1.3629    2.9210 H   0  0  0  0  0  0  0  0  0  0  0  0
   -1.8576    2.7706    2.4888 H   0  0  0  0  0  0  0  0  0  0  0  0
   -1.6655    2.5910    0.7323 H   0  0  0  0  0  0  0  0  0  0  0  0
   -2.5141    0.4486    2.7354 H   0  0  0  0  0  0  0  0  0  0  0  0
   -3.3336    0.9309    1.2208 H   0  0  0  0  0  0  0  0  0  0  0  0
   -4.4162   -2.7736    1.8877 H   0  0  0  0  0  0  0  0  0  0  0  0
   -6.5695   -2.9426    0.6758 H   0  0  0  0  0  0  0  0  0  0  0  0
   -4.7262   -1.2972   -2.8577 H   0  0  0  0  0  0  0  0  0  0  0  0
   -2.5646   -1.1237   -1.6537 H   0  0  0  0  0  0  0  0  0  0  0  0
  1  2  1  0
  2  3  1  0
  3  4  2  0
  4  5  1  0
  5  6  2  0
  6  7  1  0
  7  8  2  0
  8  9  1  0
  9 10  1  0
 10 11  2  0
 10 12  1  0
 12 13  1  0
 13 14  1  0
 14 15  1  0
 15 16  1  0
 16 17  1  0
 17 18  2  0
 17 19  2  0
 17 20  1  0
 20 21  2  0
 21 22  1  0
 22 23  2  0
 23 24  1  0
 23 25  1  0
 25 26  2  0
  8  3  1  0
 16 12  1  0
 26 20  1  0
  1 27  1  0
  1 28  1  0
  1 29  1  0
  4 30  1  0
  5 31  1  0
  6 32  1  0
  7 33  1  0
  9 34  1  0
 12 35  1  0
 13 36  1  0
 13 37  1  0
 14 38  1  0
 14 39  1  0
 15 40  1  0
 15 41  1  0
 21 42  1  0
 22 43  1  0
 25 44  1  0
 26 45  1  0
M  END
$$$$
