
     RDKit          3D

 46 49  0  0  0  0  0  0  0  0999 V2000
    6.2564   -1.4944    1.9565 N   0  0  0  0  0  0  0  0  0  0  0  0
    5.9010   -1.4269    0.3103 S   0  0  0  0  0  6  0  0  0  0  0  0
    6.6474   -0.3298   -0.2578 O   0  0  0  0  0  0  0  0  0  0  0  0
    6.0238   -2.7839   -0.1701 O   0  0  0  0  0  0  0  0  0  0  0  0
    4.1851   -0.9898    0.3413 C   0  0  0  0  0  0  0  0  0  0  0  0
    3.2148   -1.9874    0.3660 C   0  0  0  0  0  0  0  0  0  0  0  0
    1.8637   -1.6260    0.3943 C   0  0  0  0  0  0  0  0  0  0  0  0
    1.4478   -0.2804    0.3877 C   0  0  0  0  0  0  0  0  0  0  0  0
    0.0928    0.0436    0.4171 N   0  0  0  0  0  0  0  0  0  0  0  0
   -0.8583   -0.9329    0.5024 N   0  0  0  0  0  0  0  0  0  0  0  0
   -2.0034   -0.3417    0.6619 C   0  0  0  0  0  0  0  0  0  0  0  0
   -3.2848   -1.0778    0.7716 C   0  0  0  0  0  0  0  0  0  0  0  0
   -3.2847   -2.4682    0.5958 C   0  0  0  0  0  0  0  0  0  0  0  0
   -4.4757   -3.1926    0.6920 C   0  0  0  0  0  0  0  0  0  0  0  0
   -5.6678   -2.5260    0.9654 C   0  0  0  0  0  0  0  0  0  0  0  0
   -7.2807   -3.5021    1.0968 Br  0  0  0  0  0  0  0  0  0  0  0  0
   -5.6796   -1.1432    1.1438 C   0  0  0  0  0  0  0  0  0  0  0  0
   -4.4878   -0.4172    1.0476 C   0  0  0  0  0  0  0  0  0  0  0  0
   -1.9371    1.1573    0.7633 C   0  0  0  0  0  0  0  0  0  0  0  0
   -0.4739    1.3938    0.3830 C   0  0  0  0  0  0  0  0  0  0  0  0
   -0.3680    2.0624   -0.9819 C   0  0  0  0  0  0  0  0  0  0  0  0
   -0.4495    1.3295   -2.1802 C   0  0  0  0  0  0  0  0  0  0  0  0
   -0.3729    1.9739   -3.4160 C   0  0  0  0  0  0  0  0  0  0  0  0
   -0.2226    3.3533   -3.4609 C   0  0  0  0  0  0  0  0  0  0  0  0
   -0.1522    3.9726   -4.6464 F   0  0  0  0  0  0  0  0  0  0  0  0
   -0.1478    4.1021   -2.2931 C   0  0  0  0  0  0  0  0  0  0  0  0
   -0.2230    3.4601   -1.0555 C   0  0  0  0  0  0  0  0  0  0  0  0
    2.4569    0.6968    0.3468 C   0  0  0  0  0  0  0  0  0  0  0  0
    3.8145    0.3534    0.3205 C   0  0  0  0  0  0  0  0  0  0  0  0
    6.5041   -2.4556    2.1975 H   0  0  0  0  0  0  0  0  0  0  0  0
    5.5014   -1.1389    2.5420 H   0  0  0  0  0  0  0  0  0  0  0  0
    3.4878   -3.0399    0.3585 H   0  0  0  0  0  0  0  0  0  0  0  0
    1.1155   -2.4167    0.4131 H   0  0  0  0  0  0  0  0  0  0  0  0
   -2.3575   -2.9968    0.3813 H   0  0  0  0  0  0  0  0  0  0  0  0
   -4.4596   -4.2705    0.5521 H   0  0  0  0  0  0  0  0  0  0  0  0
   -6.6096   -0.6223    1.3585 H   0  0  0  0  0  0  0  0  0  0  0  0
   -4.5259    0.6579    1.1953 H   0  0  0  0  0  0  0  0  0  0  0  0
   -2.6573    1.6482    0.1033 H   0  0  0  0  0  0  0  0  0  0  0  0
   -2.1238    1.4465    1.8031 H   0  0  0  0  0  0  0  0  0  0  0  0
    0.0007    2.0255    1.1446 H   0  0  0  0  0  0  0  0  0  0  0  0
   -0.5621    0.2461   -2.1566 H   0  0  0  0  0  0  0  0  0  0  0  0
   -0.4266    1.4069   -4.3398 H   0  0  0  0  0  0  0  0  0  0  0  0
   -0.0311    5.1794   -2.3552 H   0  0  0  0  0  0  0  0  0  0  0  0
   -0.1650    4.0594   -0.1492 H   0  0  0  0  0  0  0  0  0  0  0  0
    2.2076    1.7537    0.3244 H   0  0  0  0  0  0  0  0  0  0  0  0
    4.5671    1.1384    0.2776 H   0  0  0  0  0  0  0  0  0  0  0  0
  1  2  1  0
  2  3  2  0
  2  4  2  0
  2  5  1  0
  5  6  2  0
  6  7  1  0
  7  8  2  0
  8  9  1  0
  9 10  1  0
 10 11  2  0
 11 12  1  0
 12 13  2  0
 13 14  1  0
 14 15  2  0
 15 16  1  0
 15 17  1  0
 17 18  2  0
 11 19  1  0
 19 20  1  0
 20 21  1  0
 21 22  2  0
 22 23  1  0
 23 24  2  0
 24 25  1  0
 24 26  1  0
 26 27  2  0
  8 28  1  0
 28 29  2  0
 29  5  1  0
 20  9  1  0
 27 21  1  0
 18 12  1  0
  1 30  1  0
  1 31  1  0
  6 32  1  0
  7 33  1  0
 13 34  1  0
 14 35  1  0
 17 36  1  0
 18 37  1  0
 19 38  1  0
 19 39  1  0
 20 40  1  0
 22 41  1  0
 23 42  1  0
 26 43  1  0
 27 44  1  0
 28 45  1  0
 29 46  1  0
M  END
$$$$
