
     RDKit          3D

 57 60  0  0  0  0  0  0  0  0999 V2000
    4.7536    1.5536   -1.7334 C   0  0  0  0  0  0  0  0  0  0  0  0
    4.9450    2.1356   -0.3373 C   0  0  0  0  0  0  0  0  0  0  0  0
    3.6553    2.6666    0.3164 C   0  0  0  0  0  0  0  0  0  0  0  0
    3.0072    3.7914   -0.4874 C   0  0  0  0  0  0  0  0  0  0  0  0
    2.6989    1.5916    0.5423 N   0  0  0  0  0  0  0  0  0  0  0  0
    2.7650    0.7735    1.6543 C   0  0  0  0  0  0  0  0  0  0  0  0
    3.5853    0.8928    2.5528 O   0  0  0  0  0  0  0  0  0  0  0  0
    1.7576   -0.3145    1.7122 C   0  0  0  0  0  0  0  0  0  0  0  0
    1.4242   -1.0491    0.5722 C   0  0  0  0  0  0  0  0  0  0  0  0
    0.5061   -2.0960    0.6648 C   0  0  0  0  0  0  0  0  0  0  0  0
   -0.0923   -2.4164    1.8910 C   0  0  0  0  0  0  0  0  0  0  0  0
   -1.1025   -3.5361    1.9797 C   0  0  0  0  0  0  0  0  0  0  0  0
   -2.8083   -2.9420    1.7721 S   0  0  0  0  0  0  0  0  0  0  0  0
   -2.8421   -2.6739    0.0612 C   0  0  0  0  0  0  0  0  0  0  0  0
   -2.3421   -3.4987   -0.8282 N   0  0  0  0  0  0  0  0  0  0  0  0
   -2.6281   -2.9360   -2.0455 C   0  0  0  0  0  0  0  0  0  0  0  0
   -2.3338   -3.4039   -3.3262 C   0  0  0  0  0  0  0  0  0  0  0  0
   -2.7714   -2.6052   -4.3713 C   0  0  0  0  0  0  0  0  0  0  0  0
   -3.4531   -1.4402   -4.2257 N   0  0  0  0  0  0  0  0  0  0  0  0
   -3.7427   -0.9938   -2.9826 C   0  0  0  0  0  0  0  0  0  0  0  0
   -3.3160   -1.7362   -1.8895 C   0  0  0  0  0  0  0  0  0  0  0  0
   -3.3993   -1.5634   -0.5231 N   0  0  0  0  0  0  0  0  0  0  0  0
   -3.9626   -0.3965    0.1432 C   0  0  0  0  0  0  0  0  0  0  0  0
   -2.8957    0.6161    0.5024 C   0  0  0  0  0  0  0  0  0  0  0  0
   -2.2680    1.3906   -0.4858 C   0  0  0  0  0  0  0  0  0  0  0  0
   -1.2805    2.3207   -0.1432 C   0  0  0  0  0  0  0  0  0  0  0  0
   -0.9217    2.4815    1.1875 C   0  0  0  0  0  0  0  0  0  0  0  0
    0.0172    3.3702    1.5138 F   0  0  0  0  0  0  0  0  0  0  0  0
   -1.5241    1.7253    2.1826 C   0  0  0  0  0  0  0  0  0  0  0  0
   -2.5083    0.7922    1.8419 C   0  0  0  0  0  0  0  0  0  0  0  0
    0.2470   -1.6706    3.0288 C   0  0  0  0  0  0  0  0  0  0  0  0
    1.1782   -0.6334    2.9421 C   0  0  0  0  0  0  0  0  0  0  0  0
    4.3644    2.3018   -2.4280 H   0  0  0  0  0  0  0  0  0  0  0  0
    4.0665    0.7027   -1.7209 H   0  0  0  0  0  0  0  0  0  0  0  0
    5.7138    1.2063   -2.1293 H   0  0  0  0  0  0  0  0  0  0  0  0
    5.3869    1.3631    0.3045 H   0  0  0  0  0  0  0  0  0  0  0  0
    5.6806    2.9489   -0.3958 H   0  0  0  0  0  0  0  0  0  0  0  0
    3.9311    3.0736    1.2978 H   0  0  0  0  0  0  0  0  0  0  0  0
    3.7285    4.5864   -0.6962 H   0  0  0  0  0  0  0  0  0  0  0  0
    2.5973    3.4335   -1.4388 H   0  0  0  0  0  0  0  0  0  0  0  0
    2.1740    4.2277    0.0705 H   0  0  0  0  0  0  0  0  0  0  0  0
    1.9230    1.4917   -0.0954 H   0  0  0  0  0  0  0  0  0  0  0  0
    1.8959   -0.8405   -0.3819 H   0  0  0  0  0  0  0  0  0  0  0  0
    0.2630   -2.6678   -0.2277 H   0  0  0  0  0  0  0  0  0  0  0  0
   -0.8719   -4.3253    1.2553 H   0  0  0  0  0  0  0  0  0  0  0  0
   -1.0281   -4.0070    2.9671 H   0  0  0  0  0  0  0  0  0  0  0  0
   -1.8044   -4.3353   -3.4877 H   0  0  0  0  0  0  0  0  0  0  0  0
   -2.5836   -2.8983   -5.4018 H   0  0  0  0  0  0  0  0  0  0  0  0
   -4.2991   -0.0745   -2.9128 H   0  0  0  0  0  0  0  0  0  0  0  0
   -4.7047    0.0654   -0.5201 H   0  0  0  0  0  0  0  0  0  0  0  0
   -4.5176   -0.7366    1.0270 H   0  0  0  0  0  0  0  0  0  0  0  0
   -2.5389    1.2850   -1.5331 H   0  0  0  0  0  0  0  0  0  0  0  0
   -0.7934    2.9178   -0.9048 H   0  0  0  0  0  0  0  0  0  0  0  0
   -1.2190    1.8588    3.2160 H   0  0  0  0  0  0  0  0  0  0  0  0
   -2.9568    0.1933    2.6343 H   0  0  0  0  0  0  0  0  0  0  0  0
   -0.2075   -1.8978    3.9903 H   0  0  0  0  0  0  0  0  0  0  0  0
    1.4516   -0.0686    3.8295 H   0  0  0  0  0  0  0  0  0  0  0  0
  1  2  1  0
  2  3  1  0
  3  4  1  0
  3  5  1  0
  5  6  1  0
  6  7  2  0
  6  8  1  0
  8  9  2  0
  9 10  1  0
 10 11  2  0
 11 12  1  0
 12 13  1  0
 13 14  1  0
 14 15  2  0
 15 16  1  0
 16 17  2  0
 17 18  1  0
 18 19  2  0
 19 20  1  0
 20 21  2  0
 21 22  1  0
 22 23  1  0
 23 24  1  0
 24 25  2  0
 25 26  1  0
 26 27  2  0
 27 28  1  0
 27 29  1  0
 29 30  2  0
 11 31  1  0
 31 32  2  0
 32  8  1  0
 22 14  1  0
 30 24  1  0
 21 16  1  0
  1 33  1  0
  1 34  1  0
  1 35  1  0
  2 36  1  0
  2 37  1  0
  3 38  1  0
  4 39  1  0
  4 40  1  0
  4 41  1  0
  5 42  1  0
  9 43  1  0
 10 44  1  0
 12 45  1  0
 12 46  1  0
 17 47  1  0
 18 48  1  0
 20 49  1  0
 23 50  1  0
 23 51  1  0
 25 52  1  0
 26 53  1  0
 29 54  1  0
 30 55  1  0
 31 56  1  0
 32 57  1  0
M  END
$$$$
