
     RDKit          3D

 47 49  0  0  0  0  0  0  0  0999 V2000
    7.1119   -3.3777   -2.3252 C   0  0  0  0  0  0  0  0  0  0  0  0
    6.0047   -2.9090   -3.0849 O   0  0  0  0  0  0  0  0  0  0  0  0
    5.0869   -2.1398   -2.4260 C   0  0  0  0  0  0  0  0  0  0  0  0
    4.0529   -1.6500   -3.2235 C   0  0  0  0  0  0  0  0  0  0  0  0
    3.0479   -0.8476   -2.6744 C   0  0  0  0  0  0  0  0  0  0  0  0
    3.0712   -0.5074   -1.3182 C   0  0  0  0  0  0  0  0  0  0  0  0
    2.0060    0.2788   -0.8302 N   0  0  0  0  0  0  0  0  0  0  0  0
    1.9099    1.0952    0.2922 C   0  0  0  0  0  0  0  0  0  0  0  0
    3.2168    1.7882    1.0914 S   0  0  0  0  0  0  0  0  0  0  0  0
    0.5516    1.3412    0.6302 N   0  0  0  0  0  0  0  0  0  0  0  0
    0.1866    2.3741    1.6111 C   0  0  0  0  0  0  0  0  0  0  0  0
   -1.2021    2.9438    1.3296 C   0  0  0  0  0  0  0  0  0  0  0  0
   -2.2337    1.8593    1.1753 C   0  0  0  0  0  0  0  0  0  0  0  0
   -3.5937    2.1528    1.3597 C   0  0  0  0  0  0  0  0  0  0  0  0
   -4.5688    1.1635    1.1939 C   0  0  0  0  0  0  0  0  0  0  0  0
   -5.9167    1.3656    1.3609 O   0  0  0  0  0  0  0  0  0  0  0  0
   -6.3487    2.6662    1.7321 C   0  0  0  0  0  0  0  0  0  0  0  0
   -4.1792   -0.1393    0.8303 C   0  0  0  0  0  0  0  0  0  0  0  0
   -5.1930   -1.0549    0.6906 O   0  0  0  0  0  0  0  0  0  0  0  0
   -4.8412   -2.3860    0.3437 C   0  0  0  0  0  0  0  0  0  0  0  0
   -2.8230   -0.4242    0.6325 C   0  0  0  0  0  0  0  0  0  0  0  0
   -1.8425    0.5703    0.7916 C   0  0  0  0  0  0  0  0  0  0  0  0
   -0.3904    0.2105    0.5734 C   0  0  0  0  0  0  0  0  0  0  0  0
    4.0893   -1.0246   -0.5170 C   0  0  0  0  0  0  0  0  0  0  0  0
    5.0971   -1.8294   -1.0679 C   0  0  0  0  0  0  0  0  0  0  0  0
    7.7662   -3.9387   -2.9993 H   0  0  0  0  0  0  0  0  0  0  0  0
    6.7851   -4.0605   -1.5340 H   0  0  0  0  0  0  0  0  0  0  0  0
    7.6924   -2.5451   -1.9143 H   0  0  0  0  0  0  0  0  0  0  0  0
    4.0298   -1.8929   -4.2829 H   0  0  0  0  0  0  0  0  0  0  0  0
    2.2615   -0.4825   -3.3292 H   0  0  0  0  0  0  0  0  0  0  0  0
    1.2712    0.4653   -1.5016 H   0  0  0  0  0  0  0  0  0  0  0  0
    0.2331    1.9186    2.6086 H   0  0  0  0  0  0  0  0  0  0  0  0
    0.8994    3.2035    1.5861 H   0  0  0  0  0  0  0  0  0  0  0  0
   -1.1803    3.5260    0.4000 H   0  0  0  0  0  0  0  0  0  0  0  0
   -1.4802    3.6207    2.1458 H   0  0  0  0  0  0  0  0  0  0  0  0
   -3.8660    3.1670    1.6341 H   0  0  0  0  0  0  0  0  0  0  0  0
   -5.9408    2.9555    2.7062 H   0  0  0  0  0  0  0  0  0  0  0  0
   -6.0954    3.4016    0.9616 H   0  0  0  0  0  0  0  0  0  0  0  0
   -7.4390    2.6434    1.8229 H   0  0  0  0  0  0  0  0  0  0  0  0
   -4.3624   -2.4241   -0.6401 H   0  0  0  0  0  0  0  0  0  0  0  0
   -5.7637   -2.9719    0.2863 H   0  0  0  0  0  0  0  0  0  0  0  0
   -4.2068   -2.8404    1.1118 H   0  0  0  0  0  0  0  0  0  0  0  0
   -2.4993   -1.4209    0.3493 H   0  0  0  0  0  0  0  0  0  0  0  0
   -0.3053   -0.2989   -0.3914 H   0  0  0  0  0  0  0  0  0  0  0  0
   -0.0813   -0.4974    1.3531 H   0  0  0  0  0  0  0  0  0  0  0  0
    4.1137   -0.8467    0.5531 H   0  0  0  0  0  0  0  0  0  0  0  0
    5.8679   -2.2012   -0.4009 H   0  0  0  0  0  0  0  0  0  0  0  0
  1  2  1  0
  2  3  1  0
  3  4  2  0
  4  5  1  0
  5  6  2  0
  6  7  1  0
  7  8  1  0
  8  9  2  0
  8 10  1  0
 10 11  1  0
 11 12  1  0
 12 13  1  0
 13 14  2  0
 14 15  1  0
 15 16  1  0
 16 17  1  0
 15 18  2  0
 18 19  1  0
 19 20  1  0
 18 21  1  0
 21 22  2  0
 22 23  1  0
  6 24  1  0
 24 25  2  0
 25  3  1  0
 23 10  1  0
 22 13  1  0
  1 26  1  0
  1 27  1  0
  1 28  1  0
  4 29  1  0
  5 30  1  0
  7 31  1  0
 11 32  1  0
 11 33  1  0
 12 34  1  0
 12 35  1  0
 14 36  1  0
 17 37  1  0
 17 38  1  0
 17 39  1  0
 20 40  1  0
 20 41  1  0
 20 42  1  0
 21 43  1  0
 23 44  1  0
 23 45  1  0
 24 46  1  0
 25 47  1  0
M  END
$$$$
