
     RDKit          3D

 43 45  0  0  0  0  0  0  0  0999 V2000
    7.7557   -0.2529   -1.1111 C   0  0  0  0  0  0  0  0  0  0  0  0
    6.7894    0.5699   -0.4698 O   0  0  0  0  0  0  0  0  0  0  0  0
    5.4766    0.2309   -0.6422 C   0  0  0  0  0  0  0  0  0  0  0  0
    4.5662    1.0709   -0.0011 C   0  0  0  0  0  0  0  0  0  0  0  0
    3.1896    0.8376   -0.0927 C   0  0  0  0  0  0  0  0  0  0  0  0
    2.6924   -0.2360   -0.8364 C   0  0  0  0  0  0  0  0  0  0  0  0
    1.3154   -0.5358   -0.9270 N   0  0  0  0  0  0  0  0  0  0  0  0
    0.2951   -0.2472   -0.0825 C   0  0  0  0  0  0  0  0  0  0  0  0
    0.3603    0.0016    1.3027 C   0  0  0  0  0  0  0  0  0  0  0  0
   -0.9278    0.1896    1.7578 C   0  0  0  0  0  0  0  0  0  0  0  0
   -1.3499    0.5408    2.9708 O   0  0  0  0  0  0  0  0  0  0  0  0
   -1.8032    0.0028    0.6887 N   0  0  0  0  0  0  0  0  0  0  0  0
   -3.2289    0.1061    0.7282 C   0  0  0  0  0  0  0  0  0  0  0  0
   -3.8532    0.8834   -0.2652 C   0  0  0  0  0  0  0  0  0  0  0  0
   -5.2414    1.0595   -0.2467 C   0  0  0  0  0  0  0  0  0  0  0  0
   -5.8855    1.8846   -1.2758 N   0  0  0  0  0  4  0  0  0  0  0  0
   -7.1229    1.9624   -1.2611 O   0  0  0  0  0  0  0  0  0  0  0  0
   -5.1581    2.4578   -2.0996 O   0  0  0  0  0  1  0  0  0  0  0  0
   -6.0196    0.4677    0.7509 C   0  0  0  0  0  0  0  0  0  0  0  0
   -5.4020   -0.3213    1.7223 C   0  0  0  0  0  0  0  0  0  0  0  0
   -4.0091   -0.5349    1.7158 C   0  0  0  0  0  0  0  0  0  0  0  0
   -3.4610   -1.4839    2.7489 C   0  0  0  0  0  0  0  0  0  0  0  0
   -1.0338   -0.2145   -0.4558 C   0  0  0  0  0  0  0  0  0  0  0  0
   -1.5868   -0.3829   -1.6590 O   0  0  0  0  0  0  0  0  0  0  0  0
    3.6161   -1.0780   -1.4723 C   0  0  0  0  0  0  0  0  0  0  0  0
    4.9956   -0.8480   -1.3799 C   0  0  0  0  0  0  0  0  0  0  0  0
    8.7457    0.1520   -0.8801 H   0  0  0  0  0  0  0  0  0  0  0  0
    7.6328   -0.2319   -2.1990 H   0  0  0  0  0  0  0  0  0  0  0  0
    7.7176   -1.2781   -0.7281 H   0  0  0  0  0  0  0  0  0  0  0  0
    4.9290    1.9200    0.5730 H   0  0  0  0  0  0  0  0  0  0  0  0
    2.5139    1.5312    0.3993 H   0  0  0  0  0  0  0  0  0  0  0  0
    1.1136   -1.0931   -1.7514 H   0  0  0  0  0  0  0  0  0  0  0  0
    1.2511    0.0399    1.9140 H   0  0  0  0  0  0  0  0  0  0  0  0
   -0.5639    0.6606    3.5329 H   0  0  0  0  0  0  0  0  0  0  0  0
   -3.2547    1.3787   -1.0276 H   0  0  0  0  0  0  0  0  0  0  0  0
   -7.0987    0.6011    0.7837 H   0  0  0  0  0  0  0  0  0  0  0  0
   -6.0209   -0.7938    2.4844 H   0  0  0  0  0  0  0  0  0  0  0  0
   -4.1811   -2.2863    2.9482 H   0  0  0  0  0  0  0  0  0  0  0  0
   -2.5485   -1.9807    2.4073 H   0  0  0  0  0  0  0  0  0  0  0  0
   -3.2716   -0.9598    3.6897 H   0  0  0  0  0  0  0  0  0  0  0  0
   -0.8666   -0.3175   -2.3097 H   0  0  0  0  0  0  0  0  0  0  0  0
    3.2712   -1.9384   -2.0407 H   0  0  0  0  0  0  0  0  0  0  0  0
    5.6619   -1.5341   -1.8916 H   0  0  0  0  0  0  0  0  0  0  0  0
  1  2  1  0
  2  3  1  0
  3  4  2  0
  4  5  1  0
  5  6  2  0
  6  7  1  0
  7  8  1  0
  8  9  1  0
  9 10  2  0
 10 11  1  0
 10 12  1  0
 12 13  1  0
 13 14  2  0
 14 15  1  0
 15 16  1  0
 16 17  2  0
 16 18  1  0
 15 19  2  0
 19 20  1  0
 20 21  2  0
 21 22  1  0
 12 23  1  0
 23 24  1  0
  6 25  1  0
 25 26  2  0
 26  3  1  0
 23  8  2  0
 21 13  1  0
  1 27  1  0
  1 28  1  0
  1 29  1  0
  4 30  1  0
  5 31  1  0
  7 32  1  0
  9 33  1  0
 11 34  1  0
 14 35  1  0
 19 36  1  0
 20 37  1  0
 22 38  1  0
 22 39  1  0
 22 40  1  0
 24 41  1  0
 25 42  1  0
 26 43  1  0
M  CHG  2  16   1  18  -1
M  END
$$$$
