
     RDKit          3D

 53 56  0  0  0  0  0  0  0  0999 V2000
    7.1482    3.0609   -0.5652 C   0  0  0  0  0  0  0  0  0  0  0  0
    7.2720    1.7680    0.2294 C   0  0  0  0  0  0  0  0  0  0  0  0
    6.1255    0.7995   -0.0544 C   0  0  0  0  0  0  0  0  0  0  0  0
    4.9038    1.3919    0.3855 O   0  0  0  0  0  0  0  0  0  0  0  0
    3.7609    0.6622    0.2165 C   0  0  0  0  0  0  0  0  0  0  0  0
    2.5988    1.2826    0.6723 C   0  0  0  0  0  0  0  0  0  0  0  0
    1.3572    0.6448    0.5628 C   0  0  0  0  0  0  0  0  0  0  0  0
    1.2369   -0.6348   -0.0085 C   0  0  0  0  0  0  0  0  0  0  0  0
   -0.0719   -1.3122   -0.1251 C   0  0  0  0  0  0  0  0  0  0  0  0
   -1.1449   -0.6887    0.3879 N   0  0  0  0  0  0  0  0  0  0  0  0
   -2.3357   -1.3063    0.2810 C   0  0  0  0  0  0  0  0  0  0  0  0
   -3.4886   -0.6393    0.7745 N   0  0  0  0  0  0  0  0  0  0  0  0
   -4.1025    0.1440   -0.3298 C   0  0  0  0  0  0  0  0  0  0  0  0
   -4.9611    1.3068    0.2168 C   0  0  0  0  0  0  0  0  0  0  0  0
   -4.2273    2.2823    1.0528 N   0  0  0  0  0  0  0  0  0  0  0  0
   -3.8563    3.4766    0.2988 C   0  0  0  0  0  0  0  0  0  0  0  0
   -3.0262    1.6658    1.6665 C   0  0  0  0  0  0  0  0  0  0  0  0
   -3.2123    0.1676    1.9898 C   0  0  0  0  0  0  0  0  0  0  0  0
   -2.4704   -2.5649   -0.3326 C   0  0  0  0  0  0  0  0  0  0  0  0
   -3.6842   -3.2890   -0.4494 C   0  0  0  0  0  0  0  0  0  0  0  0
   -3.7201   -4.5315   -1.0774 C   0  0  0  0  0  0  0  0  0  0  0  0
   -2.5467   -5.0664   -1.5896 C   0  0  0  0  0  0  0  0  0  0  0  0
   -1.3486   -4.3577   -1.4623 C   0  0  0  0  0  0  0  0  0  0  0  0
   -1.2889   -3.1172   -0.8376 C   0  0  0  0  0  0  0  0  0  0  0  0
   -0.1059   -2.5049   -0.7429 N   0  0  0  0  0  0  0  0  0  0  0  0
    2.4240   -1.2403   -0.4634 C   0  0  0  0  0  0  0  0  0  0  0  0
    3.6698   -0.6044   -0.3534 C   0  0  0  0  0  0  0  0  0  0  0  0
    7.9995    3.7160   -0.3543 H   0  0  0  0  0  0  0  0  0  0  0  0
    6.2339    3.6034   -0.3045 H   0  0  0  0  0  0  0  0  0  0  0  0
    7.1338    2.8587   -1.6413 H   0  0  0  0  0  0  0  0  0  0  0  0
    7.2870    2.0165    1.2972 H   0  0  0  0  0  0  0  0  0  0  0  0
    8.2243    1.2846   -0.0150 H   0  0  0  0  0  0  0  0  0  0  0  0
    6.0826    0.5881   -1.1301 H   0  0  0  0  0  0  0  0  0  0  0  0
    6.3083   -0.1297    0.4990 H   0  0  0  0  0  0  0  0  0  0  0  0
    2.6562    2.2723    1.1190 H   0  0  0  0  0  0  0  0  0  0  0  0
    0.4740    1.1635    0.9316 H   0  0  0  0  0  0  0  0  0  0  0  0
   -3.3401    0.5603   -1.0034 H   0  0  0  0  0  0  0  0  0  0  0  0
   -4.7440   -0.5155   -0.9254 H   0  0  0  0  0  0  0  0  0  0  0  0
   -5.7549    0.8796    0.8436 H   0  0  0  0  0  0  0  0  0  0  0  0
   -5.4779    1.8046   -0.6127 H   0  0  0  0  0  0  0  0  0  0  0  0
   -4.7511    3.9848   -0.0785 H   0  0  0  0  0  0  0  0  0  0  0  0
   -3.3382    4.1938    0.9457 H   0  0  0  0  0  0  0  0  0  0  0  0
   -3.2057    3.2460   -0.5530 H   0  0  0  0  0  0  0  0  0  0  0  0
   -2.7966    2.2056    2.5930 H   0  0  0  0  0  0  0  0  0  0  0  0
   -2.1564    1.7751    1.0053 H   0  0  0  0  0  0  0  0  0  0  0  0
   -2.3520   -0.2134    2.5554 H   0  0  0  0  0  0  0  0  0  0  0  0
   -4.0733    0.0548    2.6615 H   0  0  0  0  0  0  0  0  0  0  0  0
   -4.6016   -2.8781   -0.0326 H   0  0  0  0  0  0  0  0  0  0  0  0
   -4.6563   -5.0772   -1.1594 H   0  0  0  0  0  0  0  0  0  0  0  0
   -2.5545   -6.0356   -2.0815 H   0  0  0  0  0  0  0  0  0  0  0  0
   -0.4325   -4.7896   -1.8594 H   0  0  0  0  0  0  0  0  0  0  0  0
    2.3873   -2.2321   -0.9135 H   0  0  0  0  0  0  0  0  0  0  0  0
    4.5423   -1.1322   -0.7234 H   0  0  0  0  0  0  0  0  0  0  0  0
  1  2  1  0
  2  3  1  0
  3  4  1  0
  4  5  1  0
  5  6  2  0
  6  7  1  0
  7  8  2  0
  8  9  1  0
  9 10  2  0
 10 11  1  0
 11 12  1  0
 12 13  1  0
 13 14  1  0
 14 15  1  0
 15 16  1  0
 15 17  1  0
 17 18  1  0
 11 19  2  0
 19 20  1  0
 20 21  2  0
 21 22  1  0
 22 23  2  0
 23 24  1  0
 24 25  2  0
  8 26  1  0
 26 27  2  0
 27  5  1  0
 25  9  1  0
 18 12  1  0
 24 19  1  0
  1 28  1  0
  1 29  1  0
  1 30  1  0
  2 31  1  0
  2 32  1  0
  3 33  1  0
  3 34  1  0
  6 35  1  0
  7 36  1  0
 13 37  1  0
 13 38  1  0
 14 39  1  0
 14 40  1  0
 16 41  1  0
 16 42  1  0
 16 43  1  0
 17 44  1  0
 17 45  1  0
 18 46  1  0
 18 47  1  0
 20 48  1  0
 21 49  1  0
 22 50  1  0
 23 51  1  0
 26 52  1  0
 27 53  1  0
M  END
$$$$
