
     RDKit          3D

 53 56  0  0  0  0  0  0  0  0999 V2000
   -4.6915   -3.5386    1.2476 C   0  0  0  0  0  0  0  0  0  0  0  0
   -3.2857   -2.9799    1.3928 C   0  0  0  0  0  0  0  0  0  0  0  0
   -3.1326   -1.5061    0.9714 C   0  0  0  0  0  0  0  0  0  0  0  0
   -3.8415   -0.5081    1.9206 C   0  0  0  0  0  0  0  0  0  0  0  0
   -5.3109   -0.2864    1.6482 C   0  0  0  0  0  0  0  0  0  0  0  0
   -5.7353    0.2242    0.4130 C   0  0  0  0  0  0  0  0  0  0  0  0
   -7.0905    0.4454    0.1641 C   0  0  0  0  0  0  0  0  0  0  0  0
   -8.0351    0.1705    1.1505 C   0  0  0  0  0  0  0  0  0  0  0  0
   -7.6243   -0.3182    2.3890 C   0  0  0  0  0  0  0  0  0  0  0  0
   -6.2688   -0.5395    2.6397 C   0  0  0  0  0  0  0  0  0  0  0  0
   -1.7000   -1.1901    0.9079 N   0  0  0  0  0  0  0  0  0  0  0  0
   -1.2202   -0.1826    0.0962 C   0  0  0  0  0  0  0  0  0  0  0  0
   -1.9299    0.4757   -0.6555 O   0  0  0  0  0  0  0  0  0  0  0  0
    0.2467    0.0675    0.1419 C   0  0  0  0  0  0  0  0  0  0  0  0
    0.9946   -0.1398    1.3038 C   0  0  0  0  0  0  0  0  0  0  0  0
    2.3735    0.1072    1.3105 C   0  0  0  0  0  0  0  0  0  0  0  0
    3.0106    0.5755    0.1432 C   0  0  0  0  0  0  0  0  0  0  0  0
    4.3570    0.8543    0.0128 N   0  0  0  0  0  0  0  0  0  0  0  0
    4.6445    1.2849   -1.1972 C   0  0  0  0  0  0  0  0  0  0  0  0
    5.9051    1.6311   -1.5794 N   0  0  0  0  0  0  0  0  0  0  0  0
    6.2446    2.0931   -2.9263 C   0  0  0  0  0  0  0  0  0  0  0  0
    7.6262    2.7678   -2.9195 C   0  0  0  0  0  0  0  0  0  0  0  0
    8.6863    1.9138   -2.4684 O   0  0  0  0  0  0  0  0  0  0  0  0
    8.2645    0.9417   -1.5000 C   0  0  0  0  0  0  0  0  0  0  0  0
    7.0334    1.3613   -0.6811 C   0  0  0  0  0  0  0  0  0  0  0  0
    3.2702    1.3654   -2.2483 S   0  0  0  0  0  0  0  0  0  0  0  0
    2.2447    0.7924   -0.9981 C   0  0  0  0  0  0  0  0  0  0  0  0
    0.8610    0.5522   -1.0235 C   0  0  0  0  0  0  0  0  0  0  0  0
   -4.6750   -4.6263    1.3745 H   0  0  0  0  0  0  0  0  0  0  0  0
   -5.3633   -3.1378    2.0092 H   0  0  0  0  0  0  0  0  0  0  0  0
   -5.1061   -3.3215    0.2584 H   0  0  0  0  0  0  0  0  0  0  0  0
   -2.9424   -3.1173    2.4258 H   0  0  0  0  0  0  0  0  0  0  0  0
   -2.6197   -3.5918    0.7696 H   0  0  0  0  0  0  0  0  0  0  0  0
   -3.5181   -1.3977   -0.0495 H   0  0  0  0  0  0  0  0  0  0  0  0
   -3.3649    0.4798    1.8541 H   0  0  0  0  0  0  0  0  0  0  0  0
   -3.6899   -0.8265    2.9603 H   0  0  0  0  0  0  0  0  0  0  0  0
   -5.0078    0.4634   -0.3620 H   0  0  0  0  0  0  0  0  0  0  0  0
   -7.4062    0.8390   -0.7985 H   0  0  0  0  0  0  0  0  0  0  0  0
   -9.0899    0.3451    0.9564 H   0  0  0  0  0  0  0  0  0  0  0  0
   -8.3599   -0.5239    3.1621 H   0  0  0  0  0  0  0  0  0  0  0  0
   -5.9673   -0.9155    3.6145 H   0  0  0  0  0  0  0  0  0  0  0  0
   -1.0627   -1.7381    1.4684 H   0  0  0  0  0  0  0  0  0  0  0  0
    0.5240   -0.4651    2.2271 H   0  0  0  0  0  0  0  0  0  0  0  0
    2.9611   -0.0481    2.2103 H   0  0  0  0  0  0  0  0  0  0  0  0
    5.5144    2.8221   -3.2943 H   0  0  0  0  0  0  0  0  0  0  0  0
    6.2594    1.2335   -3.6068 H   0  0  0  0  0  0  0  0  0  0  0  0
    7.8841    3.1067   -3.9280 H   0  0  0  0  0  0  0  0  0  0  0  0
    7.6146    3.6525   -2.2718 H   0  0  0  0  0  0  0  0  0  0  0  0
    9.1130    0.7521   -0.8347 H   0  0  0  0  0  0  0  0  0  0  0  0
    8.0586    0.0100   -2.0402 H   0  0  0  0  0  0  0  0  0  0  0  0
    6.8108    0.5627    0.0359 H   0  0  0  0  0  0  0  0  0  0  0  0
    7.2550    2.2741   -0.1159 H   0  0  0  0  0  0  0  0  0  0  0  0
    0.2814    0.7336   -1.9252 H   0  0  0  0  0  0  0  0  0  0  0  0
  1  2  1  0
  2  3  1  0
  3  4  1  0
  4  5  1  0
  5  6  2  0
  6  7  1  0
  7  8  2  0
  8  9  1  0
  9 10  2  0
  3 11  1  0
 11 12  1  0
 12 13  2  0
 12 14  1  0
 14 15  2  0
 15 16  1  0
 16 17  2  0
 17 18  1  0
 18 19  2  0
 19 20  1  0
 20 21  1  0
 21 22  1  0
 22 23  1  0
 23 24  1  0
 24 25  1  0
 19 26  1  0
 26 27  1  0
 27 28  2  0
 10  5  1  0
 28 14  1  0
 27 17  1  0
 25 20  1  0
  1 29  1  0
  1 30  1  0
  1 31  1  0
  2 32  1  0
  2 33  1  0
  3 34  1  0
  4 35  1  0
  4 36  1  0
  6 37  1  0
  7 38  1  0
  8 39  1  0
  9 40  1  0
 10 41  1  0
 11 42  1  0
 15 43  1  0
 16 44  1  0
 21 45  1  0
 21 46  1  0
 22 47  1  0
 22 48  1  0
 24 49  1  0
 24 50  1  0
 25 51  1  0
 25 52  1  0
 28 53  1  0
M  END
$$$$
