
     RDKit          3D

 37 38  0  0  0  0  0  0  0  0999 V2000
   -2.3798    0.9474    2.3418 C   0  0  0  0  0  0  0  0  0  0  0  0
   -2.8422    0.2304    1.1090 C   0  0  0  0  0  0  0  0  0  0  0  0
   -4.1737    0.2915    0.7202 C   0  0  0  0  0  0  0  0  0  0  0  0
   -4.5784   -0.4149   -0.4149 C   0  0  0  0  0  0  0  0  0  0  0  0
   -6.0078   -0.4017   -0.8797 C   0  0  0  0  0  0  0  0  0  0  0  0
   -6.1402    0.1167   -2.1316 F   0  0  0  0  0  0  0  0  0  0  0  0
   -6.8329    0.3325   -0.0824 F   0  0  0  0  0  0  0  0  0  0  0  0
   -6.5512   -1.6483   -0.9309 F   0  0  0  0  0  0  0  0  0  0  0  0
   -3.6195   -1.1526   -1.1198 C   0  0  0  0  0  0  0  0  0  0  0  0
   -2.2994   -1.1522   -0.6851 C   0  0  0  0  0  0  0  0  0  0  0  0
   -1.3552   -1.9403   -1.3947 N   0  0  0  0  0  0  0  0  0  0  0  0
   -0.0283   -1.7034   -0.9286 N   0  0  0  0  0  0  0  0  0  0  0  0
    0.7996   -1.0373   -1.7982 C   0  0  0  0  0  0  0  0  0  0  0  0
    0.5404   -0.8911   -2.9946 O   0  0  0  0  0  0  0  0  0  0  0  0
    1.9679   -0.5384   -1.2845 N   0  0  0  0  0  0  0  0  0  0  0  0
    2.3492   -0.4611    0.0410 C   0  0  0  0  0  0  0  0  0  0  0  0
    1.7436   -0.9728    0.9759 O   0  0  0  0  0  0  0  0  0  0  0  0
    3.6200    0.2643    0.3014 C   0  0  0  0  0  0  0  0  0  0  0  0
    4.4598   -0.2117    1.3176 C   0  0  0  0  0  0  0  0  0  0  0  0
    5.6678    0.4354    1.5902 C   0  0  0  0  0  0  0  0  0  0  0  0
    6.0288    1.5636    0.8551 C   0  0  0  0  0  0  0  0  0  0  0  0
    7.5159    2.3611    1.1885 Cl  0  0  0  0  0  0  0  0  0  0  0  0
    5.1902    2.0540   -0.1468 C   0  0  0  0  0  0  0  0  0  0  0  0
    3.9810    1.4080   -0.4237 C   0  0  0  0  0  0  0  0  0  0  0  0
   -1.9160   -0.4777    0.4234 N   0  0  0  0  0  0  0  0  0  0  0  0
   -2.9051    0.5609    3.2205 H   0  0  0  0  0  0  0  0  0  0  0  0
   -2.5700    2.0213    2.2537 H   0  0  0  0  0  0  0  0  0  0  0  0
   -1.3062    0.8012    2.4966 H   0  0  0  0  0  0  0  0  0  0  0  0
   -4.8879    0.8710    1.2999 H   0  0  0  0  0  0  0  0  0  0  0  0
   -3.9041   -1.7295   -1.9955 H   0  0  0  0  0  0  0  0  0  0  0  0
   -1.4138   -1.7182   -2.3944 H   0  0  0  0  0  0  0  0  0  0  0  0
    0.0175   -1.4314    0.0603 H   0  0  0  0  0  0  0  0  0  0  0  0
    2.5455   -0.1190   -1.9955 H   0  0  0  0  0  0  0  0  0  0  0  0
    4.1758   -1.0890    1.8972 H   0  0  0  0  0  0  0  0  0  0  0  0
    6.3164    0.0569    2.3758 H   0  0  0  0  0  0  0  0  0  0  0  0
    5.4673    2.9457   -0.7044 H   0  0  0  0  0  0  0  0  0  0  0  0
    3.3250    1.8289   -1.1825 H   0  0  0  0  0  0  0  0  0  0  0  0
  1  2  1  0
  2  3  2  0
  3  4  1  0
  4  5  1  0
  5  6  1  0
  5  7  1  0
  5  8  1  0
  4  9  2  0
  9 10  1  0
 10 11  1  0
 11 12  1  0
 12 13  1  0
 13 14  2  0
 13 15  1  0
 15 16  1  0
 16 17  2  0
 16 18  1  0
 18 19  2  0
 19 20  1  0
 20 21  2  0
 21 22  1  0
 21 23  1  0
 23 24  2  0
 10 25  2  0
 25  2  1  0
 24 18  1  0
  1 26  1  0
  1 27  1  0
  1 28  1  0
  3 29  1  0
  9 30  1  0
 11 31  1  0
 12 32  1  0
 15 33  1  0
 19 34  1  0
 20 35  1  0
 23 36  1  0
 24 37  1  0
M  END
$$$$
