
     RDKit          3D

 23 25  0  0  0  0  0  0  0  0999 V2000
    2.5343    0.5584    1.6620 O   0  0  0  0  0  0  0  0  0  0  0  0
    2.2635    0.3113    0.5009 C   0  0  0  0  0  0  0  0  0  0  0  0
    3.2064   -0.1441   -0.3449 O   0  0  0  0  0  0  0  0  0  0  0  0
    0.9236    0.4621   -0.1747 C   0  0  0  0  0  0  0  0  0  0  0  0
    0.3261   -0.9048   -0.5990 C   0  0  0  0  0  0  0  0  0  0  0  0
   -0.2878   -1.4025    0.7160 C   0  0  0  0  0  0  0  0  0  0  0  0
   -1.1406   -0.1629    0.9035 C   0  0  0  0  0  0  0  0  0  0  0  0
   -1.8973   -0.0037   -0.4137 C   0  0  0  0  0  0  0  0  0  0  0  0
   -2.0193    1.4118   -0.5870 O   0  0  0  0  0  0  0  0  0  0  0  0
   -0.9919    2.0324    0.0702 C   0  0  0  0  0  0  0  0  0  0  0  0
   -0.7581    3.2264    0.0154 O   0  0  0  0  0  0  0  0  0  0  0  0
   -0.1612    1.0039    0.7794 C   0  0  0  0  0  0  0  0  0  0  0  0
   -0.9287   -0.6150   -1.4592 C   0  0  0  0  0  0  0  0  0  0  0  0
   -1.5903   -2.1183   -2.1530 Cl  0  0  0  0  0  0  0  0  0  0  0  0
    4.0255   -0.1781    0.1945 H   0  0  0  0  0  0  0  0  0  0  0  0
    1.0761    1.1256   -1.0357 H   0  0  0  0  0  0  0  0  0  0  0  0
    1.0433   -1.5922   -1.0541 H   0  0  0  0  0  0  0  0  0  0  0  0
    0.4484   -1.5394    1.5142 H   0  0  0  0  0  0  0  0  0  0  0  0
   -0.8781   -2.3174    0.6120 H   0  0  0  0  0  0  0  0  0  0  0  0
   -1.7711   -0.1233    1.7944 H   0  0  0  0  0  0  0  0  0  0  0  0
   -2.8906   -0.4620   -0.4004 H   0  0  0  0  0  0  0  0  0  0  0  0
    0.1832    1.3676    1.7499 H   0  0  0  0  0  0  0  0  0  0  0  0
   -0.7157    0.0642   -2.2907 H   0  0  0  0  0  0  0  0  0  0  0  0
  1  2  2  0
  2  3  1  0
  2  4  1  0
  4  5  1  0
  5  6  1  0
  6  7  1  0
  7  8  1  0
  8  9  1  0
  9 10  1  0
 10 11  2  0
 10 12  1  0
  8 13  1  0
 13 14  1  0
 12  4  1  0
 13  5  1  0
 12  7  1  0
  3 15  1  0
  4 16  1  0
  5 17  1  0
  6 18  1  0
  6 19  1  0
  7 20  1  0
  8 21  1  0
 12 22  1  0
 13 23  1  0
M  END
$$$$
