
     RDKit          3D

 46 49  0  0  0  0  0  0  0  0999 V2000
    6.7814    0.6885   -0.4765 C   0  0  0  0  0  0  0  0  0  0  0  0
    5.9223   -0.5062   -0.1107 C   0  0  0  0  0  0  0  0  0  0  0  0
    4.5728   -0.0538    0.0449 O   0  0  0  0  0  0  0  0  0  0  0  0
    3.6863   -1.0308    0.3776 C   0  0  0  0  0  0  0  0  0  0  0  0
    3.9953   -2.2069    0.5316 O   0  0  0  0  0  0  0  0  0  0  0  0
    2.3986   -0.5474    0.5249 N   0  0  0  0  0  0  0  0  0  0  0  0
    2.0424    0.8512    0.2923 C   0  0  0  0  0  0  0  0  0  0  0  0
    0.5846    0.9820   -0.1291 C   0  0  0  0  0  0  0  0  0  0  0  0
   -0.3796    0.4471    0.9580 C   0  0  0  0  0  0  0  0  0  0  0  0
    0.2718   -0.7140    1.7625 C   0  0  0  0  0  0  0  0  0  0  0  0
    1.3463   -1.4502    0.9689 C   0  0  0  0  0  0  0  0  0  0  0  0
   -0.6866    1.5154    1.9607 N   0  0  0  0  0  0  0  0  0  0  0  0
   -1.6744    2.5128    1.4867 C   0  0  0  0  0  0  0  0  0  0  0  0
   -3.0615    1.9044    1.1911 C   0  0  0  0  0  0  0  0  0  0  0  0
   -2.9023    0.6490    0.4099 C   0  0  0  0  0  0  0  0  0  0  0  0
   -1.6829    0.0018    0.3274 C   0  0  0  0  0  0  0  0  0  0  0  0
   -1.8590   -1.1014   -0.4682 N   0  0  0  0  0  0  0  0  0  0  0  0
   -3.1725   -1.1895   -0.8768 C   0  0  0  0  0  0  0  0  0  0  0  0
   -3.8019   -2.1463   -1.6822 C   0  0  0  0  0  0  0  0  0  0  0  0
   -5.1662   -1.9807   -1.9392 C   0  0  0  0  0  0  0  0  0  0  0  0
   -5.8704   -0.9005   -1.4121 C   0  0  0  0  0  0  0  0  0  0  0  0
   -5.2262    0.0486   -0.6100 C   0  0  0  0  0  0  0  0  0  0  0  0
   -3.8524   -0.0969   -0.3362 C   0  0  0  0  0  0  0  0  0  0  0  0
    7.8261    0.3927   -0.6069 H   0  0  0  0  0  0  0  0  0  0  0  0
    6.4257    1.1495   -1.4040 H   0  0  0  0  0  0  0  0  0  0  0  0
    6.7256    1.4563    0.3023 H   0  0  0  0  0  0  0  0  0  0  0  0
    6.2777   -0.9425    0.8295 H   0  0  0  0  0  0  0  0  0  0  0  0
    5.9724   -1.2551   -0.9090 H   0  0  0  0  0  0  0  0  0  0  0  0
    2.6861    1.2738   -0.4862 H   0  0  0  0  0  0  0  0  0  0  0  0
    2.2389    1.4029    1.2188 H   0  0  0  0  0  0  0  0  0  0  0  0
    0.3729    2.0262   -0.3845 H   0  0  0  0  0  0  0  0  0  0  0  0
    0.4487    0.4233   -1.0659 H   0  0  0  0  0  0  0  0  0  0  0  0
    0.7636   -0.3187    2.6639 H   0  0  0  0  0  0  0  0  0  0  0  0
   -0.4833   -1.4254    2.1210 H   0  0  0  0  0  0  0  0  0  0  0  0
    0.9264   -1.9247    0.0759 H   0  0  0  0  0  0  0  0  0  0  0  0
    1.7770   -2.2482    1.5840 H   0  0  0  0  0  0  0  0  0  0  0  0
   -1.1006    1.0569    2.7743 H   0  0  0  0  0  0  0  0  0  0  0  0
   -1.7844    3.2836    2.2581 H   0  0  0  0  0  0  0  0  0  0  0  0
   -1.2935    3.0291    0.5983 H   0  0  0  0  0  0  0  0  0  0  0  0
   -3.5726    1.6751    2.1340 H   0  0  0  0  0  0  0  0  0  0  0  0
   -3.6739    2.6293    0.6440 H   0  0  0  0  0  0  0  0  0  0  0  0
   -1.1428   -1.7610   -0.7355 H   0  0  0  0  0  0  0  0  0  0  0  0
   -3.2573   -2.9887   -2.0956 H   0  0  0  0  0  0  0  0  0  0  0  0
   -5.6848   -2.7071   -2.5608 H   0  0  0  0  0  0  0  0  0  0  0  0
   -6.9308   -0.7911   -1.6251 H   0  0  0  0  0  0  0  0  0  0  0  0
   -5.7829    0.8877   -0.2044 H   0  0  0  0  0  0  0  0  0  0  0  0
  1  2  1  0
  2  3  1  0
  3  4  1  0
  4  5  2  0
  4  6  1  0
  6  7  1  0
  7  8  1  0
  8  9  1  0
  9 10  1  0
 10 11  1  0
  9 12  1  0
 12 13  1  0
 13 14  1  0
 14 15  1  0
 15 16  2  0
 16 17  1  0
 17 18  1  0
 18 19  2  0
 19 20  1  0
 20 21  2  0
 21 22  1  0
 22 23  2  0
 11  6  1  0
 23 15  1  0
 16  9  1  0
 23 18  1  0
  1 24  1  0
  1 25  1  0
  1 26  1  0
  2 27  1  0
  2 28  1  0
  7 29  1  0
  7 30  1  0
  8 31  1  0
  8 32  1  0
 10 33  1  0
 10 34  1  0
 11 35  1  0
 11 36  1  0
 12 37  1  0
 13 38  1  0
 13 39  1  0
 14 40  1  0
 14 41  1  0
 17 42  1  0
 19 43  1  0
 20 44  1  0
 21 45  1  0
 22 46  1  0
M  END
$$$$
