
     RDKit          3D

 51 53  0  0  0  0  0  0  0  0999 V2000
   -3.0500   -2.3503    3.1181 C   0  0  0  0  0  0  0  0  0  0  0  0
   -3.9252   -1.6345    2.2545 O   0  0  0  0  0  0  0  0  0  0  0  0
   -3.5915   -0.2535    2.1371 C   0  0  0  0  0  0  0  0  0  0  0  0
   -2.4824   -0.0298    1.1121 C   0  0  0  0  0  0  0  0  0  0  0  0
   -2.8593   -0.5999   -0.2563 C   0  0  0  0  0  0  0  0  0  0  0  0
   -1.7974   -0.4433   -1.2313 N   0  0  0  0  0  0  0  0  0  0  0  0
   -0.7344   -1.2820   -1.4458 C   0  0  0  0  0  0  0  0  0  0  0  0
   -0.4188   -2.7058   -0.5172 S   0  0  0  0  0  0  0  0  0  0  0  0
    1.0944   -3.3150   -1.3233 C   0  0  0  0  0  0  0  0  0  0  0  0
    2.3024   -2.4170   -1.1677 C   0  0  0  0  0  0  0  0  0  0  0  0
    3.2607   -2.4557   -1.9332 O   0  0  0  0  0  0  0  0  0  0  0  0
    2.2547   -1.6479   -0.0419 O   0  0  0  0  0  0  0  0  0  0  0  0
    3.3449   -0.7296    0.1482 C   0  0  0  0  0  0  0  0  0  0  0  0
    3.4895   -0.4842    1.6525 C   0  0  0  0  0  0  0  0  0  0  0  0
    4.5590    0.5644    1.9466 C   0  0  0  0  0  0  0  0  0  0  0  0
    4.2765    1.8708    1.2081 C   0  0  0  0  0  0  0  0  0  0  0  0
    4.0935    1.6465   -0.2924 C   0  0  0  0  0  0  0  0  0  0  0  0
    3.0388    0.5817   -0.5833 C   0  0  0  0  0  0  0  0  0  0  0  0
   -0.0101   -0.8397   -2.4459 N   0  0  0  0  0  0  0  0  0  0  0  0
   -0.6206    0.2903   -2.9322 N   0  0  0  0  0  0  0  0  0  0  0  0
   -1.6943    0.5261   -2.2034 C   0  0  0  0  0  0  0  0  0  0  0  0
   -2.6016    1.6089   -2.4371 C   0  0  0  0  0  0  0  0  0  0  0  0
   -2.9630    2.6248   -1.5728 C   0  0  0  0  0  0  0  0  0  0  0  0
   -3.9005    3.5296   -2.1580 C   0  0  0  0  0  0  0  0  0  0  0  0
   -4.2160    3.1785   -3.4518 C   0  0  0  0  0  0  0  0  0  0  0  0
   -3.3804    1.7737   -3.9559 S   0  0  0  0  0  0  0  0  0  0  0  0
   -2.0153   -2.3013    2.7631 H   0  0  0  0  0  0  0  0  0  0  0  0
   -3.3613   -3.3999    3.1298 H   0  0  0  0  0  0  0  0  0  0  0  0
   -3.1118   -1.9532    4.1362 H   0  0  0  0  0  0  0  0  0  0  0  0
   -3.3115    0.1619    3.1131 H   0  0  0  0  0  0  0  0  0  0  0  0
   -4.4977    0.2691    1.8110 H   0  0  0  0  0  0  0  0  0  0  0  0
   -2.2789    1.0447    1.0355 H   0  0  0  0  0  0  0  0  0  0  0  0
   -1.5530   -0.4935    1.4631 H   0  0  0  0  0  0  0  0  0  0  0  0
   -3.0959   -1.6679   -0.1971 H   0  0  0  0  0  0  0  0  0  0  0  0
   -3.7592   -0.1099   -0.6438 H   0  0  0  0  0  0  0  0  0  0  0  0
    0.8939   -3.4596   -2.3902 H   0  0  0  0  0  0  0  0  0  0  0  0
    1.3437   -4.2857   -0.8827 H   0  0  0  0  0  0  0  0  0  0  0  0
    4.2856   -1.1629   -0.2191 H   0  0  0  0  0  0  0  0  0  0  0  0
    2.5249   -0.1654    2.0732 H   0  0  0  0  0  0  0  0  0  0  0  0
    3.7385   -1.4269    2.1566 H   0  0  0  0  0  0  0  0  0  0  0  0
    4.6073    0.7535    3.0259 H   0  0  0  0  0  0  0  0  0  0  0  0
    5.5424    0.1781    1.6460 H   0  0  0  0  0  0  0  0  0  0  0  0
    3.3686    2.3321    1.6200 H   0  0  0  0  0  0  0  0  0  0  0  0
    5.0975    2.5766    1.3800 H   0  0  0  0  0  0  0  0  0  0  0  0
    3.8061    2.5901   -0.7716 H   0  0  0  0  0  0  0  0  0  0  0  0
    5.0504    1.3387   -0.7348 H   0  0  0  0  0  0  0  0  0  0  0  0
    2.9744    0.4044   -1.6644 H   0  0  0  0  0  0  0  0  0  0  0  0
    2.0477    0.9507   -0.2838 H   0  0  0  0  0  0  0  0  0  0  0  0
   -2.5653    2.7368   -0.5715 H   0  0  0  0  0  0  0  0  0  0  0  0
   -4.3120    4.3992   -1.6593 H   0  0  0  0  0  0  0  0  0  0  0  0
   -4.8878    3.6833   -4.1335 H   0  0  0  0  0  0  0  0  0  0  0  0
  1  2  1  0
  2  3  1  0
  3  4  1  0
  4  5  1  0
  5  6  1  0
  6  7  1  0
  7  8  1  0
  8  9  1  0
  9 10  1  0
 10 11  2  0
 10 12  1  0
 12 13  1  0
 13 14  1  0
 14 15  1  0
 15 16  1  0
 16 17  1  0
 17 18  1  0
  7 19  2  0
 19 20  1  0
 20 21  2  0
 21 22  1  0
 22 23  2  0
 23 24  1  0
 24 25  2  0
 25 26  1  0
 21  6  1  0
 26 22  1  0
 18 13  1  0
  1 27  1  0
  1 28  1  0
  1 29  1  0
  3 30  1  0
  3 31  1  0
  4 32  1  0
  4 33  1  0
  5 34  1  0
  5 35  1  0
  9 36  1  0
  9 37  1  0
 13 38  1  0
 14 39  1  0
 14 40  1  0
 15 41  1  0
 15 42  1  0
 16 43  1  0
 16 44  1  0
 17 45  1  0
 17 46  1  0
 18 47  1  0
 18 48  1  0
 23 49  1  0
 24 50  1  0
 25 51  1  0
M  END
$$$$
