
     RDKit          3D

 31 32  0  0  0  0  0  0  0  0999 V2000
    6.7044    2.5137   -3.7267 N   0  0  0  0  0  0  0  0  0  0  0  0
    5.5236    1.9707   -3.3733 C   0  0  0  0  0  0  0  0  0  0  0  0
    5.0640    0.8256   -3.8262 N   0  0  0  0  0  0  0  0  0  0  0  0
    3.8242    0.5115   -3.3043 N   0  0  0  0  0  0  0  0  0  0  0  0
    3.3945    1.4360   -2.4749 C   0  0  0  0  0  0  0  0  0  0  0  0
    1.8610    1.3210   -1.6456 S   0  0  0  0  0  0  0  0  0  0  0  0
    1.2104   -0.2018   -2.3868 C   0  0  0  0  0  0  0  0  0  0  0  0
   -0.1531   -0.4916   -1.7989 C   0  0  0  0  0  0  0  0  0  0  0  0
   -1.2058   -0.0958   -2.3000 O   0  0  0  0  0  0  0  0  0  0  0  0
   -0.1230   -1.2462   -0.6378 N   0  0  0  0  0  0  0  0  0  0  0  0
   -1.3306   -1.3259    0.0888 N   0  0  0  0  0  0  0  0  0  0  0  0
   -1.2386   -1.1346    1.4560 C   0  0  0  0  0  0  0  0  0  0  0  0
   -0.1587   -1.0853    2.0407 O   0  0  0  0  0  0  0  0  0  0  0  0
   -2.5188   -0.9505    2.1945 C   0  0  0  0  0  0  0  0  0  0  0  0
   -2.4773   -0.3185    3.4457 C   0  0  0  0  0  0  0  0  0  0  0  0
   -3.6516   -0.1246    4.1783 C   0  0  0  0  0  0  0  0  0  0  0  0
   -4.8679   -0.5695    3.6647 C   0  0  0  0  0  0  0  0  0  0  0  0
   -6.3141   -0.3334    4.5651 Cl  0  0  0  0  0  0  0  0  0  0  0  0
   -4.9195   -1.2113    2.4277 C   0  0  0  0  0  0  0  0  0  0  0  0
   -3.7457   -1.4064    1.6917 C   0  0  0  0  0  0  0  0  0  0  0  0
    4.4633    2.7579   -2.2741 S   0  0  0  0  0  0  0  0  0  0  0  0
    6.8072    3.5174   -3.6336 H   0  0  0  0  0  0  0  0  0  0  0  0
    7.1217    2.1385   -4.5724 H   0  0  0  0  0  0  0  0  0  0  0  0
    1.8811   -1.0447   -2.1889 H   0  0  0  0  0  0  0  0  0  0  0  0
    1.1034   -0.0922   -3.4709 H   0  0  0  0  0  0  0  0  0  0  0  0
    0.7158   -1.2376   -0.0531 H   0  0  0  0  0  0  0  0  0  0  0  0
   -2.1547   -1.0160   -0.4267 H   0  0  0  0  0  0  0  0  0  0  0  0
   -1.5288    0.0274    3.8538 H   0  0  0  0  0  0  0  0  0  0  0  0
   -3.6080    0.3698    5.1454 H   0  0  0  0  0  0  0  0  0  0  0  0
   -5.8684   -1.5684    2.0346 H   0  0  0  0  0  0  0  0  0  0  0  0
   -3.8100   -1.9352    0.7446 H   0  0  0  0  0  0  0  0  0  0  0  0
  1  2  1  0
  2  3  2  0
  3  4  1  0
  4  5  2  0
  5  6  1  0
  6  7  1  0
  7  8  1  0
  8  9  2  0
  8 10  1  0
 10 11  1  0
 11 12  1  0
 12 13  2  0
 12 14  1  0
 14 15  2  0
 15 16  1  0
 16 17  2  0
 17 18  1  0
 17 19  1  0
 19 20  2  0
  5 21  1  0
 21  2  1  0
 20 14  1  0
  1 22  1  0
  1 23  1  0
  7 24  1  0
  7 25  1  0
 10 26  1  0
 11 27  1  0
 15 28  1  0
 16 29  1  0
 19 30  1  0
 20 31  1  0
M  END
$$$$
