
     RDKit          3D

 56 61  0  0  0  0  0  0  0  0999 V2000
    5.1897   -2.4863   -1.6681 C   0  0  0  0  0  0  0  0  0  0  0  0
    4.9060   -2.6994   -0.2918 O   0  0  0  0  0  0  0  0  0  0  0  0
    3.8104   -2.0670    0.2271 C   0  0  0  0  0  0  0  0  0  0  0  0
    3.5514   -2.3577    1.5669 C   0  0  0  0  0  0  0  0  0  0  0  0
    2.4627   -1.7843    2.2208 C   0  0  0  0  0  0  0  0  0  0  0  0
    1.6223   -0.9085    1.5363 C   0  0  0  0  0  0  0  0  0  0  0  0
    1.8619   -0.5923    0.1867 C   0  0  0  0  0  0  0  0  0  0  0  0
    0.9559    0.3653   -0.5888 C   0  0  0  0  0  0  0  0  0  0  0  0
   -0.2812   -0.4202   -0.8499 C   0  0  0  0  0  0  0  0  0  0  0  0
   -0.5917   -1.5435   -1.6350 C   0  0  0  0  0  0  0  0  0  0  0  0
    0.3052   -2.3619   -2.4866 C   0  0  0  0  0  0  0  0  0  0  0  0
   -1.8880   -1.8558   -1.5463 N   0  0  0  0  0  0  0  0  0  0  0  0
   -2.4346   -0.9335   -0.6932 N   0  0  0  0  0  0  0  0  0  0  0  0
   -3.8267   -1.0086   -0.3723 C   0  0  0  0  0  0  0  0  0  0  0  0
   -4.4400   -0.0994    0.5016 C   0  0  0  0  0  0  0  0  0  0  0  0
   -5.8064   -0.2045    0.7932 C   0  0  0  0  0  0  0  0  0  0  0  0
   -6.5664   -1.2244    0.2097 C   0  0  0  0  0  0  0  0  0  0  0  0
   -7.9980   -1.3342    0.5148 N   0  0  0  0  0  4  0  0  0  0  0  0
   -8.4882   -0.5054    1.2952 O   0  0  0  0  0  0  0  0  0  0  0  0
   -8.6348   -2.2499   -0.0263 O   0  0  0  0  0  1  0  0  0  0  0  0
   -5.9699   -2.1405   -0.6627 C   0  0  0  0  0  0  0  0  0  0  0  0
   -4.6052   -2.0300   -0.9496 C   0  0  0  0  0  0  0  0  0  0  0  0
   -1.4667   -0.0246   -0.2752 C   0  0  0  0  0  0  0  0  0  0  0  0
   -1.6421    1.0500    0.5334 N   0  0  0  0  0  0  0  0  0  0  0  0
   -0.5872    1.8072    0.7077 C   0  0  0  0  0  0  0  0  0  0  0  0
   -0.8329    3.0360    1.6163 C   0  0  0  0  0  0  0  0  0  0  0  0
   -1.8967    3.2162    2.1926 O   0  0  0  0  0  0  0  0  0  0  0  0
    0.2132    3.9113    1.7328 N   0  0  0  0  0  0  0  0  0  0  0  0
    1.4501    3.7355    1.1072 C   0  0  0  0  0  0  0  0  0  0  0  0
    2.4177    4.7295    1.2981 C   0  0  0  0  0  0  0  0  0  0  0  0
    3.6655    4.6091    0.6977 C   0  0  0  0  0  0  0  0  0  0  0  0
    3.9407    3.4995   -0.0911 C   0  0  0  0  0  0  0  0  0  0  0  0
    2.9703    2.5068   -0.2783 C   0  0  0  0  0  0  0  0  0  0  0  0
    1.7012    2.5910    0.3193 C   0  0  0  0  0  0  0  0  0  0  0  0
    0.6973    1.6131    0.1638 N   0  0  0  0  0  0  0  0  0  0  0  0
    2.9687   -1.1870   -0.4570 C   0  0  0  0  0  0  0  0  0  0  0  0
    6.0729   -3.0796   -1.9238 H   0  0  0  0  0  0  0  0  0  0  0  0
    4.3634   -2.8291   -2.2997 H   0  0  0  0  0  0  0  0  0  0  0  0
    5.4265   -1.4352   -1.8628 H   0  0  0  0  0  0  0  0  0  0  0  0
    4.2027   -3.0418    2.1059 H   0  0  0  0  0  0  0  0  0  0  0  0
    2.2679   -2.0232    3.2633 H   0  0  0  0  0  0  0  0  0  0  0  0
    0.7732   -0.4783    2.0646 H   0  0  0  0  0  0  0  0  0  0  0  0
    1.3936    0.6148   -1.5642 H   0  0  0  0  0  0  0  0  0  0  0  0
    0.8344   -3.1025   -1.8790 H   0  0  0  0  0  0  0  0  0  0  0  0
    1.0450   -1.7321   -2.9905 H   0  0  0  0  0  0  0  0  0  0  0  0
   -0.2573   -2.8952   -3.2602 H   0  0  0  0  0  0  0  0  0  0  0  0
   -3.8907    0.7065    0.9805 H   0  0  0  0  0  0  0  0  0  0  0  0
   -6.2538    0.5165    1.4753 H   0  0  0  0  0  0  0  0  0  0  0  0
   -6.5436   -2.9409   -1.1253 H   0  0  0  0  0  0  0  0  0  0  0  0
   -4.1594   -2.7541   -1.6311 H   0  0  0  0  0  0  0  0  0  0  0  0
    0.0391    4.7199    2.3136 H   0  0  0  0  0  0  0  0  0  0  0  0
    2.2085    5.6015    1.9122 H   0  0  0  0  0  0  0  0  0  0  0  0
    4.4202    5.3778    0.8439 H   0  0  0  0  0  0  0  0  0  0  0  0
    4.9154    3.3996   -0.5639 H   0  0  0  0  0  0  0  0  0  0  0  0
    3.2527    1.6711   -0.9087 H   0  0  0  0  0  0  0  0  0  0  0  0
    3.1553   -0.9474   -1.4991 H   0  0  0  0  0  0  0  0  0  0  0  0
  1  2  1  0
  2  3  1  0
  3  4  2  0
  4  5  1  0
  5  6  2  0
  6  7  1  0
  7  8  1  0
  8  9  1  0
  9 10  1  0
 10 11  1  0
 10 12  2  0
 12 13  1  0
 13 14  1  0
 14 15  2  0
 15 16  1  0
 16 17  2  0
 17 18  1  0
 18 19  2  0
 18 20  1  0
 17 21  1  0
 21 22  2  0
 13 23  1  0
 23 24  1  0
 24 25  2  0
 25 26  1  0
 26 27  2  0
 26 28  1  0
 28 29  1  0
 29 30  2  0
 30 31  1  0
 31 32  2  0
 32 33  1  0
 33 34  2  0
 34 35  1  0
  7 36  2  0
 36  3  1  0
 35  8  1  0
 23  9  2  0
 35 25  1  0
 22 14  1  0
 34 29  1  0
  1 37  1  0
  1 38  1  0
  1 39  1  0
  4 40  1  0
  5 41  1  0
  6 42  1  0
  8 43  1  0
 11 44  1  0
 11 45  1  0
 11 46  1  0
 15 47  1  0
 16 48  1  0
 21 49  1  0
 22 50  1  0
 28 51  1  0
 30 52  1  0
 31 53  1  0
 32 54  1  0
 33 55  1  0
 36 56  1  0
M  CHG  2  18   1  20  -1
M  END
$$$$
