
     RDKit          3D

 79 86  0  0  0  0  0  0  0  0999 V2000
    6.0171    2.9852    1.7136 C   0  0  0  0  0  0  0  0  0  0  0  0
    4.7488    2.5773    2.2091 O   0  0  0  0  0  0  0  0  0  0  0  0
    4.3013    1.3393    1.8284 C   0  0  0  0  0  0  0  0  0  0  0  0
    4.8389    0.5747    0.7892 C   0  0  0  0  0  0  0  0  0  0  0  0
    4.2889   -0.6736    0.4637 C   0  0  0  0  0  0  0  0  0  0  0  0
    3.2091   -1.1935    1.1859 C   0  0  0  0  0  0  0  0  0  0  0  0
    2.6787   -0.4352    2.2255 C   0  0  0  0  0  0  0  0  0  0  0  0
    3.1927    0.8380    2.5199 C   0  0  0  0  0  0  0  0  0  0  0  0
    2.5844    1.6281    3.4868 O   0  0  0  0  0  0  0  0  0  0  0  0
    1.2270    1.7569    3.2804 C   0  0  0  0  0  0  0  0  0  0  0  0
    0.3581    1.0332    4.0935 C   0  0  0  0  0  0  0  0  0  0  0  0
   -0.9717    0.9008    3.7072 C   0  0  0  0  0  0  0  0  0  0  0  0
   -1.4350    1.5317    2.5415 C   0  0  0  0  0  0  0  0  0  0  0  0
   -0.5789    2.3782    1.8246 C   0  0  0  0  0  0  0  0  0  0  0  0
    0.7583    2.4848    2.1873 C   0  0  0  0  0  0  0  0  0  0  0  0
   -2.8318    1.2560    2.0398 C   0  0  0  0  0  0  0  0  0  0  0  0
   -2.8974    0.1922    0.8870 C   0  0  0  0  0  0  0  0  0  0  0  0
   -2.5488    0.8291   -0.4568 C   0  0  0  0  0  0  0  0  0  0  0  0
   -3.5535    1.5937   -1.0938 C   0  0  0  0  0  0  0  0  0  0  0  0
   -3.2681    2.3100   -2.2686 C   0  0  0  0  0  0  0  0  0  0  0  0
   -2.0089    2.2329   -2.8578 C   0  0  0  0  0  0  0  0  0  0  0  0
   -1.6354    2.8858   -4.0042 O   0  0  0  0  0  0  0  0  0  0  0  0
   -2.6073    3.7026   -4.6407 C   0  0  0  0  0  0  0  0  0  0  0  0
   -1.0427    1.4013   -2.2744 C   0  0  0  0  0  0  0  0  0  0  0  0
   -1.2994    0.6934   -1.0900 C   0  0  0  0  0  0  0  0  0  0  0  0
   -0.3396   -0.1528   -0.5611 O   0  0  0  0  0  0  0  0  0  0  0  0
    0.6273   -0.5731   -1.4525 C   0  0  0  0  0  0  0  0  0  0  0  0
    0.8570    0.1393   -2.6317 C   0  0  0  0  0  0  0  0  0  0  0  0
    1.7606   -0.3128   -3.5937 C   0  0  0  0  0  0  0  0  0  0  0  0
    2.3756   -1.5489   -3.4316 C   0  0  0  0  0  0  0  0  0  0  0  0
    2.1202   -2.2935   -2.2776 C   0  0  0  0  0  0  0  0  0  0  0  0
    1.3319   -1.7636   -1.2287 C   0  0  0  0  0  0  0  0  0  0  0  0
    1.2755   -2.5581    0.0639 C   0  0  0  0  0  0  0  0  0  0  0  0
    2.6218   -2.5475    0.8659 C   0  0  0  0  0  0  0  0  0  0  0  0
    0.9385   -3.9905   -0.1760 N   0  0  0  0  0  0  0  0  0  0  0  0
   -0.5056   -4.2171   -0.0649 C   0  0  0  0  0  0  0  0  0  0  0  0
    1.4555   -4.5316   -1.4569 C   0  0  0  0  0  0  0  0  0  0  0  0
    2.5789   -3.7241   -2.1435 C   0  0  0  0  0  0  0  0  0  0  0  0
    0.1645    1.2838   -2.9246 O   0  0  0  0  0  0  0  0  0  0  0  0
   -4.9691    1.6171   -0.5491 C   0  0  0  0  0  0  0  0  0  0  0  0
   -5.2827    0.5833    0.5544 C   0  0  0  0  0  0  0  0  0  0  0  0
   -4.2390   -0.4312    0.7384 N   0  0  0  0  0  0  0  0  0  0  0  0
   -4.5650   -1.3626    1.8115 C   0  0  0  0  0  0  0  0  0  0  0  0
    6.2966    3.9081    2.2320 H   0  0  0  0  0  0  0  0  0  0  0  0
    5.9649    3.2075    0.6413 H   0  0  0  0  0  0  0  0  0  0  0  0
    6.7913    2.2397    1.9274 H   0  0  0  0  0  0  0  0  0  0  0  0
    5.6715    0.9303    0.1924 H   0  0  0  0  0  0  0  0  0  0  0  0
    4.7151   -1.2384   -0.3625 H   0  0  0  0  0  0  0  0  0  0  0  0
    1.8434   -0.8322    2.7939 H   0  0  0  0  0  0  0  0  0  0  0  0
    0.7390    0.4967    4.9575 H   0  0  0  0  0  0  0  0  0  0  0  0
   -1.6329    0.2663    4.2935 H   0  0  0  0  0  0  0  0  0  0  0  0
   -0.9281    2.9076    0.9410 H   0  0  0  0  0  0  0  0  0  0  0  0
    1.4460    3.0647    1.5777 H   0  0  0  0  0  0  0  0  0  0  0  0
   -3.4200    0.9165    2.9001 H   0  0  0  0  0  0  0  0  0  0  0  0
   -3.2845    2.2094    1.7390 H   0  0  0  0  0  0  0  0  0  0  0  0
   -2.1799   -0.6152    1.0854 H   0  0  0  0  0  0  0  0  0  0  0  0
   -4.0623    2.9025   -2.7112 H   0  0  0  0  0  0  0  0  0  0  0  0
   -2.9090    4.5324   -3.9919 H   0  0  0  0  0  0  0  0  0  0  0  0
   -2.1480    4.1312   -5.5385 H   0  0  0  0  0  0  0  0  0  0  0  0
   -3.4749    3.1143   -4.9615 H   0  0  0  0  0  0  0  0  0  0  0  0
    1.9182    0.2643   -4.5004 H   0  0  0  0  0  0  0  0  0  0  0  0
    3.0083   -1.9431   -4.2221 H   0  0  0  0  0  0  0  0  0  0  0  0
    0.5257   -2.1098    0.7312 H   0  0  0  0  0  0  0  0  0  0  0  0
    2.4628   -3.0745    1.8192 H   0  0  0  0  0  0  0  0  0  0  0  0
    3.3991   -3.1367    0.3670 H   0  0  0  0  0  0  0  0  0  0  0  0
   -1.0755   -3.6511   -0.8129 H   0  0  0  0  0  0  0  0  0  0  0  0
   -0.7343   -5.2833   -0.1799 H   0  0  0  0  0  0  0  0  0  0  0  0
   -0.8634   -3.9288    0.9303 H   0  0  0  0  0  0  0  0  0  0  0  0
    1.8004   -5.5577   -1.2840 H   0  0  0  0  0  0  0  0  0  0  0  0
    0.6342   -4.6075   -2.1848 H   0  0  0  0  0  0  0  0  0  0  0  0
    3.5221   -3.7817   -1.5969 H   0  0  0  0  0  0  0  0  0  0  0  0
    2.7589   -4.1532   -3.1366 H   0  0  0  0  0  0  0  0  0  0  0  0
   -5.1724    2.6252   -0.1648 H   0  0  0  0  0  0  0  0  0  0  0  0
   -5.6587    1.4381   -1.3876 H   0  0  0  0  0  0  0  0  0  0  0  0
   -5.4789    1.1192    1.4929 H   0  0  0  0  0  0  0  0  0  0  0  0
   -6.2316    0.0931    0.3008 H   0  0  0  0  0  0  0  0  0  0  0  0
   -5.5005   -1.8862    1.5867 H   0  0  0  0  0  0  0  0  0  0  0  0
   -3.7916   -2.1326    1.9038 H   0  0  0  0  0  0  0  0  0  0  0  0
   -4.6820   -0.8743    2.7832 H   0  0  0  0  0  0  0  0  0  0  0  0
  1  2  1  0
  2  3  1  0
  3  4  2  0
  4  5  1  0
  5  6  2  0
  6  7  1  0
  7  8  2  0
  8  9  1  0
  9 10  1  0
 10 11  2  0
 11 12  1  0
 12 13  2  0
 13 14  1  0
 14 15  2  0
 13 16  1  0
 16 17  1  0
 17 18  1  0
 18 19  2  0
 19 20  1  0
 20 21  2  0
 21 22  1  0
 22 23  1  0
 21 24  1  0
 24 25  2  0
 25 26  1  0
 26 27  1  0
 27 28  2  0
 28 29  1  0
 29 30  2  0
 30 31  1  0
 31 32  2  0
 32 33  1  0
 33 34  1  0
 33 35  1  0
 35 36  1  0
 35 37  1  0
 37 38  1  0
 28 39  1  0
 19 40  1  0
 40 41  1  0
 41 42  1  0
 42 43  1  0
  8  3  1  0
 15 10  1  0
 42 17  1  0
 34  6  1  0
 25 18  1  0
 32 27  1  0
 39 24  1  0
 38 31  1  0
  1 44  1  0
  1 45  1  0
  1 46  1  0
  4 47  1  0
  5 48  1  0
  7 49  1  0
 11 50  1  0
 12 51  1  0
 14 52  1  0
 15 53  1  0
 16 54  1  0
 16 55  1  0
 17 56  1  0
 20 57  1  0
 23 58  1  0
 23 59  1  0
 23 60  1  0
 29 61  1  0
 30 62  1  0
 33 63  1  0
 34 64  1  0
 34 65  1  0
 36 66  1  0
 36 67  1  0
 36 68  1  0
 37 69  1  0
 37 70  1  0
 38 71  1  0
 38 72  1  0
 40 73  1  0
 40 74  1  0
 41 75  1  0
 41 76  1  0
 43 77  1  0
 43 78  1  0
 43 79  1  0
M  END
$$$$
