
     RDKit          3D

 61 61  0  0  0  0  0  0  0  0999 V2000
    6.1329    0.0484   -4.5709 C   0  0  0  0  0  0  0  0  0  0  0  0
    5.6532   -0.2606   -3.1605 C   0  0  0  0  0  0  0  0  0  0  0  0
    6.7974   -0.1782   -2.1525 C   0  0  0  0  0  0  0  0  0  0  0  0
    6.4180   -0.6120   -0.7321 C   0  0  0  0  0  0  0  0  0  0  0  0
    5.3580    0.2684   -0.0589 C   0  0  0  0  0  0  0  0  0  0  0  0
    3.9518   -0.3347   -0.1362 C   0  0  0  0  0  0  0  0  0  0  0  0
    2.8535    0.6066    0.3714 C   0  0  0  0  0  0  0  0  0  0  0  0
    2.9502    0.9069    1.8675 C   0  0  0  0  0  0  0  0  0  0  0  0
    1.8781    1.8757    2.3824 C   0  0  0  0  0  0  0  0  0  0  0  0
    0.4419    1.3464    2.2898 C   0  0  0  0  0  0  0  0  0  0  0  0
   -0.3155    1.8976    1.0770 C   0  0  0  0  0  0  0  0  0  0  0  0
   -1.6900    1.2502    0.8734 C   0  0  0  0  0  0  0  0  0  0  0  0
   -2.6895    1.5828    1.9843 C   0  0  0  0  0  0  0  0  0  0  0  0
   -4.0554    0.9143    1.7928 C   0  0  0  0  0  0  0  0  0  0  0  0
   -4.8140    1.4167    0.5616 C   0  0  0  0  0  0  0  0  0  0  0  0
   -6.2413    0.8778    0.4979 C   0  0  0  0  0  0  0  0  0  0  0  0
   -6.2786   -0.5787    0.3324 N   0  0  0  0  0  0  0  0  0  0  0  0
   -6.6604   -1.5013    1.2946 C   0  0  0  0  0  0  0  0  0  0  0  0
   -6.5535   -2.7365    0.7210 C   0  0  0  0  0  0  0  0  0  0  0  0
   -6.1170   -2.5374   -0.5783 N   0  0  0  0  0  4  0  0  0  0  0  0
   -5.8628   -3.5848   -1.5589 C   0  0  0  0  0  0  0  0  0  0  0  0
   -5.9602   -1.2242   -0.8006 C   0  0  0  0  0  0  0  0  0  0  0  0
    6.8982   -0.6661   -4.8909 H   0  0  0  0  0  0  0  0  0  0  0  0
    5.2980   -0.0101   -5.2764 H   0  0  0  0  0  0  0  0  0  0  0  0
    6.5571    1.0560   -4.6287 H   0  0  0  0  0  0  0  0  0  0  0  0
    4.8663    0.4543   -2.8977 H   0  0  0  0  0  0  0  0  0  0  0  0
    5.2108   -1.2630   -3.1437 H   0  0  0  0  0  0  0  0  0  0  0  0
    7.1896    0.8461   -2.1267 H   0  0  0  0  0  0  0  0  0  0  0  0
    7.6216   -0.8180   -2.4923 H   0  0  0  0  0  0  0  0  0  0  0  0
    6.1097   -1.6642   -0.7293 H   0  0  0  0  0  0  0  0  0  0  0  0
    7.3328   -0.5592   -0.1277 H   0  0  0  0  0  0  0  0  0  0  0  0
    5.6321    0.3686    0.9981 H   0  0  0  0  0  0  0  0  0  0  0  0
    5.3695    1.2786   -0.4840 H   0  0  0  0  0  0  0  0  0  0  0  0
    3.7150   -0.5980   -1.1723 H   0  0  0  0  0  0  0  0  0  0  0  0
    3.9236   -1.2707    0.4353 H   0  0  0  0  0  0  0  0  0  0  0  0
    2.8799    1.5424   -0.1993 H   0  0  0  0  0  0  0  0  0  0  0  0
    1.8911    0.1273    0.1602 H   0  0  0  0  0  0  0  0  0  0  0  0
    3.9262    1.3517    2.0918 H   0  0  0  0  0  0  0  0  0  0  0  0
    2.8952   -0.0308    2.4339 H   0  0  0  0  0  0  0  0  0  0  0  0
    1.9715    2.8440    1.8763 H   0  0  0  0  0  0  0  0  0  0  0  0
    2.0998    2.0612    3.4417 H   0  0  0  0  0  0  0  0  0  0  0  0
   -0.0872    1.6595    3.1977 H   0  0  0  0  0  0  0  0  0  0  0  0
    0.4347    0.2503    2.2842 H   0  0  0  0  0  0  0  0  0  0  0  0
    0.2706    1.7363    0.1664 H   0  0  0  0  0  0  0  0  0  0  0  0
   -0.4337    2.9832    1.1810 H   0  0  0  0  0  0  0  0  0  0  0  0
   -1.5748    0.1629    0.7893 H   0  0  0  0  0  0  0  0  0  0  0  0
   -2.0817    1.6026   -0.0874 H   0  0  0  0  0  0  0  0  0  0  0  0
   -2.8185    2.6696    2.0533 H   0  0  0  0  0  0  0  0  0  0  0  0
   -2.2920    1.2487    2.9490 H   0  0  0  0  0  0  0  0  0  0  0  0
   -4.6581    1.1093    2.6886 H   0  0  0  0  0  0  0  0  0  0  0  0
   -3.9197   -0.1720    1.7327 H   0  0  0  0  0  0  0  0  0  0  0  0
   -4.2805    1.1272   -0.3501 H   0  0  0  0  0  0  0  0  0  0  0  0
   -4.8551    2.5122    0.5807 H   0  0  0  0  0  0  0  0  0  0  0  0
   -6.8007    1.1500    1.4001 H   0  0  0  0  0  0  0  0  0  0  0  0
   -6.7672    1.3169   -0.3579 H   0  0  0  0  0  0  0  0  0  0  0  0
   -6.9559   -1.1556    2.2703 H   0  0  0  0  0  0  0  0  0  0  0  0
   -6.7328   -3.7395    1.0688 H   0  0  0  0  0  0  0  0  0  0  0  0
   -5.5876   -3.1381   -2.5179 H   0  0  0  0  0  0  0  0  0  0  0  0
   -5.0435   -4.2148   -1.2025 H   0  0  0  0  0  0  0  0  0  0  0  0
   -6.7679   -4.1849   -1.6853 H   0  0  0  0  0  0  0  0  0  0  0  0
   -5.6328   -0.7652   -1.7267 H   0  0  0  0  0  0  0  0  0  0  0  0
  1  2  1  0
  2  3  1  0
  3  4  1  0
  4  5  1  0
  5  6  1  0
  6  7  1  0
  7  8  1  0
  8  9  1  0
  9 10  1  0
 10 11  1  0
 11 12  1  0
 12 13  1  0
 13 14  1  0
 14 15  1  0
 15 16  1  0
 16 17  1  0
 17 18  1  0
 18 19  2  0
 19 20  1  0
 20 21  1  0
 20 22  2  0
 22 17  1  0
  1 23  1  0
  1 24  1  0
  1 25  1  0
  2 26  1  0
  2 27  1  0
  3 28  1  0
  3 29  1  0
  4 30  1  0
  4 31  1  0
  5 32  1  0
  5 33  1  0
  6 34  1  0
  6 35  1  0
  7 36  1  0
  7 37  1  0
  8 38  1  0
  8 39  1  0
  9 40  1  0
  9 41  1  0
 10 42  1  0
 10 43  1  0
 11 44  1  0
 11 45  1  0
 12 46  1  0
 12 47  1  0
 13 48  1  0
 13 49  1  0
 14 50  1  0
 14 51  1  0
 15 52  1  0
 15 53  1  0
 16 54  1  0
 16 55  1  0
 18 56  1  0
 19 57  1  0
 21 58  1  0
 21 59  1  0
 21 60  1  0
 22 61  1  0
M  CHG  1  20   1
M  END
$$$$
