
     RDKit          3D

 53 56  0  0  0  0  0  0  0  0999 V2000
   -1.0855    2.0880    2.3845 C   0  0  0  0  0  0  0  0  0  0  0  0
   -1.3049    1.1504    1.2278 C   0  0  0  0  0  0  0  0  0  0  0  0
   -0.2269    0.5402    0.5716 C   0  0  0  0  0  0  0  0  0  0  0  0
    1.0312    0.8727    0.9947 O   0  0  0  0  0  0  0  0  0  0  0  0
    1.9886   -0.1842    1.1065 C   0  0  0  0  0  0  0  0  0  0  0  0
    1.6572   -1.0866    2.2953 C   0  0  0  0  0  0  0  0  0  0  0  0
    3.3817    0.4453    1.3135 C   0  0  0  0  0  0  0  0  0  0  0  0
    3.5722    1.6478    1.4795 O   0  0  0  0  0  0  0  0  0  0  0  0
    4.4231   -0.4649    1.2872 N   0  0  0  0  0  0  0  0  0  0  0  0
    5.8010   -0.0130    1.2975 C   0  0  0  0  0  0  0  0  0  0  0  0
    6.3092    0.2154   -0.1075 C   0  0  0  0  0  0  0  0  0  0  0  0
    6.2450    1.4827   -0.6831 C   0  0  0  0  0  0  0  0  0  0  0  0
    6.6937    1.6517   -1.9905 C   0  0  0  0  0  0  0  0  0  0  0  0
    7.1833    0.5557   -2.6895 C   0  0  0  0  0  0  0  0  0  0  0  0
    7.1971   -0.6734   -2.0517 C   0  0  0  0  0  0  0  0  0  0  0  0
    6.7641   -0.8719   -0.7862 N   0  0  0  0  0  0  0  0  0  0  0  0
   -0.4638   -0.3088   -0.5104 C   0  0  0  0  0  0  0  0  0  0  0  0
   -1.7731   -0.6055   -0.9091 C   0  0  0  0  0  0  0  0  0  0  0  0
   -2.8722   -0.0569   -0.2398 C   0  0  0  0  0  0  0  0  0  0  0  0
   -4.2696   -0.3368   -0.6099 C   0  0  0  0  0  0  0  0  0  0  0  0
   -5.2634    0.2921    0.0473 C   0  0  0  0  0  0  0  0  0  0  0  0
   -4.9986    1.2141    1.1798 C   0  0  0  0  0  0  0  0  0  0  0  0
   -5.9076    1.7598    1.7961 O   0  0  0  0  0  0  0  0  0  0  0  0
   -3.6745    1.4183    1.5212 O   0  0  0  0  0  0  0  0  0  0  0  0
   -2.6094    0.8178    0.8166 C   0  0  0  0  0  0  0  0  0  0  0  0
   -6.7206    0.1247   -0.3034 C   0  0  0  0  0  0  0  0  0  0  0  0
   -6.9468   -0.5505   -1.6556 C   0  0  0  0  0  0  0  0  0  0  0  0
   -6.0229   -1.7465   -1.8183 C   0  0  0  0  0  0  0  0  0  0  0  0
   -4.5554   -1.3218   -1.7223 C   0  0  0  0  0  0  0  0  0  0  0  0
   -1.1655    1.5414    3.3285 H   0  0  0  0  0  0  0  0  0  0  0  0
   -1.8203    2.8995    2.3755 H   0  0  0  0  0  0  0  0  0  0  0  0
   -0.1029    2.5701    2.3396 H   0  0  0  0  0  0  0  0  0  0  0  0
    2.0517   -0.7654    0.1799 H   0  0  0  0  0  0  0  0  0  0  0  0
    0.6774   -1.5596    2.1742 H   0  0  0  0  0  0  0  0  0  0  0  0
    1.6170   -0.5048    3.2237 H   0  0  0  0  0  0  0  0  0  0  0  0
    2.3993   -1.8803    2.4238 H   0  0  0  0  0  0  0  0  0  0  0  0
    4.2708   -1.3754    0.8724 H   0  0  0  0  0  0  0  0  0  0  0  0
    6.3940   -0.8020    1.7723 H   0  0  0  0  0  0  0  0  0  0  0  0
    5.9064    0.8924    1.9054 H   0  0  0  0  0  0  0  0  0  0  0  0
    5.8412    2.3246   -0.1262 H   0  0  0  0  0  0  0  0  0  0  0  0
    6.6555    2.6314   -2.4592 H   0  0  0  0  0  0  0  0  0  0  0  0
    7.5437    0.6569   -3.7081 H   0  0  0  0  0  0  0  0  0  0  0  0
    7.5692   -1.5600   -2.5586 H   0  0  0  0  0  0  0  0  0  0  0  0
    0.3536   -0.7316   -1.0860 H   0  0  0  0  0  0  0  0  0  0  0  0
   -1.9018   -1.2649   -1.7629 H   0  0  0  0  0  0  0  0  0  0  0  0
   -7.2033   -0.4689    0.4826 H   0  0  0  0  0  0  0  0  0  0  0  0
   -7.2217    1.1003   -0.3263 H   0  0  0  0  0  0  0  0  0  0  0  0
   -6.7613    0.1686   -2.4636 H   0  0  0  0  0  0  0  0  0  0  0  0
   -7.9927   -0.8654   -1.7419 H   0  0  0  0  0  0  0  0  0  0  0  0
   -6.2030   -2.2353   -2.7830 H   0  0  0  0  0  0  0  0  0  0  0  0
   -6.2439   -2.4881   -1.0400 H   0  0  0  0  0  0  0  0  0  0  0  0
   -4.2527   -0.8711   -2.6762 H   0  0  0  0  0  0  0  0  0  0  0  0
   -3.9631   -2.2354   -1.5876 H   0  0  0  0  0  0  0  0  0  0  0  0
  1  2  1  0
  2  3  2  0
  3  4  1  0
  4  5  1  0
  5  6  1  0
  5  7  1  0
  7  8  2  0
  7  9  1  0
  9 10  1  0
 10 11  1  0
 11 12  2  0
 12 13  1  0
 13 14  2  0
 14 15  1  0
 15 16  2  0
  3 17  1  0
 17 18  2  0
 18 19  1  0
 19 20  1  0
 20 21  2  0
 21 22  1  0
 22 23  2  0
 22 24  1  0
 24 25  1  0
 21 26  1  0
 26 27  1  0
 27 28  1  0
 28 29  1  0
 25  2  1  0
 16 11  1  0
 25 19  2  0
 29 20  1  0
  1 30  1  0
  1 31  1  0
  1 32  1  0
  5 33  1  0
  6 34  1  0
  6 35  1  0
  6 36  1  0
  9 37  1  0
 10 38  1  0
 10 39  1  0
 12 40  1  0
 13 41  1  0
 14 42  1  0
 15 43  1  0
 17 44  1  0
 18 45  1  0
 26 46  1  0
 26 47  1  0
 27 48  1  0
 27 49  1  0
 28 50  1  0
 28 51  1  0
 29 52  1  0
 29 53  1  0
M  END
$$$$
