
     RDKit          3D

 52 55  0  0  0  0  0  0  0  0999 V2000
   -3.5328   -2.0573    2.1509 C   0  0  0  0  0  0  0  0  0  0  0  0
   -3.3534   -0.6737    1.8574 O   0  0  0  0  0  0  0  0  0  0  0  0
   -4.3663    0.1350    2.3384 C   0  0  0  0  0  0  0  0  0  0  0  0
   -5.4174   -0.4690    2.9520 N   0  0  0  0  0  0  0  0  0  0  0  0
   -6.4098    0.3237    3.4088 C   0  0  0  0  0  0  0  0  0  0  0  0
   -6.4101    1.6997    3.2820 C   0  0  0  0  0  0  0  0  0  0  0  0
   -5.3251    2.2997    2.6490 C   0  0  0  0  0  0  0  0  0  0  0  0
   -4.2693    1.5162    2.1600 C   0  0  0  0  0  0  0  0  0  0  0  0
   -3.1367    2.2236    1.4946 C   0  0  0  0  0  0  0  0  0  0  0  0
   -3.1832    3.4414    1.3415 O   0  0  0  0  0  0  0  0  0  0  0  0
   -2.0660    1.4742    1.0701 N   0  0  0  0  0  0  0  0  0  0  0  0
   -0.9701    2.0518    0.3222 C   0  0  0  0  0  0  0  0  0  0  0  0
   -1.3606    2.2487   -1.1610 C   0  0  0  0  0  0  0  0  0  0  0  0
   -0.1275    2.4251   -2.0614 C   0  0  0  0  0  0  0  0  0  0  0  0
    0.7938    1.1893   -2.0263 C   0  0  0  0  0  0  0  0  0  0  0  0
    0.9984    0.7383   -0.6204 C   0  0  0  0  0  0  0  0  0  0  0  0
    0.2086    1.1445    0.4417 C   0  0  0  0  0  0  0  0  0  0  0  0
    0.8239    0.5946    1.5704 C   0  0  0  0  0  0  0  0  0  0  0  0
    1.8945   -0.1319    1.2608 N   0  0  0  0  0  0  0  0  0  0  0  0
    1.9825   -0.0958   -0.1034 N   0  0  0  0  0  0  0  0  0  0  0  0
    2.9980   -0.8681   -0.7506 C   0  0  0  0  0  0  0  0  0  0  0  0
    4.0092   -1.4485    0.0372 C   0  0  0  0  0  0  0  0  0  0  0  0
    5.0315   -2.2143   -0.5403 C   0  0  0  0  0  0  0  0  0  0  0  0
    6.1275   -2.7801    0.3139 C   0  0  0  0  0  0  0  0  0  0  0  0
    5.0482   -2.3923   -1.9264 C   0  0  0  0  0  0  0  0  0  0  0  0
    4.0351   -1.8525   -2.7264 C   0  0  0  0  0  0  0  0  0  0  0  0
    4.0615   -2.0450   -4.2153 C   0  0  0  0  0  0  0  0  0  0  0  0
    3.0171   -1.0873   -2.1326 C   0  0  0  0  0  0  0  0  0  0  0  0
   -3.5589   -2.2341    3.2317 H   0  0  0  0  0  0  0  0  0  0  0  0
   -2.6698   -2.5958    1.7472 H   0  0  0  0  0  0  0  0  0  0  0  0
   -4.4296   -2.4533    1.6620 H   0  0  0  0  0  0  0  0  0  0  0  0
   -7.2320   -0.1946    3.8946 H   0  0  0  0  0  0  0  0  0  0  0  0
   -7.2322    2.2944    3.6653 H   0  0  0  0  0  0  0  0  0  0  0  0
   -5.3038    3.3823    2.5380 H   0  0  0  0  0  0  0  0  0  0  0  0
   -2.1330    0.4618    1.1166 H   0  0  0  0  0  0  0  0  0  0  0  0
   -0.7154    3.0261    0.7581 H   0  0  0  0  0  0  0  0  0  0  0  0
   -2.0202    3.1193   -1.2575 H   0  0  0  0  0  0  0  0  0  0  0  0
   -1.9363    1.3839   -1.5189 H   0  0  0  0  0  0  0  0  0  0  0  0
    0.4317    3.3106   -1.7322 H   0  0  0  0  0  0  0  0  0  0  0  0
   -0.4433    2.6124   -3.0940 H   0  0  0  0  0  0  0  0  0  0  0  0
    0.3220    0.3845   -2.6017 H   0  0  0  0  0  0  0  0  0  0  0  0
    1.7432    1.4561   -2.5014 H   0  0  0  0  0  0  0  0  0  0  0  0
    0.5434    0.7002    2.6110 H   0  0  0  0  0  0  0  0  0  0  0  0
    4.0178   -1.2965    1.1164 H   0  0  0  0  0  0  0  0  0  0  0  0
    5.7548   -3.0305    1.3127 H   0  0  0  0  0  0  0  0  0  0  0  0
    6.5273   -3.7013   -0.1227 H   0  0  0  0  0  0  0  0  0  0  0  0
    6.9395   -2.0530    0.4106 H   0  0  0  0  0  0  0  0  0  0  0  0
    5.8520   -2.9649   -2.3853 H   0  0  0  0  0  0  0  0  0  0  0  0
    4.6292   -2.9410   -4.4879 H   0  0  0  0  0  0  0  0  0  0  0  0
    3.0468   -2.1718   -4.6072 H   0  0  0  0  0  0  0  0  0  0  0  0
    4.5236   -1.1771   -4.6958 H   0  0  0  0  0  0  0  0  0  0  0  0
    2.2417   -0.7075   -2.7838 H   0  0  0  0  0  0  0  0  0  0  0  0
  1  2  1  0
  2  3  1  0
  3  4  2  0
  4  5  1  0
  5  6  2  0
  6  7  1  0
  7  8  2  0
  8  9  1  0
  9 10  2  0
  9 11  1  0
 11 12  1  0
 12 13  1  0
 13 14  1  0
 14 15  1  0
 15 16  1  0
 16 17  2  0
 17 18  1  0
 18 19  2  0
 19 20  1  0
 20 21  1  0
 21 22  2  0
 22 23  1  0
 23 24  1  0
 23 25  2  0
 25 26  1  0
 26 27  1  0
 26 28  2  0
  8  3  1  0
 17 12  1  0
 28 21  1  0
 20 16  1  0
  1 29  1  0
  1 30  1  0
  1 31  1  0
  5 32  1  0
  6 33  1  0
  7 34  1  0
 11 35  1  0
 12 36  1  0
 13 37  1  0
 13 38  1  0
 14 39  1  0
 14 40  1  0
 15 41  1  0
 15 42  1  0
 18 43  1  0
 22 44  1  0
 24 45  1  0
 24 46  1  0
 24 47  1  0
 25 48  1  0
 27 49  1  0
 27 50  1  0
 27 51  1  0
 28 52  1  0
M  END
$$$$
