
     RDKit          3D

 57 60  0  0  0  0  0  0  0  0999 V2000
    7.7433    3.5400   -1.4823 C   0  0  0  0  0  0  0  0  0  0  0  0
    6.3314    3.0286   -1.6924 C   0  0  0  0  0  0  0  0  0  0  0  0
    6.1555    1.8568   -0.8863 O   0  0  0  0  0  0  0  0  0  0  0  0
    4.9322    1.2707   -1.0131 C   0  0  0  0  0  0  0  0  0  0  0  0
    4.0245    1.6783   -1.7242 O   0  0  0  0  0  0  0  0  0  0  0  0
    4.8491    0.0492   -0.1177 C   0  0  0  0  0  0  0  0  0  0  0  0
    3.8285   -0.9575   -0.6652 C   0  0  0  0  0  0  0  0  0  0  0  0
    2.4311   -0.6823   -0.1245 C   0  0  0  0  0  0  0  0  0  0  0  0
    2.3909   -0.7725    1.3640 N   0  0  0  0  0  0  0  0  0  0  0  0
    1.5108   -2.0903    2.0114 S   0  0  0  0  0  6  0  0  0  0  0  0
    1.9997   -3.2902    1.3650 O   0  0  0  0  0  0  0  0  0  0  0  0
    1.5088   -1.9647    3.4538 O   0  0  0  0  0  0  0  0  0  0  0  0
   -0.1442   -1.7679    1.4512 C   0  0  0  0  0  0  0  0  0  0  0  0
   -0.7353   -2.6018    0.4885 C   0  0  0  0  0  0  0  0  0  0  0  0
   -2.0381   -2.3484    0.0463 C   0  0  0  0  0  0  0  0  0  0  0  0
   -2.7283   -1.2739    0.5858 C   0  0  0  0  0  0  0  0  0  0  0  0
   -2.1375   -0.4615    1.5572 C   0  0  0  0  0  0  0  0  0  0  0  0
   -0.8439   -0.6906    2.0032 C   0  0  0  0  0  0  0  0  0  0  0  0
   -3.0654    0.6213    2.0033 C   0  0  0  0  0  0  0  0  0  0  0  0
   -4.3231    0.3292    1.1752 C   0  0  0  0  0  0  0  0  0  0  0  0
   -4.0328   -0.8243    0.3076 N   0  0  0  0  0  0  0  0  0  0  0  0
   -4.9059   -1.3710   -0.6287 C   0  0  0  0  0  0  0  0  0  0  0  0
   -4.6083   -2.3350   -1.3442 O   0  0  0  0  0  0  0  0  0  0  0  0
   -6.3031   -0.6918   -0.7273 C   0  0  0  0  0  0  0  0  0  0  0  0
   -6.4199    0.5902   -1.5998 C   0  0  0  0  0  0  0  0  0  0  0  0
   -7.8198    0.1052   -2.0189 C   0  0  0  0  0  0  0  0  0  0  0  0
   -7.3417   -1.3229   -1.7035 C   0  0  0  0  0  0  0  0  0  0  0  0
    3.6964   -0.5567    2.0435 C   0  0  0  0  0  0  0  0  0  0  0  0
    4.5148    0.4955    1.3087 C   0  0  0  0  0  0  0  0  0  0  0  0
    8.4753    2.7652   -1.7377 H   0  0  0  0  0  0  0  0  0  0  0  0
    7.9346    4.4249   -2.0959 H   0  0  0  0  0  0  0  0  0  0  0  0
    7.9063    3.7978   -0.4304 H   0  0  0  0  0  0  0  0  0  0  0  0
    6.1829    2.7765   -2.7484 H   0  0  0  0  0  0  0  0  0  0  0  0
    5.6092    3.7961   -1.3900 H   0  0  0  0  0  0  0  0  0  0  0  0
    5.8298   -0.4452   -0.1408 H   0  0  0  0  0  0  0  0  0  0  0  0
    4.1319   -1.9705   -0.3694 H   0  0  0  0  0  0  0  0  0  0  0  0
    3.8129   -0.9468   -1.7621 H   0  0  0  0  0  0  0  0  0  0  0  0
    1.7309   -1.3846   -0.5863 H   0  0  0  0  0  0  0  0  0  0  0  0
    2.0894    0.3201   -0.4070 H   0  0  0  0  0  0  0  0  0  0  0  0
   -0.1901   -3.4476    0.0773 H   0  0  0  0  0  0  0  0  0  0  0  0
   -2.4819   -2.9988   -0.7002 H   0  0  0  0  0  0  0  0  0  0  0  0
   -0.3873   -0.0562    2.7575 H   0  0  0  0  0  0  0  0  0  0  0  0
   -3.2739    0.5516    3.0759 H   0  0  0  0  0  0  0  0  0  0  0  0
   -2.6606    1.6118    1.7700 H   0  0  0  0  0  0  0  0  0  0  0  0
   -4.6002    1.1905    0.5584 H   0  0  0  0  0  0  0  0  0  0  0  0
   -5.1731    0.0819    1.8220 H   0  0  0  0  0  0  0  0  0  0  0  0
   -6.7587   -0.5601    0.2644 H   0  0  0  0  0  0  0  0  0  0  0  0
   -6.4022    1.5394   -1.0587 H   0  0  0  0  0  0  0  0  0  0  0  0
   -5.7009    0.6388   -2.4258 H   0  0  0  0  0  0  0  0  0  0  0  0
   -8.6236    0.4565   -1.3622 H   0  0  0  0  0  0  0  0  0  0  0  0
   -8.0981    0.2957   -3.0579 H   0  0  0  0  0  0  0  0  0  0  0  0
   -8.0875   -1.9772   -1.2429 H   0  0  0  0  0  0  0  0  0  0  0  0
   -6.9070   -1.8371   -2.5688 H   0  0  0  0  0  0  0  0  0  0  0  0
    3.5078   -0.2040    3.0640 H   0  0  0  0  0  0  0  0  0  0  0  0
    4.2580   -1.4972    2.1032 H   0  0  0  0  0  0  0  0  0  0  0  0
    5.4454    0.6903    1.8555 H   0  0  0  0  0  0  0  0  0  0  0  0
    3.9609    1.4441    1.2998 H   0  0  0  0  0  0  0  0  0  0  0  0
  1  2  1  0
  2  3  1  0
  3  4  1  0
  4  5  2  0
  4  6  1  0
  6  7  1  0
  7  8  1  0
  8  9  1  0
  9 10  1  0
 10 11  2  0
 10 12  2  0
 10 13  1  0
 13 14  2  0
 14 15  1  0
 15 16  2  0
 16 17  1  0
 17 18  2  0
 17 19  1  0
 19 20  1  0
 20 21  1  0
 21 22  1  0
 22 23  2  0
 22 24  1  0
 24 25  1  0
 25 26  1  0
 26 27  1  0
  9 28  1  0
 28 29  1  0
 29  6  1  0
 18 13  1  0
 27 24  1  0
 21 16  1  0
  1 30  1  0
  1 31  1  0
  1 32  1  0
  2 33  1  0
  2 34  1  0
  6 35  1  0
  7 36  1  0
  7 37  1  0
  8 38  1  0
  8 39  1  0
 14 40  1  0
 15 41  1  0
 18 42  1  0
 19 43  1  0
 19 44  1  0
 20 45  1  0
 20 46  1  0
 24 47  1  0
 25 48  1  0
 25 49  1  0
 26 50  1  0
 26 51  1  0
 27 52  1  0
 27 53  1  0
 28 54  1  0
 28 55  1  0
 29 56  1  0
 29 57  1  0
M  END
$$$$
