
     RDKit          3D

 49 52  0  0  0  0  0  0  0  0999 V2000
   -4.3114    3.9990   -2.5714 C   0  0  0  0  0  0  0  0  0  0  0  0
   -3.2831    3.6571   -1.5110 C   0  0  0  0  0  0  0  0  0  0  0  0
   -3.1352    2.2319   -1.4748 O   0  0  0  0  0  0  0  0  0  0  0  0
   -2.2243    1.7844   -0.5585 C   0  0  0  0  0  0  0  0  0  0  0  0
   -1.5846    2.5107    0.1886 O   0  0  0  0  0  0  0  0  0  0  0  0
   -2.1933    0.2671   -0.5890 C   0  0  0  0  0  0  0  0  0  0  0  0
   -0.9405   -0.4386   -0.0913 C   0  0  0  0  0  0  0  0  0  0  0  0
    0.2892    0.2433   -0.1918 C   0  0  0  0  0  0  0  0  0  0  0  0
    1.4380   -0.2968    0.3593 C   0  0  0  0  0  0  0  0  0  0  0  0
    2.7578    0.3679    0.3104 C   0  0  0  0  0  0  0  0  0  0  0  0
    3.1454    1.1936   -0.7604 C   0  0  0  0  0  0  0  0  0  0  0  0
    4.4014    1.8192   -0.7917 C   0  0  0  0  0  0  0  0  0  0  0  0
    5.3061    1.6304    0.2500 C   0  0  0  0  0  0  0  0  0  0  0  0
    6.5550    2.1781    0.3437 O   0  0  0  0  0  0  0  0  0  0  0  0
    6.9650    3.0288   -0.7190 C   0  0  0  0  0  0  0  0  0  0  0  0
    4.9449    0.8089    1.3161 C   0  0  0  0  0  0  0  0  0  0  0  0
    3.6923    0.1857    1.3445 C   0  0  0  0  0  0  0  0  0  0  0  0
    1.3960   -1.4732    1.0115 N   0  0  0  0  0  0  0  0  0  0  0  0
    0.2530   -2.1677    1.0628 C   0  0  0  0  0  0  0  0  0  0  0  0
    0.3407   -3.3508    1.7643 C   0  0  0  0  0  0  0  0  0  0  0  0
   -0.7404   -4.2092    1.9025 C   0  0  0  0  0  0  0  0  0  0  0  0
   -1.9448   -3.9258    1.2722 C   0  0  0  0  0  0  0  0  0  0  0  0
   -2.9908   -4.8578    1.3908 C   0  0  0  0  0  0  0  0  0  0  0  0
   -4.1983   -4.6705    0.7315 C   0  0  0  0  0  0  0  0  0  0  0  0
   -4.3581   -3.5572   -0.0718 C   0  0  0  0  0  0  0  0  0  0  0  0
   -3.3213   -2.6216   -0.1841 C   0  0  0  0  0  0  0  0  0  0  0  0
   -2.0861   -2.7328    0.5125 C   0  0  0  0  0  0  0  0  0  0  0  0
   -0.9729   -1.7691    0.4705 C   0  0  0  0  0  0  0  0  0  0  0  0
   -3.9941    3.6256   -3.5507 H   0  0  0  0  0  0  0  0  0  0  0  0
   -5.2714    3.5233   -2.3451 H   0  0  0  0  0  0  0  0  0  0  0  0
   -4.4597    5.0805   -2.6368 H   0  0  0  0  0  0  0  0  0  0  0  0
   -2.3234    4.1221   -1.7626 H   0  0  0  0  0  0  0  0  0  0  0  0
   -3.6247    4.0178   -0.5343 H   0  0  0  0  0  0  0  0  0  0  0  0
   -3.0393   -0.0079    0.0489 H   0  0  0  0  0  0  0  0  0  0  0  0
   -2.3639   -0.0573   -1.6220 H   0  0  0  0  0  0  0  0  0  0  0  0
    0.3441    1.2222   -0.6577 H   0  0  0  0  0  0  0  0  0  0  0  0
    2.4777    1.3519   -1.6042 H   0  0  0  0  0  0  0  0  0  0  0  0
    4.6377    2.4416   -1.6480 H   0  0  0  0  0  0  0  0  0  0  0  0
    7.9743    3.3854   -0.4915 H   0  0  0  0  0  0  0  0  0  0  0  0
    7.0110    2.4823   -1.6668 H   0  0  0  0  0  0  0  0  0  0  0  0
    6.3126    3.9047   -0.7982 H   0  0  0  0  0  0  0  0  0  0  0  0
    5.6415    0.6479    2.1351 H   0  0  0  0  0  0  0  0  0  0  0  0
    3.4436   -0.4500    2.1931 H   0  0  0  0  0  0  0  0  0  0  0  0
    1.2878   -3.6177    2.2301 H   0  0  0  0  0  0  0  0  0  0  0  0
   -0.6085   -5.1211    2.4810 H   0  0  0  0  0  0  0  0  0  0  0  0
   -2.8648   -5.7557    1.9936 H   0  0  0  0  0  0  0  0  0  0  0  0
   -4.9952   -5.4025    0.8258 H   0  0  0  0  0  0  0  0  0  0  0  0
   -5.2819   -3.4130   -0.6264 H   0  0  0  0  0  0  0  0  0  0  0  0
   -3.5033   -1.8153   -0.8830 H   0  0  0  0  0  0  0  0  0  0  0  0
  1  2  1  0
  2  3  1  0
  3  4  1  0
  4  5  2  0
  4  6  1  0
  6  7  1  0
  7  8  2  0
  8  9  1  0
  9 10  1  0
 10 11  2  0
 11 12  1  0
 12 13  2  0
 13 14  1  0
 14 15  1  0
 13 16  1  0
 16 17  2  0
  9 18  2  0
 18 19  1  0
 19 20  2  0
 20 21  1  0
 21 22  2  0
 22 23  1  0
 23 24  2  0
 24 25  1  0
 25 26  2  0
 26 27  1  0
 27 28  2  0
 28  7  1  0
 17 10  1  0
 28 19  1  0
 27 22  1  0
  1 29  1  0
  1 30  1  0
  1 31  1  0
  2 32  1  0
  2 33  1  0
  6 34  1  0
  6 35  1  0
  8 36  1  0
 11 37  1  0
 12 38  1  0
 15 39  1  0
 15 40  1  0
 15 41  1  0
 16 42  1  0
 17 43  1  0
 20 44  1  0
 21 45  1  0
 23 46  1  0
 24 47  1  0
 25 48  1  0
 26 49  1  0
M  END
$$$$
