
     RDKit          3D

 38 39  0  0  0  0  0  0  0  0999 V2000
    0.3382    0.5348   -1.8425 O   0  0  0  0  0  0  0  0  0  0  0  0
    1.0888    0.3481   -0.8981 C   0  0  0  0  0  0  0  0  0  0  0  0
    2.3059    0.9534   -0.7154 N   0  0  0  0  0  0  0  0  0  0  0  0
    2.8823    1.8338   -1.7111 C   0  0  0  0  0  0  0  0  0  0  0  0
    3.5879    1.0501   -2.8197 C   0  0  0  0  0  0  0  0  0  0  0  0
    4.6883    0.3086   -2.2905 O   0  0  0  0  0  0  0  0  0  0  0  0
    0.7139   -0.6794    0.1608 C   0  0  0  0  0  0  0  0  0  0  0  0
    0.4092   -2.0603   -0.3732 C   0  0  0  0  0  0  0  0  0  0  0  0
   -1.0705   -2.3589   -0.3575 C   0  0  0  0  0  0  0  0  0  0  0  0
   -1.6652   -2.9408    0.7717 C   0  0  0  0  0  0  0  0  0  0  0  0
   -3.0400   -3.1833    0.8026 C   0  0  0  0  0  0  0  0  0  0  0  0
   -3.8267   -2.8403   -0.2947 C   0  0  0  0  0  0  0  0  0  0  0  0
   -5.6888   -3.1613   -0.2512 Br  0  0  0  0  0  0  0  0  0  0  0  0
   -3.2517   -2.2568   -1.4213 C   0  0  0  0  0  0  0  0  0  0  0  0
   -1.8767   -2.0137   -1.4510 C   0  0  0  0  0  0  0  0  0  0  0  0
    0.6234   -0.4454    1.4387 N   0  0  0  0  0  0  0  0  0  0  0  0
    0.8804    0.8239    1.8822 C   0  0  0  0  0  0  0  0  0  0  0  0
    2.0251    1.2532    1.9936 O   0  0  0  0  0  0  0  0  0  0  0  0
   -0.3076    1.5889    2.2422 C   0  0  0  0  0  0  0  0  0  0  0  0
   -0.3286    2.8707    2.7674 C   0  0  0  0  0  0  0  0  0  0  0  0
   -1.6494    3.3476    3.0098 C   0  0  0  0  0  0  0  0  0  0  0  0
   -2.6014    2.4179    2.6601 C   0  0  0  0  0  0  0  0  0  0  0  0
   -1.9021    0.9834    2.0510 S   0  0  0  0  0  0  0  0  0  0  0  0
    2.8560    0.7216    0.1098 H   0  0  0  0  0  0  0  0  0  0  0  0
    2.0896    2.4564   -2.1384 H   0  0  0  0  0  0  0  0  0  0  0  0
    3.5953    2.4761   -1.1839 H   0  0  0  0  0  0  0  0  0  0  0  0
    3.9704    1.7294   -3.5877 H   0  0  0  0  0  0  0  0  0  0  0  0
    2.9061    0.3400   -3.2969 H   0  0  0  0  0  0  0  0  0  0  0  0
    5.3379    0.9494   -1.9544 H   0  0  0  0  0  0  0  0  0  0  0  0
    0.8054   -2.1691   -1.3900 H   0  0  0  0  0  0  0  0  0  0  0  0
    0.9440   -2.7950    0.2414 H   0  0  0  0  0  0  0  0  0  0  0  0
   -1.0596   -3.1958    1.6402 H   0  0  0  0  0  0  0  0  0  0  0  0
   -3.4855   -3.6310    1.6865 H   0  0  0  0  0  0  0  0  0  0  0  0
   -3.8613   -1.9810   -2.2772 H   0  0  0  0  0  0  0  0  0  0  0  0
   -1.4415   -1.5431   -2.3315 H   0  0  0  0  0  0  0  0  0  0  0  0
    0.5729    3.4379    2.9736 H   0  0  0  0  0  0  0  0  0  0  0  0
   -1.8874    4.3208    3.4206 H   0  0  0  0  0  0  0  0  0  0  0  0
   -3.6768    2.5090    2.7338 H   0  0  0  0  0  0  0  0  0  0  0  0
  1  2  2  0
  2  3  1  0
  3  4  1  0
  4  5  1  0
  5  6  1  0
  2  7  1  0
  7  8  1  0
  8  9  1  0
  9 10  2  0
 10 11  1  0
 11 12  2  0
 12 13  1  0
 12 14  1  0
 14 15  2  0
  7 16  2  3
 16 17  1  0
 17 18  2  0
 17 19  1  0
 19 20  2  0
 20 21  1  0
 21 22  2  0
 22 23  1  0
 15  9  1  0
 23 19  1  0
  3 24  1  0
  4 25  1  0
  4 26  1  0
  5 27  1  0
  5 28  1  0
  6 29  1  0
  8 30  1  0
  8 31  1  0
 10 32  1  0
 11 33  1  0
 14 34  1  0
 15 35  1  0
 20 36  1  0
 21 37  1  0
 22 38  1  0
M  END
$$$$
