
     RDKit          3D

 51 54  0  0  0  0  0  0  0  0999 V2000
    7.2874   -2.6063    1.8348 C   0  0  0  0  0  0  0  0  0  0  0  0
    6.1372   -2.0077    1.0804 C   0  0  0  0  0  0  0  0  0  0  0  0
    6.1693   -1.9315   -0.3162 C   0  0  0  0  0  0  0  0  0  0  0  0
    5.0859   -1.4029   -1.0211 C   0  0  0  0  0  0  0  0  0  0  0  0
    3.9477   -0.9467   -0.3422 C   0  0  0  0  0  0  0  0  0  0  0  0
    2.7774   -0.3920   -1.1155 C   0  0  0  0  0  0  0  0  0  0  0  0
    2.0832   -1.4510   -1.8335 N   0  0  0  0  0  0  0  0  0  0  0  0
    0.9790   -1.0629   -3.0197 S   0  0  0  0  0  6  0  0  0  0  0  0
    0.3647   -2.3018   -3.4411 O   0  0  0  0  0  0  0  0  0  0  0  0
    1.6204   -0.1683   -3.9568 O   0  0  0  0  0  0  0  0  0  0  0  0
   -0.2445   -0.1372   -2.1220 C   0  0  0  0  0  0  0  0  0  0  0  0
   -1.1871   -0.8259   -1.3424 C   0  0  0  0  0  0  0  0  0  0  0  0
   -2.1693   -0.1217   -0.6319 C   0  0  0  0  0  0  0  0  0  0  0  0
   -2.2046    1.2599   -0.7212 C   0  0  0  0  0  0  0  0  0  0  0  0
   -1.2528    1.9309   -1.5029 C   0  0  0  0  0  0  0  0  0  0  0  0
   -0.2757    1.2540   -2.2209 C   0  0  0  0  0  0  0  0  0  0  0  0
   -1.4741    3.4105   -1.4867 C   0  0  0  0  0  0  0  0  0  0  0  0
   -2.5287    3.5480   -0.3903 C   0  0  0  0  0  0  0  0  0  0  0  0
   -3.0538    2.2017   -0.1129 N   0  0  0  0  0  0  0  0  0  0  0  0
   -4.1697    2.0721    0.7089 C   0  0  0  0  0  0  0  0  0  0  0  0
   -4.6282    3.0851    1.2642 O   0  0  0  0  0  0  0  0  0  0  0  0
   -4.8548    0.6965    0.8820 C   0  0  0  0  0  0  0  0  0  0  0  0
   -6.3250    0.6948    1.4079 C   0  0  0  0  0  0  0  0  0  0  0  0
   -5.9791   -0.5897    2.1815 C   0  0  0  0  0  0  0  0  0  0  0  0
   -4.5143   -0.1177    2.1654 C   0  0  0  0  0  0  0  0  0  0  0  0
    3.9082   -1.0440    1.0546 C   0  0  0  0  0  0  0  0  0  0  0  0
    4.9933   -1.5726    1.7588 C   0  0  0  0  0  0  0  0  0  0  0  0
    7.1444   -3.6861    1.9397 H   0  0  0  0  0  0  0  0  0  0  0  0
    8.2334   -2.4229    1.3146 H   0  0  0  0  0  0  0  0  0  0  0  0
    7.3741   -2.1618    2.8318 H   0  0  0  0  0  0  0  0  0  0  0  0
    7.0386   -2.2852   -0.8663 H   0  0  0  0  0  0  0  0  0  0  0  0
    5.1288   -1.3548   -2.1080 H   0  0  0  0  0  0  0  0  0  0  0  0
    3.1436    0.3772   -1.8045 H   0  0  0  0  0  0  0  0  0  0  0  0
    2.0830    0.0928   -0.4205 H   0  0  0  0  0  0  0  0  0  0  0  0
    1.9468   -2.3476   -1.3725 H   0  0  0  0  0  0  0  0  0  0  0  0
   -1.1635   -1.9131   -1.2866 H   0  0  0  0  0  0  0  0  0  0  0  0
   -2.8577   -0.6932   -0.0279 H   0  0  0  0  0  0  0  0  0  0  0  0
    0.4347    1.7946   -2.8404 H   0  0  0  0  0  0  0  0  0  0  0  0
   -0.5656    3.9686   -1.2437 H   0  0  0  0  0  0  0  0  0  0  0  0
   -1.8668    3.7426   -2.4533 H   0  0  0  0  0  0  0  0  0  0  0  0
   -2.0879    3.9337    0.5375 H   0  0  0  0  0  0  0  0  0  0  0  0
   -3.3397    4.2230   -0.6858 H   0  0  0  0  0  0  0  0  0  0  0  0
   -4.8223    0.1007   -0.0396 H   0  0  0  0  0  0  0  0  0  0  0  0
   -7.1002    0.5871    0.6443 H   0  0  0  0  0  0  0  0  0  0  0  0
   -6.5857    1.5376    2.0585 H   0  0  0  0  0  0  0  0  0  0  0  0
   -6.4367   -0.6902    3.1686 H   0  0  0  0  0  0  0  0  0  0  0  0
   -6.1526   -1.5090    1.6105 H   0  0  0  0  0  0  0  0  0  0  0  0
   -4.2394    0.5008    3.0282 H   0  0  0  0  0  0  0  0  0  0  0  0
   -3.7745   -0.9142    2.0576 H   0  0  0  0  0  0  0  0  0  0  0  0
    3.0332   -0.7115    1.6085 H   0  0  0  0  0  0  0  0  0  0  0  0
    4.9404   -1.6429    2.8431 H   0  0  0  0  0  0  0  0  0  0  0  0
  1  2  1  0
  2  3  2  0
  3  4  1  0
  4  5  2  0
  5  6  1  0
  6  7  1  0
  7  8  1  0
  8  9  2  0
  8 10  2  0
  8 11  1  0
 11 12  2  0
 12 13  1  0
 13 14  2  0
 14 15  1  0
 15 16  2  0
 15 17  1  0
 17 18  1  0
 18 19  1  0
 19 20  1  0
 20 21  2  0
 20 22  1  0
 22 23  1  0
 23 24  1  0
 24 25  1  0
  5 26  1  0
 26 27  2  0
 27  2  1  0
 16 11  1  0
 25 22  1  0
 19 14  1  0
  1 28  1  0
  1 29  1  0
  1 30  1  0
  3 31  1  0
  4 32  1  0
  6 33  1  0
  6 34  1  0
  7 35  1  0
 12 36  1  0
 13 37  1  0
 16 38  1  0
 17 39  1  0
 17 40  1  0
 18 41  1  0
 18 42  1  0
 22 43  1  0
 23 44  1  0
 23 45  1  0
 24 46  1  0
 24 47  1  0
 25 48  1  0
 25 49  1  0
 26 50  1  0
 27 51  1  0
M  END
$$$$
