
     RDKit          3D

 39 40  0  0  0  0  0  0  0  0999 V2000
   -3.4342   -0.7083    2.9612 C   0  0  0  0  0  0  0  0  0  0  0  0
   -2.5066    0.1990    2.1699 C   0  0  0  0  0  0  0  0  0  0  0  0
   -2.1046   -0.4405    0.8409 C   0  0  0  0  0  0  0  0  0  0  0  0
   -1.1463    0.4588    0.0562 C   0  0  0  0  0  0  0  0  0  0  0  0
   -0.7921   -0.1444   -1.2127 N   0  0  0  0  0  0  0  0  0  0  0  0
   -1.5817   -0.2985   -2.3045 C   0  0  0  0  0  0  0  0  0  0  0  0
   -2.6001    0.5568   -2.5042 N   0  0  0  0  0  0  0  0  0  0  0  0
   -1.2923   -1.2537   -3.1381 N   0  0  0  0  0  0  0  0  0  0  0  0
   -0.1529   -1.9635   -2.4911 C   0  0  0  0  0  0  0  0  0  0  0  0
    0.3152   -1.0895   -1.3036 C   0  0  0  0  0  0  0  0  0  0  0  0
    1.6398   -0.3824   -1.6471 C   0  0  0  0  0  0  0  0  0  0  0  0
    2.3008    0.2887   -0.4634 C   0  0  0  0  0  0  0  0  0  0  0  0
    2.2759    1.6853   -0.3359 C   0  0  0  0  0  0  0  0  0  0  0  0
    2.8767    2.3049    0.7607 C   0  0  0  0  0  0  0  0  0  0  0  0
    3.5075    1.5324    1.7286 C   0  0  0  0  0  0  0  0  0  0  0  0
    4.0835    2.1792    2.7819 O   0  0  0  0  0  0  0  0  0  0  0  0
    3.5462    0.1461    1.6203 C   0  0  0  0  0  0  0  0  0  0  0  0
    2.9418   -0.4742    0.5241 C   0  0  0  0  0  0  0  0  0  0  0  0
   -3.7087   -0.2367    3.9097 H   0  0  0  0  0  0  0  0  0  0  0  0
   -2.9475   -1.6616    3.1891 H   0  0  0  0  0  0  0  0  0  0  0  0
   -4.3536   -0.9141    2.4042 H   0  0  0  0  0  0  0  0  0  0  0  0
   -1.6124    0.4083    2.7686 H   0  0  0  0  0  0  0  0  0  0  0  0
   -3.0082    1.1556    1.9866 H   0  0  0  0  0  0  0  0  0  0  0  0
   -3.0035   -0.6443    0.2468 H   0  0  0  0  0  0  0  0  0  0  0  0
   -1.6289   -1.4110    1.0299 H   0  0  0  0  0  0  0  0  0  0  0  0
   -1.5982    1.4436   -0.1129 H   0  0  0  0  0  0  0  0  0  0  0  0
   -0.2508    0.6367    0.6592 H   0  0  0  0  0  0  0  0  0  0  0  0
   -3.1516    0.7455   -1.6810 H   0  0  0  0  0  0  0  0  0  0  0  0
   -3.1780    0.2441   -3.2766 H   0  0  0  0  0  0  0  0  0  0  0  0
   -0.5130   -2.9343   -2.1303 H   0  0  0  0  0  0  0  0  0  0  0  0
    0.6386   -2.1455   -3.2249 H   0  0  0  0  0  0  0  0  0  0  0  0
    0.4104   -1.7068   -0.4025 H   0  0  0  0  0  0  0  0  0  0  0  0
    1.4843    0.3543   -2.4465 H   0  0  0  0  0  0  0  0  0  0  0  0
    2.3573   -1.1117   -2.0482 H   0  0  0  0  0  0  0  0  0  0  0  0
    1.7814    2.2961   -1.0885 H   0  0  0  0  0  0  0  0  0  0  0  0
    2.8546    3.3867    0.8578 H   0  0  0  0  0  0  0  0  0  0  0  0
    4.5322    1.5214    3.3388 H   0  0  0  0  0  0  0  0  0  0  0  0
    4.0385   -0.4641    2.3704 H   0  0  0  0  0  0  0  0  0  0  0  0
    2.9802   -1.5581    0.4421 H   0  0  0  0  0  0  0  0  0  0  0  0
  1  2  1  0
  2  3  1  0
  3  4  1  0
  4  5  1  0
  5  6  1  0
  6  7  1  0
  6  8  2  0
  8  9  1  0
  9 10  1  0
 10 11  1  0
 11 12  1  0
 12 13  2  0
 13 14  1  0
 14 15  2  0
 15 16  1  0
 15 17  1  0
 17 18  2  0
 10  5  1  0
 18 12  1  0
  1 19  1  0
  1 20  1  0
  1 21  1  0
  2 22  1  0
  2 23  1  0
  3 24  1  0
  3 25  1  0
  4 26  1  0
  4 27  1  0
  7 28  1  0
  7 29  1  0
  9 30  1  0
  9 31  1  0
 10 32  1  0
 11 33  1  0
 11 34  1  0
 13 35  1  0
 14 36  1  0
 16 37  1  0
 17 38  1  0
 18 39  1  0
M  END
$$$$
