
     RDKit          3D

 46 48  0  0  0  0  0  0  0  0999 V2000
    7.0638    3.1386   -2.1387 C   0  0  0  0  0  0  0  0  0  0  0  0
    6.8104    1.7571   -2.3568 O   0  0  0  0  0  0  0  0  0  0  0  0
    5.4547    1.4801   -2.7002 C   0  0  0  0  0  0  0  0  0  0  0  0
    4.5303    1.4793   -1.4854 C   0  0  0  0  0  0  0  0  0  0  0  0
    3.2165    1.0911   -1.9085 O   0  0  0  0  0  0  0  0  0  0  0  0
    2.2850    1.0761   -0.9115 C   0  0  0  0  0  0  0  0  0  0  0  0
    2.5259    1.3877    0.2488 O   0  0  0  0  0  0  0  0  0  0  0  0
    0.9678    0.6622   -1.3651 C   0  0  0  0  0  0  0  0  0  0  0  0
    0.5807    0.3493   -2.6613 C   0  0  0  0  0  0  0  0  0  0  0  0
    1.2803    0.3096   -3.9652 C   0  0  0  0  0  0  0  0  0  0  0  0
   -0.7394    0.0130   -2.6989 O   0  0  0  0  0  0  0  0  0  0  0  0
   -1.2164    0.0986   -1.4314 C   0  0  0  0  0  0  0  0  0  0  0  0
   -2.5274   -0.1722   -1.0465 C   0  0  0  0  0  0  0  0  0  0  0  0
   -2.8215   -0.0298    0.3135 C   0  0  0  0  0  0  0  0  0  0  0  0
   -1.8395    0.3699    1.2221 C   0  0  0  0  0  0  0  0  0  0  0  0
   -2.1596    0.4565    2.6059 N   0  0  0  0  0  0  0  0  0  0  0  0
   -2.0176   -0.9518    3.5363 S   0  0  0  0  0  6  0  0  0  0  0  0
   -0.9397   -1.7671    3.0214 O   0  0  0  0  0  0  0  0  0  0  0  0
   -2.0375   -0.5217    4.9187 O   0  0  0  0  0  0  0  0  0  0  0  0
   -3.5598   -1.7779    3.2253 C   0  0  0  0  0  0  0  0  0  0  0  0
   -3.5898   -2.9103    2.4023 C   0  0  0  0  0  0  0  0  0  0  0  0
   -4.8046   -3.5574    2.1739 C   0  0  0  0  0  0  0  0  0  0  0  0
   -5.9647   -3.0751    2.7740 C   0  0  0  0  0  0  0  0  0  0  0  0
   -7.1286   -3.6988    2.5510 F   0  0  0  0  0  0  0  0  0  0  0  0
   -5.9363   -1.9572    3.6036 C   0  0  0  0  0  0  0  0  0  0  0  0
   -4.7263   -1.3031    3.8373 C   0  0  0  0  0  0  0  0  0  0  0  0
   -0.5266    0.6296    0.8051 C   0  0  0  0  0  0  0  0  0  0  0  0
   -0.2089    0.4950   -0.5623 C   0  0  0  0  0  0  0  0  0  0  0  0
    6.5158    3.5037   -1.2662 H   0  0  0  0  0  0  0  0  0  0  0  0
    8.1333    3.2634   -1.9483 H   0  0  0  0  0  0  0  0  0  0  0  0
    6.7988    3.7238   -3.0244 H   0  0  0  0  0  0  0  0  0  0  0  0
    5.0971    2.1753   -3.4697 H   0  0  0  0  0  0  0  0  0  0  0  0
    5.4333    0.4858   -3.1613 H   0  0  0  0  0  0  0  0  0  0  0  0
    4.9069    0.7748   -0.7342 H   0  0  0  0  0  0  0  0  0  0  0  0
    4.4924    2.4781   -1.0366 H   0  0  0  0  0  0  0  0  0  0  0  0
    1.6937    1.2928   -4.2098 H   0  0  0  0  0  0  0  0  0  0  0  0
    2.0967   -0.4185   -3.9409 H   0  0  0  0  0  0  0  0  0  0  0  0
    0.5994    0.0225   -4.7731 H   0  0  0  0  0  0  0  0  0  0  0  0
   -3.2752   -0.4775   -1.7684 H   0  0  0  0  0  0  0  0  0  0  0  0
   -3.8364   -0.2230    0.6524 H   0  0  0  0  0  0  0  0  0  0  0  0
   -1.7814    1.2522    3.1207 H   0  0  0  0  0  0  0  0  0  0  0  0
   -2.6806   -3.2880    1.9388 H   0  0  0  0  0  0  0  0  0  0  0  0
   -4.8546   -4.4356    1.5372 H   0  0  0  0  0  0  0  0  0  0  0  0
   -6.8550   -1.6080    4.0651 H   0  0  0  0  0  0  0  0  0  0  0  0
   -4.6962   -0.4345    4.4916 H   0  0  0  0  0  0  0  0  0  0  0  0
    0.2409    0.9129    1.5199 H   0  0  0  0  0  0  0  0  0  0  0  0
  1  2  1  0
  2  3  1  0
  3  4  1  0
  4  5  1  0
  5  6  1  0
  6  7  2  0
  6  8  1  0
  8  9  2  0
  9 10  1  0
  9 11  1  0
 11 12  1  0
 12 13  2  0
 13 14  1  0
 14 15  2  0
 15 16  1  0
 16 17  1  0
 17 18  2  0
 17 19  2  0
 17 20  1  0
 20 21  2  0
 21 22  1  0
 22 23  2  0
 23 24  1  0
 23 25  1  0
 25 26  2  0
 15 27  1  0
 27 28  2  0
 28  8  1  0
 28 12  1  0
 26 20  1  0
  1 29  1  0
  1 30  1  0
  1 31  1  0
  3 32  1  0
  3 33  1  0
  4 34  1  0
  4 35  1  0
 10 36  1  0
 10 37  1  0
 10 38  1  0
 13 39  1  0
 14 40  1  0
 16 41  1  0
 21 42  1  0
 22 43  1  0
 25 44  1  0
 26 45  1  0
 27 46  1  0
M  END
$$$$
