
     RDKit          3D

 56 58  0  0  0  0  0  0  0  0999 V2000
   -8.7889    0.0481    2.8715 C   0  0  0  0  0  0  0  0  0  0  0  0
   -8.2975    0.4961    1.6169 O   0  0  0  0  0  0  0  0  0  0  0  0
   -6.9382    0.6323    1.4770 C   0  0  0  0  0  0  0  0  0  0  0  0
   -6.0100    0.3795    2.4919 C   0  0  0  0  0  0  0  0  0  0  0  0
   -4.6427    0.5464    2.2588 C   0  0  0  0  0  0  0  0  0  0  0  0
   -4.1821    0.9724    1.0097 C   0  0  0  0  0  0  0  0  0  0  0  0
   -2.7042    1.1337    0.7573 C   0  0  0  0  0  0  0  0  0  0  0  0
   -2.0461   -0.1810    0.3410 C   0  0  0  0  0  0  0  0  0  0  0  0
   -0.6307   -0.0065    0.0690 N   0  0  0  0  0  0  0  0  0  0  0  0
    0.2252   -1.0811    0.0954 C   0  0  0  0  0  0  0  0  0  0  0  0
   -0.0841   -2.2112    0.4484 O   0  0  0  0  0  0  0  0  0  0  0  0
    1.5866   -0.7854   -0.4242 C   0  0  0  0  0  0  0  0  0  0  0  0
    2.2472    0.3292   -0.0592 C   0  0  0  0  0  0  0  0  0  0  0  0
    3.6305    0.6734   -0.5327 C   0  0  0  0  0  0  0  0  0  0  0  0
    4.0272   -0.2089   -1.6481 N   0  0  0  0  0  0  0  0  0  0  0  0
    5.5029    0.1579   -2.4015 S   0  0  0  0  0  6  0  0  0  0  0  0
    5.6699   -0.7316   -3.5309 O   0  0  0  0  0  0  0  0  0  0  0  0
    5.5781    1.5946   -2.5635 O   0  0  0  0  0  0  0  0  0  0  0  0
    6.7191   -0.3034   -1.1807 C   0  0  0  0  0  0  0  0  0  0  0  0
    7.2163   -1.6128   -1.1621 C   0  0  0  0  0  0  0  0  0  0  0  0
    8.1877   -1.9644   -0.2242 C   0  0  0  0  0  0  0  0  0  0  0  0
    8.6614   -1.0063    0.6676 C   0  0  0  0  0  0  0  0  0  0  0  0
    9.5943   -1.3475    1.5655 F   0  0  0  0  0  0  0  0  0  0  0  0
    8.1890    0.3028    0.6364 C   0  0  0  0  0  0  0  0  0  0  0  0
    7.2173    0.6634   -0.2980 C   0  0  0  0  0  0  0  0  0  0  0  0
    3.7279   -1.6408   -1.4044 C   0  0  0  0  0  0  0  0  0  0  0  0
    2.2132   -1.8290   -1.3041 C   0  0  0  0  0  0  0  0  0  0  0  0
   -5.1113    1.2206   -0.0118 C   0  0  0  0  0  0  0  0  0  0  0  0
   -6.4846    1.0564    0.2120 C   0  0  0  0  0  0  0  0  0  0  0  0
   -7.4569    1.2815   -0.7316 O   0  0  0  0  0  0  0  0  0  0  0  0
   -7.0411    1.6920   -2.0254 C   0  0  0  0  0  0  0  0  0  0  0  0
   -8.5461    0.7593    3.6677 H   0  0  0  0  0  0  0  0  0  0  0  0
   -9.8794   -0.0116    2.8016 H   0  0  0  0  0  0  0  0  0  0  0  0
   -8.4164   -0.9542    3.1074 H   0  0  0  0  0  0  0  0  0  0  0  0
   -6.3176    0.0491    3.4781 H   0  0  0  0  0  0  0  0  0  0  0  0
   -3.9398    0.3388    3.0635 H   0  0  0  0  0  0  0  0  0  0  0  0
   -2.2196    1.5276    1.6603 H   0  0  0  0  0  0  0  0  0  0  0  0
   -2.5430    1.8969   -0.0153 H   0  0  0  0  0  0  0  0  0  0  0  0
   -2.1710   -0.9413    1.1210 H   0  0  0  0  0  0  0  0  0  0  0  0
   -2.5042   -0.5747   -0.5740 H   0  0  0  0  0  0  0  0  0  0  0  0
   -0.3490    0.7915   -0.4858 H   0  0  0  0  0  0  0  0  0  0  0  0
    1.7948    1.0384    0.6295 H   0  0  0  0  0  0  0  0  0  0  0  0
    3.6196    1.7139   -0.8732 H   0  0  0  0  0  0  0  0  0  0  0  0
    4.3246    0.5802    0.3079 H   0  0  0  0  0  0  0  0  0  0  0  0
    6.8613   -2.3547   -1.8744 H   0  0  0  0  0  0  0  0  0  0  0  0
    8.5865   -2.9739   -0.1883 H   0  0  0  0  0  0  0  0  0  0  0  0
    8.5892    1.0334    1.3330 H   0  0  0  0  0  0  0  0  0  0  0  0
    6.8634    1.6913   -0.3371 H   0  0  0  0  0  0  0  0  0  0  0  0
    4.2138   -1.9680   -0.4771 H   0  0  0  0  0  0  0  0  0  0  0  0
    4.1009   -2.2678   -2.2203 H   0  0  0  0  0  0  0  0  0  0  0  0
    2.0111   -2.8389   -0.9302 H   0  0  0  0  0  0  0  0  0  0  0  0
    1.7655   -1.7532   -2.3029 H   0  0  0  0  0  0  0  0  0  0  0  0
   -4.7394    1.5432   -0.9788 H   0  0  0  0  0  0  0  0  0  0  0  0
   -6.5292    2.6592   -1.9875 H   0  0  0  0  0  0  0  0  0  0  0  0
   -7.9371    1.8152   -2.6414 H   0  0  0  0  0  0  0  0  0  0  0  0
   -6.4145    0.9297   -2.5000 H   0  0  0  0  0  0  0  0  0  0  0  0
  1  2  1  0
  2  3  1  0
  3  4  2  0
  4  5  1  0
  5  6  2  0
  6  7  1  0
  7  8  1  0
  8  9  1  0
  9 10  1  0
 10 11  2  0
 10 12  1  0
 12 13  2  0
 13 14  1  0
 14 15  1  0
 15 16  1  0
 16 17  2  0
 16 18  2  0
 16 19  1  0
 19 20  2  0
 20 21  1  0
 21 22  2  0
 22 23  1  0
 22 24  1  0
 24 25  2  0
 15 26  1  0
 26 27  1  0
  6 28  1  0
 28 29  2  0
 29 30  1  0
 30 31  1  0
 29  3  1  0
 27 12  1  0
 25 19  1  0
  1 32  1  0
  1 33  1  0
  1 34  1  0
  4 35  1  0
  5 36  1  0
  7 37  1  0
  7 38  1  0
  8 39  1  0
  8 40  1  0
  9 41  1  0
 13 42  1  0
 14 43  1  0
 14 44  1  0
 20 45  1  0
 21 46  1  0
 24 47  1  0
 25 48  1  0
 26 49  1  0
 26 50  1  0
 27 51  1  0
 27 52  1  0
 28 53  1  0
 31 54  1  0
 31 55  1  0
 31 56  1  0
M  END
$$$$
