
     RDKit          3D

 43 45  0  0  0  0  0  0  0  0999 V2000
    6.2176   -1.3364    1.6543 C   0  0  0  0  0  0  0  0  0  0  0  0
    6.5400   -0.1990    0.8649 O   0  0  0  0  0  0  0  0  0  0  0  0
    5.5342    0.3412    0.1109 C   0  0  0  0  0  0  0  0  0  0  0  0
    5.9206    1.4201   -0.6842 C   0  0  0  0  0  0  0  0  0  0  0  0
    4.9895    2.0698   -1.4913 C   0  0  0  0  0  0  0  0  0  0  0  0
    3.6624    1.6370   -1.5157 C   0  0  0  0  0  0  0  0  0  0  0  0
    3.2624    0.5434   -0.7472 C   0  0  0  0  0  0  0  0  0  0  0  0
    1.9313    0.0716   -0.6875 N   0  0  0  0  0  0  0  0  0  0  0  0
    0.8827    0.1708   -1.5953 C   0  0  0  0  0  0  0  0  0  0  0  0
    1.0588    0.4344   -3.2467 S   0  0  0  0  0  0  0  0  0  0  0  0
   -0.3671   -0.0473   -0.9766 N   0  0  0  0  0  0  0  0  0  0  0  0
   -0.5643    0.1815    0.4705 C   0  0  0  0  0  0  0  0  0  0  0  0
   -2.0100    0.5529    0.8450 C   0  0  0  0  0  0  0  0  0  0  0  0
   -2.9351   -0.4885    0.3788 N   0  0  0  0  0  0  0  0  0  0  0  0
   -4.2551   -0.3549    0.8077 C   0  0  0  0  0  0  0  0  0  0  0  0
   -5.1971   -1.3528    0.5462 C   0  0  0  0  0  0  0  0  0  0  0  0
   -6.5106   -1.2146    0.9947 C   0  0  0  0  0  0  0  0  0  0  0  0
   -6.8648   -0.0823    1.7090 C   0  0  0  0  0  0  0  0  0  0  0  0
   -5.8813    0.8569    1.9483 C   0  0  0  0  0  0  0  0  0  0  0  0
   -4.6032    0.7385    1.5223 N   0  0  0  0  0  0  0  0  0  0  0  0
   -2.7026   -1.0106   -0.9791 C   0  0  0  0  0  0  0  0  0  0  0  0
   -1.6157   -0.2281   -1.7446 C   0  0  0  0  0  0  0  0  0  0  0  0
    4.2035   -0.0862    0.0845 C   0  0  0  0  0  0  0  0  0  0  0  0
    5.8783   -2.1688    1.0290 H   0  0  0  0  0  0  0  0  0  0  0  0
    5.4747   -1.0871    2.4190 H   0  0  0  0  0  0  0  0  0  0  0  0
    7.1293   -1.6562    2.1681 H   0  0  0  0  0  0  0  0  0  0  0  0
    6.9528    1.7612   -0.6686 H   0  0  0  0  0  0  0  0  0  0  0  0
    5.2934    2.9203   -2.0959 H   0  0  0  0  0  0  0  0  0  0  0  0
    2.9568    2.1981   -2.1192 H   0  0  0  0  0  0  0  0  0  0  0  0
    1.7559   -0.6141    0.0343 H   0  0  0  0  0  0  0  0  0  0  0  0
   -0.2820   -0.7503    0.9756 H   0  0  0  0  0  0  0  0  0  0  0  0
    0.1119    0.9731    0.8116 H   0  0  0  0  0  0  0  0  0  0  0  0
   -2.2680    1.5213    0.3967 H   0  0  0  0  0  0  0  0  0  0  0  0
   -2.0592    0.6544    1.9364 H   0  0  0  0  0  0  0  0  0  0  0  0
   -4.9138   -2.2540    0.0134 H   0  0  0  0  0  0  0  0  0  0  0  0
   -7.2423   -1.9909    0.7924 H   0  0  0  0  0  0  0  0  0  0  0  0
   -7.8740    0.0613    2.0762 H   0  0  0  0  0  0  0  0  0  0  0  0
   -6.0964    1.7617    2.5092 H   0  0  0  0  0  0  0  0  0  0  0  0
   -3.6127   -0.9912   -1.5914 H   0  0  0  0  0  0  0  0  0  0  0  0
   -2.3890   -2.0574   -0.8854 H   0  0  0  0  0  0  0  0  0  0  0  0
   -1.4114   -0.7523   -2.6830 H   0  0  0  0  0  0  0  0  0  0  0  0
   -1.9845    0.7747   -1.9939 H   0  0  0  0  0  0  0  0  0  0  0  0
    3.8839   -0.9212    0.6975 H   0  0  0  0  0  0  0  0  0  0  0  0
  1  2  1  0
  2  3  1  0
  3  4  2  0
  4  5  1  0
  5  6  2  0
  6  7  1  0
  7  8  1  0
  8  9  1  0
  9 10  2  0
  9 11  1  0
 11 12  1  0
 12 13  1  0
 13 14  1  0
 14 15  1  0
 15 16  2  0
 16 17  1  0
 17 18  2  0
 18 19  1  0
 19 20  2  0
 14 21  1  0
 21 22  1  0
  7 23  2  0
 23  3  1  0
 22 11  1  0
 20 15  1  0
  1 24  1  0
  1 25  1  0
  1 26  1  0
  4 27  1  0
  5 28  1  0
  6 29  1  0
  8 30  1  0
 12 31  1  0
 12 32  1  0
 13 33  1  0
 13 34  1  0
 16 35  1  0
 17 36  1  0
 18 37  1  0
 19 38  1  0
 21 39  1  0
 21 40  1  0
 22 41  1  0
 22 42  1  0
 23 43  1  0
M  END
$$$$
