
     RDKit          3D

 40 42  0  0  0  0  0  0  0  0999 V2000
   -5.5377    1.8010    0.4061 C   0  0  0  0  0  0  0  0  0  0  0  0
   -4.3192    0.9783   -0.0070 C   0  0  0  0  0  0  0  0  0  0  0  0
   -3.1269    1.2533    0.9321 C   0  0  0  0  0  0  0  0  0  0  0  0
   -1.8598    0.5256    0.4561 C   0  0  0  0  0  0  0  0  0  0  0  0
   -2.1303   -0.9121    0.1071 C   0  0  0  0  0  0  0  0  0  0  0  0
   -1.1671   -1.9863   -0.0122 C   0  0  0  0  0  0  0  0  0  0  0  0
    0.2942   -1.9333    0.1376 C   0  0  0  0  0  0  0  0  0  0  0  0
    0.9026   -2.8510    0.6746 O   0  0  0  0  0  0  0  0  0  0  0  0
    0.8590   -0.8083   -0.4312 N   0  0  0  0  0  0  0  0  0  0  0  0
    2.2142   -0.4259   -0.4249 C   0  0  0  0  0  0  0  0  0  0  0  0
    3.2150   -1.1010    0.2738 C   0  0  0  0  0  0  0  0  0  0  0  0
    4.5441   -0.6528    0.2377 C   0  0  0  0  0  0  0  0  0  0  0  0
    4.8875    0.4802   -0.4971 C   0  0  0  0  0  0  0  0  0  0  0  0
    6.1320    1.0256   -0.6205 O   0  0  0  0  0  0  0  0  0  0  0  0
    7.2021    0.3905    0.0583 C   0  0  0  0  0  0  0  0  0  0  0  0
    7.3751   -0.8750   -0.3783 F   0  0  0  0  0  0  0  0  0  0  0  0
    6.9989    0.3860    1.3930 F   0  0  0  0  0  0  0  0  0  0  0  0
    8.3390    1.0785   -0.1897 F   0  0  0  0  0  0  0  0  0  0  0  0
    3.8857    1.1595   -1.1933 C   0  0  0  0  0  0  0  0  0  0  0  0
    2.5608    0.7133   -1.1576 C   0  0  0  0  0  0  0  0  0  0  0  0
   -1.8095   -3.1883   -0.2628 C   0  0  0  0  0  0  0  0  0  0  0  0
   -3.4986   -3.0264   -0.4356 S   0  0  0  0  0  0  0  0  0  0  0  0
   -3.4211   -1.3595   -0.1166 C   0  0  0  0  0  0  0  0  0  0  0  0
   -4.6653   -0.5259   -0.0307 C   0  0  0  0  0  0  0  0  0  0  0  0
   -5.3108    2.8719    0.3763 H   0  0  0  0  0  0  0  0  0  0  0  0
   -6.3777    1.6171   -0.2720 H   0  0  0  0  0  0  0  0  0  0  0  0
   -5.8608    1.5522    1.4226 H   0  0  0  0  0  0  0  0  0  0  0  0
   -4.0313    1.2859   -1.0219 H   0  0  0  0  0  0  0  0  0  0  0  0
   -3.3778    0.9247    1.9495 H   0  0  0  0  0  0  0  0  0  0  0  0
   -2.9223    2.3292    0.9858 H   0  0  0  0  0  0  0  0  0  0  0  0
   -1.4742    1.0370   -0.4340 H   0  0  0  0  0  0  0  0  0  0  0  0
   -1.0935    0.5910    1.2366 H   0  0  0  0  0  0  0  0  0  0  0  0
    0.2363   -0.2341   -0.9816 H   0  0  0  0  0  0  0  0  0  0  0  0
    2.9993   -1.9852    0.8668 H   0  0  0  0  0  0  0  0  0  0  0  0
    5.2759   -1.2243    0.8022 H   0  0  0  0  0  0  0  0  0  0  0  0
    4.1348    2.0464   -1.7720 H   0  0  0  0  0  0  0  0  0  0  0  0
    1.8117    1.2704   -1.7142 H   0  0  0  0  0  0  0  0  0  0  0  0
   -1.3499   -4.1627   -0.3697 H   0  0  0  0  0  0  0  0  0  0  0  0
   -5.2053   -0.8000    0.8849 H   0  0  0  0  0  0  0  0  0  0  0  0
   -5.3291   -0.7340   -0.8786 H   0  0  0  0  0  0  0  0  0  0  0  0
  1  2  1  0
  2  3  1  0
  3  4  1  0
  4  5  1  0
  5  6  1  0
  6  7  1  0
  7  8  2  0
  7  9  1  0
  9 10  1  0
 10 11  2  0
 11 12  1  0
 12 13  2  0
 13 14  1  0
 14 15  1  0
 15 16  1  0
 15 17  1  0
 15 18  1  0
 13 19  1  0
 19 20  2  0
  6 21  2  0
 21 22  1  0
 22 23  1  0
 23 24  1  0
 24  2  1  0
 23  5  2  0
 20 10  1  0
  1 25  1  0
  1 26  1  0
  1 27  1  0
  2 28  1  0
  3 29  1  0
  3 30  1  0
  4 31  1  0
  4 32  1  0
  9 33  1  0
 11 34  1  0
 12 35  1  0
 19 36  1  0
 20 37  1  0
 21 38  1  0
 24 39  1  0
 24 40  1  0
M  END
$$$$
