
     RDKit          3D

 52 55  0  0  0  0  0  0  0  0999 V2000
   -1.8248   -1.9843   -3.9233 C   0  0  0  0  0  0  0  0  0  0  0  0
   -0.4878   -2.1236   -3.2370 C   0  0  0  0  0  0  0  0  0  0  0  0
    0.3978   -2.8040   -3.7405 O   0  0  0  0  0  0  0  0  0  0  0  0
   -0.4429   -1.3867   -2.0702 N   0  0  0  0  0  0  0  0  0  0  0  0
    0.5946   -1.2942   -1.1575 C   0  0  0  0  0  0  0  0  0  0  0  0
    2.0168   -2.1932   -1.3439 S   0  0  0  0  0  0  0  0  0  0  0  0
    2.6564   -1.6136    0.1118 C   0  0  0  0  0  0  0  0  0  0  0  0
    1.8078   -0.7311    0.7528 C   0  0  0  0  0  0  0  0  0  0  0  0
    0.5878   -0.5070   -0.0062 C   0  0  0  0  0  0  0  0  0  0  0  0
   -0.5197    0.4570    0.4287 C   0  0  0  0  0  0  0  0  0  0  0  0
   -0.1118    1.7935   -0.2019 C   0  0  0  0  0  0  0  0  0  0  0  0
    0.4077    2.8117    0.6218 C   0  0  0  0  0  0  0  0  0  0  0  0
    0.7875    4.0469    0.0892 C   0  0  0  0  0  0  0  0  0  0  0  0
    0.6503    4.2835   -1.2751 C   0  0  0  0  0  0  0  0  0  0  0  0
    1.1154    5.8043   -1.9304 Cl  0  0  0  0  0  0  0  0  0  0  0  0
    0.1342    3.2975   -2.1098 C   0  0  0  0  0  0  0  0  0  0  0  0
   -0.2467    2.0625   -1.5765 C   0  0  0  0  0  0  0  0  0  0  0  0
   -1.8719   -0.0410    0.0450 N   0  0  0  0  0  0  0  0  0  0  0  0
   -2.1817   -1.2927    0.8068 C   0  0  0  0  0  0  0  0  0  0  0  0
   -3.6898   -1.5136    0.9942 C   0  0  0  0  0  0  0  0  0  0  0  0
   -4.2918   -0.4910    1.7964 O   0  0  0  0  0  0  0  0  0  0  0  0
   -3.6460    0.7805    1.6645 C   0  0  0  0  0  0  0  0  0  0  0  0
   -2.9433    0.9574    0.3098 C   0  0  0  0  0  0  0  0  0  0  0  0
    2.1993   -0.0895    2.0556 C   0  0  0  0  0  0  0  0  0  0  0  0
    3.3629   -0.8252    2.7377 C   0  0  0  0  0  0  0  0  0  0  0  0
    4.4842   -1.1492    1.7428 C   0  0  0  0  0  0  0  0  0  0  0  0
    3.9903   -2.0691    0.6177 C   0  0  0  0  0  0  0  0  0  0  0  0
   -1.8593   -1.0337   -4.4621 H   0  0  0  0  0  0  0  0  0  0  0  0
   -2.6404   -2.0263   -3.1952 H   0  0  0  0  0  0  0  0  0  0  0  0
   -1.9591   -2.8071   -4.6314 H   0  0  0  0  0  0  0  0  0  0  0  0
   -1.2741   -0.8687   -1.7930 H   0  0  0  0  0  0  0  0  0  0  0  0
   -0.4954    0.5733    1.5200 H   0  0  0  0  0  0  0  0  0  0  0  0
    0.5237    2.6499    1.6915 H   0  0  0  0  0  0  0  0  0  0  0  0
    1.1902    4.8163    0.7425 H   0  0  0  0  0  0  0  0  0  0  0  0
    0.0274    3.4790   -3.1761 H   0  0  0  0  0  0  0  0  0  0  0  0
   -0.6496    1.3132   -2.2509 H   0  0  0  0  0  0  0  0  0  0  0  0
   -1.7274   -1.2574    1.8060 H   0  0  0  0  0  0  0  0  0  0  0  0
   -1.7652   -2.1573    0.2808 H   0  0  0  0  0  0  0  0  0  0  0  0
   -3.8711   -2.4706    1.4938 H   0  0  0  0  0  0  0  0  0  0  0  0
   -4.2060   -1.5487    0.0277 H   0  0  0  0  0  0  0  0  0  0  0  0
   -4.4140    1.5502    1.7921 H   0  0  0  0  0  0  0  0  0  0  0  0
   -2.9339    0.8921    2.4902 H   0  0  0  0  0  0  0  0  0  0  0  0
   -3.6915    0.8225   -0.4821 H   0  0  0  0  0  0  0  0  0  0  0  0
   -2.5992    1.9910    0.2126 H   0  0  0  0  0  0  0  0  0  0  0  0
    1.3465   -0.0617    2.7422 H   0  0  0  0  0  0  0  0  0  0  0  0
    2.5000    0.9459    1.8567 H   0  0  0  0  0  0  0  0  0  0  0  0
    3.7542   -0.2099    3.5557 H   0  0  0  0  0  0  0  0  0  0  0  0
    2.9972   -1.7586    3.1846 H   0  0  0  0  0  0  0  0  0  0  0  0
    4.8642   -0.2133    1.3130 H   0  0  0  0  0  0  0  0  0  0  0  0
    5.3226   -1.6256    2.2633 H   0  0  0  0  0  0  0  0  0  0  0  0
    4.7331   -2.0887   -0.1879 H   0  0  0  0  0  0  0  0  0  0  0  0
    3.8923   -3.0916    1.0032 H   0  0  0  0  0  0  0  0  0  0  0  0
  1  2  1  0
  2  3  2  0
  2  4  1  0
  4  5  1  0
  5  6  1  0
  6  7  1  0
  7  8  2  0
  8  9  1  0
  9 10  1  0
 10 11  1  0
 11 12  2  0
 12 13  1  0
 13 14  2  0
 14 15  1  0
 14 16  1  0
 16 17  2  0
 10 18  1  0
 18 19  1  0
 19 20  1  0
 20 21  1  0
 21 22  1  0
 22 23  1  0
  8 24  1  0
 24 25  1  0
 25 26  1  0
 26 27  1  0
  9  5  2  0
 17 11  1  0
 23 18  1  0
 27  7  1  0
  1 28  1  0
  1 29  1  0
  1 30  1  0
  4 31  1  0
 10 32  1  0
 12 33  1  0
 13 34  1  0
 16 35  1  0
 17 36  1  0
 19 37  1  0
 19 38  1  0
 20 39  1  0
 20 40  1  0
 22 41  1  0
 22 42  1  0
 23 43  1  0
 23 44  1  0
 24 45  1  0
 24 46  1  0
 25 47  1  0
 25 48  1  0
 26 49  1  0
 26 50  1  0
 27 51  1  0
 27 52  1  0
M  END
$$$$
