
     RDKit          3D

 45 47  0  0  0  0  0  0  0  0999 V2000
    4.2379    1.8325   -3.8179 C   0  0  0  0  0  0  0  0  0  0  0  0
    3.9086    1.7588   -2.3456 C   0  0  0  0  0  0  0  0  0  0  0  0
    4.3710    2.5764   -1.5542 O   0  0  0  0  0  0  0  0  0  0  0  0
    3.0511    0.7070   -2.0567 N   0  0  0  0  0  0  0  0  0  0  0  0
    2.5281    0.3478   -0.7969 C   0  0  0  0  0  0  0  0  0  0  0  0
    1.6142   -0.7162   -0.7643 C   0  0  0  0  0  0  0  0  0  0  0  0
    1.0205   -1.1152    0.4370 C   0  0  0  0  0  0  0  0  0  0  0  0
    1.3447   -0.4449    1.6179 C   0  0  0  0  0  0  0  0  0  0  0  0
    0.5683   -0.9334    3.1469 S   0  0  0  0  0  6  0  0  0  0  0  0
    1.3184   -0.3184    4.2272 O   0  0  0  0  0  0  0  0  0  0  0  0
    0.4059   -2.3685    3.0945 O   0  0  0  0  0  0  0  0  0  0  0  0
   -0.8921   -0.1414    3.0423 N   0  0  0  0  0  0  0  0  0  0  0  0
   -0.9106    1.2987    3.2941 C   0  0  0  0  0  0  0  0  0  0  0  0
   -2.3229    1.6568    2.8184 C   0  0  0  0  0  0  0  0  0  0  0  0
   -3.0153    0.3953    2.4286 N   0  0  0  0  0  0  0  0  0  0  0  0
   -2.1383   -0.5512    2.5495 C   0  0  0  0  0  0  0  0  0  0  0  0
   -2.5032   -2.1869    2.1666 S   0  0  0  0  0  0  0  0  0  0  0  0
   -3.6388   -1.9648    0.7723 C   0  0  0  0  0  0  0  0  0  0  0  0
   -2.9126   -1.6243   -0.5095 C   0  0  0  0  0  0  0  0  0  0  0  0
   -2.3138   -2.6405   -1.2781 C   0  0  0  0  0  0  0  0  0  0  0  0
   -1.6243   -2.3237   -2.4497 C   0  0  0  0  0  0  0  0  0  0  0  0
   -1.5173   -0.9923   -2.8439 C   0  0  0  0  0  0  0  0  0  0  0  0
   -0.8246   -0.6861   -3.9488 F   0  0  0  0  0  0  0  0  0  0  0  0
   -2.1035    0.0274   -2.1000 C   0  0  0  0  0  0  0  0  0  0  0  0
   -2.8046   -0.2863   -0.9381 C   0  0  0  0  0  0  0  0  0  0  0  0
    2.2854    0.5866    1.6092 C   0  0  0  0  0  0  0  0  0  0  0  0
    2.8674    0.9847    0.4004 C   0  0  0  0  0  0  0  0  0  0  0  0
    3.3458    2.1159   -4.3818 H   0  0  0  0  0  0  0  0  0  0  0  0
    4.6092    0.8654   -4.1699 H   0  0  0  0  0  0  0  0  0  0  0  0
    5.0178    2.5844   -3.9810 H   0  0  0  0  0  0  0  0  0  0  0  0
    2.7314    0.1553   -2.8437 H   0  0  0  0  0  0  0  0  0  0  0  0
    1.3502   -1.2471   -1.6768 H   0  0  0  0  0  0  0  0  0  0  0  0
    0.3125   -1.9398    0.4409 H   0  0  0  0  0  0  0  0  0  0  0  0
   -0.7911    1.5134    4.3597 H   0  0  0  0  0  0  0  0  0  0  0  0
   -0.1612    1.8455    2.7153 H   0  0  0  0  0  0  0  0  0  0  0  0
   -2.2801    2.3200    1.9439 H   0  0  0  0  0  0  0  0  0  0  0  0
   -2.8869    2.1681    3.6068 H   0  0  0  0  0  0  0  0  0  0  0  0
   -4.4099   -1.2194    0.9968 H   0  0  0  0  0  0  0  0  0  0  0  0
   -4.1808   -2.9081    0.6316 H   0  0  0  0  0  0  0  0  0  0  0  0
   -2.3794   -3.6845   -0.9630 H   0  0  0  0  0  0  0  0  0  0  0  0
   -1.1618   -3.1057   -3.0469 H   0  0  0  0  0  0  0  0  0  0  0  0
   -2.0140    1.0624   -2.4319 H   0  0  0  0  0  0  0  0  0  0  0  0
   -3.2636    0.5189   -0.3600 H   0  0  0  0  0  0  0  0  0  0  0  0
    2.5716    1.0945    2.5289 H   0  0  0  0  0  0  0  0  0  0  0  0
    3.5905    1.7947    0.4299 H   0  0  0  0  0  0  0  0  0  0  0  0
  1  2  1  0
  2  3  2  0
  2  4  1  0
  4  5  1  0
  5  6  2  0
  6  7  1  0
  7  8  2  0
  8  9  1  0
  9 10  2  0
  9 11  2  0
  9 12  1  0
 12 13  1  0
 13 14  1  0
 14 15  1  0
 15 16  2  0
 16 17  1  0
 17 18  1  0
 18 19  1  0
 19 20  2  0
 20 21  1  0
 21 22  2  0
 22 23  1  0
 22 24  1  0
 24 25  2  0
  8 26  1  0
 26 27  2  0
 27  5  1  0
 16 12  1  0
 25 19  1  0
  1 28  1  0
  1 29  1  0
  1 30  1  0
  4 31  1  0
  6 32  1  0
  7 33  1  0
 13 34  1  0
 13 35  1  0
 14 36  1  0
 14 37  1  0
 18 38  1  0
 18 39  1  0
 20 40  1  0
 21 41  1  0
 24 42  1  0
 25 43  1  0
 26 44  1  0
 27 45  1  0
M  END
$$$$
