
     RDKit          3D

 61 63  0  0  0  0  0  0  0  0999 V2000
   -1.8113   -2.1532   -2.5278 C   0  0  0  0  0  0  0  0  0  0  0  0
   -0.5459   -1.6428   -1.8708 C   0  0  0  0  0  0  0  0  0  0  0  0
   -0.9287   -0.7862   -0.7918 O   0  0  0  0  0  0  0  0  0  0  0  0
    0.0351    0.0496   -0.3234 C   0  0  0  0  0  0  0  0  0  0  0  0
    1.1724    0.1176   -0.7852 O   0  0  0  0  0  0  0  0  0  0  0  0
   -0.4133    0.8913    0.7890 C   0  0  0  0  0  0  0  0  0  0  0  0
   -1.6967    0.8661    1.4580 C   0  0  0  0  0  0  0  0  0  0  0  0
   -2.8565    0.0353    1.1783 C   0  0  0  0  0  0  0  0  0  0  0  0
   -3.8202    0.4724    0.2639 C   0  0  0  0  0  0  0  0  0  0  0  0
   -4.9414   -0.3182   -0.0043 C   0  0  0  0  0  0  0  0  0  0  0  0
   -5.1224   -1.5577    0.6334 C   0  0  0  0  0  0  0  0  0  0  0  0
   -6.3097   -2.3833    0.3611 C   0  0  0  0  0  0  0  0  0  0  0  0
   -7.1198   -2.8532    1.4086 C   0  0  0  0  0  0  0  0  0  0  0  0
   -8.2453   -3.6411    1.1522 C   0  0  0  0  0  0  0  0  0  0  0  0
   -8.5826   -3.9716   -0.1606 C   0  0  0  0  0  0  0  0  0  0  0  0
   -7.7913   -3.5189   -1.2109 C   0  0  0  0  0  0  0  0  0  0  0  0
   -6.6660   -2.7299   -0.9493 C   0  0  0  0  0  0  0  0  0  0  0  0
   -4.1397   -1.9830    1.5423 C   0  0  0  0  0  0  0  0  0  0  0  0
   -3.0159   -1.1963    1.8163 C   0  0  0  0  0  0  0  0  0  0  0  0
   -1.7695    1.8021    2.4748 C   0  0  0  0  0  0  0  0  0  0  0  0
   -0.3326    2.6989    2.6259 S   0  0  0  0  0  0  0  0  0  0  0  0
    0.4044    1.8763    1.3367 C   0  0  0  0  0  0  0  0  0  0  0  0
    1.6900    2.1936    0.9196 N   0  0  0  0  0  0  0  0  0  0  0  0
    2.5096    3.2082    1.4006 C   0  0  0  0  0  0  0  0  0  0  0  0
    2.2559    4.0203    2.2852 O   0  0  0  0  0  0  0  0  0  0  0  0
    3.8616    3.2254    0.6736 C   0  0  0  0  0  0  0  0  0  0  0  0
    4.7590    2.2335    1.2807 N   0  0  0  0  0  0  0  0  0  0  0  0
    6.0554    2.1568    0.5973 C   0  0  0  0  0  0  0  0  0  0  0  0
    6.0258    1.3195   -0.7052 C   0  0  0  0  0  0  0  0  0  0  0  0
    7.2954    1.1666   -1.4339 N   0  0  0  0  0  0  0  0  0  0  0  0
    7.7979    2.4295   -1.9660 C   0  0  0  0  0  0  0  0  0  0  0  0
    8.3224    0.4855   -0.6495 C   0  0  0  0  0  0  0  0  0  0  0  0
   -2.4017   -1.3192   -2.9115 H   0  0  0  0  0  0  0  0  0  0  0  0
   -1.5720   -2.8289   -3.3528 H   0  0  0  0  0  0  0  0  0  0  0  0
   -2.4418   -2.6821   -1.8037 H   0  0  0  0  0  0  0  0  0  0  0  0
    0.0607   -1.1039   -2.6078 H   0  0  0  0  0  0  0  0  0  0  0  0
    0.0251   -2.4834   -1.4675 H   0  0  0  0  0  0  0  0  0  0  0  0
   -3.7077    1.4290   -0.2437 H   0  0  0  0  0  0  0  0  0  0  0  0
   -5.6863    0.0494   -0.7074 H   0  0  0  0  0  0  0  0  0  0  0  0
   -6.8825   -2.6020    2.4416 H   0  0  0  0  0  0  0  0  0  0  0  0
   -8.8571   -3.9954    1.9784 H   0  0  0  0  0  0  0  0  0  0  0  0
   -9.4579   -4.5876   -0.3623 H   0  0  0  0  0  0  0  0  0  0  0  0
   -8.0441   -3.7826   -2.2360 H   0  0  0  0  0  0  0  0  0  0  0  0
   -6.0554   -2.4019   -1.7836 H   0  0  0  0  0  0  0  0  0  0  0  0
   -4.2413   -2.9424    2.0465 H   0  0  0  0  0  0  0  0  0  0  0  0
   -2.2715   -1.5546    2.5236 H   0  0  0  0  0  0  0  0  0  0  0  0
   -2.6018    2.0043    3.1382 H   0  0  0  0  0  0  0  0  0  0  0  0
    2.0421    1.6267    0.1474 H   0  0  0  0  0  0  0  0  0  0  0  0
    4.2747    4.2352    0.7615 H   0  0  0  0  0  0  0  0  0  0  0  0
    3.6954    3.0236   -0.3902 H   0  0  0  0  0  0  0  0  0  0  0  0
    4.3206    1.3137    1.3094 H   0  0  0  0  0  0  0  0  0  0  0  0
    6.4378    3.1631    0.4093 H   0  0  0  0  0  0  0  0  0  0  0  0
    6.7504    1.6921    1.3023 H   0  0  0  0  0  0  0  0  0  0  0  0
    5.2910    1.7474   -1.4000 H   0  0  0  0  0  0  0  0  0  0  0  0
    5.6376    0.3172   -0.4700 H   0  0  0  0  0  0  0  0  0  0  0  0
    7.0346    2.9163   -2.5799 H   0  0  0  0  0  0  0  0  0  0  0  0
    8.6552    2.2579   -2.6262 H   0  0  0  0  0  0  0  0  0  0  0  0
    8.1113    3.1230   -1.1818 H   0  0  0  0  0  0  0  0  0  0  0  0
    9.1932    0.2660   -1.2767 H   0  0  0  0  0  0  0  0  0  0  0  0
    7.9493   -0.4737   -0.2798 H   0  0  0  0  0  0  0  0  0  0  0  0
    8.6659    1.0797    0.2016 H   0  0  0  0  0  0  0  0  0  0  0  0
  1  2  1  0
  2  3  1  0
  3  4  1  0
  4  5  2  0
  4  6  1  0
  6  7  1  0
  7  8  1  0
  8  9  2  0
  9 10  1  0
 10 11  2  0
 11 12  1  0
 12 13  2  0
 13 14  1  0
 14 15  2  0
 15 16  1  0
 16 17  2  0
 11 18  1  0
 18 19  2  0
  7 20  2  0
 20 21  1  0
 21 22  1  0
 22 23  1  0
 23 24  1  0
 24 25  2  0
 24 26  1  0
 26 27  1  0
 27 28  1  0
 28 29  1  0
 29 30  1  0
 30 31  1  0
 30 32  1  0
 22  6  2  0
 19  8  1  0
 17 12  1  0
  1 33  1  0
  1 34  1  0
  1 35  1  0
  2 36  1  0
  2 37  1  0
  9 38  1  0
 10 39  1  0
 13 40  1  0
 14 41  1  0
 15 42  1  0
 16 43  1  0
 17 44  1  0
 18 45  1  0
 19 46  1  0
 20 47  1  0
 23 48  1  0
 26 49  1  0
 26 50  1  0
 27 51  1  0
 28 52  1  0
 28 53  1  0
 29 54  1  0
 29 55  1  0
 31 56  1  0
 31 57  1  0
 31 58  1  0
 32 59  1  0
 32 60  1  0
 32 61  1  0
M  END
$$$$
