
     RDKit          3D

 32 34  0  0  0  0  0  0  0  0999 V2000
    0.9213   -1.5550   -0.7561 O   0  0  0  0  0  0  0  0  0  0  0  0
    0.6418   -0.4964   -0.1969 C   0  0  0  0  0  0  0  0  0  0  0  0
    1.5625    0.3361    0.3887 N   0  0  0  0  0  0  0  0  0  0  0  0
    2.9712    0.2145    0.5005 C   0  0  0  0  0  0  0  0  0  0  0  0
    3.5959    1.2793    1.1789 C   0  0  0  0  0  0  0  0  0  0  0  0
    4.9797    1.3138    1.3752 C   0  0  0  0  0  0  0  0  0  0  0  0
    5.7713    0.2792    0.8950 C   0  0  0  0  0  0  0  0  0  0  0  0
    5.1750   -0.7832    0.2216 C   0  0  0  0  0  0  0  0  0  0  0  0
    3.7891   -0.8201    0.0237 C   0  0  0  0  0  0  0  0  0  0  0  0
    3.3662   -1.9270   -0.6525 O   0  0  0  0  0  0  0  0  0  0  0  0
   -0.7891   -0.0395   -0.1231 C   0  0  0  0  0  0  0  0  0  0  0  0
   -1.7107   -0.8379   -0.6897 C   0  0  0  0  0  0  0  0  0  0  0  0
   -3.1206   -0.4839   -0.6710 C   0  0  0  0  0  0  0  0  0  0  0  0
   -4.0990   -1.2941   -1.2515 C   0  0  0  0  0  0  0  0  0  0  0  0
   -5.4395   -0.9012   -1.2021 C   0  0  0  0  0  0  0  0  0  0  0  0
   -6.7638   -1.9984   -1.9882 Br  0  0  0  0  0  0  0  0  0  0  0  0
   -5.8134    0.2917   -0.5795 C   0  0  0  0  0  0  0  0  0  0  0  0
   -4.8384    1.1020    0.0006 C   0  0  0  0  0  0  0  0  0  0  0  0
   -3.5054    0.7015   -0.0540 C   0  0  0  0  0  0  0  0  0  0  0  0
   -2.5500    1.5422    0.5406 O   0  0  0  0  0  0  0  0  0  0  0  0
   -1.1978    1.2223    0.5338 C   0  0  0  0  0  0  0  0  0  0  0  0
   -0.3717    1.9666    1.0578 O   0  0  0  0  0  0  0  0  0  0  0  0
    1.1839    1.1833    0.8164 H   0  0  0  0  0  0  0  0  0  0  0  0
    3.0083    2.1083    1.5696 H   0  0  0  0  0  0  0  0  0  0  0  0
    5.4341    2.1486    1.9025 H   0  0  0  0  0  0  0  0  0  0  0  0
    6.8476    0.2954    1.0418 H   0  0  0  0  0  0  0  0  0  0  0  0
    5.7902   -1.5963   -0.1567 H   0  0  0  0  0  0  0  0  0  0  0  0
    2.3938   -1.8838   -0.7526 H   0  0  0  0  0  0  0  0  0  0  0  0
   -1.4356   -1.7697   -1.1782 H   0  0  0  0  0  0  0  0  0  0  0  0
   -3.8244   -2.2261   -1.7402 H   0  0  0  0  0  0  0  0  0  0  0  0
   -6.8568    0.5952   -0.5424 H   0  0  0  0  0  0  0  0  0  0  0  0
   -5.1158    2.0325    0.4881 H   0  0  0  0  0  0  0  0  0  0  0  0
  1  2  2  0
  2  3  1  0
  3  4  1  0
  4  5  2  0
  5  6  1  0
  6  7  2  0
  7  8  1  0
  8  9  2  0
  9 10  1  0
  2 11  1  0
 11 12  2  0
 12 13  1  0
 13 14  2  0
 14 15  1  0
 15 16  1  0
 15 17  2  0
 17 18  1  0
 18 19  2  0
 19 20  1  0
 20 21  1  0
 21 22  2  0
  9  4  1  0
 21 11  1  0
 19 13  1  0
  3 23  1  0
  5 24  1  0
  6 25  1  0
  7 26  1  0
  8 27  1  0
 10 28  1  0
 12 29  1  0
 14 30  1  0
 17 31  1  0
 18 32  1  0
M  END
$$$$
