
     RDKit          3D

 55 56  0  0  0  0  0  0  0  0999 V2000
   -4.2360    2.1253    3.1878 C   0  0  0  0  0  0  0  0  0  0  0  0
   -4.5929    2.3794    1.7198 C   0  0  0  0  0  0  0  0  0  0  0  0
   -3.9453    1.4164    0.8437 N   0  0  0  0  0  0  0  0  0  0  0  0
   -2.6163    1.5111    0.5016 C   0  0  0  0  0  0  0  0  0  0  0  0
   -1.8669    2.3803    0.9313 O   0  0  0  0  0  0  0  0  0  0  0  0
   -2.1699    0.4134   -0.4405 C   0  0  0  0  0  0  0  0  0  0  0  0
   -0.7470    0.6590   -0.9247 C   0  0  0  0  0  0  0  0  0  0  0  0
   -0.2016   -0.6641   -2.0599 S   0  0  0  0  0  0  0  0  0  0  0  0
    0.3564   -1.9207   -0.8504 C   0  0  0  0  0  0  0  0  0  0  0  0
    1.7473   -1.6198   -0.3041 C   0  0  0  0  0  0  0  0  0  0  0  0
    2.8419   -1.9867   -1.2863 C   0  0  0  0  0  0  0  0  0  0  0  0
    2.7984   -2.9974   -1.9800 O   0  0  0  0  0  0  0  0  0  0  0  0
    3.9040   -1.1100   -1.2785 N   0  0  0  0  0  0  0  0  0  0  0  0
    5.1202   -1.3681   -2.0328 C   0  0  0  0  0  0  0  0  0  0  0  0
    5.5294   -0.1120   -2.8042 C   0  0  0  0  0  0  0  0  0  0  0  0
    6.1872   -1.8999   -1.0899 C   0  0  0  0  0  0  0  0  0  0  0  0
    6.2891   -3.2883   -0.8937 C   0  0  0  0  0  0  0  0  0  0  0  0
    7.2385   -3.8219   -0.0206 C   0  0  0  0  0  0  0  0  0  0  0  0
    8.0932   -2.9756    0.6803 C   0  0  0  0  0  0  0  0  0  0  0  0
    7.9952   -1.5961    0.5118 C   0  0  0  0  0  0  0  0  0  0  0  0
    7.0456   -1.0603   -0.3625 C   0  0  0  0  0  0  0  0  0  0  0  0
   -6.0895    2.3633    1.4603 C   0  0  0  0  0  0  0  0  0  0  0  0
   -6.9200    1.3426    1.9500 C   0  0  0  0  0  0  0  0  0  0  0  0
   -8.2879    1.3398    1.6681 C   0  0  0  0  0  0  0  0  0  0  0  0
   -8.8430    2.3493    0.8858 C   0  0  0  0  0  0  0  0  0  0  0  0
   -8.0307    3.3619    0.3817 C   0  0  0  0  0  0  0  0  0  0  0  0
   -6.6633    3.3670    0.6630 C   0  0  0  0  0  0  0  0  0  0  0  0
   -4.4778    1.1031    3.4995 H   0  0  0  0  0  0  0  0  0  0  0  0
   -4.7702    2.8180    3.8473 H   0  0  0  0  0  0  0  0  0  0  0  0
   -3.1623    2.2624    3.3564 H   0  0  0  0  0  0  0  0  0  0  0  0
   -4.2002    3.3728    1.4645 H   0  0  0  0  0  0  0  0  0  0  0  0
   -4.5171    0.6875    0.4353 H   0  0  0  0  0  0  0  0  0  0  0  0
   -2.2443   -0.5366    0.1009 H   0  0  0  0  0  0  0  0  0  0  0  0
   -2.8632    0.3848   -1.2905 H   0  0  0  0  0  0  0  0  0  0  0  0
   -0.0477    0.7477   -0.0880 H   0  0  0  0  0  0  0  0  0  0  0  0
   -0.7017    1.6042   -1.4769 H   0  0  0  0  0  0  0  0  0  0  0  0
    0.3310   -2.8940   -1.3513 H   0  0  0  0  0  0  0  0  0  0  0  0
   -0.3670   -1.9668   -0.0308 H   0  0  0  0  0  0  0  0  0  0  0  0
    1.9219   -2.2385    0.5854 H   0  0  0  0  0  0  0  0  0  0  0  0
    1.8396   -0.5763    0.0147 H   0  0  0  0  0  0  0  0  0  0  0  0
    3.9629   -0.4269   -0.5365 H   0  0  0  0  0  0  0  0  0  0  0  0
    4.9179   -2.1395   -2.7868 H   0  0  0  0  0  0  0  0  0  0  0  0
    5.6463    0.7576   -2.1485 H   0  0  0  0  0  0  0  0  0  0  0  0
    4.7596    0.1482   -3.5397 H   0  0  0  0  0  0  0  0  0  0  0  0
    6.4714   -0.2665   -3.3410 H   0  0  0  0  0  0  0  0  0  0  0  0
    5.6185   -3.9637   -1.4248 H   0  0  0  0  0  0  0  0  0  0  0  0
    7.3078   -4.8991    0.1107 H   0  0  0  0  0  0  0  0  0  0  0  0
    8.8337   -3.3907    1.3588 H   0  0  0  0  0  0  0  0  0  0  0  0
    8.6593   -0.9347    1.0622 H   0  0  0  0  0  0  0  0  0  0  0  0
    6.9910    0.0197   -0.4648 H   0  0  0  0  0  0  0  0  0  0  0  0
   -6.5117    0.5363    2.5544 H   0  0  0  0  0  0  0  0  0  0  0  0
   -8.9212    0.5470    2.0583 H   0  0  0  0  0  0  0  0  0  0  0  0
   -9.9073    2.3460    0.6663 H   0  0  0  0  0  0  0  0  0  0  0  0
   -8.4612    4.1475   -0.2342 H   0  0  0  0  0  0  0  0  0  0  0  0
   -6.0442    4.1626    0.2523 H   0  0  0  0  0  0  0  0  0  0  0  0
  1  2  1  0
  2  3  1  0
  3  4  1  0
  4  5  2  0
  4  6  1  0
  6  7  1  0
  7  8  1  0
  8  9  1  0
  9 10  1  0
 10 11  1  0
 11 12  2  0
 11 13  1  0
 13 14  1  0
 14 15  1  0
 14 16  1  0
 16 17  2  0
 17 18  1  0
 18 19  2  0
 19 20  1  0
 20 21  2  0
  2 22  1  0
 22 23  2  0
 23 24  1  0
 24 25  2  0
 25 26  1  0
 26 27  2  0
 21 16  1  0
 27 22  1  0
  1 28  1  0
  1 29  1  0
  1 30  1  0
  2 31  1  0
  3 32  1  0
  6 33  1  0
  6 34  1  0
  7 35  1  0
  7 36  1  0
  9 37  1  0
  9 38  1  0
 10 39  1  0
 10 40  1  0
 13 41  1  0
 14 42  1  0
 15 43  1  0
 15 44  1  0
 15 45  1  0
 17 46  1  0
 18 47  1  0
 19 48  1  0
 20 49  1  0
 21 50  1  0
 23 51  1  0
 24 52  1  0
 25 53  1  0
 26 54  1  0
 27 55  1  0
M  END
$$$$
