
     RDKit          3D

 42 45  0  0  0  0  0  0  0  0999 V2000
   -2.7931    3.8557    0.1165 C   0  0  0  0  0  0  0  0  0  0  0  0
   -1.8019    2.7470    0.3175 C   0  0  0  0  0  0  0  0  0  0  0  0
   -0.7977    2.8649    1.2945 C   0  0  0  0  0  0  0  0  0  0  0  0
    0.1606    1.8597    1.4724 C   0  0  0  0  0  0  0  0  0  0  0  0
    0.1261    0.7475    0.6491 C   0  0  0  0  0  0  0  0  0  0  0  0
   -0.8892    0.6115   -0.3013 C   0  0  0  0  0  0  0  0  0  0  0  0
   -1.8397    1.6082   -0.4949 C   0  0  0  0  0  0  0  0  0  0  0  0
   -0.7748   -0.6962   -1.0389 C   0  0  0  0  0  0  0  0  0  0  0  0
   -2.0879   -1.4886   -1.0740 C   0  0  0  0  0  0  0  0  0  0  0  0
   -1.9094   -2.9240   -1.3171 N   0  0  0  0  0  0  0  0  0  0  0  0
   -1.5670   -3.2158   -2.7070 C   0  0  0  0  0  0  0  0  0  0  0  0
   -0.9714   -3.5566   -0.3758 C   0  0  0  0  0  0  0  0  0  0  0  0
   -0.2585   -2.5884    0.5730 C   0  0  0  0  0  0  0  0  0  0  0  0
    0.3263   -1.4158   -0.2231 C   0  0  0  0  0  0  0  0  0  0  0  0
    0.9586   -0.3877    0.6308 N   0  0  0  0  0  0  0  0  0  0  0  0
    2.1852   -0.6316    1.2463 C   0  0  0  0  0  0  0  0  0  0  0  0
    2.5966   -1.7894    1.3656 O   0  0  0  0  0  0  0  0  0  0  0  0
    3.0141    0.4755    1.6852 C   0  0  0  0  0  0  0  0  0  0  0  0
    3.9516    0.5430    2.7013 C   0  0  0  0  0  0  0  0  0  0  0  0
    4.5343    1.8322    2.6394 C   0  0  0  0  0  0  0  0  0  0  0  0
    3.9449    2.4656    1.5707 C   0  0  0  0  0  0  0  0  0  0  0  0
    4.3333    4.2331    0.9874 Br  0  0  0  0  0  0  0  0  0  0  0  0
    3.0378    1.6473    0.9762 O   0  0  0  0  0  0  0  0  0  0  0  0
   -3.7449    3.4659   -0.2593 H   0  0  0  0  0  0  0  0  0  0  0  0
   -3.0027    4.3679    1.0614 H   0  0  0  0  0  0  0  0  0  0  0  0
   -2.4003    4.5824   -0.6012 H   0  0  0  0  0  0  0  0  0  0  0  0
   -0.7590    3.7467    1.9313 H   0  0  0  0  0  0  0  0  0  0  0  0
    0.8903    1.9742    2.2641 H   0  0  0  0  0  0  0  0  0  0  0  0
   -2.6033    1.5021   -1.2604 H   0  0  0  0  0  0  0  0  0  0  0  0
   -0.4079   -0.4977   -2.0538 H   0  0  0  0  0  0  0  0  0  0  0  0
   -2.6300   -1.3735   -0.1246 H   0  0  0  0  0  0  0  0  0  0  0  0
   -2.7640   -1.0573   -1.8241 H   0  0  0  0  0  0  0  0  0  0  0  0
   -1.5640   -4.2978   -2.8805 H   0  0  0  0  0  0  0  0  0  0  0  0
   -0.5846   -2.8201   -2.9868 H   0  0  0  0  0  0  0  0  0  0  0  0
   -2.3154   -2.7941   -3.3870 H   0  0  0  0  0  0  0  0  0  0  0  0
   -0.2084   -4.1386   -0.9101 H   0  0  0  0  0  0  0  0  0  0  0  0
   -1.5325   -4.2822    0.2249 H   0  0  0  0  0  0  0  0  0  0  0  0
   -0.9545   -2.2234    1.3395 H   0  0  0  0  0  0  0  0  0  0  0  0
    0.5246   -3.1317    1.1121 H   0  0  0  0  0  0  0  0  0  0  0  0
    1.0966   -1.8044   -0.9035 H   0  0  0  0  0  0  0  0  0  0  0  0
    4.1811   -0.2556    3.3943 H   0  0  0  0  0  0  0  0  0  0  0  0
    5.3000    2.2398    3.2842 H   0  0  0  0  0  0  0  0  0  0  0  0
  1  2  1  0
  2  3  2  0
  3  4  1  0
  4  5  2  0
  5  6  1  0
  6  7  2  0
  6  8  1  0
  8  9  1  0
  9 10  1  0
 10 11  1  0
 10 12  1  0
 12 13  1  0
 13 14  1  0
 14 15  1  0
 15 16  1  0
 16 17  2  0
 16 18  1  0
 18 19  2  0
 19 20  1  0
 20 21  2  0
 21 22  1  0
 21 23  1  0
  7  2  1  0
 14  8  1  0
 23 18  1  0
 15  5  1  0
  1 24  1  0
  1 25  1  0
  1 26  1  0
  3 27  1  0
  4 28  1  0
  7 29  1  0
  8 30  1  0
  9 31  1  0
  9 32  1  0
 11 33  1  0
 11 34  1  0
 11 35  1  0
 12 36  1  0
 12 37  1  0
 13 38  1  0
 13 39  1  0
 14 40  1  0
 19 41  1  0
 20 42  1  0
M  END
$$$$
