
     RDKit          3D

 45 46  0  0  0  0  0  0  0  0999 V2000
    5.8672    2.5827   -0.0113 C   0  0  0  0  0  0  0  0  0  0  0  0
    4.4985    2.3411   -0.3059 O   0  0  0  0  0  0  0  0  0  0  0  0
    4.1833    1.1514   -0.9114 C   0  0  0  0  0  0  0  0  0  0  0  0
    5.1180    0.2178   -1.3640 C   0  0  0  0  0  0  0  0  0  0  0  0
    4.6936   -0.9689   -1.9655 C   0  0  0  0  0  0  0  0  0  0  0  0
    3.3321   -1.2393   -2.1086 C   0  0  0  0  0  0  0  0  0  0  0  0
    2.3697   -0.3289   -1.6523 C   0  0  0  0  0  0  0  0  0  0  0  0
    0.9551   -0.6900   -1.8447 C   0  0  0  0  0  0  0  0  0  0  0  0
    0.0089   -0.5200   -0.9081 C   0  0  0  0  0  0  0  0  0  0  0  0
   -1.3965   -0.9125   -1.1951 C   0  0  0  0  0  0  0  0  0  0  0  0
   -1.7445   -1.1889   -2.3416 O   0  0  0  0  0  0  0  0  0  0  0  0
   -2.2721   -0.9346   -0.1252 N   0  0  0  0  0  0  0  0  0  0  0  0
   -3.6929   -1.1805   -0.3821 C   0  0  0  0  0  0  0  0  0  0  0  0
   -4.5661   -0.4280    0.6361 C   0  0  0  0  0  0  0  0  0  0  0  0
   -6.0465   -0.6790    0.3865 C   0  0  0  0  0  0  0  0  0  0  0  0
   -4.2898   -0.7817    2.0038 O   0  0  0  0  0  0  0  0  0  0  0  0
   -2.9876   -1.3486    2.2183 C   0  0  0  0  0  0  0  0  0  0  0  0
   -2.6270   -1.1325    3.6814 C   0  0  0  0  0  0  0  0  0  0  0  0
   -1.9153   -0.7549    1.2868 C   0  0  0  0  0  0  0  0  0  0  0  0
    2.8106    0.8832   -1.0853 C   0  0  0  0  0  0  0  0  0  0  0  0
    1.8822    1.8005   -0.6404 O   0  0  0  0  0  0  0  0  0  0  0  0
    1.6791    2.8093   -1.6311 C   0  0  0  0  0  0  0  0  0  0  0  0
    6.4580    2.6669   -0.9287 H   0  0  0  0  0  0  0  0  0  0  0  0
    6.2728    1.8118    0.6521 H   0  0  0  0  0  0  0  0  0  0  0  0
    5.9316    3.5407    0.5133 H   0  0  0  0  0  0  0  0  0  0  0  0
    6.1857    0.3834   -1.2681 H   0  0  0  0  0  0  0  0  0  0  0  0
    5.4270   -1.6897   -2.3189 H   0  0  0  0  0  0  0  0  0  0  0  0
    3.0275   -2.1763   -2.5709 H   0  0  0  0  0  0  0  0  0  0  0  0
    0.7053   -1.1440   -2.8019 H   0  0  0  0  0  0  0  0  0  0  0  0
    0.2462   -0.0712    0.0455 H   0  0  0  0  0  0  0  0  0  0  0  0
   -3.9522   -0.8828   -1.4041 H   0  0  0  0  0  0  0  0  0  0  0  0
   -3.8436   -2.2638   -0.2968 H   0  0  0  0  0  0  0  0  0  0  0  0
   -4.3734    0.6488    0.5469 H   0  0  0  0  0  0  0  0  0  0  0  0
   -6.3361   -0.3856   -0.6274 H   0  0  0  0  0  0  0  0  0  0  0  0
   -6.2919   -1.7374    0.5300 H   0  0  0  0  0  0  0  0  0  0  0  0
   -6.6562   -0.1139    1.1001 H   0  0  0  0  0  0  0  0  0  0  0  0
   -3.0718   -2.4276    2.0369 H   0  0  0  0  0  0  0  0  0  0  0  0
   -2.5857   -0.0638    3.9198 H   0  0  0  0  0  0  0  0  0  0  0  0
   -1.6604   -1.5844    3.9245 H   0  0  0  0  0  0  0  0  0  0  0  0
   -3.3909   -1.5706    4.3326 H   0  0  0  0  0  0  0  0  0  0  0  0
   -0.9473   -1.2261    1.4843 H   0  0  0  0  0  0  0  0  0  0  0  0
   -1.8220    0.3256    1.4493 H   0  0  0  0  0  0  0  0  0  0  0  0
    2.5726    3.4283   -1.7615 H   0  0  0  0  0  0  0  0  0  0  0  0
    1.3755    2.3756   -2.5907 H   0  0  0  0  0  0  0  0  0  0  0  0
    0.8691    3.4585   -1.2842 H   0  0  0  0  0  0  0  0  0  0  0  0
  1  2  1  0
  2  3  1  0
  3  4  2  0
  4  5  1  0
  5  6  2  0
  6  7  1  0
  7  8  1  0
  8  9  2  3
  9 10  1  0
 10 11  2  0
 10 12  1  0
 12 13  1  0
 13 14  1  0
 14 15  1  0
 14 16  1  0
 16 17  1  0
 17 18  1  0
 17 19  1  0
  7 20  2  0
 20 21  1  0
 21 22  1  0
 20  3  1  0
 19 12  1  0
  1 23  1  0
  1 24  1  0
  1 25  1  0
  4 26  1  0
  5 27  1  0
  6 28  1  0
  8 29  1  0
  9 30  1  0
 13 31  1  0
 13 32  1  0
 14 33  1  0
 15 34  1  0
 15 35  1  0
 15 36  1  0
 17 37  1  0
 18 38  1  0
 18 39  1  0
 18 40  1  0
 19 41  1  0
 19 42  1  0
 22 43  1  0
 22 44  1  0
 22 45  1  0
M  END
$$$$
