
     RDKit          3D

 73 78  0  0  0  0  0  0  0  0999 V2000
   10.3596    0.4085   -0.4130 C   0  0  0  0  0  0  0  0  0  0  0  0
    8.8674    0.2860   -0.5021 C   0  0  0  0  0  0  0  0  0  0  0  0
    8.0577    0.6156    0.5863 C   0  0  0  0  0  0  0  0  0  0  0  0
    6.6705    0.4704    0.5042 C   0  0  0  0  0  0  0  0  0  0  0  0
    6.0578   -0.0115   -0.6636 C   0  0  0  0  0  0  0  0  0  0  0  0
    4.6593   -0.1721   -0.7708 N   0  0  0  0  0  0  0  0  0  0  0  0
    4.1631   -1.2840    0.0733 C   0  0  0  0  0  0  0  0  0  0  0  0
    2.6646   -1.5204   -0.1913 C   0  0  0  0  0  0  0  0  0  0  0  0
    1.8658   -0.2900   -0.0663 N   0  0  0  0  0  0  0  0  0  0  0  0
    0.5237   -0.4310    0.2833 C   0  0  0  0  0  0  0  0  0  0  0  0
    0.0504   -1.5396    0.5382 O   0  0  0  0  0  0  0  0  0  0  0  0
   -0.3207    0.8421    0.4092 C   0  0  0  0  0  0  0  0  0  0  0  0
    0.1470    1.7006    1.5875 C   0  0  0  0  0  0  0  0  0  0  0  0
   -0.1453    1.0427    2.9358 C   0  0  0  0  0  0  0  0  0  0  0  0
   -1.4241    0.1998    2.9565 C   0  0  0  0  0  0  0  0  0  0  0  0
   -2.3368    0.6411    1.9042 N   0  0  0  0  0  0  0  0  0  0  0  0
   -3.6803    0.2516    2.0842 C   0  0  0  0  0  0  0  0  0  0  0  0
   -4.0943   -0.1359    3.3324 N   0  0  0  0  0  0  0  0  0  0  0  0
   -5.3771   -0.4924    3.5398 C   0  0  0  0  0  0  0  0  0  0  0  0
   -6.3841   -0.5225    2.6537 N   0  0  0  0  0  0  0  0  0  0  0  0
   -5.9627   -0.1292    1.4415 C   0  0  0  0  0  0  0  0  0  0  0  0
   -4.6849    0.2626    1.0759 C   0  0  0  0  0  0  0  0  0  0  0  0
   -4.6691    0.5944   -0.2687 N   0  0  0  0  0  0  0  0  0  0  0  0
   -5.8987    0.4081   -0.7160 C   0  0  0  0  0  0  0  0  0  0  0  0
   -6.7161   -0.0278    0.3026 N   0  0  0  0  0  0  0  0  0  0  0  0
   -8.1294   -0.3105    0.2164 C   0  0  0  0  0  0  0  0  0  0  0  0
   -8.4609   -1.4776   -0.7092 C   0  0  0  0  0  0  0  0  0  0  0  0
   -7.8848   -1.3860   -2.1271 C   0  0  0  0  0  0  0  0  0  0  0  0
   -7.6334    0.0418   -2.6069 C   0  0  0  0  0  0  0  0  0  0  0  0
   -6.2985    0.6248   -2.1424 C   0  0  0  0  0  0  0  0  0  0  0  0
   -1.8305    0.5401    0.5220 C   0  0  0  0  0  0  0  0  0  0  0  0
    2.4100    0.8532   -0.8213 C   0  0  0  0  0  0  0  0  0  0  0  0
    3.9081    1.0794   -0.5388 C   0  0  0  0  0  0  0  0  0  0  0  0
    6.8738   -0.3614   -1.7579 C   0  0  0  0  0  0  0  0  0  0  0  0
    6.2696   -0.9018   -3.0257 C   0  0  0  0  0  0  0  0  0  0  0  0
    8.2687   -0.2135   -1.6647 C   0  0  0  0  0  0  0  0  0  0  0  0
   10.7725    0.7807   -1.3563 H   0  0  0  0  0  0  0  0  0  0  0  0
   10.6530    1.1141    0.3710 H   0  0  0  0  0  0  0  0  0  0  0  0
   10.8032   -0.5662   -0.1889 H   0  0  0  0  0  0  0  0  0  0  0  0
    8.4985    0.9856    1.5091 H   0  0  0  0  0  0  0  0  0  0  0  0
    6.0719    0.7301    1.3721 H   0  0  0  0  0  0  0  0  0  0  0  0
    4.3046   -1.0508    1.1369 H   0  0  0  0  0  0  0  0  0  0  0  0
    4.7111   -2.2077   -0.1498 H   0  0  0  0  0  0  0  0  0  0  0  0
    2.5161   -1.8939   -1.2123 H   0  0  0  0  0  0  0  0  0  0  0  0
    2.2962   -2.2877    0.4983 H   0  0  0  0  0  0  0  0  0  0  0  0
   -0.1935    1.3927   -0.5306 H   0  0  0  0  0  0  0  0  0  0  0  0
   -0.3788    2.6635    1.5452 H   0  0  0  0  0  0  0  0  0  0  0  0
    1.2141    1.9360    1.5349 H   0  0  0  0  0  0  0  0  0  0  0  0
   -0.2110    1.8308    3.6964 H   0  0  0  0  0  0  0  0  0  0  0  0
    0.6984    0.4082    3.2349 H   0  0  0  0  0  0  0  0  0  0  0  0
   -1.8512    0.2994    3.9623 H   0  0  0  0  0  0  0  0  0  0  0  0
   -1.1802   -0.8613    2.8188 H   0  0  0  0  0  0  0  0  0  0  0  0
   -5.6242   -0.7916    4.5541 H   0  0  0  0  0  0  0  0  0  0  0  0
   -8.6266    0.6133   -0.1004 H   0  0  0  0  0  0  0  0  0  0  0  0
   -8.5097   -0.5311    1.2205 H   0  0  0  0  0  0  0  0  0  0  0  0
   -9.5540   -1.5486   -0.7783 H   0  0  0  0  0  0  0  0  0  0  0  0
   -8.1240   -2.4192   -0.2571 H   0  0  0  0  0  0  0  0  0  0  0  0
   -6.9541   -1.9652   -2.1866 H   0  0  0  0  0  0  0  0  0  0  0  0
   -8.5878   -1.8782   -2.8106 H   0  0  0  0  0  0  0  0  0  0  0  0
   -8.4634    0.6972   -2.3171 H   0  0  0  0  0  0  0  0  0  0  0  0
   -7.6291    0.0460   -3.7048 H   0  0  0  0  0  0  0  0  0  0  0  0
   -6.2933    1.7023   -2.3461 H   0  0  0  0  0  0  0  0  0  0  0  0
   -5.5054    0.1935   -2.7673 H   0  0  0  0  0  0  0  0  0  0  0  0
   -2.3349    1.3096   -0.0753 H   0  0  0  0  0  0  0  0  0  0  0  0
   -2.0736   -0.4340    0.0810 H   0  0  0  0  0  0  0  0  0  0  0  0
    2.2572    0.6277   -1.8844 H   0  0  0  0  0  0  0  0  0  0  0  0
    1.8666    1.7746   -0.6074 H   0  0  0  0  0  0  0  0  0  0  0  0
    4.2771    1.8716   -1.2012 H   0  0  0  0  0  0  0  0  0  0  0  0
    4.0209    1.4185    0.4989 H   0  0  0  0  0  0  0  0  0  0  0  0
    5.5496   -0.1892   -3.4399 H   0  0  0  0  0  0  0  0  0  0  0  0
    5.7694   -1.8548   -2.8295 H   0  0  0  0  0  0  0  0  0  0  0  0
    7.0323   -1.0791   -3.7909 H   0  0  0  0  0  0  0  0  0  0  0  0
    8.8967   -0.4926   -2.5091 H   0  0  0  0  0  0  0  0  0  0  0  0
  1  2  1  0
  2  3  2  0
  3  4  1  0
  4  5  2  0
  5  6  1  0
  6  7  1  0
  7  8  1  0
  8  9  1  0
  9 10  1  0
 10 11  2  0
 10 12  1  0
 12 13  1  0
 13 14  1  0
 14 15  1  0
 15 16  1  0
 16 17  1  0
 17 18  2  0
 18 19  1  0
 19 20  2  0
 20 21  1  0
 21 22  2  0
 22 23  1  0
 23 24  2  0
 24 25  1  0
 25 26  1  0
 26 27  1  0
 27 28  1  0
 28 29  1  0
 29 30  1  0
 16 31  1  0
  9 32  1  0
 32 33  1  0
  5 34  1  0
 34 35  1  0
 34 36  2  0
 36  2  1  0
 33  6  1  0
 31 12  1  0
 22 17  1  0
 30 24  1  0
 25 21  1  0
  1 37  1  0
  1 38  1  0
  1 39  1  0
  3 40  1  0
  4 41  1  0
  7 42  1  0
  7 43  1  0
  8 44  1  0
  8 45  1  0
 12 46  1  0
 13 47  1  0
 13 48  1  0
 14 49  1  0
 14 50  1  0
 15 51  1  0
 15 52  1  0
 19 53  1  0
 26 54  1  0
 26 55  1  0
 27 56  1  0
 27 57  1  0
 28 58  1  0
 28 59  1  0
 29 60  1  0
 29 61  1  0
 30 62  1  0
 30 63  1  0
 31 64  1  0
 31 65  1  0
 32 66  1  0
 32 67  1  0
 33 68  1  0
 33 69  1  0
 35 70  1  0
 35 71  1  0
 35 72  1  0
 36 73  1  0
M  END
$$$$
