
     RDKit          3D

 38 39  0  0  0  0  0  0  0  0999 V2000
   -2.0551   -0.8015    1.0443 O   0  0  0  0  0  0  0  0  0  0  0  0
   -2.6813    0.2399    0.8662 C   0  0  0  0  0  0  0  0  0  0  0  0
   -1.9983    1.6119    0.9461 C   0  0  0  0  0  0  0  0  0  0  0  0
   -0.5861    1.5493    0.7621 O   0  0  0  0  0  0  0  0  0  0  0  0
   -0.2174    1.3076   -0.5189 C   0  0  0  0  0  0  0  0  0  0  0  0
   -0.9730    1.2416   -1.4776 O   0  0  0  0  0  0  0  0  0  0  0  0
    1.2440    1.1472   -0.6585 C   0  0  0  0  0  0  0  0  0  0  0  0
    2.1105    1.1811    0.3661 C   0  0  0  0  0  0  0  0  0  0  0  0
    3.5628    1.0248    0.2095 C   0  0  0  0  0  0  0  0  0  0  0  0
    4.4150    1.7855    1.0188 C   0  0  0  0  0  0  0  0  0  0  0  0
    5.8007    1.6463    0.9230 C   0  0  0  0  0  0  0  0  0  0  0  0
    6.3504    0.7360    0.0218 C   0  0  0  0  0  0  0  0  0  0  0  0
    5.5188   -0.0442   -0.7940 C   0  0  0  0  0  0  0  0  0  0  0  0
    6.1063   -1.0562   -1.7460 C   0  0  0  0  0  0  0  0  0  0  0  0
    7.3540   -0.7224   -2.1799 F   0  0  0  0  0  0  0  0  0  0  0  0
    5.3570   -1.2270   -2.8711 F   0  0  0  0  0  0  0  0  0  0  0  0
    6.2236   -2.2900   -1.1831 F   0  0  0  0  0  0  0  0  0  0  0  0
    4.1243    0.0999   -0.6819 C   0  0  0  0  0  0  0  0  0  0  0  0
   -4.0312    0.3373    0.6104 N   0  0  0  0  0  0  0  0  0  0  0  0
   -4.9617   -0.6914    0.4744 C   0  0  0  0  0  0  0  0  0  0  0  0
   -4.6622   -2.0437    0.5850 C   0  0  0  0  0  0  0  0  0  0  0  0
   -5.6875   -2.9799    0.4272 C   0  0  0  0  0  0  0  0  0  0  0  0
   -6.9757   -2.5381    0.1651 C   0  0  0  0  0  0  0  0  0  0  0  0
   -8.2640   -3.6516   -0.0355 Cl  0  0  0  0  0  0  0  0  0  0  0  0
   -7.1884   -1.1737    0.0712 C   0  0  0  0  0  0  0  0  0  0  0  0
   -6.2117   -0.2435    0.2213 N   0  0  0  0  0  0  0  0  0  0  0  0
   -2.1772    2.0050    1.9528 H   0  0  0  0  0  0  0  0  0  0  0  0
   -2.4461    2.3175    0.2358 H   0  0  0  0  0  0  0  0  0  0  0  0
    1.5682    0.9995   -1.6829 H   0  0  0  0  0  0  0  0  0  0  0  0
    1.7645    1.3476    1.3839 H   0  0  0  0  0  0  0  0  0  0  0  0
    4.0068    2.5007    1.7303 H   0  0  0  0  0  0  0  0  0  0  0  0
    6.4509    2.2467    1.5551 H   0  0  0  0  0  0  0  0  0  0  0  0
    7.4331    0.6334   -0.0399 H   0  0  0  0  0  0  0  0  0  0  0  0
    3.4790   -0.5301   -1.2937 H   0  0  0  0  0  0  0  0  0  0  0  0
   -4.4507    1.2455    0.4622 H   0  0  0  0  0  0  0  0  0  0  0  0
   -3.6585   -2.3993    0.7858 H   0  0  0  0  0  0  0  0  0  0  0  0
   -5.4675   -4.0405    0.5091 H   0  0  0  0  0  0  0  0  0  0  0  0
   -8.1764   -0.7711   -0.1331 H   0  0  0  0  0  0  0  0  0  0  0  0
  1  2  2  0
  2  3  1  0
  3  4  1  0
  4  5  1  0
  5  6  2  0
  5  7  1  0
  7  8  2  3
  8  9  1  0
  9 10  2  0
 10 11  1  0
 11 12  2  0
 12 13  1  0
 13 14  1  0
 14 15  1  0
 14 16  1  0
 14 17  1  0
 13 18  2  0
  2 19  1  0
 19 20  1  0
 20 21  2  0
 21 22  1  0
 22 23  2  0
 23 24  1  0
 23 25  1  0
 25 26  2  0
 18  9  1  0
 26 20  1  0
  3 27  1  0
  3 28  1  0
  7 29  1  0
  8 30  1  0
 10 31  1  0
 11 32  1  0
 12 33  1  0
 18 34  1  0
 19 35  1  0
 21 36  1  0
 22 37  1  0
 25 38  1  0
M  END
$$$$
