
     RDKit          3D

 42 44  0  0  0  0  0  0  0  0999 V2000
   -7.5732    1.7065   -1.4157 N   0  0  0  0  0  0  0  0  0  0  0  0
   -6.6700    1.3736   -0.7678 C   0  0  0  0  0  0  0  0  0  0  0  0
   -5.5249    0.9438    0.0449 C   0  0  0  0  0  0  0  0  0  0  0  0
   -4.3792    0.4706   -0.8590 C   0  0  0  0  0  0  0  0  0  0  0  0
   -3.1498    0.1296   -0.1140 N   0  0  0  0  0  0  0  0  0  0  0  0
   -3.2944   -1.1270    0.6521 C   0  0  0  0  0  0  0  0  0  0  0  0
   -2.0066   -1.5098    1.4073 C   0  0  0  0  0  0  0  0  0  0  0  0
   -0.8165   -1.5499    0.5403 N   0  0  0  0  0  0  0  0  0  0  0  0
    0.2791   -2.3871    0.8263 C   0  0  0  0  0  0  0  0  0  0  0  0
    0.1877   -3.7953    1.7523 S   0  0  0  0  0  0  0  0  0  0  0  0
    1.5952   -2.0633    0.2972 C   0  0  0  0  0  0  0  0  0  0  0  0
    2.6096   -2.8342   -0.2463 C   0  0  0  0  0  0  0  0  0  0  0  0
    3.6782   -1.9576   -0.5574 C   0  0  0  0  0  0  0  0  0  0  0  0
    3.2777   -0.6935   -0.1771 C   0  0  0  0  0  0  0  0  0  0  0  0
    3.8900    0.6324   -0.2179 C   0  0  0  0  0  0  0  0  0  0  0  0
    3.2700    1.7383    0.3840 C   0  0  0  0  0  0  0  0  0  0  0  0
    3.8594    3.0062    0.3423 C   0  0  0  0  0  0  0  0  0  0  0  0
    5.0823    3.1900   -0.3040 C   0  0  0  0  0  0  0  0  0  0  0  0
    5.7546    4.7805   -0.3207 Cl  0  0  0  0  0  0  0  0  0  0  0  0
    5.7139    2.0992   -0.9078 C   0  0  0  0  0  0  0  0  0  0  0  0
    7.2284    2.2454   -1.7283 Cl  0  0  0  0  0  0  0  0  0  0  0  0
    5.1199    0.8308   -0.8628 C   0  0  0  0  0  0  0  0  0  0  0  0
    2.0174   -0.7587    0.3437 O   0  0  0  0  0  0  0  0  0  0  0  0
   -0.6965   -0.3836   -0.3484 C   0  0  0  0  0  0  0  0  0  0  0  0
   -2.0183   -0.0269   -1.0549 C   0  0  0  0  0  0  0  0  0  0  0  0
   -5.1870    1.7775    0.6715 H   0  0  0  0  0  0  0  0  0  0  0  0
   -5.8489    0.1417    0.7161 H   0  0  0  0  0  0  0  0  0  0  0  0
   -4.7067   -0.3761   -1.4778 H   0  0  0  0  0  0  0  0  0  0  0  0
   -4.1505    1.2899   -1.5549 H   0  0  0  0  0  0  0  0  0  0  0  0
   -3.5707   -1.9507   -0.0197 H   0  0  0  0  0  0  0  0  0  0  0  0
   -4.0920   -1.0281    1.3959 H   0  0  0  0  0  0  0  0  0  0  0  0
   -1.7993   -0.7689    2.1901 H   0  0  0  0  0  0  0  0  0  0  0  0
   -2.1744   -2.4660    1.9078 H   0  0  0  0  0  0  0  0  0  0  0  0
    2.5797   -3.9047   -0.4004 H   0  0  0  0  0  0  0  0  0  0  0  0
    4.6283   -2.2275   -0.9965 H   0  0  0  0  0  0  0  0  0  0  0  0
    2.3181    1.6231    0.9004 H   0  0  0  0  0  0  0  0  0  0  0  0
    3.3567    3.8444    0.8194 H   0  0  0  0  0  0  0  0  0  0  0  0
    5.6281   -0.0034   -1.3411 H   0  0  0  0  0  0  0  0  0  0  0  0
    0.0539   -0.5731   -1.1218 H   0  0  0  0  0  0  0  0  0  0  0  0
   -0.3581    0.4609    0.2641 H   0  0  0  0  0  0  0  0  0  0  0  0
   -1.8632    0.9084   -1.6064 H   0  0  0  0  0  0  0  0  0  0  0  0
   -2.2481   -0.8079   -1.7926 H   0  0  0  0  0  0  0  0  0  0  0  0
  1  2  3  0
  2  3  1  0
  3  4  1  0
  4  5  1  0
  5  6  1  0
  6  7  1  0
  7  8  1  0
  8  9  1  0
  9 10  2  0
  9 11  1  0
 11 12  2  0
 12 13  1  0
 13 14  2  0
 14 15  1  0
 15 16  2  0
 16 17  1  0
 17 18  2  0
 18 19  1  0
 18 20  1  0
 20 21  1  0
 20 22  2  0
 14 23  1  0
  8 24  1  0
 24 25  1  0
 25  5  1  0
 23 11  1  0
 22 15  1  0
  3 26  1  0
  3 27  1  0
  4 28  1  0
  4 29  1  0
  6 30  1  0
  6 31  1  0
  7 32  1  0
  7 33  1  0
 12 34  1  0
 13 35  1  0
 16 36  1  0
 17 37  1  0
 22 38  1  0
 24 39  1  0
 24 40  1  0
 25 41  1  0
 25 42  1  0
M  END
$$$$
