
     RDKit          3D

 48 51  0  0  0  0  0  0  0  0999 V2000
    1.7388    1.2745   -3.3180 O   0  0  0  0  0  0  0  0  0  0  0  0
    2.3733    0.4104   -2.3415 S   0  0  0  0  0  6  0  0  0  0  0  0
    2.6103   -0.9838   -2.6582 O   0  0  0  0  0  0  0  0  0  0  0  0
    3.9366    1.1642   -1.8535 C   0  0  0  0  0  0  0  0  0  0  0  0
    4.4709    0.5622   -0.5787 C   0  0  0  0  0  0  0  0  0  0  0  0
    5.0025   -0.7357   -0.5618 C   0  0  0  0  0  0  0  0  0  0  0  0
    5.5005   -1.2847    0.6208 C   0  0  0  0  0  0  0  0  0  0  0  0
    5.4815   -0.5415    1.7984 C   0  0  0  0  0  0  0  0  0  0  0  0
    4.9671    0.7529    1.7943 C   0  0  0  0  0  0  0  0  0  0  0  0
    4.4679    1.3037    0.6127 C   0  0  0  0  0  0  0  0  0  0  0  0
    1.4246    0.4804   -0.9339 N   0  0  0  0  0  0  0  0  0  0  0  0
    0.9180    1.8354   -0.5665 C   0  0  0  0  0  0  0  0  0  0  0  0
    0.2119    1.7960    0.8046 C   0  0  0  0  0  0  0  0  0  0  0  0
   -0.8821    0.8073    0.9169 N   0  0  0  0  0  0  0  0  0  0  0  0
   -2.0628    1.2247    0.1425 C   0  0  0  0  0  0  0  0  0  0  0  0
   -3.2874    0.3752    0.4172 C   0  0  0  0  0  0  0  0  0  0  0  0
   -3.7833    0.2443    1.7368 C   0  0  0  0  0  0  0  0  0  0  0  0
   -4.9172   -0.5270    2.0098 C   0  0  0  0  0  0  0  0  0  0  0  0
   -5.5357   -1.1512    0.9495 C   0  0  0  0  0  0  0  0  0  0  0  0
   -5.0658   -1.0284   -0.3366 C   0  0  0  0  0  0  0  0  0  0  0  0
   -3.9504   -0.2747   -0.6372 C   0  0  0  0  0  0  0  0  0  0  0  0
   -5.8189   -1.7211   -1.2327 O   0  0  0  0  0  0  0  0  0  0  0  0
   -6.8147   -2.2963   -0.3614 C   0  0  0  0  0  0  0  0  0  0  0  0
   -6.6429   -1.9369    1.0250 O   0  0  0  0  0  0  0  0  0  0  0  0
   -0.3608   -0.5155    0.4989 C   0  0  0  0  0  0  0  0  0  0  0  0
    0.3384   -0.5452   -0.8764 C   0  0  0  0  0  0  0  0  0  0  0  0
    4.6429    1.0116   -2.6763 H   0  0  0  0  0  0  0  0  0  0  0  0
    3.7677    2.2410   -1.7542 H   0  0  0  0  0  0  0  0  0  0  0  0
    5.0245   -1.3375   -1.4694 H   0  0  0  0  0  0  0  0  0  0  0  0
    5.9008   -2.2955    0.6218 H   0  0  0  0  0  0  0  0  0  0  0  0
    5.8681   -0.9714    2.7187 H   0  0  0  0  0  0  0  0  0  0  0  0
    4.9555    1.3336    2.7131 H   0  0  0  0  0  0  0  0  0  0  0  0
    4.0769    2.3181    0.6342 H   0  0  0  0  0  0  0  0  0  0  0  0
    1.7538    2.5387   -0.5022 H   0  0  0  0  0  0  0  0  0  0  0  0
    0.2275    2.1990   -1.3355 H   0  0  0  0  0  0  0  0  0  0  0  0
    0.9584    1.5583    1.5743 H   0  0  0  0  0  0  0  0  0  0  0  0
   -0.1591    2.7973    1.0557 H   0  0  0  0  0  0  0  0  0  0  0  0
   -2.3368    2.2521    0.4179 H   0  0  0  0  0  0  0  0  0  0  0  0
   -1.8567    1.2460   -0.9340 H   0  0  0  0  0  0  0  0  0  0  0  0
   -3.2680    0.7437    2.5560 H   0  0  0  0  0  0  0  0  0  0  0  0
   -5.2950   -0.6327    3.0201 H   0  0  0  0  0  0  0  0  0  0  0  0
   -3.6061   -0.1969   -1.6628 H   0  0  0  0  0  0  0  0  0  0  0  0
   -7.8046   -1.9596   -0.6906 H   0  0  0  0  0  0  0  0  0  0  0  0
   -6.7682   -3.3880   -0.4489 H   0  0  0  0  0  0  0  0  0  0  0  0
   -1.1520   -1.2735    0.5229 H   0  0  0  0  0  0  0  0  0  0  0  0
    0.3643   -0.8358    1.2595 H   0  0  0  0  0  0  0  0  0  0  0  0
   -0.3821   -0.3698   -1.6828 H   0  0  0  0  0  0  0  0  0  0  0  0
    0.7679   -1.5439   -1.0086 H   0  0  0  0  0  0  0  0  0  0  0  0
  1  2  2  0
  2  3  2  0
  2  4  1  0
  4  5  1  0
  5  6  2  0
  6  7  1  0
  7  8  2  0
  8  9  1  0
  9 10  2  0
  2 11  1  0
 11 12  1  0
 12 13  1  0
 13 14  1  0
 14 15  1  0
 15 16  1  0
 16 17  2  0
 17 18  1  0
 18 19  2  0
 19 20  1  0
 20 21  2  0
 20 22  1  0
 22 23  1  0
 23 24  1  0
 14 25  1  0
 25 26  1  0
 10  5  1  0
 26 11  1  0
 21 16  1  0
 24 19  1  0
  4 27  1  0
  4 28  1  0
  6 29  1  0
  7 30  1  0
  8 31  1  0
  9 32  1  0
 10 33  1  0
 12 34  1  0
 12 35  1  0
 13 36  1  0
 13 37  1  0
 15 38  1  0
 15 39  1  0
 17 40  1  0
 18 41  1  0
 21 42  1  0
 23 43  1  0
 23 44  1  0
 25 45  1  0
 25 46  1  0
 26 47  1  0
 26 48  1  0
M  END
$$$$
