
     RDKit          3D

 35 37  0  0  0  0  0  0  0  0999 V2000
   -3.2163   -2.0719   -0.9558 C   0  0  0  0  0  0  0  0  0  0  0  0
   -3.8321   -0.9136   -0.2187 C   0  0  0  0  0  0  0  0  0  0  0  0
   -5.2149   -0.6936   -0.3367 C   0  0  0  0  0  0  0  0  0  0  0  0
   -5.8324    0.3652    0.3288 C   0  0  0  0  0  0  0  0  0  0  0  0
   -5.0773    1.2196    1.1238 C   0  0  0  0  0  0  0  0  0  0  0  0
   -3.7053    1.0114    1.2582 C   0  0  0  0  0  0  0  0  0  0  0  0
   -3.0653   -0.0572    0.6016 C   0  0  0  0  0  0  0  0  0  0  0  0
   -1.5712   -0.2262    0.7845 C   0  0  0  0  0  0  0  0  0  0  0  0
   -0.6432    0.7551   -0.4322 S   0  0  0  0  0  0  0  0  0  0  0  0
    0.9969    0.3670    0.0283 C   0  0  0  0  0  0  0  0  0  0  0  0
    1.2390   -0.4531    1.0010 N   0  0  0  0  0  0  0  0  0  0  0  0
    2.5567   -0.7273    1.3293 C   0  0  0  0  0  0  0  0  0  0  0  0
    2.8782   -1.4799    2.2417 O   0  0  0  0  0  0  0  0  0  0  0  0
    3.6107   -0.0685    0.5286 C   0  0  0  0  0  0  0  0  0  0  0  0
    3.2592    0.7578   -0.4545 C   0  0  0  0  0  0  0  0  0  0  0  0
    1.9514    0.9961   -0.7214 N   0  0  0  0  0  0  0  0  0  0  0  0
    4.4364    1.3296   -1.1562 C   0  0  0  0  0  0  0  0  0  0  0  0
    5.5802    0.4521   -0.6200 C   0  0  0  0  0  0  0  0  0  0  0  0
    5.0759   -0.2077    0.6747 C   0  0  0  0  0  0  0  0  0  0  0  0
   -2.3709   -1.7365   -1.5634 H   0  0  0  0  0  0  0  0  0  0  0  0
   -3.9353   -2.5417   -1.6359 H   0  0  0  0  0  0  0  0  0  0  0  0
   -2.8814   -2.8351   -0.2464 H   0  0  0  0  0  0  0  0  0  0  0  0
   -5.8243   -1.3502   -0.9542 H   0  0  0  0  0  0  0  0  0  0  0  0
   -6.9023    0.5232    0.2229 H   0  0  0  0  0  0  0  0  0  0  0  0
   -5.5542    2.0496    1.6382 H   0  0  0  0  0  0  0  0  0  0  0  0
   -3.1295    1.6912    1.8840 H   0  0  0  0  0  0  0  0  0  0  0  0
   -1.2958    0.0944    1.7966 H   0  0  0  0  0  0  0  0  0  0  0  0
   -1.2962   -1.2828    0.7067 H   0  0  0  0  0  0  0  0  0  0  0  0
    1.6781    1.6182   -1.4707 H   0  0  0  0  0  0  0  0  0  0  0  0
    4.3578    1.2502   -2.2446 H   0  0  0  0  0  0  0  0  0  0  0  0
    4.5798    2.3797   -0.8802 H   0  0  0  0  0  0  0  0  0  0  0  0
    6.4957    1.0298   -0.4535 H   0  0  0  0  0  0  0  0  0  0  0  0
    5.8207   -0.3260   -1.3566 H   0  0  0  0  0  0  0  0  0  0  0  0
    5.4318    0.3321    1.5582 H   0  0  0  0  0  0  0  0  0  0  0  0
    5.3993   -1.2512    0.7342 H   0  0  0  0  0  0  0  0  0  0  0  0
  1  2  1  0
  2  3  2  0
  3  4  1  0
  4  5  2  0
  5  6  1  0
  6  7  2  0
  7  8  1  0
  8  9  1  0
  9 10  1  0
 10 11  2  0
 11 12  1  0
 12 13  2  0
 12 14  1  0
 14 15  2  0
 15 16  1  0
 15 17  1  0
 17 18  1  0
 18 19  1  0
  7  2  1  0
 16 10  1  0
 19 14  1  0
  1 20  1  0
  1 21  1  0
  1 22  1  0
  3 23  1  0
  4 24  1  0
  5 25  1  0
  6 26  1  0
  8 27  1  0
  8 28  1  0
 16 29  1  0
 17 30  1  0
 17 31  1  0
 18 32  1  0
 18 33  1  0
 19 34  1  0
 19 35  1  0
M  END
$$$$
