
     RDKit          3D

 45 47  0  0  0  0  0  0  0  0999 V2000
   -2.7596   -2.8953   -1.4487 C   0  0  0  0  0  0  0  0  0  0  0  0
   -2.5014   -1.8019   -0.5749 O   0  0  0  0  0  0  0  0  0  0  0  0
   -3.4752   -1.5004    0.3522 C   0  0  0  0  0  0  0  0  0  0  0  0
   -4.6775   -2.1956    0.5067 C   0  0  0  0  0  0  0  0  0  0  0  0
   -5.5957   -1.7950    1.4789 C   0  0  0  0  0  0  0  0  0  0  0  0
   -5.3169   -0.7033    2.2976 C   0  0  0  0  0  0  0  0  0  0  0  0
   -4.1164   -0.0048    2.1531 C   0  0  0  0  0  0  0  0  0  0  0  0
   -3.1908   -0.3953    1.1851 C   0  0  0  0  0  0  0  0  0  0  0  0
   -1.9541    0.2533    0.9715 N   0  0  0  0  0  0  0  0  0  0  0  0
   -1.4379    1.3544    1.6193 C   0  0  0  0  0  0  0  0  0  0  0  0
   -1.9852    1.9882    2.5171 O   0  0  0  0  0  0  0  0  0  0  0  0
   -0.0505    1.7702    1.1301 C   0  0  0  0  0  0  0  0  0  0  0  0
    0.9900    0.6667    1.3746 C   0  0  0  0  0  0  0  0  0  0  0  0
    1.5496    0.1039    0.0735 C   0  0  0  0  0  0  0  0  0  0  0  0
    2.1535    1.2021   -0.7093 N   0  0  0  0  0  0  0  0  0  0  0  0
    3.0672    0.7293   -2.0660 S   0  0  0  0  0  6  0  0  0  0  0  0
    2.2692   -0.2186   -2.8165 O   0  0  0  0  0  0  0  0  0  0  0  0
    3.6241    1.9107   -2.6891 O   0  0  0  0  0  0  0  0  0  0  0  0
    4.4706   -0.2047   -1.4992 C   0  0  0  0  0  0  0  0  0  0  0  0
    4.9740   -1.4391   -1.8648 C   0  0  0  0  0  0  0  0  0  0  0  0
    6.1362   -1.7924   -1.1199 C   0  0  0  0  0  0  0  0  0  0  0  0
    6.4817   -0.8145   -0.2129 C   0  0  0  0  0  0  0  0  0  0  0  0
    5.4109    0.5197   -0.2651 S   0  0  0  0  0  0  0  0  0  0  0  0
    1.3046    2.4043   -0.9073 C   0  0  0  0  0  0  0  0  0  0  0  0
   -0.0940    2.2308   -0.3303 C   0  0  0  0  0  0  0  0  0  0  0  0
   -1.9103   -2.9815   -2.1345 H   0  0  0  0  0  0  0  0  0  0  0  0
   -2.8331   -3.8328   -0.8893 H   0  0  0  0  0  0  0  0  0  0  0  0
   -3.6561   -2.7192   -2.0524 H   0  0  0  0  0  0  0  0  0  0  0  0
   -4.9345   -3.0482   -0.1128 H   0  0  0  0  0  0  0  0  0  0  0  0
   -6.5323   -2.3340    1.5960 H   0  0  0  0  0  0  0  0  0  0  0  0
   -6.0333   -0.3912    3.0528 H   0  0  0  0  0  0  0  0  0  0  0  0
   -3.9337    0.8392    2.8108 H   0  0  0  0  0  0  0  0  0  0  0  0
   -1.4182   -0.1716    0.2227 H   0  0  0  0  0  0  0  0  0  0  0  0
    0.2400    2.6319    1.7471 H   0  0  0  0  0  0  0  0  0  0  0  0
    0.5839   -0.1475    1.9860 H   0  0  0  0  0  0  0  0  0  0  0  0
    1.8192    1.0957    1.9529 H   0  0  0  0  0  0  0  0  0  0  0  0
    2.3111   -0.6429    0.3205 H   0  0  0  0  0  0  0  0  0  0  0  0
    0.7652   -0.3951   -0.5058 H   0  0  0  0  0  0  0  0  0  0  0  0
    4.5217   -2.0530   -2.6357 H   0  0  0  0  0  0  0  0  0  0  0  0
    6.6941   -2.7140   -1.2433 H   0  0  0  0  0  0  0  0  0  0  0  0
    7.3156   -0.8155    0.4763 H   0  0  0  0  0  0  0  0  0  0  0  0
    1.2097    2.6530   -1.9691 H   0  0  0  0  0  0  0  0  0  0  0  0
    1.8066    3.2480   -0.4209 H   0  0  0  0  0  0  0  0  0  0  0  0
   -0.6443    3.1772   -0.4023 H   0  0  0  0  0  0  0  0  0  0  0  0
   -0.6480    1.5189   -0.9549 H   0  0  0  0  0  0  0  0  0  0  0  0
  1  2  1  0
  2  3  1  0
  3  4  2  0
  4  5  1  0
  5  6  2  0
  6  7  1  0
  7  8  2  0
  8  9  1  0
  9 10  1  0
 10 11  2  0
 10 12  1  0
 12 13  1  0
 13 14  1  0
 14 15  1  0
 15 16  1  0
 16 17  2  0
 16 18  2  0
 16 19  1  0
 19 20  2  0
 20 21  1  0
 21 22  2  0
 22 23  1  0
 15 24  1  0
 24 25  1  0
  8  3  1  0
 25 12  1  0
 23 19  1  0
  1 26  1  0
  1 27  1  0
  1 28  1  0
  4 29  1  0
  5 30  1  0
  6 31  1  0
  7 32  1  0
  9 33  1  0
 12 34  1  0
 13 35  1  0
 13 36  1  0
 14 37  1  0
 14 38  1  0
 20 39  1  0
 21 40  1  0
 22 41  1  0
 24 42  1  0
 24 43  1  0
 25 44  1  0
 25 45  1  0
M  END
$$$$
