
     RDKit          3D

 39 41  0  0  0  0  0  0  0  0999 V2000
   -7.4749    1.2553   -0.5735 C   0  0  0  0  0  0  0  0  0  0  0  0
   -6.6766    0.1041   -0.8168 O   0  0  0  0  0  0  0  0  0  0  0  0
   -5.3252    0.2446   -0.6658 C   0  0  0  0  0  0  0  0  0  0  0  0
   -4.6551    1.4146   -0.3123 C   0  0  0  0  0  0  0  0  0  0  0  0
   -3.2589    1.4208   -0.1949 C   0  0  0  0  0  0  0  0  0  0  0  0
   -2.5167    0.2546   -0.4340 C   0  0  0  0  0  0  0  0  0  0  0  0
   -1.0900    0.2699   -0.3157 N   0  0  0  0  0  0  0  0  0  0  0  0
   -0.2513    1.3583   -0.5849 C   0  0  0  0  0  0  0  0  0  0  0  0
   -0.6446    2.4913   -1.1694 O   0  0  0  0  0  0  0  0  0  0  0  0
    1.0295    1.0249   -0.2032 C   0  0  0  0  0  0  0  0  0  0  0  0
    1.0196   -0.3239    0.1953 C   0  0  0  0  0  0  0  0  0  0  0  0
    2.0776   -1.0718    0.5934 N   0  0  0  0  0  0  0  0  0  0  0  0
    3.3965   -0.6109    0.4484 N   0  0  0  0  0  0  0  0  0  0  0  0
    4.3993   -1.5598    0.3162 C   0  0  0  0  0  0  0  0  0  0  0  0
    4.1450   -2.7506    0.1288 O   0  0  0  0  0  0  0  0  0  0  0  0
    5.7372   -1.0251    0.4401 C   0  0  0  0  0  0  0  0  0  0  0  0
    6.9733   -1.6372    0.3514 C   0  0  0  0  0  0  0  0  0  0  0  0
    7.9444   -0.6288    0.5594 C   0  0  0  0  0  0  0  0  0  0  0  0
    7.2467    0.5376    0.7646 C   0  0  0  0  0  0  0  0  0  0  0  0
    5.9093    0.3118    0.6970 O   0  0  0  0  0  0  0  0  0  0  0  0
   -0.2808   -0.7829    0.1234 C   0  0  0  0  0  0  0  0  0  0  0  0
   -0.7802   -1.9686    0.4780 O   0  0  0  0  0  0  0  0  0  0  0  0
   -3.1938   -0.9211   -0.7716 C   0  0  0  0  0  0  0  0  0  0  0  0
   -4.5875   -0.9187   -0.8916 C   0  0  0  0  0  0  0  0  0  0  0  0
   -7.3731    1.5948    0.4626 H   0  0  0  0  0  0  0  0  0  0  0  0
   -7.2351    2.0580   -1.2786 H   0  0  0  0  0  0  0  0  0  0  0  0
   -8.5212    0.9759   -0.7308 H   0  0  0  0  0  0  0  0  0  0  0  0
   -5.1873    2.3375   -0.1062 H   0  0  0  0  0  0  0  0  0  0  0  0
   -2.7795    2.3391    0.1394 H   0  0  0  0  0  0  0  0  0  0  0  0
   -1.4509    2.3101   -1.6858 H   0  0  0  0  0  0  0  0  0  0  0  0
    1.8825    1.6830   -0.2881 H   0  0  0  0  0  0  0  0  0  0  0  0
    2.0381   -2.0912    0.4783 H   0  0  0  0  0  0  0  0  0  0  0  0
    3.6191    0.3040    0.8300 H   0  0  0  0  0  0  0  0  0  0  0  0
    7.1399   -2.6886    0.1577 H   0  0  0  0  0  0  0  0  0  0  0  0
    9.0201   -0.7381    0.5597 H   0  0  0  0  0  0  0  0  0  0  0  0
    7.5398    1.5599    0.9617 H   0  0  0  0  0  0  0  0  0  0  0  0
   -0.0702   -2.4491    0.9383 H   0  0  0  0  0  0  0  0  0  0  0  0
   -2.6632   -1.8466   -0.9785 H   0  0  0  0  0  0  0  0  0  0  0  0
   -5.1020   -1.8372   -1.1651 H   0  0  0  0  0  0  0  0  0  0  0  0
  1  2  1  0
  2  3  1  0
  3  4  2  0
  4  5  1  0
  5  6  2  0
  6  7  1  0
  7  8  1  0
  8  9  1  0
  8 10  2  0
 10 11  1  0
 11 12  1  0
 12 13  1  0
 13 14  1  0
 14 15  2  0
 14 16  1  0
 16 17  2  0
 17 18  1  0
 18 19  2  0
 19 20  1  0
 11 21  2  0
 21 22  1  0
  6 23  1  0
 23 24  2  0
 24  3  1  0
 21  7  1  0
 20 16  1  0
  1 25  1  0
  1 26  1  0
  1 27  1  0
  4 28  1  0
  5 29  1  0
  9 30  1  0
 10 31  1  0
 12 32  1  0
 13 33  1  0
 17 34  1  0
 18 35  1  0
 19 36  1  0
 22 37  1  0
 23 38  1  0
 24 39  1  0
M  END
$$$$
