
     RDKit          3D

 47 50  0  0  0  0  0  0  0  0999 V2000
    6.7467    2.7316    1.0611 C   0  0  0  0  0  0  0  0  0  0  0  0
    5.4586    1.9644    0.8910 C   0  0  0  0  0  0  0  0  0  0  0  0
    4.4391    2.3229    1.4663 O   0  0  0  0  0  0  0  0  0  0  0  0
    5.6165    0.8558    0.0796 N   0  0  0  0  0  0  0  0  0  0  0  0
    4.6296   -0.0714   -0.3200 C   0  0  0  0  0  0  0  0  0  0  0  0
    5.0723   -1.1756   -1.0593 C   0  0  0  0  0  0  0  0  0  0  0  0
    4.1729   -2.1493   -1.4883 C   0  0  0  0  0  0  0  0  0  0  0  0
    2.8187   -2.0211   -1.1884 C   0  0  0  0  0  0  0  0  0  0  0  0
    2.3507   -0.9159   -0.4669 C   0  0  0  0  0  0  0  0  0  0  0  0
    0.9625   -0.8693   -0.2147 N   0  0  0  0  0  0  0  0  0  0  0  0
    0.2500    0.1534    0.3788 C   0  0  0  0  0  0  0  0  0  0  0  0
    0.6485    1.2567    0.7201 O   0  0  0  0  0  0  0  0  0  0  0  0
   -1.1939   -0.1325    0.5382 C   0  0  0  0  0  0  0  0  0  0  0  0
   -2.0682    0.7386   -0.1150 C   0  0  0  0  0  0  0  0  0  0  0  0
   -3.4276    0.4931   -0.0381 C   0  0  0  0  0  0  0  0  0  0  0  0
   -4.4443    1.3365   -0.6930 C   0  0  0  0  0  0  0  0  0  0  0  0
   -5.6895    0.8183   -1.0837 C   0  0  0  0  0  0  0  0  0  0  0  0
   -6.6392    1.6272   -1.7070 C   0  0  0  0  0  0  0  0  0  0  0  0
   -6.3234    2.9544   -1.9286 C   0  0  0  0  0  0  0  0  0  0  0  0
   -5.1487    3.5088   -1.5699 N   0  0  0  0  0  0  0  0  0  0  0  0
   -4.2502    2.6938   -0.9593 C   0  0  0  0  0  0  0  0  0  0  0  0
   -3.9063   -0.5790    0.6438 N   0  0  0  0  0  0  0  0  0  0  0  0
   -3.0674   -1.3930    1.3044 C   0  0  0  0  0  0  0  0  0  0  0  0
   -3.6091   -2.4513    2.0225 C   0  0  0  0  0  0  0  0  0  0  0  0
   -2.8108   -3.3365    2.7518 C   0  0  0  0  0  0  0  0  0  0  0  0
   -1.4364   -3.1553    2.7712 C   0  0  0  0  0  0  0  0  0  0  0  0
   -0.4406   -4.2285    3.6709 Cl  0  0  0  0  0  0  0  0  0  0  0  0
   -0.8637   -2.1047    2.0597 C   0  0  0  0  0  0  0  0  0  0  0  0
   -1.6723   -1.2176    1.3021 C   0  0  0  0  0  0  0  0  0  0  0  0
    3.2641    0.0535   -0.0316 C   0  0  0  0  0  0  0  0  0  0  0  0
    7.3188    2.7463    0.1288 H   0  0  0  0  0  0  0  0  0  0  0  0
    7.3429    2.2683    1.8516 H   0  0  0  0  0  0  0  0  0  0  0  0
    6.5199    3.7660    1.3350 H   0  0  0  0  0  0  0  0  0  0  0  0
    6.5581    0.6609   -0.2347 H   0  0  0  0  0  0  0  0  0  0  0  0
    6.1244   -1.2980   -1.3036 H   0  0  0  0  0  0  0  0  0  0  0  0
    4.5270   -3.0063   -2.0552 H   0  0  0  0  0  0  0  0  0  0  0  0
    2.1356   -2.7925   -1.5344 H   0  0  0  0  0  0  0  0  0  0  0  0
    0.4281   -1.6618   -0.5495 H   0  0  0  0  0  0  0  0  0  0  0  0
   -1.6676    1.5737   -0.6822 H   0  0  0  0  0  0  0  0  0  0  0  0
   -5.9258   -0.2286   -0.9021 H   0  0  0  0  0  0  0  0  0  0  0  0
   -7.6005    1.2275   -2.0090 H   0  0  0  0  0  0  0  0  0  0  0  0
   -7.0272    3.6267   -2.4107 H   0  0  0  0  0  0  0  0  0  0  0  0
   -3.3355    3.2058   -0.6702 H   0  0  0  0  0  0  0  0  0  0  0  0
   -4.6891   -2.5875    2.0219 H   0  0  0  0  0  0  0  0  0  0  0  0
   -3.2730   -4.1500    3.3047 H   0  0  0  0  0  0  0  0  0  0  0  0
    0.2148   -1.9658    2.1126 H   0  0  0  0  0  0  0  0  0  0  0  0
    2.9107    0.9075    0.5343 H   0  0  0  0  0  0  0  0  0  0  0  0
  1  2  1  0
  2  3  2  0
  2  4  1  0
  4  5  1  0
  5  6  2  0
  6  7  1  0
  7  8  2  0
  8  9  1  0
  9 10  1  0
 10 11  1  0
 11 12  2  0
 11 13  1  0
 13 14  2  0
 14 15  1  0
 15 16  1  0
 16 17  2  0
 17 18  1  0
 18 19  2  0
 19 20  1  0
 20 21  2  0
 15 22  2  0
 22 23  1  0
 23 24  2  0
 24 25  1  0
 25 26  2  0
 26 27  1  0
 26 28  1  0
 28 29  2  0
  9 30  2  0
 30  5  1  0
 29 13  1  0
 21 16  1  0
 29 23  1  0
  1 31  1  0
  1 32  1  0
  1 33  1  0
  4 34  1  0
  6 35  1  0
  7 36  1  0
  8 37  1  0
 10 38  1  0
 14 39  1  0
 17 40  1  0
 18 41  1  0
 19 42  1  0
 21 43  1  0
 24 44  1  0
 25 45  1  0
 28 46  1  0
 30 47  1  0
M  END
$$$$
