
     RDKit          3D

 47 48  0  0  0  0  0  0  0  0999 V2000
    9.4064    0.5390    1.1738 C   0  0  0  0  0  0  0  0  0  0  0  0
    7.9349    0.6694    0.9132 C   0  0  0  0  0  0  0  0  0  0  0  0
    7.0608   -0.3485    1.3100 C   0  0  0  0  0  0  0  0  0  0  0  0
    5.6877   -0.2349    1.0810 C   0  0  0  0  0  0  0  0  0  0  0  0
    5.1620    0.9055    0.4578 C   0  0  0  0  0  0  0  0  0  0  0  0
    3.6806    1.0238    0.1986 C   0  0  0  0  0  0  0  0  0  0  0  0
    3.2358    0.3482   -1.4260 S   0  0  0  0  0  0  0  0  0  0  0  0
    1.5192    0.5936   -1.3978 C   0  0  0  0  0  0  0  0  0  0  0  0
    0.8442    1.1451   -0.4093 N   0  0  0  0  0  0  0  0  0  0  0  0
   -0.4831    1.1449   -0.7800 N   0  0  0  0  0  0  0  0  0  0  0  0
   -0.5296    0.5941   -1.9738 C   0  0  0  0  0  0  0  0  0  0  0  0
   -1.6854    0.3173   -2.8584 C   0  0  0  0  0  0  0  0  0  0  0  0
   -3.0135    0.7783   -2.2647 C   0  0  0  0  0  0  0  0  0  0  0  0
   -3.3928    0.0217   -1.0874 N   0  0  0  0  0  0  0  0  0  0  0  0
   -4.6742   -0.3705   -0.8448 C   0  0  0  0  0  0  0  0  0  0  0  0
   -5.5948   -0.2916   -1.6418 O   0  0  0  0  0  0  0  0  0  0  0  0
   -4.7462   -0.8461    0.4180 O   0  0  0  0  0  0  0  0  0  0  0  0
   -6.0035   -1.3281    0.9585 C   0  0  0  0  0  0  0  0  0  0  0  0
   -6.5209   -2.5395    0.1750 C   0  0  0  0  0  0  0  0  0  0  0  0
   -7.0442   -0.2046    1.0300 C   0  0  0  0  0  0  0  0  0  0  0  0
   -5.6670   -1.7773    2.3899 C   0  0  0  0  0  0  0  0  0  0  0  0
    0.7025    0.2170   -2.4323 O   0  0  0  0  0  0  0  0  0  0  0  0
    6.0402    1.9224    0.0576 C   0  0  0  0  0  0  0  0  0  0  0  0
    7.4132    1.8073    0.2885 C   0  0  0  0  0  0  0  0  0  0  0  0
    9.6043    0.5980    2.2493 H   0  0  0  0  0  0  0  0  0  0  0  0
    9.7766   -0.4181    0.7908 H   0  0  0  0  0  0  0  0  0  0  0  0
    9.9740    1.3345    0.6793 H   0  0  0  0  0  0  0  0  0  0  0  0
    7.4463   -1.2434    1.7946 H   0  0  0  0  0  0  0  0  0  0  0  0
    5.0309   -1.0453    1.3893 H   0  0  0  0  0  0  0  0  0  0  0  0
    3.3836    2.0776    0.2566 H   0  0  0  0  0  0  0  0  0  0  0  0
    3.1303    0.4931    0.9844 H   0  0  0  0  0  0  0  0  0  0  0  0
   -1.7260   -0.7578   -3.0716 H   0  0  0  0  0  0  0  0  0  0  0  0
   -1.5254    0.8347   -3.8119 H   0  0  0  0  0  0  0  0  0  0  0  0
   -3.7974    0.6814   -3.0239 H   0  0  0  0  0  0  0  0  0  0  0  0
   -2.9727    1.8332   -1.9677 H   0  0  0  0  0  0  0  0  0  0  0  0
   -2.7997    0.0589   -0.2661 H   0  0  0  0  0  0  0  0  0  0  0  0
   -7.3722   -3.0074    0.6806 H   0  0  0  0  0  0  0  0  0  0  0  0
   -5.7315   -3.2901    0.0539 H   0  0  0  0  0  0  0  0  0  0  0  0
   -6.8496   -2.2636   -0.8314 H   0  0  0  0  0  0  0  0  0  0  0  0
   -6.6242    0.6860    1.5097 H   0  0  0  0  0  0  0  0  0  0  0  0
   -7.9308   -0.5173    1.5912 H   0  0  0  0  0  0  0  0  0  0  0  0
   -7.3797    0.1045    0.0356 H   0  0  0  0  0  0  0  0  0  0  0  0
   -5.2530   -0.9456    2.9714 H   0  0  0  0  0  0  0  0  0  0  0  0
   -4.9008   -2.5614    2.3826 H   0  0  0  0  0  0  0  0  0  0  0  0
   -6.5490   -2.1603    2.9132 H   0  0  0  0  0  0  0  0  0  0  0  0
    5.6605    2.8119   -0.4416 H   0  0  0  0  0  0  0  0  0  0  0  0
    8.0729    2.6104   -0.0331 H   0  0  0  0  0  0  0  0  0  0  0  0
  1  2  1  0
  2  3  2  0
  3  4  1  0
  4  5  2  0
  5  6  1  0
  6  7  1  0
  7  8  1  0
  8  9  2  0
  9 10  1  0
 10 11  2  0
 11 12  1  0
 12 13  1  0
 13 14  1  0
 14 15  1  0
 15 16  2  0
 15 17  1  0
 17 18  1  0
 18 19  1  0
 18 20  1  0
 18 21  1  0
 11 22  1  0
  5 23  1  0
 23 24  2  0
 24  2  1  0
 22  8  1  0
  1 25  1  0
  1 26  1  0
  1 27  1  0
  3 28  1  0
  4 29  1  0
  6 30  1  0
  6 31  1  0
 12 32  1  0
 12 33  1  0
 13 34  1  0
 13 35  1  0
 14 36  1  0
 19 37  1  0
 19 38  1  0
 19 39  1  0
 20 40  1  0
 20 41  1  0
 20 42  1  0
 21 43  1  0
 21 44  1  0
 21 45  1  0
 23 46  1  0
 24 47  1  0
M  END
$$$$
