
     RDKit          3D

 52 55  0  0  0  0  0  0  0  0999 V2000
    7.6173    1.2754    4.7950 N   0  0  0  0  0  0  0  0  0  0  0  0
    6.3570    0.3748    5.4573 S   0  0  0  0  0  6  0  0  0  0  0  0
    6.8538   -0.9527    5.7297 O   0  0  0  0  0  0  0  0  0  0  0  0
    5.7748    1.2129    6.4801 O   0  0  0  0  0  0  0  0  0  0  0  0
    5.2321    0.2861    4.0904 C   0  0  0  0  0  0  0  0  0  0  0  0
    5.3611   -0.7517    3.1638 C   0  0  0  0  0  0  0  0  0  0  0  0
    4.4748   -0.8276    2.0886 C   0  0  0  0  0  0  0  0  0  0  0  0
    3.4594    0.1277    1.9380 C   0  0  0  0  0  0  0  0  0  0  0  0
    2.4842    0.0366    0.7896 C   0  0  0  0  0  0  0  0  0  0  0  0
    1.1890   -0.6689    1.1992 C   0  0  0  0  0  0  0  0  0  0  0  0
    0.2515   -0.7798    0.0978 N   0  0  0  0  0  0  0  0  0  0  0  0
   -0.4946    0.3000   -0.3216 C   0  0  0  0  0  0  0  0  0  0  0  0
   -0.4226    1.4201    0.1665 O   0  0  0  0  0  0  0  0  0  0  0  0
   -1.4807    0.0159   -1.3868 C   0  0  0  0  0  0  0  0  0  0  0  0
   -2.8059    0.3416   -1.0929 C   0  0  0  0  0  0  0  0  0  0  0  0
   -3.7843    0.0456   -2.0254 C   0  0  0  0  0  0  0  0  0  0  0  0
   -5.2203    0.3320   -1.8138 C   0  0  0  0  0  0  0  0  0  0  0  0
   -6.0688    0.5890   -2.9081 C   0  0  0  0  0  0  0  0  0  0  0  0
   -7.4280    0.8668   -2.7334 C   0  0  0  0  0  0  0  0  0  0  0  0
   -7.9742    0.8898   -1.4546 C   0  0  0  0  0  0  0  0  0  0  0  0
   -7.1633    0.6313   -0.3539 C   0  0  0  0  0  0  0  0  0  0  0  0
   -5.8032    0.3539   -0.5324 C   0  0  0  0  0  0  0  0  0  0  0  0
   -3.4687   -0.5362   -3.2102 N   0  0  0  0  0  0  0  0  0  0  0  0
   -2.1890   -0.8182   -3.5061 C   0  0  0  0  0  0  0  0  0  0  0  0
   -1.9122   -1.3916   -4.7401 C   0  0  0  0  0  0  0  0  0  0  0  0
   -0.6096   -1.6974   -5.1400 C   0  0  0  0  0  0  0  0  0  0  0  0
    0.4518   -1.4179   -4.2924 C   0  0  0  0  0  0  0  0  0  0  0  0
    0.2004   -0.8465   -3.0466 C   0  0  0  0  0  0  0  0  0  0  0  0
   -1.1241   -0.5542   -2.6273 C   0  0  0  0  0  0  0  0  0  0  0  0
    3.3340    1.1549    2.8859 C   0  0  0  0  0  0  0  0  0  0  0  0
    4.2158    1.2352    3.9644 C   0  0  0  0  0  0  0  0  0  0  0  0
    7.5241    1.4150    3.7895 H   0  0  0  0  0  0  0  0  0  0  0  0
    7.6857    2.1622    5.2973 H   0  0  0  0  0  0  0  0  0  0  0  0
    6.1408   -1.5029    3.2758 H   0  0  0  0  0  0  0  0  0  0  0  0
    4.5785   -1.6399    1.3717 H   0  0  0  0  0  0  0  0  0  0  0  0
    2.2754    1.0466    0.4149 H   0  0  0  0  0  0  0  0  0  0  0  0
    2.9483   -0.4953   -0.0511 H   0  0  0  0  0  0  0  0  0  0  0  0
    1.3977   -1.6870    1.5466 H   0  0  0  0  0  0  0  0  0  0  0  0
    0.6962   -0.1319    2.0184 H   0  0  0  0  0  0  0  0  0  0  0  0
    0.0491   -1.6990   -0.2773 H   0  0  0  0  0  0  0  0  0  0  0  0
   -3.0469    0.8232   -0.1506 H   0  0  0  0  0  0  0  0  0  0  0  0
   -5.6646    0.5765   -3.9196 H   0  0  0  0  0  0  0  0  0  0  0  0
   -8.0551    1.0632   -3.5990 H   0  0  0  0  0  0  0  0  0  0  0  0
   -9.0306    1.1042   -1.3167 H   0  0  0  0  0  0  0  0  0  0  0  0
   -7.5880    0.6402    0.6467 H   0  0  0  0  0  0  0  0  0  0  0  0
   -5.2093    0.1382    0.3527 H   0  0  0  0  0  0  0  0  0  0  0  0
   -2.7387   -1.6011   -5.4164 H   0  0  0  0  0  0  0  0  0  0  0  0
   -0.4319   -2.1406   -6.1166 H   0  0  0  0  0  0  0  0  0  0  0  0
    1.4714   -1.6343   -4.6013 H   0  0  0  0  0  0  0  0  0  0  0  0
    1.0513   -0.6105   -2.4112 H   0  0  0  0  0  0  0  0  0  0  0  0
    2.5402    1.8950    2.7888 H   0  0  0  0  0  0  0  0  0  0  0  0
    4.0987    2.0314    4.6965 H   0  0  0  0  0  0  0  0  0  0  0  0
  1  2  1  0
  2  3  2  0
  2  4  2  0
  2  5  1  0
  5  6  2  0
  6  7  1  0
  7  8  2  0
  8  9  1  0
  9 10  1  0
 10 11  1  0
 11 12  1  0
 12 13  2  0
 12 14  1  0
 14 15  2  0
 15 16  1  0
 16 17  1  0
 17 18  2  0
 18 19  1  0
 19 20  2  0
 20 21  1  0
 21 22  2  0
 16 23  2  0
 23 24  1  0
 24 25  2  0
 25 26  1  0
 26 27  2  0
 27 28  1  0
 28 29  2  0
  8 30  1  0
 30 31  2  0
 31  5  1  0
 29 14  1  0
 22 17  1  0
 29 24  1  0
  1 32  1  0
  1 33  1  0
  6 34  1  0
  7 35  1  0
  9 36  1  0
  9 37  1  0
 10 38  1  0
 10 39  1  0
 11 40  1  0
 15 41  1  0
 18 42  1  0
 19 43  1  0
 20 44  1  0
 21 45  1  0
 22 46  1  0
 25 47  1  0
 26 48  1  0
 27 49  1  0
 28 50  1  0
 30 51  1  0
 31 52  1  0
M  END
$$$$
