
     RDKit          3D

 49 51  0  0  0  0  0  0  0  0999 V2000
    9.0890   -2.1766    1.6245 N   0  0  0  0  0  0  0  0  0  0  0  0
    7.9513   -2.1256    1.3965 C   0  0  0  0  0  0  0  0  0  0  0  0
    6.5458   -2.0365    1.1298 C   0  0  0  0  0  0  0  0  0  0  0  0
    6.0146   -3.0556    0.4011 N   0  0  0  0  0  0  0  0  0  0  0  0
    4.6802   -2.9731    0.1531 C   0  0  0  0  0  0  0  0  0  0  0  0
    3.8762   -1.9265    0.6047 C   0  0  0  0  0  0  0  0  0  0  0  0
    2.4251   -1.8335    0.3522 C   0  0  0  0  0  0  0  0  0  0  0  0
    1.6169   -2.9737    0.1804 C   0  0  0  0  0  0  0  0  0  0  0  0
    0.2422   -2.8636   -0.0635 C   0  0  0  0  0  0  0  0  0  0  0  0
   -0.3574   -1.6101   -0.1456 C   0  0  0  0  0  0  0  0  0  0  0  0
    0.4100   -0.4675    0.0820 C   0  0  0  0  0  0  0  0  0  0  0  0
    1.7878   -0.5785    0.2989 C   0  0  0  0  0  0  0  0  0  0  0  0
   -0.1282    0.7936    0.0737 O   0  0  0  0  0  0  0  0  0  0  0  0
   -0.6967    1.0949    1.3613 C   0  0  0  0  0  0  0  0  0  0  0  0
   -0.9758    2.5986    1.4610 C   0  0  0  0  0  0  0  0  0  0  0  0
   -2.2054    2.9856    0.8397 O   0  0  0  0  0  0  0  0  0  0  0  0
   -2.1050    3.1716   -0.5719 C   0  0  0  0  0  0  0  0  0  0  0  0
   -3.4315    3.7057   -1.1265 C   0  0  0  0  0  0  0  0  0  0  0  0
   -4.5640    2.8633   -0.8969 O   0  0  0  0  0  0  0  0  0  0  0  0
   -4.5270    1.5977   -1.5520 C   0  0  0  0  0  0  0  0  0  0  0  0
   -4.3430    0.4826   -0.5223 C   0  0  0  0  0  0  0  0  0  0  0  0
   -4.4397   -0.8356   -1.0553 O   0  0  0  0  0  0  0  0  0  0  0  0
   -3.4634   -1.2210   -2.0235 C   0  0  0  0  0  0  0  0  0  0  0  0
   -1.9993   -0.9707   -1.6473 C   0  0  0  0  0  0  0  0  0  0  0  0
   -1.7035   -1.5899   -0.3898 O   0  0  0  0  0  0  0  0  0  0  0  0
    4.4289   -0.9100    1.3220 N   0  0  0  0  0  0  0  0  0  0  0  0
    5.7674   -0.9833    1.5791 C   0  0  0  0  0  0  0  0  0  0  0  0
    6.3078    0.0984    2.3470 C   0  0  0  0  0  0  0  0  0  0  0  0
    6.7606    0.9659    2.9716 N   0  0  0  0  0  0  0  0  0  0  0  0
    4.2816   -3.7890   -0.4424 H   0  0  0  0  0  0  0  0  0  0  0  0
    2.0354   -3.9762    0.2508 H   0  0  0  0  0  0  0  0  0  0  0  0
   -0.3612   -3.7594   -0.1911 H   0  0  0  0  0  0  0  0  0  0  0  0
    2.3657    0.3333    0.4424 H   0  0  0  0  0  0  0  0  0  0  0  0
    0.0156    0.8257    2.1517 H   0  0  0  0  0  0  0  0  0  0  0  0
   -1.6230    0.5268    1.4973 H   0  0  0  0  0  0  0  0  0  0  0  0
   -0.1459    3.1918    1.0607 H   0  0  0  0  0  0  0  0  0  0  0  0
   -1.0888    2.8540    2.5196 H   0  0  0  0  0  0  0  0  0  0  0  0
   -1.3128    3.8960   -0.7896 H   0  0  0  0  0  0  0  0  0  0  0  0
   -1.8542    2.2252   -1.0490 H   0  0  0  0  0  0  0  0  0  0  0  0
   -3.6608    4.6565   -0.6333 H   0  0  0  0  0  0  0  0  0  0  0  0
   -3.3468    3.9040   -2.2014 H   0  0  0  0  0  0  0  0  0  0  0  0
   -3.7618    1.5662   -2.3354 H   0  0  0  0  0  0  0  0  0  0  0  0
   -5.4893    1.4584   -2.0579 H   0  0  0  0  0  0  0  0  0  0  0  0
   -5.1291    0.5756    0.2368 H   0  0  0  0  0  0  0  0  0  0  0  0
   -3.4067    0.5981    0.0272 H   0  0  0  0  0  0  0  0  0  0  0  0
   -3.6060   -2.2969   -2.1746 H   0  0  0  0  0  0  0  0  0  0  0  0
   -3.6962   -0.7324   -2.9756 H   0  0  0  0  0  0  0  0  0  0  0  0
   -1.3605   -1.3878   -2.4370 H   0  0  0  0  0  0  0  0  0  0  0  0
   -1.8191    0.1032   -1.5913 H   0  0  0  0  0  0  0  0  0  0  0  0
  1  2  3  0
  2  3  1  0
  3  4  2  0
  4  5  1  0
  5  6  2  0
  6  7  1  0
  7  8  2  0
  8  9  1  0
  9 10  2  0
 10 11  1  0
 11 12  2  0
 11 13  1  0
 13 14  1  0
 14 15  1  0
 15 16  1  0
 16 17  1  0
 17 18  1  0
 18 19  1  0
 19 20  1  0
 20 21  1  0
 21 22  1  0
 22 23  1  0
 23 24  1  0
 24 25  1  0
  6 26  1  0
 26 27  2  0
 27 28  1  0
 28 29  3  0
 27  3  1  0
 12  7  1  0
 25 10  1  0
  5 30  1  0
  8 31  1  0
  9 32  1  0
 12 33  1  0
 14 34  1  0
 14 35  1  0
 15 36  1  0
 15 37  1  0
 17 38  1  0
 17 39  1  0
 18 40  1  0
 18 41  1  0
 20 42  1  0
 20 43  1  0
 21 44  1  0
 21 45  1  0
 23 46  1  0
 23 47  1  0
 24 48  1  0
 24 49  1  0
M  END
$$$$
