
     RDKit          3D

 40 41  0  0  0  0  0  0  0  0999 V2000
   -6.6789   -0.3183    0.3077 C   0  0  0  0  0  0  0  0  0  0  0  0
   -5.2253    0.0317    0.1975 C   0  0  0  0  0  0  0  0  0  0  0  0
   -4.2933   -0.9186   -0.2216 C   0  0  0  0  0  0  0  0  0  0  0  0
   -2.9350   -0.5921   -0.2904 C   0  0  0  0  0  0  0  0  0  0  0  0
   -2.4743    0.6837    0.0667 C   0  0  0  0  0  0  0  0  0  0  0  0
   -1.0875    0.8936   -0.0442 N   0  0  0  0  0  0  0  0  0  0  0  0
   -0.2464    1.9544    0.2003 C   0  0  0  0  0  0  0  0  0  0  0  0
   -0.5647    3.4922    0.7525 S   0  0  0  0  0  0  0  0  0  0  0  0
    1.0794    1.6431   -0.0647 N   0  0  0  0  0  0  0  0  0  0  0  0
    1.4286    0.4339   -0.7306 N   0  0  0  0  0  0  0  0  0  0  0  0
    1.5649    0.6389   -2.1826 C   0  0  0  0  0  0  0  0  0  0  0  0
    2.6149   -0.1194   -0.1580 C   0  0  0  0  0  0  0  0  0  0  0  0
    3.7622   -0.1289   -0.8884 N   0  0  0  0  0  0  0  0  0  0  0  0
    4.8735   -0.6520   -0.3149 C   0  0  0  0  0  0  0  0  0  0  0  0
    6.1381   -0.6560   -1.1138 C   0  0  0  0  0  0  0  0  0  0  0  0
    4.8492   -1.1671    0.9700 C   0  0  0  0  0  0  0  0  0  0  0  0
    3.7307   -1.1876    1.7216 N   0  0  0  0  0  0  0  0  0  0  0  0
    2.6109   -0.6650    1.1448 C   0  0  0  0  0  0  0  0  0  0  0  0
    1.3697   -0.7259    1.9843 C   0  0  0  0  0  0  0  0  0  0  0  0
   -3.4069    1.6230    0.4985 C   0  0  0  0  0  0  0  0  0  0  0  0
   -4.7692    1.2993    0.5685 C   0  0  0  0  0  0  0  0  0  0  0  0
   -6.8945   -0.7123    1.3056 H   0  0  0  0  0  0  0  0  0  0  0  0
   -7.3069    0.5612    0.1306 H   0  0  0  0  0  0  0  0  0  0  0  0
   -6.9572   -1.0709   -0.4377 H   0  0  0  0  0  0  0  0  0  0  0  0
   -4.6147   -1.9200   -0.4983 H   0  0  0  0  0  0  0  0  0  0  0  0
   -2.2393   -1.3575   -0.6259 H   0  0  0  0  0  0  0  0  0  0  0  0
   -0.5461    0.1012   -0.3761 H   0  0  0  0  0  0  0  0  0  0  0  0
    1.7917    2.3685   -0.0070 H   0  0  0  0  0  0  0  0  0  0  0  0
    1.8079   -0.3017   -2.6905 H   0  0  0  0  0  0  0  0  0  0  0  0
    2.3230    1.3934   -2.4253 H   0  0  0  0  0  0  0  0  0  0  0  0
    0.6099    0.9826   -2.5966 H   0  0  0  0  0  0  0  0  0  0  0  0
    6.4959   -1.6810   -1.2522 H   0  0  0  0  0  0  0  0  0  0  0  0
    5.9751   -0.2158   -2.1028 H   0  0  0  0  0  0  0  0  0  0  0  0
    6.9102   -0.0714   -0.6040 H   0  0  0  0  0  0  0  0  0  0  0  0
    5.7347   -1.5848    1.4366 H   0  0  0  0  0  0  0  0  0  0  0  0
    1.5338   -1.3538    2.8670 H   0  0  0  0  0  0  0  0  0  0  0  0
    0.5412   -1.1673    1.4227 H   0  0  0  0  0  0  0  0  0  0  0  0
    1.0929    0.2713    2.3364 H   0  0  0  0  0  0  0  0  0  0  0  0
   -3.1272    2.6242    0.7968 H   0  0  0  0  0  0  0  0  0  0  0  0
   -5.4708    2.0543    0.9176 H   0  0  0  0  0  0  0  0  0  0  0  0
  1  2  1  0
  2  3  2  0
  3  4  1  0
  4  5  2  0
  5  6  1  0
  6  7  1  0
  7  8  2  0
  7  9  1  0
  9 10  1  0
 10 11  1  0
 10 12  1  0
 12 13  2  0
 13 14  1  0
 14 15  1  0
 14 16  2  0
 16 17  1  0
 17 18  2  0
 18 19  1  0
  5 20  1  0
 20 21  2  0
 21  2  1  0
 18 12  1  0
  1 22  1  0
  1 23  1  0
  1 24  1  0
  3 25  1  0
  4 26  1  0
  6 27  1  0
  9 28  1  0
 11 29  1  0
 11 30  1  0
 11 31  1  0
 15 32  1  0
 15 33  1  0
 15 34  1  0
 16 35  1  0
 19 36  1  0
 19 37  1  0
 19 38  1  0
 20 39  1  0
 21 40  1  0
M  END
$$$$
