
     RDKit          3D

 40 42  0  0  0  0  0  0  0  0999 V2000
    4.7227    2.9704   -1.9511 C   0  0  0  0  0  0  0  0  0  0  0  0
    5.5153    1.8437   -1.6009 O   0  0  0  0  0  0  0  0  0  0  0  0
    4.8818    0.8060   -0.9735 C   0  0  0  0  0  0  0  0  0  0  0  0
    5.7138   -0.2602   -0.6324 C   0  0  0  0  0  0  0  0  0  0  0  0
    5.1946   -1.3818    0.0104 C   0  0  0  0  0  0  0  0  0  0  0  0
    3.8343   -1.4451    0.3185 C   0  0  0  0  0  0  0  0  0  0  0  0
    2.9868   -0.3872   -0.0126 C   0  0  0  0  0  0  0  0  0  0  0  0
    1.6006   -0.3787    0.2572 N   0  0  0  0  0  0  0  0  0  0  0  0
    0.8742   -1.3281    0.9540 C   0  0  0  0  0  0  0  0  0  0  0  0
    1.3118   -2.3170    1.5288 O   0  0  0  0  0  0  0  0  0  0  0  0
   -0.5894   -1.0586    1.0270 C   0  0  0  0  0  0  0  0  0  0  0  0
   -1.2674   -1.3688    2.2081 C   0  0  0  0  0  0  0  0  0  0  0  0
   -2.6359   -1.1191    2.3131 C   0  0  0  0  0  0  0  0  0  0  0  0
   -3.3459   -0.5633    1.2380 C   0  0  0  0  0  0  0  0  0  0  0  0
   -2.6752   -0.2886    0.0315 C   0  0  0  0  0  0  0  0  0  0  0  0
   -1.2947   -0.5308   -0.0625 C   0  0  0  0  0  0  0  0  0  0  0  0
   -3.3973    0.3084   -1.1528 C   0  0  0  0  0  0  0  0  0  0  0  0
   -4.9159    0.1690   -1.0686 C   0  0  0  0  0  0  0  0  0  0  0  0
   -5.4124    0.5793    0.3115 C   0  0  0  0  0  0  0  0  0  0  0  0
   -4.8330   -0.3432    1.3820 C   0  0  0  0  0  0  0  0  0  0  0  0
    3.5202    0.7377   -0.6640 C   0  0  0  0  0  0  0  0  0  0  0  0
    3.9469    2.6973   -2.6740 H   0  0  0  0  0  0  0  0  0  0  0  0
    5.3781    3.7054   -2.4282 H   0  0  0  0  0  0  0  0  0  0  0  0
    4.2880    3.4394   -1.0621 H   0  0  0  0  0  0  0  0  0  0  0  0
    6.7740   -0.2169   -0.8693 H   0  0  0  0  0  0  0  0  0  0  0  0
    5.8473   -2.2103    0.2728 H   0  0  0  0  0  0  0  0  0  0  0  0
    3.4672   -2.3384    0.8140 H   0  0  0  0  0  0  0  0  0  0  0  0
    1.1010    0.4504   -0.0351 H   0  0  0  0  0  0  0  0  0  0  0  0
   -0.7307   -1.8037    3.0489 H   0  0  0  0  0  0  0  0  0  0  0  0
   -3.1493   -1.3661    3.2404 H   0  0  0  0  0  0  0  0  0  0  0  0
   -0.7848   -0.3341   -1.0027 H   0  0  0  0  0  0  0  0  0  0  0  0
   -3.0516   -0.1671   -2.0785 H   0  0  0  0  0  0  0  0  0  0  0  0
   -3.1339    1.3721   -1.2084 H   0  0  0  0  0  0  0  0  0  0  0  0
   -5.2076   -0.8696   -1.2700 H   0  0  0  0  0  0  0  0  0  0  0  0
   -5.3855    0.7898   -1.8399 H   0  0  0  0  0  0  0  0  0  0  0  0
   -6.5069    0.5417    0.3468 H   0  0  0  0  0  0  0  0  0  0  0  0
   -5.1193    1.6174    0.5139 H   0  0  0  0  0  0  0  0  0  0  0  0
   -5.3277   -1.3209    1.3236 H   0  0  0  0  0  0  0  0  0  0  0  0
   -5.0528    0.0811    2.3689 H   0  0  0  0  0  0  0  0  0  0  0  0
    2.8584    1.5563   -0.9225 H   0  0  0  0  0  0  0  0  0  0  0  0
  1  2  1  0
  2  3  1  0
  3  4  2  0
  4  5  1  0
  5  6  2  0
  6  7  1  0
  7  8  1  0
  8  9  1  0
  9 10  2  0
  9 11  1  0
 11 12  2  0
 12 13  1  0
 13 14  2  0
 14 15  1  0
 15 16  2  0
 15 17  1  0
 17 18  1  0
 18 19  1  0
 19 20  1  0
  7 21  2  0
 21  3  1  0
 16 11  1  0
 20 14  1  0
  1 22  1  0
  1 23  1  0
  1 24  1  0
  4 25  1  0
  5 26  1  0
  6 27  1  0
  8 28  1  0
 12 29  1  0
 13 30  1  0
 16 31  1  0
 17 32  1  0
 17 33  1  0
 18 34  1  0
 18 35  1  0
 19 36  1  0
 19 37  1  0
 20 38  1  0
 20 39  1  0
 21 40  1  0
M  END
$$$$
