
     RDKit          3D

 63 64  0  0  0  0  0  0  0  0999 V2000
   -1.8727   -3.8092   -1.4273 C   0  0  0  0  0  0  0  0  0  0  0  0
   -1.6333   -2.3140   -1.6542 C   0  0  0  0  0  0  0  0  0  0  0  0
   -1.8843   -1.9684   -3.1221 C   0  0  0  0  0  0  0  0  0  0  0  0
   -2.5207   -1.4940   -0.6964 C   0  0  0  0  0  0  0  0  0  0  0  0
   -2.3287    0.0263   -0.7788 C   0  0  0  0  0  0  0  0  0  0  0  0
   -0.9431    0.3970   -0.5149 N   0  0  0  0  0  0  0  0  0  0  0  0
   -0.4527    1.6170   -0.8952 C   0  0  0  0  0  0  0  0  0  0  0  0
   -1.1132    2.3919   -1.5837 O   0  0  0  0  0  0  0  0  0  0  0  0
    0.8717    1.9680   -0.4440 C   0  0  0  0  0  0  0  0  0  0  0  0
    1.3565    3.2464   -0.6360 N   0  0  0  0  0  0  0  0  0  0  0  0
    2.6150    3.3204   -0.1278 C   0  0  0  0  0  0  0  0  0  0  0  0
    2.9916    2.1681    0.3666 N   0  0  0  0  0  0  0  0  0  0  0  0
    1.9228    1.2949    0.1742 C   0  0  0  0  0  0  0  0  0  0  0  0
    1.9509   -0.1058    0.6272 C   0  0  0  0  0  0  0  0  0  0  0  0
    0.9118   -0.6517    1.0061 O   0  0  0  0  0  0  0  0  0  0  0  0
    3.1699   -0.7946    0.6241 N   0  0  0  0  0  0  0  0  0  0  0  0
    3.1875   -2.1388    1.1797 C   0  0  0  0  0  0  0  0  0  0  0  0
    4.2949   -0.4367   -0.2445 C   0  0  0  0  0  0  0  0  0  0  0  0
    5.6142   -0.3419    0.4866 C   0  0  0  0  0  0  0  0  0  0  0  0
    6.7035   -1.1385    0.1010 C   0  0  0  0  0  0  0  0  0  0  0  0
    7.9269   -1.0409    0.7675 C   0  0  0  0  0  0  0  0  0  0  0  0
    8.0759   -0.1468    1.8258 C   0  0  0  0  0  0  0  0  0  0  0  0
    7.0055    0.6577    2.2123 C   0  0  0  0  0  0  0  0  0  0  0  0
    5.7826    0.5632    1.5450 C   0  0  0  0  0  0  0  0  0  0  0  0
   -3.2470    0.7040    0.2504 C   0  0  0  0  0  0  0  0  0  0  0  0
   -2.8875    1.1094    1.3486 O   0  0  0  0  0  0  0  0  0  0  0  0
   -4.5199    0.7528   -0.2372 O   0  0  0  0  0  0  0  0  0  0  0  0
   -5.5831    1.3721    0.5321 C   0  0  0  0  0  0  0  0  0  0  0  0
   -6.8348    1.2386   -0.3518 C   0  0  0  0  0  0  0  0  0  0  0  0
   -5.8315    0.6229    1.8461 C   0  0  0  0  0  0  0  0  0  0  0  0
   -5.3046    2.8611    0.7647 C   0  0  0  0  0  0  0  0  0  0  0  0
   -1.2254   -4.4116   -2.0755 H   0  0  0  0  0  0  0  0  0  0  0  0
   -1.6545   -4.0843   -0.3902 H   0  0  0  0  0  0  0  0  0  0  0  0
   -2.9140   -4.0823   -1.6389 H   0  0  0  0  0  0  0  0  0  0  0  0
   -0.5786   -2.1114   -1.4300 H   0  0  0  0  0  0  0  0  0  0  0  0
   -2.9398   -2.0988   -3.3863 H   0  0  0  0  0  0  0  0  0  0  0  0
   -1.2896   -2.6132   -3.7800 H   0  0  0  0  0  0  0  0  0  0  0  0
   -1.6007   -0.9347   -3.3414 H   0  0  0  0  0  0  0  0  0  0  0  0
   -3.5747   -1.7345   -0.8862 H   0  0  0  0  0  0  0  0  0  0  0  0
   -2.3200   -1.8213    0.3325 H   0  0  0  0  0  0  0  0  0  0  0  0
   -2.6033    0.4092   -1.7678 H   0  0  0  0  0  0  0  0  0  0  0  0
   -0.4863   -0.0639    0.2734 H   0  0  0  0  0  0  0  0  0  0  0  0
    0.8345    3.9936   -1.0763 H   0  0  0  0  0  0  0  0  0  0  0  0
    3.2046    4.2290   -0.1482 H   0  0  0  0  0  0  0  0  0  0  0  0
    2.3798   -2.2808    1.9084 H   0  0  0  0  0  0  0  0  0  0  0  0
    4.1428   -2.3225    1.6867 H   0  0  0  0  0  0  0  0  0  0  0  0
    3.0575   -2.8601    0.3617 H   0  0  0  0  0  0  0  0  0  0  0  0
    4.1262    0.4836   -0.8076 H   0  0  0  0  0  0  0  0  0  0  0  0
    4.3483   -1.2242   -1.0091 H   0  0  0  0  0  0  0  0  0  0  0  0
    6.6068   -1.8429   -0.7224 H   0  0  0  0  0  0  0  0  0  0  0  0
    8.7632   -1.6635    0.4615 H   0  0  0  0  0  0  0  0  0  0  0  0
    9.0284   -0.0710    2.3438 H   0  0  0  0  0  0  0  0  0  0  0  0
    7.1225    1.3625    3.0316 H   0  0  0  0  0  0  0  0  0  0  0  0
    4.9559    1.2023    1.8530 H   0  0  0  0  0  0  0  0  0  0  0  0
   -7.7186    1.6798    0.1228 H   0  0  0  0  0  0  0  0  0  0  0  0
   -7.0467    0.1857   -0.5666 H   0  0  0  0  0  0  0  0  0  0  0  0
   -6.6831    1.7265   -1.3225 H   0  0  0  0  0  0  0  0  0  0  0  0
   -5.9396   -0.4523    1.6661 H   0  0  0  0  0  0  0  0  0  0  0  0
   -5.0021    0.7412    2.5492 H   0  0  0  0  0  0  0  0  0  0  0  0
   -6.7365    0.9853    2.3452 H   0  0  0  0  0  0  0  0  0  0  0  0
   -6.1756    3.3677    1.1970 H   0  0  0  0  0  0  0  0  0  0  0  0
   -5.0420    3.3587   -0.1754 H   0  0  0  0  0  0  0  0  0  0  0  0
   -4.4632    3.0182    1.4473 H   0  0  0  0  0  0  0  0  0  0  0  0
  1  2  1  0
  2  3  1  0
  2  4  1  0
  4  5  1  0
  5  6  1  0
  6  7  1  0
  7  8  2  0
  7  9  1  0
  9 10  1  0
 10 11  1  0
 11 12  2  0
 12 13  1  0
 13 14  1  0
 14 15  2  0
 14 16  1  0
 16 17  1  0
 16 18  1  0
 18 19  1  0
 19 20  2  0
 20 21  1  0
 21 22  2  0
 22 23  1  0
 23 24  2  0
  5 25  1  0
 25 26  2  0
 25 27  1  0
 27 28  1  0
 28 29  1  0
 28 30  1  0
 28 31  1  0
 13  9  2  0
 24 19  1  0
  1 32  1  0
  1 33  1  0
  1 34  1  0
  2 35  1  0
  3 36  1  0
  3 37  1  0
  3 38  1  0
  4 39  1  0
  4 40  1  0
  5 41  1  0
  6 42  1  0
 10 43  1  0
 11 44  1  0
 17 45  1  0
 17 46  1  0
 17 47  1  0
 18 48  1  0
 18 49  1  0
 20 50  1  0
 21 51  1  0
 22 52  1  0
 23 53  1  0
 24 54  1  0
 29 55  1  0
 29 56  1  0
 29 57  1  0
 30 58  1  0
 30 59  1  0
 30 60  1  0
 31 61  1  0
 31 62  1  0
 31 63  1  0
M  END
$$$$
