
     RDKit          3D

 61 65  0  0  0  0  0  0  0  0999 V2000
   -9.5637    1.3391   -2.2494 C   0  0  0  0  0  0  0  0  0  0  0  0
   -8.5777    0.5223   -2.8652 O   0  0  0  0  0  0  0  0  0  0  0  0
   -7.4804    0.2008   -2.1161 C   0  0  0  0  0  0  0  0  0  0  0  0
   -7.2528    0.5751   -0.7914 C   0  0  0  0  0  0  0  0  0  0  0  0
   -6.0835    0.1707   -0.1362 C   0  0  0  0  0  0  0  0  0  0  0  0
   -5.1369   -0.6161   -0.8056 C   0  0  0  0  0  0  0  0  0  0  0  0
   -3.9571   -1.0453   -0.1288 N   0  0  0  0  0  0  0  0  0  0  0  0
   -3.3956   -2.3174   -0.2030 C   0  0  0  0  0  0  0  0  0  0  0  0
   -3.9083   -3.3392   -0.8900 O   0  0  0  0  0  0  0  0  0  0  0  0
   -2.2921   -2.3398    0.6183 C   0  0  0  0  0  0  0  0  0  0  0  0
   -2.1598   -1.0746    1.2354 C   0  0  0  0  0  0  0  0  0  0  0  0
   -1.2092   -0.7222    2.1573 N   0  0  0  0  0  0  0  0  0  0  0  0
   -0.6059    0.6308    2.1436 C   0  0  0  0  0  0  0  0  0  0  0  0
    0.6733    0.6427    1.2720 C   0  0  0  0  0  0  0  0  0  0  0  0
    1.6538   -0.3700    1.7489 N   0  0  0  0  0  0  0  0  0  0  0  0
    2.9487   -0.3482    1.2100 C   0  0  0  0  0  0  0  0  0  0  0  0
    3.2976    0.3832    0.0629 C   0  0  0  0  0  0  0  0  0  0  0  0
    4.6103    0.3986   -0.4289 C   0  0  0  0  0  0  0  0  0  0  0  0
    5.6125   -0.3092    0.2378 C   0  0  0  0  0  0  0  0  0  0  0  0
    7.0139   -0.3143   -0.2431 C   0  0  0  0  0  0  0  0  0  0  0  0
    7.6564   -1.3591   -0.2037 O   0  0  0  0  0  0  0  0  0  0  0  0
    7.6577    0.9127   -0.7585 C   0  0  0  0  0  0  0  0  0  0  0  0
    7.3274    2.1927   -0.3096 C   0  0  0  0  0  0  0  0  0  0  0  0
    7.9950    3.2945   -0.8407 C   0  0  0  0  0  0  0  0  0  0  0  0
    8.9746    3.0750   -1.7957 C   0  0  0  0  0  0  0  0  0  0  0  0
    9.3273    1.8499   -2.2396 N   0  0  0  0  0  0  0  0  0  0  0  0
    8.6696    0.7932   -1.7013 C   0  0  0  0  0  0  0  0  0  0  0  0
    5.2916   -1.0557    1.3706 C   0  0  0  0  0  0  0  0  0  0  0  0
    3.9780   -1.0606    1.8520 C   0  0  0  0  0  0  0  0  0  0  0  0
    1.0566   -1.7342    1.8397 C   0  0  0  0  0  0  0  0  0  0  0  0
   -0.2434   -1.7149    2.6792 C   0  0  0  0  0  0  0  0  0  0  0  0
   -3.1754   -0.2709    0.7353 C   0  0  0  0  0  0  0  0  0  0  0  0
   -3.4140    1.0263    0.9654 O   0  0  0  0  0  0  0  0  0  0  0  0
   -5.3616   -0.9916   -2.1339 C   0  0  0  0  0  0  0  0  0  0  0  0
   -6.5291   -0.5792   -2.7809 C   0  0  0  0  0  0  0  0  0  0  0  0
   -9.1503    2.3136   -1.9707 H   0  0  0  0  0  0  0  0  0  0  0  0
  -10.0075    0.8359   -1.3851 H   0  0  0  0  0  0  0  0  0  0  0  0
  -10.3594    1.5106   -2.9809 H   0  0  0  0  0  0  0  0  0  0  0  0
   -7.9730    1.1657   -0.2318 H   0  0  0  0  0  0  0  0  0  0  0  0
   -5.9566    0.4379    0.9125 H   0  0  0  0  0  0  0  0  0  0  0  0
   -4.8526   -3.1740   -1.0564 H   0  0  0  0  0  0  0  0  0  0  0  0
   -1.6770   -3.2159    0.7630 H   0  0  0  0  0  0  0  0  0  0  0  0
   -0.3420    0.9007    3.1752 H   0  0  0  0  0  0  0  0  0  0  0  0
   -1.2870    1.4102    1.7955 H   0  0  0  0  0  0  0  0  0  0  0  0
    1.1122    1.6467    1.3291 H   0  0  0  0  0  0  0  0  0  0  0  0
    0.4019    0.4373    0.2280 H   0  0  0  0  0  0  0  0  0  0  0  0
    2.5492    0.9429   -0.4918 H   0  0  0  0  0  0  0  0  0  0  0  0
    4.8239    0.9547   -1.3391 H   0  0  0  0  0  0  0  0  0  0  0  0
    6.5756    2.3473    0.4583 H   0  0  0  0  0  0  0  0  0  0  0  0
    7.7633    4.3014   -0.5101 H   0  0  0  0  0  0  0  0  0  0  0  0
    9.5229    3.9019   -2.2377 H   0  0  0  0  0  0  0  0  0  0  0  0
    8.9885   -0.1794   -2.0662 H   0  0  0  0  0  0  0  0  0  0  0  0
    6.0596   -1.6248    1.8916 H   0  0  0  0  0  0  0  0  0  0  0  0
    3.7683   -1.6137    2.7650 H   0  0  0  0  0  0  0  0  0  0  0  0
    1.7426   -2.4450    2.3136 H   0  0  0  0  0  0  0  0  0  0  0  0
    0.8424   -2.1016    0.8273 H   0  0  0  0  0  0  0  0  0  0  0  0
    0.0066   -1.4360    3.7113 H   0  0  0  0  0  0  0  0  0  0  0  0
   -0.6777   -2.7187    2.7401 H   0  0  0  0  0  0  0  0  0  0  0  0
   -3.9466    1.3867    0.2347 H   0  0  0  0  0  0  0  0  0  0  0  0
   -4.6265   -1.5655   -2.6975 H   0  0  0  0  0  0  0  0  0  0  0  0
   -6.6987   -0.8642   -3.8172 H   0  0  0  0  0  0  0  0  0  0  0  0
  1  2  1  0
  2  3  1  0
  3  4  2  0
  4  5  1  0
  5  6  2  0
  6  7  1  0
  7  8  1  0
  8  9  1  0
  8 10  2  0
 10 11  1  0
 11 12  1  0
 12 13  1  0
 13 14  1  0
 14 15  1  0
 15 16  1  0
 16 17  2  0
 17 18  1  0
 18 19  2  0
 19 20  1  0
 20 21  2  0
 20 22  1  0
 22 23  2  0
 23 24  1  0
 24 25  2  0
 25 26  1  0
 26 27  2  0
 19 28  1  0
 28 29  2  0
 15 30  1  0
 30 31  1  0
 11 32  2  0
 32 33  1  0
  6 34  1  0
 34 35  2  0
 35  3  1  0
 32  7  1  0
 31 12  1  0
 29 16  1  0
 27 22  1  0
  1 36  1  0
  1 37  1  0
  1 38  1  0
  4 39  1  0
  5 40  1  0
  9 41  1  0
 10 42  1  0
 13 43  1  0
 13 44  1  0
 14 45  1  0
 14 46  1  0
 17 47  1  0
 18 48  1  0
 23 49  1  0
 24 50  1  0
 25 51  1  0
 27 52  1  0
 28 53  1  0
 29 54  1  0
 30 55  1  0
 30 56  1  0
 31 57  1  0
 31 58  1  0
 33 59  1  0
 34 60  1  0
 35 61  1  0
M  END
$$$$
