
     RDKit          3D

 37 38  0  0  0  0  0  0  0  0999 V2000
    5.6585    1.3144    0.3822 C   0  0  0  0  0  0  0  0  0  0  0  0
    4.2401    1.2243    0.4322 O   0  0  0  0  0  0  0  0  0  0  0  0
    3.6606    0.0649   -0.0147 C   0  0  0  0  0  0  0  0  0  0  0  0
    4.3464   -0.9034   -0.7614 C   0  0  0  0  0  0  0  0  0  0  0  0
    3.7177   -2.0907   -1.1409 C   0  0  0  0  0  0  0  0  0  0  0  0
    2.3931   -2.3198   -0.7838 C   0  0  0  0  0  0  0  0  0  0  0  0
    1.6819   -1.3488   -0.0656 C   0  0  0  0  0  0  0  0  0  0  0  0
    0.2749   -1.6668    0.2665 C   0  0  0  0  0  0  0  0  0  0  0  0
   -0.0789   -2.7863    0.6102 O   0  0  0  0  0  0  0  0  0  0  0  0
   -0.5006   -0.5758   -0.0024 O   0  0  0  0  0  0  0  0  0  0  0  0
   -1.8543   -0.8705    0.2556 N   0  0  0  0  0  0  0  0  0  0  0  0
   -2.6209    0.1423   -0.0203 C   0  0  0  0  0  0  0  0  0  0  0  0
   -2.1435    1.3326   -0.5243 N   0  0  0  0  0  0  0  0  0  0  0  0
   -4.0920   -0.0128    0.2082 C   0  0  0  0  0  0  0  0  0  0  0  0
   -4.6391   -1.2871    0.3604 C   0  0  0  0  0  0  0  0  0  0  0  0
   -6.0029   -1.3897    0.5627 C   0  0  0  0  0  0  0  0  0  0  0  0
   -6.8343   -0.3267    0.6233 N   0  0  0  0  0  0  0  0  0  0  0  0
   -6.2750    0.8947    0.4911 C   0  0  0  0  0  0  0  0  0  0  0  0
   -4.9232    1.1049    0.2831 C   0  0  0  0  0  0  0  0  0  0  0  0
    2.3054   -0.1473    0.3139 C   0  0  0  0  0  0  0  0  0  0  0  0
    1.5789    0.7179    1.0959 O   0  0  0  0  0  0  0  0  0  0  0  0
    1.6037    2.0764    0.6647 C   0  0  0  0  0  0  0  0  0  0  0  0
    6.1319    0.4711    0.8962 H   0  0  0  0  0  0  0  0  0  0  0  0
    5.9528    2.2298    0.9047 H   0  0  0  0  0  0  0  0  0  0  0  0
    6.0078    1.3962   -0.6520 H   0  0  0  0  0  0  0  0  0  0  0  0
    5.3828   -0.7685   -1.0553 H   0  0  0  0  0  0  0  0  0  0  0  0
    4.2658   -2.8419   -1.7051 H   0  0  0  0  0  0  0  0  0  0  0  0
    1.9107   -3.2547   -1.0650 H   0  0  0  0  0  0  0  0  0  0  0  0
   -1.1763    1.2393   -0.8185 H   0  0  0  0  0  0  0  0  0  0  0  0
   -2.7147    1.7483   -1.2514 H   0  0  0  0  0  0  0  0  0  0  0  0
   -4.0223   -2.1793    0.3237 H   0  0  0  0  0  0  0  0  0  0  0  0
   -6.4779   -2.3589    0.6861 H   0  0  0  0  0  0  0  0  0  0  0  0
   -6.9670    1.7290    0.5647 H   0  0  0  0  0  0  0  0  0  0  0  0
   -4.5386    2.1145    0.2091 H   0  0  0  0  0  0  0  0  0  0  0  0
    1.7531    2.1762   -0.4164 H   0  0  0  0  0  0  0  0  0  0  0  0
    2.3641    2.6349    1.2179 H   0  0  0  0  0  0  0  0  0  0  0  0
    0.6316    2.5175    0.9065 H   0  0  0  0  0  0  0  0  0  0  0  0
  1  2  1  0
  2  3  1  0
  3  4  2  0
  4  5  1  0
  5  6  2  0
  6  7  1  0
  7  8  1  0
  8  9  2  0
  8 10  1  0
 10 11  1  0
 11 12  2  3
 12 13  1  0
 12 14  1  0
 14 15  2  0
 15 16  1  0
 16 17  2  0
 17 18  1  0
 18 19  2  0
  7 20  2  0
 20 21  1  0
 21 22  1  0
 20  3  1  0
 19 14  1  0
  1 23  1  0
  1 24  1  0
  1 25  1  0
  4 26  1  0
  5 27  1  0
  6 28  1  0
 13 29  1  0
 13 30  1  0
 15 31  1  0
 16 32  1  0
 18 33  1  0
 19 34  1  0
 22 35  1  0
 22 36  1  0
 22 37  1  0
M  END
$$$$
