
     RDKit          3D

 32 32  0  0  0  0  0  0  0  0999 V2000
    5.1250   -1.7563    0.2087 C   0  0  0  0  0  0  0  0  0  0  0  0
    5.4314   -0.2758    0.3598 C   0  0  0  0  0  0  0  0  0  0  0  0
    4.3352    0.5169    1.5730 S   0  0  0  0  0  0  0  0  0  0  0  0
    2.8525    0.6751    0.6611 C   0  0  0  0  0  0  0  0  0  0  0  0
    2.7821    0.4925   -0.6387 N   0  0  0  0  0  0  0  0  0  0  0  0
    1.5034    0.6823   -1.1209 N   0  0  0  0  0  0  0  0  0  0  0  0
    0.6433    0.9594   -0.1686 C   0  0  0  0  0  0  0  0  0  0  0  0
   -0.6686    1.2345   -0.4103 N   0  0  0  0  0  0  0  0  0  0  0  0
   -1.6723    0.0989   -0.2997 C   0  0  0  0  0  0  0  0  0  0  0  0
   -2.8700    0.9683   -0.3624 N   0  0  0  0  0  0  0  0  0  0  0  0
   -4.1489    0.4915   -0.4163 C   0  0  0  0  0  0  0  0  0  0  0  0
   -5.2168    1.5440   -0.2937 C   0  0  0  0  0  0  0  0  0  0  0  0
   -4.4097   -0.6940   -0.5506 O   0  0  0  0  0  0  0  0  0  0  0  0
   -1.5920   -0.7565    0.9966 C   0  0  0  0  0  0  0  0  0  0  0  0
   -2.5709   -1.6767    1.1076 F   0  0  0  0  0  0  0  0  0  0  0  0
   -0.4188   -1.4208    1.1109 F   0  0  0  0  0  0  0  0  0  0  0  0
   -1.6948    0.0438    2.0937 F   0  0  0  0  0  0  0  0  0  0  0  0
   -1.5182   -0.9434   -1.4524 C   0  0  0  0  0  0  0  0  0  0  0  0
   -2.4113   -1.9477   -1.4423 F   0  0  0  0  0  0  0  0  0  0  0  0
   -1.6307   -0.3116   -2.6540 F   0  0  0  0  0  0  0  0  0  0  0  0
   -0.2930   -1.5215   -1.4427 F   0  0  0  0  0  0  0  0  0  0  0  0
    1.3634    1.1091    1.3877 S   0  0  0  0  0  0  0  0  0  0  0  0
    4.1164   -1.9297   -0.1792 H   0  0  0  0  0  0  0  0  0  0  0  0
    5.2255   -2.2851    1.1626 H   0  0  0  0  0  0  0  0  0  0  0  0
    5.8302   -2.2103   -0.4955 H   0  0  0  0  0  0  0  0  0  0  0  0
    5.3752    0.2368   -0.6057 H   0  0  0  0  0  0  0  0  0  0  0  0
    6.4583   -0.1604    0.7223 H   0  0  0  0  0  0  0  0  0  0  0  0
   -0.7466    1.5425   -1.3841 H   0  0  0  0  0  0  0  0  0  0  0  0
   -2.7219    1.8931    0.0193 H   0  0  0  0  0  0  0  0  0  0  0  0
   -5.9564    1.3967   -1.0855 H   0  0  0  0  0  0  0  0  0  0  0  0
   -5.6979    1.4532    0.6836 H   0  0  0  0  0  0  0  0  0  0  0  0
   -4.8031    2.5513   -0.3947 H   0  0  0  0  0  0  0  0  0  0  0  0
  1  2  1  0
  2  3  1  0
  3  4  1  0
  4  5  2  0
  5  6  1  0
  6  7  2  0
  7  8  1  0
  8  9  1  0
  9 10  1  0
 10 11  1  0
 11 12  1  0
 11 13  2  0
  9 14  1  0
 14 15  1  0
 14 16  1  0
 14 17  1  0
  9 18  1  0
 18 19  1  0
 18 20  1  0
 18 21  1  0
  7 22  1  0
 22  4  1  0
  1 23  1  0
  1 24  1  0
  1 25  1  0
  2 26  1  0
  2 27  1  0
  8 28  1  0
 10 29  1  0
 12 30  1  0
 12 31  1  0
 12 32  1  0
M  END
$$$$
