
     RDKit          3D

 40 42  0  0  0  0  0  0  0  0999 V2000
   -5.3910   -1.0851    0.0285 C   0  0  0  0  0  0  0  0  0  0  0  0
   -4.0317   -0.7248    0.2358 O   0  0  0  0  0  0  0  0  0  0  0  0
   -3.7806    0.4496    0.9007 C   0  0  0  0  0  0  0  0  0  0  0  0
   -4.7645    1.2074    1.5491 C   0  0  0  0  0  0  0  0  0  0  0  0
   -4.4339    2.4046    2.1894 C   0  0  0  0  0  0  0  0  0  0  0  0
   -3.1193    2.8580    2.1876 C   0  0  0  0  0  0  0  0  0  0  0  0
   -2.1294    2.1098    1.5517 C   0  0  0  0  0  0  0  0  0  0  0  0
   -2.4418    0.8966    0.9168 C   0  0  0  0  0  0  0  0  0  0  0  0
   -1.3319    0.1860    0.2586 C   0  0  0  0  0  0  0  0  0  0  0  0
   -1.0803   -1.1166    0.4481 C   0  0  0  0  0  0  0  0  0  0  0  0
    0.0540   -1.7802   -0.2344 C   0  0  0  0  0  0  0  0  0  0  0  0
    1.0255   -1.1354   -0.7921 N   0  0  0  0  0  0  0  0  0  0  0  0
    2.0000   -1.8655   -1.4087 N   0  0  0  0  0  0  0  0  0  0  0  0
    3.2878   -1.4179   -1.5421 C   0  0  0  0  0  0  0  0  0  0  0  0
    3.7632   -0.2383   -0.8102 C   0  0  0  0  0  0  0  0  0  0  0  0
    3.7113   -0.2575    0.5916 C   0  0  0  0  0  0  0  0  0  0  0  0
    4.1754    0.8378    1.3218 C   0  0  0  0  0  0  0  0  0  0  0  0
    4.6921    1.9455    0.6517 C   0  0  0  0  0  0  0  0  0  0  0  0
    5.2610    3.2957    1.5536 Cl  0  0  0  0  0  0  0  0  0  0  0  0
    4.7484    1.9713   -0.7411 C   0  0  0  0  0  0  0  0  0  0  0  0
    4.2837    0.8767   -1.4770 C   0  0  0  0  0  0  0  0  0  0  0  0
    4.3369    0.9925   -3.1994 Cl  0  0  0  0  0  0  0  0  0  0  0  0
    4.0298   -2.1312   -2.3444 N   0  0  0  0  0  0  0  0  0  0  0  0
    3.1819   -3.1008   -2.8111 N   0  0  0  0  0  0  0  0  0  0  0  0
    1.8887   -2.9077   -2.3165 C   0  0  0  0  0  0  0  0  0  0  0  0
    0.5890   -3.7907   -2.8519 S   0  0  0  0  0  0  0  0  0  0  0  0
   -5.4064   -1.9834   -0.5963 H   0  0  0  0  0  0  0  0  0  0  0  0
   -5.9351   -0.2992   -0.5060 H   0  0  0  0  0  0  0  0  0  0  0  0
   -5.8795   -1.3324    0.9765 H   0  0  0  0  0  0  0  0  0  0  0  0
   -5.8027    0.8935    1.5752 H   0  0  0  0  0  0  0  0  0  0  0  0
   -5.2073    2.9848    2.6869 H   0  0  0  0  0  0  0  0  0  0  0  0
   -2.8629    3.7922    2.6805 H   0  0  0  0  0  0  0  0  0  0  0  0
   -1.1050    2.4771    1.5607 H   0  0  0  0  0  0  0  0  0  0  0  0
   -0.6976    0.7920   -0.3841 H   0  0  0  0  0  0  0  0  0  0  0  0
   -1.6943   -1.7432    1.0844 H   0  0  0  0  0  0  0  0  0  0  0  0
    0.0263   -2.8814   -0.1710 H   0  0  0  0  0  0  0  0  0  0  0  0
    3.3128   -1.1226    1.1167 H   0  0  0  0  0  0  0  0  0  0  0  0
    4.1323    0.8204    2.4081 H   0  0  0  0  0  0  0  0  0  0  0  0
    5.1475    2.8434   -1.2528 H   0  0  0  0  0  0  0  0  0  0  0  0
    3.4477   -3.7210   -3.5670 H   0  0  0  0  0  0  0  0  0  0  0  0
  1  2  1  0
  2  3  1  0
  3  4  2  0
  4  5  1  0
  5  6  2  0
  6  7  1  0
  7  8  2  0
  8  9  1  0
  9 10  2  3
 10 11  1  0
 11 12  2  3
 12 13  1  0
 13 14  1  0
 14 15  1  0
 15 16  2  0
 16 17  1  0
 17 18  2  0
 18 19  1  0
 18 20  1  0
 20 21  2  0
 21 22  1  0
 14 23  2  0
 23 24  1  0
 24 25  1  0
 25 26  2  0
  8  3  1  0
 25 13  1  0
 21 15  1  0
  1 27  1  0
  1 28  1  0
  1 29  1  0
  4 30  1  0
  5 31  1  0
  6 32  1  0
  7 33  1  0
  9 34  1  0
 10 35  1  0
 11 36  1  0
 16 37  1  0
 17 38  1  0
 20 39  1  0
 24 40  1  0
M  END
$$$$
