
     RDKit          3D

 55 57  0  0  0  0  0  0  0  0999 V2000
   -9.6048    0.4892    1.2866 C   0  0  0  0  0  0  0  0  0  0  0  0
   -8.8685    0.3314    0.0815 O   0  0  0  0  0  0  0  0  0  0  0  0
   -7.5338    0.0395    0.1887 C   0  0  0  0  0  0  0  0  0  0  0  0
   -6.8444   -0.1263    1.3942 C   0  0  0  0  0  0  0  0  0  0  0  0
   -5.4693   -0.3966    1.3956 C   0  0  0  0  0  0  0  0  0  0  0  0
   -4.7643   -0.4978    0.1920 C   0  0  0  0  0  0  0  0  0  0  0  0
   -3.3237   -0.7610    0.1935 C   0  0  0  0  0  0  0  0  0  0  0  0
   -2.3707    0.1725    0.3257 C   0  0  0  0  0  0  0  0  0  0  0  0
   -2.5737    1.8652    0.5199 S   0  0  0  0  0  0  0  0  0  0  0  0
   -0.8413    2.1721    0.4726 C   0  0  0  0  0  0  0  0  0  0  0  0
   -0.2107    3.7181    0.5761 S   0  0  0  0  0  0  0  0  0  0  0  0
   -0.1567    0.9797    0.3422 N   0  0  0  0  0  0  0  0  0  0  0  0
    1.3031    0.8645    0.2815 C   0  0  0  0  0  0  0  0  0  0  0  0
    1.9353    0.8081    1.6781 C   0  0  0  0  0  0  0  0  0  0  0  0
    3.4433    1.0597    1.6376 C   0  0  0  0  0  0  0  0  0  0  0  0
    4.2239   -0.0420    0.9399 C   0  0  0  0  0  0  0  0  0  0  0  0
    3.7198   -1.1347    0.7029 O   0  0  0  0  0  0  0  0  0  0  0  0
    5.5219    0.3582    0.6424 N   0  0  0  0  0  0  0  0  0  0  0  0
    6.4990   -0.3668   -0.0751 C   0  0  0  0  0  0  0  0  0  0  0  0
    6.3038   -1.6555   -0.5737 C   0  0  0  0  0  0  0  0  0  0  0  0
    7.3080   -2.2972   -1.3075 C   0  0  0  0  0  0  0  0  0  0  0  0
    8.5180   -1.6500   -1.5578 C   0  0  0  0  0  0  0  0  0  0  0  0
    8.7294   -0.3626   -1.0620 C   0  0  0  0  0  0  0  0  0  0  0  0
   10.0131    0.3088   -1.3845 C   0  0  0  0  0  0  0  0  0  0  0  0
   10.8925   -0.1339   -2.1017 O   0  0  0  0  0  0  0  0  0  0  0  0
   10.1336    1.5164   -0.8020 O   0  0  0  0  0  0  0  0  0  0  0  0
    7.7237    0.2711   -0.3129 C   0  0  0  0  0  0  0  0  0  0  0  0
   -0.9248   -0.1715    0.2848 C   0  0  0  0  0  0  0  0  0  0  0  0
   -0.5092   -1.3188    0.2083 O   0  0  0  0  0  0  0  0  0  0  0  0
   -5.4449   -0.3364   -1.0167 C   0  0  0  0  0  0  0  0  0  0  0  0
   -6.8212   -0.0908   -1.0145 C   0  0  0  0  0  0  0  0  0  0  0  0
   -7.4221    0.0851   -2.2384 O   0  0  0  0  0  0  0  0  0  0  0  0
   -8.1626   -1.0827   -2.6010 C   0  0  0  0  0  0  0  0  0  0  0  0
   -9.2134    1.3184    1.8855 H   0  0  0  0  0  0  0  0  0  0  0  0
  -10.6384    0.7332    1.0186 H   0  0  0  0  0  0  0  0  0  0  0  0
   -9.6220   -0.4434    1.8609 H   0  0  0  0  0  0  0  0  0  0  0  0
   -7.3430   -0.0430    2.3548 H   0  0  0  0  0  0  0  0  0  0  0  0
   -4.9536   -0.5165    2.3465 H   0  0  0  0  0  0  0  0  0  0  0  0
   -3.0509   -1.8067    0.0571 H   0  0  0  0  0  0  0  0  0  0  0  0
    1.5633   -0.0362   -0.2826 H   0  0  0  0  0  0  0  0  0  0  0  0
    1.6986    1.7147   -0.2835 H   0  0  0  0  0  0  0  0  0  0  0  0
    1.7152   -0.1601    2.1426 H   0  0  0  0  0  0  0  0  0  0  0  0
    1.4815    1.5671    2.3259 H   0  0  0  0  0  0  0  0  0  0  0  0
    3.6423    2.0144    1.1400 H   0  0  0  0  0  0  0  0  0  0  0  0
    3.8218    1.1317    2.6624 H   0  0  0  0  0  0  0  0  0  0  0  0
    5.7895    1.2884    0.9378 H   0  0  0  0  0  0  0  0  0  0  0  0
    5.3743   -2.1945   -0.4165 H   0  0  0  0  0  0  0  0  0  0  0  0
    7.1361   -3.2987   -1.6924 H   0  0  0  0  0  0  0  0  0  0  0  0
    9.2888   -2.1507   -2.1443 H   0  0  0  0  0  0  0  0  0  0  0  0
   10.9966    1.8463   -1.1357 H   0  0  0  0  0  0  0  0  0  0  0  0
    7.8959    1.2745    0.0640 H   0  0  0  0  0  0  0  0  0  0  0  0
   -4.9186   -0.3980   -1.9661 H   0  0  0  0  0  0  0  0  0  0  0  0
   -9.0701   -1.1907   -1.9907 H   0  0  0  0  0  0  0  0  0  0  0  0
   -8.4757   -0.9615   -3.6469 H   0  0  0  0  0  0  0  0  0  0  0  0
   -7.5399   -1.9913   -2.5335 H   0  0  0  0  0  0  0  0  0  0  0  0
  1  2  1  0
  2  3  1  0
  3  4  2  0
  4  5  1  0
  5  6  2  0
  6  7  1  0
  7  8  2  3
  8  9  1  0
  9 10  1  0
 10 11  2  0
 10 12  1  0
 12 13  1  0
 13 14  1  0
 14 15  1  0
 15 16  1  0
 16 17  2  0
 16 18  1  0
 18 19  1  0
 19 20  2  0
 20 21  1  0
 21 22  2  0
 22 23  1  0
 23 24  1  0
 24 25  2  0
 24 26  1  0
 23 27  2  0
 12 28  1  0
 28 29  2  0
  6 30  1  0
 30 31  2  0
 31 32  1  0
 32 33  1  0
 31  3  1  0
 28  8  1  0
 27 19  1  0
  1 34  1  0
  1 35  1  0
  1 36  1  0
  4 37  1  0
  5 38  1  0
  7 39  1  0
 13 40  1  0
 13 41  1  0
 14 42  1  0
 14 43  1  0
 15 44  1  0
 15 45  1  0
 18 46  1  0
 20 47  1  0
 21 48  1  0
 22 49  1  0
 26 50  1  0
 27 51  1  0
 30 52  1  0
 33 53  1  0
 33 54  1  0
 33 55  1  0
M  END
$$$$
