
     RDKit          3D

 50 51  0  0  0  0  0  0  0  0999 V2000
    8.0705   -1.3687    2.7733 C   0  0  0  0  0  0  0  0  0  0  0  0
    7.1157   -0.7669    1.8978 O   0  0  0  0  0  0  0  0  0  0  0  0
    6.0141   -1.5284    1.6776 C   0  0  0  0  0  0  0  0  0  0  0  0
    5.8057   -2.6355    2.1495 O   0  0  0  0  0  0  0  0  0  0  0  0
    5.0657   -0.8305    0.7666 C   0  0  0  0  0  0  0  0  0  0  0  0
    5.3265    0.4403    0.2373 C   0  0  0  0  0  0  0  0  0  0  0  0
    4.4001    1.0520   -0.6129 C   0  0  0  0  0  0  0  0  0  0  0  0
    3.2056    0.4016   -0.9535 C   0  0  0  0  0  0  0  0  0  0  0  0
    2.1988    1.0767   -1.8474 C   0  0  0  0  0  0  0  0  0  0  0  0
    1.2983    1.8965   -1.0758 N   0  0  0  0  0  0  0  0  0  0  0  0
    0.4094    2.7344   -1.7129 C   0  0  0  0  0  0  0  0  0  0  0  0
    0.4117    2.9262   -2.9258 O   0  0  0  0  0  0  0  0  0  0  0  0
   -0.6024    3.4010   -0.7784 C   0  0  0  0  0  0  0  0  0  0  0  0
   -1.8227    2.6691   -0.6586 O   0  0  0  0  0  0  0  0  0  0  0  0
   -1.7442    1.5286    0.0783 C   0  0  0  0  0  0  0  0  0  0  0  0
   -0.7300    1.1220    0.6317 O   0  0  0  0  0  0  0  0  0  0  0  0
   -3.0804    0.8279    0.1167 C   0  0  0  0  0  0  0  0  0  0  0  0
   -2.9354   -0.6147   -0.3713 C   0  0  0  0  0  0  0  0  0  0  0  0
   -4.2446   -1.4049   -0.5062 C   0  0  0  0  0  0  0  0  0  0  0  0
   -4.9894   -1.6156    0.8215 C   0  0  0  0  0  0  0  0  0  0  0  0
   -6.4656   -1.5101    0.4646 C   0  0  0  0  0  0  0  0  0  0  0  0
   -6.4847   -0.4441   -0.6156 C   0  0  0  0  0  0  0  0  0  0  0  0
   -5.2693   -0.7813   -1.4698 C   0  0  0  0  0  0  0  0  0  0  0  0
    2.9421   -0.8644   -0.4114 C   0  0  0  0  0  0  0  0  0  0  0  0
    3.8670   -1.4775    0.4385 C   0  0  0  0  0  0  0  0  0  0  0  0
    7.6229   -1.5676    3.7526 H   0  0  0  0  0  0  0  0  0  0  0  0
    8.4660   -2.2887    2.3316 H   0  0  0  0  0  0  0  0  0  0  0  0
    8.8975   -0.6657    2.9073 H   0  0  0  0  0  0  0  0  0  0  0  0
    6.2440    0.9705    0.4808 H   0  0  0  0  0  0  0  0  0  0  0  0
    4.6131    2.0442   -1.0076 H   0  0  0  0  0  0  0  0  0  0  0  0
    2.7018    1.6951   -2.6005 H   0  0  0  0  0  0  0  0  0  0  0  0
    1.6047    0.3330   -2.3922 H   0  0  0  0  0  0  0  0  0  0  0  0
    0.9777    1.5117   -0.1861 H   0  0  0  0  0  0  0  0  0  0  0  0
   -0.8441    4.3843   -1.1977 H   0  0  0  0  0  0  0  0  0  0  0  0
   -0.1596    3.5841    0.2091 H   0  0  0  0  0  0  0  0  0  0  0  0
   -3.4482    0.8818    1.1456 H   0  0  0  0  0  0  0  0  0  0  0  0
   -3.7894    1.3784   -0.5099 H   0  0  0  0  0  0  0  0  0  0  0  0
   -2.4316   -0.6104   -1.3459 H   0  0  0  0  0  0  0  0  0  0  0  0
   -2.2671   -1.1579    0.3088 H   0  0  0  0  0  0  0  0  0  0  0  0
   -3.9763   -2.3934   -0.9057 H   0  0  0  0  0  0  0  0  0  0  0  0
   -4.7333   -0.8523    1.5626 H   0  0  0  0  0  0  0  0  0  0  0  0
   -4.7543   -2.5892    1.2656 H   0  0  0  0  0  0  0  0  0  0  0  0
   -6.8301   -2.4654    0.0667 H   0  0  0  0  0  0  0  0  0  0  0  0
   -7.0819   -1.2402    1.3268 H   0  0  0  0  0  0  0  0  0  0  0  0
   -6.3695    0.5518   -0.1694 H   0  0  0  0  0  0  0  0  0  0  0  0
   -7.4123   -0.4528   -1.1951 H   0  0  0  0  0  0  0  0  0  0  0  0
   -5.5552   -1.5306   -2.2211 H   0  0  0  0  0  0  0  0  0  0  0  0
   -4.8955    0.0884   -2.0182 H   0  0  0  0  0  0  0  0  0  0  0  0
    2.0122   -1.3805   -0.6449 H   0  0  0  0  0  0  0  0  0  0  0  0
    3.6457   -2.4620    0.8483 H   0  0  0  0  0  0  0  0  0  0  0  0
  1  2  1  0
  2  3  1  0
  3  4  2  0
  3  5  1  0
  5  6  2  0
  6  7  1  0
  7  8  2  0
  8  9  1  0
  9 10  1  0
 10 11  1  0
 11 12  2  0
 11 13  1  0
 13 14  1  0
 14 15  1  0
 15 16  2  0
 15 17  1  0
 17 18  1  0
 18 19  1  0
 19 20  1  0
 20 21  1  0
 21 22  1  0
 22 23  1  0
  8 24  1  0
 24 25  2  0
 25  5  1  0
 23 19  1  0
  1 26  1  0
  1 27  1  0
  1 28  1  0
  6 29  1  0
  7 30  1  0
  9 31  1  0
  9 32  1  0
 10 33  1  0
 13 34  1  0
 13 35  1  0
 17 36  1  0
 17 37  1  0
 18 38  1  0
 18 39  1  0
 19 40  1  0
 20 41  1  0
 20 42  1  0
 21 43  1  0
 21 44  1  0
 22 45  1  0
 22 46  1  0
 23 47  1  0
 23 48  1  0
 24 49  1  0
 25 50  1  0
M  END
$$$$
