
     RDKit          3D

 67 71  0  0  0  0  0  0  0  0999 V2000
    0.2281   -2.4873    0.0836 C   0  0  0  0  0  0  0  0  0  0  0  0
   -0.0004   -1.1053   -0.3373 N   0  0  0  0  0  0  0  0  0  0  0  0
    1.1961   -0.2921   -0.0988 C   0  0  0  0  0  0  0  0  0  0  0  0
    1.0320    1.0974   -0.6351 C   0  0  0  0  0  0  0  0  0  0  0  0
    2.0095    1.8446   -1.1856 C   0  0  0  0  0  0  0  0  0  0  0  0
    3.4050    1.4224   -1.3012 C   0  0  0  0  0  0  0  0  0  0  0  0
    3.8631    0.7897   -2.4540 C   0  0  0  0  0  0  0  0  0  0  0  0
    5.2018    0.3864   -2.5499 C   0  0  0  0  0  0  0  0  0  0  0  0
    6.1234    0.6012   -1.5105 C   0  0  0  0  0  0  0  0  0  0  0  0
    7.4427    0.1936   -1.6207 N   0  0  0  0  0  0  0  0  0  0  0  0
    8.1134    0.1579   -2.9342 C   0  0  0  0  0  0  0  0  0  0  0  0
    9.5688    0.6429   -2.8057 C   0  0  0  0  0  0  0  0  0  0  0  0
   10.3622   -0.1228   -1.8893 O   0  0  0  0  0  0  0  0  0  0  0  0
    9.5999   -0.6713   -0.8037 C   0  0  0  0  0  0  0  0  0  0  0  0
    8.3381    0.1366   -0.4548 C   0  0  0  0  0  0  0  0  0  0  0  0
    5.6280    1.2272   -0.3561 C   0  0  0  0  0  0  0  0  0  0  0  0
    4.2927    1.6393   -0.2501 C   0  0  0  0  0  0  0  0  0  0  0  0
   -0.3253    1.7213   -0.5578 C   0  0  0  0  0  0  0  0  0  0  0  0
   -0.5062    2.8986   -0.8676 O   0  0  0  0  0  0  0  0  0  0  0  0
   -1.4486    0.8665   -0.0620 C   0  0  0  0  0  0  0  0  0  0  0  0
   -2.6760    1.4266   -0.0633 C   0  0  0  0  0  0  0  0  0  0  0  0
   -3.8873    0.7604    0.4140 C   0  0  0  0  0  0  0  0  0  0  0  0
   -4.3035    0.9226    1.7336 C   0  0  0  0  0  0  0  0  0  0  0  0
   -5.4574    0.2749    2.1983 C   0  0  0  0  0  0  0  0  0  0  0  0
   -6.2374   -0.5384    1.3634 C   0  0  0  0  0  0  0  0  0  0  0  0
   -7.3846   -1.2095    1.7914 N   0  0  0  0  0  0  0  0  0  0  0  0
   -7.7420   -1.2679    3.2257 C   0  0  0  0  0  0  0  0  0  0  0  0
   -8.6386   -0.0814    3.6225 C   0  0  0  0  0  0  0  0  0  0  0  0
   -9.8131   -0.0063    2.7962 O   0  0  0  0  0  0  0  0  0  0  0  0
   -9.4417    0.1239    1.4125 C   0  0  0  0  0  0  0  0  0  0  0  0
   -8.5954   -1.0723    0.9437 C   0  0  0  0  0  0  0  0  0  0  0  0
   -5.7782   -0.7015    0.0440 C   0  0  0  0  0  0  0  0  0  0  0  0
   -4.6281   -0.0595   -0.4323 C   0  0  0  0  0  0  0  0  0  0  0  0
   -1.1306   -0.5262    0.3970 C   0  0  0  0  0  0  0  0  0  0  0  0
    1.0487   -2.9326   -0.4902 H   0  0  0  0  0  0  0  0  0  0  0  0
    0.4702   -2.5634    1.1499 H   0  0  0  0  0  0  0  0  0  0  0  0
   -0.6576   -3.1023   -0.1155 H   0  0  0  0  0  0  0  0  0  0  0  0
    2.0484   -0.7824   -0.5848 H   0  0  0  0  0  0  0  0  0  0  0  0
    1.4282   -0.2382    0.9745 H   0  0  0  0  0  0  0  0  0  0  0  0
    1.8092    2.8460   -1.5647 H   0  0  0  0  0  0  0  0  0  0  0  0
    3.1861    0.5910   -3.2803 H   0  0  0  0  0  0  0  0  0  0  0  0
    5.5083   -0.1284   -3.4574 H   0  0  0  0  0  0  0  0  0  0  0  0
    8.0961   -0.8741   -3.3041 H   0  0  0  0  0  0  0  0  0  0  0  0
    7.6128    0.8009   -3.6665 H   0  0  0  0  0  0  0  0  0  0  0  0
    9.5906    1.6874   -2.4716 H   0  0  0  0  0  0  0  0  0  0  0  0
   10.0663    0.6040   -3.7799 H   0  0  0  0  0  0  0  0  0  0  0  0
   10.2620   -0.7266    0.0663 H   0  0  0  0  0  0  0  0  0  0  0  0
    9.3310   -1.6991   -1.0767 H   0  0  0  0  0  0  0  0  0  0  0  0
    7.8402   -0.3520    0.3909 H   0  0  0  0  0  0  0  0  0  0  0  0
    8.6226    1.1551   -0.1639 H   0  0  0  0  0  0  0  0  0  0  0  0
    6.2811    1.4350    0.4865 H   0  0  0  0  0  0  0  0  0  0  0  0
    3.9613    2.1356    0.6590 H   0  0  0  0  0  0  0  0  0  0  0  0
   -2.8306    2.4477   -0.4119 H   0  0  0  0  0  0  0  0  0  0  0  0
   -3.7380    1.5538    2.4149 H   0  0  0  0  0  0  0  0  0  0  0  0
   -5.7312    0.4450    3.2341 H   0  0  0  0  0  0  0  0  0  0  0  0
   -6.8606   -1.3384    3.8729 H   0  0  0  0  0  0  0  0  0  0  0  0
   -8.3063   -2.1971    3.3816 H   0  0  0  0  0  0  0  0  0  0  0  0
   -8.1036    0.8723    3.5562 H   0  0  0  0  0  0  0  0  0  0  0  0
   -8.9723   -0.2014    4.6582 H   0  0  0  0  0  0  0  0  0  0  0  0
  -10.3663    0.1750    0.8295 H   0  0  0  0  0  0  0  0  0  0  0  0
   -8.9060    1.0705    1.2752 H   0  0  0  0  0  0  0  0  0  0  0  0
   -9.1846   -1.9900    1.0596 H   0  0  0  0  0  0  0  0  0  0  0  0
   -8.3743   -0.9724   -0.1228 H   0  0  0  0  0  0  0  0  0  0  0  0
   -6.3002   -1.3707   -0.6353 H   0  0  0  0  0  0  0  0  0  0  0  0
   -4.3151   -0.2186   -1.4615 H   0  0  0  0  0  0  0  0  0  0  0  0
   -0.9264   -0.5058    1.4763 H   0  0  0  0  0  0  0  0  0  0  0  0
   -2.0004   -1.1758    0.2456 H   0  0  0  0  0  0  0  0  0  0  0  0
  1  2  1  0
  2  3  1  0
  3  4  1  0
  4  5  2  3
  5  6  1  0
  6  7  2  0
  7  8  1  0
  8  9  2  0
  9 10  1  0
 10 11  1  0
 11 12  1  0
 12 13  1  0
 13 14  1  0
 14 15  1  0
  9 16  1  0
 16 17  2  0
  4 18  1  0
 18 19  2  0
 18 20  1  0
 20 21  2  3
 21 22  1  0
 22 23  2  0
 23 24  1  0
 24 25  2  0
 25 26  1  0
 26 27  1  0
 27 28  1  0
 28 29  1  0
 29 30  1  0
 30 31  1  0
 25 32  1  0
 32 33  2  0
 20 34  1  0
 34  2  1  0
 17  6  1  0
 33 22  1  0
 15 10  1  0
 31 26  1  0
  1 35  1  0
  1 36  1  0
  1 37  1  0
  3 38  1  0
  3 39  1  0
  5 40  1  0
  7 41  1  0
  8 42  1  0
 11 43  1  0
 11 44  1  0
 12 45  1  0
 12 46  1  0
 14 47  1  0
 14 48  1  0
 15 49  1  0
 15 50  1  0
 16 51  1  0
 17 52  1  0
 21 53  1  0
 23 54  1  0
 24 55  1  0
 27 56  1  0
 27 57  1  0
 28 58  1  0
 28 59  1  0
 30 60  1  0
 30 61  1  0
 31 62  1  0
 31 63  1  0
 32 64  1  0
 33 65  1  0
 34 66  1  0
 34 67  1  0
M  END
$$$$
