
     RDKit          3D

 38 40  0  0  0  0  0  0  0  0999 V2000
    1.8557   -2.0557   -0.6222 O   0  0  0  0  0  0  0  0  0  0  0  0
    2.2864   -0.9076   -0.7044 C   0  0  0  0  0  0  0  0  0  0  0  0
    1.5015    0.1432   -1.1455 N   0  0  0  0  0  0  0  0  0  0  0  0
    0.1226   -0.1285   -1.2792 N   0  0  0  0  0  0  0  0  0  0  0  0
   -0.7392    0.7079   -0.5827 C   0  0  0  0  0  0  0  0  0  0  0  0
   -0.3476    1.7657   -0.0894 O   0  0  0  0  0  0  0  0  0  0  0  0
   -2.1739    0.1904   -0.4950 C   0  0  0  0  0  0  0  0  0  0  0  0
   -2.2498   -0.8796    0.5874 C   0  0  0  0  0  0  0  0  0  0  0  0
   -3.5468   -1.4906    0.5969 O   0  0  0  0  0  0  0  0  0  0  0  0
   -4.5391   -0.5446    0.5453 C   0  0  0  0  0  0  0  0  0  0  0  0
   -5.8259   -0.9649    0.8747 C   0  0  0  0  0  0  0  0  0  0  0  0
   -6.8792   -0.0488    0.8649 C   0  0  0  0  0  0  0  0  0  0  0  0
   -6.6440    1.2845    0.5236 C   0  0  0  0  0  0  0  0  0  0  0  0
   -5.3573    1.7024    0.1799 C   0  0  0  0  0  0  0  0  0  0  0  0
   -4.3088    0.7850    0.1756 C   0  0  0  0  0  0  0  0  0  0  0  0
   -3.0762    1.2580   -0.1951 O   0  0  0  0  0  0  0  0  0  0  0  0
    3.6796   -0.5817   -0.2928 C   0  0  0  0  0  0  0  0  0  0  0  0
    4.3370   -1.4682    0.5738 C   0  0  0  0  0  0  0  0  0  0  0  0
    5.6467   -1.2174    0.9895 C   0  0  0  0  0  0  0  0  0  0  0  0
    6.3164   -0.0816    0.5359 C   0  0  0  0  0  0  0  0  0  0  0  0
    5.6670    0.7975   -0.3415 C   0  0  0  0  0  0  0  0  0  0  0  0
    6.3765    1.9865   -0.8323 N   0  0  0  0  0  4  0  0  0  0  0  0
    7.5503    2.1483   -0.4718 O   0  0  0  0  0  0  0  0  0  0  0  0
    5.7551    2.7565   -1.5779 O   0  0  0  0  0  1  0  0  0  0  0  0
    4.3502    0.5543   -0.7628 C   0  0  0  0  0  0  0  0  0  0  0  0
    1.7134    1.1040   -0.8713 H   0  0  0  0  0  0  0  0  0  0  0  0
   -0.0971   -1.1169   -1.4124 H   0  0  0  0  0  0  0  0  0  0  0  0
   -2.4533   -0.2176   -1.4763 H   0  0  0  0  0  0  0  0  0  0  0  0
   -1.5188   -1.6764    0.4142 H   0  0  0  0  0  0  0  0  0  0  0  0
   -2.0517   -0.4643    1.5846 H   0  0  0  0  0  0  0  0  0  0  0  0
   -6.0065   -2.0001    1.1502 H   0  0  0  0  0  0  0  0  0  0  0  0
   -7.8826   -0.3732    1.1291 H   0  0  0  0  0  0  0  0  0  0  0  0
   -7.4640    1.9983    0.5222 H   0  0  0  0  0  0  0  0  0  0  0  0
   -5.1743    2.7383   -0.0923 H   0  0  0  0  0  0  0  0  0  0  0  0
    3.8266   -2.3622    0.9315 H   0  0  0  0  0  0  0  0  0  0  0  0
    6.1438   -1.9111    1.6650 H   0  0  0  0  0  0  0  0  0  0  0  0
    7.3376    0.0994    0.8671 H   0  0  0  0  0  0  0  0  0  0  0  0
    3.8695    1.2298   -1.4664 H   0  0  0  0  0  0  0  0  0  0  0  0
  1  2  2  0
  2  3  1  0
  3  4  1  0
  4  5  1  0
  5  6  2  0
  5  7  1  0
  7  8  1  0
  8  9  1  0
  9 10  1  0
 10 11  2  0
 11 12  1  0
 12 13  2  0
 13 14  1  0
 14 15  2  0
 15 16  1  0
  2 17  1  0
 17 18  2  0
 18 19  1  0
 19 20  2  0
 20 21  1  0
 21 22  1  0
 22 23  2  0
 22 24  1  0
 21 25  2  0
 16  7  1  0
 25 17  1  0
 15 10  1  0
  3 26  1  0
  4 27  1  0
  7 28  1  0
  8 29  1  0
  8 30  1  0
 11 31  1  0
 12 32  1  0
 13 33  1  0
 14 34  1  0
 18 35  1  0
 19 36  1  0
 20 37  1  0
 25 38  1  0
M  CHG  2  22   1  24  -1
M  END
$$$$
