
     RDKit          3D

 54 56  0  0  0  0  0  0  0  0999 V2000
   -5.3591   -1.6093    0.3738 C   0  0  0  0  0  0  0  0  0  0  0  0
   -4.4784   -0.8014    1.3077 C   0  0  0  0  0  0  0  0  0  0  0  0
   -3.4700   -0.1085    0.5626 O   0  0  0  0  0  0  0  0  0  0  0  0
   -2.3423   -0.8225    0.2732 C   0  0  0  0  0  0  0  0  0  0  0  0
   -2.1412   -1.9669    0.6627 O   0  0  0  0  0  0  0  0  0  0  0  0
   -1.3749   -0.0611   -0.5133 C   0  0  0  0  0  0  0  0  0  0  0  0
   -1.7333    0.7927   -1.5474 C   0  0  0  0  0  0  0  0  0  0  0  0
   -2.9571    1.0847   -2.0668 N   0  0  0  0  0  0  0  0  0  0  0  0
   -3.5522    2.0911   -1.5121 C   0  0  0  0  0  0  0  0  0  0  0  0
   -4.7946    2.5860   -1.8464 N   0  0  0  0  0  0  0  0  0  0  0  0
   -5.6424    1.8234   -2.7521 C   0  0  0  0  0  0  0  0  0  0  0  0
   -5.4719    3.5088   -0.9526 C   0  0  0  0  0  0  0  0  0  0  0  0
   -0.3503    1.4739   -2.3012 S   0  0  0  0  0  0  0  0  0  0  0  0
    0.7373    0.6782   -1.2514 C   0  0  0  0  0  0  0  0  0  0  0  0
    2.1460    0.9406   -1.4562 C   0  0  0  0  0  0  0  0  0  0  0  0
    3.0642    0.4328   -0.6959 N   0  0  0  0  0  0  0  0  0  0  0  0
    4.3455    0.7547   -1.0406 N   0  0  0  0  0  0  0  0  0  0  0  0
    5.3820    0.1524   -0.2896 C   0  0  0  0  0  0  0  0  0  0  0  0
    5.1693   -0.3580    0.9971 C   0  0  0  0  0  0  0  0  0  0  0  0
    6.2180   -0.9113    1.7342 C   0  0  0  0  0  0  0  0  0  0  0  0
    7.5054   -0.9325    1.2048 C   0  0  0  0  0  0  0  0  0  0  0  0
    7.7442   -0.3922   -0.0566 C   0  0  0  0  0  0  0  0  0  0  0  0
    6.6910    0.1584   -0.7918 C   0  0  0  0  0  0  0  0  0  0  0  0
    0.0638   -0.1251   -0.3450 C   0  0  0  0  0  0  0  0  0  0  0  0
    0.7582   -0.9024    0.6737 C   0  0  0  0  0  0  0  0  0  0  0  0
    0.8547   -0.4089    1.9804 C   0  0  0  0  0  0  0  0  0  0  0  0
    1.5050   -1.1576    2.9645 C   0  0  0  0  0  0  0  0  0  0  0  0
    2.0539   -2.3966    2.6415 C   0  0  0  0  0  0  0  0  0  0  0  0
    2.8673   -3.3108    3.8514 Cl  0  0  0  0  0  0  0  0  0  0  0  0
    1.9577   -2.8972    1.3447 C   0  0  0  0  0  0  0  0  0  0  0  0
    1.3055   -2.1519    0.3594 C   0  0  0  0  0  0  0  0  0  0  0  0
   -4.7825   -2.3856   -0.1385 H   0  0  0  0  0  0  0  0  0  0  0  0
   -6.1742   -2.0880    0.9242 H   0  0  0  0  0  0  0  0  0  0  0  0
   -5.7876   -0.9673   -0.4021 H   0  0  0  0  0  0  0  0  0  0  0  0
   -4.0379   -1.4260    2.0927 H   0  0  0  0  0  0  0  0  0  0  0  0
   -5.0840   -0.0388    1.8074 H   0  0  0  0  0  0  0  0  0  0  0  0
   -3.0879    2.6564   -0.6784 H   0  0  0  0  0  0  0  0  0  0  0  0
   -5.0880    1.5258   -3.6503 H   0  0  0  0  0  0  0  0  0  0  0  0
   -6.4998    2.4180   -3.0867 H   0  0  0  0  0  0  0  0  0  0  0  0
   -6.0198    0.9224   -2.2570 H   0  0  0  0  0  0  0  0  0  0  0  0
   -5.8681    2.9748   -0.0837 H   0  0  0  0  0  0  0  0  0  0  0  0
   -6.2997    4.0185   -1.4569 H   0  0  0  0  0  0  0  0  0  0  0  0
   -4.7823    4.2835   -0.6004 H   0  0  0  0  0  0  0  0  0  0  0  0
    2.4270    1.6024   -2.2971 H   0  0  0  0  0  0  0  0  0  0  0  0
    4.5736    0.7835   -2.0330 H   0  0  0  0  0  0  0  0  0  0  0  0
    4.1738   -0.3321    1.4306 H   0  0  0  0  0  0  0  0  0  0  0  0
    6.0238   -1.3198    2.7219 H   0  0  0  0  0  0  0  0  0  0  0  0
    8.3216   -1.3606    1.7769 H   0  0  0  0  0  0  0  0  0  0  0  0
    8.7501   -0.3944   -0.4681 H   0  0  0  0  0  0  0  0  0  0  0  0
    6.9035    0.5841   -1.7687 H   0  0  0  0  0  0  0  0  0  0  0  0
    0.4341    0.5594    2.2371 H   0  0  0  0  0  0  0  0  0  0  0  0
    1.5826   -0.7683    3.9744 H   0  0  0  0  0  0  0  0  0  0  0  0
    2.3888   -3.8623    1.0923 H   0  0  0  0  0  0  0  0  0  0  0  0
    1.2318   -2.5492   -0.6493 H   0  0  0  0  0  0  0  0  0  0  0  0
  1  2  1  0
  2  3  1  0
  3  4  1  0
  4  5  2  0
  4  6  1  0
  6  7  2  0
  7  8  1  0
  8  9  2  3
  9 10  1  0
 10 11  1  0
 10 12  1  0
  7 13  1  0
 13 14  1  0
 14 15  1  0
 15 16  2  3
 16 17  1  0
 17 18  1  0
 18 19  2  0
 19 20  1  0
 20 21  2  0
 21 22  1  0
 22 23  2  0
 14 24  2  0
 24 25  1  0
 25 26  2  0
 26 27  1  0
 27 28  2  0
 28 29  1  0
 28 30  1  0
 30 31  2  0
 24  6  1  0
 31 25  1  0
 23 18  1  0
  1 32  1  0
  1 33  1  0
  1 34  1  0
  2 35  1  0
  2 36  1  0
  9 37  1  0
 11 38  1  0
 11 39  1  0
 11 40  1  0
 12 41  1  0
 12 42  1  0
 12 43  1  0
 15 44  1  0
 17 45  1  0
 19 46  1  0
 20 47  1  0
 21 48  1  0
 22 49  1  0
 23 50  1  0
 26 51  1  0
 27 52  1  0
 30 53  1  0
 31 54  1  0
M  END
$$$$
