
     RDKit          3D

 47 50  0  0  0  0  0  0  0  0999 V2000
   -0.0077   -1.8415   -1.1350 O   0  0  0  0  0  0  0  0  0  0  0  0
   -1.0398   -1.3943   -0.6725 C   0  0  0  0  0  0  0  0  0  0  0  0
   -2.3471   -2.0342   -0.8025 C   0  0  0  0  0  0  0  0  0  0  0  0
   -2.7241   -3.1736   -1.4853 C   0  0  0  0  0  0  0  0  0  0  0  0
   -4.0698   -3.5467   -1.4086 C   0  0  0  0  0  0  0  0  0  0  0  0
   -4.9909   -2.7851   -0.6588 C   0  0  0  0  0  0  0  0  0  0  0  0
   -4.5827   -1.6370    0.0277 C   0  0  0  0  0  0  0  0  0  0  0  0
   -3.2502   -1.2876   -0.0672 C   0  0  0  0  0  0  0  0  0  0  0  0
   -2.5166   -0.1731    0.5292 C   0  0  0  0  0  0  0  0  0  0  0  0
   -3.0030    0.6352    1.2964 O   0  0  0  0  0  0  0  0  0  0  0  0
   -1.2317   -0.2689    0.0778 N   0  0  0  0  0  0  0  0  0  0  0  0
   -0.1600    0.6124    0.4831 C   0  0  0  0  0  0  0  0  0  0  0  0
    0.4541    1.3399   -0.6419 N   0  0  0  0  0  0  0  0  0  0  0  0
    1.8177    1.1939   -0.9643 C   0  0  0  0  0  0  0  0  0  0  0  0
    2.3992    1.8631   -1.8263 O   0  0  0  0  0  0  0  0  0  0  0  0
    2.6457    0.1645   -0.1895 C   0  0  0  0  0  0  0  0  0  0  0  0
    2.8148    0.6095    1.1518 O   0  0  0  0  0  0  0  0  0  0  0  0
    3.5039   -0.2162    1.9965 C   0  0  0  0  0  0  0  0  0  0  0  0
    4.0665   -1.4492    1.6638 C   0  0  0  0  0  0  0  0  0  0  0  0
    4.7411   -2.1968    2.6344 C   0  0  0  0  0  0  0  0  0  0  0  0
    4.8570   -1.7161    3.9375 C   0  0  0  0  0  0  0  0  0  0  0  0
    4.2994   -0.4852    4.2735 C   0  0  0  0  0  0  0  0  0  0  0  0
    3.6261    0.2605    3.3047 C   0  0  0  0  0  0  0  0  0  0  0  0
   -0.3975    2.2248   -1.4074 C   0  0  0  0  0  0  0  0  0  0  0  0
   -1.5280    2.8333   -0.8312 C   0  0  0  0  0  0  0  0  0  0  0  0
   -2.3704    3.6645   -1.5795 C   0  0  0  0  0  0  0  0  0  0  0  0
   -2.0942    3.8973   -2.9170 C   0  0  0  0  0  0  0  0  0  0  0  0
   -2.9014    4.6896   -3.6334 F   0  0  0  0  0  0  0  0  0  0  0  0
   -0.9924    3.3129   -3.5188 C   0  0  0  0  0  0  0  0  0  0  0  0
   -0.1528    2.4814   -2.7681 C   0  0  0  0  0  0  0  0  0  0  0  0
   -2.0049   -3.7522   -2.0560 H   0  0  0  0  0  0  0  0  0  0  0  0
   -4.4133   -4.4370   -1.9331 H   0  0  0  0  0  0  0  0  0  0  0  0
   -6.0331   -3.0979   -0.6145 H   0  0  0  0  0  0  0  0  0  0  0  0
   -5.2805   -1.0442    0.6103 H   0  0  0  0  0  0  0  0  0  0  0  0
    0.5561   -0.0257    0.9977 H   0  0  0  0  0  0  0  0  0  0  0  0
   -0.5034    1.3331    1.2329 H   0  0  0  0  0  0  0  0  0  0  0  0
    3.6234    0.0896   -0.6823 H   0  0  0  0  0  0  0  0  0  0  0  0
    2.1519   -0.8101   -0.2444 H   0  0  0  0  0  0  0  0  0  0  0  0
    4.0042   -1.8600    0.6614 H   0  0  0  0  0  0  0  0  0  0  0  0
    5.1794   -3.1562    2.3705 H   0  0  0  0  0  0  0  0  0  0  0  0
    5.3842   -2.2987    4.6886 H   0  0  0  0  0  0  0  0  0  0  0  0
    4.3905   -0.1029    5.2868 H   0  0  0  0  0  0  0  0  0  0  0  0
    3.1972    1.2233    3.5714 H   0  0  0  0  0  0  0  0  0  0  0  0
   -1.7738    2.7135    0.2199 H   0  0  0  0  0  0  0  0  0  0  0  0
   -3.2338    4.1340   -1.1184 H   0  0  0  0  0  0  0  0  0  0  0  0
   -0.7879    3.4979   -4.5685 H   0  0  0  0  0  0  0  0  0  0  0  0
    0.6785    2.0162   -3.2917 H   0  0  0  0  0  0  0  0  0  0  0  0
  1  2  2  0
  2  3  1  0
  3  4  2  0
  4  5  1  0
  5  6  2  0
  6  7  1  0
  7  8  2  0
  8  9  1  0
  9 10  2  0
  9 11  1  0
 11 12  1  0
 12 13  1  0
 13 14  1  0
 14 15  2  0
 14 16  1  0
 16 17  1  0
 17 18  1  0
 18 19  2  0
 19 20  1  0
 20 21  2  0
 21 22  1  0
 22 23  2  0
 13 24  1  0
 24 25  2  0
 25 26  1  0
 26 27  2  0
 27 28  1  0
 27 29  1  0
 29 30  2  0
 11  2  1  0
 23 18  1  0
 30 24  1  0
  8  3  1  0
  4 31  1  0
  5 32  1  0
  6 33  1  0
  7 34  1  0
 12 35  1  0
 12 36  1  0
 16 37  1  0
 16 38  1  0
 19 39  1  0
 20 40  1  0
 21 41  1  0
 22 42  1  0
 23 43  1  0
 25 44  1  0
 26 45  1  0
 29 46  1  0
 30 47  1  0
M  END
$$$$
