
     RDKit          3D

 58 60  0  0  0  0  0  0  0  0999 V2000
   -8.2918   -3.3907    1.5089 C   0  0  0  0  0  0  0  0  0  0  0  0
   -7.1254   -3.4265    0.6984 O   0  0  0  0  0  0  0  0  0  0  0  0
   -6.1744   -2.4581    0.8932 C   0  0  0  0  0  0  0  0  0  0  0  0
   -6.3032   -1.3906    1.7933 C   0  0  0  0  0  0  0  0  0  0  0  0
   -5.2751   -0.4507    1.9262 C   0  0  0  0  0  0  0  0  0  0  0  0
   -5.3048    0.6354    2.7667 O   0  0  0  0  0  0  0  0  0  0  0  0
   -6.2039    0.5590    3.8681 C   0  0  0  0  0  0  0  0  0  0  0  0
   -4.1223   -0.5683    1.1320 C   0  0  0  0  0  0  0  0  0  0  0  0
   -3.0447    0.3563    1.3201 N   0  0  0  0  0  0  0  0  0  0  0  0
   -1.8180   -0.1284    2.3882 S   0  0  0  0  0  6  0  0  0  0  0  0
   -2.3337   -1.1034    3.3245 O   0  0  0  0  0  0  0  0  0  0  0  0
   -1.1621    1.0804    2.8384 O   0  0  0  0  0  0  0  0  0  0  0  0
   -0.6823   -0.9461    1.2922 C   0  0  0  0  0  0  0  0  0  0  0  0
   -0.5079   -2.3307    1.3683 C   0  0  0  0  0  0  0  0  0  0  0  0
    0.3818   -2.9614    0.4944 C   0  0  0  0  0  0  0  0  0  0  0  0
    1.1067   -2.2126   -0.4408 C   0  0  0  0  0  0  0  0  0  0  0  0
    2.1269   -3.0727   -1.5368 Cl  0  0  0  0  0  0  0  0  0  0  0  0
    0.9470   -0.8223   -0.4865 C   0  0  0  0  0  0  0  0  0  0  0  0
    1.6741    0.0270   -1.4416 C   0  0  0  0  0  0  0  0  0  0  0  0
    1.1210    0.7794   -2.2251 O   0  0  0  0  0  0  0  0  0  0  0  0
    2.9994   -0.1063   -1.2284 O   0  0  0  0  0  0  0  0  0  0  0  0
    3.8526    0.6999   -2.0588 C   0  0  0  0  0  0  0  0  0  0  0  0
    4.1854   -0.0859   -3.3220 C   0  0  0  0  0  0  0  0  0  0  0  0
    5.1472    1.0125   -1.2870 C   0  0  0  0  0  0  0  0  0  0  0  0
    5.5426    0.2918   -0.3674 O   0  0  0  0  0  0  0  0  0  0  0  0
    5.8624    2.1305   -1.6741 N   0  0  0  0  0  0  0  0  0  0  0  0
    5.4786    3.1369   -2.6529 C   0  0  0  0  0  0  0  0  0  0  0  0
    6.7167    4.0098   -2.7985 C   0  0  0  0  0  0  0  0  0  0  0  0
    7.3370    3.9474   -1.4088 C   0  0  0  0  0  0  0  0  0  0  0  0
    7.0882    2.5058   -0.9879 C   0  0  0  0  0  0  0  0  0  0  0  0
    0.0428   -0.1838    0.3727 C   0  0  0  0  0  0  0  0  0  0  0  0
   -3.9802   -1.6232    0.2370 C   0  0  0  0  0  0  0  0  0  0  0  0
   -5.0048   -2.5625    0.1190 C   0  0  0  0  0  0  0  0  0  0  0  0
   -4.7807   -3.8570   -1.0079 Cl  0  0  0  0  0  0  0  0  0  0  0  0
   -8.8759   -2.4854    1.3171 H   0  0  0  0  0  0  0  0  0  0  0  0
   -8.0391   -3.4824    2.5704 H   0  0  0  0  0  0  0  0  0  0  0  0
   -8.9133   -4.2505    1.2393 H   0  0  0  0  0  0  0  0  0  0  0  0
   -7.2044   -1.2825    2.3829 H   0  0  0  0  0  0  0  0  0  0  0  0
   -6.0855   -0.3798    4.4201 H   0  0  0  0  0  0  0  0  0  0  0  0
   -7.2375    0.6929    3.5336 H   0  0  0  0  0  0  0  0  0  0  0  0
   -5.9653    1.3802    4.5508 H   0  0  0  0  0  0  0  0  0  0  0  0
   -3.3552    1.2905    1.6015 H   0  0  0  0  0  0  0  0  0  0  0  0
   -1.0632   -2.9254    2.0919 H   0  0  0  0  0  0  0  0  0  0  0  0
    0.5010   -4.0422    0.5429 H   0  0  0  0  0  0  0  0  0  0  0  0
    3.3546    1.6452   -2.3007 H   0  0  0  0  0  0  0  0  0  0  0  0
    4.6406   -1.0505   -3.0681 H   0  0  0  0  0  0  0  0  0  0  0  0
    4.8809    0.4512   -3.9722 H   0  0  0  0  0  0  0  0  0  0  0  0
    3.2775   -0.3072   -3.8925 H   0  0  0  0  0  0  0  0  0  0  0  0
    4.6384    3.7054   -2.2382 H   0  0  0  0  0  0  0  0  0  0  0  0
    5.1708    2.6839   -3.5984 H   0  0  0  0  0  0  0  0  0  0  0  0
    7.4052    3.5709   -3.5300 H   0  0  0  0  0  0  0  0  0  0  0  0
    6.4793    5.0284   -3.1166 H   0  0  0  0  0  0  0  0  0  0  0  0
    8.3975    4.2128   -1.3989 H   0  0  0  0  0  0  0  0  0  0  0  0
    6.8053    4.6312   -0.7361 H   0  0  0  0  0  0  0  0  0  0  0  0
    6.9876    2.3950    0.0964 H   0  0  0  0  0  0  0  0  0  0  0  0
    7.8847    1.8425   -1.3423 H   0  0  0  0  0  0  0  0  0  0  0  0
   -0.0900    0.8958    0.3238 H   0  0  0  0  0  0  0  0  0  0  0  0
   -3.0888   -1.7108   -0.3759 H   0  0  0  0  0  0  0  0  0  0  0  0
  1  2  1  0
  2  3  1  0
  3  4  2  0
  4  5  1  0
  5  6  1  0
  6  7  1  0
  5  8  2  0
  8  9  1  0
  9 10  1  0
 10 11  2  0
 10 12  2  0
 10 13  1  0
 13 14  2  0
 14 15  1  0
 15 16  2  0
 16 17  1  0
 16 18  1  0
 18 19  1  0
 19 20  2  0
 19 21  1  0
 21 22  1  0
 22 23  1  0
 22 24  1  0
 24 25  2  0
 24 26  1  0
 26 27  1  0
 27 28  1  0
 28 29  1  0
 29 30  1  0
 18 31  2  0
  8 32  1  0
 32 33  2  0
 33 34  1  0
 33  3  1  0
 31 13  1  0
 30 26  1  0
  1 35  1  0
  1 36  1  0
  1 37  1  0
  4 38  1  0
  7 39  1  0
  7 40  1  0
  7 41  1  0
  9 42  1  0
 14 43  1  0
 15 44  1  0
 22 45  1  0
 23 46  1  0
 23 47  1  0
 23 48  1  0
 27 49  1  0
 27 50  1  0
 28 51  1  0
 28 52  1  0
 29 53  1  0
 29 54  1  0
 30 55  1  0
 30 56  1  0
 31 57  1  0
 32 58  1  0
M  END
$$$$
