
     RDKit          3D

 45 46  0  0  0  0  0  0  0  0999 V2000
    5.2849   -1.2779    2.2671 C   0  0  0  0  0  0  0  0  0  0  0  0
    4.3176   -1.3811    1.1254 C   0  0  0  0  0  0  0  0  0  0  0  0
    4.7764   -1.4308   -0.1939 C   0  0  0  0  0  0  0  0  0  0  0  0
    3.8687   -1.4865   -1.2501 C   0  0  0  0  0  0  0  0  0  0  0  0
    2.4946   -1.4924   -0.9988 C   0  0  0  0  0  0  0  0  0  0  0  0
    2.0168   -1.4570    0.3111 C   0  0  0  0  0  0  0  0  0  0  0  0
    0.6432   -1.4054    0.6380 N   0  0  0  0  0  0  0  0  0  0  0  0
   -0.4675   -1.8303   -0.0814 C   0  0  0  0  0  0  0  0  0  0  0  0
   -0.4318   -3.1455   -1.1336 S   0  0  0  0  0  0  0  0  0  0  0  0
   -1.6338   -1.0890    0.2302 N   0  0  0  0  0  0  0  0  0  0  0  0
   -1.5744    0.2036    0.9524 C   0  0  0  0  0  0  0  0  0  0  0  0
   -0.9648    1.3541    0.1152 C   0  0  0  0  0  0  0  0  0  0  0  0
   -0.7778    2.6489    0.7947 N   0  0  0  0  0  0  0  0  0  0  0  0
    0.2285    2.5927    1.8494 C   0  0  0  0  0  0  0  0  0  0  0  0
   -2.0298    3.2209    1.2788 C   0  0  0  0  0  0  0  0  0  0  0  0
   -2.9721   -1.4680   -0.2703 C   0  0  0  0  0  0  0  0  0  0  0  0
   -3.4055   -0.5810   -1.4019 C   0  0  0  0  0  0  0  0  0  0  0  0
   -2.8756   -0.4768   -2.6745 C   0  0  0  0  0  0  0  0  0  0  0  0
   -3.5634    0.4786   -3.4769 C   0  0  0  0  0  0  0  0  0  0  0  0
   -4.6053    1.0670   -2.7973 C   0  0  0  0  0  0  0  0  0  0  0  0
   -4.7541    0.4643   -1.2054 S   0  0  0  0  0  0  0  0  0  0  0  0
    2.9354   -1.3743    1.3665 C   0  0  0  0  0  0  0  0  0  0  0  0
    5.3941   -0.2323    2.5717 H   0  0  0  0  0  0  0  0  0  0  0  0
    4.9355   -1.8650    3.1231 H   0  0  0  0  0  0  0  0  0  0  0  0
    6.2699   -1.6660    1.9869 H   0  0  0  0  0  0  0  0  0  0  0  0
    5.8424   -1.4192   -0.4091 H   0  0  0  0  0  0  0  0  0  0  0  0
    4.2291   -1.5134   -2.2755 H   0  0  0  0  0  0  0  0  0  0  0  0
    1.8196   -1.4891   -1.8486 H   0  0  0  0  0  0  0  0  0  0  0  0
    0.4517   -1.2409    1.6157 H   0  0  0  0  0  0  0  0  0  0  0  0
   -2.5875    0.4656    1.2768 H   0  0  0  0  0  0  0  0  0  0  0  0
   -1.0029    0.0561    1.8730 H   0  0  0  0  0  0  0  0  0  0  0  0
    0.0021    1.0441   -0.2989 H   0  0  0  0  0  0  0  0  0  0  0  0
   -1.5921    1.5279   -0.7665 H   0  0  0  0  0  0  0  0  0  0  0  0
    1.1749    2.1988    1.4620 H   0  0  0  0  0  0  0  0  0  0  0  0
    0.4411    3.5997    2.2261 H   0  0  0  0  0  0  0  0  0  0  0  0
   -0.0827    1.9746    2.6979 H   0  0  0  0  0  0  0  0  0  0  0  0
   -2.4661    2.6423    2.1001 H   0  0  0  0  0  0  0  0  0  0  0  0
   -2.7656    3.2862    0.4699 H   0  0  0  0  0  0  0  0  0  0  0  0
   -1.8673    4.2441    1.6369 H   0  0  0  0  0  0  0  0  0  0  0  0
   -3.6632   -1.4067    0.5798 H   0  0  0  0  0  0  0  0  0  0  0  0
   -3.0044   -2.5105   -0.5970 H   0  0  0  0  0  0  0  0  0  0  0  0
   -2.0245   -1.0535   -3.0162 H   0  0  0  0  0  0  0  0  0  0  0  0
   -3.3056    0.7205   -4.5008 H   0  0  0  0  0  0  0  0  0  0  0  0
   -5.2917    1.8192   -3.1606 H   0  0  0  0  0  0  0  0  0  0  0  0
    2.5828   -1.3165    2.3934 H   0  0  0  0  0  0  0  0  0  0  0  0
  1  2  1  0
  2  3  2  0
  3  4  1  0
  4  5  2  0
  5  6  1  0
  6  7  1  0
  7  8  1  0
  8  9  2  0
  8 10  1  0
 10 11  1  0
 11 12  1  0
 12 13  1  0
 13 14  1  0
 13 15  1  0
 10 16  1  0
 16 17  1  0
 17 18  2  0
 18 19  1  0
 19 20  2  0
 20 21  1  0
  6 22  2  0
 22  2  1  0
 21 17  1  0
  1 23  1  0
  1 24  1  0
  1 25  1  0
  3 26  1  0
  4 27  1  0
  5 28  1  0
  7 29  1  0
 11 30  1  0
 11 31  1  0
 12 32  1  0
 12 33  1  0
 14 34  1  0
 14 35  1  0
 14 36  1  0
 15 37  1  0
 15 38  1  0
 15 39  1  0
 16 40  1  0
 16 41  1  0
 18 42  1  0
 19 43  1  0
 20 44  1  0
 22 45  1  0
M  END
$$$$
