
     RDKit          3D

 55 57  0  0  0  0  0  0  0  0999 V2000
    5.8672    1.1488   -3.8977 C   0  0  0  0  0  0  0  0  0  0  0  0
    6.0296    0.9989   -2.4932 O   0  0  0  0  0  0  0  0  0  0  0  0
    4.8878    0.8709   -1.7514 C   0  0  0  0  0  0  0  0  0  0  0  0
    3.5839    0.8748   -2.2430 C   0  0  0  0  0  0  0  0  0  0  0  0
    2.4988    0.7335   -1.3691 C   0  0  0  0  0  0  0  0  0  0  0  0
    2.6974    0.5916    0.0135 C   0  0  0  0  0  0  0  0  0  0  0  0
    1.5375    0.4124    0.9872 C   0  0  0  0  0  0  0  0  0  0  0  0
    0.3978    1.8560    0.8931 S   0  0  0  0  0  0  0  0  0  0  0  0
   -0.9375    1.2419    1.9042 C   0  0  0  0  0  0  0  0  0  0  0  0
   -1.2129    1.9458    3.0861 C   0  0  0  0  0  0  0  0  0  0  0  0
   -2.3016    1.5987    3.8842 C   0  0  0  0  0  0  0  0  0  0  0  0
   -3.1343    0.5546    3.4996 C   0  0  0  0  0  0  0  0  0  0  0  0
   -2.8776   -0.1441    2.3179 C   0  0  0  0  0  0  0  0  0  0  0  0
   -1.7767    0.1809    1.5079 C   0  0  0  0  0  0  0  0  0  0  0  0
   -1.5553   -0.5726    0.3118 N   0  0  0  0  0  0  0  0  0  0  0  0
   -2.6802   -0.7001   -0.6305 C   0  0  0  0  0  0  0  0  0  0  0  0
   -2.7698    0.5109   -1.5885 C   0  0  0  0  0  0  0  0  0  0  0  0
   -3.8234    0.4849   -2.6189 N   0  0  0  0  0  0  0  0  0  0  0  0
   -5.1685    0.4391   -2.0564 C   0  0  0  0  0  0  0  0  0  0  0  0
   -3.6202   -0.5831   -3.5944 C   0  0  0  0  0  0  0  0  0  0  0  0
   -0.2957   -0.9848   -0.1372 C   0  0  0  0  0  0  0  0  0  0  0  0
   -0.1255   -1.3929   -1.2922 O   0  0  0  0  0  0  0  0  0  0  0  0
    0.8847   -0.9787    0.8457 C   0  0  0  0  0  0  0  0  0  0  0  0
    0.4410   -1.5220    2.1133 O   0  0  0  0  0  0  0  0  0  0  0  0
    1.4135   -1.9540    2.9553 C   0  0  0  0  0  0  0  0  0  0  0  0
    0.8025   -2.5084    4.2048 C   0  0  0  0  0  0  0  0  0  0  0  0
    2.6139   -1.8866    2.7393 O   0  0  0  0  0  0  0  0  0  0  0  0
    4.0146    0.5799    0.4954 C   0  0  0  0  0  0  0  0  0  0  0  0
    5.0949    0.7212   -0.3798 C   0  0  0  0  0  0  0  0  0  0  0  0
    5.3854    0.2685   -4.3359 H   0  0  0  0  0  0  0  0  0  0  0  0
    5.3139    2.0633   -4.1361 H   0  0  0  0  0  0  0  0  0  0  0  0
    6.8634    1.2380   -4.3416 H   0  0  0  0  0  0  0  0  0  0  0  0
    3.3706    0.9831   -3.3011 H   0  0  0  0  0  0  0  0  0  0  0  0
    1.4947    0.7378   -1.7905 H   0  0  0  0  0  0  0  0  0  0  0  0
    1.9490    0.4996    1.9997 H   0  0  0  0  0  0  0  0  0  0  0  0
   -0.5872    2.7844    3.3865 H   0  0  0  0  0  0  0  0  0  0  0  0
   -2.5043    2.1518    4.7982 H   0  0  0  0  0  0  0  0  0  0  0  0
   -3.9848    0.2803    4.1193 H   0  0  0  0  0  0  0  0  0  0  0  0
   -3.5294   -0.9763    2.0647 H   0  0  0  0  0  0  0  0  0  0  0  0
   -3.6195   -0.8259   -0.0857 H   0  0  0  0  0  0  0  0  0  0  0  0
   -2.5359   -1.6220   -1.2054 H   0  0  0  0  0  0  0  0  0  0  0  0
   -2.9027    1.4226   -0.9908 H   0  0  0  0  0  0  0  0  0  0  0  0
   -1.8025    0.6506   -2.0889 H   0  0  0  0  0  0  0  0  0  0  0  0
   -5.9154    0.5785   -2.8462 H   0  0  0  0  0  0  0  0  0  0  0  0
   -5.3171    1.2532   -1.3386 H   0  0  0  0  0  0  0  0  0  0  0  0
   -5.3835   -0.5100   -1.5538 H   0  0  0  0  0  0  0  0  0  0  0  0
   -2.6172   -0.5251   -4.0313 H   0  0  0  0  0  0  0  0  0  0  0  0
   -4.3286   -0.4787   -4.4240 H   0  0  0  0  0  0  0  0  0  0  0  0
   -3.7531   -1.5802   -3.1614 H   0  0  0  0  0  0  0  0  0  0  0  0
    1.6066   -1.7028    0.4405 H   0  0  0  0  0  0  0  0  0  0  0  0
    0.2548   -1.7212    4.7291 H   0  0  0  0  0  0  0  0  0  0  0  0
    0.1378   -3.3393    3.9556 H   0  0  0  0  0  0  0  0  0  0  0  0
    1.5941   -2.8818    4.8607 H   0  0  0  0  0  0  0  0  0  0  0  0
    4.2163    0.4505    1.5573 H   0  0  0  0  0  0  0  0  0  0  0  0
    6.1088    0.7093    0.0126 H   0  0  0  0  0  0  0  0  0  0  0  0
  1  2  1  0
  2  3  1  0
  3  4  2  0
  4  5  1  0
  5  6  2  0
  6  7  1  0
  7  8  1  0
  8  9  1  0
  9 10  2  0
 10 11  1  0
 11 12  2  0
 12 13  1  0
 13 14  2  0
 14 15  1  0
 15 16  1  0
 16 17  1  0
 17 18  1  0
 18 19  1  0
 18 20  1  0
 15 21  1  0
 21 22  2  0
 21 23  1  0
 23 24  1  0
 24 25  1  0
 25 26  1  0
 25 27  2  0
  6 28  1  0
 28 29  2  0
 29  3  1  0
 23  7  1  0
 14  9  1  0
  1 30  1  0
  1 31  1  0
  1 32  1  0
  4 33  1  0
  5 34  1  0
  7 35  1  0
 10 36  1  0
 11 37  1  0
 12 38  1  0
 13 39  1  0
 16 40  1  0
 16 41  1  0
 17 42  1  0
 17 43  1  0
 19 44  1  0
 19 45  1  0
 19 46  1  0
 20 47  1  0
 20 48  1  0
 20 49  1  0
 23 50  1  0
 26 51  1  0
 26 52  1  0
 26 53  1  0
 28 54  1  0
 29 55  1  0
M  END
$$$$
