
     RDKit          3D

 53 56  0  0  0  0  0  0  0  0999 V2000
   -2.0685   -1.8373   -5.7521 C   0  0  0  0  0  0  0  0  0  0  0  0
   -1.8541   -1.2132   -4.4917 O   0  0  0  0  0  0  0  0  0  0  0  0
   -0.6596   -1.4609   -3.8722 C   0  0  0  0  0  0  0  0  0  0  0  0
    0.3584   -2.2809   -4.3499 C   0  0  0  0  0  0  0  0  0  0  0  0
    1.5347   -2.4529   -3.6080 C   0  0  0  0  0  0  0  0  0  0  0  0
    1.7113   -1.7979   -2.3844 C   0  0  0  0  0  0  0  0  0  0  0  0
    2.8175   -1.9338   -1.5861 O   0  0  0  0  0  0  0  0  0  0  0  0
    3.8490   -2.8076   -2.0306 C   0  0  0  0  0  0  0  0  0  0  0  0
    0.7028   -0.9394   -1.9043 C   0  0  0  0  0  0  0  0  0  0  0  0
    0.8584   -0.2346   -0.5693 C   0  0  0  0  0  0  0  0  0  0  0  0
    0.1732    1.0727   -0.5282 N   0  0  0  0  0  0  0  0  0  0  0  0
    0.3766    1.7114    0.7400 N   0  0  0  0  0  0  0  0  0  0  0  0
   -0.4625    1.4568    1.8309 C   0  0  0  0  0  0  0  0  0  0  0  0
   -1.6529    0.5806    1.6559 C   0  0  0  0  0  0  0  0  0  0  0  0
   -2.5935    0.8199    0.6504 C   0  0  0  0  0  0  0  0  0  0  0  0
   -3.7080   -0.0100    0.5332 C   0  0  0  0  0  0  0  0  0  0  0  0
   -3.8908   -1.0687    1.4266 C   0  0  0  0  0  0  0  0  0  0  0  0
   -2.9612   -1.3104    2.4448 C   0  0  0  0  0  0  0  0  0  0  0  0
   -3.1864   -2.4195    3.4290 C   0  0  0  0  0  0  0  0  0  0  0  0
   -1.8503   -0.4662    2.5661 C   0  0  0  0  0  0  0  0  0  0  0  0
   -0.2355    1.9474    3.0131 N   0  0  0  0  0  0  0  0  0  0  0  0
    0.8665    2.7937    3.1943 C   0  0  0  0  0  0  0  0  0  0  0  0
    1.1112    3.3089    4.4695 C   0  0  0  0  0  0  0  0  0  0  0  0
    2.1864    4.1704    4.6984 C   0  0  0  0  0  0  0  0  0  0  0  0
    3.0307    4.5271    3.6481 C   0  0  0  0  0  0  0  0  0  0  0  0
    2.8025    4.0184    2.3705 C   0  0  0  0  0  0  0  0  0  0  0  0
    1.7225    3.1551    2.1546 C   0  0  0  0  0  0  0  0  0  0  0  0
    1.4638    2.5881    0.8218 C   0  0  0  0  0  0  0  0  0  0  0  0
    2.1785    2.8857   -0.1370 O   0  0  0  0  0  0  0  0  0  0  0  0
   -0.4852   -0.8074   -2.6502 C   0  0  0  0  0  0  0  0  0  0  0  0
   -1.3122   -1.5282   -6.4813 H   0  0  0  0  0  0  0  0  0  0  0  0
   -2.0955   -2.9278   -5.6488 H   0  0  0  0  0  0  0  0  0  0  0  0
   -3.0431   -1.5117   -6.1273 H   0  0  0  0  0  0  0  0  0  0  0  0
    0.2702   -2.8099   -5.2930 H   0  0  0  0  0  0  0  0  0  0  0  0
    2.2976   -3.1096   -4.0196 H   0  0  0  0  0  0  0  0  0  0  0  0
    3.4848   -3.8359   -2.1120 H   0  0  0  0  0  0  0  0  0  0  0  0
    4.6438   -2.7963   -1.2790 H   0  0  0  0  0  0  0  0  0  0  0  0
    4.2801   -2.4612   -2.9773 H   0  0  0  0  0  0  0  0  0  0  0  0
    1.9211   -0.0693   -0.3546 H   0  0  0  0  0  0  0  0  0  0  0  0
    0.4586   -0.9007    0.2047 H   0  0  0  0  0  0  0  0  0  0  0  0
    0.6445    1.6696   -1.2204 H   0  0  0  0  0  0  0  0  0  0  0  0
   -2.4681    1.6497   -0.0390 H   0  0  0  0  0  0  0  0  0  0  0  0
   -4.4385    0.1705   -0.2504 H   0  0  0  0  0  0  0  0  0  0  0  0
   -4.7691   -1.7029    1.3258 H   0  0  0  0  0  0  0  0  0  0  0  0
   -3.8580   -2.0821    4.2256 H   0  0  0  0  0  0  0  0  0  0  0  0
   -2.2421   -2.7441    3.8789 H   0  0  0  0  0  0  0  0  0  0  0  0
   -3.6280   -3.2920    2.9355 H   0  0  0  0  0  0  0  0  0  0  0  0
   -1.1315   -0.6219    3.3672 H   0  0  0  0  0  0  0  0  0  0  0  0
    0.4553    3.0358    5.2901 H   0  0  0  0  0  0  0  0  0  0  0  0
    2.3616    4.5634    5.6969 H   0  0  0  0  0  0  0  0  0  0  0  0
    3.8642    5.1996    3.8244 H   0  0  0  0  0  0  0  0  0  0  0  0
    3.4610    4.2909    1.5485 H   0  0  0  0  0  0  0  0  0  0  0  0
   -1.2924   -0.1817   -2.2787 H   0  0  0  0  0  0  0  0  0  0  0  0
  1  2  1  0
  2  3  1  0
  3  4  2  0
  4  5  1  0
  5  6  2  0
  6  7  1  0
  7  8  1  0
  6  9  1  0
  9 10  1  0
 10 11  1  0
 11 12  1  0
 12 13  1  0
 13 14  1  0
 14 15  2  0
 15 16  1  0
 16 17  2  0
 17 18  1  0
 18 19  1  0
 18 20  2  0
 13 21  2  0
 21 22  1  0
 22 23  2  0
 23 24  1  0
 24 25  2  0
 25 26  1  0
 26 27  2  0
 27 28  1  0
 28 29  2  0
  9 30  2  0
 30  3  1  0
 28 12  1  0
 20 14  1  0
 27 22  1  0
  1 31  1  0
  1 32  1  0
  1 33  1  0
  4 34  1  0
  5 35  1  0
  8 36  1  0
  8 37  1  0
  8 38  1  0
 10 39  1  0
 10 40  1  0
 11 41  1  0
 15 42  1  0
 16 43  1  0
 17 44  1  0
 19 45  1  0
 19 46  1  0
 19 47  1  0
 20 48  1  0
 23 49  1  0
 24 50  1  0
 25 51  1  0
 26 52  1  0
 30 53  1  0
M  END
$$$$
