
     RDKit          3D

 70 75  0  0  0  0  0  0  0  0999 V2000
   -1.9128   -6.5083   -1.4237 C   0  0  0  0  0  0  0  0  0  0  0  0
   -1.6343   -5.0428   -1.5753 C   0  0  0  0  0  0  0  0  0  0  0  0
   -2.3729   -4.2626   -2.4698 C   0  0  0  0  0  0  0  0  0  0  0  0
   -2.0889   -2.9036   -2.6248 C   0  0  0  0  0  0  0  0  0  0  0  0
   -1.0527   -2.2977   -1.8989 C   0  0  0  0  0  0  0  0  0  0  0  0
   -0.7551   -0.8200   -2.0775 C   0  0  0  0  0  0  0  0  0  0  0  0
   -1.2562   -0.0092   -0.9739 N   0  0  0  0  0  0  0  0  0  0  0  0
   -2.6466    0.2156   -0.9772 C   0  0  0  0  0  0  0  0  0  0  0  0
   -3.3488    0.0373   -1.9766 O   0  0  0  0  0  0  0  0  0  0  0  0
   -3.2687    0.5777    0.3851 C   0  0  0  0  0  0  0  0  0  0  0  0
   -4.6680    1.1877    0.1829 C   0  0  0  0  0  0  0  0  0  0  0  0
   -5.3997    1.4724    1.4768 C   0  0  0  0  0  0  0  0  0  0  0  0
   -5.5614    2.7918    1.9211 C   0  0  0  0  0  0  0  0  0  0  0  0
   -6.2267    3.0584    3.1180 C   0  0  0  0  0  0  0  0  0  0  0  0
   -6.7347    2.0096    3.8825 C   0  0  0  0  0  0  0  0  0  0  0  0
   -6.5789    0.6937    3.4506 C   0  0  0  0  0  0  0  0  0  0  0  0
   -5.9158    0.4250    2.2524 C   0  0  0  0  0  0  0  0  0  0  0  0
   -2.4097    1.5041    1.1162 N   0  0  0  0  0  0  0  0  0  0  0  0
   -1.1014    1.0271    1.2394 C   0  0  0  0  0  0  0  0  0  0  0  0
   -0.5227    1.3154    2.4127 N   0  0  0  0  0  0  0  0  0  0  0  0
    0.7556    0.9664    2.5271 C   0  0  0  0  0  0  0  0  0  0  0  0
    1.5044    0.4233    1.5651 N   0  0  0  0  0  0  0  0  0  0  0  0
    0.9200    0.1784    0.3718 C   0  0  0  0  0  0  0  0  0  0  0  0
    1.7843   -0.1943   -0.6705 N   0  0  0  0  0  0  0  0  0  0  0  0
    3.0006   -0.9451   -0.2613 C   0  0  0  0  0  0  0  0  0  0  0  0
    4.1827   -0.0674    0.2193 C   0  0  0  0  0  0  0  0  0  0  0  0
    4.4550    1.0400   -0.7346 N   0  0  0  0  0  0  0  0  0  0  0  0
    5.6582    1.7156   -0.4699 C   0  0  0  0  0  0  0  0  0  0  0  0
    5.7287    3.0691   -0.1095 C   0  0  0  0  0  0  0  0  0  0  0  0
    6.9566    3.6972    0.1333 C   0  0  0  0  0  0  0  0  0  0  0  0
    8.1446    2.9835    0.0126 C   0  0  0  0  0  0  0  0  0  0  0  0
    8.1050    1.6439   -0.3553 C   0  0  0  0  0  0  0  0  0  0  0  0
    6.8750    1.0223   -0.5945 C   0  0  0  0  0  0  0  0  0  0  0  0
    3.2462    1.8525   -0.9874 C   0  0  0  0  0  0  0  0  0  0  0  0
    2.1159    0.9632   -1.5505 C   0  0  0  0  0  0  0  0  0  0  0  0
   -0.4598    0.3760    0.1742 C   0  0  0  0  0  0  0  0  0  0  0  0
   -0.3130   -3.0850   -1.0081 C   0  0  0  0  0  0  0  0  0  0  0  0
   -0.5973   -4.4443   -0.8510 C   0  0  0  0  0  0  0  0  0  0  0  0
   -1.1566   -7.0904   -1.9589 H   0  0  0  0  0  0  0  0  0  0  0  0
   -2.8979   -6.7699   -1.8235 H   0  0  0  0  0  0  0  0  0  0  0  0
   -1.9021   -6.7924   -0.3664 H   0  0  0  0  0  0  0  0  0  0  0  0
   -3.1778   -4.7036   -3.0538 H   0  0  0  0  0  0  0  0  0  0  0  0
   -2.6898   -2.3149   -3.3168 H   0  0  0  0  0  0  0  0  0  0  0  0
   -1.2426   -0.4729   -2.9994 H   0  0  0  0  0  0  0  0  0  0  0  0
    0.2990   -0.6846   -2.2936 H   0  0  0  0  0  0  0  0  0  0  0  0
   -3.3620   -0.3605    0.9502 H   0  0  0  0  0  0  0  0  0  0  0  0
   -5.2954    0.5129   -0.4146 H   0  0  0  0  0  0  0  0  0  0  0  0
   -4.5883    2.1116   -0.4058 H   0  0  0  0  0  0  0  0  0  0  0  0
   -5.1682    3.6215    1.3368 H   0  0  0  0  0  0  0  0  0  0  0  0
   -6.3503    4.0851    3.4524 H   0  0  0  0  0  0  0  0  0  0  0  0
   -7.2544    2.2188    4.8137 H   0  0  0  0  0  0  0  0  0  0  0  0
   -6.9787   -0.1239    4.0452 H   0  0  0  0  0  0  0  0  0  0  0  0
   -5.8106   -0.6073    1.9267 H   0  0  0  0  0  0  0  0  0  0  0  0
   -2.7388    1.7619    2.0443 H   0  0  0  0  0  0  0  0  0  0  0  0
    1.2385    1.1571    3.4785 H   0  0  0  0  0  0  0  0  0  0  0  0
    2.7563   -1.6988    0.4987 H   0  0  0  0  0  0  0  0  0  0  0  0
    3.3340   -1.5079   -1.1434 H   0  0  0  0  0  0  0  0  0  0  0  0
    3.9818    0.3500    1.2133 H   0  0  0  0  0  0  0  0  0  0  0  0
    5.0527   -0.7274    0.3226 H   0  0  0  0  0  0  0  0  0  0  0  0
    4.8287    3.6653    0.0067 H   0  0  0  0  0  0  0  0  0  0  0  0
    6.9794    4.7463    0.4167 H   0  0  0  0  0  0  0  0  0  0  0  0
    9.0974    3.4711    0.1990 H   0  0  0  0  0  0  0  0  0  0  0  0
    9.0270    1.0793   -0.4652 H   0  0  0  0  0  0  0  0  0  0  0  0
    6.8728   -0.0166   -0.9137 H   0  0  0  0  0  0  0  0  0  0  0  0
    3.4606    2.6280   -1.7331 H   0  0  0  0  0  0  0  0  0  0  0  0
    2.9114    2.3431   -0.0649 H   0  0  0  0  0  0  0  0  0  0  0  0
    2.4405    0.5557   -2.5170 H   0  0  0  0  0  0  0  0  0  0  0  0
    1.2321    1.5795   -1.7573 H   0  0  0  0  0  0  0  0  0  0  0  0
    0.4959   -2.6487   -0.4302 H   0  0  0  0  0  0  0  0  0  0  0  0
   -0.0013   -5.0343   -0.1574 H   0  0  0  0  0  0  0  0  0  0  0  0
  1  2  1  0
  2  3  2  0
  3  4  1  0
  4  5  2  0
  5  6  1  0
  6  7  1  0
  7  8  1  0
  8  9  2  0
  8 10  1  0
 10 11  1  0
 11 12  1  0
 12 13  2  0
 13 14  1  0
 14 15  2  0
 15 16  1  0
 16 17  2  0
 10 18  1  0
 18 19  1  0
 19 20  2  0
 20 21  1  0
 21 22  2  0
 22 23  1  0
 23 24  1  0
 24 25  1  0
 25 26  1  0
 26 27  1  0
 27 28  1  0
 28 29  2  0
 29 30  1  0
 30 31  2  0
 31 32  1  0
 32 33  2  0
 27 34  1  0
 34 35  1  0
 23 36  2  0
  5 37  1  0
 37 38  2  0
 38  2  1  0
 36  7  1  0
 17 12  1  0
 36 19  1  0
 35 24  1  0
 33 28  1  0
  1 39  1  0
  1 40  1  0
  1 41  1  0
  3 42  1  0
  4 43  1  0
  6 44  1  0
  6 45  1  0
 10 46  1  0
 11 47  1  0
 11 48  1  0
 13 49  1  0
 14 50  1  0
 15 51  1  0
 16 52  1  0
 17 53  1  0
 18 54  1  0
 21 55  1  0
 25 56  1  0
 25 57  1  0
 26 58  1  0
 26 59  1  0
 29 60  1  0
 30 61  1  0
 31 62  1  0
 32 63  1  0
 33 64  1  0
 34 65  1  0
 34 66  1  0
 35 67  1  0
 35 68  1  0
 37 69  1  0
 38 70  1  0
M  END
$$$$
