
     RDKit          3D

 46 48  0  0  0  0  0  0  0  0999 V2000
    4.9754    0.9694   -1.8614 C   0  0  0  0  0  0  0  0  0  0  0  0
    5.1273   -0.4925   -1.4508 C   0  0  0  0  0  0  0  0  0  0  0  0
    3.8220   -1.2894   -1.6081 C   0  0  0  0  0  0  0  0  0  0  0  0
    2.9144   -1.0779   -0.4843 N   0  0  0  0  0  0  0  0  0  0  0  0
    1.5444   -1.2581   -0.7120 C   0  0  0  0  0  0  0  0  0  0  0  0
    1.1311   -1.6741   -1.7961 O   0  0  0  0  0  0  0  0  0  0  0  0
    0.5852   -0.9123    0.3481 C   0  0  0  0  0  0  0  0  0  0  0  0
   -0.7577   -1.3677    0.4397 C   0  0  0  0  0  0  0  0  0  0  0  0
   -1.2713   -0.7387    1.5464 C   0  0  0  0  0  0  0  0  0  0  0  0
   -2.5821   -0.7364    2.2336 C   0  0  0  0  0  0  0  0  0  0  0  0
   -3.6185   -0.9681    1.2753 O   0  0  0  0  0  0  0  0  0  0  0  0
   -4.1768    0.1118    0.6487 C   0  0  0  0  0  0  0  0  0  0  0  0
   -3.6649    1.4087    0.6291 C   0  0  0  0  0  0  0  0  0  0  0  0
   -4.3338    2.4167   -0.0704 C   0  0  0  0  0  0  0  0  0  0  0  0
   -5.5150    2.1337   -0.7558 C   0  0  0  0  0  0  0  0  0  0  0  0
   -6.0429    0.8359   -0.7483 C   0  0  0  0  0  0  0  0  0  0  0  0
   -7.3027    0.5095   -1.5090 C   0  0  0  0  0  0  0  0  0  0  0  0
   -7.0471    0.0628   -2.7692 F   0  0  0  0  0  0  0  0  0  0  0  0
   -8.0509   -0.4604   -0.9122 F   0  0  0  0  0  0  0  0  0  0  0  0
   -8.1338    1.5799   -1.6533 F   0  0  0  0  0  0  0  0  0  0  0  0
   -5.3552   -0.1693   -0.0494 C   0  0  0  0  0  0  0  0  0  0  0  0
   -0.3094    0.0528    2.0885 O   0  0  0  0  0  0  0  0  0  0  0  0
    0.8428   -0.0335    1.3335 N   0  0  0  0  0  0  0  0  0  0  0  0
    3.5505   -1.3209    0.8126 C   0  0  0  0  0  0  0  0  0  0  0  0
    4.8384   -0.5014    0.9757 C   0  0  0  0  0  0  0  0  0  0  0  0
    4.5677    0.9542    1.3420 C   0  0  0  0  0  0  0  0  0  0  0  0
    5.7209   -0.6291   -0.1502 O   0  0  0  0  0  0  0  0  0  0  0  0
    4.1025    1.4398   -1.4034 H   0  0  0  0  0  0  0  0  0  0  0  0
    4.8448    1.0489   -2.9460 H   0  0  0  0  0  0  0  0  0  0  0  0
    5.8575    1.5497   -1.5728 H   0  0  0  0  0  0  0  0  0  0  0  0
    5.8590   -0.9255   -2.1440 H   0  0  0  0  0  0  0  0  0  0  0  0
    4.0459   -2.3636   -1.6283 H   0  0  0  0  0  0  0  0  0  0  0  0
    3.3334   -1.0390   -2.5564 H   0  0  0  0  0  0  0  0  0  0  0  0
   -1.2705   -2.0480   -0.2251 H   0  0  0  0  0  0  0  0  0  0  0  0
   -2.7598    0.1690    2.8249 H   0  0  0  0  0  0  0  0  0  0  0  0
   -2.6084   -1.5762    2.9371 H   0  0  0  0  0  0  0  0  0  0  0  0
   -2.7380    1.6716    1.1290 H   0  0  0  0  0  0  0  0  0  0  0  0
   -3.9256    3.4250   -0.0871 H   0  0  0  0  0  0  0  0  0  0  0  0
   -6.0205    2.9299   -1.3007 H   0  0  0  0  0  0  0  0  0  0  0  0
   -5.7438   -1.1873   -0.0445 H   0  0  0  0  0  0  0  0  0  0  0  0
    2.8822   -1.1695    1.6596 H   0  0  0  0  0  0  0  0  0  0  0  0
    3.8045   -2.3894    0.8190 H   0  0  0  0  0  0  0  0  0  0  0  0
    5.3936   -0.9292    1.8195 H   0  0  0  0  0  0  0  0  0  0  0  0
    5.4839    1.5496    1.2770 H   0  0  0  0  0  0  0  0  0  0  0  0
    3.8239    1.4151    0.6884 H   0  0  0  0  0  0  0  0  0  0  0  0
    4.1774    1.0236    2.3631 H   0  0  0  0  0  0  0  0  0  0  0  0
  1  2  1  0
  2  3  1  0
  3  4  1  0
  4  5  1  0
  5  6  2  0
  5  7  1  0
  7  8  1  0
  8  9  2  0
  9 10  1  0
 10 11  1  0
 11 12  1  0
 12 13  2  0
 13 14  1  0
 14 15  2  0
 15 16  1  0
 16 17  1  0
 17 18  1  0
 17 19  1  0
 17 20  1  0
 16 21  2  0
  9 22  1  0
 22 23  1  0
  4 24  1  0
 24 25  1  0
 25 26  1  0
 25 27  1  0
 27  2  1  0
 23  7  2  0
 21 12  1  0
  1 28  1  0
  1 29  1  0
  1 30  1  0
  2 31  1  0
  3 32  1  0
  3 33  1  0
  8 34  1  0
 10 35  1  0
 10 36  1  0
 13 37  1  0
 14 38  1  0
 15 39  1  0
 21 40  1  0
 24 41  1  0
 24 42  1  0
 25 43  1  0
 26 44  1  0
 26 45  1  0
 26 46  1  0
M  END
$$$$
