
     RDKit          3D

 66 70  0  0  0  0  0  0  0  0999 V2000
    4.1430    0.4092   -1.1643 C   0  0  0  0  0  0  0  0  0  0  0  0
    3.7913    0.8416    0.2123 C   0  0  0  0  0  0  0  0  0  0  0  0
    2.6428    0.5497    0.9275 C   0  0  0  0  0  0  0  0  0  0  0  0
    1.4567   -0.2909    0.5513 C   0  0  0  0  0  0  0  0  0  0  0  0
    0.3322    0.5368   -0.0741 C   0  0  0  0  0  0  0  0  0  0  0  0
   -0.7707   -0.3014   -0.4495 O   0  0  0  0  0  0  0  0  0  0  0  0
   -1.6071   -0.6457    0.5718 C   0  0  0  0  0  0  0  0  0  0  0  0
   -1.4361   -0.3290    1.7398 O   0  0  0  0  0  0  0  0  0  0  0  0
   -2.7676   -1.4644    0.0605 C   0  0  0  0  0  0  0  0  0  0  0  0
   -4.0574   -0.6567   -0.1818 C   0  0  0  0  0  0  0  0  0  0  0  0
   -3.8349    0.4898   -1.1998 C   0  0  0  0  0  0  0  0  0  0  0  0
   -5.1486    1.2470   -1.4602 C   0  0  0  0  0  0  0  0  0  0  0  0
   -5.6660    1.8341   -0.1376 C   0  0  0  0  0  0  0  0  0  0  0  0
   -5.9223    0.7060    0.8747 C   0  0  0  0  0  0  0  0  0  0  0  0
   -6.9661   -0.2652    0.3015 C   0  0  0  0  0  0  0  0  0  0  0  0
   -6.4643   -0.8710   -1.0285 C   0  0  0  0  0  0  0  0  0  0  0  0
   -7.5081   -1.8362   -1.5985 C   0  0  0  0  0  0  0  0  0  0  0  0
   -6.1939    0.2752   -2.0289 C   0  0  0  0  0  0  0  0  0  0  0  0
   -5.1356   -1.6142   -0.7605 C   0  0  0  0  0  0  0  0  0  0  0  0
   -4.6082   -0.0509    1.1335 C   0  0  0  0  0  0  0  0  0  0  0  0
    2.7023    1.3031    2.4720 S   0  0  0  0  0  0  0  0  0  0  0  0
    4.2404    1.9693    2.1545 C   0  0  0  0  0  0  0  0  0  0  0  0
    4.6794    1.6204    0.9552 N   0  0  0  0  0  4  0  0  0  0  0  0
    5.9994    2.0727    0.4910 C   0  0  0  0  0  0  0  0  0  0  0  0
    6.9870    0.9244    0.4591 C   0  0  0  0  0  0  0  0  0  0  0  0
    7.1818    0.0899    1.5752 C   0  0  0  0  0  0  0  0  0  0  0  0
    8.1086   -0.9578    1.5317 C   0  0  0  0  0  0  0  0  0  0  0  0
    8.8599   -1.1727    0.3701 C   0  0  0  0  0  0  0  0  0  0  0  0
    9.8330   -2.2725    0.3218 N   0  0  0  0  0  4  0  0  0  0  0  0
   10.0619   -2.8795    1.3773 O   0  0  0  0  0  0  0  0  0  0  0  0
   10.3543   -2.5251   -0.7724 O   0  0  0  0  0  1  0  0  0  0  0  0
    8.6930   -0.3405   -0.7424 C   0  0  0  0  0  0  0  0  0  0  0  0
    7.7652    0.7054   -0.6923 C   0  0  0  0  0  0  0  0  0  0  0  0
    4.8760   -0.4020   -1.1372 H   0  0  0  0  0  0  0  0  0  0  0  0
    4.5442    1.2369   -1.7557 H   0  0  0  0  0  0  0  0  0  0  0  0
    3.2617    0.0398   -1.6995 H   0  0  0  0  0  0  0  0  0  0  0  0
    1.0890   -0.8380    1.4282 H   0  0  0  0  0  0  0  0  0  0  0  0
    1.7614   -1.0743   -0.1541 H   0  0  0  0  0  0  0  0  0  0  0  0
    0.6894    1.0177   -0.9924 H   0  0  0  0  0  0  0  0  0  0  0  0
   -0.0069    1.3449    0.5866 H   0  0  0  0  0  0  0  0  0  0  0  0
   -2.4516   -1.9702   -0.8621 H   0  0  0  0  0  0  0  0  0  0  0  0
   -2.9428   -2.2679    0.7882 H   0  0  0  0  0  0  0  0  0  0  0  0
   -3.4450    0.0878   -2.1439 H   0  0  0  0  0  0  0  0  0  0  0  0
   -3.0869    1.1992   -0.8252 H   0  0  0  0  0  0  0  0  0  0  0  0
   -4.9704    2.0564   -2.1772 H   0  0  0  0  0  0  0  0  0  0  0  0
   -6.5905    2.3979   -0.3136 H   0  0  0  0  0  0  0  0  0  0  0  0
   -4.9340    2.5430    0.2687 H   0  0  0  0  0  0  0  0  0  0  0  0
   -6.2919    1.1312    1.8147 H   0  0  0  0  0  0  0  0  0  0  0  0
   -7.9153    0.2635    0.1435 H   0  0  0  0  0  0  0  0  0  0  0  0
   -7.1665   -1.0617    1.0301 H   0  0  0  0  0  0  0  0  0  0  0  0
   -7.7124   -2.6554   -0.8989 H   0  0  0  0  0  0  0  0  0  0  0  0
   -8.4558   -1.3218   -1.7969 H   0  0  0  0  0  0  0  0  0  0  0  0
   -7.1651   -2.2793   -2.5408 H   0  0  0  0  0  0  0  0  0  0  0  0
   -5.8379   -0.1305   -2.9850 H   0  0  0  0  0  0  0  0  0  0  0  0
   -7.1232    0.8186   -2.2425 H   0  0  0  0  0  0  0  0  0  0  0  0
   -4.7692   -2.0646   -1.6931 H   0  0  0  0  0  0  0  0  0  0  0  0
   -5.3085   -2.4442   -0.0621 H   0  0  0  0  0  0  0  0  0  0  0  0
   -3.8817    0.6423    1.5733 H   0  0  0  0  0  0  0  0  0  0  0  0
   -4.7777   -0.8429    1.8747 H   0  0  0  0  0  0  0  0  0  0  0  0
    4.7800    2.5854    2.8652 H   0  0  0  0  0  0  0  0  0  0  0  0
    6.3882    2.8566    1.1529 H   0  0  0  0  0  0  0  0  0  0  0  0
    5.8814    2.5300   -0.4979 H   0  0  0  0  0  0  0  0  0  0  0  0
    6.6261    0.2355    2.5002 H   0  0  0  0  0  0  0  0  0  0  0  0
    8.2388   -1.5929    2.4083 H   0  0  0  0  0  0  0  0  0  0  0  0
    9.2826   -0.4887   -1.6469 H   0  0  0  0  0  0  0  0  0  0  0  0
    7.6689    1.3466   -1.5687 H   0  0  0  0  0  0  0  0  0  0  0  0
  1  2  1  0
  2  3  2  0
  3  4  1  0
  4  5  1  0
  5  6  1  0
  6  7  1  0
  7  8  2  0
  7  9  1  0
  9 10  1  0
 10 11  1  0
 11 12  1  0
 12 13  1  0
 13 14  1  0
 14 15  1  0
 15 16  1  0
 16 17  1  0
 16 18  1  0
 16 19  1  0
 14 20  1  0
  3 21  1  0
 21 22  1  0
 22 23  2  0
 23 24  1  0
 24 25  1  0
 25 26  2  0
 26 27  1  0
 27 28  2  0
 28 29  1  0
 29 30  2  0
 29 31  1  0
 28 32  1  0
 32 33  2  0
 23  2  1  0
 33 25  1  0
 19 10  1  0
 20 10  1  0
 18 12  1  0
  1 34  1  0
  1 35  1  0
  1 36  1  0
  4 37  1  0
  4 38  1  0
  5 39  1  0
  5 40  1  0
  9 41  1  0
  9 42  1  0
 11 43  1  0
 11 44  1  0
 12 45  1  0
 13 46  1  0
 13 47  1  0
 14 48  1  0
 15 49  1  0
 15 50  1  0
 17 51  1  0
 17 52  1  0
 17 53  1  0
 18 54  1  0
 18 55  1  0
 19 56  1  0
 19 57  1  0
 20 58  1  0
 20 59  1  0
 22 60  1  0
 24 61  1  0
 24 62  1  0
 26 63  1  0
 27 64  1  0
 32 65  1  0
 33 66  1  0
M  CHG  3  23   1  29   1  31  -1
M  END
$$$$
