
     RDKit          3D

 42 44  0  0  0  0  0  0  0  0999 V2000
    1.6026    4.2765    1.2105 C   0  0  0  0  0  0  0  0  0  0  0  0
   -0.0128    3.9032    0.4788 S   0  0  0  0  0  0  0  0  0  0  0  0
    0.0921    2.1152    0.3414 C   0  0  0  0  0  0  0  0  0  0  0  0
    1.3405    1.6158    0.2773 N   0  0  0  0  0  0  0  0  0  0  0  0
    1.4541    0.2936    0.1033 C   0  0  0  0  0  0  0  0  0  0  0  0
    2.8105   -0.2835    0.0194 C   0  0  0  0  0  0  0  0  0  0  0  0
    3.9601    0.5308    0.0303 C   0  0  0  0  0  0  0  0  0  0  0  0
    5.2454   -0.0155   -0.0501 C   0  0  0  0  0  0  0  0  0  0  0  0
    5.4121   -1.3936   -0.1429 C   0  0  0  0  0  0  0  0  0  0  0  0
    4.2963   -2.2247   -0.1550 C   0  0  0  0  0  0  0  0  0  0  0  0
    3.0127   -1.6746   -0.0749 C   0  0  0  0  0  0  0  0  0  0  0  0
    0.4060   -0.5401   -0.0112 N   0  0  0  0  0  0  0  0  0  0  0  0
   -0.8501   -0.0510    0.0771 C   0  0  0  0  0  0  0  0  0  0  0  0
   -1.8358   -1.0149    0.0105 N   0  0  0  0  0  0  0  0  0  0  0  0
   -3.1656   -0.8762    0.6180 C   0  0  0  0  0  0  0  0  0  0  0  0
   -3.7780   -2.2641    0.8720 C   0  0  0  0  0  0  0  0  0  0  0  0
   -3.8013   -3.0564   -0.3261 O   0  0  0  0  0  0  0  0  0  0  0  0
   -2.4617   -3.2608   -0.8018 C   0  0  0  0  0  0  0  0  0  0  0  0
   -1.7766   -1.9296   -1.1431 C   0  0  0  0  0  0  0  0  0  0  0  0
   -1.0383    1.3146    0.2412 C   0  0  0  0  0  0  0  0  0  0  0  0
   -2.3626    1.9399    0.1739 C   0  0  0  0  0  0  0  0  0  0  0  0
   -2.8753    2.3084   -1.1933 C   0  0  0  0  0  0  0  0  0  0  0  0
   -3.0006    2.1412    1.2023 O   0  0  0  0  0  0  0  0  0  0  0  0
    2.4100    4.0481    0.5093 H   0  0  0  0  0  0  0  0  0  0  0  0
    1.6469    5.3436    1.4452 H   0  0  0  0  0  0  0  0  0  0  0  0
    1.7477    3.7142    2.1372 H   0  0  0  0  0  0  0  0  0  0  0  0
    3.8609    1.6128    0.1011 H   0  0  0  0  0  0  0  0  0  0  0  0
    6.1136    0.6385   -0.0397 H   0  0  0  0  0  0  0  0  0  0  0  0
    6.4101   -1.8196   -0.2044 H   0  0  0  0  0  0  0  0  0  0  0  0
    4.4202   -3.3023   -0.2249 H   0  0  0  0  0  0  0  0  0  0  0  0
    2.1575   -2.3492   -0.0825 H   0  0  0  0  0  0  0  0  0  0  0  0
   -3.8222   -0.3244   -0.0630 H   0  0  0  0  0  0  0  0  0  0  0  0
   -3.1087   -0.3566    1.5797 H   0  0  0  0  0  0  0  0  0  0  0  0
   -4.8103   -2.1559    1.2196 H   0  0  0  0  0  0  0  0  0  0  0  0
   -3.2203   -2.8044    1.6465 H   0  0  0  0  0  0  0  0  0  0  0  0
   -2.5197   -3.8883   -1.6968 H   0  0  0  0  0  0  0  0  0  0  0  0
   -1.8931   -3.8128   -0.0436 H   0  0  0  0  0  0  0  0  0  0  0  0
   -2.3000   -1.4561   -1.9832 H   0  0  0  0  0  0  0  0  0  0  0  0
   -0.7512   -2.1427   -1.4657 H   0  0  0  0  0  0  0  0  0  0  0  0
   -3.0121    3.3916   -1.2465 H   0  0  0  0  0  0  0  0  0  0  0  0
   -3.8286    1.8035   -1.3694 H   0  0  0  0  0  0  0  0  0  0  0  0
   -2.1744    2.0055   -1.9764 H   0  0  0  0  0  0  0  0  0  0  0  0
  1  2  1  0
  2  3  1  0
  3  4  2  0
  4  5  1  0
  5  6  1  0
  6  7  2  0
  7  8  1  0
  8  9  2  0
  9 10  1  0
 10 11  2  0
  5 12  2  0
 12 13  1  0
 13 14  1  0
 14 15  1  0
 15 16  1  0
 16 17  1  0
 17 18  1  0
 18 19  1  0
 13 20  2  0
 20 21  1  0
 21 22  1  0
 21 23  2  0
 20  3  1  0
 11  6  1  0
 19 14  1  0
  1 24  1  0
  1 25  1  0
  1 26  1  0
  7 27  1  0
  8 28  1  0
  9 29  1  0
 10 30  1  0
 11 31  1  0
 15 32  1  0
 15 33  1  0
 16 34  1  0
 16 35  1  0
 18 36  1  0
 18 37  1  0
 19 38  1  0
 19 39  1  0
 22 40  1  0
 22 41  1  0
 22 42  1  0
M  END
$$$$
