
     RDKit          3D

 43 45  0  0  0  0  0  0  0  0999 V2000
   -1.0757   -3.7475    0.4809 C   0  0  0  0  0  0  0  0  0  0  0  0
   -0.1988   -3.0889   -0.5516 C   0  0  0  0  0  0  0  0  0  0  0  0
   -0.2000   -3.4507   -1.7277 O   0  0  0  0  0  0  0  0  0  0  0  0
    0.6593   -1.9701   -0.0964 C   0  0  0  0  0  0  0  0  0  0  0  0
    0.1699   -0.7083   -0.1031 C   0  0  0  0  0  0  0  0  0  0  0  0
   -1.0715   -0.2927   -0.5868 N   0  0  0  0  0  0  0  0  0  0  0  0
   -2.1035    0.2187    0.3422 C   0  0  0  0  0  0  0  0  0  0  0  0
   -2.9950    1.2803   -0.3409 C   0  0  0  0  0  0  0  0  0  0  0  0
   -3.5883    0.8778   -1.6328 N   0  0  0  0  0  0  0  0  0  0  0  0
   -4.6683   -0.0908   -1.4550 C   0  0  0  0  0  0  0  0  0  0  0  0
   -2.5214    0.3485   -2.5119 C   0  0  0  0  0  0  0  0  0  0  0  0
   -1.6277   -0.7466   -1.8829 C   0  0  0  0  0  0  0  0  0  0  0  0
    0.9733    0.2803    0.4156 N   0  0  0  0  0  0  0  0  0  0  0  0
    2.2714    0.0668    0.7937 C   0  0  0  0  0  0  0  0  0  0  0  0
    3.1328    1.2302    1.1768 C   0  0  0  0  0  0  0  0  0  0  0  0
    2.5679    2.4384    1.6060 C   0  0  0  0  0  0  0  0  0  0  0  0
    3.3922    3.5123    1.9525 C   0  0  0  0  0  0  0  0  0  0  0  0
    4.7787    3.3837    1.8766 C   0  0  0  0  0  0  0  0  0  0  0  0
    5.3463    2.1804    1.4607 C   0  0  0  0  0  0  0  0  0  0  0  0
    4.5266    1.1046    1.1144 C   0  0  0  0  0  0  0  0  0  0  0  0
    2.7927   -1.1223    0.8256 N   0  0  0  0  0  0  0  0  0  0  0  0
    2.0265   -2.2219    0.4824 C   0  0  0  0  0  0  0  0  0  0  0  0
    2.6574   -3.7769    0.7284 S   0  0  0  0  0  0  0  0  0  0  0  0
   -0.8456   -4.8153    0.5221 H   0  0  0  0  0  0  0  0  0  0  0  0
   -2.1239   -3.5998    0.2078 H   0  0  0  0  0  0  0  0  0  0  0  0
   -0.9111   -3.3171    1.4727 H   0  0  0  0  0  0  0  0  0  0  0  0
   -2.7112   -0.6212    0.6994 H   0  0  0  0  0  0  0  0  0  0  0  0
   -1.6367    0.6749    1.2237 H   0  0  0  0  0  0  0  0  0  0  0  0
   -2.3839    2.1745   -0.5232 H   0  0  0  0  0  0  0  0  0  0  0  0
   -3.7831    1.5989    0.3524 H   0  0  0  0  0  0  0  0  0  0  0  0
   -5.4682    0.3412   -0.8434 H   0  0  0  0  0  0  0  0  0  0  0  0
   -5.1178   -0.3412   -2.4223 H   0  0  0  0  0  0  0  0  0  0  0  0
   -4.3436   -1.0217   -0.9797 H   0  0  0  0  0  0  0  0  0  0  0  0
   -1.8809    1.1931   -2.7991 H   0  0  0  0  0  0  0  0  0  0  0  0
   -2.9557   -0.0243   -3.4476 H   0  0  0  0  0  0  0  0  0  0  0  0
   -2.2131   -1.6610   -1.7383 H   0  0  0  0  0  0  0  0  0  0  0  0
   -0.8152   -0.9656   -2.5856 H   0  0  0  0  0  0  0  0  0  0  0  0
    0.6697    1.2084    0.1508 H   0  0  0  0  0  0  0  0  0  0  0  0
    1.4935    2.5572    1.7031 H   0  0  0  0  0  0  0  0  0  0  0  0
    2.9541    4.4484    2.2903 H   0  0  0  0  0  0  0  0  0  0  0  0
    5.4188    4.2194    2.1490 H   0  0  0  0  0  0  0  0  0  0  0  0
    6.4273    2.0762    1.4079 H   0  0  0  0  0  0  0  0  0  0  0  0
    4.9817    0.1698    0.7930 H   0  0  0  0  0  0  0  0  0  0  0  0
  1  2  1  0
  2  3  2  0
  2  4  1  0
  4  5  2  0
  5  6  1  0
  6  7  1  0
  7  8  1  0
  8  9  1  0
  9 10  1  0
  9 11  1  0
 11 12  1  0
  5 13  1  0
 13 14  1  0
 14 15  1  0
 15 16  2  0
 16 17  1  0
 17 18  2  0
 18 19  1  0
 19 20  2  0
 14 21  2  0
 21 22  1  0
 22 23  2  0
 22  4  1  0
 12  6  1  0
 20 15  1  0
  1 24  1  0
  1 25  1  0
  1 26  1  0
  7 27  1  0
  7 28  1  0
  8 29  1  0
  8 30  1  0
 10 31  1  0
 10 32  1  0
 10 33  1  0
 11 34  1  0
 11 35  1  0
 12 36  1  0
 12 37  1  0
 13 38  1  0
 16 39  1  0
 17 40  1  0
 18 41  1  0
 19 42  1  0
 20 43  1  0
M  END
$$$$
