
     RDKit          3D

 47 49  0  0  0  0  0  0  0  0999 V2000
    4.4776    1.4325    2.9331 C   0  0  0  0  0  0  0  0  0  0  0  0
    3.8526    0.9733    1.7407 O   0  0  0  0  0  0  0  0  0  0  0  0
    4.6174    0.9742    0.5957 C   0  0  0  0  0  0  0  0  0  0  0  0
    5.9279    1.4544    0.5092 C   0  0  0  0  0  0  0  0  0  0  0  0
    6.6113    1.4116   -0.7081 C   0  0  0  0  0  0  0  0  0  0  0  0
    5.9896    0.8946   -1.8417 C   0  0  0  0  0  0  0  0  0  0  0  0
    4.6810    0.4145   -1.7661 C   0  0  0  0  0  0  0  0  0  0  0  0
    3.9905    0.4432   -0.5524 C   0  0  0  0  0  0  0  0  0  0  0  0
    2.6613   -0.0117   -0.4065 N   0  0  0  0  0  0  0  0  0  0  0  0
    1.9255   -0.7770   -1.2785 C   0  0  0  0  0  0  0  0  0  0  0  0
    2.3707   -1.3112   -2.2909 O   0  0  0  0  0  0  0  0  0  0  0  0
    0.5810   -0.9283   -0.8939 N   0  0  0  0  0  0  0  0  0  0  0  0
   -0.2201   -1.8091   -1.7418 C   0  0  0  0  0  0  0  0  0  0  0  0
   -1.4740   -2.3053   -1.0322 C   0  0  0  0  0  0  0  0  0  0  0  0
   -2.2954   -1.1316   -0.4816 C   0  0  0  0  0  0  0  0  0  0  0  0
   -3.5223   -1.6360    0.2739 C   0  0  0  0  0  0  0  0  0  0  0  0
   -3.5465   -2.7550    0.7855 O   0  0  0  0  0  0  0  0  0  0  0  0
   -4.7254   -0.7536    0.4246 C   0  0  0  0  0  0  0  0  0  0  0  0
   -5.8347   -1.2671    1.1190 C   0  0  0  0  0  0  0  0  0  0  0  0
   -6.9857   -0.4952    1.2933 C   0  0  0  0  0  0  0  0  0  0  0  0
   -7.0297    0.7912    0.7738 C   0  0  0  0  0  0  0  0  0  0  0  0
   -8.1308    1.5346    0.9391 F   0  0  0  0  0  0  0  0  0  0  0  0
   -5.9445    1.3188    0.0841 C   0  0  0  0  0  0  0  0  0  0  0  0
   -4.7900    0.5485   -0.0923 C   0  0  0  0  0  0  0  0  0  0  0  0
   -1.4116   -0.2957    0.4477 C   0  0  0  0  0  0  0  0  0  0  0  0
   -0.1496    0.1757   -0.2674 C   0  0  0  0  0  0  0  0  0  0  0  0
    4.7486    2.4903    2.8531 H   0  0  0  0  0  0  0  0  0  0  0  0
    5.3468    0.8170    3.1875 H   0  0  0  0  0  0  0  0  0  0  0  0
    3.7528    1.3365    3.7472 H   0  0  0  0  0  0  0  0  0  0  0  0
    6.4466    1.8691    1.3665 H   0  0  0  0  0  0  0  0  0  0  0  0
    7.6308    1.7840   -0.7726 H   0  0  0  0  0  0  0  0  0  0  0  0
    6.5206    0.8634   -2.7899 H   0  0  0  0  0  0  0  0  0  0  0  0
    4.2208    0.0278   -2.6703 H   0  0  0  0  0  0  0  0  0  0  0  0
    2.3287    0.0205    0.5478 H   0  0  0  0  0  0  0  0  0  0  0  0
    0.3810   -2.6718   -2.0516 H   0  0  0  0  0  0  0  0  0  0  0  0
   -0.4841   -1.2506   -2.6485 H   0  0  0  0  0  0  0  0  0  0  0  0
   -1.1789   -2.9759   -0.2142 H   0  0  0  0  0  0  0  0  0  0  0  0
   -2.0810   -2.9012   -1.7242 H   0  0  0  0  0  0  0  0  0  0  0  0
   -2.6222   -0.5379   -1.3427 H   0  0  0  0  0  0  0  0  0  0  0  0
   -5.8079   -2.2759    1.5293 H   0  0  0  0  0  0  0  0  0  0  0  0
   -7.8427   -0.8913    1.8292 H   0  0  0  0  0  0  0  0  0  0  0  0
   -6.0045    2.3282   -0.3124 H   0  0  0  0  0  0  0  0  0  0  0  0
   -3.9630    0.9960   -0.6336 H   0  0  0  0  0  0  0  0  0  0  0  0
   -1.1301   -0.8938    1.3245 H   0  0  0  0  0  0  0  0  0  0  0  0
   -1.9581    0.5733    0.8303 H   0  0  0  0  0  0  0  0  0  0  0  0
    0.4766    0.7208    0.4432 H   0  0  0  0  0  0  0  0  0  0  0  0
   -0.4069    0.8843   -1.0649 H   0  0  0  0  0  0  0  0  0  0  0  0
  1  2  1  0
  2  3  1  0
  3  4  2  0
  4  5  1  0
  5  6  2  0
  6  7  1  0
  7  8  2  0
  8  9  1  0
  9 10  1  0
 10 11  2  0
 10 12  1  0
 12 13  1  0
 13 14  1  0
 14 15  1  0
 15 16  1  0
 16 17  2  0
 16 18  1  0
 18 19  2  0
 19 20  1  0
 20 21  2  0
 21 22  1  0
 21 23  1  0
 23 24  2  0
 15 25  1  0
 25 26  1  0
  8  3  1  0
 26 12  1  0
 24 18  1  0
  1 27  1  0
  1 28  1  0
  1 29  1  0
  4 30  1  0
  5 31  1  0
  6 32  1  0
  7 33  1  0
  9 34  1  0
 13 35  1  0
 13 36  1  0
 14 37  1  0
 14 38  1  0
 15 39  1  0
 19 40  1  0
 20 41  1  0
 23 42  1  0
 24 43  1  0
 25 44  1  0
 25 45  1  0
 26 46  1  0
 26 47  1  0
M  END
$$$$
