
     RDKit          3D

 48 50  0  0  0  0  0  0  0  0999 V2000
   -0.4743   -2.5332    0.2527 C   0  0  0  0  0  0  0  0  0  0  0  0
   -0.1330   -1.2688   -0.0351 C   0  0  0  0  0  0  0  0  0  0  0  0
    1.2476   -0.7595   -0.2095 C   0  0  0  0  0  0  0  0  0  0  0  0
    2.3830   -1.4598   -0.0381 C   0  0  0  0  0  0  0  0  0  0  0  0
    3.6828   -0.9160   -0.2387 C   0  0  0  0  0  0  0  0  0  0  0  0
    4.8340   -0.9713    1.0495 S   0  0  0  0  0  0  0  0  0  0  0  0
    5.9741   -0.1878    0.0523 C   0  0  0  0  0  0  0  0  0  0  0  0
    7.1707    0.0485    0.6702 N   0  0  0  0  0  0  0  0  0  0  0  0
    8.2240    0.6698    0.0390 C   0  0  0  0  0  0  0  0  0  0  0  0
    9.4235    0.8019    0.9447 C   0  0  0  0  0  0  0  0  0  0  0  0
    8.2717    1.0724   -1.1165 O   0  0  0  0  0  0  0  0  0  0  0  0
    5.5904    0.0913   -1.1620 N   0  0  0  0  0  0  0  0  0  0  0  0
    4.2974   -0.3345   -1.3423 C   0  0  0  0  0  0  0  0  0  0  0  0
    3.6826   -0.1950   -2.5329 O   0  0  0  0  0  0  0  0  0  0  0  0
    1.1433    0.6521   -0.5723 C   0  0  0  0  0  0  0  0  0  0  0  0
   -0.1687    0.9591   -0.6158 C   0  0  0  0  0  0  0  0  0  0  0  0
   -0.7130    2.3242   -0.8740 C   0  0  0  0  0  0  0  0  0  0  0  0
   -0.9614   -0.1649   -0.3007 N   0  0  0  0  0  0  0  0  0  0  0  0
   -2.3713   -0.1427   -0.1637 C   0  0  0  0  0  0  0  0  0  0  0  0
   -2.9868   -0.5031    1.0420 C   0  0  0  0  0  0  0  0  0  0  0  0
   -4.3800   -0.4758    1.1766 C   0  0  0  0  0  0  0  0  0  0  0  0
   -5.1935   -0.0884    0.1059 C   0  0  0  0  0  0  0  0  0  0  0  0
   -6.5868   -0.0901    0.3213 N   0  0  0  0  0  0  0  0  0  0  0  0
   -7.5780    0.2646   -0.5761 C   0  0  0  0  0  0  0  0  0  0  0  0
   -8.9586    0.1313    0.0172 C   0  0  0  0  0  0  0  0  0  0  0  0
   -7.4262    0.6743   -1.7213 O   0  0  0  0  0  0  0  0  0  0  0  0
   -4.5891    0.2691   -1.0984 C   0  0  0  0  0  0  0  0  0  0  0  0
   -3.1941    0.2427   -1.2293 C   0  0  0  0  0  0  0  0  0  0  0  0
    0.2541   -3.3176    0.4132 H   0  0  0  0  0  0  0  0  0  0  0  0
   -1.5157   -2.8301    0.3141 H   0  0  0  0  0  0  0  0  0  0  0  0
    2.3423   -2.4933    0.2935 H   0  0  0  0  0  0  0  0  0  0  0  0
    7.2508   -0.2565    1.6277 H   0  0  0  0  0  0  0  0  0  0  0  0
   10.0437    1.6376    0.6070 H   0  0  0  0  0  0  0  0  0  0  0  0
    9.1162    1.0037    1.9753 H   0  0  0  0  0  0  0  0  0  0  0  0
   10.0074   -0.1220    0.9098 H   0  0  0  0  0  0  0  0  0  0  0  0
    2.7911   -0.5776   -2.5060 H   0  0  0  0  0  0  0  0  0  0  0  0
    1.9612    1.3372   -0.7311 H   0  0  0  0  0  0  0  0  0  0  0  0
   -1.3919    2.6327   -0.0729 H   0  0  0  0  0  0  0  0  0  0  0  0
   -1.2486    2.3571   -1.8270 H   0  0  0  0  0  0  0  0  0  0  0  0
    0.0896    3.0682   -0.9251 H   0  0  0  0  0  0  0  0  0  0  0  0
   -2.3767   -0.7896    1.8954 H   0  0  0  0  0  0  0  0  0  0  0  0
   -4.8116   -0.7574    2.1332 H   0  0  0  0  0  0  0  0  0  0  0  0
   -6.8905   -0.3759    1.2435 H   0  0  0  0  0  0  0  0  0  0  0  0
   -9.0201   -0.7400    0.6757 H   0  0  0  0  0  0  0  0  0  0  0  0
   -9.6882   -0.0004   -0.7869 H   0  0  0  0  0  0  0  0  0  0  0  0
   -9.1989    1.0363    0.5813 H   0  0  0  0  0  0  0  0  0  0  0  0
   -5.1709    0.5704   -1.9639 H   0  0  0  0  0  0  0  0  0  0  0  0
   -2.7535    0.5067   -2.1878 H   0  0  0  0  0  0  0  0  0  0  0  0
  1  2  2  0
  2  3  1  0
  3  4  2  3
  4  5  1  0
  5  6  1  0
  6  7  1  0
  7  8  1  0
  8  9  1  0
  9 10  1  0
  9 11  2  0
  7 12  2  0
 12 13  1  0
 13 14  1  0
  3 15  1  0
 15 16  2  0
 16 17  1  0
 16 18  1  0
 18 19  1  0
 19 20  2  0
 20 21  1  0
 21 22  2  0
 22 23  1  0
 23 24  1  0
 24 25  1  0
 24 26  2  0
 22 27  1  0
 27 28  2  0
 18  2  1  0
 28 19  1  0
 13  5  2  0
  1 29  1  0
  1 30  1  0
  4 31  1  0
  8 32  1  0
 10 33  1  0
 10 34  1  0
 10 35  1  0
 14 36  1  0
 15 37  1  0
 17 38  1  0
 17 39  1  0
 17 40  1  0
 20 41  1  0
 21 42  1  0
 23 43  1  0
 25 44  1  0
 25 45  1  0
 25 46  1  0
 27 47  1  0
 28 48  1  0
M  END
$$$$
