
     RDKit          3D

 44 46  0  0  0  0  0  0  0  0999 V2000
    4.6090    1.3835   -1.4473 C   0  0  0  0  0  0  0  0  0  0  0  0
    3.3573    1.2946   -0.7006 N   0  0  0  0  0  0  0  0  0  0  0  0
    3.0036   -0.1186   -0.4430 C   0  0  0  0  0  0  0  0  0  0  0  0
    1.4984   -0.3457   -0.2124 C   0  0  0  0  0  0  0  0  0  0  0  0
    0.7110    0.0820   -1.3756 N   0  0  0  0  0  0  0  0  0  0  0  0
   -0.4781   -0.4934   -1.7955 C   0  0  0  0  0  0  0  0  0  0  0  0
   -1.0594   -0.1790   -2.8322 O   0  0  0  0  0  0  0  0  0  0  0  0
   -1.0794   -1.5660   -0.9765 C   0  0  0  0  0  0  0  0  0  0  0  0
   -0.9071   -2.8791   -1.4406 C   0  0  0  0  0  0  0  0  0  0  0  0
   -1.4776   -3.9424   -0.7462 C   0  0  0  0  0  0  0  0  0  0  0  0
   -2.2325   -3.6944    0.3970 C   0  0  0  0  0  0  0  0  0  0  0  0
   -2.4202   -2.3830    0.8468 C   0  0  0  0  0  0  0  0  0  0  0  0
   -1.8441   -1.2870    0.1749 C   0  0  0  0  0  0  0  0  0  0  0  0
   -2.1005    0.0842    0.6620 C   0  0  0  0  0  0  0  0  0  0  0  0
   -2.8483    0.9603   -0.1528 C   0  0  0  0  0  0  0  0  0  0  0  0
   -3.1583    2.2588    0.2576 C   0  0  0  0  0  0  0  0  0  0  0  0
   -2.7351    2.7143    1.4999 C   0  0  0  0  0  0  0  0  0  0  0  0
   -1.9991    1.8711    2.3304 C   0  0  0  0  0  0  0  0  0  0  0  0
   -1.6796    0.5616    1.9237 C   0  0  0  0  0  0  0  0  0  0  0  0
   -0.8564   -0.2739    2.8385 C   0  0  0  0  0  0  0  0  0  0  0  0
   -0.0366   -1.1190    2.5363 O   0  0  0  0  0  0  0  0  0  0  0  0
   -1.1248   -0.0059    4.1312 O   0  0  0  0  0  0  0  0  0  0  0  0
    1.2814    1.1667   -2.1728 C   0  0  0  0  0  0  0  0  0  0  0  0
    2.2643    2.0339   -1.3667 C   0  0  0  0  0  0  0  0  0  0  0  0
    4.5196    0.9624   -2.4551 H   0  0  0  0  0  0  0  0  0  0  0  0
    5.4106    0.8541   -0.9202 H   0  0  0  0  0  0  0  0  0  0  0  0
    4.9295    2.4273   -1.5370 H   0  0  0  0  0  0  0  0  0  0  0  0
    3.3070   -0.7480   -1.2911 H   0  0  0  0  0  0  0  0  0  0  0  0
    3.5605   -0.4653    0.4349 H   0  0  0  0  0  0  0  0  0  0  0  0
    1.3139   -1.4004    0.0085 H   0  0  0  0  0  0  0  0  0  0  0  0
    1.1618    0.2506    0.6415 H   0  0  0  0  0  0  0  0  0  0  0  0
   -0.3349   -3.0654   -2.3463 H   0  0  0  0  0  0  0  0  0  0  0  0
   -1.3427   -4.9608   -1.1013 H   0  0  0  0  0  0  0  0  0  0  0  0
   -2.6862   -4.5213    0.9380 H   0  0  0  0  0  0  0  0  0  0  0  0
   -3.0327   -2.2201    1.7321 H   0  0  0  0  0  0  0  0  0  0  0  0
   -3.1994    0.6285   -1.1309 H   0  0  0  0  0  0  0  0  0  0  0  0
   -3.7315    2.9100   -0.3982 H   0  0  0  0  0  0  0  0  0  0  0  0
   -2.9740    3.7248    1.8215 H   0  0  0  0  0  0  0  0  0  0  0  0
   -1.6659    2.2447    3.2965 H   0  0  0  0  0  0  0  0  0  0  0  0
   -0.5385   -0.6177    4.6238 H   0  0  0  0  0  0  0  0  0  0  0  0
    1.7930    0.7075   -3.0273 H   0  0  0  0  0  0  0  0  0  0  0  0
    0.4725    1.7908   -2.5693 H   0  0  0  0  0  0  0  0  0  0  0  0
    2.6542    2.8391   -2.0016 H   0  0  0  0  0  0  0  0  0  0  0  0
    1.6955    2.5356   -0.5726 H   0  0  0  0  0  0  0  0  0  0  0  0
  1  2  1  0
  2  3  1  0
  3  4  1  0
  4  5  1  0
  5  6  1  0
  6  7  2  0
  6  8  1  0
  8  9  2  0
  9 10  1  0
 10 11  2  0
 11 12  1  0
 12 13  2  0
 13 14  1  0
 14 15  2  0
 15 16  1  0
 16 17  2  0
 17 18  1  0
 18 19  2  0
 19 20  1  0
 20 21  2  0
 20 22  1  0
  5 23  1  0
 23 24  1  0
 24  2  1  0
 13  8  1  0
 19 14  1  0
  1 25  1  0
  1 26  1  0
  1 27  1  0
  3 28  1  0
  3 29  1  0
  4 30  1  0
  4 31  1  0
  9 32  1  0
 10 33  1  0
 11 34  1  0
 12 35  1  0
 15 36  1  0
 16 37  1  0
 17 38  1  0
 18 39  1  0
 22 40  1  0
 23 41  1  0
 23 42  1  0
 24 43  1  0
 24 44  1  0
M  END
$$$$
