
     RDKit          3D

 47 49  0  0  0  0  0  0  0  0999 V2000
    4.4656    1.5229    2.7854 C   0  0  0  0  0  0  0  0  0  0  0  0
    3.8497    1.0389    1.5982 O   0  0  0  0  0  0  0  0  0  0  0  0
    4.6754    0.7960    0.5229 C   0  0  0  0  0  0  0  0  0  0  0  0
    6.0330    1.1264    0.4676 C   0  0  0  0  0  0  0  0  0  0  0  0
    6.7776    0.8395   -0.6786 C   0  0  0  0  0  0  0  0  0  0  0  0
    6.1704    0.2282   -1.7725 C   0  0  0  0  0  0  0  0  0  0  0  0
    4.8144   -0.1013   -1.7284 C   0  0  0  0  0  0  0  0  0  0  0  0
    4.0607    0.1729   -0.5853 C   0  0  0  0  0  0  0  0  0  0  0  0
    2.6833   -0.1183   -0.4729 N   0  0  0  0  0  0  0  0  0  0  0  0
    1.9021   -0.8846   -1.3020 C   0  0  0  0  0  0  0  0  0  0  0  0
    2.3227   -1.5533   -2.2433 O   0  0  0  0  0  0  0  0  0  0  0  0
    0.5434   -0.8634   -0.9828 N   0  0  0  0  0  0  0  0  0  0  0  0
   -0.0943    0.1302   -0.1165 C   0  0  0  0  0  0  0  0  0  0  0  0
   -1.5082    0.4649   -0.5857 C   0  0  0  0  0  0  0  0  0  0  0  0
   -2.4064   -0.7793   -0.6465 C   0  0  0  0  0  0  0  0  0  0  0  0
   -3.1988   -0.8868    0.6545 C   0  0  0  0  0  0  0  0  0  0  0  0
   -2.6985   -1.3466    1.6801 O   0  0  0  0  0  0  0  0  0  0  0  0
   -4.6103   -0.3975    0.7044 C   0  0  0  0  0  0  0  0  0  0  0  0
   -5.4374   -0.8749    1.7341 C   0  0  0  0  0  0  0  0  0  0  0  0
   -6.7638   -0.4491    1.8300 C   0  0  0  0  0  0  0  0  0  0  0  0
   -7.2590    0.4576    0.9018 C   0  0  0  0  0  0  0  0  0  0  0  0
   -8.5302    0.8683    0.9919 F   0  0  0  0  0  0  0  0  0  0  0  0
   -6.4514    0.9499   -0.1172 C   0  0  0  0  0  0  0  0  0  0  0  0
   -5.1226    0.5259   -0.2173 C   0  0  0  0  0  0  0  0  0  0  0  0
   -1.6098   -2.0705   -0.9044 C   0  0  0  0  0  0  0  0  0  0  0  0
   -0.3316   -1.7960   -1.6863 C   0  0  0  0  0  0  0  0  0  0  0  0
    4.8770    2.5258    2.6335 H   0  0  0  0  0  0  0  0  0  0  0  0
    3.6921    1.5946    3.5566 H   0  0  0  0  0  0  0  0  0  0  0  0
    5.2316    0.8285    3.1460 H   0  0  0  0  0  0  0  0  0  0  0  0
    6.5411    1.6107    1.2943 H   0  0  0  0  0  0  0  0  0  0  0  0
    7.8335    1.0956   -0.7193 H   0  0  0  0  0  0  0  0  0  0  0  0
    6.7495    0.0057   -2.6654 H   0  0  0  0  0  0  0  0  0  0  0  0
    4.3696   -0.5675   -2.6021 H   0  0  0  0  0  0  0  0  0  0  0  0
    2.3011    0.1044    0.4359 H   0  0  0  0  0  0  0  0  0  0  0  0
    0.4988    1.0506   -0.0987 H   0  0  0  0  0  0  0  0  0  0  0  0
   -0.1072   -0.2811    0.8990 H   0  0  0  0  0  0  0  0  0  0  0  0
   -1.9374    1.2375    0.0627 H   0  0  0  0  0  0  0  0  0  0  0  0
   -1.4473    0.9001   -1.5921 H   0  0  0  0  0  0  0  0  0  0  0  0
   -3.1049   -0.6670   -1.4833 H   0  0  0  0  0  0  0  0  0  0  0  0
   -5.0502   -1.5824    2.4658 H   0  0  0  0  0  0  0  0  0  0  0  0
   -7.4085   -0.8171    2.6220 H   0  0  0  0  0  0  0  0  0  0  0  0
   -6.8607    1.6654   -0.8239 H   0  0  0  0  0  0  0  0  0  0  0  0
   -4.5097    0.9451   -1.0095 H   0  0  0  0  0  0  0  0  0  0  0  0
   -2.2381   -2.7799   -1.4567 H   0  0  0  0  0  0  0  0  0  0  0  0
   -1.3441   -2.5709    0.0353 H   0  0  0  0  0  0  0  0  0  0  0  0
    0.2015   -2.7366   -1.8663 H   0  0  0  0  0  0  0  0  0  0  0  0
   -0.5637   -1.3586   -2.6649 H   0  0  0  0  0  0  0  0  0  0  0  0
  1  2  1  0
  2  3  1  0
  3  4  2  0
  4  5  1  0
  5  6  2  0
  6  7  1  0
  7  8  2  0
  8  9  1  0
  9 10  1  0
 10 11  2  0
 10 12  1  0
 12 13  1  0
 13 14  1  0
 14 15  1  0
 15 16  1  0
 16 17  2  0
 16 18  1  0
 18 19  2  0
 19 20  1  0
 20 21  2  0
 21 22  1  0
 21 23  1  0
 23 24  2  0
 15 25  1  0
 25 26  1  0
  8  3  1  0
 26 12  1  0
 24 18  1  0
  1 27  1  0
  1 28  1  0
  1 29  1  0
  4 30  1  0
  5 31  1  0
  6 32  1  0
  7 33  1  0
  9 34  1  0
 13 35  1  0
 13 36  1  0
 14 37  1  0
 14 38  1  0
 15 39  1  0
 19 40  1  0
 20 41  1  0
 23 42  1  0
 24 43  1  0
 25 44  1  0
 25 45  1  0
 26 46  1  0
 26 47  1  0
M  END
$$$$
