
     RDKit          3D

 35 36  0  0  0  0  0  0  0  0999 V2000
    4.2016   -2.0612   -2.2750 C   0  0  0  0  0  0  0  0  0  0  0  0
    3.4406   -0.9798   -1.5678 C   0  0  0  0  0  0  0  0  0  0  0  0
    2.0895   -0.7616   -1.8536 C   0  0  0  0  0  0  0  0  0  0  0  0
    1.3829    0.2689   -1.2222 C   0  0  0  0  0  0  0  0  0  0  0  0
    2.0141    1.0926   -0.2886 C   0  0  0  0  0  0  0  0  0  0  0  0
    1.3829    2.1605    0.3820 N   0  0  0  0  0  0  0  0  0  0  0  0
    0.0651    2.4785    0.5502 C   0  0  0  0  0  0  0  0  0  0  0  0
   -0.2978    4.0415    1.0246 S   0  0  0  0  0  0  0  0  0  0  0  0
   -0.8442    1.4818    0.3706 N   0  0  0  0  0  0  0  0  0  0  0  0
   -2.2817    1.5956    0.5190 C   0  0  0  0  0  0  0  0  0  0  0  0
   -2.8697    0.2683    0.1867 C   0  0  0  0  0  0  0  0  0  0  0  0
   -3.2514   -0.2356   -1.0450 C   0  0  0  0  0  0  0  0  0  0  0  0
   -3.7461   -1.5443   -0.8465 C   0  0  0  0  0  0  0  0  0  0  0  0
   -3.6545   -1.8142    0.4995 C   0  0  0  0  0  0  0  0  0  0  0  0
   -3.1234   -0.7133    1.1207 N   0  0  0  0  0  0  0  0  0  0  0  0
   -2.8651   -0.6246    2.5422 C   0  0  0  0  0  0  0  0  0  0  0  0
    3.3777    0.9024   -0.0385 C   0  0  0  0  0  0  0  0  0  0  0  0
    4.0849   -0.1275   -0.6675 C   0  0  0  0  0  0  0  0  0  0  0  0
    3.5583   -2.9263   -2.4680 H   0  0  0  0  0  0  0  0  0  0  0  0
    4.5866   -1.6845   -3.2278 H   0  0  0  0  0  0  0  0  0  0  0  0
    5.0428   -2.4105   -1.6660 H   0  0  0  0  0  0  0  0  0  0  0  0
    1.5758   -1.3814   -2.5855 H   0  0  0  0  0  0  0  0  0  0  0  0
    0.3530    0.4325   -1.5248 H   0  0  0  0  0  0  0  0  0  0  0  0
    2.0059    2.8711    0.7524 H   0  0  0  0  0  0  0  0  0  0  0  0
   -0.4731    0.5449    0.4432 H   0  0  0  0  0  0  0  0  0  0  0  0
   -2.6488    2.3675   -0.1666 H   0  0  0  0  0  0  0  0  0  0  0  0
   -2.5160    1.9082    1.5412 H   0  0  0  0  0  0  0  0  0  0  0  0
   -3.1772    0.2914   -1.9881 H   0  0  0  0  0  0  0  0  0  0  0  0
   -4.1283   -2.2175   -1.6028 H   0  0  0  0  0  0  0  0  0  0  0  0
   -3.9264   -2.6995    1.0595 H   0  0  0  0  0  0  0  0  0  0  0  0
   -3.0728   -1.5898    3.0125 H   0  0  0  0  0  0  0  0  0  0  0  0
   -1.8141   -0.3637    2.6907 H   0  0  0  0  0  0  0  0  0  0  0  0
   -3.5209    0.1419    2.9628 H   0  0  0  0  0  0  0  0  0  0  0  0
    3.9071    1.5431    0.6623 H   0  0  0  0  0  0  0  0  0  0  0  0
    5.1428   -0.2557   -0.4481 H   0  0  0  0  0  0  0  0  0  0  0  0
  1  2  1  0
  2  3  2  0
  3  4  1  0
  4  5  2  0
  5  6  1  0
  6  7  1  0
  7  8  2  0
  7  9  1  0
  9 10  1  0
 10 11  1  0
 11 12  2  0
 12 13  1  0
 13 14  2  0
 14 15  1  0
 15 16  1  0
  5 17  1  0
 17 18  2  0
 18  2  1  0
 15 11  1  0
  1 19  1  0
  1 20  1  0
  1 21  1  0
  3 22  1  0
  4 23  1  0
  6 24  1  0
  9 25  1  0
 10 26  1  0
 10 27  1  0
 12 28  1  0
 13 29  1  0
 14 30  1  0
 16 31  1  0
 16 32  1  0
 16 33  1  0
 17 34  1  0
 18 35  1  0
M  END
$$$$
