
     RDKit          3D

 41 43  0  0  0  0  0  0  0  0999 V2000
   -4.1468    1.5257   -0.5730 O   0  0  0  0  0  0  0  0  0  0  0  0
   -4.4664    0.3528   -0.4508 C   0  0  0  0  0  0  0  0  0  0  0  0
   -3.6262   -0.7302   -0.2714 O   0  0  0  0  0  0  0  0  0  0  0  0
   -2.2639   -0.4143   -0.2409 C   0  0  0  0  0  0  0  0  0  0  0  0
   -1.5747   -0.6219    0.9528 C   0  0  0  0  0  0  0  0  0  0  0  0
   -0.2035   -0.3681    1.0022 C   0  0  0  0  0  0  0  0  0  0  0  0
    0.4644    0.0782   -0.1447 C   0  0  0  0  0  0  0  0  0  0  0  0
    1.9165    0.3548   -0.1194 C   0  0  0  0  0  0  0  0  0  0  0  0
    2.6199    0.1837    0.9546 N   0  0  0  0  0  0  0  0  0  0  0  0
    3.9679    0.4157    0.8913 N   0  0  0  0  0  0  0  0  0  0  0  0
    4.7990    0.2001   -0.2012 C   0  0  0  0  0  0  0  0  0  0  0  0
    4.4567   -0.0920   -1.3428 O   0  0  0  0  0  0  0  0  0  0  0  0
    6.2522    0.3391    0.1409 C   0  0  0  0  0  0  0  0  0  0  0  0
    7.2171    0.1858   -0.8475 C   0  0  0  0  0  0  0  0  0  0  0  0
    8.5542    0.3194   -0.4859 C   0  0  0  0  0  0  0  0  0  0  0  0
    8.8786    0.5980    0.8386 C   0  0  0  0  0  0  0  0  0  0  0  0
    7.8495    0.7328    1.7583 C   0  0  0  0  0  0  0  0  0  0  0  0
    6.5409    0.6100    1.4467 N   0  0  0  0  0  0  0  0  0  0  0  0
   -0.2335    0.2647   -1.3441 C   0  0  0  0  0  0  0  0  0  0  0  0
   -1.6048    0.0091   -1.3955 C   0  0  0  0  0  0  0  0  0  0  0  0
   -5.8836   -0.1087   -0.4733 C   0  0  0  0  0  0  0  0  0  0  0  0
   -6.8891    0.8606   -0.6091 C   0  0  0  0  0  0  0  0  0  0  0  0
   -8.2353    0.4860   -0.6374 C   0  0  0  0  0  0  0  0  0  0  0  0
   -8.5795   -0.8599   -0.5304 C   0  0  0  0  0  0  0  0  0  0  0  0
  -10.3992   -1.3690   -0.5686 Br  0  0  0  0  0  0  0  0  0  0  0  0
   -7.5914   -1.8341   -0.3958 C   0  0  0  0  0  0  0  0  0  0  0  0
   -6.2437   -1.4605   -0.3672 C   0  0  0  0  0  0  0  0  0  0  0  0
   -2.0958   -0.9741    1.8376 H   0  0  0  0  0  0  0  0  0  0  0  0
    0.3400   -0.5200    1.9317 H   0  0  0  0  0  0  0  0  0  0  0  0
    2.3429    0.7403   -1.0602 H   0  0  0  0  0  0  0  0  0  0  0  0
    4.4408    0.4726    1.7940 H   0  0  0  0  0  0  0  0  0  0  0  0
    6.9350   -0.0329   -1.8725 H   0  0  0  0  0  0  0  0  0  0  0  0
    9.3367    0.2064   -1.2316 H   0  0  0  0  0  0  0  0  0  0  0  0
    9.9128    0.7072    1.1479 H   0  0  0  0  0  0  0  0  0  0  0  0
    8.0608    0.9499    2.8022 H   0  0  0  0  0  0  0  0  0  0  0  0
    0.2805    0.6038   -2.2398 H   0  0  0  0  0  0  0  0  0  0  0  0
   -2.1500    0.1484   -2.3242 H   0  0  0  0  0  0  0  0  0  0  0  0
   -6.6278    1.9147   -0.6930 H   0  0  0  0  0  0  0  0  0  0  0  0
   -9.0020    1.2497   -0.7427 H   0  0  0  0  0  0  0  0  0  0  0  0
   -7.8581   -2.8851   -0.3127 H   0  0  0  0  0  0  0  0  0  0  0  0
   -5.4912   -2.2387   -0.2626 H   0  0  0  0  0  0  0  0  0  0  0  0
  1  2  2  0
  2  3  1  0
  3  4  1  0
  4  5  2  0
  5  6  1  0
  6  7  2  0
  7  8  1  0
  8  9  2  3
  9 10  1  0
 10 11  1  0
 11 12  2  0
 11 13  1  0
 13 14  2  0
 14 15  1  0
 15 16  2  0
 16 17  1  0
 17 18  2  0
  7 19  1  0
 19 20  2  0
  2 21  1  0
 21 22  2  0
 22 23  1  0
 23 24  2  0
 24 25  1  0
 24 26  1  0
 26 27  2  0
 20  4  1  0
 27 21  1  0
 18 13  1  0
  5 28  1  0
  6 29  1  0
  8 30  1  0
 10 31  1  0
 14 32  1  0
 15 33  1  0
 16 34  1  0
 17 35  1  0
 19 36  1  0
 20 37  1  0
 22 38  1  0
 23 39  1  0
 26 40  1  0
 27 41  1  0
M  END
$$$$
