
     RDKit          3D

 60 64  0  0  0  0  0  0  0  0999 V2000
   -2.4997   -0.9814   -1.4910 O   0  0  0  0  0  0  0  0  0  0  0  0
   -2.7133    0.0033   -0.7850 C   0  0  0  0  0  0  0  0  0  0  0  0
   -1.8893    1.2731   -0.9239 C   0  0  0  0  0  0  0  0  0  0  0  0
   -0.8400    1.2018   -2.0391 C   0  0  0  0  0  0  0  0  0  0  0  0
    0.2187    0.2115   -1.8299 N   0  0  0  0  0  0  0  0  0  0  0  0
    0.4780   -0.6658   -2.8722 C   0  0  0  0  0  0  0  0  0  0  0  0
   -0.0117   -0.5763   -3.9958 O   0  0  0  0  0  0  0  0  0  0  0  0
    1.4430   -1.7390   -2.5997 C   0  0  0  0  0  0  0  0  0  0  0  0
    1.5848   -2.7836   -3.5252 C   0  0  0  0  0  0  0  0  0  0  0  0
    2.4926   -3.8090   -3.2843 C   0  0  0  0  0  0  0  0  0  0  0  0
    3.2524   -3.7878   -2.1223 C   0  0  0  0  0  0  0  0  0  0  0  0
    3.1086   -2.7410   -1.2049 C   0  0  0  0  0  0  0  0  0  0  0  0
    2.2027   -1.6936   -1.4330 C   0  0  0  0  0  0  0  0  0  0  0  0
    2.0424   -0.5946   -0.5421 N   0  0  0  0  0  0  0  0  0  0  0  0
    2.9238   -0.4288    0.6191 C   0  0  0  0  0  0  0  0  0  0  0  0
    4.2681    0.1853    0.2695 C   0  0  0  0  0  0  0  0  0  0  0  0
    4.3468    1.5009   -0.2114 C   0  0  0  0  0  0  0  0  0  0  0  0
    5.5761    2.0770   -0.5418 C   0  0  0  0  0  0  0  0  0  0  0  0
    6.7521    1.3490   -0.3944 C   0  0  0  0  0  0  0  0  0  0  0  0
    6.6901    0.0408    0.0981 C   0  0  0  0  0  0  0  0  0  0  0  0
    7.9256   -0.7365    0.2572 N   0  0  0  0  0  4  0  0  0  0  0  0
    8.9953   -0.1865   -0.0371 O   0  0  0  0  0  0  0  0  0  0  0  0
    7.8253   -1.9000    0.6758 O   0  0  0  0  0  1  0  0  0  0  0  0
    5.4590   -0.5396    0.4395 C   0  0  0  0  0  0  0  0  0  0  0  0
    1.0721    0.3824   -0.7503 C   0  0  0  0  0  0  0  0  0  0  0  0
    0.9822    1.3691   -0.0130 O   0  0  0  0  0  0  0  0  0  0  0  0
   -3.7034    0.0086    0.1962 N   0  0  0  0  0  0  0  0  0  0  0  0
   -4.6020   -1.1402    0.2819 C   0  0  0  0  0  0  0  0  0  0  0  0
   -4.9063   -1.4938    1.7345 C   0  0  0  0  0  0  0  0  0  0  0  0
   -5.3886   -0.2911    2.5009 C   0  0  0  0  0  0  0  0  0  0  0  0
   -6.1661   -0.4584    3.6564 C   0  0  0  0  0  0  0  0  0  0  0  0
   -6.5859    0.6497    4.3899 C   0  0  0  0  0  0  0  0  0  0  0  0
   -6.2266    1.9314    3.9817 C   0  0  0  0  0  0  0  0  0  0  0  0
   -5.4487    2.1072    2.8370 C   0  0  0  0  0  0  0  0  0  0  0  0
   -5.0115    1.0002    2.0922 C   0  0  0  0  0  0  0  0  0  0  0  0
   -4.1544    1.2277    0.8690 C   0  0  0  0  0  0  0  0  0  0  0  0
   -2.5720    2.0970   -1.1627 H   0  0  0  0  0  0  0  0  0  0  0  0
   -1.4195    1.4845    0.0402 H   0  0  0  0  0  0  0  0  0  0  0  0
   -1.3536    1.0231   -2.9903 H   0  0  0  0  0  0  0  0  0  0  0  0
   -0.3532    2.1817   -2.1239 H   0  0  0  0  0  0  0  0  0  0  0  0
    0.9841   -2.7981   -4.4312 H   0  0  0  0  0  0  0  0  0  0  0  0
    2.6017   -4.6205   -3.9980 H   0  0  0  0  0  0  0  0  0  0  0  0
    3.9621   -4.5885   -1.9236 H   0  0  0  0  0  0  0  0  0  0  0  0
    3.7219   -2.7913   -0.3140 H   0  0  0  0  0  0  0  0  0  0  0  0
    3.0408   -1.3902    1.1325 H   0  0  0  0  0  0  0  0  0  0  0  0
    2.4496    0.2174    1.3684 H   0  0  0  0  0  0  0  0  0  0  0  0
    3.4419    2.0961   -0.3284 H   0  0  0  0  0  0  0  0  0  0  0  0
    5.6112    3.0983   -0.9124 H   0  0  0  0  0  0  0  0  0  0  0  0
    7.7002    1.8113   -0.6604 H   0  0  0  0  0  0  0  0  0  0  0  0
    5.4241   -1.5536    0.8336 H   0  0  0  0  0  0  0  0  0  0  0  0
   -4.1757   -2.0150   -0.2195 H   0  0  0  0  0  0  0  0  0  0  0  0
   -5.5206   -0.8738   -0.2557 H   0  0  0  0  0  0  0  0  0  0  0  0
   -5.6609   -2.2880    1.7604 H   0  0  0  0  0  0  0  0  0  0  0  0
   -3.9995   -1.8702    2.2250 H   0  0  0  0  0  0  0  0  0  0  0  0
   -6.4464   -1.4555    3.9904 H   0  0  0  0  0  0  0  0  0  0  0  0
   -7.1903    0.5127    5.2827 H   0  0  0  0  0  0  0  0  0  0  0  0
   -6.5530    2.7945    4.5547 H   0  0  0  0  0  0  0  0  0  0  0  0
   -5.1747    3.1157    2.5344 H   0  0  0  0  0  0  0  0  0  0  0  0
   -4.7287    1.8026    0.1328 H   0  0  0  0  0  0  0  0  0  0  0  0
   -3.2818    1.8191    1.1625 H   0  0  0  0  0  0  0  0  0  0  0  0
  1  2  2  0
  2  3  1  0
  3  4  1  0
  4  5  1  0
  5  6  1  0
  6  7  2  0
  6  8  1  0
  8  9  2  0
  9 10  1  0
 10 11  2  0
 11 12  1  0
 12 13  2  0
 13 14  1  0
 14 15  1  0
 15 16  1  0
 16 17  2  0
 17 18  1  0
 18 19  2  0
 19 20  1  0
 20 21  1  0
 21 22  2  0
 21 23  1  0
 20 24  2  0
 14 25  1  0
 25 26  2  0
  2 27  1  0
 27 28  1  0
 28 29  1  0
 29 30  1  0
 30 31  2  0
 31 32  1  0
 32 33  2  0
 33 34  1  0
 34 35  2  0
 35 36  1  0
 25  5  1  0
 36 27  1  0
 13  8  1  0
 24 16  1  0
 35 30  1  0
  3 37  1  0
  3 38  1  0
  4 39  1  0
  4 40  1  0
  9 41  1  0
 10 42  1  0
 11 43  1  0
 12 44  1  0
 15 45  1  0
 15 46  1  0
 17 47  1  0
 18 48  1  0
 19 49  1  0
 24 50  1  0
 28 51  1  0
 28 52  1  0
 29 53  1  0
 29 54  1  0
 31 55  1  0
 32 56  1  0
 33 57  1  0
 34 58  1  0
 36 59  1  0
 36 60  1  0
M  CHG  2  21   1  23  -1
M  END
$$$$
