
     RDKit          3D

 57 60  0  0  0  0  0  0  0  0999 V2000
    7.2920   -2.4644    1.9467 C   0  0  0  0  0  0  0  0  0  0  0  0
    7.2248   -1.8352    0.6737 O   0  0  0  0  0  0  0  0  0  0  0  0
    6.0011   -1.3885    0.2570 C   0  0  0  0  0  0  0  0  0  0  0  0
    6.0026   -0.8015   -1.0062 C   0  0  0  0  0  0  0  0  0  0  0  0
    4.8207   -0.3030   -1.5529 C   0  0  0  0  0  0  0  0  0  0  0  0
    3.6107   -0.3778   -0.8422 C   0  0  0  0  0  0  0  0  0  0  0  0
    2.4072    0.1960   -1.5329 C   0  0  0  0  0  0  0  0  0  0  0  0
    2.4680    0.5212   -2.7156 O   0  0  0  0  0  0  0  0  0  0  0  0
    1.2590    0.3428   -0.7929 N   0  0  0  0  0  0  0  0  0  0  0  0
    0.0087    0.7583   -1.3894 C   0  0  0  0  0  0  0  0  0  0  0  0
   -0.6801   -0.4317   -2.0994 C   0  0  0  0  0  0  0  0  0  0  0  0
   -2.1992   -0.2124   -2.3636 C   0  0  0  0  0  0  0  0  0  0  0  0
   -2.4141    0.9654   -3.3371 C   0  0  0  0  0  0  0  0  0  0  0  0
   -2.7761   -1.4819   -3.0194 C   0  0  0  0  0  0  0  0  0  0  0  0
   -2.9551    0.0423   -1.0206 C   0  0  0  0  0  0  0  0  0  0  0  0
   -2.1957    0.9729   -0.1334 C   0  0  0  0  0  0  0  0  0  0  0  0
   -0.8637    1.3034   -0.3114 C   0  0  0  0  0  0  0  0  0  0  0  0
   -0.6089    2.2835    0.6528 C   0  0  0  0  0  0  0  0  0  0  0  0
   -1.6735    2.5385    1.4092 N   0  0  0  0  0  0  0  0  0  0  0  0
   -2.6510    1.6922    0.9652 N   0  0  0  0  0  0  0  0  0  0  0  0
   -3.9058    1.6711    1.6504 C   0  0  0  0  0  0  0  0  0  0  0  0
   -4.1782    2.6812    2.5916 C   0  0  0  0  0  0  0  0  0  0  0  0
   -5.3904    2.7069    3.2858 C   0  0  0  0  0  0  0  0  0  0  0  0
   -6.3434    1.7192    3.0582 C   0  0  0  0  0  0  0  0  0  0  0  0
   -6.0803    0.7037    2.1423 C   0  0  0  0  0  0  0  0  0  0  0  0
   -4.8665    0.6749    1.4439 C   0  0  0  0  0  0  0  0  0  0  0  0
    3.6014   -0.9740    0.4379 C   0  0  0  0  0  0  0  0  0  0  0  0
    2.3991   -1.0375    1.1002 O   0  0  0  0  0  0  0  0  0  0  0  0
    2.3565   -1.6948    2.3634 C   0  0  0  0  0  0  0  0  0  0  0  0
    4.8035   -1.4725    0.9747 C   0  0  0  0  0  0  0  0  0  0  0  0
    6.6711   -3.3664    1.9761 H   0  0  0  0  0  0  0  0  0  0  0  0
    8.3302   -2.7685    2.1140 H   0  0  0  0  0  0  0  0  0  0  0  0
    7.0148   -1.7675    2.7456 H   0  0  0  0  0  0  0  0  0  0  0  0
    6.9299   -0.7276   -1.5713 H   0  0  0  0  0  0  0  0  0  0  0  0
    4.8504    0.1523   -2.5420 H   0  0  0  0  0  0  0  0  0  0  0  0
    1.2397   -0.0718    0.1334 H   0  0  0  0  0  0  0  0  0  0  0  0
    0.2133    1.5493   -2.1214 H   0  0  0  0  0  0  0  0  0  0  0  0
   -0.1546   -0.6458   -3.0394 H   0  0  0  0  0  0  0  0  0  0  0  0
   -0.5639   -1.3347   -1.4815 H   0  0  0  0  0  0  0  0  0  0  0  0
   -2.0753    1.9189   -2.9206 H   0  0  0  0  0  0  0  0  0  0  0  0
   -3.4756    1.0791   -3.5864 H   0  0  0  0  0  0  0  0  0  0  0  0
   -1.8699    0.7991   -4.2749 H   0  0  0  0  0  0  0  0  0  0  0  0
   -2.6414   -2.3576   -2.3737 H   0  0  0  0  0  0  0  0  0  0  0  0
   -2.2823   -1.6957   -3.9747 H   0  0  0  0  0  0  0  0  0  0  0  0
   -3.8494   -1.3742   -3.2122 H   0  0  0  0  0  0  0  0  0  0  0  0
   -3.9543    0.4350   -1.2387 H   0  0  0  0  0  0  0  0  0  0  0  0
   -3.0676   -0.9121   -0.4910 H   0  0  0  0  0  0  0  0  0  0  0  0
    0.3059    2.8353    0.8278 H   0  0  0  0  0  0  0  0  0  0  0  0
   -3.4534    3.4700    2.7899 H   0  0  0  0  0  0  0  0  0  0  0  0
   -5.5847    3.4992    4.0044 H   0  0  0  0  0  0  0  0  0  0  0  0
   -7.2843    1.7354    3.6007 H   0  0  0  0  0  0  0  0  0  0  0  0
   -6.8185   -0.0778    1.9770 H   0  0  0  0  0  0  0  0  0  0  0  0
   -4.7067   -0.1630    0.7801 H   0  0  0  0  0  0  0  0  0  0  0  0
    2.9700   -1.1667    3.1020 H   0  0  0  0  0  0  0  0  0  0  0  0
    1.3200   -1.6722    2.7166 H   0  0  0  0  0  0  0  0  0  0  0  0
    2.6535   -2.7447    2.2711 H   0  0  0  0  0  0  0  0  0  0  0  0
    4.8099   -1.9253    1.9578 H   0  0  0  0  0  0  0  0  0  0  0  0
  1  2  1  0
  2  3  1  0
  3  4  2  0
  4  5  1  0
  5  6  2  0
  6  7  1  0
  7  8  2  0
  7  9  1  0
  9 10  1  0
 10 11  1  0
 11 12  1  0
 12 13  1  0
 12 14  1  0
 12 15  1  0
 15 16  1  0
 16 17  2  0
 17 18  1  0
 18 19  2  0
 19 20  1  0
 20 21  1  0
 21 22  2  0
 22 23  1  0
 23 24  2  0
 24 25  1  0
 25 26  2  0
  6 27  1  0
 27 28  1  0
 28 29  1  0
 27 30  2  0
 30  3  1  0
 17 10  1  0
 26 21  1  0
 20 16  1  0
  1 31  1  0
  1 32  1  0
  1 33  1  0
  4 34  1  0
  5 35  1  0
  9 36  1  0
 10 37  1  0
 11 38  1  0
 11 39  1  0
 13 40  1  0
 13 41  1  0
 13 42  1  0
 14 43  1  0
 14 44  1  0
 14 45  1  0
 15 46  1  0
 15 47  1  0
 18 48  1  0
 22 49  1  0
 23 50  1  0
 24 51  1  0
 25 52  1  0
 26 53  1  0
 29 54  1  0
 29 55  1  0
 29 56  1  0
 30 57  1  0
M  END
$$$$
