
     RDKit          3D

 38 40  0  0  0  0  0  0  0  0999 V2000
   -3.7761    1.7593   -2.0588 C   0  0  0  0  0  0  0  0  0  0  0  0
   -4.6914    0.8469   -1.4648 O   0  0  0  0  0  0  0  0  0  0  0  0
   -4.1694   -0.1590   -0.6997 C   0  0  0  0  0  0  0  0  0  0  0  0
   -5.1230   -0.9913   -0.1067 C   0  0  0  0  0  0  0  0  0  0  0  0
   -4.7329   -2.0703    0.6864 C   0  0  0  0  0  0  0  0  0  0  0  0
   -3.3811   -2.3148    0.8968 C   0  0  0  0  0  0  0  0  0  0  0  0
   -3.0687   -3.4064    1.6611 O   0  0  0  0  0  0  0  0  0  0  0  0
   -2.4110   -1.4698    0.3406 C   0  0  0  0  0  0  0  0  0  0  0  0
   -0.9756   -1.7425    0.6062 C   0  0  0  0  0  0  0  0  0  0  0  0
   -0.6274   -2.9012    0.8316 O   0  0  0  0  0  0  0  0  0  0  0  0
    0.0472   -0.6783    0.6306 C   0  0  0  0  0  0  0  0  0  0  0  0
   -0.2087    0.5862    1.1434 C   0  0  0  0  0  0  0  0  0  0  0  0
    0.7060    1.5850    1.1694 N   0  0  0  0  0  0  0  0  0  0  0  0
    1.9402    1.2930    0.7099 C   0  0  0  0  0  0  0  0  0  0  0  0
    2.3039    0.0562    0.2073 C   0  0  0  0  0  0  0  0  0  0  0  0
    1.3349   -0.9499    0.1655 C   0  0  0  0  0  0  0  0  0  0  0  0
    3.6767   -0.1262   -0.3443 C   0  0  0  0  0  0  0  0  0  0  0  0
    4.6190    0.8853    0.0996 N   0  0  0  0  0  0  0  0  0  0  0  0
    6.0110    0.6864   -0.2585 C   0  0  0  0  0  0  0  0  0  0  0  0
    4.2049    2.1488    0.4708 C   0  0  0  0  0  0  0  0  0  0  0  0
    4.9656    3.1075    0.5859 O   0  0  0  0  0  0  0  0  0  0  0  0
    2.8826    2.3005    0.7487 N   0  0  0  0  0  0  0  0  0  0  0  0
   -2.8111   -0.4049   -0.4837 C   0  0  0  0  0  0  0  0  0  0  0  0
   -3.1885    2.2819   -1.2968 H   0  0  0  0  0  0  0  0  0  0  0  0
   -3.1270    1.2511   -2.7794 H   0  0  0  0  0  0  0  0  0  0  0  0
   -4.3574    2.5089   -2.6043 H   0  0  0  0  0  0  0  0  0  0  0  0
   -6.1817   -0.8041   -0.2738 H   0  0  0  0  0  0  0  0  0  0  0  0
   -5.4807   -2.7223    1.1298 H   0  0  0  0  0  0  0  0  0  0  0  0
   -2.1085   -3.5884    1.5500 H   0  0  0  0  0  0  0  0  0  0  0  0
   -1.1718    0.8527    1.5704 H   0  0  0  0  0  0  0  0  0  0  0  0
    1.5764   -1.9349   -0.2287 H   0  0  0  0  0  0  0  0  0  0  0  0
    3.6362   -0.0872   -1.4392 H   0  0  0  0  0  0  0  0  0  0  0  0
    4.0682   -1.1030   -0.0378 H   0  0  0  0  0  0  0  0  0  0  0  0
    6.6590    1.4114    0.2418 H   0  0  0  0  0  0  0  0  0  0  0  0
    6.1157    0.8041   -1.3412 H   0  0  0  0  0  0  0  0  0  0  0  0
    6.3191   -0.3213    0.0348 H   0  0  0  0  0  0  0  0  0  0  0  0
    2.5869    3.1980    1.1018 H   0  0  0  0  0  0  0  0  0  0  0  0
   -2.0615    0.2125   -0.9657 H   0  0  0  0  0  0  0  0  0  0  0  0
  1  2  1  0
  2  3  1  0
  3  4  2  0
  4  5  1  0
  5  6  2  0
  6  7  1  0
  6  8  1  0
  8  9  1  0
  9 10  2  0
  9 11  1  0
 11 12  2  0
 12 13  1  0
 13 14  2  0
 14 15  1  0
 15 16  2  0
 15 17  1  0
 17 18  1  0
 18 19  1  0
 18 20  1  0
 20 21  2  0
 20 22  1  0
  8 23  2  0
 23  3  1  0
 16 11  1  0
 22 14  1  0
  1 24  1  0
  1 25  1  0
  1 26  1  0
  4 27  1  0
  5 28  1  0
  7 29  1  0
 12 30  1  0
 16 31  1  0
 17 32  1  0
 17 33  1  0
 19 34  1  0
 19 35  1  0
 19 36  1  0
 22 37  1  0
 23 38  1  0
M  END
$$$$
