
     RDKit          3D

 39 41  0  0  0  0  0  0  0  0999 V2000
    5.1026   -2.6387    0.4592 C   0  0  0  0  0  0  0  0  0  0  0  0
    3.8845   -1.7505    0.2744 C   0  0  0  0  0  0  0  0  0  0  0  0
    2.3836   -2.6470    0.7883 S   0  0  0  0  0  0  0  0  0  0  0  0
    1.1335   -1.4034    0.4869 C   0  0  0  0  0  0  0  0  0  0  0  0
   -0.1771   -1.7034    0.7916 C   0  0  0  0  0  0  0  0  0  0  0  0
   -1.1269   -0.7342    0.5477 C   0  0  0  0  0  0  0  0  0  0  0  0
   -2.4569   -0.9354    0.8313 N   0  0  0  0  0  0  0  0  0  0  0  0
   -3.4342    0.0987    0.5118 C   0  0  0  0  0  0  0  0  0  0  0  0
   -4.7562   -0.5348    0.9337 C   0  0  0  0  0  0  0  0  0  0  0  0
   -4.5463   -2.0012    0.5915 C   0  0  0  0  0  0  0  0  0  0  0  0
   -3.0803   -2.2483    0.9503 C   0  0  0  0  0  0  0  0  0  0  0  0
   -0.7605    0.4591    0.0494 N   0  0  0  0  0  0  0  0  0  0  0  0
    0.5396    0.6735   -0.2216 C   0  0  0  0  0  0  0  0  0  0  0  0
    0.9183    1.9908   -0.7762 C   0  0  0  0  0  0  0  0  0  0  0  0
   -0.0416    2.9997   -0.9963 C   0  0  0  0  0  0  0  0  0  0  0  0
    0.3126    4.2482   -1.5214 C   0  0  0  0  0  0  0  0  0  0  0  0
    1.6407    4.5127   -1.8378 C   0  0  0  0  0  0  0  0  0  0  0  0
    2.0799    6.0452   -2.4831 Cl  0  0  0  0  0  0  0  0  0  0  0  0
    2.6148    3.5412   -1.6338 C   0  0  0  0  0  0  0  0  0  0  0  0
    2.2544    2.2945   -1.1083 C   0  0  0  0  0  0  0  0  0  0  0  0
    1.5142   -0.2256   -0.0246 N   0  0  0  0  0  0  0  0  0  0  0  0
    6.0053   -2.1007    0.1509 H   0  0  0  0  0  0  0  0  0  0  0  0
    5.0349   -3.5466   -0.1498 H   0  0  0  0  0  0  0  0  0  0  0  0
    5.2332   -2.9299    1.5070 H   0  0  0  0  0  0  0  0  0  0  0  0
    3.9981   -0.8451    0.8793 H   0  0  0  0  0  0  0  0  0  0  0  0
    3.7995   -1.4626   -0.7784 H   0  0  0  0  0  0  0  0  0  0  0  0
   -0.4394   -2.6611    1.2191 H   0  0  0  0  0  0  0  0  0  0  0  0
   -3.2531    1.0292    1.0605 H   0  0  0  0  0  0  0  0  0  0  0  0
   -3.4419    0.3071   -0.5652 H   0  0  0  0  0  0  0  0  0  0  0  0
   -5.6153   -0.0959    0.4191 H   0  0  0  0  0  0  0  0  0  0  0  0
   -4.9037   -0.4200    2.0144 H   0  0  0  0  0  0  0  0  0  0  0  0
   -5.2264   -2.6665    1.1307 H   0  0  0  0  0  0  0  0  0  0  0  0
   -4.6983   -2.1571   -0.4835 H   0  0  0  0  0  0  0  0  0  0  0  0
   -2.6506   -2.9925    0.2707 H   0  0  0  0  0  0  0  0  0  0  0  0
   -2.9894   -2.6088    1.9808 H   0  0  0  0  0  0  0  0  0  0  0  0
   -1.0878    2.8150   -0.7548 H   0  0  0  0  0  0  0  0  0  0  0  0
   -0.4536    5.0027   -1.6776 H   0  0  0  0  0  0  0  0  0  0  0  0
    3.6544    3.7415   -1.8787 H   0  0  0  0  0  0  0  0  0  0  0  0
    3.0349    1.5499   -0.9574 H   0  0  0  0  0  0  0  0  0  0  0  0
  1  2  1  0
  2  3  1  0
  3  4  1  0
  4  5  2  0
  5  6  1  0
  6  7  1  0
  7  8  1  0
  8  9  1  0
  9 10  1  0
 10 11  1  0
  6 12  2  0
 12 13  1  0
 13 14  1  0
 14 15  2  0
 15 16  1  0
 16 17  2  0
 17 18  1  0
 17 19  1  0
 19 20  2  0
 13 21  2  0
 21  4  1  0
 11  7  1  0
 20 14  1  0
  1 22  1  0
  1 23  1  0
  1 24  1  0
  2 25  1  0
  2 26  1  0
  5 27  1  0
  8 28  1  0
  8 29  1  0
  9 30  1  0
  9 31  1  0
 10 32  1  0
 10 33  1  0
 11 34  1  0
 11 35  1  0
 15 36  1  0
 16 37  1  0
 19 38  1  0
 20 39  1  0
M  END
$$$$
