
     RDKit          3D

 38 39  0  0  0  0  0  0  0  0999 V2000
    4.2241   -1.3753   -1.9311 C   0  0  0  0  0  0  0  0  0  0  0  0
    5.1092   -0.6341   -0.9379 C   0  0  0  0  0  0  0  0  0  0  0  0
    4.5041   -0.5525    0.4636 C   0  0  0  0  0  0  0  0  0  0  0  0
    3.3163    0.3301    0.5164 C   0  0  0  0  0  0  0  0  0  0  0  0
    3.2501    1.6419    0.5848 N   0  0  0  0  0  0  0  0  0  0  0  0
    1.9078    1.9596    0.6009 N   0  0  0  0  0  0  0  0  0  0  0  0
    1.2482    0.8194    0.5418 C   0  0  0  0  0  0  0  0  0  0  0  0
   -0.1885    0.5688    0.5206 C   0  0  0  0  0  0  0  0  0  0  0  0
   -1.0749    1.6589    0.5751 C   0  0  0  0  0  0  0  0  0  0  0  0
   -2.4573    1.4633    0.5485 C   0  0  0  0  0  0  0  0  0  0  0  0
   -3.3907    2.4662    0.5954 O   0  0  0  0  0  0  0  0  0  0  0  0
   -2.9265    3.7811    0.8717 C   0  0  0  0  0  0  0  0  0  0  0  0
   -2.9529    0.1531    0.4483 C   0  0  0  0  0  0  0  0  0  0  0  0
   -4.3145   -0.0582    0.4613 O   0  0  0  0  0  0  0  0  0  0  0  0
   -4.8196   -0.0332   -0.8724 C   0  0  0  0  0  0  0  0  0  0  0  0
   -2.0887   -0.9540    0.4172 C   0  0  0  0  0  0  0  0  0  0  0  0
   -2.6833   -2.1870    0.3384 O   0  0  0  0  0  0  0  0  0  0  0  0
   -1.8569   -3.3266    0.5316 C   0  0  0  0  0  0  0  0  0  0  0  0
   -0.7089   -0.7348    0.4435 C   0  0  0  0  0  0  0  0  0  0  0  0
    2.0848   -0.2670    0.4879 O   0  0  0  0  0  0  0  0  0  0  0  0
    3.2803   -0.8478   -2.0989 H   0  0  0  0  0  0  0  0  0  0  0  0
    4.7344   -1.4615   -2.8959 H   0  0  0  0  0  0  0  0  0  0  0  0
    3.9970   -2.3859   -1.5772 H   0  0  0  0  0  0  0  0  0  0  0  0
    5.3203    0.3713   -1.3219 H   0  0  0  0  0  0  0  0  0  0  0  0
    6.0698   -1.1590   -0.8735 H   0  0  0  0  0  0  0  0  0  0  0  0
    4.2487   -1.5558    0.8246 H   0  0  0  0  0  0  0  0  0  0  0  0
    5.2596   -0.1538    1.1509 H   0  0  0  0  0  0  0  0  0  0  0  0
   -0.6550    2.6599    0.6335 H   0  0  0  0  0  0  0  0  0  0  0  0
   -3.8011    4.4331    0.9574 H   0  0  0  0  0  0  0  0  0  0  0  0
   -2.3876    3.8205    1.8239 H   0  0  0  0  0  0  0  0  0  0  0  0
   -2.3096    4.1597    0.0503 H   0  0  0  0  0  0  0  0  0  0  0  0
   -5.8978   -0.2130   -0.8249 H   0  0  0  0  0  0  0  0  0  0  0  0
   -4.3724   -0.8243   -1.4838 H   0  0  0  0  0  0  0  0  0  0  0  0
   -4.6613    0.9431   -1.3425 H   0  0  0  0  0  0  0  0  0  0  0  0
   -1.3304   -3.2797    1.4907 H   0  0  0  0  0  0  0  0  0  0  0  0
   -1.1554   -3.4466   -0.3004 H   0  0  0  0  0  0  0  0  0  0  0  0
   -2.5036   -4.2093    0.5503 H   0  0  0  0  0  0  0  0  0  0  0  0
   -0.0179   -1.5706    0.3981 H   0  0  0  0  0  0  0  0  0  0  0  0
  1  2  1  0
  2  3  1  0
  3  4  1  0
  4  5  2  0
  5  6  1  0
  6  7  2  0
  7  8  1  0
  8  9  2  0
  9 10  1  0
 10 11  1  0
 11 12  1  0
 10 13  2  0
 13 14  1  0
 14 15  1  0
 13 16  1  0
 16 17  1  0
 17 18  1  0
 16 19  2  0
  7 20  1  0
 20  4  1  0
 19  8  1  0
  1 21  1  0
  1 22  1  0
  1 23  1  0
  2 24  1  0
  2 25  1  0
  3 26  1  0
  3 27  1  0
  9 28  1  0
 12 29  1  0
 12 30  1  0
 12 31  1  0
 15 32  1  0
 15 33  1  0
 15 34  1  0
 18 35  1  0
 18 36  1  0
 18 37  1  0
 19 38  1  0
M  END
$$$$
