
     RDKit          3D

 40 41  0  0  0  0  0  0  0  0999 V2000
   -2.2984    2.0864   -2.4618 O   0  0  0  0  0  0  0  0  0  0  0  0
   -1.7322    1.2546   -1.7564 C   0  0  0  0  0  0  0  0  0  0  0  0
   -0.3073    0.7953   -2.1018 C   0  0  0  0  0  0  0  0  0  0  0  0
    0.6267    0.8028   -1.0213 O   0  0  0  0  0  0  0  0  0  0  0  0
    0.7157   -0.3577   -0.3204 C   0  0  0  0  0  0  0  0  0  0  0  0
   -0.0173   -1.3216   -0.4960 O   0  0  0  0  0  0  0  0  0  0  0  0
    1.8016   -0.2844    0.7198 C   0  0  0  0  0  0  0  0  0  0  0  0
    3.1885   -0.3281    0.0903 C   0  0  0  0  0  0  0  0  0  0  0  0
    3.5296   -1.6710   -0.5547 C   0  0  0  0  0  0  0  0  0  0  0  0
    5.0504   -1.6536   -0.6731 C   0  0  0  0  0  0  0  0  0  0  0  0
    5.5489   -0.6779    0.3935 C   0  0  0  0  0  0  0  0  0  0  0  0
    4.3058   -0.1758    1.1195 C   0  0  0  0  0  0  0  0  0  0  0  0
   -2.2739    0.6257   -0.6484 N   0  0  0  0  0  0  0  0  0  0  0  0
   -3.5584    0.8100   -0.0687 C   0  0  0  0  0  0  0  0  0  0  0  0
   -4.5373    1.6039   -0.6818 C   0  0  0  0  0  0  0  0  0  0  0  0
   -5.8121    1.7579   -0.1194 C   0  0  0  0  0  0  0  0  0  0  0  0
   -6.1427    1.1204    1.0715 C   0  0  0  0  0  0  0  0  0  0  0  0
   -5.1946    0.3278    1.7096 C   0  0  0  0  0  0  0  0  0  0  0  0
   -3.9139    0.1777    1.1443 C   0  0  0  0  0  0  0  0  0  0  0  0
   -2.9551   -0.6368    1.8908 N   0  0  0  0  0  4  0  0  0  0  0  0
   -1.7585   -0.3142    1.8363 O   0  0  0  0  0  0  0  0  0  0  0  0
   -3.3985   -1.5912    2.5451 O   0  0  0  0  0  1  0  0  0  0  0  0
   -0.3586   -0.1834   -2.5945 H   0  0  0  0  0  0  0  0  0  0  0  0
    0.0865    1.4954   -2.8477 H   0  0  0  0  0  0  0  0  0  0  0  0
    1.6585   -1.1152    1.4211 H   0  0  0  0  0  0  0  0  0  0  0  0
    1.6599    0.6364    1.2981 H   0  0  0  0  0  0  0  0  0  0  0  0
    3.2847    0.4644   -0.6644 H   0  0  0  0  0  0  0  0  0  0  0  0
    3.2193   -2.5033    0.0892 H   0  0  0  0  0  0  0  0  0  0  0  0
    3.0476   -1.8029   -1.5284 H   0  0  0  0  0  0  0  0  0  0  0  0
    5.3528   -1.3035   -1.6667 H   0  0  0  0  0  0  0  0  0  0  0  0
    5.4706   -2.6552   -0.5368 H   0  0  0  0  0  0  0  0  0  0  0  0
    6.2513   -1.1532    1.0856 H   0  0  0  0  0  0  0  0  0  0  0  0
    6.0736    0.1572   -0.0851 H   0  0  0  0  0  0  0  0  0  0  0  0
    4.1135   -0.8015    2.0000 H   0  0  0  0  0  0  0  0  0  0  0  0
    4.4202    0.8577    1.4607 H   0  0  0  0  0  0  0  0  0  0  0  0
   -1.6537   -0.0237   -0.1637 H   0  0  0  0  0  0  0  0  0  0  0  0
   -4.3525    2.1192   -1.6200 H   0  0  0  0  0  0  0  0  0  0  0  0
   -6.5483    2.3799   -0.6255 H   0  0  0  0  0  0  0  0  0  0  0  0
   -7.1346    1.2436    1.5001 H   0  0  0  0  0  0  0  0  0  0  0  0
   -5.4578   -0.1617    2.6458 H   0  0  0  0  0  0  0  0  0  0  0  0
  1  2  2  0
  2  3  1  0
  3  4  1  0
  4  5  1  0
  5  6  2  0
  5  7  1  0
  7  8  1  0
  8  9  1  0
  9 10  1  0
 10 11  1  0
 11 12  1  0
  2 13  1  0
 13 14  1  0
 14 15  2  0
 15 16  1  0
 16 17  2  0
 17 18  1  0
 18 19  2  0
 19 20  1  0
 20 21  2  0
 20 22  1  0
 12  8  1  0
 19 14  1  0
  3 23  1  0
  3 24  1  0
  7 25  1  0
  7 26  1  0
  8 27  1  0
  9 28  1  0
  9 29  1  0
 10 30  1  0
 10 31  1  0
 11 32  1  0
 11 33  1  0
 12 34  1  0
 12 35  1  0
 13 36  1  0
 15 37  1  0
 16 38  1  0
 17 39  1  0
 18 40  1  0
M  CHG  2  20   1  22  -1
M  END
$$$$
