
     RDKit          3D

 41 43  0  0  0  0  0  0  0  0999 V2000
   -1.9489    2.3493   -1.5402 O   0  0  0  0  0  0  0  0  0  0  0  0
   -2.7098    1.8258   -0.7236 C   0  0  0  0  0  0  0  0  0  0  0  0
   -4.2090    1.7656   -0.9711 C   0  0  0  0  0  0  0  0  0  0  0  0
   -4.9639    0.7341   -0.1657 C   0  0  0  0  0  0  0  0  0  0  0  0
   -4.8698   -0.6274   -0.4965 C   0  0  0  0  0  0  0  0  0  0  0  0
   -5.5306   -1.5870    0.2716 C   0  0  0  0  0  0  0  0  0  0  0  0
   -6.2909   -1.1952    1.3742 C   0  0  0  0  0  0  0  0  0  0  0  0
   -6.3914    0.1551    1.7109 C   0  0  0  0  0  0  0  0  0  0  0  0
   -5.7297    1.1177    0.9461 C   0  0  0  0  0  0  0  0  0  0  0  0
   -2.2652    1.3261    0.4884 N   0  0  0  0  0  0  0  0  0  0  0  0
   -0.8745    1.1482    0.6133 N   0  0  0  0  0  0  0  0  0  0  0  0
   -0.2997    0.0093    0.0734 C   0  0  0  0  0  0  0  0  0  0  0  0
   -0.8928   -0.9405   -0.4263 O   0  0  0  0  0  0  0  0  0  0  0  0
    1.1799    0.1021    0.2185 C   0  0  0  0  0  0  0  0  0  0  0  0
    1.9889   -0.8660   -0.2365 C   0  0  0  0  0  0  0  0  0  0  0  0
    3.4531   -0.8832   -0.1583 C   0  0  0  0  0  0  0  0  0  0  0  0
    4.2298    0.0684   -0.8334 C   0  0  0  0  0  0  0  0  0  0  0  0
    5.6255    0.0172   -0.7693 C   0  0  0  0  0  0  0  0  0  0  0  0
    6.2573   -0.9915   -0.0308 C   0  0  0  0  0  0  0  0  0  0  0  0
    7.7342   -1.0846    0.0742 C   0  0  0  0  0  0  0  0  0  0  0  0
    8.3531   -1.9307    0.6970 O   0  0  0  0  0  0  0  0  0  0  0  0
    8.3680   -0.1094   -0.6027 O   0  0  0  0  0  0  0  0  0  0  0  0
    5.4822   -1.9499    0.6364 C   0  0  0  0  0  0  0  0  0  0  0  0
    4.0867   -1.8978    0.5693 C   0  0  0  0  0  0  0  0  0  0  0  0
    1.6171    1.5608    1.0338 S   0  0  0  0  0  0  0  0  0  0  0  0
   -0.0543    2.1051    1.1776 C   0  0  0  0  0  0  0  0  0  0  0  0
   -0.4955    3.5348    1.9222 S   0  0  0  0  0  0  0  0  0  0  0  0
   -4.6151    2.7666   -0.7800 H   0  0  0  0  0  0  0  0  0  0  0  0
   -4.3665    1.5566   -2.0362 H   0  0  0  0  0  0  0  0  0  0  0  0
   -4.2747   -0.9508   -1.3520 H   0  0  0  0  0  0  0  0  0  0  0  0
   -5.4531   -2.6405    0.0083 H   0  0  0  0  0  0  0  0  0  0  0  0
   -6.8097   -1.9431    1.9694 H   0  0  0  0  0  0  0  0  0  0  0  0
   -6.9896    0.4602    2.5686 H   0  0  0  0  0  0  0  0  0  0  0  0
   -5.8196    2.1680    1.2257 H   0  0  0  0  0  0  0  0  0  0  0  0
   -2.8275    0.6286    0.9687 H   0  0  0  0  0  0  0  0  0  0  0  0
    1.5555   -1.7481   -0.7096 H   0  0  0  0  0  0  0  0  0  0  0  0
    3.7588    0.8557   -1.4198 H   0  0  0  0  0  0  0  0  0  0  0  0
    6.2086    0.7687   -1.2982 H   0  0  0  0  0  0  0  0  0  0  0  0
    9.3182   -0.2847   -0.4296 H   0  0  0  0  0  0  0  0  0  0  0  0
    5.9621   -2.7404    1.2124 H   0  0  0  0  0  0  0  0  0  0  0  0
    3.5028   -2.6534    1.0938 H   0  0  0  0  0  0  0  0  0  0  0  0
  1  2  2  0
  2  3  1  0
  3  4  1  0
  4  5  2  0
  5  6  1  0
  6  7  2  0
  7  8  1  0
  8  9  2  0
  2 10  1  0
 10 11  1  0
 11 12  1  0
 12 13  2  0
 12 14  1  0
 14 15  2  3
 15 16  1  0
 16 17  2  0
 17 18  1  0
 18 19  2  0
 19 20  1  0
 20 21  2  0
 20 22  1  0
 19 23  1  0
 23 24  2  0
 14 25  1  0
 25 26  1  0
 26 27  2  0
  9  4  1  0
 26 11  1  0
 24 16  1  0
  3 28  1  0
  3 29  1  0
  5 30  1  0
  6 31  1  0
  7 32  1  0
  8 33  1  0
  9 34  1  0
 10 35  1  0
 15 36  1  0
 17 37  1  0
 18 38  1  0
 22 39  1  0
 23 40  1  0
 24 41  1  0
M  END
$$$$
