
     RDKit          3D

 49 51  0  0  0  0  0  0  0  0999 V2000
   -3.8095    3.4524    1.5115 C   0  0  0  0  0  0  0  0  0  0  0  0
   -3.7282    2.1458    0.7788 C   0  0  0  0  0  0  0  0  0  0  0  0
   -4.8804    1.5634    0.2410 C   0  0  0  0  0  0  0  0  0  0  0  0
   -4.8138    0.3328   -0.4221 C   0  0  0  0  0  0  0  0  0  0  0  0
   -6.0566   -0.3007   -0.9759 C   0  0  0  0  0  0  0  0  0  0  0  0
   -3.5829   -0.3354   -0.5136 C   0  0  0  0  0  0  0  0  0  0  0  0
   -2.4254    0.2226    0.0302 C   0  0  0  0  0  0  0  0  0  0  0  0
   -1.1575   -0.3851   -0.0254 N   0  0  0  0  0  0  0  0  0  0  0  0
   -0.8081   -1.6046   -0.5901 C   0  0  0  0  0  0  0  0  0  0  0  0
   -1.5753   -2.3887   -1.1433 O   0  0  0  0  0  0  0  0  0  0  0  0
    0.7071   -1.9044   -0.4667 C   0  0  0  0  0  0  0  0  0  0  0  0
    1.3616   -0.8774    0.3041 O   0  0  0  0  0  0  0  0  0  0  0  0
    2.2959   -1.3088    1.1838 C   0  0  0  0  0  0  0  0  0  0  0  0
    2.5771   -2.4693    1.4303 O   0  0  0  0  0  0  0  0  0  0  0  0
    2.9261   -0.1487    1.8671 C   0  0  0  0  0  0  0  0  0  0  0  0
    2.8158    1.1599    1.3756 C   0  0  0  0  0  0  0  0  0  0  0  0
    3.4248    2.2150    2.0586 C   0  0  0  0  0  0  0  0  0  0  0  0
    4.1437    1.9623    3.2221 C   0  0  0  0  0  0  0  0  0  0  0  0
    4.7192    3.0244    3.8524 O   0  0  0  0  0  0  0  0  0  0  0  0
    4.2706    0.6687    3.7180 C   0  0  0  0  0  0  0  0  0  0  0  0
    3.6622   -0.3888    3.0368 C   0  0  0  0  0  0  0  0  0  0  0  0
    1.4020   -1.9691   -1.8146 C   0  0  0  0  0  0  0  0  0  0  0  0
    2.3200   -2.9996   -2.0729 C   0  0  0  0  0  0  0  0  0  0  0  0
    2.9976   -3.0601   -3.2916 C   0  0  0  0  0  0  0  0  0  0  0  0
    2.7733   -2.0880   -4.2637 C   0  0  0  0  0  0  0  0  0  0  0  0
    1.8752   -1.0520   -4.0169 C   0  0  0  0  0  0  0  0  0  0  0  0
    1.1970   -0.9878   -2.7981 C   0  0  0  0  0  0  0  0  0  0  0  0
   -2.5083    1.4631    0.6768 C   0  0  0  0  0  0  0  0  0  0  0  0
   -4.6106    4.0791    1.1058 H   0  0  0  0  0  0  0  0  0  0  0  0
   -4.0030    3.2741    2.5737 H   0  0  0  0  0  0  0  0  0  0  0  0
   -2.8755    4.0151    1.4108 H   0  0  0  0  0  0  0  0  0  0  0  0
   -5.8381    2.0717    0.3371 H   0  0  0  0  0  0  0  0  0  0  0  0
   -5.8292   -0.8877   -1.8720 H   0  0  0  0  0  0  0  0  0  0  0  0
   -6.5075   -0.9576   -0.2258 H   0  0  0  0  0  0  0  0  0  0  0  0
   -6.7889    0.4606   -1.2648 H   0  0  0  0  0  0  0  0  0  0  0  0
   -3.5584   -1.2977   -1.0163 H   0  0  0  0  0  0  0  0  0  0  0  0
   -0.3894    0.1224    0.4008 H   0  0  0  0  0  0  0  0  0  0  0  0
    0.7541   -2.8763    0.0423 H   0  0  0  0  0  0  0  0  0  0  0  0
    2.2749    1.3737    0.4577 H   0  0  0  0  0  0  0  0  0  0  0  0
    3.3456    3.2312    1.6812 H   0  0  0  0  0  0  0  0  0  0  0  0
    5.2033    2.7036    4.6315 H   0  0  0  0  0  0  0  0  0  0  0  0
    4.8342    0.4635    4.6230 H   0  0  0  0  0  0  0  0  0  0  0  0
    3.7632   -1.4022    3.4221 H   0  0  0  0  0  0  0  0  0  0  0  0
    2.5165   -3.7625   -1.3209 H   0  0  0  0  0  0  0  0  0  0  0  0
    3.7016   -3.8663   -3.4809 H   0  0  0  0  0  0  0  0  0  0  0  0
    3.2991   -2.1376   -5.2136 H   0  0  0  0  0  0  0  0  0  0  0  0
    1.7008   -0.2932   -4.7755 H   0  0  0  0  0  0  0  0  0  0  0  0
    0.5037   -0.1666   -2.6295 H   0  0  0  0  0  0  0  0  0  0  0  0
   -1.6193    1.9108    1.1148 H   0  0  0  0  0  0  0  0  0  0  0  0
  1  2  1  0
  2  3  2  0
  3  4  1  0
  4  5  1  0
  4  6  2  0
  6  7  1  0
  7  8  1  0
  8  9  1  0
  9 10  2  0
  9 11  1  0
 11 12  1  0
 12 13  1  0
 13 14  2  0
 13 15  1  0
 15 16  2  0
 16 17  1  0
 17 18  2  0
 18 19  1  0
 18 20  1  0
 20 21  2  0
 11 22  1  0
 22 23  2  0
 23 24  1  0
 24 25  2  0
 25 26  1  0
 26 27  2  0
  7 28  2  0
 28  2  1  0
 21 15  1  0
 27 22  1  0
  1 29  1  0
  1 30  1  0
  1 31  1  0
  3 32  1  0
  5 33  1  0
  5 34  1  0
  5 35  1  0
  6 36  1  0
  8 37  1  0
 11 38  1  0
 16 39  1  0
 17 40  1  0
 19 41  1  0
 20 42  1  0
 21 43  1  0
 23 44  1  0
 24 45  1  0
 25 46  1  0
 26 47  1  0
 27 48  1  0
 28 49  1  0
M  END
$$$$
