
     RDKit          3D

 43 45  0  0  0  0  0  0  0  0999 V2000
   -5.2850    1.9595    1.2350 C   0  0  0  0  0  0  0  0  0  0  0  0
   -4.5184    1.6365   -0.0376 C   0  0  0  0  0  0  0  0  0  0  0  0
   -3.4832    0.5372    0.1965 C   0  0  0  0  0  0  0  0  0  0  0  0
   -2.7109    0.2217   -1.0852 C   0  0  0  0  0  0  0  0  0  0  0  0
   -1.7528   -0.8702   -0.9084 N   0  0  0  0  0  0  0  0  0  0  0  0
   -2.0616   -2.2338   -1.0266 C   0  0  0  0  0  0  0  0  0  0  0  0
   -3.4009   -2.9616   -1.6697 S   0  0  0  0  0  0  0  0  0  0  0  0
   -1.0042   -2.9607   -0.5014 N   0  0  0  0  0  0  0  0  0  0  0  0
    0.1064   -2.1041   -0.1861 C   0  0  0  0  0  0  0  0  0  0  0  0
   -0.5335   -0.7136   -0.1014 C   0  0  0  0  0  0  0  0  0  0  0  0
    0.3916    0.4198   -0.5643 C   0  0  0  0  0  0  0  0  0  0  0  0
    1.6343    0.5564    0.2968 C   0  0  0  0  0  0  0  0  0  0  0  0
    1.4670    1.1387    1.5685 C   0  0  0  0  0  0  0  0  0  0  0  0
    2.5416    1.2810    2.4374 C   0  0  0  0  0  0  0  0  0  0  0  0
    3.8034    0.8430    2.0513 C   0  0  0  0  0  0  0  0  0  0  0  0
    4.0109    0.2617    0.7926 C   0  0  0  0  0  0  0  0  0  0  0  0
    5.2982   -0.1699    0.4322 C   0  0  0  0  0  0  0  0  0  0  0  0
    5.5406   -0.7500   -0.8104 C   0  0  0  0  0  0  0  0  0  0  0  0
    4.4964   -0.9039   -1.7101 C   0  0  0  0  0  0  0  0  0  0  0  0
    3.2098   -0.4793   -1.3662 C   0  0  0  0  0  0  0  0  0  0  0  0
    2.9258    0.1108   -0.1109 C   0  0  0  0  0  0  0  0  0  0  0  0
   -6.0200    2.7479    1.0449 H   0  0  0  0  0  0  0  0  0  0  0  0
   -5.8193    1.0788    1.6052 H   0  0  0  0  0  0  0  0  0  0  0  0
   -4.6090    2.3080    2.0224 H   0  0  0  0  0  0  0  0  0  0  0  0
   -4.0218    2.5446   -0.3988 H   0  0  0  0  0  0  0  0  0  0  0  0
   -5.2262    1.3227   -0.8135 H   0  0  0  0  0  0  0  0  0  0  0  0
   -2.7859    0.8540    0.9813 H   0  0  0  0  0  0  0  0  0  0  0  0
   -3.9814   -0.3675    0.5653 H   0  0  0  0  0  0  0  0  0  0  0  0
   -3.4130   -0.0507   -1.8801 H   0  0  0  0  0  0  0  0  0  0  0  0
   -2.1670    1.1036   -1.4375 H   0  0  0  0  0  0  0  0  0  0  0  0
   -0.9525   -3.9642   -0.6274 H   0  0  0  0  0  0  0  0  0  0  0  0
    0.8203   -2.1944   -1.0097 H   0  0  0  0  0  0  0  0  0  0  0  0
    0.5747   -2.4221    0.7488 H   0  0  0  0  0  0  0  0  0  0  0  0
   -0.8644   -0.5445    0.9318 H   0  0  0  0  0  0  0  0  0  0  0  0
    0.6339    0.3070   -1.6252 H   0  0  0  0  0  0  0  0  0  0  0  0
   -0.1443    1.3770   -0.5146 H   0  0  0  0  0  0  0  0  0  0  0  0
    0.4872    1.4891    1.8888 H   0  0  0  0  0  0  0  0  0  0  0  0
    2.3979    1.7332    3.4152 H   0  0  0  0  0  0  0  0  0  0  0  0
    4.6323    0.9628    2.7461 H   0  0  0  0  0  0  0  0  0  0  0  0
    6.1306   -0.0549    1.1236 H   0  0  0  0  0  0  0  0  0  0  0  0
    6.5428   -1.0771   -1.0735 H   0  0  0  0  0  0  0  0  0  0  0  0
    4.6777   -1.3522   -2.6837 H   0  0  0  0  0  0  0  0  0  0  0  0
    2.4318   -0.6203   -2.1109 H   0  0  0  0  0  0  0  0  0  0  0  0
  1  2  1  0
  2  3  1  0
  3  4  1  0
  4  5  1  0
  5  6  1  0
  6  7  2  0
  6  8  1  0
  8  9  1  0
  9 10  1  0
 10 11  1  0
 11 12  1  0
 12 13  2  0
 13 14  1  0
 14 15  2  0
 15 16  1  0
 16 17  2  0
 17 18  1  0
 18 19  2  0
 19 20  1  0
 20 21  2  0
 10  5  1  0
 21 12  1  0
 21 16  1  0
  1 22  1  0
  1 23  1  0
  1 24  1  0
  2 25  1  0
  2 26  1  0
  3 27  1  0
  3 28  1  0
  4 29  1  0
  4 30  1  0
  8 31  1  0
  9 32  1  0
  9 33  1  0
 10 34  1  0
 11 35  1  0
 11 36  1  0
 13 37  1  0
 14 38  1  0
 15 39  1  0
 17 40  1  0
 18 41  1  0
 19 42  1  0
 20 43  1  0
M  END
$$$$
