
     RDKit          3D

 38 40  0  0  0  0  0  0  0  0999 V2000
   -5.0113   -1.9842   -2.3317 C   0  0  0  0  0  0  0  0  0  0  0  0
   -4.0456   -1.5245   -1.2802 C   0  0  0  0  0  0  0  0  0  0  0  0
   -3.8241   -0.1597   -1.0699 C   0  0  0  0  0  0  0  0  0  0  0  0
   -2.9482    0.2713   -0.0704 C   0  0  0  0  0  0  0  0  0  0  0  0
   -2.2727   -0.6544    0.7384 C   0  0  0  0  0  0  0  0  0  0  0  0
   -1.3329   -0.2094    1.8340 C   0  0  0  0  0  0  0  0  0  0  0  0
   -0.2287    0.5891    1.2115 C   0  0  0  0  0  0  0  0  0  0  0  0
    0.1065    1.9308    1.5703 C   0  0  0  0  0  0  0  0  0  0  0  0
    1.1969    2.3181    0.8256 C   0  0  0  0  0  0  0  0  0  0  0  0
    1.8672    3.4626    0.7891 O   0  0  0  0  0  0  0  0  0  0  0  0
    1.5610    1.2536    0.0372 N   0  0  0  0  0  0  0  0  0  0  0  0
    2.6644    1.2526   -0.9164 C   0  0  0  0  0  0  0  0  0  0  0  0
    3.9234    0.7664   -0.2939 C   0  0  0  0  0  0  0  0  0  0  0  0
    4.2584   -0.3593    0.4333 C   0  0  0  0  0  0  0  0  0  0  0  0
    5.6379   -0.2528    0.7293 C   0  0  0  0  0  0  0  0  0  0  0  0
    6.0614    0.9233    0.1578 C   0  0  0  0  0  0  0  0  0  0  0  0
    5.0321    1.5453   -0.4715 O   0  0  0  0  0  0  0  0  0  0  0  0
    0.6890    0.2069    0.2435 C   0  0  0  0  0  0  0  0  0  0  0  0
    0.8225   -0.9226   -0.4439 O   0  0  0  0  0  0  0  0  0  0  0  0
   -2.5234   -2.0213    0.5439 C   0  0  0  0  0  0  0  0  0  0  0  0
   -3.4006   -2.4513   -0.4551 C   0  0  0  0  0  0  0  0  0  0  0  0
   -6.0185   -2.0548   -1.9096 H   0  0  0  0  0  0  0  0  0  0  0  0
   -4.7227   -2.9644   -2.7254 H   0  0  0  0  0  0  0  0  0  0  0  0
   -5.0292   -1.2879   -3.1767 H   0  0  0  0  0  0  0  0  0  0  0  0
   -4.3315    0.5805   -1.6846 H   0  0  0  0  0  0  0  0  0  0  0  0
   -2.7901    1.3391    0.0678 H   0  0  0  0  0  0  0  0  0  0  0  0
   -0.9030   -1.0685    2.3623 H   0  0  0  0  0  0  0  0  0  0  0  0
   -1.8903    0.3814    2.5702 H   0  0  0  0  0  0  0  0  0  0  0  0
   -0.4044    2.5417    2.3028 H   0  0  0  0  0  0  0  0  0  0  0  0
    1.4681    4.0547    1.4502 H   0  0  0  0  0  0  0  0  0  0  0  0
    2.3840    0.6159   -1.7624 H   0  0  0  0  0  0  0  0  0  0  0  0
    2.7756    2.2716   -1.3031 H   0  0  0  0  0  0  0  0  0  0  0  0
    3.5801   -1.1537    0.7142 H   0  0  0  0  0  0  0  0  0  0  0  0
    6.2485   -0.9471    1.2883 H   0  0  0  0  0  0  0  0  0  0  0  0
    7.0135    1.4327    0.1090 H   0  0  0  0  0  0  0  0  0  0  0  0
    0.0076   -1.4392   -0.3084 H   0  0  0  0  0  0  0  0  0  0  0  0
   -2.0407   -2.7659    1.1739 H   0  0  0  0  0  0  0  0  0  0  0  0
   -3.5803   -3.5166   -0.5830 H   0  0  0  0  0  0  0  0  0  0  0  0
  1  2  1  0
  2  3  2  0
  3  4  1  0
  4  5  2  0
  5  6  1  0
  6  7  1  0
  7  8  1  0
  8  9  2  0
  9 10  1  0
  9 11  1  0
 11 12  1  0
 12 13  1  0
 13 14  2  0
 14 15  1  0
 15 16  2  0
 16 17  1  0
 11 18  1  0
 18 19  1  0
  5 20  1  0
 20 21  2  0
 21  2  1  0
 18  7  2  0
 17 13  1  0
  1 22  1  0
  1 23  1  0
  1 24  1  0
  3 25  1  0
  4 26  1  0
  6 27  1  0
  6 28  1  0
  8 29  1  0
 10 30  1  0
 12 31  1  0
 12 32  1  0
 14 33  1  0
 15 34  1  0
 16 35  1  0
 19 36  1  0
 20 37  1  0
 21 38  1  0
M  END
$$$$
