
     RDKit          3D

 36 38  0  0  0  0  0  0  0  0999 V2000
   -3.7339    3.7354   -1.3394 N   0  0  0  0  0  0  0  0  0  0  0  0
   -2.8357    2.9980   -1.3282 C   0  0  0  0  0  0  0  0  0  0  0  0
   -1.7560    2.0679   -1.2919 C   0  0  0  0  0  0  0  0  0  0  0  0
   -0.7714    2.1061   -2.2574 N   0  0  0  0  0  0  0  0  0  0  0  0
    0.0431    1.1352   -1.8992 C   0  0  0  0  0  0  0  0  0  0  0  0
    1.3078    0.6805   -2.5390 C   0  0  0  0  0  0  0  0  0  0  0  0
    2.3890    1.0687   -1.6767 O   0  0  0  0  0  0  0  0  0  0  0  0
    3.1232   -0.0099   -1.2612 C   0  0  0  0  0  0  0  0  0  0  0  0
    2.9559   -0.4136    0.0648 C   0  0  0  0  0  0  0  0  0  0  0  0
    3.6945   -1.4876    0.5615 C   0  0  0  0  0  0  0  0  0  0  0  0
    4.6094   -2.1399   -0.2655 C   0  0  0  0  0  0  0  0  0  0  0  0
    5.5178   -3.4646    0.3508 Cl  0  0  0  0  0  0  0  0  0  0  0  0
    4.8000   -1.7257   -1.5831 C   0  0  0  0  0  0  0  0  0  0  0  0
    4.0600   -0.6521   -2.0805 C   0  0  0  0  0  0  0  0  0  0  0  0
    4.3414   -0.1428   -3.7048 Cl  0  0  0  0  0  0  0  0  0  0  0  0
   -0.3554    0.4474   -0.7865 O   0  0  0  0  0  0  0  0  0  0  0  0
   -1.5229    1.0488   -0.3817 C   0  0  0  0  0  0  0  0  0  0  0  0
   -2.1112    0.5461    0.7465 N   0  0  0  0  0  0  0  0  0  0  0  0
   -3.5191    0.8874    1.0411 C   0  0  0  0  0  0  0  0  0  0  0  0
   -3.8959    0.4932    2.4779 C   0  0  0  0  0  0  0  0  0  0  0  0
   -3.6153   -0.8881    2.7392 O   0  0  0  0  0  0  0  0  0  0  0  0
   -2.2130   -1.1355    2.5750 C   0  0  0  0  0  0  0  0  0  0  0  0
   -1.7568   -0.8379    1.1404 C   0  0  0  0  0  0  0  0  0  0  0  0
    1.4415    1.1901   -3.4988 H   0  0  0  0  0  0  0  0  0  0  0  0
    1.2614   -0.4004   -2.7254 H   0  0  0  0  0  0  0  0  0  0  0  0
    2.2511    0.1080    0.7082 H   0  0  0  0  0  0  0  0  0  0  0  0
    3.5594   -1.8050    1.5925 H   0  0  0  0  0  0  0  0  0  0  0  0
    5.5264   -2.2306   -2.2142 H   0  0  0  0  0  0  0  0  0  0  0  0
   -4.1674    0.3564    0.3336 H   0  0  0  0  0  0  0  0  0  0  0  0
   -3.6951    1.9619    0.9432 H   0  0  0  0  0  0  0  0  0  0  0  0
   -3.3586    1.1114    3.2075 H   0  0  0  0  0  0  0  0  0  0  0  0
   -4.9675    0.6510    2.6358 H   0  0  0  0  0  0  0  0  0  0  0  0
   -1.6539   -0.5310    3.2996 H   0  0  0  0  0  0  0  0  0  0  0  0
   -2.0313   -2.1888    2.8107 H   0  0  0  0  0  0  0  0  0  0  0  0
   -2.2472   -1.5350    0.4493 H   0  0  0  0  0  0  0  0  0  0  0  0
   -0.6746   -1.0049    1.0903 H   0  0  0  0  0  0  0  0  0  0  0  0
  1  2  3  0
  2  3  1  0
  3  4  1  0
  4  5  2  0
  5  6  1  0
  6  7  1  0
  7  8  1  0
  8  9  2  0
  9 10  1  0
 10 11  2  0
 11 12  1  0
 11 13  1  0
 13 14  2  0
 14 15  1  0
  5 16  1  0
 16 17  1  0
 17 18  1  0
 18 19  1  0
 19 20  1  0
 20 21  1  0
 21 22  1  0
 22 23  1  0
 17  3  2  0
 23 18  1  0
 14  8  1  0
  6 24  1  0
  6 25  1  0
  9 26  1  0
 10 27  1  0
 13 28  1  0
 19 29  1  0
 19 30  1  0
 20 31  1  0
 20 32  1  0
 22 33  1  0
 22 34  1  0
 23 35  1  0
 23 36  1  0
M  END
$$$$
