
     RDKit          3D

 42 46  0  0  0  0  0  0  0  0999 V2000
   -1.4566   -1.7645    1.7419 O   0  0  0  0  0  0  0  0  0  0  0  0
   -1.7396   -1.2998    0.6347 C   0  0  0  0  0  0  0  0  0  0  0  0
   -3.1823   -1.2645    0.2292 C   0  0  0  0  0  0  0  0  0  0  0  0
   -4.1385   -1.7321    1.1448 C   0  0  0  0  0  0  0  0  0  0  0  0
   -5.4968   -1.7294    0.8207 C   0  0  0  0  0  0  0  0  0  0  0  0
   -5.9143   -1.2554   -0.4202 C   0  0  0  0  0  0  0  0  0  0  0  0
   -4.9752   -0.7867   -1.3370 C   0  0  0  0  0  0  0  0  0  0  0  0
   -3.6137   -0.7924   -1.0175 C   0  0  0  0  0  0  0  0  0  0  0  0
   -0.6765   -0.7648   -0.3611 C   0  0  0  0  0  0  0  0  0  0  0  0
   -0.8709    0.6147   -0.6823 O   0  0  0  0  0  0  0  0  0  0  0  0
   -0.4225    1.4909    0.2710 C   0  0  0  0  0  0  0  0  0  0  0  0
   -0.9661    2.7748    0.2314 C   0  0  0  0  0  0  0  0  0  0  0  0
   -0.5778    3.7258    1.1739 C   0  0  0  0  0  0  0  0  0  0  0  0
    0.3555    3.3928    2.1536 C   0  0  0  0  0  0  0  0  0  0  0  0
    0.9130    2.1132    2.1823 C   0  0  0  0  0  0  0  0  0  0  0  0
    0.5451    1.1544    1.2256 C   0  0  0  0  0  0  0  0  0  0  0  0
    1.1524   -0.2271    1.2314 C   0  0  0  0  0  0  0  0  0  0  0  0
    2.6683   -0.2496    1.0875 C   0  0  0  0  0  0  0  0  0  0  0  0
    2.7905   -0.6717   -0.3507 C   0  0  0  0  0  0  0  0  0  0  0  0
    4.0332   -0.6550   -1.0873 C   0  0  0  0  0  0  0  0  0  0  0  0
    4.2246   -0.9640   -2.4217 C   0  0  0  0  0  0  0  0  0  0  0  0
    5.5860   -0.8442   -2.8244 C   0  0  0  0  0  0  0  0  0  0  0  0
    6.3946   -0.4500   -1.7832 C   0  0  0  0  0  0  0  0  0  0  0  0
    5.5113   -0.2261   -0.3374 S   0  0  0  0  0  0  0  0  0  0  0  0
    1.6808   -1.0778   -0.8960 N   0  0  0  0  0  0  0  0  0  0  0  0
    0.6989   -0.9868    0.0737 N   0  0  0  0  0  0  0  0  0  0  0  0
   -3.8300   -2.1041    2.1206 H   0  0  0  0  0  0  0  0  0  0  0  0
   -6.2260   -2.0972    1.5387 H   0  0  0  0  0  0  0  0  0  0  0  0
   -6.9714   -1.2507   -0.6736 H   0  0  0  0  0  0  0  0  0  0  0  0
   -5.3037   -0.4135   -2.3047 H   0  0  0  0  0  0  0  0  0  0  0  0
   -2.9202   -0.4176   -1.7645 H   0  0  0  0  0  0  0  0  0  0  0  0
   -0.7957   -1.3477   -1.2831 H   0  0  0  0  0  0  0  0  0  0  0  0
   -1.6996    3.0311   -0.5281 H   0  0  0  0  0  0  0  0  0  0  0  0
   -1.0075    4.7236    1.1473 H   0  0  0  0  0  0  0  0  0  0  0  0
    0.6512    4.1314    2.8949 H   0  0  0  0  0  0  0  0  0  0  0  0
    1.6382    1.8711    2.9560 H   0  0  0  0  0  0  0  0  0  0  0  0
    0.8393   -0.7478    2.1429 H   0  0  0  0  0  0  0  0  0  0  0  0
    3.1141   -1.0293    1.7150 H   0  0  0  0  0  0  0  0  0  0  0  0
    3.1592    0.7070    1.2813 H   0  0  0  0  0  0  0  0  0  0  0  0
    3.4148   -1.2627   -3.0780 H   0  0  0  0  0  0  0  0  0  0  0  0
    5.9509   -1.0370   -3.8256 H   0  0  0  0  0  0  0  0  0  0  0  0
    7.4627   -0.2813   -1.8013 H   0  0  0  0  0  0  0  0  0  0  0  0
  1  2  2  0
  2  3  1  0
  3  4  2  0
  4  5  1  0
  5  6  2  0
  6  7  1  0
  7  8  2  0
  2  9  1  0
  9 10  1  0
 10 11  1  0
 11 12  2  0
 12 13  1  0
 13 14  2  0
 14 15  1  0
 15 16  2  0
 16 17  1  0
 17 18  1  0
 18 19  1  0
 19 20  1  0
 20 21  2  0
 21 22  1  0
 22 23  2  0
 23 24  1  0
 19 25  2  0
 25 26  1  0
  8  3  1  0
 26  9  1  0
 16 11  1  0
 26 17  1  0
 24 20  1  0
  4 27  1  0
  5 28  1  0
  6 29  1  0
  7 30  1  0
  8 31  1  0
  9 32  1  0
 12 33  1  0
 13 34  1  0
 14 35  1  0
 15 36  1  0
 17 37  1  0
 18 38  1  0
 18 39  1  0
 21 40  1  0
 22 41  1  0
 23 42  1  0
M  END
$$$$
