
     RDKit          3D

 52 54  0  0  0  0  0  0  0  0999 V2000
    4.9782   -1.3047    0.1004 C   0  0  0  0  0  0  0  0  0  0  0  0
    5.6134   -0.5135   -0.9421 N   0  0  0  0  0  0  0  0  0  0  0  0
    6.4048    0.6454   -0.5155 C   0  0  0  0  0  0  0  0  0  0  0  0
    5.5872    1.9380   -0.4954 C   0  0  0  0  0  0  0  0  0  0  0  0
    6.3895    3.0386    0.0477 C   0  0  0  0  0  0  0  0  0  0  0  0
    7.0254    3.8963    0.5024 N   0  0  0  0  0  0  0  0  0  0  0  0
    5.3236   -0.6215   -2.3007 C   0  0  0  0  0  0  0  0  0  0  0  0
    5.8948    0.0853   -3.1352 O   0  0  0  0  0  0  0  0  0  0  0  0
    4.3002   -1.6766   -2.7564 C   0  0  0  0  0  0  0  0  0  0  0  0
    3.0486   -1.7550   -2.0758 O   0  0  0  0  0  0  0  0  0  0  0  0
    2.3150   -0.6171   -2.0822 C   0  0  0  0  0  0  0  0  0  0  0  0
    2.6525    0.4543   -2.5542 O   0  0  0  0  0  0  0  0  0  0  0  0
    1.0145   -0.8297   -1.3893 C   0  0  0  0  0  0  0  0  0  0  0  0
    0.5946   -2.1122   -0.9526 C   0  0  0  0  0  0  0  0  0  0  0  0
   -0.6334   -2.2860   -0.3009 C   0  0  0  0  0  0  0  0  0  0  0  0
   -1.4128   -1.1624   -0.1080 C   0  0  0  0  0  0  0  0  0  0  0  0
   -1.0094    0.0879   -0.5325 C   0  0  0  0  0  0  0  0  0  0  0  0
    0.1966    0.2921   -1.1758 C   0  0  0  0  0  0  0  0  0  0  0  0
   -2.0540    1.0362   -0.1554 C   0  0  0  0  0  0  0  0  0  0  0  0
   -1.9688    2.2355   -0.3347 O   0  0  0  0  0  0  0  0  0  0  0  0
   -3.0585    0.3089    0.4297 N   0  0  0  0  0  0  0  0  0  0  0  0
   -4.2478    0.9256    1.0187 C   0  0  0  0  0  0  0  0  0  0  0  0
   -5.5599    0.2476    0.5742 C   0  0  0  0  0  0  0  0  0  0  0  0
   -6.2610   -0.5023    1.7030 C   0  0  0  0  0  0  0  0  0  0  0  0
   -6.5443    0.3978    2.9049 C   0  0  0  0  0  0  0  0  0  0  0  0
   -5.4394    1.4168    3.1876 C   0  0  0  0  0  0  0  0  0  0  0  0
   -4.1126    1.0293    2.5474 C   0  0  0  0  0  0  0  0  0  0  0  0
   -2.7150   -1.0127    0.5375 C   0  0  0  0  0  0  0  0  0  0  0  0
   -3.3032   -1.9344    1.0681 O   0  0  0  0  0  0  0  0  0  0  0  0
    4.6854   -2.2890   -0.2697 H   0  0  0  0  0  0  0  0  0  0  0  0
    4.0968   -0.7685    0.4626 H   0  0  0  0  0  0  0  0  0  0  0  0
    5.6816   -1.4526    0.9251 H   0  0  0  0  0  0  0  0  0  0  0  0
    7.2540    0.7585   -1.2019 H   0  0  0  0  0  0  0  0  0  0  0  0
    6.8332    0.4324    0.4717 H   0  0  0  0  0  0  0  0  0  0  0  0
    4.6892    1.8009    0.1184 H   0  0  0  0  0  0  0  0  0  0  0  0
    5.2420    2.1904   -1.5040 H   0  0  0  0  0  0  0  0  0  0  0  0
    4.7847   -2.6554   -2.6657 H   0  0  0  0  0  0  0  0  0  0  0  0
    4.1015   -1.5273   -3.8251 H   0  0  0  0  0  0  0  0  0  0  0  0
    1.2202   -2.9873   -1.1213 H   0  0  0  0  0  0  0  0  0  0  0  0
   -0.9648   -3.2626    0.0398 H   0  0  0  0  0  0  0  0  0  0  0  0
    0.4899    1.2876   -1.4993 H   0  0  0  0  0  0  0  0  0  0  0  0
   -4.2852    1.9524    0.6294 H   0  0  0  0  0  0  0  0  0  0  0  0
   -5.3957   -0.4235   -0.2771 H   0  0  0  0  0  0  0  0  0  0  0  0
   -6.2451    1.0267    0.2134 H   0  0  0  0  0  0  0  0  0  0  0  0
   -5.6417   -1.3471    2.0246 H   0  0  0  0  0  0  0  0  0  0  0  0
   -7.2013   -0.9324    1.3395 H   0  0  0  0  0  0  0  0  0  0  0  0
   -7.4866    0.9365    2.7484 H   0  0  0  0  0  0  0  0  0  0  0  0
   -6.6996   -0.2340    3.7878 H   0  0  0  0  0  0  0  0  0  0  0  0
   -5.7481    2.3973    2.8030 H   0  0  0  0  0  0  0  0  0  0  0  0
   -5.3160    1.5361    4.2701 H   0  0  0  0  0  0  0  0  0  0  0  0
   -3.7668    0.0802    2.9764 H   0  0  0  0  0  0  0  0  0  0  0  0
   -3.3462    1.7733    2.7978 H   0  0  0  0  0  0  0  0  0  0  0  0
  1  2  1  0
  2  3  1  0
  3  4  1  0
  4  5  1  0
  5  6  3  0
  2  7  1  0
  7  8  2  0
  7  9  1  0
  9 10  1  0
 10 11  1  0
 11 12  2  0
 11 13  1  0
 13 14  2  0
 14 15  1  0
 15 16  2  0
 16 17  1  0
 17 18  2  0
 17 19  1  0
 19 20  2  0
 19 21  1  0
 21 22  1  0
 22 23  1  0
 23 24  1  0
 24 25  1  0
 25 26  1  0
 26 27  1  0
 21 28  1  0
 28 29  2  0
 18 13  1  0
 27 22  1  0
 28 16  1  0
  1 30  1  0
  1 31  1  0
  1 32  1  0
  3 33  1  0
  3 34  1  0
  4 35  1  0
  4 36  1  0
  9 37  1  0
  9 38  1  0
 14 39  1  0
 15 40  1  0
 18 41  1  0
 22 42  1  0
 23 43  1  0
 23 44  1  0
 24 45  1  0
 24 46  1  0
 25 47  1  0
 25 48  1  0
 26 49  1  0
 26 50  1  0
 27 51  1  0
 27 52  1  0
M  END
$$$$
