
     RDKit          3D

 37 40  0  0  0  0  0  0  0  0999 V2000
    2.3318    2.3466    1.0843 O   0  0  0  0  0  0  0  0  0  0  0  0
    2.9099    1.3283    0.7677 C   0  0  0  0  0  0  0  0  0  0  0  0
    4.2379    1.2177    0.4947 O   0  0  0  0  0  0  0  0  0  0  0  0
    4.4489   -0.0791    0.1693 C   0  0  0  0  0  0  0  0  0  0  0  0
    5.7965   -0.4158   -0.1646 C   0  0  0  0  0  0  0  0  0  0  0  0
    6.3699   -1.6157   -0.5435 C   0  0  0  0  0  0  0  0  0  0  0  0
    7.7474   -1.3632   -0.7513 C   0  0  0  0  0  0  0  0  0  0  0  0
    7.9339   -0.0275   -0.4876 C   0  0  0  0  0  0  0  0  0  0  0  0
    6.7609    0.5553   -0.1315 O   0  0  0  0  0  0  0  0  0  0  0  0
    3.4370   -0.8838    0.1885 N   0  0  0  0  0  0  0  0  0  0  0  0
    2.3988   -0.0642    0.5715 C   0  0  0  0  0  0  0  0  0  0  0  0
    1.1485   -0.5288    0.6911 C   0  0  0  0  0  0  0  0  0  0  0  0
   -0.0074    0.1981    1.0767 C   0  0  0  0  0  0  0  0  0  0  0  0
   -0.2109    1.2032    2.0126 C   0  0  0  0  0  0  0  0  0  0  0  0
   -1.5860    1.5429    2.0039 C   0  0  0  0  0  0  0  0  0  0  0  0
   -2.1859    0.7170    1.0809 C   0  0  0  0  0  0  0  0  0  0  0  0
   -3.5531    0.5417    0.5953 C   0  0  0  0  0  0  0  0  0  0  0  0
   -4.5930    1.3448    1.0850 C   0  0  0  0  0  0  0  0  0  0  0  0
   -5.9025    1.1870    0.6234 C   0  0  0  0  0  0  0  0  0  0  0  0
   -6.1939    0.2194   -0.3359 C   0  0  0  0  0  0  0  0  0  0  0  0
   -5.1791   -0.6052   -0.8391 C   0  0  0  0  0  0  0  0  0  0  0  0
   -5.4775   -1.6405   -1.8943 C   0  0  0  0  0  0  0  0  0  0  0  0
   -6.7721   -2.0668   -1.8763 F   0  0  0  0  0  0  0  0  0  0  0  0
   -5.2564   -1.1752   -3.1546 F   0  0  0  0  0  0  0  0  0  0  0  0
   -4.7177   -2.7646   -1.7711 F   0  0  0  0  0  0  0  0  0  0  0  0
   -3.8643   -0.4285   -0.3714 C   0  0  0  0  0  0  0  0  0  0  0  0
   -1.2404   -0.1013    0.5372 O   0  0  0  0  0  0  0  0  0  0  0  0
    5.8476   -2.5567   -0.6546 H   0  0  0  0  0  0  0  0  0  0  0  0
    8.5100   -2.0665   -1.0558 H   0  0  0  0  0  0  0  0  0  0  0  0
    8.7945    0.6274   -0.5063 H   0  0  0  0  0  0  0  0  0  0  0  0
    0.9739   -1.5704    0.4319 H   0  0  0  0  0  0  0  0  0  0  0  0
    0.5465    1.6493    2.6427 H   0  0  0  0  0  0  0  0  0  0  0  0
   -2.0703    2.2962    2.6082 H   0  0  0  0  0  0  0  0  0  0  0  0
   -4.3975    2.1100    1.8325 H   0  0  0  0  0  0  0  0  0  0  0  0
   -6.6943    1.8228    1.0128 H   0  0  0  0  0  0  0  0  0  0  0  0
   -7.2180    0.1094   -0.6901 H   0  0  0  0  0  0  0  0  0  0  0  0
   -3.0736   -1.0635   -0.7722 H   0  0  0  0  0  0  0  0  0  0  0  0
  1  2  2  0
  2  3  1  0
  3  4  1  0
  4  5  1  0
  5  6  2  0
  6  7  1  0
  7  8  2  0
  8  9  1  0
  4 10  2  0
 10 11  1  0
 11 12  2  3
 12 13  1  0
 13 14  2  0
 14 15  1  0
 15 16  2  0
 16 17  1  0
 17 18  2  0
 18 19  1  0
 19 20  2  0
 20 21  1  0
 21 22  1  0
 22 23  1  0
 22 24  1  0
 22 25  1  0
 21 26  2  0
 16 27  1  0
 11  2  1  0
 27 13  1  0
  9  5  1  0
 26 17  1  0
  6 28  1  0
  7 29  1  0
  8 30  1  0
 12 31  1  0
 14 32  1  0
 15 33  1  0
 18 34  1  0
 19 35  1  0
 20 36  1  0
 26 37  1  0
M  END
$$$$
