
     RDKit          3D

 46 49  0  0  0  0  0  0  0  0999 V2000
    0.1700    1.8882   -1.5234 O   0  0  0  0  0  0  0  0  0  0  0  0
    0.5946    1.2079   -0.5937 C   0  0  0  0  0  0  0  0  0  0  0  0
    2.0842    1.0534   -0.3321 C   0  0  0  0  0  0  0  0  0  0  0  0
    2.5274   -0.7132   -0.2097 S   0  0  0  0  0  0  0  0  0  0  0  0
    4.3038   -0.5753   -0.0586 C   0  0  0  0  0  0  0  0  0  0  0  0
    4.7535    0.5929    0.4733 N   0  0  0  0  0  0  0  0  0  0  0  0
    6.0812    0.7215    0.6962 C   0  0  0  0  0  0  0  0  0  0  0  0
    7.0056   -0.2715    0.4289 C   0  0  0  0  0  0  0  0  0  0  0  0
    6.5418   -1.4655   -0.1096 C   0  0  0  0  0  0  0  0  0  0  0  0
    5.1750   -1.6181   -0.3709 C   0  0  0  0  0  0  0  0  0  0  0  0
    4.7392   -2.8971   -0.9402 C   0  0  0  0  0  0  0  0  0  0  0  0
    5.0034   -3.9966   -0.4930 O   0  0  0  0  0  0  0  0  0  0  0  0
    4.1050   -2.7280   -2.1113 O   0  0  0  0  0  0  0  0  0  0  0  0
   -0.2120    0.5776    0.3360 N   0  0  0  0  0  0  0  0  0  0  0  0
   -1.6747    0.5101    0.2657 C   0  0  0  0  0  0  0  0  0  0  0  0
   -2.1853   -0.2717    1.5066 C   0  0  0  0  0  0  0  0  0  0  0  0
   -3.7175   -0.3901    1.4927 C   0  0  0  0  0  0  0  0  0  0  0  0
   -4.3314    1.0181    1.5044 C   0  0  0  0  0  0  0  0  0  0  0  0
   -3.8596    1.8051    0.2721 C   0  0  0  0  0  0  0  0  0  0  0  0
   -4.2927    1.0607   -1.0026 C   0  0  0  0  0  0  0  0  0  0  0  0
   -3.6829   -0.3513   -1.0245 C   0  0  0  0  0  0  0  0  0  0  0  0
   -4.1547   -1.1260    0.2163 C   0  0  0  0  0  0  0  0  0  0  0  0
   -2.1481   -0.2415   -1.0024 C   0  0  0  0  0  0  0  0  0  0  0  0
   -2.3246    1.9168    0.2956 C   0  0  0  0  0  0  0  0  0  0  0  0
    2.6313    1.5120   -1.1620 H   0  0  0  0  0  0  0  0  0  0  0  0
    2.3234    1.5818    0.5963 H   0  0  0  0  0  0  0  0  0  0  0  0
    6.3897    1.6750    1.1171 H   0  0  0  0  0  0  0  0  0  0  0  0
    8.0595   -0.1207    0.6362 H   0  0  0  0  0  0  0  0  0  0  0  0
    7.2373   -2.2728   -0.3279 H   0  0  0  0  0  0  0  0  0  0  0  0
    3.8901   -3.6347   -2.4152 H   0  0  0  0  0  0  0  0  0  0  0  0
    0.2546   -0.1365    0.8854 H   0  0  0  0  0  0  0  0  0  0  0  0
   -1.8597    0.2292    2.4282 H   0  0  0  0  0  0  0  0  0  0  0  0
   -1.7394   -1.2752    1.5304 H   0  0  0  0  0  0  0  0  0  0  0  0
   -4.0538   -0.9473    2.3742 H   0  0  0  0  0  0  0  0  0  0  0  0
   -5.4262    0.9500    1.5094 H   0  0  0  0  0  0  0  0  0  0  0  0
   -4.0411    1.5466    2.4207 H   0  0  0  0  0  0  0  0  0  0  0  0
   -4.3023    2.8074    0.2829 H   0  0  0  0  0  0  0  0  0  0  0  0
   -5.3870    0.9957   -1.0436 H   0  0  0  0  0  0  0  0  0  0  0  0
   -3.9737    1.6205   -1.8903 H   0  0  0  0  0  0  0  0  0  0  0  0
   -4.0017   -0.8775   -1.9313 H   0  0  0  0  0  0  0  0  0  0  0  0
   -5.2465   -1.2312    0.1997 H   0  0  0  0  0  0  0  0  0  0  0  0
   -3.7371   -2.1403    0.2062 H   0  0  0  0  0  0  0  0  0  0  0  0
   -1.8115    0.2742   -1.9098 H   0  0  0  0  0  0  0  0  0  0  0  0
   -1.7015   -1.2440   -1.0358 H   0  0  0  0  0  0  0  0  0  0  0  0
   -2.0028    2.4619    1.1927 H   0  0  0  0  0  0  0  0  0  0  0  0
   -2.0027    2.5195   -0.5610 H   0  0  0  0  0  0  0  0  0  0  0  0
  1  2  2  0
  2  3  1  0
  3  4  1  0
  4  5  1  0
  5  6  2  0
  6  7  1  0
  7  8  2  0
  8  9  1  0
  9 10  2  0
 10 11  1  0
 11 12  2  0
 11 13  1  0
  2 14  1  0
 14 15  1  0
 15 16  1  0
 16 17  1  0
 17 18  1  0
 18 19  1  0
 19 20  1  0
 20 21  1  0
 21 22  1  0
 21 23  1  0
 19 24  1  0
 10  5  1  0
 23 15  1  0
 24 15  1  0
 22 17  1  0
  3 25  1  0
  3 26  1  0
  7 27  1  0
  8 28  1  0
  9 29  1  0
 13 30  1  0
 14 31  1  0
 16 32  1  0
 16 33  1  0
 17 34  1  0
 18 35  1  0
 18 36  1  0
 19 37  1  0
 20 38  1  0
 20 39  1  0
 21 40  1  0
 22 41  1  0
 22 42  1  0
 23 43  1  0
 23 44  1  0
 24 45  1  0
 24 46  1  0
M  END
$$$$
