
     RDKit          3D

 57 60  0  0  0  0  0  0  0  0999 V2000
   -1.8730    0.6740    2.8248 O   0  0  0  0  0  0  0  0  0  0  0  0
   -1.2103    0.6251    1.7953 C   0  0  0  0  0  0  0  0  0  0  0  0
    0.2953    0.8010    1.7488 C   0  0  0  0  0  0  0  0  0  0  0  0
    0.9302    0.8022    3.1361 C   0  0  0  0  0  0  0  0  0  0  0  0
    2.4369    1.0886    3.1357 C   0  0  0  0  0  0  0  0  0  0  0  0
    3.2673    0.0980    2.3118 C   0  0  0  0  0  0  0  0  0  0  0  0
    3.6417    0.6513    0.9304 C   0  0  0  0  0  0  0  0  0  0  0  0
    4.2444   -0.3744    0.0858 N   0  0  0  0  0  0  0  0  0  0  0  0
    3.4103   -1.1040   -0.7475 C   0  0  0  0  0  0  0  0  0  0  0  0
    2.1949   -0.9273   -0.8370 O   0  0  0  0  0  0  0  0  0  0  0  0
    3.9972   -2.0749   -1.5090 N   0  0  0  0  0  0  0  0  0  0  0  0
    5.3582   -2.3655   -1.4835 C   0  0  0  0  0  0  0  0  0  0  0  0
    5.8746   -3.3680   -2.3045 C   0  0  0  0  0  0  0  0  0  0  0  0
    7.2426   -3.6524   -2.2703 C   0  0  0  0  0  0  0  0  0  0  0  0
    8.0880   -2.9399   -1.4178 C   0  0  0  0  0  0  0  0  0  0  0  0
    7.5674   -1.9389   -0.5968 C   0  0  0  0  0  0  0  0  0  0  0  0
    6.1982   -1.6550   -0.6340 C   0  0  0  0  0  0  0  0  0  0  0  0
    5.6129   -0.6052    0.2216 C   0  0  0  0  0  0  0  0  0  0  0  0
    6.3390    0.0043    1.0033 O   0  0  0  0  0  0  0  0  0  0  0  0
   -1.7584    0.4306    0.5452 N   0  0  0  0  0  0  0  0  0  0  0  0
   -3.1797    0.2046    0.3575 C   0  0  0  0  0  0  0  0  0  0  0  0
   -3.9976    1.4946    0.4547 C   0  0  0  0  0  0  0  0  0  0  0  0
   -5.4429    1.2701    0.1404 C   0  0  0  0  0  0  0  0  0  0  0  0
   -6.4381    0.9671    1.0492 C   0  0  0  0  0  0  0  0  0  0  0  0
   -7.6172    0.8353    0.3695 N   0  0  0  0  0  0  0  0  0  0  0  0
   -7.4180    1.0473   -0.9749 C   0  0  0  0  0  0  0  0  0  0  0  0
   -8.3296    1.0188   -2.0375 C   0  0  0  0  0  0  0  0  0  0  0  0
   -7.8385    1.2812   -3.3199 C   0  0  0  0  0  0  0  0  0  0  0  0
   -6.4898    1.5588   -3.5282 C   0  0  0  0  0  0  0  0  0  0  0  0
   -5.5921    1.5822   -2.4546 C   0  0  0  0  0  0  0  0  0  0  0  0
   -6.0616    1.3234   -1.1500 C   0  0  0  0  0  0  0  0  0  0  0  0
    0.7062   -0.0194    1.1531 H   0  0  0  0  0  0  0  0  0  0  0  0
    0.5063    1.7470    1.2375 H   0  0  0  0  0  0  0  0  0  0  0  0
    0.7463   -0.1659    3.6193 H   0  0  0  0  0  0  0  0  0  0  0  0
    0.4386    1.5546    3.7655 H   0  0  0  0  0  0  0  0  0  0  0  0
    2.6211    2.1180    2.8053 H   0  0  0  0  0  0  0  0  0  0  0  0
    2.7758    1.0354    4.1782 H   0  0  0  0  0  0  0  0  0  0  0  0
    4.1964   -0.1154    2.8557 H   0  0  0  0  0  0  0  0  0  0  0  0
    2.7457   -0.8623    2.2209 H   0  0  0  0  0  0  0  0  0  0  0  0
    2.7623    1.0615    0.4243 H   0  0  0  0  0  0  0  0  0  0  0  0
    4.3500    1.4801    1.0504 H   0  0  0  0  0  0  0  0  0  0  0  0
    3.3725   -2.5889   -2.1154 H   0  0  0  0  0  0  0  0  0  0  0  0
    5.2308   -3.9337   -2.9721 H   0  0  0  0  0  0  0  0  0  0  0  0
    7.6517   -4.4326   -2.9084 H   0  0  0  0  0  0  0  0  0  0  0  0
    9.1523   -3.1635   -1.3926 H   0  0  0  0  0  0  0  0  0  0  0  0
    8.2261   -1.3850    0.0681 H   0  0  0  0  0  0  0  0  0  0  0  0
   -1.1390    0.3060   -0.2471 H   0  0  0  0  0  0  0  0  0  0  0  0
   -3.2992   -0.2573   -0.6287 H   0  0  0  0  0  0  0  0  0  0  0  0
   -3.5187   -0.5205    1.1066 H   0  0  0  0  0  0  0  0  0  0  0  0
   -3.9051    1.9237    1.4596 H   0  0  0  0  0  0  0  0  0  0  0  0
   -3.5853    2.2457   -0.2303 H   0  0  0  0  0  0  0  0  0  0  0  0
   -6.4020    0.8350    2.1225 H   0  0  0  0  0  0  0  0  0  0  0  0
   -8.5099    0.6167    0.7891 H   0  0  0  0  0  0  0  0  0  0  0  0
   -9.3812    0.8046   -1.8777 H   0  0  0  0  0  0  0  0  0  0  0  0
   -8.5213    1.2719   -4.1658 H   0  0  0  0  0  0  0  0  0  0  0  0
   -6.1289    1.7626   -4.5331 H   0  0  0  0  0  0  0  0  0  0  0  0
   -4.5439    1.8044   -2.6291 H   0  0  0  0  0  0  0  0  0  0  0  0
  1  2  2  0
  2  3  1  0
  3  4  1  0
  4  5  1  0
  5  6  1  0
  6  7  1  0
  7  8  1  0
  8  9  1  0
  9 10  2  0
  9 11  1  0
 11 12  1  0
 12 13  2  0
 13 14  1  0
 14 15  2  0
 15 16  1  0
 16 17  2  0
 17 18  1  0
 18 19  2  0
  2 20  1  0
 20 21  1  0
 21 22  1  0
 22 23  1  0
 23 24  2  0
 24 25  1  0
 25 26  1  0
 26 27  2  0
 27 28  1  0
 28 29  2  0
 29 30  1  0
 30 31  2  0
 18  8  1  0
 31 23  1  0
 17 12  1  0
 31 26  1  0
  3 32  1  0
  3 33  1  0
  4 34  1  0
  4 35  1  0
  5 36  1  0
  5 37  1  0
  6 38  1  0
  6 39  1  0
  7 40  1  0
  7 41  1  0
 11 42  1  0
 13 43  1  0
 14 44  1  0
 15 45  1  0
 16 46  1  0
 20 47  1  0
 21 48  1  0
 21 49  1  0
 22 50  1  0
 22 51  1  0
 24 52  1  0
 25 53  1  0
 27 54  1  0
 28 55  1  0
 29 56  1  0
 30 57  1  0
M  END
$$$$
