
     RDKit          3D

 68 70  0  0  0  0  0  0  0  0999 V2000
    3.5898    3.2417    0.5969 C   0  0  0  0  0  0  0  0  0  0  0  0
    4.4659    3.1096   -0.6366 C   0  0  0  0  0  0  0  0  0  0  0  0
    5.1490    1.8055   -0.7364 N   0  0  0  0  0  0  0  0  0  0  0  0
    6.1637    1.4778    0.2782 C   0  0  0  0  0  0  0  0  0  0  0  0
    7.5533    1.7206   -0.2824 C   0  0  0  0  0  0  0  0  0  0  0  0
    4.5490    0.5891   -1.7417 S   0  0  0  0  0  6  0  0  0  0  0  0
    5.6043   -0.3805   -1.9584 O   0  0  0  0  0  0  0  0  0  0  0  0
    3.8663    1.1963   -2.8641 O   0  0  0  0  0  0  0  0  0  0  0  0
    3.3197   -0.2120   -0.7341 C   0  0  0  0  0  0  0  0  0  0  0  0
    3.6590   -1.3535   -0.0078 C   0  0  0  0  0  0  0  0  0  0  0  0
    2.6822   -2.0204    0.7375 C   0  0  0  0  0  0  0  0  0  0  0  0
    1.3580   -1.5632    0.7650 C   0  0  0  0  0  0  0  0  0  0  0  0
    0.3318   -2.2162    1.4754 N   0  0  0  0  0  0  0  0  0  0  0  0
   -0.5183   -3.0980    0.6350 C   0  0  0  0  0  0  0  0  0  0  0  0
   -0.0311   -4.5521    0.6571 C   0  0  0  0  0  0  0  0  0  0  0  0
    0.0354   -5.0476    2.0021 O   0  0  0  0  0  0  0  0  0  0  0  0
    0.9886   -4.2900    2.7603 C   0  0  0  0  0  0  0  0  0  0  0  0
    0.6372   -2.7924    2.8056 C   0  0  0  0  0  0  0  0  0  0  0  0
    1.0406   -0.3834    0.0333 C   0  0  0  0  0  0  0  0  0  0  0  0
   -0.2834    0.0920    0.1695 N   0  0  0  0  0  0  0  0  0  0  0  0
   -0.8024    1.2980   -0.2473 C   0  0  0  0  0  0  0  0  0  0  0  0
   -0.1956    2.1924   -0.8299 O   0  0  0  0  0  0  0  0  0  0  0  0
   -2.2857    1.4284    0.0463 C   0  0  0  0  0  0  0  0  0  0  0  0
   -3.0981    0.9168   -1.1440 C   0  0  0  0  0  0  0  0  0  0  0  0
   -4.6132    1.1387   -0.9895 C   0  0  0  0  0  0  0  0  0  0  0  0
   -5.2365    0.2483    0.0917 C   0  0  0  0  0  0  0  0  0  0  0  0
   -6.7235    0.5563    0.2998 C   0  0  0  0  0  0  0  0  0  0  0  0
   -7.4149    1.1270   -0.9388 C   0  0  0  0  0  0  0  0  0  0  0  0
   -6.8081    0.5788   -2.2218 C   0  0  0  0  0  0  0  0  0  0  0  0
   -5.3183    0.9069   -2.3436 C   0  0  0  0  0  0  0  0  0  0  0  0
    2.0079    0.2623   -0.7387 C   0  0  0  0  0  0  0  0  0  0  0  0
    3.1202    4.2305    0.6111 H   0  0  0  0  0  0  0  0  0  0  0  0
    2.7924    2.4970    0.6155 H   0  0  0  0  0  0  0  0  0  0  0  0
    4.1655    3.1407    1.5226 H   0  0  0  0  0  0  0  0  0  0  0  0
    5.2311    3.8947   -0.6300 H   0  0  0  0  0  0  0  0  0  0  0  0
    3.8623    3.2983   -1.5300 H   0  0  0  0  0  0  0  0  0  0  0  0
    6.0352    2.0927    1.1708 H   0  0  0  0  0  0  0  0  0  0  0  0
    6.0643    0.4413    0.6094 H   0  0  0  0  0  0  0  0  0  0  0  0
    8.3136    1.4721    0.4657 H   0  0  0  0  0  0  0  0  0  0  0  0
    7.7408    1.1162   -1.1763 H   0  0  0  0  0  0  0  0  0  0  0  0
    7.6815    2.7715   -0.5628 H   0  0  0  0  0  0  0  0  0  0  0  0
    4.6742   -1.7440   -0.0309 H   0  0  0  0  0  0  0  0  0  0  0  0
    2.9826   -2.9148    1.2700 H   0  0  0  0  0  0  0  0  0  0  0  0
   -1.5295   -3.0606    1.0572 H   0  0  0  0  0  0  0  0  0  0  0  0
   -0.5903   -2.7405   -0.3985 H   0  0  0  0  0  0  0  0  0  0  0  0
   -0.7357   -5.1849    0.1074 H   0  0  0  0  0  0  0  0  0  0  0  0
    0.9517   -4.6574    0.1824 H   0  0  0  0  0  0  0  0  0  0  0  0
    1.9847   -4.4706    2.3436 H   0  0  0  0  0  0  0  0  0  0  0  0
    0.9952   -4.6913    3.7795 H   0  0  0  0  0  0  0  0  0  0  0  0
    1.4228   -2.2265    3.3225 H   0  0  0  0  0  0  0  0  0  0  0  0
   -0.2730   -2.6788    3.4091 H   0  0  0  0  0  0  0  0  0  0  0  0
   -0.8412   -0.4894    0.7882 H   0  0  0  0  0  0  0  0  0  0  0  0
   -2.5291    0.8770    0.9624 H   0  0  0  0  0  0  0  0  0  0  0  0
   -2.4986    2.4868    0.2432 H   0  0  0  0  0  0  0  0  0  0  0  0
   -2.7531    1.4363   -2.0486 H   0  0  0  0  0  0  0  0  0  0  0  0
   -2.8888   -0.1492   -1.3055 H   0  0  0  0  0  0  0  0  0  0  0  0
   -4.7724    2.1885   -0.7033 H   0  0  0  0  0  0  0  0  0  0  0  0
   -5.1266   -0.8054   -0.2012 H   0  0  0  0  0  0  0  0  0  0  0  0
   -4.7189    0.3568    1.0515 H   0  0  0  0  0  0  0  0  0  0  0  0
   -6.8418    1.2692    1.1251 H   0  0  0  0  0  0  0  0  0  0  0  0
   -7.2310   -0.3636    0.6159 H   0  0  0  0  0  0  0  0  0  0  0  0
   -8.4875    0.9039   -0.8975 H   0  0  0  0  0  0  0  0  0  0  0  0
   -7.3259    2.2211   -0.9342 H   0  0  0  0  0  0  0  0  0  0  0  0
   -7.3432    0.9745   -3.0940 H   0  0  0  0  0  0  0  0  0  0  0  0
   -6.9396   -0.5114   -2.2447 H   0  0  0  0  0  0  0  0  0  0  0  0
   -5.1958    1.8115   -2.9558 H   0  0  0  0  0  0  0  0  0  0  0  0
   -4.8334    0.0956   -2.9039 H   0  0  0  0  0  0  0  0  0  0  0  0
    1.7644    1.1348   -1.3366 H   0  0  0  0  0  0  0  0  0  0  0  0
  1  2  1  0
  2  3  1  0
  3  4  1  0
  4  5  1  0
  3  6  1  0
  6  7  2  0
  6  8  2  0
  6  9  1  0
  9 10  2  0
 10 11  1  0
 11 12  2  0
 12 13  1  0
 13 14  1  0
 14 15  1  0
 15 16  1  0
 16 17  1  0
 17 18  1  0
 12 19  1  0
 19 20  1  0
 20 21  1  0
 21 22  2  0
 21 23  1  0
 23 24  1  0
 24 25  1  0
 25 26  1  0
 26 27  1  0
 27 28  1  0
 28 29  1  0
 29 30  1  0
 19 31  2  0
 31  9  1  0
 18 13  1  0
 30 25  1  0
  1 32  1  0
  1 33  1  0
  1 34  1  0
  2 35  1  0
  2 36  1  0
  4 37  1  0
  4 38  1  0
  5 39  1  0
  5 40  1  0
  5 41  1  0
 10 42  1  0
 11 43  1  0
 14 44  1  0
 14 45  1  0
 15 46  1  0
 15 47  1  0
 17 48  1  0
 17 49  1  0
 18 50  1  0
 18 51  1  0
 20 52  1  0
 23 53  1  0
 23 54  1  0
 24 55  1  0
 24 56  1  0
 25 57  1  0
 26 58  1  0
 26 59  1  0
 27 60  1  0
 27 61  1  0
 28 62  1  0
 28 63  1  0
 29 64  1  0
 29 65  1  0
 30 66  1  0
 30 67  1  0
 31 68  1  0
M  END
$$$$
