
     RDKit          3D

 55 57  0  0  0  0  0  0  0  0999 V2000
   -3.6021   -0.0816    4.2524 C   0  0  0  0  0  0  0  0  0  0  0  0
   -2.4801    0.9534    4.1208 C   0  0  0  0  0  0  0  0  0  0  0  0
   -1.4440    0.7570    5.2311 C   0  0  0  0  0  0  0  0  0  0  0  0
   -1.8334    0.9801    2.7152 C   0  0  0  0  0  0  0  0  0  0  0  0
   -2.8205    1.5791    1.7835 N   0  0  0  0  0  0  0  0  0  0  0  0
   -2.4823    3.0176    1.0071 S   0  0  0  0  0  6  0  0  0  0  0  0
   -2.0165    3.9553    2.0041 O   0  0  0  0  0  0  0  0  0  0  0  0
   -3.6215    3.3037    0.1640 O   0  0  0  0  0  0  0  0  0  0  0  0
   -1.1237    2.6085   -0.0568 C   0  0  0  0  0  0  0  0  0  0  0  0
    0.1671    3.0524    0.2476 C   0  0  0  0  0  0  0  0  0  0  0  0
    1.2178    2.7584   -0.6239 C   0  0  0  0  0  0  0  0  0  0  0  0
    0.9733    2.0341   -1.7910 C   0  0  0  0  0  0  0  0  0  0  0  0
   -0.3193    1.5793   -2.0802 C   0  0  0  0  0  0  0  0  0  0  0  0
   -1.3765    1.8863   -1.2278 C   0  0  0  0  0  0  0  0  0  0  0  0
   -0.6235    0.8298   -3.1880 O   0  0  0  0  0  0  0  0  0  0  0  0
    0.5575    0.3112   -3.8108 C   0  0  0  0  0  0  0  0  0  0  0  0
    1.6343    1.3786   -3.9092 C   0  0  0  0  0  0  0  0  0  0  0  0
    2.0514    1.7983   -2.6059 O   0  0  0  0  0  0  0  0  0  0  0  0
   -1.3659   -0.3987    2.2331 C   0  0  0  0  0  0  0  0  0  0  0  0
   -0.7029   -1.1880    2.8939 O   0  0  0  0  0  0  0  0  0  0  0  0
   -1.7756   -0.6393    0.9500 O   0  0  0  0  0  0  0  0  0  0  0  0
   -1.1625   -1.7785    0.3462 C   0  0  0  0  0  0  0  0  0  0  0  0
    0.3187   -1.5507    0.0085 C   0  0  0  0  0  0  0  0  0  0  0  0
    0.9035   -0.5248    0.3413 O   0  0  0  0  0  0  0  0  0  0  0  0
    0.8652   -2.6034   -0.7056 N   0  0  0  0  0  0  0  0  0  0  0  0
    2.1711   -2.7008   -1.2516 C   0  0  0  0  0  0  0  0  0  0  0  0
    3.1028   -1.6593   -1.1840 C   0  0  0  0  0  0  0  0  0  0  0  0
    4.3722   -1.7982   -1.7515 C   0  0  0  0  0  0  0  0  0  0  0  0
    4.7276   -2.9808   -2.3946 C   0  0  0  0  0  0  0  0  0  0  0  0
    3.8122   -4.0312   -2.4764 C   0  0  0  0  0  0  0  0  0  0  0  0
    4.3185   -5.4664   -3.2974 Cl  0  0  0  0  0  0  0  0  0  0  0  0
    2.5356   -3.8964   -1.9098 C   0  0  0  0  0  0  0  0  0  0  0  0
    1.3738   -5.1894   -2.0131 Cl  0  0  0  0  0  0  0  0  0  0  0  0
   -4.0886    0.0048    5.2303 H   0  0  0  0  0  0  0  0  0  0  0  0
   -3.2246   -1.1052    4.1619 H   0  0  0  0  0  0  0  0  0  0  0  0
   -4.3718    0.0672    3.4885 H   0  0  0  0  0  0  0  0  0  0  0  0
   -2.9335    1.9397    4.2947 H   0  0  0  0  0  0  0  0  0  0  0  0
   -0.6360    1.4910    5.1454 H   0  0  0  0  0  0  0  0  0  0  0  0
   -1.9088    0.8907    6.2143 H   0  0  0  0  0  0  0  0  0  0  0  0
   -1.0023   -0.2432    5.2117 H   0  0  0  0  0  0  0  0  0  0  0  0
   -0.9371    1.6106    2.7451 H   0  0  0  0  0  0  0  0  0  0  0  0
   -3.4215    0.9437    1.2600 H   0  0  0  0  0  0  0  0  0  0  0  0
    0.3635    3.6287    1.1489 H   0  0  0  0  0  0  0  0  0  0  0  0
    2.2249    3.0978   -0.3974 H   0  0  0  0  0  0  0  0  0  0  0  0
   -2.3826    1.5582   -1.4741 H   0  0  0  0  0  0  0  0  0  0  0  0
    0.2786   -0.0371   -4.8102 H   0  0  0  0  0  0  0  0  0  0  0  0
    0.9017   -0.5544   -3.2335 H   0  0  0  0  0  0  0  0  0  0  0  0
    1.2797    2.2571   -4.4625 H   0  0  0  0  0  0  0  0  0  0  0  0
    2.5134    0.9817   -4.4267 H   0  0  0  0  0  0  0  0  0  0  0  0
   -1.6980   -1.9678   -0.5905 H   0  0  0  0  0  0  0  0  0  0  0  0
   -1.2734   -2.6651    0.9812 H   0  0  0  0  0  0  0  0  0  0  0  0
    0.2873   -3.4281   -0.8420 H   0  0  0  0  0  0  0  0  0  0  0  0
    2.8747   -0.7134   -0.7000 H   0  0  0  0  0  0  0  0  0  0  0  0
    5.0827   -0.9761   -1.6873 H   0  0  0  0  0  0  0  0  0  0  0  0
    5.7197   -3.0765   -2.8301 H   0  0  0  0  0  0  0  0  0  0  0  0
  1  2  1  0
  2  3  1  0
  2  4  1  0
  4  5  1  0
  5  6  1  0
  6  7  2  0
  6  8  2  0
  6  9  1  0
  9 10  2  0
 10 11  1  0
 11 12  2  0
 12 13  1  0
 13 14  2  0
 13 15  1  0
 15 16  1  0
 16 17  1  0
 17 18  1  0
  4 19  1  0
 19 20  2  0
 19 21  1  0
 21 22  1  0
 22 23  1  0
 23 24  2  0
 23 25  1  0
 25 26  1  0
 26 27  2  0
 27 28  1  0
 28 29  2  0
 29 30  1  0
 30 31  1  0
 30 32  2  0
 32 33  1  0
 14  9  1  0
 32 26  1  0
 18 12  1  0
  1 34  1  0
  1 35  1  0
  1 36  1  0
  2 37  1  0
  3 38  1  0
  3 39  1  0
  3 40  1  0
  4 41  1  0
  5 42  1  0
 10 43  1  0
 11 44  1  0
 14 45  1  0
 16 46  1  0
 16 47  1  0
 17 48  1  0
 17 49  1  0
 22 50  1  0
 22 51  1  0
 25 52  1  0
 27 53  1  0
 28 54  1  0
 29 55  1  0
M  END
$$$$
