
     RDKit          3D

 45 49  0  0  0  0  0  0  0  0999 V2000
   -1.4874    2.7649    0.3552 O   0  0  0  0  0  0  0  0  0  0  0  0
   -1.3877    1.5424    0.2393 C   0  0  0  0  0  0  0  0  0  0  0  0
   -0.0156    0.9644    0.2141 C   0  0  0  0  0  0  0  0  0  0  0  0
    1.1653    1.6703    0.5652 C   0  0  0  0  0  0  0  0  0  0  0  0
    2.2069    0.7995    0.3654 C   0  0  0  0  0  0  0  0  0  0  0  0
    3.5505    0.9421    0.5491 N   0  0  0  0  0  0  0  0  0  0  0  0
    4.3123   -0.0859    0.2943 C   0  0  0  0  0  0  0  0  0  0  0  0
    5.7572    0.0210    0.4835 C   0  0  0  0  0  0  0  0  0  0  0  0
    6.7786   -0.7601   -0.0319 C   0  0  0  0  0  0  0  0  0  0  0  0
    8.0712   -0.3535    0.4192 C   0  0  0  0  0  0  0  0  0  0  0  0
    8.0041    0.7319    1.2575 C   0  0  0  0  0  0  0  0  0  0  0  0
    6.3984    1.2654    1.4866 S   0  0  0  0  0  0  0  0  0  0  0  0
    3.7664   -1.4042   -0.1837 C   0  0  0  0  0  0  0  0  0  0  0  0
    2.4323   -1.4933   -0.3564 C   0  0  0  0  0  0  0  0  0  0  0  0
    1.7363   -2.7194   -0.8032 C   0  0  0  0  0  0  0  0  0  0  0  0
    0.8185   -3.1586    0.0946 F   0  0  0  0  0  0  0  0  0  0  0  0
    1.1084   -2.5658   -1.9940 F   0  0  0  0  0  0  0  0  0  0  0  0
    2.6120   -3.7502   -0.9740 F   0  0  0  0  0  0  0  0  0  0  0  0
    1.6338   -0.3881   -0.0917 N   0  0  0  0  0  0  0  0  0  0  0  0
    0.2918   -0.2731   -0.2121 N   0  0  0  0  0  0  0  0  0  0  0  0
   -2.5060    0.6766    0.1369 N   0  0  0  0  0  0  0  0  0  0  0  0
   -2.3855   -0.7354    0.5174 C   0  0  0  0  0  0  0  0  0  0  0  0
   -3.6582   -1.3184    1.1061 C   0  0  0  0  0  0  0  0  0  0  0  0
   -4.7826   -1.1877    0.1013 C   0  0  0  0  0  0  0  0  0  0  0  0
   -4.8898    0.2280   -0.3960 C   0  0  0  0  0  0  0  0  0  0  0  0
   -6.1272    0.6328   -0.9357 C   0  0  0  0  0  0  0  0  0  0  0  0
   -6.3000    1.9162   -1.4379 C   0  0  0  0  0  0  0  0  0  0  0  0
   -5.2321    2.8000   -1.4212 C   0  0  0  0  0  0  0  0  0  0  0  0
   -3.9926    2.3998   -0.9036 C   0  0  0  0  0  0  0  0  0  0  0  0
   -3.7894    1.1167   -0.3712 C   0  0  0  0  0  0  0  0  0  0  0  0
    1.2389    2.6906    0.9178 H   0  0  0  0  0  0  0  0  0  0  0  0
    6.6279   -1.5910   -0.7089 H   0  0  0  0  0  0  0  0  0  0  0  0
    9.0017   -0.8329    0.1397 H   0  0  0  0  0  0  0  0  0  0  0  0
    8.8211    1.2444    1.7472 H   0  0  0  0  0  0  0  0  0  0  0  0
    4.4363   -2.2346   -0.3575 H   0  0  0  0  0  0  0  0  0  0  0  0
   -1.6056   -0.8442    1.2778 H   0  0  0  0  0  0  0  0  0  0  0  0
   -2.0871   -1.2989   -0.3768 H   0  0  0  0  0  0  0  0  0  0  0  0
   -3.5069   -2.3725    1.3587 H   0  0  0  0  0  0  0  0  0  0  0  0
   -3.9180   -0.7963    2.0365 H   0  0  0  0  0  0  0  0  0  0  0  0
   -5.7216   -1.4953    0.5801 H   0  0  0  0  0  0  0  0  0  0  0  0
   -4.6098   -1.8523   -0.7564 H   0  0  0  0  0  0  0  0  0  0  0  0
   -6.9636   -0.0617   -0.9663 H   0  0  0  0  0  0  0  0  0  0  0  0
   -7.2586    2.2232   -1.8452 H   0  0  0  0  0  0  0  0  0  0  0  0
   -5.3493    3.8052   -1.8182 H   0  0  0  0  0  0  0  0  0  0  0  0
   -3.1957    3.1380   -0.9521 H   0  0  0  0  0  0  0  0  0  0  0  0
  1  2  2  0
  2  3  1  0
  3  4  1  0
  4  5  2  0
  5  6  1  0
  6  7  2  0
  7  8  1  0
  8  9  2  0
  9 10  1  0
 10 11  2  0
 11 12  1  0
  7 13  1  0
 13 14  2  0
 14 15  1  0
 15 16  1  0
 15 17  1  0
 15 18  1  0
 14 19  1  0
 19 20  1  0
  2 21  1  0
 21 22  1  0
 22 23  1  0
 23 24  1  0
 24 25  1  0
 25 26  2  0
 26 27  1  0
 27 28  2  0
 28 29  1  0
 29 30  2  0
 20  3  2  0
 30 21  1  0
 19  5  1  0
 30 25  1  0
 12  8  1  0
  4 31  1  0
  9 32  1  0
 10 33  1  0
 11 34  1  0
 13 35  1  0
 22 36  1  0
 22 37  1  0
 23 38  1  0
 23 39  1  0
 24 40  1  0
 24 41  1  0
 26 42  1  0
 27 43  1  0
 28 44  1  0
 29 45  1  0
M  END
$$$$
