
     RDKit          3D

 61 65  0  0  0  0  0  0  0  0999 V2000
   -5.8883    0.7846    3.6655 C   0  0  0  0  0  0  0  0  0  0  0  0
   -5.2445   -0.1659    2.6980 C   0  0  0  0  0  0  0  0  0  0  0  0
   -3.8533   -0.2879    2.6374 C   0  0  0  0  0  0  0  0  0  0  0  0
   -3.2599   -1.2007    1.7625 C   0  0  0  0  0  0  0  0  0  0  0  0
   -4.0481   -2.0151    0.9384 C   0  0  0  0  0  0  0  0  0  0  0  0
   -3.4050   -3.0096    0.0061 C   0  0  0  0  0  0  0  0  0  0  0  0
   -3.5516   -2.6306   -1.3841 N   0  0  0  0  0  0  0  0  0  0  0  0
   -4.3680   -3.3245   -2.2124 N   0  0  0  0  0  0  0  0  0  0  0  0
   -4.2565   -2.7946   -3.4312 N   0  0  0  0  0  0  0  0  0  0  0  0
   -3.3576   -1.7779   -3.3499 C   0  0  0  0  0  0  0  0  0  0  0  0
   -2.8594   -0.8751   -4.3510 C   0  0  0  0  0  0  0  0  0  0  0  0
   -3.1726   -0.8703   -5.5340 O   0  0  0  0  0  0  0  0  0  0  0  0
   -1.9466    0.0318   -3.8296 N   0  0  0  0  0  0  0  0  0  0  0  0
   -1.5694    0.0762   -2.4917 C   0  0  0  0  0  0  0  0  0  0  0  0
   -0.5525    1.1531   -2.1486 C   0  0  0  0  0  0  0  0  0  0  0  0
    0.8577    0.5732   -2.3119 C   0  0  0  0  0  0  0  0  0  0  0  0
    1.8564    1.2661   -1.3934 C   0  0  0  0  0  0  0  0  0  0  0  0
    1.4955    1.0666    0.0366 N   0  0  0  0  0  0  0  0  0  0  0  0
    2.3421    2.0741    1.1400 S   0  0  0  0  0  6  0  0  0  0  0  0
    2.0833    3.4351    0.7202 O   0  0  0  0  0  0  0  0  0  0  0  0
    1.9710    1.6440    2.4714 O   0  0  0  0  0  0  0  0  0  0  0  0
    4.0252    1.7411    0.8938 C   0  0  0  0  0  0  0  0  0  0  0  0
    4.5049    0.5262    1.2025 C   0  0  0  0  0  0  0  0  0  0  0  0
    5.9062    0.1218    1.0269 C   0  0  0  0  0  0  0  0  0  0  0  0
    6.1899   -1.2261    0.7699 C   0  0  0  0  0  0  0  0  0  0  0  0
    7.5086   -1.6639    0.6241 C   0  0  0  0  0  0  0  0  0  0  0  0
    8.5596   -0.7605    0.7428 C   0  0  0  0  0  0  0  0  0  0  0  0
    8.2928    0.5784    1.0137 C   0  0  0  0  0  0  0  0  0  0  0  0
    6.9739    1.0167    1.1610 C   0  0  0  0  0  0  0  0  0  0  0  0
    0.0304    0.9685    0.3070 C   0  0  0  0  0  0  0  0  0  0  0  0
   -0.7810    1.7186   -0.7407 C   0  0  0  0  0  0  0  0  0  0  0  0
   -1.9906   -0.7604   -1.5850 N   0  0  0  0  0  0  0  0  0  0  0  0
   -2.8884   -1.6513   -2.0668 C   0  0  0  0  0  0  0  0  0  0  0  0
   -5.4415   -1.8955    1.0055 C   0  0  0  0  0  0  0  0  0  0  0  0
   -6.0333   -0.9822    1.8806 C   0  0  0  0  0  0  0  0  0  0  0  0
   -6.7465    1.2849    3.2057 H   0  0  0  0  0  0  0  0  0  0  0  0
   -5.1869    1.5651    3.9755 H   0  0  0  0  0  0  0  0  0  0  0  0
   -6.2199    0.2419    4.5565 H   0  0  0  0  0  0  0  0  0  0  0  0
   -3.2201    0.3271    3.2725 H   0  0  0  0  0  0  0  0  0  0  0  0
   -2.1755   -1.2706    1.7330 H   0  0  0  0  0  0  0  0  0  0  0  0
   -2.3304   -3.1082    0.2027 H   0  0  0  0  0  0  0  0  0  0  0  0
   -3.8514   -4.0009    0.1475 H   0  0  0  0  0  0  0  0  0  0  0  0
   -1.5863    0.6968   -4.4979 H   0  0  0  0  0  0  0  0  0  0  0  0
   -0.6821    1.9773   -2.8610 H   0  0  0  0  0  0  0  0  0  0  0  0
    0.8660   -0.5038   -2.1049 H   0  0  0  0  0  0  0  0  0  0  0  0
    1.1766    0.6851   -3.3536 H   0  0  0  0  0  0  0  0  0  0  0  0
    2.8461    0.8283   -1.5660 H   0  0  0  0  0  0  0  0  0  0  0  0
    1.9043    2.3328   -1.6399 H   0  0  0  0  0  0  0  0  0  0  0  0
    4.6227    2.5443    0.4897 H   0  0  0  0  0  0  0  0  0  0  0  0
    3.8354   -0.2390    1.5959 H   0  0  0  0  0  0  0  0  0  0  0  0
    5.3858   -1.9518    0.6762 H   0  0  0  0  0  0  0  0  0  0  0  0
    7.7143   -2.7126    0.4233 H   0  0  0  0  0  0  0  0  0  0  0  0
    9.5853   -1.1029    0.6328 H   0  0  0  0  0  0  0  0  0  0  0  0
    9.1110    1.2825    1.1203 H   0  0  0  0  0  0  0  0  0  0  0  0
    6.7999    2.0625    1.3965 H   0  0  0  0  0  0  0  0  0  0  0  0
   -0.2217    1.3610    1.2987 H   0  0  0  0  0  0  0  0  0  0  0  0
   -0.2317   -0.0960    0.3305 H   0  0  0  0  0  0  0  0  0  0  0  0
   -0.4816    2.7750   -0.7309 H   0  0  0  0  0  0  0  0  0  0  0  0
   -1.8444    1.6982   -0.4743 H   0  0  0  0  0  0  0  0  0  0  0  0
   -6.0809   -2.5144    0.3782 H   0  0  0  0  0  0  0  0  0  0  0  0
   -7.1176   -0.9143    1.9193 H   0  0  0  0  0  0  0  0  0  0  0  0
  1  2  1  0
  2  3  2  0
  3  4  1  0
  4  5  2  0
  5  6  1  0
  6  7  1  0
  7  8  1  0
  8  9  2  0
  9 10  1  0
 10 11  1  0
 11 12  2  0
 11 13  1  0
 13 14  1  0
 14 15  1  0
 15 16  1  0
 16 17  1  0
 17 18  1  0
 18 19  1  0
 19 20  2  0
 19 21  2  0
 19 22  1  0
 22 23  2  3
 23 24  1  0
 24 25  2  0
 25 26  1  0
 26 27  2  0
 27 28  1  0
 28 29  2  0
 18 30  1  0
 30 31  1  0
 14 32  2  0
 32 33  1  0
  5 34  1  0
 34 35  2  0
 35  2  1  0
 33  7  1  0
 33 10  2  0
 31 15  1  0
 29 24  1  0
  1 36  1  0
  1 37  1  0
  1 38  1  0
  3 39  1  0
  4 40  1  0
  6 41  1  0
  6 42  1  0
 13 43  1  0
 15 44  1  0
 16 45  1  0
 16 46  1  0
 17 47  1  0
 17 48  1  0
 22 49  1  0
 23 50  1  0
 25 51  1  0
 26 52  1  0
 27 53  1  0
 28 54  1  0
 29 55  1  0
 30 56  1  0
 30 57  1  0
 31 58  1  0
 31 59  1  0
 34 60  1  0
 35 61  1  0
M  END
$$$$
