
     RDKit          3D

 39 41  0  0  0  0  0  0  0  0999 V2000
    5.0133    0.3136    1.4262 C   0  0  0  0  0  0  0  0  0  0  0  0
    4.2738   -0.0828    0.1460 C   0  0  0  0  0  0  0  0  0  0  0  0
    4.7959    0.7455   -1.0288 C   0  0  0  0  0  0  0  0  0  0  0  0
    2.7565    0.0778    0.3488 C   0  0  0  0  0  0  0  0  0  0  0  0
    1.9258   -0.4365   -0.8334 C   0  0  0  0  0  0  0  0  0  0  0  0
    0.4936   -0.3821   -0.5452 N   0  0  0  0  0  0  0  0  0  0  0  0
   -0.0812   -1.4842    0.0830 C   0  0  0  0  0  0  0  0  0  0  0  0
    0.5464   -2.4903    0.4053 O   0  0  0  0  0  0  0  0  0  0  0  0
   -1.5310   -1.4102    0.3795 C   0  0  0  0  0  0  0  0  0  0  0  0
   -2.1524   -2.5107    0.9819 C   0  0  0  0  0  0  0  0  0  0  0  0
   -3.5076   -2.4643    1.2766 C   0  0  0  0  0  0  0  0  0  0  0  0
   -4.2449   -1.3217    0.9642 C   0  0  0  0  0  0  0  0  0  0  0  0
   -3.6500   -0.1955    0.3482 C   0  0  0  0  0  0  0  0  0  0  0  0
   -4.3752    0.9778    0.0022 C   0  0  0  0  0  0  0  0  0  0  0  0
   -5.7313    1.1703    0.3409 N   0  0  0  0  0  0  0  0  0  0  0  0
   -3.6980    2.0849   -0.5207 C   0  0  0  0  0  0  0  0  0  0  0  0
   -2.3366    2.0220   -0.7949 C   0  0  0  0  0  0  0  0  0  0  0  0
   -1.6230    0.8541   -0.5121 C   0  0  0  0  0  0  0  0  0  0  0  0
   -2.2571   -0.2529    0.0644 C   0  0  0  0  0  0  0  0  0  0  0  0
   -0.1736    0.8103   -0.8153 C   0  0  0  0  0  0  0  0  0  0  0  0
    0.3743    1.8096   -1.2746 O   0  0  0  0  0  0  0  0  0  0  0  0
    6.0930    0.1692    1.3130 H   0  0  0  0  0  0  0  0  0  0  0  0
    4.6831   -0.2986    2.2721 H   0  0  0  0  0  0  0  0  0  0  0  0
    4.8363    1.3648    1.6784 H   0  0  0  0  0  0  0  0  0  0  0  0
    4.4924   -1.1394   -0.0543 H   0  0  0  0  0  0  0  0  0  0  0  0
    4.3793    0.3972   -1.9786 H   0  0  0  0  0  0  0  0  0  0  0  0
    4.5419    1.8045   -0.9118 H   0  0  0  0  0  0  0  0  0  0  0  0
    5.8857    0.6662   -1.1057 H   0  0  0  0  0  0  0  0  0  0  0  0
    2.4602   -0.4676    1.2543 H   0  0  0  0  0  0  0  0  0  0  0  0
    2.5150    1.1319    0.5370 H   0  0  0  0  0  0  0  0  0  0  0  0
    2.2083   -1.4701   -1.0652 H   0  0  0  0  0  0  0  0  0  0  0  0
    2.1259    0.1605   -1.7295 H   0  0  0  0  0  0  0  0  0  0  0  0
   -1.5798   -3.4041    1.2250 H   0  0  0  0  0  0  0  0  0  0  0  0
   -3.9924   -3.3161    1.7478 H   0  0  0  0  0  0  0  0  0  0  0  0
   -5.3025   -1.3279    1.2138 H   0  0  0  0  0  0  0  0  0  0  0  0
   -5.8178    1.6970    1.2081 H   0  0  0  0  0  0  0  0  0  0  0  0
   -6.2644    0.3100    0.4013 H   0  0  0  0  0  0  0  0  0  0  0  0
   -4.2447    3.0004   -0.7379 H   0  0  0  0  0  0  0  0  0  0  0  0
   -1.8368    2.8873   -1.2261 H   0  0  0  0  0  0  0  0  0  0  0  0
  1  2  1  0
  2  3  1  0
  2  4  1  0
  4  5  1  0
  5  6  1  0
  6  7  1  0
  7  8  2  0
  7  9  1  0
  9 10  1  0
 10 11  2  0
 11 12  1  0
 12 13  2  0
 13 14  1  0
 14 15  1  0
 14 16  2  0
 16 17  1  0
 17 18  2  0
 18 19  1  0
 18 20  1  0
 20 21  2  0
 20  6  1  0
 19  9  2  0
 19 13  1  0
  1 22  1  0
  1 23  1  0
  1 24  1  0
  2 25  1  0
  3 26  1  0
  3 27  1  0
  3 28  1  0
  4 29  1  0
  4 30  1  0
  5 31  1  0
  5 32  1  0
 10 33  1  0
 11 34  1  0
 12 35  1  0
 15 36  1  0
 15 37  1  0
 16 38  1  0
 17 39  1  0
M  END
$$$$
