
     RDKit          3D

 53 54  0  0  0  0  0  0  0  0999 V2000
    5.3338   -0.0184    3.7575 C   0  0  0  0  0  0  0  0  0  0  0  0
    3.8940    0.3783    3.4495 C   0  0  0  0  0  0  0  0  0  0  0  0
    3.2580   -0.4927    2.4512 N   0  0  0  0  0  0  0  0  0  0  0  0
    1.8160   -0.2006    2.3153 C   0  0  0  0  0  0  0  0  0  0  0  0
    1.4659    0.6816    1.0972 C   0  0  0  0  0  0  0  0  0  0  0  0
    1.8318    0.0527   -0.1994 N   0  0  0  0  0  0  0  0  0  0  0  0
    2.0611    1.0946   -1.2342 C   0  0  0  0  0  0  0  0  0  0  0  0
    0.7474    1.7908   -1.6235 C   0  0  0  0  0  0  0  0  0  0  0  0
    0.7189    2.9810   -1.9192 O   0  0  0  0  0  0  0  0  0  0  0  0
   -0.3166    0.9121   -1.6350 N   0  0  0  0  0  0  0  0  0  0  0  0
   -1.6676    1.1575   -1.9307 C   0  0  0  0  0  0  0  0  0  0  0  0
   -2.1544    2.3869   -2.3776 C   0  0  0  0  0  0  0  0  0  0  0  0
   -3.5219    2.5539   -2.6713 C   0  0  0  0  0  0  0  0  0  0  0  0
   -4.0434    3.8764   -3.1783 C   0  0  0  0  0  0  0  0  0  0  0  0
   -3.2434    4.9354   -2.8681 F   0  0  0  0  0  0  0  0  0  0  0  0
   -4.1817    3.8928   -4.5341 F   0  0  0  0  0  0  0  0  0  0  0  0
   -5.2737    4.1828   -2.6752 F   0  0  0  0  0  0  0  0  0  0  0  0
   -4.3945    1.4616   -2.5313 C   0  0  0  0  0  0  0  0  0  0  0  0
   -3.9173    0.2312   -2.0837 C   0  0  0  0  0  0  0  0  0  0  0  0
   -2.5665    0.0925   -1.7668 C   0  0  0  0  0  0  0  0  0  0  0  0
   -2.1049   -1.1330   -1.3502 O   0  0  0  0  0  0  0  0  0  0  0  0
   -2.3344   -1.3051    0.0604 C   0  0  0  0  0  0  0  0  0  0  0  0
   -2.1758   -2.7852    0.4072 C   0  0  0  0  0  0  0  0  0  0  0  0
   -3.3321   -3.4986   -0.0455 O   0  0  0  0  0  0  0  0  0  0  0  0
   -3.2400   -4.8884    0.2404 C   0  0  0  0  0  0  0  0  0  0  0  0
    3.0237   -0.8119   -0.0406 C   0  0  0  0  0  0  0  0  0  0  0  0
    3.9408   -0.4242    1.1407 C   0  0  0  0  0  0  0  0  0  0  0  0
    5.3934   -1.0663    4.0675 H   0  0  0  0  0  0  0  0  0  0  0  0
    5.7232    0.5967    4.5754 H   0  0  0  0  0  0  0  0  0  0  0  0
    5.9899    0.1263    2.8963 H   0  0  0  0  0  0  0  0  0  0  0  0
    3.3370    0.3101    4.3918 H   0  0  0  0  0  0  0  0  0  0  0  0
    3.8604    1.4280    3.1337 H   0  0  0  0  0  0  0  0  0  0  0  0
    1.4070    0.2505    3.2289 H   0  0  0  0  0  0  0  0  0  0  0  0
    1.2922   -1.1601    2.2116 H   0  0  0  0  0  0  0  0  0  0  0  0
    1.9652    1.6524    1.2250 H   0  0  0  0  0  0  0  0  0  0  0  0
    0.3870    0.8742    1.1059 H   0  0  0  0  0  0  0  0  0  0  0  0
    2.4432    0.6410   -2.1581 H   0  0  0  0  0  0  0  0  0  0  0  0
    2.7849    1.8443   -0.8945 H   0  0  0  0  0  0  0  0  0  0  0  0
   -0.0930   -0.0298   -1.3178 H   0  0  0  0  0  0  0  0  0  0  0  0
   -1.4862    3.2339   -2.5132 H   0  0  0  0  0  0  0  0  0  0  0  0
   -5.4509    1.5684   -2.7761 H   0  0  0  0  0  0  0  0  0  0  0  0
   -4.5915   -0.6164   -1.9815 H   0  0  0  0  0  0  0  0  0  0  0  0
   -1.5848   -0.7211    0.6069 H   0  0  0  0  0  0  0  0  0  0  0  0
   -3.3382   -0.9670    0.3432 H   0  0  0  0  0  0  0  0  0  0  0  0
   -2.0938   -2.9004    1.4933 H   0  0  0  0  0  0  0  0  0  0  0  0
   -1.2831   -3.1983   -0.0773 H   0  0  0  0  0  0  0  0  0  0  0  0
   -2.3827   -5.3311   -0.2783 H   0  0  0  0  0  0  0  0  0  0  0  0
   -3.1557   -5.0537    1.3197 H   0  0  0  0  0  0  0  0  0  0  0  0
   -4.1521   -5.3734   -0.1183 H   0  0  0  0  0  0  0  0  0  0  0  0
    2.6649   -1.8375    0.1214 H   0  0  0  0  0  0  0  0  0  0  0  0
    3.6129   -0.8577   -0.9650 H   0  0  0  0  0  0  0  0  0  0  0  0
    4.3268    0.5874    0.9521 H   0  0  0  0  0  0  0  0  0  0  0  0
    4.8008   -1.1044    1.1531 H   0  0  0  0  0  0  0  0  0  0  0  0
  1  2  1  0
  2  3  1  0
  3  4  1  0
  4  5  1  0
  5  6  1  0
  6  7  1  0
  7  8  1  0
  8  9  2  0
  8 10  1  0
 10 11  1  0
 11 12  2  0
 12 13  1  0
 13 14  1  0
 14 15  1  0
 14 16  1  0
 14 17  1  0
 13 18  2  0
 18 19  1  0
 19 20  2  0
 20 21  1  0
 21 22  1  0
 22 23  1  0
 23 24  1  0
 24 25  1  0
  6 26  1  0
 26 27  1  0
 27  3  1  0
 20 11  1  0
  1 28  1  0
  1 29  1  0
  1 30  1  0
  2 31  1  0
  2 32  1  0
  4 33  1  0
  4 34  1  0
  5 35  1  0
  5 36  1  0
  7 37  1  0
  7 38  1  0
 10 39  1  0
 12 40  1  0
 18 41  1  0
 19 42  1  0
 22 43  1  0
 22 44  1  0
 23 45  1  0
 23 46  1  0
 25 47  1  0
 25 48  1  0
 25 49  1  0
 26 50  1  0
 26 51  1  0
 27 52  1  0
 27 53  1  0
M  END
$$$$
