
     RDKit          3D

 38 39  0  0  0  0  0  0  0  0999 V2000
   -3.2657    0.1332    2.9367 O   0  0  0  0  0  0  0  0  0  0  0  0
   -2.8926   -0.5972    2.0218 C   0  0  0  0  0  0  0  0  0  0  0  0
   -1.8505   -1.6921    2.2711 C   0  0  0  0  0  0  0  0  0  0  0  0
   -0.5478   -1.3663    1.7867 O   0  0  0  0  0  0  0  0  0  0  0  0
   -0.3550   -1.5895    0.4671 C   0  0  0  0  0  0  0  0  0  0  0  0
   -1.2025   -2.0080   -0.3090 O   0  0  0  0  0  0  0  0  0  0  0  0
    1.0163   -1.2592    0.0339 C   0  0  0  0  0  0  0  0  0  0  0  0
    1.9690   -0.7749    0.8462 C   0  0  0  0  0  0  0  0  0  0  0  0
    3.3350   -0.4624    0.4041 C   0  0  0  0  0  0  0  0  0  0  0  0
    4.4005   -0.7172    1.2759 C   0  0  0  0  0  0  0  0  0  0  0  0
    5.7115   -0.4100    0.9078 C   0  0  0  0  0  0  0  0  0  0  0  0
    5.9712    0.1653   -0.3349 C   0  0  0  0  0  0  0  0  0  0  0  0
    4.9211    0.4393   -1.2228 C   0  0  0  0  0  0  0  0  0  0  0  0
    5.1987    1.0936   -2.5537 C   0  0  0  0  0  0  0  0  0  0  0  0
    5.2788    2.4491   -2.4579 F   0  0  0  0  0  0  0  0  0  0  0  0
    4.2387    0.8398   -3.4867 F   0  0  0  0  0  0  0  0  0  0  0  0
    6.3731    0.6872   -3.1113 F   0  0  0  0  0  0  0  0  0  0  0  0
    3.6040    0.1324   -0.8366 C   0  0  0  0  0  0  0  0  0  0  0  0
   -3.3348   -0.5517    0.7203 N   0  0  0  0  0  0  0  0  0  0  0  0
   -4.2828    0.2994    0.1553 C   0  0  0  0  0  0  0  0  0  0  0  0
   -5.0127    1.2423    0.8691 C   0  0  0  0  0  0  0  0  0  0  0  0
   -5.9398    2.0392    0.1921 C   0  0  0  0  0  0  0  0  0  0  0  0
   -6.1094    1.8710   -1.1738 C   0  0  0  0  0  0  0  0  0  0  0  0
   -7.2344    2.8278   -2.0449 Cl  0  0  0  0  0  0  0  0  0  0  0  0
   -5.3449    0.9090   -1.8093 C   0  0  0  0  0  0  0  0  0  0  0  0
   -4.4403    0.1222   -1.1745 N   0  0  0  0  0  0  0  0  0  0  0  0
   -2.2040   -2.6486    1.8667 H   0  0  0  0  0  0  0  0  0  0  0  0
   -1.7662   -1.8321    3.3543 H   0  0  0  0  0  0  0  0  0  0  0  0
    1.2002   -1.4546   -1.0171 H   0  0  0  0  0  0  0  0  0  0  0  0
    1.7709   -0.6088    1.9031 H   0  0  0  0  0  0  0  0  0  0  0  0
    4.2207   -1.1651    2.2515 H   0  0  0  0  0  0  0  0  0  0  0  0
    6.5299   -0.6175    1.5935 H   0  0  0  0  0  0  0  0  0  0  0  0
    6.9980    0.4044   -0.6091 H   0  0  0  0  0  0  0  0  0  0  0  0
    2.7867    0.3743   -1.5150 H   0  0  0  0  0  0  0  0  0  0  0  0
   -2.9005   -1.1668    0.0327 H   0  0  0  0  0  0  0  0  0  0  0  0
   -4.8897    1.3806    1.9366 H   0  0  0  0  0  0  0  0  0  0  0  0
   -6.5166    2.7798    0.7386 H   0  0  0  0  0  0  0  0  0  0  0  0
   -5.4340    0.7324   -2.8772 H   0  0  0  0  0  0  0  0  0  0  0  0
  1  2  2  0
  2  3  1  0
  3  4  1  0
  4  5  1  0
  5  6  2  0
  5  7  1  0
  7  8  2  3
  8  9  1  0
  9 10  2  0
 10 11  1  0
 11 12  2  0
 12 13  1  0
 13 14  1  0
 14 15  1  0
 14 16  1  0
 14 17  1  0
 13 18  2  0
  2 19  1  0
 19 20  1  0
 20 21  2  0
 21 22  1  0
 22 23  2  0
 23 24  1  0
 23 25  1  0
 25 26  2  0
 18  9  1  0
 26 20  1  0
  3 27  1  0
  3 28  1  0
  7 29  1  0
  8 30  1  0
 10 31  1  0
 11 32  1  0
 12 33  1  0
 18 34  1  0
 19 35  1  0
 21 36  1  0
 22 37  1  0
 25 38  1  0
M  END
$$$$
