
     RDKit          3D

 29 31  0  0  0  0  0  0  0  0999 V2000
    2.6471    0.6650    2.2131 N   0  0  0  0  0  0  0  0  0  0  0  0
    2.2775    0.2641    0.9123 C   0  0  0  0  0  0  0  0  0  0  0  0
    0.9035   -0.0535    0.6891 C   0  0  0  0  0  0  0  0  0  0  0  0
    0.3653   -0.5650   -0.5216 C   0  0  0  0  0  0  0  0  0  0  0  0
   -0.9918   -0.8565   -0.7139 N   0  0  0  0  0  0  0  0  0  0  0  0
   -2.1576   -0.2653   -0.1894 C   0  0  0  0  0  0  0  0  0  0  0  0
   -3.3537   -0.9966   -0.2413 C   0  0  0  0  0  0  0  0  0  0  0  0
   -4.5397   -0.4815    0.2885 C   0  0  0  0  0  0  0  0  0  0  0  0
   -4.5461    0.7769    0.8824 C   0  0  0  0  0  0  0  0  0  0  0  0
   -3.3681    1.5164    0.9447 C   0  0  0  0  0  0  0  0  0  0  0  0
   -2.1826    0.9959    0.4154 C   0  0  0  0  0  0  0  0  0  0  0  0
    1.3500   -0.8210   -1.5109 C   0  0  0  0  0  0  0  0  0  0  0  0
    1.1840   -1.3139   -2.7465 N   0  0  0  0  0  0  0  0  0  0  0  0
    2.4460   -1.3607   -3.3078 O   0  0  0  0  0  0  0  0  0  0  0  0
    3.4104   -0.8946   -2.4357 N   0  0  0  0  0  0  0  0  0  0  0  0
    2.7690   -0.5652   -1.3051 C   0  0  0  0  0  0  0  0  0  0  0  0
    3.2287   -0.0472   -0.0833 C   0  0  0  0  0  0  0  0  0  0  0  0
    4.6370    0.1647    0.0905 N   0  0  0  0  0  4  0  0  0  0  0  0
    4.9844    1.2655    0.5458 O   0  0  0  0  0  0  0  0  0  0  0  0
    5.4034   -0.7662   -0.1871 O   0  0  0  0  0  1  0  0  0  0  0  0
    1.9130    1.1260    2.7460 H   0  0  0  0  0  0  0  0  0  0  0  0
    3.5244    1.1897    2.2626 H   0  0  0  0  0  0  0  0  0  0  0  0
    0.2142    0.0830    1.5245 H   0  0  0  0  0  0  0  0  0  0  0  0
   -1.1682   -1.3037   -1.6143 H   0  0  0  0  0  0  0  0  0  0  0  0
   -3.3665   -1.9886   -0.6872 H   0  0  0  0  0  0  0  0  0  0  0  0
   -5.4547   -1.0659    0.2400 H   0  0  0  0  0  0  0  0  0  0  0  0
   -5.4671    1.1812    1.2942 H   0  0  0  0  0  0  0  0  0  0  0  0
   -3.3709    2.5035    1.4000 H   0  0  0  0  0  0  0  0  0  0  0  0
   -1.2908    1.6133    0.4528 H   0  0  0  0  0  0  0  0  0  0  0  0
  1  2  1  0
  2  3  1  0
  3  4  2  0
  4  5  1  0
  5  6  1  0
  6  7  2  0
  7  8  1  0
  8  9  2  0
  9 10  1  0
 10 11  2  0
  4 12  1  0
 12 13  2  0
 13 14  1  0
 14 15  1  0
 15 16  2  0
 16 17  1  0
 17 18  1  0
 18 19  2  0
 18 20  1  0
 17  2  2  0
 11  6  1  0
 16 12  1  0
  1 21  1  0
  1 22  1  0
  3 23  1  0
  5 24  1  0
  7 25  1  0
  8 26  1  0
  9 27  1  0
 10 28  1  0
 11 29  1  0
M  CHG  2  18   1  20  -1
M  END
$$$$
