
     RDKit          3D

 63 67  0  0  0  0  0  0  0  0999 V2000
   -5.2514   -5.9283    1.3951 C   0  0  0  0  0  0  0  0  0  0  0  0
   -5.1312   -4.5368    1.6645 O   0  0  0  0  0  0  0  0  0  0  0  0
   -4.6153   -3.7553    0.6669 C   0  0  0  0  0  0  0  0  0  0  0  0
   -4.1775   -4.2009   -0.5805 C   0  0  0  0  0  0  0  0  0  0  0  0
   -3.6645   -3.2916   -1.5091 C   0  0  0  0  0  0  0  0  0  0  0  0
   -3.5874   -1.9343   -1.1952 C   0  0  0  0  0  0  0  0  0  0  0  0
   -4.0239   -1.4715    0.0513 C   0  0  0  0  0  0  0  0  0  0  0  0
   -3.9260   -0.0460    0.3888 C   0  0  0  0  0  0  0  0  0  0  0  0
   -5.3762    0.8243    0.6530 S   0  0  0  0  0  0  0  0  0  0  0  0
   -4.5479    2.2990    0.9420 C   0  0  0  0  0  0  0  0  0  0  0  0
   -5.1257    3.5461    1.2494 C   0  0  0  0  0  0  0  0  0  0  0  0
   -4.2956    4.6530    1.4605 C   0  0  0  0  0  0  0  0  0  0  0  0
   -2.9161    4.5286    1.3731 C   0  0  0  0  0  0  0  0  0  0  0  0
   -2.0030    5.5305    1.5587 O   0  0  0  0  0  0  0  0  0  0  0  0
   -2.5148    6.8168    1.8849 C   0  0  0  0  0  0  0  0  0  0  0  0
   -2.3553    3.2825    1.0683 C   0  0  0  0  0  0  0  0  0  0  0  0
   -3.1662    2.1390    0.8392 C   0  0  0  0  0  0  0  0  0  0  0  0
   -2.8125    0.7727    0.5108 C   0  0  0  0  0  0  0  0  0  0  0  0
   -1.4539    0.2690    0.3200 C   0  0  0  0  0  0  0  0  0  0  0  0
   -0.6647    0.7685   -0.7224 C   0  0  0  0  0  0  0  0  0  0  0  0
    0.6450    0.3104   -0.9041 C   0  0  0  0  0  0  0  0  0  0  0  0
    1.1768   -0.6508   -0.0440 C   0  0  0  0  0  0  0  0  0  0  0  0
    2.4377   -1.1768   -0.1104 O   0  0  0  0  0  0  0  0  0  0  0  0
    3.3542   -0.5408   -1.0076 C   0  0  0  0  0  0  0  0  0  0  0  0
    4.7312   -1.2034   -0.8329 C   0  0  0  0  0  0  0  0  0  0  0  0
    5.7755   -0.6609   -1.7205 N   0  0  0  0  0  0  0  0  0  0  0  0
    6.0582    0.7642   -1.4295 C   0  0  0  0  0  0  0  0  0  0  0  0
    7.4786    1.1702   -1.8504 C   0  0  0  0  0  0  0  0  0  0  0  0
    8.4895    0.4698   -1.1130 O   0  0  0  0  0  0  0  0  0  0  0  0
    8.0882   -0.8515   -0.7245 C   0  0  0  0  0  0  0  0  0  0  0  0
    7.0203   -1.4598   -1.6472 C   0  0  0  0  0  0  0  0  0  0  0  0
    0.3844   -1.1576    0.9890 C   0  0  0  0  0  0  0  0  0  0  0  0
   -0.9216   -0.6981    1.1774 C   0  0  0  0  0  0  0  0  0  0  0  0
   -4.5354   -2.3937    0.9756 C   0  0  0  0  0  0  0  0  0  0  0  0
   -4.2704   -6.3832    1.2236 H   0  0  0  0  0  0  0  0  0  0  0  0
   -5.6879   -6.4034    2.2783 H   0  0  0  0  0  0  0  0  0  0  0  0
   -5.9256   -6.1107    0.5519 H   0  0  0  0  0  0  0  0  0  0  0  0
   -4.2185   -5.2478   -0.8615 H   0  0  0  0  0  0  0  0  0  0  0  0
   -3.3212   -3.6421   -2.4794 H   0  0  0  0  0  0  0  0  0  0  0  0
   -3.1842   -1.2399   -1.9288 H   0  0  0  0  0  0  0  0  0  0  0  0
   -6.2050    3.6499    1.3234 H   0  0  0  0  0  0  0  0  0  0  0  0
   -4.7706    5.6003    1.6947 H   0  0  0  0  0  0  0  0  0  0  0  0
   -3.1438    7.2076    1.0778 H   0  0  0  0  0  0  0  0  0  0  0  0
   -1.6641    7.4952    2.0014 H   0  0  0  0  0  0  0  0  0  0  0  0
   -3.0575    6.7964    2.8361 H   0  0  0  0  0  0  0  0  0  0  0  0
   -1.2727    3.1927    1.0108 H   0  0  0  0  0  0  0  0  0  0  0  0
   -1.0642    1.5178   -1.4026 H   0  0  0  0  0  0  0  0  0  0  0  0
    1.2176    0.7219   -1.7285 H   0  0  0  0  0  0  0  0  0  0  0  0
    3.4180    0.5272   -0.7691 H   0  0  0  0  0  0  0  0  0  0  0  0
    3.0178   -0.6765   -2.0427 H   0  0  0  0  0  0  0  0  0  0  0  0
    5.0372   -1.1447    0.2202 H   0  0  0  0  0  0  0  0  0  0  0  0
    4.5976   -2.2734   -1.0419 H   0  0  0  0  0  0  0  0  0  0  0  0
    5.9576    0.9608   -0.3534 H   0  0  0  0  0  0  0  0  0  0  0  0
    5.3316    1.3899   -1.9601 H   0  0  0  0  0  0  0  0  0  0  0  0
    7.6299    2.2410   -1.6779 H   0  0  0  0  0  0  0  0  0  0  0  0
    7.6398    0.9876   -2.9198 H   0  0  0  0  0  0  0  0  0  0  0  0
    7.7252   -0.8073    0.3092 H   0  0  0  0  0  0  0  0  0  0  0  0
    8.9864   -1.4781   -0.7264 H   0  0  0  0  0  0  0  0  0  0  0  0
    6.8204   -2.4975   -1.3570 H   0  0  0  0  0  0  0  0  0  0  0  0
    7.4295   -1.5028   -2.6644 H   0  0  0  0  0  0  0  0  0  0  0  0
    0.7889   -1.9121    1.6591 H   0  0  0  0  0  0  0  0  0  0  0  0
   -1.5138   -1.0995    1.9963 H   0  0  0  0  0  0  0  0  0  0  0  0
   -4.8715   -2.0561    1.9537 H   0  0  0  0  0  0  0  0  0  0  0  0
  1  2  1  0
  2  3  1  0
  3  4  2  0
  4  5  1  0
  5  6  2  0
  6  7  1  0
  7  8  1  0
  8  9  1  0
  9 10  1  0
 10 11  2  0
 11 12  1  0
 12 13  2  0
 13 14  1  0
 14 15  1  0
 13 16  1  0
 16 17  2  0
 17 18  1  0
 18 19  1  0
 19 20  2  0
 20 21  1  0
 21 22  2  0
 22 23  1  0
 23 24  1  0
 24 25  1  0
 25 26  1  0
 26 27  1  0
 27 28  1  0
 28 29  1  0
 29 30  1  0
 30 31  1  0
 22 32  1  0
 32 33  2  0
  7 34  2  0
 34  3  1  0
 18  8  2  0
 33 19  1  0
 17 10  1  0
 31 26  1  0
  1 35  1  0
  1 36  1  0
  1 37  1  0
  4 38  1  0
  5 39  1  0
  6 40  1  0
 11 41  1  0
 12 42  1  0
 15 43  1  0
 15 44  1  0
 15 45  1  0
 16 46  1  0
 20 47  1  0
 21 48  1  0
 24 49  1  0
 24 50  1  0
 25 51  1  0
 25 52  1  0
 27 53  1  0
 27 54  1  0
 28 55  1  0
 28 56  1  0
 30 57  1  0
 30 58  1  0
 31 59  1  0
 31 60  1  0
 32 61  1  0
 33 62  1  0
 34 63  1  0
M  END
$$$$
