
     RDKit          3D

 58 61  0  0  0  0  0  0  0  0999 V2000
    2.2332    2.5412   -2.2178 S   0  0  0  0  0  0  0  0  0  0  0  0
    1.6068    1.1290   -1.5577 C   0  0  0  0  0  0  0  0  0  0  0  0
    2.2695   -0.0816   -1.5849 N   0  0  0  0  0  0  0  0  0  0  0  0
    3.5582   -0.3785   -2.2075 C   0  0  0  0  0  0  0  0  0  0  0  0
    4.7661    0.0001   -1.3465 C   0  0  0  0  0  0  0  0  0  0  0  0
    4.8445   -0.8165   -0.0495 C   0  0  0  0  0  0  0  0  0  0  0  0
    6.1014   -0.5999    0.6839 N   0  0  0  0  0  0  0  0  0  0  0  0
    6.2327   -1.5125    1.8385 C   0  0  0  0  0  0  0  0  0  0  0  0
    5.9262   -0.8422    3.1838 C   0  0  0  0  0  0  0  0  0  0  0  0
    6.7951    0.2604    3.4693 O   0  0  0  0  0  0  0  0  0  0  0  0
    7.2462    0.9385    2.2901 C   0  0  0  0  0  0  0  0  0  0  0  0
    6.2688    0.8067    1.1123 C   0  0  0  0  0  0  0  0  0  0  0  0
    0.3558    1.0515   -0.9330 N   0  0  0  0  0  0  0  0  0  0  0  0
   -0.3996    2.2600   -0.5439 C   0  0  0  0  0  0  0  0  0  0  0  0
   -1.4711    1.9962    0.5317 C   0  0  0  0  0  0  0  0  0  0  0  0
   -2.3855    0.9165    0.1441 N   0  0  0  0  0  0  0  0  0  0  0  0
   -3.7221    0.9504    0.4360 C   0  0  0  0  0  0  0  0  0  0  0  0
   -4.6110    0.2182   -0.2022 N   0  0  0  0  0  0  0  0  0  0  0  0
   -5.8953    0.4344    0.2829 C   0  0  0  0  0  0  0  0  0  0  0  0
   -7.0420   -0.2634   -0.2911 C   0  0  0  0  0  0  0  0  0  0  0  0
   -6.8423   -1.4791   -0.9622 C   0  0  0  0  0  0  0  0  0  0  0  0
   -7.9178   -2.1723   -1.5229 C   0  0  0  0  0  0  0  0  0  0  0  0
   -9.2071   -1.6552   -1.4230 C   0  0  0  0  0  0  0  0  0  0  0  0
   -9.4209   -0.4463   -0.7659 C   0  0  0  0  0  0  0  0  0  0  0  0
   -8.3448    0.2483   -0.2052 C   0  0  0  0  0  0  0  0  0  0  0  0
   -5.9667    1.3249    1.3316 C   0  0  0  0  0  0  0  0  0  0  0  0
   -4.4053    1.9090    1.7089 S   0  0  0  0  0  0  0  0  0  0  0  0
   -1.9391    0.0058   -0.9147 C   0  0  0  0  0  0  0  0  0  0  0  0
   -0.4161   -0.2060   -0.8538 C   0  0  0  0  0  0  0  0  0  0  0  0
    1.9380   -0.7778   -0.9339 H   0  0  0  0  0  0  0  0  0  0  0  0
    3.5658   -1.4549   -2.4137 H   0  0  0  0  0  0  0  0  0  0  0  0
    3.6144    0.1355   -3.1742 H   0  0  0  0  0  0  0  0  0  0  0  0
    5.6741   -0.1773   -1.9375 H   0  0  0  0  0  0  0  0  0  0  0  0
    4.7398    1.0691   -1.1161 H   0  0  0  0  0  0  0  0  0  0  0  0
    3.9829   -0.5951    0.5935 H   0  0  0  0  0  0  0  0  0  0  0  0
    4.7785   -1.8772   -0.3220 H   0  0  0  0  0  0  0  0  0  0  0  0
    7.2756   -1.8514    1.8524 H   0  0  0  0  0  0  0  0  0  0  0  0
    5.6175   -2.4130    1.7178 H   0  0  0  0  0  0  0  0  0  0  0  0
    6.0343   -1.5626    3.9996 H   0  0  0  0  0  0  0  0  0  0  0  0
    4.8943   -0.4811    3.2106 H   0  0  0  0  0  0  0  0  0  0  0  0
    8.2333    0.5421    2.0231 H   0  0  0  0  0  0  0  0  0  0  0  0
    7.3819    1.9932    2.5515 H   0  0  0  0  0  0  0  0  0  0  0  0
    5.3025    1.2266    1.4221 H   0  0  0  0  0  0  0  0  0  0  0  0
    6.6424    1.4001    0.2715 H   0  0  0  0  0  0  0  0  0  0  0  0
    0.2913    3.0238   -0.1724 H   0  0  0  0  0  0  0  0  0  0  0  0
   -0.8767    2.6493   -1.4518 H   0  0  0  0  0  0  0  0  0  0  0  0
   -1.9990    2.9433    0.7032 H   0  0  0  0  0  0  0  0  0  0  0  0
   -0.9801    1.7116    1.4721 H   0  0  0  0  0  0  0  0  0  0  0  0
   -5.8405   -1.8958   -1.0443 H   0  0  0  0  0  0  0  0  0  0  0  0
   -7.7466   -3.1132   -2.0376 H   0  0  0  0  0  0  0  0  0  0  0  0
  -10.0434   -2.1929   -1.8623 H   0  0  0  0  0  0  0  0  0  0  0  0
  -10.4272   -0.0392   -0.6925 H   0  0  0  0  0  0  0  0  0  0  0  0
   -8.5441    1.1985    0.2829 H   0  0  0  0  0  0  0  0  0  0  0  0
   -6.8267    1.6432    1.9017 H   0  0  0  0  0  0  0  0  0  0  0  0
   -2.2173    0.4191   -1.8922 H   0  0  0  0  0  0  0  0  0  0  0  0
   -2.4202   -0.9755   -0.8150 H   0  0  0  0  0  0  0  0  0  0  0  0
   -0.1450   -0.6794    0.0977 H   0  0  0  0  0  0  0  0  0  0  0  0
   -0.1177   -0.8782   -1.6654 H   0  0  0  0  0  0  0  0  0  0  0  0
  1  2  2  0
  2  3  1  0
  3  4  1  0
  4  5  1  0
  5  6  1  0
  6  7  1  0
  7  8  1  0
  8  9  1  0
  9 10  1  0
 10 11  1  0
 11 12  1  0
  2 13  1  0
 13 14  1  0
 14 15  1  0
 15 16  1  0
 16 17  1  0
 17 18  2  0
 18 19  1  0
 19 20  1  0
 20 21  2  0
 21 22  1  0
 22 23  2  0
 23 24  1  0
 24 25  2  0
 19 26  2  0
 26 27  1  0
 16 28  1  0
 28 29  1  0
 12  7  1  0
 29 13  1  0
 27 17  1  0
 25 20  1  0
  3 30  1  0
  4 31  1  0
  4 32  1  0
  5 33  1  0
  5 34  1  0
  6 35  1  0
  6 36  1  0
  8 37  1  0
  8 38  1  0
  9 39  1  0
  9 40  1  0
 11 41  1  0
 11 42  1  0
 12 43  1  0
 12 44  1  0
 14 45  1  0
 14 46  1  0
 15 47  1  0
 15 48  1  0
 21 49  1  0
 22 50  1  0
 23 51  1  0
 24 52  1  0
 25 53  1  0
 26 54  1  0
 28 55  1  0
 28 56  1  0
 29 57  1  0
 29 58  1  0
M  END
$$$$
