
     RDKit          3D

 44 47  0  0  0  0  0  0  0  0999 V2000
    0.5945   -3.7605    0.8413 O   0  0  0  0  0  0  0  0  0  0  0  0
    0.5103   -3.2842   -0.2989 C   0  0  0  0  0  0  0  0  0  0  0  0
    1.3734   -3.8699   -1.4134 C   0  0  0  0  0  0  0  0  0  0  0  0
    3.1418   -3.6024   -1.0543 S   0  0  0  0  0  0  0  0  0  0  0  0
    3.1231   -1.9250   -0.6750 C   0  0  0  0  0  0  0  0  0  0  0  0
    2.8735   -0.9300   -1.4922 N   0  0  0  0  0  0  0  0  0  0  0  0
    2.9232    0.1914   -0.6952 C   0  0  0  0  0  0  0  0  0  0  0  0
    2.7439    1.5393   -1.0363 C   0  0  0  0  0  0  0  0  0  0  0  0
    2.8076    2.4895   -0.0139 C   0  0  0  0  0  0  0  0  0  0  0  0
    2.5811    4.1545   -0.3912 Cl  0  0  0  0  0  0  0  0  0  0  0  0
    3.0480    2.1215    1.3155 C   0  0  0  0  0  0  0  0  0  0  0  0
    3.2412    0.7839    1.6685 C   0  0  0  0  0  0  0  0  0  0  0  0
    3.1729   -0.1493    0.6338 C   0  0  0  0  0  0  0  0  0  0  0  0
    3.3126   -1.5146    0.6093 N   0  0  0  0  0  0  0  0  0  0  0  0
   -0.3130   -2.1961   -0.5580 N   0  0  0  0  0  0  0  0  0  0  0  0
   -1.1973   -1.7248    0.5118 C   0  0  0  0  0  0  0  0  0  0  0  0
   -1.3167   -0.1990    0.5314 C   0  0  0  0  0  0  0  0  0  0  0  0
   -1.6930    0.3385   -0.7822 N   0  0  0  0  0  0  0  0  0  0  0  0
   -2.2115    1.6401   -0.9061 C   0  0  0  0  0  0  0  0  0  0  0  0
   -1.9181    2.3432   -1.8739 O   0  0  0  0  0  0  0  0  0  0  0  0
   -3.1020    2.1267    0.1330 C   0  0  0  0  0  0  0  0  0  0  0  0
   -3.3413    3.4155    0.5784 C   0  0  0  0  0  0  0  0  0  0  0  0
   -4.3294    3.3289    1.5879 C   0  0  0  0  0  0  0  0  0  0  0  0
   -4.6581    1.9976    1.6815 C   0  0  0  0  0  0  0  0  0  0  0  0
   -3.9280    1.2624    0.8025 O   0  0  0  0  0  0  0  0  0  0  0  0
   -0.8367   -0.1196   -1.8747 C   0  0  0  0  0  0  0  0  0  0  0  0
   -0.6206   -1.6415   -1.8871 C   0  0  0  0  0  0  0  0  0  0  0  0
    1.1446   -3.4996   -2.4117 H   0  0  0  0  0  0  0  0  0  0  0  0
    1.1862   -4.9527   -1.4360 H   0  0  0  0  0  0  0  0  0  0  0  0
    2.5530    1.8204   -2.0655 H   0  0  0  0  0  0  0  0  0  0  0  0
    3.0940    2.8855    2.0909 H   0  0  0  0  0  0  0  0  0  0  0  0
    3.4376    0.4936    2.6916 H   0  0  0  0  0  0  0  0  0  0  0  0
    3.4739   -2.1245    1.3977 H   0  0  0  0  0  0  0  0  0  0  0  0
   -0.8502   -2.0692    1.4908 H   0  0  0  0  0  0  0  0  0  0  0  0
   -2.1809   -2.1761    0.3328 H   0  0  0  0  0  0  0  0  0  0  0  0
   -0.3473    0.2518    0.7872 H   0  0  0  0  0  0  0  0  0  0  0  0
   -2.0121    0.0970    1.3168 H   0  0  0  0  0  0  0  0  0  0  0  0
   -2.8485    4.3054    0.2124 H   0  0  0  0  0  0  0  0  0  0  0  0
   -4.7586    4.1354    2.1639 H   0  0  0  0  0  0  0  0  0  0  0  0
   -5.3577    1.4400    2.2897 H   0  0  0  0  0  0  0  0  0  0  0  0
   -1.2632    0.1896   -2.8341 H   0  0  0  0  0  0  0  0  0  0  0  0
    0.1244    0.3935   -1.7668 H   0  0  0  0  0  0  0  0  0  0  0  0
   -1.5366   -2.1447   -2.2230 H   0  0  0  0  0  0  0  0  0  0  0  0
    0.1602   -1.8615   -2.6148 H   0  0  0  0  0  0  0  0  0  0  0  0
  1  2  2  0
  2  3  1  0
  3  4  1  0
  4  5  1  0
  5  6  2  0
  6  7  1  0
  7  8  2  0
  8  9  1  0
  9 10  1  0
  9 11  2  0
 11 12  1  0
 12 13  2  0
 13 14  1  0
  2 15  1  0
 15 16  1  0
 16 17  1  0
 17 18  1  0
 18 19  1  0
 19 20  2  0
 19 21  1  0
 21 22  2  0
 22 23  1  0
 23 24  2  0
 24 25  1  0
 18 26  1  0
 26 27  1  0
 14  5  1  0
 27 15  1  0
 13  7  1  0
 25 21  1  0
  3 28  1  0
  3 29  1  0
  8 30  1  0
 11 31  1  0
 12 32  1  0
 14 33  1  0
 16 34  1  0
 16 35  1  0
 17 36  1  0
 17 37  1  0
 22 38  1  0
 23 39  1  0
 24 40  1  0
 26 41  1  0
 26 42  1  0
 27 43  1  0
 27 44  1  0
M  END
$$$$
