
     RDKit          3D

 45 47  0  0  0  0  0  0  0  0999 V2000
    6.1994    3.3321    0.2342 C   0  0  0  0  0  0  0  0  0  0  0  0
    5.2157    2.6929   -0.7140 C   0  0  0  0  0  0  0  0  0  0  0  0
    5.5917    2.2030   -1.7727 O   0  0  0  0  0  0  0  0  0  0  0  0
    3.9239    2.7130   -0.2191 N   0  0  0  0  0  0  0  0  0  0  0  0
    2.7595    2.2200   -0.8424 C   0  0  0  0  0  0  0  0  0  0  0  0
    1.5635    2.2980   -0.1150 C   0  0  0  0  0  0  0  0  0  0  0  0
    0.3637    1.8286   -0.6576 C   0  0  0  0  0  0  0  0  0  0  0  0
    0.3586    1.2634   -1.9334 C   0  0  0  0  0  0  0  0  0  0  0  0
   -1.1689    0.6854   -2.6453 S   0  0  0  0  0  6  0  0  0  0  0  0
   -2.2560    1.2873   -1.9052 O   0  0  0  0  0  0  0  0  0  0  0  0
   -1.0660    0.8876   -4.0773 O   0  0  0  0  0  0  0  0  0  0  0  0
   -1.1170   -0.9543   -2.3550 N   0  0  0  0  0  0  0  0  0  0  0  0
   -0.4013   -1.8023   -3.3093 C   0  0  0  0  0  0  0  0  0  0  0  0
   -0.5931   -3.1711   -2.6537 C   0  0  0  0  0  0  0  0  0  0  0  0
   -1.0143   -2.9322   -1.2468 N   0  0  0  0  0  0  0  0  0  0  0  0
   -1.3150   -1.6741   -1.1735 C   0  0  0  0  0  0  0  0  0  0  0  0
   -1.8677   -0.9365    0.2783 S   0  0  0  0  0  0  0  0  0  0  0  0
   -2.4214   -2.4019    1.1876 C   0  0  0  0  0  0  0  0  0  0  0  0
   -3.0186   -2.0237    2.5227 C   0  0  0  0  0  0  0  0  0  0  0  0
   -4.3673   -1.6410    2.6168 C   0  0  0  0  0  0  0  0  0  0  0  0
   -4.9140   -1.2781    3.8486 C   0  0  0  0  0  0  0  0  0  0  0  0
   -4.1142   -1.2930    4.9847 C   0  0  0  0  0  0  0  0  0  0  0  0
   -4.6396   -0.9437    6.1664 F   0  0  0  0  0  0  0  0  0  0  0  0
   -2.7762   -1.6613    4.9133 C   0  0  0  0  0  0  0  0  0  0  0  0
   -2.2262   -2.0238    3.6828 C   0  0  0  0  0  0  0  0  0  0  0  0
    1.5352    1.2120   -2.6829 C   0  0  0  0  0  0  0  0  0  0  0  0
    2.7328    1.6810   -2.1315 C   0  0  0  0  0  0  0  0  0  0  0  0
    5.7669    4.2205    0.7036 H   0  0  0  0  0  0  0  0  0  0  0  0
    6.4836    2.6092    1.0036 H   0  0  0  0  0  0  0  0  0  0  0  0
    7.0901    3.6414   -0.3204 H   0  0  0  0  0  0  0  0  0  0  0  0
    3.7995    3.1051    0.7060 H   0  0  0  0  0  0  0  0  0  0  0  0
    1.5449    2.7278    0.8839 H   0  0  0  0  0  0  0  0  0  0  0  0
   -0.5548    1.9146   -0.0803 H   0  0  0  0  0  0  0  0  0  0  0  0
   -0.8371   -1.7808   -4.3109 H   0  0  0  0  0  0  0  0  0  0  0  0
    0.6610   -1.5470   -3.3482 H   0  0  0  0  0  0  0  0  0  0  0  0
    0.3324   -3.7548   -2.6803 H   0  0  0  0  0  0  0  0  0  0  0  0
   -1.3753   -3.7444   -3.1640 H   0  0  0  0  0  0  0  0  0  0  0  0
   -3.1679   -2.9464    0.5978 H   0  0  0  0  0  0  0  0  0  0  0  0
   -1.5777   -3.0828    1.3481 H   0  0  0  0  0  0  0  0  0  0  0  0
   -4.9958   -1.6170    1.7285 H   0  0  0  0  0  0  0  0  0  0  0  0
   -5.9547   -0.9802    3.9274 H   0  0  0  0  0  0  0  0  0  0  0  0
   -2.1706   -1.6607    5.8138 H   0  0  0  0  0  0  0  0  0  0  0  0
   -1.1760   -2.3039    3.6323 H   0  0  0  0  0  0  0  0  0  0  0  0
    1.5362    0.8206   -3.6978 H   0  0  0  0  0  0  0  0  0  0  0  0
    3.6281    1.6237   -2.7436 H   0  0  0  0  0  0  0  0  0  0  0  0
  1  2  1  0
  2  3  2  0
  2  4  1  0
  4  5  1  0
  5  6  2  0
  6  7  1  0
  7  8  2  0
  8  9  1  0
  9 10  2  0
  9 11  2  0
  9 12  1  0
 12 13  1  0
 13 14  1  0
 14 15  1  0
 15 16  2  0
 16 17  1  0
 17 18  1  0
 18 19  1  0
 19 20  2  0
 20 21  1  0
 21 22  2  0
 22 23  1  0
 22 24  1  0
 24 25  2  0
  8 26  1  0
 26 27  2  0
 27  5  1  0
 16 12  1  0
 25 19  1  0
  1 28  1  0
  1 29  1  0
  1 30  1  0
  4 31  1  0
  6 32  1  0
  7 33  1  0
 13 34  1  0
 13 35  1  0
 14 36  1  0
 14 37  1  0
 18 38  1  0
 18 39  1  0
 20 40  1  0
 21 41  1  0
 24 42  1  0
 25 43  1  0
 26 44  1  0
 27 45  1  0
M  END
$$$$
