
     RDKit          3D

 54 56  0  0  0  0  0  0  0  0999 V2000
   -1.1479   -3.8549   -0.4776 N   0  0  0  0  0  0  0  0  0  0  0  0
   -2.1234   -2.9292   -0.5233 C   0  0  0  0  0  0  0  0  0  0  0  0
   -3.3622   -3.2308   -0.7766 N   0  0  0  0  0  0  0  0  0  0  0  0
   -4.0727   -1.9235   -0.6995 C   0  0  0  0  0  0  0  0  0  0  0  0
   -2.9868   -0.8294   -0.6203 C   0  0  0  0  0  0  0  0  0  0  0  0
   -3.2645    0.2237    0.4572 C   0  0  0  0  0  0  0  0  0  0  0  0
   -4.4303    1.1202    0.1141 C   0  0  0  0  0  0  0  0  0  0  0  0
   -4.2898    2.1308   -0.8474 C   0  0  0  0  0  0  0  0  0  0  0  0
   -5.3713    2.9491   -1.1767 C   0  0  0  0  0  0  0  0  0  0  0  0
   -6.6018    2.7659   -0.5492 C   0  0  0  0  0  0  0  0  0  0  0  0
   -6.7516    1.7657    0.4093 C   0  0  0  0  0  0  0  0  0  0  0  0
   -5.6714    0.9464    0.7406 C   0  0  0  0  0  0  0  0  0  0  0  0
   -1.7976   -1.6262   -0.2995 N   0  0  0  0  0  0  0  0  0  0  0  0
   -0.4902   -1.0495   -0.5939 C   0  0  0  0  0  0  0  0  0  0  0  0
    0.3369   -0.9561    0.6903 C   0  0  0  0  0  0  0  0  0  0  0  0
    1.6646   -0.2118    0.5068 C   0  0  0  0  0  0  0  0  0  0  0  0
    2.6440   -0.9503   -0.4120 C   0  0  0  0  0  0  0  0  0  0  0  0
    4.0432   -0.3159   -0.5440 C   0  0  0  0  0  0  0  0  0  0  0  0
    3.9984    1.1017   -1.1347 C   0  0  0  0  0  0  0  0  0  0  0  0
    5.4042    1.6716   -1.3201 C   0  0  0  0  0  0  0  0  0  0  0  0
    6.1991    1.6435   -0.0176 C   0  0  0  0  0  0  0  0  0  0  0  0
    6.2338    0.2448    0.5922 C   0  0  0  0  0  0  0  0  0  0  0  0
    4.8272   -0.3235    0.7776 C   0  0  0  0  0  0  0  0  0  0  0  0
   -0.5547   -3.7537    0.3342 H   0  0  0  0  0  0  0  0  0  0  0  0
   -1.5560   -4.7837   -0.5103 H   0  0  0  0  0  0  0  0  0  0  0  0
   -4.7228   -1.9372    0.1821 H   0  0  0  0  0  0  0  0  0  0  0  0
   -4.6990   -1.7875   -1.5873 H   0  0  0  0  0  0  0  0  0  0  0  0
   -2.8698   -0.3699   -1.6107 H   0  0  0  0  0  0  0  0  0  0  0  0
   -2.3799    0.8580    0.6014 H   0  0  0  0  0  0  0  0  0  0  0  0
   -3.4311   -0.2584    1.4297 H   0  0  0  0  0  0  0  0  0  0  0  0
   -3.3360    2.2897   -1.3457 H   0  0  0  0  0  0  0  0  0  0  0  0
   -5.2543    3.7307   -1.9231 H   0  0  0  0  0  0  0  0  0  0  0  0
   -7.4439    3.4032   -0.8061 H   0  0  0  0  0  0  0  0  0  0  0  0
   -7.7111    1.6230    0.9000 H   0  0  0  0  0  0  0  0  0  0  0  0
   -5.8076    0.1703    1.4911 H   0  0  0  0  0  0  0  0  0  0  0  0
   -0.6057   -0.0436   -1.0166 H   0  0  0  0  0  0  0  0  0  0  0  0
    0.0265   -1.6439   -1.3555 H   0  0  0  0  0  0  0  0  0  0  0  0
    0.5312   -1.9572    1.0924 H   0  0  0  0  0  0  0  0  0  0  0  0
   -0.2473   -0.4290    1.4555 H   0  0  0  0  0  0  0  0  0  0  0  0
    2.1111   -0.0842    1.4985 H   0  0  0  0  0  0  0  0  0  0  0  0
    1.4600    0.7913    0.1167 H   0  0  0  0  0  0  0  0  0  0  0  0
    2.7614   -1.9811   -0.0539 H   0  0  0  0  0  0  0  0  0  0  0  0
    2.2121   -1.0209   -1.4173 H   0  0  0  0  0  0  0  0  0  0  0  0
    4.5978   -0.9474   -1.2533 H   0  0  0  0  0  0  0  0  0  0  0  0
    3.4332    1.7725   -0.4772 H   0  0  0  0  0  0  0  0  0  0  0  0
    3.4825    1.0890   -2.1019 H   0  0  0  0  0  0  0  0  0  0  0  0
    5.9354    1.0914   -2.0847 H   0  0  0  0  0  0  0  0  0  0  0  0
    5.3385    2.7014   -1.6894 H   0  0  0  0  0  0  0  0  0  0  0  0
    7.2218    1.9911   -0.2019 H   0  0  0  0  0  0  0  0  0  0  0  0
    5.7484    2.3419    0.6986 H   0  0  0  0  0  0  0  0  0  0  0  0
    6.7484    0.2771    1.5590 H   0  0  0  0  0  0  0  0  0  0  0  0
    6.8146   -0.4222   -0.0566 H   0  0  0  0  0  0  0  0  0  0  0  0
    4.3076    0.2735    1.5361 H   0  0  0  0  0  0  0  0  0  0  0  0
    4.8982   -1.3464    1.1662 H   0  0  0  0  0  0  0  0  0  0  0  0
  1  2  1  0
  2  3  2  0
  3  4  1  0
  4  5  1  0
  5  6  1  0
  6  7  1  0
  7  8  2  0
  8  9  1  0
  9 10  2  0
 10 11  1  0
 11 12  2  0
  5 13  1  0
 13 14  1  0
 14 15  1  0
 15 16  1  0
 16 17  1  0
 17 18  1  0
 18 19  1  0
 19 20  1  0
 20 21  1  0
 21 22  1  0
 22 23  1  0
 13  2  1  0
 23 18  1  0
 12  7  1  0
  1 24  1  0
  1 25  1  0
  4 26  1  0
  4 27  1  0
  5 28  1  0
  6 29  1  0
  6 30  1  0
  8 31  1  0
  9 32  1  0
 10 33  1  0
 11 34  1  0
 12 35  1  0
 14 36  1  0
 14 37  1  0
 15 38  1  0
 15 39  1  0
 16 40  1  0
 16 41  1  0
 17 42  1  0
 17 43  1  0
 18 44  1  0
 19 45  1  0
 19 46  1  0
 20 47  1  0
 20 48  1  0
 21 49  1  0
 21 50  1  0
 22 51  1  0
 22 52  1  0
 23 53  1  0
 23 54  1  0
M  END
$$$$
