
     RDKit          3D

 48 50  0  0  0  0  0  0  0  0999 V2000
   -2.4535    3.6986   -2.9660 C   0  0  0  0  0  0  0  0  0  0  0  0
   -1.5809    4.0014   -1.7616 C   0  0  0  0  0  0  0  0  0  0  0  0
   -0.9772    2.7908   -1.2789 O   0  0  0  0  0  0  0  0  0  0  0  0
   -1.7104    2.0692   -0.3765 C   0  0  0  0  0  0  0  0  0  0  0  0
   -2.8189    2.4106    0.0181 O   0  0  0  0  0  0  0  0  0  0  0  0
   -1.0389    0.8332    0.0652 C   0  0  0  0  0  0  0  0  0  0  0  0
    0.2600    0.4667   -0.2795 C   0  0  0  0  0  0  0  0  0  0  0  0
    1.1233    1.1660   -1.1139 N   0  0  0  0  0  0  0  0  0  0  0  0
    2.4236    0.9831   -1.5162 C   0  0  0  0  0  0  0  0  0  0  0  0
    2.9444    2.0773   -2.6751 S   0  0  0  0  0  0  0  0  0  0  0  0
    3.1446    0.0011   -0.8990 N   0  0  0  0  0  0  0  0  0  0  0  0
    4.4235   -0.5546   -1.1240 C   0  0  0  0  0  0  0  0  0  0  0  0
    4.9496   -1.3429   -0.0890 C   0  0  0  0  0  0  0  0  0  0  0  0
    6.2039   -1.9467   -0.2081 C   0  0  0  0  0  0  0  0  0  0  0  0
    6.9456   -1.7798   -1.3725 C   0  0  0  0  0  0  0  0  0  0  0  0
    6.4260   -1.0186   -2.4155 C   0  0  0  0  0  0  0  0  0  0  0  0
    5.1685   -0.4153   -2.2944 C   0  0  0  0  0  0  0  0  0  0  0  0
    0.7174   -1.0067    0.4202 S   0  0  0  0  0  0  0  0  0  0  0  0
   -0.7690   -1.2028    1.2174 C   0  0  0  0  0  0  0  0  0  0  0  0
   -1.6460   -0.1704    0.9354 C   0  0  0  0  0  0  0  0  0  0  0  0
   -3.0441   -0.0948    1.5112 C   0  0  0  0  0  0  0  0  0  0  0  0
   -3.6121   -1.4236    2.0664 C   0  0  0  0  0  0  0  0  0  0  0  0
   -4.8660   -1.1213    2.9051 C   0  0  0  0  0  0  0  0  0  0  0  0
   -4.0032   -2.3876    0.9340 C   0  0  0  0  0  0  0  0  0  0  0  0
   -2.3989   -2.2303    3.2007 S   0  0  0  0  0  0  0  0  0  0  0  0
   -0.9922   -2.4170    2.0636 C   0  0  0  0  0  0  0  0  0  0  0  0
   -1.8753    3.1812   -3.7377 H   0  0  0  0  0  0  0  0  0  0  0  0
   -3.2837    3.0392   -2.6909 H   0  0  0  0  0  0  0  0  0  0  0  0
   -2.8656    4.6188   -3.3903 H   0  0  0  0  0  0  0  0  0  0  0  0
   -0.7665    4.6723   -2.0528 H   0  0  0  0  0  0  0  0  0  0  0  0
   -2.1510    4.5066   -0.9728 H   0  0  0  0  0  0  0  0  0  0  0  0
    0.7052    1.9846   -1.5553 H   0  0  0  0  0  0  0  0  0  0  0  0
    2.6938   -0.3379   -0.0590 H   0  0  0  0  0  0  0  0  0  0  0  0
    4.3951   -1.4879    0.8342 H   0  0  0  0  0  0  0  0  0  0  0  0
    6.5992   -2.5432    0.6085 H   0  0  0  0  0  0  0  0  0  0  0  0
    7.9212   -2.2468   -1.4721 H   0  0  0  0  0  0  0  0  0  0  0  0
    6.9932   -0.8977   -3.3353 H   0  0  0  0  0  0  0  0  0  0  0  0
    4.7975    0.1297   -3.1538 H   0  0  0  0  0  0  0  0  0  0  0  0
   -3.0279    0.6656    2.3051 H   0  0  0  0  0  0  0  0  0  0  0  0
   -3.7337    0.2684    0.7390 H   0  0  0  0  0  0  0  0  0  0  0  0
   -5.6316   -0.6279    2.2948 H   0  0  0  0  0  0  0  0  0  0  0  0
   -4.6425   -0.4526    3.7452 H   0  0  0  0  0  0  0  0  0  0  0  0
   -5.3145   -2.0358    3.3117 H   0  0  0  0  0  0  0  0  0  0  0  0
   -4.7875   -1.9460    0.3073 H   0  0  0  0  0  0  0  0  0  0  0  0
   -4.4000   -3.3317    1.3263 H   0  0  0  0  0  0  0  0  0  0  0  0
   -3.1665   -2.6249    0.2695 H   0  0  0  0  0  0  0  0  0  0  0  0
   -0.1084   -2.6287    2.6758 H   0  0  0  0  0  0  0  0  0  0  0  0
   -1.1695   -3.2909    1.4281 H   0  0  0  0  0  0  0  0  0  0  0  0
  1  2  1  0
  2  3  1  0
  3  4  1  0
  4  5  2  0
  4  6  1  0
  6  7  2  0
  7  8  1  0
  8  9  1  0
  9 10  2  0
  9 11  1  0
 11 12  1  0
 12 13  2  0
 13 14  1  0
 14 15  2  0
 15 16  1  0
 16 17  2  0
  7 18  1  0
 18 19  1  0
 19 20  2  0
 20 21  1  0
 21 22  1  0
 22 23  1  0
 22 24  1  0
 22 25  1  0
 25 26  1  0
 20  6  1  0
 17 12  1  0
 26 19  1  0
  1 27  1  0
  1 28  1  0
  1 29  1  0
  2 30  1  0
  2 31  1  0
  8 32  1  0
 11 33  1  0
 13 34  1  0
 14 35  1  0
 15 36  1  0
 16 37  1  0
 17 38  1  0
 21 39  1  0
 21 40  1  0
 23 41  1  0
 23 42  1  0
 23 43  1  0
 24 44  1  0
 24 45  1  0
 24 46  1  0
 26 47  1  0
 26 48  1  0
M  END
$$$$
