
     RDKit          3D

 47 49  0  0  0  0  0  0  0  0999 V2000
    5.3755    3.3920   -3.0952 C   0  0  0  0  0  0  0  0  0  0  0  0
    6.0465    2.1406   -3.1620 O   0  0  0  0  0  0  0  0  0  0  0  0
    5.4478    1.0788   -2.5407 C   0  0  0  0  0  0  0  0  0  0  0  0
    6.1848   -0.1049   -2.5761 C   0  0  0  0  0  0  0  0  0  0  0  0
    5.6835   -1.2654   -1.9905 C   0  0  0  0  0  0  0  0  0  0  0  0
    4.4404   -1.2471   -1.3558 C   0  0  0  0  0  0  0  0  0  0  0  0
    3.6998   -0.0663   -1.2885 C   0  0  0  0  0  0  0  0  0  0  0  0
    2.4166    0.0184   -0.7012 N   0  0  0  0  0  0  0  0  0  0  0  0
    1.8193   -0.7469    0.2937 C   0  0  0  0  0  0  0  0  0  0  0  0
    2.6612   -1.6258    1.4576 S   0  0  0  0  0  0  0  0  0  0  0  0
    0.4073   -0.6523    0.2672 N   0  0  0  0  0  0  0  0  0  0  0  0
   -0.3238   -0.1494   -0.9096 C   0  0  0  0  0  0  0  0  0  0  0  0
   -1.6918   -0.8004   -1.1086 C   0  0  0  0  0  0  0  0  0  0  0  0
   -2.5149   -0.6312    0.1359 C   0  0  0  0  0  0  0  0  0  0  0  0
   -3.8960   -0.4064    0.0787 C   0  0  0  0  0  0  0  0  0  0  0  0
   -4.6395   -0.2624    1.2552 C   0  0  0  0  0  0  0  0  0  0  0  0
   -5.9924   -0.0295    1.2945 O   0  0  0  0  0  0  0  0  0  0  0  0
   -6.6886    0.0327    0.0587 C   0  0  0  0  0  0  0  0  0  0  0  0
   -3.9922   -0.3573    2.5036 C   0  0  0  0  0  0  0  0  0  0  0  0
   -4.7927   -0.2083    3.6097 O   0  0  0  0  0  0  0  0  0  0  0  0
   -4.1765   -0.2823    4.8869 C   0  0  0  0  0  0  0  0  0  0  0  0
   -2.6144   -0.6016    2.5521 C   0  0  0  0  0  0  0  0  0  0  0  0
   -1.8669   -0.7332    1.3723 C   0  0  0  0  0  0  0  0  0  0  0  0
   -0.3948   -1.0695    1.4356 C   0  0  0  0  0  0  0  0  0  0  0  0
    4.2020    1.0907   -1.9067 C   0  0  0  0  0  0  0  0  0  0  0  0
    4.4136    3.3508   -3.6167 H   0  0  0  0  0  0  0  0  0  0  0  0
    5.2498    3.7192   -2.0577 H   0  0  0  0  0  0  0  0  0  0  0  0
    5.9986    4.1333   -3.6048 H   0  0  0  0  0  0  0  0  0  0  0  0
    7.1535   -0.1244   -3.0692 H   0  0  0  0  0  0  0  0  0  0  0  0
    6.2561   -2.1881   -2.0351 H   0  0  0  0  0  0  0  0  0  0  0  0
    4.0612   -2.1805   -0.9529 H   0  0  0  0  0  0  0  0  0  0  0  0
    1.9293    0.8876   -0.8715 H   0  0  0  0  0  0  0  0  0  0  0  0
    0.2704   -0.3085   -1.8159 H   0  0  0  0  0  0  0  0  0  0  0  0
   -0.4345    0.9335   -0.7693 H   0  0  0  0  0  0  0  0  0  0  0  0
   -2.1883   -0.3361   -1.9681 H   0  0  0  0  0  0  0  0  0  0  0  0
   -1.5816   -1.8710   -1.3179 H   0  0  0  0  0  0  0  0  0  0  0  0
   -4.3689   -0.3447   -0.8957 H   0  0  0  0  0  0  0  0  0  0  0  0
   -6.6135   -0.9141   -0.4862 H   0  0  0  0  0  0  0  0  0  0  0  0
   -6.3359    0.8707   -0.5514 H   0  0  0  0  0  0  0  0  0  0  0  0
   -7.7465    0.2054    0.2790 H   0  0  0  0  0  0  0  0  0  0  0  0
   -3.4294    0.5083    5.0126 H   0  0  0  0  0  0  0  0  0  0  0  0
   -4.9530   -0.1279    5.6423 H   0  0  0  0  0  0  0  0  0  0  0  0
   -3.7398   -1.2718    5.0576 H   0  0  0  0  0  0  0  0  0  0  0  0
   -2.0968   -0.7015    3.5010 H   0  0  0  0  0  0  0  0  0  0  0  0
   -0.3000   -2.1575    1.5358 H   0  0  0  0  0  0  0  0  0  0  0  0
    0.0422   -0.5959    2.3228 H   0  0  0  0  0  0  0  0  0  0  0  0
    3.6131    2.0002   -1.8724 H   0  0  0  0  0  0  0  0  0  0  0  0
  1  2  1  0
  2  3  1  0
  3  4  2  0
  4  5  1  0
  5  6  2  0
  6  7  1  0
  7  8  1  0
  8  9  1  0
  9 10  2  0
  9 11  1  0
 11 12  1  0
 12 13  1  0
 13 14  1  0
 14 15  2  0
 15 16  1  0
 16 17  1  0
 17 18  1  0
 16 19  2  0
 19 20  1  0
 20 21  1  0
 19 22  1  0
 22 23  2  0
 23 24  1  0
  7 25  2  0
 25  3  1  0
 24 11  1  0
 23 14  1  0
  1 26  1  0
  1 27  1  0
  1 28  1  0
  4 29  1  0
  5 30  1  0
  6 31  1  0
  8 32  1  0
 12 33  1  0
 12 34  1  0
 13 35  1  0
 13 36  1  0
 15 37  1  0
 18 38  1  0
 18 39  1  0
 18 40  1  0
 21 41  1  0
 21 42  1  0
 21 43  1  0
 22 44  1  0
 24 45  1  0
 24 46  1  0
 25 47  1  0
M  END
$$$$
