
     RDKit          3D

 67 70  0  0  0  0  0  0  0  0999 V2000
   -0.9921    0.0494    3.8579 C   0  0  0  0  0  0  0  0  0  0  0  0
   -1.2555   -0.0819    2.4607 O   0  0  0  0  0  0  0  0  0  0  0  0
   -1.7621    1.0582    1.8919 C   0  0  0  0  0  0  0  0  0  0  0  0
   -2.9221    1.6450    2.4286 C   0  0  0  0  0  0  0  0  0  0  0  0
   -3.5000    2.7738    1.8402 C   0  0  0  0  0  0  0  0  0  0  0  0
   -4.6247    3.4044    2.3100 O   0  0  0  0  0  0  0  0  0  0  0  0
   -5.2643    2.8516    3.4532 C   0  0  0  0  0  0  0  0  0  0  0  0
   -2.9158    3.3137    0.6854 C   0  0  0  0  0  0  0  0  0  0  0  0
   -3.4636    4.4852    0.0026 C   0  0  0  0  0  0  0  0  0  0  0  0
   -2.8926    4.9564   -1.1085 C   0  0  0  0  0  0  0  0  0  0  0  0
   -1.6988    4.3356   -1.6950 C   0  0  0  0  0  0  0  0  0  0  0  0
   -1.1887    4.7824   -2.7155 O   0  0  0  0  0  0  0  0  0  0  0  0
   -1.1876    3.2347   -1.0277 O   0  0  0  0  0  0  0  0  0  0  0  0
   -1.7732    2.7019    0.1520 C   0  0  0  0  0  0  0  0  0  0  0  0
   -1.1638    1.5658    0.7278 C   0  0  0  0  0  0  0  0  0  0  0  0
    0.0567    0.9389    0.0421 C   0  0  0  0  0  0  0  0  0  0  0  0
    1.1566    0.3960    0.9923 C   0  0  0  0  0  0  0  0  0  0  0  0
    2.4979    0.1872    0.2639 C   0  0  0  0  0  0  0  0  0  0  0  0
    3.5972   -0.1915    1.1727 N   0  0  0  0  0  0  0  0  0  0  0  0
    3.3251   -1.4615    1.8682 C   0  0  0  0  0  0  0  0  0  0  0  0
    4.5962   -2.1372    2.3790 C   0  0  0  0  0  0  0  0  0  0  0  0
    5.5304   -2.5008    1.2269 C   0  0  0  0  0  0  0  0  0  0  0  0
    5.3701   -1.5595    0.0343 C   0  0  0  0  0  0  0  0  0  0  0  0
    4.8954   -0.1776    0.4764 C   0  0  0  0  0  0  0  0  0  0  0  0
   -0.3582   -0.0738   -1.0214 C   0  0  0  0  0  0  0  0  0  0  0  0
   -0.2790    0.2574   -2.3768 C   0  0  0  0  0  0  0  0  0  0  0  0
   -0.6646   -0.6586   -3.3678 C   0  0  0  0  0  0  0  0  0  0  0  0
   -1.1379   -1.9455   -3.0614 C   0  0  0  0  0  0  0  0  0  0  0  0
   -1.5359   -2.8514   -4.0528 N   0  0  0  0  0  0  0  0  0  0  0  0
   -1.1696   -2.5870   -5.4423 C   0  0  0  0  0  0  0  0  0  0  0  0
   -1.7024   -4.2588   -3.6972 C   0  0  0  0  0  0  0  0  0  0  0  0
   -1.2310   -2.2467   -1.6921 C   0  0  0  0  0  0  0  0  0  0  0  0
   -0.8495   -1.3383   -0.6923 C   0  0  0  0  0  0  0  0  0  0  0  0
   -0.2437   -0.7022    4.1270 H   0  0  0  0  0  0  0  0  0  0  0  0
   -1.8974   -0.1557    4.4380 H   0  0  0  0  0  0  0  0  0  0  0  0
   -0.5854    1.0358    4.1106 H   0  0  0  0  0  0  0  0  0  0  0  0
   -3.3757    1.1825    3.2974 H   0  0  0  0  0  0  0  0  0  0  0  0
   -5.6164    1.8335    3.2556 H   0  0  0  0  0  0  0  0  0  0  0  0
   -4.6054    2.8819    4.3275 H   0  0  0  0  0  0  0  0  0  0  0  0
   -6.1399    3.4689    3.6767 H   0  0  0  0  0  0  0  0  0  0  0  0
   -4.3478    4.9623    0.4130 H   0  0  0  0  0  0  0  0  0  0  0  0
   -3.2853    5.8193   -1.6315 H   0  0  0  0  0  0  0  0  0  0  0  0
    0.5633    1.7641   -0.4782 H   0  0  0  0  0  0  0  0  0  0  0  0
    1.3112    1.1121    1.8104 H   0  0  0  0  0  0  0  0  0  0  0  0
    0.8484   -0.5511    1.4443 H   0  0  0  0  0  0  0  0  0  0  0  0
    2.3895   -0.5630   -0.5288 H   0  0  0  0  0  0  0  0  0  0  0  0
    2.7592    1.1352   -0.2229 H   0  0  0  0  0  0  0  0  0  0  0  0
    2.6668   -1.2674    2.7231 H   0  0  0  0  0  0  0  0  0  0  0  0
    2.8037   -2.1673    1.2074 H   0  0  0  0  0  0  0  0  0  0  0  0
    4.3445   -3.0393    2.9482 H   0  0  0  0  0  0  0  0  0  0  0  0
    5.1138   -1.4648    3.0755 H   0  0  0  0  0  0  0  0  0  0  0  0
    5.3391   -3.5287    0.8960 H   0  0  0  0  0  0  0  0  0  0  0  0
    6.5658   -2.4809    1.5878 H   0  0  0  0  0  0  0  0  0  0  0  0
    6.3220   -1.4812   -0.5028 H   0  0  0  0  0  0  0  0  0  0  0  0
    4.6480   -1.9845   -0.6745 H   0  0  0  0  0  0  0  0  0  0  0  0
    5.6379    0.2440    1.1661 H   0  0  0  0  0  0  0  0  0  0  0  0
    4.8851    0.5012   -0.3850 H   0  0  0  0  0  0  0  0  0  0  0  0
    0.0758    1.2389   -2.6862 H   0  0  0  0  0  0  0  0  0  0  0  0
   -0.5856   -0.3214   -4.3967 H   0  0  0  0  0  0  0  0  0  0  0  0
   -1.6183   -1.6543   -5.7999 H   0  0  0  0  0  0  0  0  0  0  0  0
   -0.0816   -2.5430   -5.5617 H   0  0  0  0  0  0  0  0  0  0  0  0
   -1.5434   -3.3729   -6.1081 H   0  0  0  0  0  0  0  0  0  0  0  0
   -2.5066   -4.3901   -2.9651 H   0  0  0  0  0  0  0  0  0  0  0  0
   -1.9904   -4.8581   -4.5683 H   0  0  0  0  0  0  0  0  0  0  0  0
   -0.7708   -4.6792   -3.3018 H   0  0  0  0  0  0  0  0  0  0  0  0
   -1.6167   -3.2040   -1.3562 H   0  0  0  0  0  0  0  0  0  0  0  0
   -0.9563   -1.6374    0.3476 H   0  0  0  0  0  0  0  0  0  0  0  0
  1  2  1  0
  2  3  1  0
  3  4  2  0
  4  5  1  0
  5  6  1  0
  6  7  1  0
  5  8  2  0
  8  9  1  0
  9 10  2  0
 10 11  1  0
 11 12  2  0
 11 13  1  0
 13 14  1  0
 14 15  2  0
 15 16  1  0
 16 17  1  0
 17 18  1  0
 18 19  1  0
 19 20  1  0
 20 21  1  0
 21 22  1  0
 22 23  1  0
 23 24  1  0
 16 25  1  0
 25 26  2  0
 26 27  1  0
 27 28  2  0
 28 29  1  0
 29 30  1  0
 29 31  1  0
 28 32  1  0
 32 33  2  0
 15  3  1  0
 24 19  1  0
 33 25  1  0
 14  8  1  0
  1 34  1  0
  1 35  1  0
  1 36  1  0
  4 37  1  0
  7 38  1  0
  7 39  1  0
  7 40  1  0
  9 41  1  0
 10 42  1  0
 16 43  1  0
 17 44  1  0
 17 45  1  0
 18 46  1  0
 18 47  1  0
 20 48  1  0
 20 49  1  0
 21 50  1  0
 21 51  1  0
 22 52  1  0
 22 53  1  0
 23 54  1  0
 23 55  1  0
 24 56  1  0
 24 57  1  0
 26 58  1  0
 27 59  1  0
 30 60  1  0
 30 61  1  0
 30 62  1  0
 31 63  1  0
 31 64  1  0
 31 65  1  0
 32 66  1  0
 33 67  1  0
M  END
$$$$
