
     RDKit          3D

 53 54  0  0  0  0  0  0  0  0999 V2000
    0.6972   -0.2130   -0.8788 C   0  0  0  0  0  0  0  0  0  0  0  0
    0.1330    0.1779    0.4998 C   0  0  0  0  0  0  0  0  0  0  0  0
    0.0479   -1.0798    1.3844 C   0  0  0  0  0  0  0  0  0  0  0  0
    1.0350    1.2410    1.1824 C   0  0  0  0  0  0  0  0  0  0  0  0
    2.3995    0.8060    1.4159 N   0  0  0  0  0  0  0  0  0  0  0  0
    3.4359    1.1788    0.5932 C   0  0  0  0  0  0  0  0  0  0  0  0
    3.3105    1.8651   -0.4099 O   0  0  0  0  0  0  0  0  0  0  0  0
    4.7375    0.6329    1.0525 C   0  0  0  0  0  0  0  0  0  0  0  0
    5.9316    1.2327    0.9155 C   0  0  0  0  0  0  0  0  0  0  0  0
    6.2158    2.5664    0.3710 C   0  0  0  0  0  0  0  0  0  0  0  0
    7.2343    2.7082   -0.5825 C   0  0  0  0  0  0  0  0  0  0  0  0
    7.5649    3.9703   -1.0819 C   0  0  0  0  0  0  0  0  0  0  0  0
    6.8812    5.0892   -0.6225 C   0  0  0  0  0  0  0  0  0  0  0  0
    7.1996    6.2997   -1.1012 F   0  0  0  0  0  0  0  0  0  0  0  0
    5.8764    4.9714    0.3299 C   0  0  0  0  0  0  0  0  0  0  0  0
    5.5484    3.7103    0.8330 C   0  0  0  0  0  0  0  0  0  0  0  0
   -1.2670    0.8268    0.3306 C   0  0  0  0  0  0  0  0  0  0  0  0
   -2.2567   -0.0401   -0.2828 N   0  0  0  0  0  0  0  0  0  0  0  0
   -3.2071   -0.7003    0.4574 C   0  0  0  0  0  0  0  0  0  0  0  0
   -3.3061   -0.6298    1.6756 O   0  0  0  0  0  0  0  0  0  0  0  0
   -4.1161   -1.5266   -0.3763 C   0  0  0  0  0  0  0  0  0  0  0  0
   -5.1345   -2.1810    0.2035 C   0  0  0  0  0  0  0  0  0  0  0  0
   -6.0886   -3.0397   -0.5121 C   0  0  0  0  0  0  0  0  0  0  0  0
   -6.6401   -4.1390    0.1652 C   0  0  0  0  0  0  0  0  0  0  0  0
   -7.5727   -4.9678   -0.4636 C   0  0  0  0  0  0  0  0  0  0  0  0
   -7.9633   -4.6921   -1.7672 C   0  0  0  0  0  0  0  0  0  0  0  0
   -8.8587   -5.4850   -2.3704 F   0  0  0  0  0  0  0  0  0  0  0  0
   -7.4431   -3.6010   -2.4521 C   0  0  0  0  0  0  0  0  0  0  0  0
   -6.5106   -2.7712   -1.8233 C   0  0  0  0  0  0  0  0  0  0  0  0
    0.7908    0.6631   -1.5299 H   0  0  0  0  0  0  0  0  0  0  0  0
    0.0507   -0.9377   -1.3856 H   0  0  0  0  0  0  0  0  0  0  0  0
    1.6854   -0.6774   -0.7939 H   0  0  0  0  0  0  0  0  0  0  0  0
   -0.3769   -0.8428    2.3658 H   0  0  0  0  0  0  0  0  0  0  0  0
    1.0360   -1.5239    1.5471 H   0  0  0  0  0  0  0  0  0  0  0  0
   -0.5756   -1.8545    0.9255 H   0  0  0  0  0  0  0  0  0  0  0  0
    0.6285    1.5014    2.1668 H   0  0  0  0  0  0  0  0  0  0  0  0
    1.0513    2.1621    0.5878 H   0  0  0  0  0  0  0  0  0  0  0  0
    2.5900    0.2683    2.2498 H   0  0  0  0  0  0  0  0  0  0  0  0
    4.6957   -0.3568    1.4964 H   0  0  0  0  0  0  0  0  0  0  0  0
    6.8162    0.6911    1.2466 H   0  0  0  0  0  0  0  0  0  0  0  0
    7.7715    1.8370   -0.9499 H   0  0  0  0  0  0  0  0  0  0  0  0
    8.3464    4.0860   -1.8258 H   0  0  0  0  0  0  0  0  0  0  0  0
    5.3539    5.8576    0.6746 H   0  0  0  0  0  0  0  0  0  0  0  0
    4.7642    3.6303    1.5817 H   0  0  0  0  0  0  0  0  0  0  0  0
   -1.1969    1.7113   -0.3136 H   0  0  0  0  0  0  0  0  0  0  0  0
   -1.6445    1.1665    1.3024 H   0  0  0  0  0  0  0  0  0  0  0  0
   -2.2294   -0.1503   -1.2871 H   0  0  0  0  0  0  0  0  0  0  0  0
   -3.9174   -1.5906   -1.4374 H   0  0  0  0  0  0  0  0  0  0  0  0
   -5.2803   -2.1085    1.2810 H   0  0  0  0  0  0  0  0  0  0  0  0
   -6.3429   -4.3628    1.1881 H   0  0  0  0  0  0  0  0  0  0  0  0
   -7.9961   -5.8212    0.0570 H   0  0  0  0  0  0  0  0  0  0  0  0
   -7.7715   -3.3980   -3.4665 H   0  0  0  0  0  0  0  0  0  0  0  0
   -6.1331   -1.9084   -2.3666 H   0  0  0  0  0  0  0  0  0  0  0  0
  1  2  1  0
  2  3  1  0
  2  4  1  0
  4  5  1  0
  5  6  1  0
  6  7  2  0
  6  8  1  0
  8  9  2  3
  9 10  1  0
 10 11  2  0
 11 12  1  0
 12 13  2  0
 13 14  1  0
 13 15  1  0
 15 16  2  0
  2 17  1  0
 17 18  1  0
 18 19  1  0
 19 20  2  0
 19 21  1  0
 21 22  2  3
 22 23  1  0
 23 24  2  0
 24 25  1  0
 25 26  2  0
 26 27  1  0
 26 28  1  0
 28 29  2  0
 16 10  1  0
 29 23  1  0
  1 30  1  0
  1 31  1  0
  1 32  1  0
  3 33  1  0
  3 34  1  0
  3 35  1  0
  4 36  1  0
  4 37  1  0
  5 38  1  0
  8 39  1  0
  9 40  1  0
 11 41  1  0
 12 42  1  0
 15 43  1  0
 16 44  1  0
 17 45  1  0
 17 46  1  0
 18 47  1  0
 21 48  1  0
 22 49  1  0
 24 50  1  0
 25 51  1  0
 28 52  1  0
 29 53  1  0
M  END
$$$$
