
     RDKit          3D

 51 54  0  0  0  0  0  0  0  0999 V2000
    2.1318   -2.7454   -2.4466 O   0  0  0  0  0  0  0  0  0  0  0  0
    1.8552   -1.8743   -1.6202 C   0  0  0  0  0  0  0  0  0  0  0  0
    2.8390   -0.9075   -1.1535 C   0  0  0  0  0  0  0  0  0  0  0  0
    3.1346   -0.4992    0.1346 C   0  0  0  0  0  0  0  0  0  0  0  0
    4.1773    0.4757    0.1756 C   0  0  0  0  0  0  0  0  0  0  0  0
    4.6581    0.7465   -1.0898 C   0  0  0  0  0  0  0  0  0  0  0  0
    3.8635   -0.1463   -2.2986 S   0  0  0  0  0  0  0  0  0  0  0  0
    5.7428    1.7289   -1.4108 C   0  0  0  0  0  0  0  0  0  0  0  0
    6.5139    2.1155   -0.1389 C   0  0  0  0  0  0  0  0  0  0  0  0
    5.5713    2.3747    1.0451 C   0  0  0  0  0  0  0  0  0  0  0  0
    4.7474    1.1260    1.3989 C   0  0  0  0  0  0  0  0  0  0  0  0
    0.5644   -1.7985   -1.0833 N   0  0  0  0  0  0  0  0  0  0  0  0
    0.0178   -0.6120   -0.4163 C   0  0  0  0  0  0  0  0  0  0  0  0
   -1.5039   -0.4885   -0.5905 C   0  0  0  0  0  0  0  0  0  0  0  0
   -2.2006   -1.7008   -0.0559 N   0  0  0  0  0  0  0  0  0  0  0  0
   -3.8909   -1.7434   -0.2922 S   0  0  0  0  0  6  0  0  0  0  0  0
   -4.4009   -2.9251    0.3706 O   0  0  0  0  0  0  0  0  0  0  0  0
   -4.1219   -1.5251   -1.6993 O   0  0  0  0  0  0  0  0  0  0  0  0
   -4.4453   -0.3418    0.6644 C   0  0  0  0  0  0  0  0  0  0  0  0
   -4.3169   -0.4724    2.0601 C   0  0  0  0  0  0  0  0  0  0  0  0
   -4.7254    0.5536    2.9080 C   0  0  0  0  0  0  0  0  0  0  0  0
   -5.2674    1.7146    2.3721 C   0  0  0  0  0  0  0  0  0  0  0  0
   -5.4038    1.8468    0.9879 C   0  0  0  0  0  0  0  0  0  0  0  0
   -4.9984    0.8233    0.1042 C   0  0  0  0  0  0  0  0  0  0  0  0
   -5.1692    1.0431   -1.3796 C   0  0  0  0  0  0  0  0  0  0  0  0
   -6.0180    0.1590   -1.9617 F   0  0  0  0  0  0  0  0  0  0  0  0
   -5.6931    2.2730   -1.6665 F   0  0  0  0  0  0  0  0  0  0  0  0
   -3.9865    1.0104   -2.0512 F   0  0  0  0  0  0  0  0  0  0  0  0
   -1.5131   -2.9928   -0.4133 C   0  0  0  0  0  0  0  0  0  0  0  0
   -0.4077   -2.8241   -1.4615 C   0  0  0  0  0  0  0  0  0  0  0  0
    2.6330   -0.8911    1.0114 H   0  0  0  0  0  0  0  0  0  0  0  0
    5.2900    2.6266   -1.8467 H   0  0  0  0  0  0  0  0  0  0  0  0
    6.4418    1.3183   -2.1476 H   0  0  0  0  0  0  0  0  0  0  0  0
    7.1206    3.0072   -0.3378 H   0  0  0  0  0  0  0  0  0  0  0  0
    7.2092    1.3092    0.1260 H   0  0  0  0  0  0  0  0  0  0  0  0
    6.1488    2.6918    1.9202 H   0  0  0  0  0  0  0  0  0  0  0  0
    4.8955    3.2003    0.7888 H   0  0  0  0  0  0  0  0  0  0  0  0
    3.9444    1.4008    2.0914 H   0  0  0  0  0  0  0  0  0  0  0  0
    5.3886    0.4008    1.9119 H   0  0  0  0  0  0  0  0  0  0  0  0
    0.5015    0.2912   -0.8044 H   0  0  0  0  0  0  0  0  0  0  0  0
    0.2568   -0.7067    0.6499 H   0  0  0  0  0  0  0  0  0  0  0  0
   -1.8422    0.3972   -0.0439 H   0  0  0  0  0  0  0  0  0  0  0  0
   -1.7419   -0.3559   -1.6527 H   0  0  0  0  0  0  0  0  0  0  0  0
   -3.8989   -1.3826    2.4907 H   0  0  0  0  0  0  0  0  0  0  0  0
   -4.6259    0.4424    3.9851 H   0  0  0  0  0  0  0  0  0  0  0  0
   -5.5915    2.5177    3.0304 H   0  0  0  0  0  0  0  0  0  0  0  0
   -5.8373    2.7685    0.5984 H   0  0  0  0  0  0  0  0  0  0  0  0
   -2.2269   -3.7388   -0.7776 H   0  0  0  0  0  0  0  0  0  0  0  0
   -1.0831   -3.3859    0.5159 H   0  0  0  0  0  0  0  0  0  0  0  0
   -0.8380   -2.5235   -2.4246 H   0  0  0  0  0  0  0  0  0  0  0  0
    0.1016   -3.7818   -1.6145 H   0  0  0  0  0  0  0  0  0  0  0  0
  1  2  2  0
  2  3  1  0
  3  4  2  0
  4  5  1  0
  5  6  2  0
  6  7  1  0
  6  8  1  0
  8  9  1  0
  9 10  1  0
 10 11  1  0
  2 12  1  0
 12 13  1  0
 13 14  1  0
 14 15  1  0
 15 16  1  0
 16 17  2  0
 16 18  2  0
 16 19  1  0
 19 20  2  0
 20 21  1  0
 21 22  2  0
 22 23  1  0
 23 24  2  0
 24 25  1  0
 25 26  1  0
 25 27  1  0
 25 28  1  0
 15 29  1  0
 29 30  1  0
  7  3  1  0
 30 12  1  0
 11  5  1  0
 24 19  1  0
  4 31  1  0
  8 32  1  0
  8 33  1  0
  9 34  1  0
  9 35  1  0
 10 36  1  0
 10 37  1  0
 11 38  1  0
 11 39  1  0
 13 40  1  0
 13 41  1  0
 14 42  1  0
 14 43  1  0
 20 44  1  0
 21 45  1  0
 22 46  1  0
 23 47  1  0
 29 48  1  0
 29 49  1  0
 30 50  1  0
 30 51  1  0
M  END
$$$$
