
     RDKit          3D

 49 52  0  0  0  0  0  0  0  0999 V2000
    8.1742    0.7634    0.9906 C   0  0  0  0  0  0  0  0  0  0  0  0
    7.4135   -0.3191    0.3680 N   0  0  0  0  0  0  0  0  0  0  0  0
    7.9620   -0.8231   -0.8910 C   0  0  0  0  0  0  0  0  0  0  0  0
    6.0242   -0.3576    0.5545 C   0  0  0  0  0  0  0  0  0  0  0  0
    5.1847   -1.1635   -0.2350 C   0  0  0  0  0  0  0  0  0  0  0  0
    3.7950   -1.2187   -0.0434 C   0  0  0  0  0  0  0  0  0  0  0  0
    3.1878   -0.4618    0.9545 C   0  0  0  0  0  0  0  0  0  0  0  0
    1.7479   -0.5303    1.2170 C   0  0  0  0  0  0  0  0  0  0  0  0
    0.7549   -0.2462    0.3619 C   0  0  0  0  0  0  0  0  0  0  0  0
   -0.6336   -0.3354    0.6819 C   0  0  0  0  0  0  0  0  0  0  0  0
   -1.2869    0.0380   -0.4169 C   0  0  0  0  0  0  0  0  0  0  0  0
   -2.7413    0.1155   -0.6268 C   0  0  0  0  0  0  0  0  0  0  0  0
   -3.2648    0.1873   -1.9241 C   0  0  0  0  0  0  0  0  0  0  0  0
   -4.6430    0.2708   -2.1418 C   0  0  0  0  0  0  0  0  0  0  0  0
   -5.5367    0.2946   -1.0649 C   0  0  0  0  0  0  0  0  0  0  0  0
   -5.0341    0.2091    0.2432 C   0  0  0  0  0  0  0  0  0  0  0  0
   -3.6437    0.1357    0.4482 C   0  0  0  0  0  0  0  0  0  0  0  0
   -5.9495    0.2602    1.4429 C   0  0  0  0  0  0  0  0  0  0  0  0
   -7.4079   -0.0407    1.1026 C   0  0  0  0  0  0  0  0  0  0  0  0
   -7.8440    0.7556   -0.1204 C   0  0  0  0  0  0  0  0  0  0  0  0
   -7.0190    0.3527   -1.3412 C   0  0  0  0  0  0  0  0  0  0  0  0
   -0.4585    0.3853   -1.5032 O   0  0  0  0  0  0  0  0  0  0  0  0
    0.8363    0.2257   -1.0523 C   0  0  0  0  0  0  0  0  0  0  0  0
    1.8318    0.4379   -1.7194 O   0  0  0  0  0  0  0  0  0  0  0  0
    3.9965    0.3222    1.7744 C   0  0  0  0  0  0  0  0  0  0  0  0
    5.3854    0.3685    1.5750 C   0  0  0  0  0  0  0  0  0  0  0  0
    9.2413    0.6849    0.7532 H   0  0  0  0  0  0  0  0  0  0  0  0
    7.8286    1.7421    0.6396 H   0  0  0  0  0  0  0  0  0  0  0  0
    8.1082    0.7181    2.0829 H   0  0  0  0  0  0  0  0  0  0  0  0
    7.5562   -0.2731   -1.7473 H   0  0  0  0  0  0  0  0  0  0  0  0
    7.7629   -1.8935   -1.0106 H   0  0  0  0  0  0  0  0  0  0  0  0
    9.0526   -0.7183   -0.9177 H   0  0  0  0  0  0  0  0  0  0  0  0
    5.5876   -1.7798   -1.0324 H   0  0  0  0  0  0  0  0  0  0  0  0
    3.2035   -1.8595   -0.6926 H   0  0  0  0  0  0  0  0  0  0  0  0
    1.5052   -0.8359    2.2332 H   0  0  0  0  0  0  0  0  0  0  0  0
   -1.0449   -0.6546    1.6245 H   0  0  0  0  0  0  0  0  0  0  0  0
   -2.6053    0.1747   -2.7898 H   0  0  0  0  0  0  0  0  0  0  0  0
   -5.0144    0.3185   -3.1634 H   0  0  0  0  0  0  0  0  0  0  0  0
   -3.2764    0.1045    1.4715 H   0  0  0  0  0  0  0  0  0  0  0  0
   -5.8792    1.2642    1.8801 H   0  0  0  0  0  0  0  0  0  0  0  0
   -5.6106   -0.4558    2.2011 H   0  0  0  0  0  0  0  0  0  0  0  0
   -7.5321   -1.1132    0.9059 H   0  0  0  0  0  0  0  0  0  0  0  0
   -8.0439    0.2045    1.9605 H   0  0  0  0  0  0  0  0  0  0  0  0
   -7.7205    1.8281    0.0766 H   0  0  0  0  0  0  0  0  0  0  0  0
   -8.9075    0.5864   -0.3229 H   0  0  0  0  0  0  0  0  0  0  0  0
   -7.2202    1.0634   -2.1517 H   0  0  0  0  0  0  0  0  0  0  0  0
   -7.3394   -0.6395   -1.6833 H   0  0  0  0  0  0  0  0  0  0  0  0
    3.5634    0.9113    2.5790 H   0  0  0  0  0  0  0  0  0  0  0  0
    5.9536    0.9965    2.2537 H   0  0  0  0  0  0  0  0  0  0  0  0
  1  2  1  0
  2  3  1  0
  2  4  1  0
  4  5  2  0
  5  6  1  0
  6  7  2  0
  7  8  1  0
  8  9  2  3
  9 10  1  0
 10 11  2  0
 11 12  1  0
 12 13  2  0
 13 14  1  0
 14 15  2  0
 15 16  1  0
 16 17  2  0
 16 18  1  0
 18 19  1  0
 19 20  1  0
 20 21  1  0
 11 22  1  0
 22 23  1  0
 23 24  2  0
  7 25  1  0
 25 26  2  0
 26  4  1  0
 23  9  1  0
 17 12  1  0
 21 15  1  0
  1 27  1  0
  1 28  1  0
  1 29  1  0
  3 30  1  0
  3 31  1  0
  3 32  1  0
  5 33  1  0
  6 34  1  0
  8 35  1  0
 10 36  1  0
 13 37  1  0
 14 38  1  0
 17 39  1  0
 18 40  1  0
 18 41  1  0
 19 42  1  0
 19 43  1  0
 20 44  1  0
 20 45  1  0
 21 46  1  0
 21 47  1  0
 25 48  1  0
 26 49  1  0
M  END
$$$$
