
     RDKit          3D

 42 45  0  0  0  0  0  0  0  0999 V2000
    1.8378    0.2681   -1.7839 O   0  0  0  0  0  0  0  0  0  0  0  0
    0.8898    0.6360   -1.1029 C   0  0  0  0  0  0  0  0  0  0  0  0
    0.0692    1.6302   -1.5448 N   0  0  0  0  0  0  0  0  0  0  0  0
   -1.2479    1.7613   -1.2285 C   0  0  0  0  0  0  0  0  0  0  0  0
   -1.9834    2.3995   -1.9787 O   0  0  0  0  0  0  0  0  0  0  0  0
   -1.6850    1.1195   -0.0869 N   0  0  0  0  0  0  0  0  0  0  0  0
   -3.0811    1.3194    0.3046 C   0  0  0  0  0  0  0  0  0  0  0  0
   -4.0661    0.4415   -0.4765 C   0  0  0  0  0  0  0  0  0  0  0  0
   -3.9258   -1.0517   -0.2256 C   0  0  0  0  0  0  0  0  0  0  0  0
   -5.3023   -1.5479   -0.5917 C   0  0  0  0  0  0  0  0  0  0  0  0
   -6.1865   -0.4433   -0.0531 C   0  0  0  0  0  0  0  0  0  0  0  0
   -5.4199    0.7700   -0.1017 O   0  0  0  0  0  0  0  0  0  0  0  0
   -0.9080    0.2570    0.6721 C   0  0  0  0  0  0  0  0  0  0  0  0
   -1.3268   -0.3095    1.6804 O   0  0  0  0  0  0  0  0  0  0  0  0
    0.4785    0.0345    0.1818 C   0  0  0  0  0  0  0  0  0  0  0  0
    1.2880   -0.7244    0.9470 C   0  0  0  0  0  0  0  0  0  0  0  0
    2.6643   -1.0217    0.7327 C   0  0  0  0  0  0  0  0  0  0  0  0
    3.1445   -2.2922    0.5127 C   0  0  0  0  0  0  0  0  0  0  0  0
    4.5034   -2.2001    0.3603 N   0  0  0  0  0  0  0  0  0  0  0  0
    4.9175   -0.8971    0.5264 C   0  0  0  0  0  0  0  0  0  0  0  0
    6.2052   -0.3489    0.4830 C   0  0  0  0  0  0  0  0  0  0  0  0
    6.3320    1.0264    0.6978 C   0  0  0  0  0  0  0  0  0  0  0  0
    5.2150    1.8198    0.9473 C   0  0  0  0  0  0  0  0  0  0  0  0
    3.9340    1.2566    0.9857 C   0  0  0  0  0  0  0  0  0  0  0  0
    3.7763   -0.1282    0.7659 C   0  0  0  0  0  0  0  0  0  0  0  0
    0.3203    2.0108   -2.4473 H   0  0  0  0  0  0  0  0  0  0  0  0
   -3.2049    1.1503    1.3812 H   0  0  0  0  0  0  0  0  0  0  0  0
   -3.3428    2.3736    0.1449 H   0  0  0  0  0  0  0  0  0  0  0  0
   -3.9806    0.6421   -1.5516 H   0  0  0  0  0  0  0  0  0  0  0  0
   -3.1291   -1.5122   -0.8162 H   0  0  0  0  0  0  0  0  0  0  0  0
   -3.7381   -1.2575    0.8346 H   0  0  0  0  0  0  0  0  0  0  0  0
   -5.5428   -2.5288   -0.1736 H   0  0  0  0  0  0  0  0  0  0  0  0
   -5.3990   -1.6072   -1.6823 H   0  0  0  0  0  0  0  0  0  0  0  0
   -6.4545   -0.6245    0.9931 H   0  0  0  0  0  0  0  0  0  0  0  0
   -7.1057   -0.3217   -0.6329 H   0  0  0  0  0  0  0  0  0  0  0  0
    0.8807   -1.1677    1.8559 H   0  0  0  0  0  0  0  0  0  0  0  0
    2.6452   -3.2483    0.4315 H   0  0  0  0  0  0  0  0  0  0  0  0
    5.1219   -2.9752    0.1672 H   0  0  0  0  0  0  0  0  0  0  0  0
    7.0780   -0.9638    0.2902 H   0  0  0  0  0  0  0  0  0  0  0  0
    7.3189    1.4826    0.6697 H   0  0  0  0  0  0  0  0  0  0  0  0
    5.3372    2.8871    1.1131 H   0  0  0  0  0  0  0  0  0  0  0  0
    3.0725    1.8859    1.1834 H   0  0  0  0  0  0  0  0  0  0  0  0
  1  2  2  0
  2  3  1  0
  3  4  1  0
  4  5  2  0
  4  6  1  0
  6  7  1  0
  7  8  1  0
  8  9  1  0
  9 10  1  0
 10 11  1  0
 11 12  1  0
  6 13  1  0
 13 14  2  0
 13 15  1  0
 15 16  2  3
 16 17  1  0
 17 18  2  0
 18 19  1  0
 19 20  1  0
 20 21  2  0
 21 22  1  0
 22 23  2  0
 23 24  1  0
 24 25  2  0
 15  2  1  0
 25 17  1  0
 12  8  1  0
 25 20  1  0
  3 26  1  0
  7 27  1  0
  7 28  1  0
  8 29  1  0
  9 30  1  0
  9 31  1  0
 10 32  1  0
 10 33  1  0
 11 34  1  0
 11 35  1  0
 16 36  1  0
 18 37  1  0
 19 38  1  0
 21 39  1  0
 22 40  1  0
 23 41  1  0
 24 42  1  0
M  END
$$$$
