
     RDKit          3D

 55 57  0  0  0  0  0  0  0  0999 V2000
   -8.8747   -2.6131   -0.4743 C   0  0  0  0  0  0  0  0  0  0  0  0
   -8.6572   -1.2181   -0.3164 O   0  0  0  0  0  0  0  0  0  0  0  0
   -7.3574   -0.7763   -0.2943 C   0  0  0  0  0  0  0  0  0  0  0  0
   -6.2401   -1.5986   -0.4751 C   0  0  0  0  0  0  0  0  0  0  0  0
   -4.9515   -1.0584   -0.4391 C   0  0  0  0  0  0  0  0  0  0  0  0
   -4.7648    0.3083   -0.2169 C   0  0  0  0  0  0  0  0  0  0  0  0
   -3.4212    0.8955   -0.2007 C   0  0  0  0  0  0  0  0  0  0  0  0
   -2.4726    0.6723    0.7192 C   0  0  0  0  0  0  0  0  0  0  0  0
   -2.5565   -0.3271    2.1118 S   0  0  0  0  0  0  0  0  0  0  0  0
   -0.9072    0.0473    2.5966 C   0  0  0  0  0  0  0  0  0  0  0  0
   -0.2060   -0.6288    3.9528 S   0  0  0  0  0  0  0  0  0  0  0  0
   -0.3505    0.9449    1.7087 N   0  0  0  0  0  0  0  0  0  0  0  0
    1.0239    1.4416    1.7753 C   0  0  0  0  0  0  0  0  0  0  0  0
    1.9738    0.5726    0.9500 C   0  0  0  0  0  0  0  0  0  0  0  0
    3.4230    1.0315    1.0978 C   0  0  0  0  0  0  0  0  0  0  0  0
    4.3745    0.2116    0.2384 C   0  0  0  0  0  0  0  0  0  0  0  0
    3.9728   -0.6668   -0.5147 O   0  0  0  0  0  0  0  0  0  0  0  0
    5.6928    0.5962    0.4324 N   0  0  0  0  0  0  0  0  0  0  0  0
    6.8448    0.0654   -0.1879 C   0  0  0  0  0  0  0  0  0  0  0  0
    8.0814    0.5888    0.2188 C   0  0  0  0  0  0  0  0  0  0  0  0
    9.2744    0.1164   -0.3309 C   0  0  0  0  0  0  0  0  0  0  0  0
    9.2436   -0.8873   -1.2958 C   0  0  0  0  0  0  0  0  0  0  0  0
    8.0176   -1.4114   -1.7205 C   0  0  0  0  0  0  0  0  0  0  0  0
    8.0372   -2.4808   -2.7490 C   0  0  0  0  0  0  0  0  0  0  0  0
    9.0343   -3.0119   -3.2020 O   0  0  0  0  0  0  0  0  0  0  0  0
    6.8091   -2.8343   -3.1635 O   0  0  0  0  0  0  0  0  0  0  0  0
    6.8204   -0.9329   -1.1651 C   0  0  0  0  0  0  0  0  0  0  0  0
   -1.1402    1.3257    0.6368 C   0  0  0  0  0  0  0  0  0  0  0  0
   -0.8119    2.0812   -0.2693 O   0  0  0  0  0  0  0  0  0  0  0  0
   -5.8798    1.1379   -0.0451 C   0  0  0  0  0  0  0  0  0  0  0  0
   -7.1758    0.6059   -0.0819 C   0  0  0  0  0  0  0  0  0  0  0  0
   -8.3221    1.3450    0.0812 O   0  0  0  0  0  0  0  0  0  0  0  0
   -8.1861    2.7537    0.2123 C   0  0  0  0  0  0  0  0  0  0  0  0
   -8.5108   -2.9599   -1.4478 H   0  0  0  0  0  0  0  0  0  0  0  0
   -9.9548   -2.7904   -0.4408 H   0  0  0  0  0  0  0  0  0  0  0  0
   -8.4209   -3.1784    0.3447 H   0  0  0  0  0  0  0  0  0  0  0  0
   -6.3366   -2.6648   -0.6536 H   0  0  0  0  0  0  0  0  0  0  0  0
   -4.0986   -1.7170   -0.5912 H   0  0  0  0  0  0  0  0  0  0  0  0
   -3.2215    1.5814   -1.0233 H   0  0  0  0  0  0  0  0  0  0  0  0
    1.0447    2.4697    1.3943 H   0  0  0  0  0  0  0  0  0  0  0  0
    1.3535    1.4824    2.8180 H   0  0  0  0  0  0  0  0  0  0  0  0
    1.6769    0.6039   -0.1054 H   0  0  0  0  0  0  0  0  0  0  0  0
    1.8886   -0.4766    1.2588 H   0  0  0  0  0  0  0  0  0  0  0  0
    3.7342    0.9364    2.1437 H   0  0  0  0  0  0  0  0  0  0  0  0
    3.5154    2.0832    0.8043 H   0  0  0  0  0  0  0  0  0  0  0  0
    5.8565    1.3303    1.1106 H   0  0  0  0  0  0  0  0  0  0  0  0
    8.1348    1.3671    0.9775 H   0  0  0  0  0  0  0  0  0  0  0  0
   10.2256    0.5298   -0.0065 H   0  0  0  0  0  0  0  0  0  0  0  0
   10.1748   -1.2584   -1.7186 H   0  0  0  0  0  0  0  0  0  0  0  0
    6.9653   -3.5474   -3.8151 H   0  0  0  0  0  0  0  0  0  0  0  0
    5.8810   -1.3585   -1.5077 H   0  0  0  0  0  0  0  0  0  0  0  0
   -5.7140    2.1985    0.1225 H   0  0  0  0  0  0  0  0  0  0  0  0
   -9.1911    3.1791    0.2881 H   0  0  0  0  0  0  0  0  0  0  0  0
   -7.7066    3.1913   -0.6706 H   0  0  0  0  0  0  0  0  0  0  0  0
   -7.6443    3.0147    1.1282 H   0  0  0  0  0  0  0  0  0  0  0  0
  1  2  1  0
  2  3  1  0
  3  4  2  0
  4  5  1  0
  5  6  2  0
  6  7  1  0
  7  8  2  3
  8  9  1  0
  9 10  1  0
 10 11  2  0
 10 12  1  0
 12 13  1  0
 13 14  1  0
 14 15  1  0
 15 16  1  0
 16 17  2  0
 16 18  1  0
 18 19  1  0
 19 20  2  0
 20 21  1  0
 21 22  2  0
 22 23  1  0
 23 24  1  0
 24 25  2  0
 24 26  1  0
 23 27  2  0
 12 28  1  0
 28 29  2  0
  6 30  1  0
 30 31  2  0
 31 32  1  0
 32 33  1  0
 31  3  1  0
 28  8  1  0
 27 19  1  0
  1 34  1  0
  1 35  1  0
  1 36  1  0
  4 37  1  0
  5 38  1  0
  7 39  1  0
 13 40  1  0
 13 41  1  0
 14 42  1  0
 14 43  1  0
 15 44  1  0
 15 45  1  0
 18 46  1  0
 20 47  1  0
 21 48  1  0
 22 49  1  0
 26 50  1  0
 27 51  1  0
 30 52  1  0
 33 53  1  0
 33 54  1  0
 33 55  1  0
M  END
$$$$
