
     RDKit          3D

 32 34  0  0  0  0  0  0  0  0999 V2000
    0.6950   -2.2328    2.5247 N   0  0  0  0  0  0  0  0  0  0  0  0
    1.0638   -1.3886    1.4537 C   0  0  0  0  0  0  0  0  0  0  0  0
    2.2072   -1.7293    0.7197 C   0  0  0  0  0  0  0  0  0  0  0  0
    2.5901   -0.9755   -0.3880 C   0  0  0  0  0  0  0  0  0  0  0  0
    1.8023    0.0975   -0.8096 C   0  0  0  0  0  0  0  0  0  0  0  0
    0.6426    0.4310   -0.1136 C   0  0  0  0  0  0  0  0  0  0  0  0
    0.2452   -0.3335    0.9942 C   0  0  0  0  0  0  0  0  0  0  0  0
   -1.0244   -0.0075    1.7051 C   0  0  0  0  0  0  0  0  0  0  0  0
   -1.1170   -0.2020    2.9156 O   0  0  0  0  0  0  0  0  0  0  0  0
   -2.2058    0.5301    0.9859 C   0  0  0  0  0  0  0  0  0  0  0  0
   -2.5631    0.0647   -0.2864 C   0  0  0  0  0  0  0  0  0  0  0  0
   -3.6926    0.5813   -0.9244 C   0  0  0  0  0  0  0  0  0  0  0  0
   -4.4715    1.5499   -0.2898 C   0  0  0  0  0  0  0  0  0  0  0  0
   -4.1239    1.9934    0.9862 C   0  0  0  0  0  0  0  0  0  0  0  0
   -5.1912    3.2949    1.8468 Br  0  0  0  0  0  0  0  0  0  0  0  0
   -2.9990    1.4850    1.6320 C   0  0  0  0  0  0  0  0  0  0  0  0
    2.1046    0.8699   -1.9016 O   0  0  0  0  0  0  0  0  0  0  0  0
    3.1029    0.2525   -2.7237 C   0  0  0  0  0  0  0  0  0  0  0  0
    4.2327   -0.3058   -1.8745 C   0  0  0  0  0  0  0  0  0  0  0  0
    3.7492   -1.3476   -1.0191 O   0  0  0  0  0  0  0  0  0  0  0  0
    0.0228   -1.7495    3.1370 H   0  0  0  0  0  0  0  0  0  0  0  0
    0.2756   -3.0983    2.1959 H   0  0  0  0  0  0  0  0  0  0  0  0
    2.8235   -2.5666    1.0378 H   0  0  0  0  0  0  0  0  0  0  0  0
    0.0604    1.2844   -0.4498 H   0  0  0  0  0  0  0  0  0  0  0  0
   -1.9836   -0.7085   -0.7850 H   0  0  0  0  0  0  0  0  0  0  0  0
   -3.9714    0.2234   -1.9129 H   0  0  0  0  0  0  0  0  0  0  0  0
   -5.3509    1.9451   -0.7926 H   0  0  0  0  0  0  0  0  0  0  0  0
   -2.7344    1.8236    2.6315 H   0  0  0  0  0  0  0  0  0  0  0  0
    3.4855    1.0149   -3.4095 H   0  0  0  0  0  0  0  0  0  0  0  0
    2.6232   -0.5340   -3.3194 H   0  0  0  0  0  0  0  0  0  0  0  0
    4.6917    0.4729   -1.2528 H   0  0  0  0  0  0  0  0  0  0  0  0
    5.0106   -0.7351   -2.5136 H   0  0  0  0  0  0  0  0  0  0  0  0
  1  2  1  0
  2  3  2  0
  3  4  1  0
  4  5  2  0
  5  6  1  0
  6  7  2  0
  7  8  1  0
  8  9  2  0
  8 10  1  0
 10 11  2  0
 11 12  1  0
 12 13  2  0
 13 14  1  0
 14 15  1  0
 14 16  2  0
  5 17  1  0
 17 18  1  0
 18 19  1  0
 19 20  1  0
  7  2  1  0
 16 10  1  0
 20  4  1  0
  1 21  1  0
  1 22  1  0
  3 23  1  0
  6 24  1  0
 11 25  1  0
 12 26  1  0
 13 27  1  0
 16 28  1  0
 18 29  1  0
 18 30  1  0
 19 31  1  0
 19 32  1  0
M  END
$$$$
