
     RDKit          3D

 90 95  0  0  0  0  0  0  0  0999 V2000
    1.9288    2.9449   -1.8068 C   0  0  0  0  0  0  0  0  0  0  0  0
    1.3403    2.7428   -0.4057 C   0  0  0  0  0  0  0  0  0  0  0  0
   -0.0589    3.3723   -0.3647 C   0  0  0  0  0  0  0  0  0  0  0  0
   -0.7076    3.1884    0.9342 N   0  0  0  0  0  0  0  0  0  0  0  0
   -0.4004    4.1068    2.0609 C   0  0  0  0  0  0  0  0  0  0  0  0
   -0.1075    5.5548    1.6503 C   0  0  0  0  0  0  0  0  0  0  0  0
    0.7202    3.5598    2.9774 C   0  0  0  0  0  0  0  0  0  0  0  0
    0.7841    4.2825    4.2050 O   0  0  0  0  0  0  0  0  0  0  0  0
   -1.4062    2.0172    1.2653 C   0  0  0  0  0  0  0  0  0  0  0  0
   -1.8345    1.8285    2.4066 O   0  0  0  0  0  0  0  0  0  0  0  0
   -1.7211    0.9705    0.2525 C   0  0  0  0  0  0  0  0  0  0  0  0
   -3.0691    0.5427    0.3133 C   0  0  0  0  0  0  0  0  0  0  0  0
   -3.5793   -0.4481   -0.5317 C   0  0  0  0  0  0  0  0  0  0  0  0
   -4.9303   -0.8103   -0.3532 N   0  0  0  0  0  0  0  0  0  0  0  0
   -5.6539   -1.7807   -1.0369 C   0  0  0  0  0  0  0  0  0  0  0  0
   -5.2053   -2.4679   -1.9443 O   0  0  0  0  0  0  0  0  0  0  0  0
   -6.9492   -1.8502   -0.5370 N   0  0  0  0  0  0  0  0  0  0  0  0
   -8.0083   -2.7189   -0.9189 C   0  0  0  0  0  0  0  0  0  0  0  0
   -7.8301   -3.6936   -1.9094 C   0  0  0  0  0  0  0  0  0  0  0  0
   -8.8693   -4.5457   -2.2723 C   0  0  0  0  0  0  0  0  0  0  0  0
  -10.1062   -4.4380   -1.6490 C   0  0  0  0  0  0  0  0  0  0  0  0
  -10.3280   -3.4786   -0.6550 C   0  0  0  0  0  0  0  0  0  0  0  0
  -11.5930   -3.4029   -0.0474 C   0  0  0  0  0  0  0  0  0  0  0  0
  -11.8612   -2.4630    0.9433 C   0  0  0  0  0  0  0  0  0  0  0  0
  -10.8653   -1.5844    1.3380 C   0  0  0  0  0  0  0  0  0  0  0  0
   -9.6009   -1.6479    0.7424 C   0  0  0  0  0  0  0  0  0  0  0  0
   -9.2838   -2.5951   -0.2698 C   0  0  0  0  0  0  0  0  0  0  0  0
   -2.7303   -1.0090   -1.4739 C   0  0  0  0  0  0  0  0  0  0  0  0
   -1.3929   -0.6028   -1.5411 C   0  0  0  0  0  0  0  0  0  0  0  0
   -0.8595    0.3640   -0.6706 C   0  0  0  0  0  0  0  0  0  0  0  0
    0.4743    0.5483   -0.9076 O   0  0  0  0  0  0  0  0  0  0  0  0
    1.2836    1.2574    0.0299 C   0  0  0  0  0  0  0  0  0  0  0  0
    2.7040    0.6267    0.0835 C   0  0  0  0  0  0  0  0  0  0  0  0
    2.7236   -0.6459    0.8297 N   0  0  0  0  0  0  0  0  0  0  0  0
    2.3974   -1.7935   -0.0103 C   0  0  0  0  0  0  0  0  0  0  0  0
    3.9438   -0.8473    1.6239 C   0  0  0  0  0  0  0  0  0  0  0  0
    5.2678   -0.8131    0.8897 C   0  0  0  0  0  0  0  0  0  0  0  0
    5.7498   -1.9397    0.2129 C   0  0  0  0  0  0  0  0  0  0  0  0
    6.9946   -1.9103   -0.4254 C   0  0  0  0  0  0  0  0  0  0  0  0
    7.7983   -0.7607   -0.3917 C   0  0  0  0  0  0  0  0  0  0  0  0
    9.1218   -0.7406   -1.0308 C   0  0  0  0  0  0  0  0  0  0  0  0
   10.2803   -0.4840   -0.2763 C   0  0  0  0  0  0  0  0  0  0  0  0
   11.5410   -0.4704   -0.8780 C   0  0  0  0  0  0  0  0  0  0  0  0
   11.6629   -0.7098   -2.2455 C   0  0  0  0  0  0  0  0  0  0  0  0
   10.5259   -0.9642   -3.0111 C   0  0  0  0  0  0  0  0  0  0  0  0
    9.2651   -0.9812   -2.4078 C   0  0  0  0  0  0  0  0  0  0  0  0
    7.3105    0.3650    0.2861 C   0  0  0  0  0  0  0  0  0  0  0  0
    6.0624    0.3424    0.9151 C   0  0  0  0  0  0  0  0  0  0  0  0
    1.3446    2.4202   -2.5714 H   0  0  0  0  0  0  0  0  0  0  0  0
    2.9617    2.5881   -1.8625 H   0  0  0  0  0  0  0  0  0  0  0  0
    1.9389    4.0108   -2.0682 H   0  0  0  0  0  0  0  0  0  0  0  0
    1.9866    3.2818    0.2962 H   0  0  0  0  0  0  0  0  0  0  0  0
   -0.0080    4.4393   -0.5993 H   0  0  0  0  0  0  0  0  0  0  0  0
   -0.7013    2.9505   -1.1456 H   0  0  0  0  0  0  0  0  0  0  0  0
   -1.3114    4.1580    2.6738 H   0  0  0  0  0  0  0  0  0  0  0  0
   -0.9008    5.9454    1.0054 H   0  0  0  0  0  0  0  0  0  0  0  0
    0.8440    5.6382    1.1146 H   0  0  0  0  0  0  0  0  0  0  0  0
   -0.0487    6.2068    2.5282 H   0  0  0  0  0  0  0  0  0  0  0  0
    0.5716    2.5031    3.2222 H   0  0  0  0  0  0  0  0  0  0  0  0
    1.6976    3.6450    2.4946 H   0  0  0  0  0  0  0  0  0  0  0  0
   -0.0177    4.0479    4.7054 H   0  0  0  0  0  0  0  0  0  0  0  0
   -3.7235    0.9989    1.0556 H   0  0  0  0  0  0  0  0  0  0  0  0
   -5.4120   -0.3260    0.3899 H   0  0  0  0  0  0  0  0  0  0  0  0
   -7.1637   -1.1939    0.1898 H   0  0  0  0  0  0  0  0  0  0  0  0
   -6.8847   -3.8227   -2.4253 H   0  0  0  0  0  0  0  0  0  0  0  0
   -8.7096   -5.2963   -3.0422 H   0  0  0  0  0  0  0  0  0  0  0  0
  -10.9002   -5.1181   -1.9491 H   0  0  0  0  0  0  0  0  0  0  0  0
  -12.3884   -4.0828   -0.3475 H   0  0  0  0  0  0  0  0  0  0  0  0
  -12.8472   -2.4162    1.3974 H   0  0  0  0  0  0  0  0  0  0  0  0
  -11.0669   -0.8449    2.1093 H   0  0  0  0  0  0  0  0  0  0  0  0
   -8.8684   -0.9323    1.0991 H   0  0  0  0  0  0  0  0  0  0  0  0
   -3.0650   -1.7745   -2.1672 H   0  0  0  0  0  0  0  0  0  0  0  0
   -0.7463   -1.0701   -2.2828 H   0  0  0  0  0  0  0  0  0  0  0  0
    0.8912    1.1635    1.0474 H   0  0  0  0  0  0  0  0  0  0  0  0
    3.3430    1.3542    0.5971 H   0  0  0  0  0  0  0  0  0  0  0  0
    3.1150    0.4819   -0.9222 H   0  0  0  0  0  0  0  0  0  0  0  0
    1.3751   -1.7266   -0.3910 H   0  0  0  0  0  0  0  0  0  0  0  0
    3.0689   -1.8927   -0.8688 H   0  0  0  0  0  0  0  0  0  0  0  0
    2.4398   -2.7241    0.5669 H   0  0  0  0  0  0  0  0  0  0  0  0
    3.9626   -0.0844    2.4144 H   0  0  0  0  0  0  0  0  0  0  0  0
    3.8722   -1.7915    2.1803 H   0  0  0  0  0  0  0  0  0  0  0  0
    5.1678   -2.8596    0.1932 H   0  0  0  0  0  0  0  0  0  0  0  0
    7.3489   -2.8070   -0.9297 H   0  0  0  0  0  0  0  0  0  0  0  0
   10.2056   -0.3039    0.7957 H   0  0  0  0  0  0  0  0  0  0  0  0
   12.4254   -0.2723   -0.2772 H   0  0  0  0  0  0  0  0  0  0  0  0
   12.6429   -0.6964   -2.7144 H   0  0  0  0  0  0  0  0  0  0  0  0
   10.6176   -1.1482   -4.0793 H   0  0  0  0  0  0  0  0  0  0  0  0
    8.3874   -1.1765   -3.0226 H   0  0  0  0  0  0  0  0  0  0  0  0
    7.9054    1.2771    0.3263 H   0  0  0  0  0  0  0  0  0  0  0  0
    5.7213    1.2333    1.4396 H   0  0  0  0  0  0  0  0  0  0  0  0
  1  2  1  0
  2  3  1  0
  3  4  1  0
  4  5  1  0
  5  6  1  0
  5  7  1  0
  7  8  1  0
  4  9  1  0
  9 10  2  0
  9 11  1  0
 11 12  2  0
 12 13  1  0
 13 14  1  0
 14 15  1  0
 15 16  2  0
 15 17  1  0
 17 18  1  0
 18 19  2  0
 19 20  1  0
 20 21  2  0
 21 22  1  0
 22 23  2  0
 23 24  1  0
 24 25  2  0
 25 26  1  0
 26 27  2  0
 13 28  2  0
 28 29  1  0
 29 30  2  0
 30 31  1  0
 31 32  1  0
 32 33  1  0
 33 34  1  0
 34 35  1  0
 34 36  1  0
 36 37  1  0
 37 38  2  0
 38 39  1  0
 39 40  2  0
 40 41  1  0
 41 42  2  0
 42 43  1  0
 43 44  2  0
 44 45  1  0
 45 46  2  0
 40 47  1  0
 47 48  2  0
 32  2  1  0
 48 37  1  0
 30 11  1  0
 46 41  1  0
 27 18  1  0
 27 22  1  0
  1 49  1  0
  1 50  1  0
  1 51  1  0
  2 52  1  0
  3 53  1  0
  3 54  1  0
  5 55  1  0
  6 56  1  0
  6 57  1  0
  6 58  1  0
  7 59  1  0
  7 60  1  0
  8 61  1  0
 12 62  1  0
 14 63  1  0
 17 64  1  0
 19 65  1  0
 20 66  1  0
 21 67  1  0
 23 68  1  0
 24 69  1  0
 25 70  1  0
 26 71  1  0
 28 72  1  0
 29 73  1  0
 32 74  1  0
 33 75  1  0
 33 76  1  0
 35 77  1  0
 35 78  1  0
 35 79  1  0
 36 80  1  0
 36 81  1  0
 38 82  1  0
 39 83  1  0
 42 84  1  0
 43 85  1  0
 44 86  1  0
 45 87  1  0
 46 88  1  0
 47 89  1  0
 48 90  1  0
M  END
$$$$
