
     RDKit          3D

 54 56  0  0  0  0  0  0  0  0999 V2000
   -1.5258   -3.3957    2.7118 N   0  0  0  0  0  0  0  0  0  0  0  0
   -2.5520   -2.8013    2.0779 C   0  0  0  0  0  0  0  0  0  0  0  0
   -3.7796   -3.2084    2.1982 N   0  0  0  0  0  0  0  0  0  0  0  0
   -4.5549   -2.2739    1.3424 C   0  0  0  0  0  0  0  0  0  0  0  0
   -3.5715   -1.1967    0.8203 C   0  0  0  0  0  0  0  0  0  0  0  0
   -3.6495   -1.0950   -0.7130 C   0  0  0  0  0  0  0  0  0  0  0  0
   -2.8625    0.0316   -1.3424 C   0  0  0  0  0  0  0  0  0  0  0  0
   -1.9536   -0.2510   -2.3754 C   0  0  0  0  0  0  0  0  0  0  0  0
   -1.2317    0.7815   -2.9840 C   0  0  0  0  0  0  0  0  0  0  0  0
   -1.4162    2.1102   -2.5724 C   0  0  0  0  0  0  0  0  0  0  0  0
   -2.3321    2.4070   -1.5645 C   0  0  0  0  0  0  0  0  0  0  0  0
   -3.0555    1.3736   -0.9539 C   0  0  0  0  0  0  0  0  0  0  0  0
   -2.2799   -1.7189    1.2914 N   0  0  0  0  0  0  0  0  0  0  0  0
   -1.2390   -0.7485    1.6471 C   0  0  0  0  0  0  0  0  0  0  0  0
    0.0213   -0.9832    0.8115 C   0  0  0  0  0  0  0  0  0  0  0  0
    1.1978   -0.1637    1.3446 C   0  0  0  0  0  0  0  0  0  0  0  0
    2.4686   -0.3021    0.4928 C   0  0  0  0  0  0  0  0  0  0  0  0
    2.3944    0.3157   -0.9248 C   0  0  0  0  0  0  0  0  0  0  0  0
    3.6847    0.0203   -1.7110 C   0  0  0  0  0  0  0  0  0  0  0  0
    4.8898    0.8185   -1.2072 C   0  0  0  0  0  0  0  0  0  0  0  0
    4.6049    2.3206   -1.1445 C   0  0  0  0  0  0  0  0  0  0  0  0
    3.3121    2.6439   -0.3991 C   0  0  0  0  0  0  0  0  0  0  0  0
    2.1288    1.8341   -0.9337 C   0  0  0  0  0  0  0  0  0  0  0  0
   -1.8195   -4.2789    3.1187 H   0  0  0  0  0  0  0  0  0  0  0  0
   -0.7245   -3.5231    2.1090 H   0  0  0  0  0  0  0  0  0  0  0  0
   -5.0304   -2.8394    0.5341 H   0  0  0  0  0  0  0  0  0  0  0  0
   -5.3491   -1.8087    1.9408 H   0  0  0  0  0  0  0  0  0  0  0  0
   -3.8090   -0.2427    1.3074 H   0  0  0  0  0  0  0  0  0  0  0  0
   -3.3336   -2.0510   -1.1540 H   0  0  0  0  0  0  0  0  0  0  0  0
   -4.6970   -0.9543   -1.0128 H   0  0  0  0  0  0  0  0  0  0  0  0
   -1.7905   -1.2801   -2.7062 H   0  0  0  0  0  0  0  0  0  0  0  0
   -0.5226    0.5471   -3.7749 H   0  0  0  0  0  0  0  0  0  0  0  0
   -0.8542    2.9134   -3.0444 H   0  0  0  0  0  0  0  0  0  0  0  0
   -2.4886    3.4385   -1.2584 H   0  0  0  0  0  0  0  0  0  0  0  0
   -3.7734    1.6330   -0.1801 H   0  0  0  0  0  0  0  0  0  0  0  0
   -1.5881    0.2776    1.4827 H   0  0  0  0  0  0  0  0  0  0  0  0
   -1.0073   -0.8126    2.7165 H   0  0  0  0  0  0  0  0  0  0  0  0
    0.2918   -2.0512    0.8062 H   0  0  0  0  0  0  0  0  0  0  0  0
   -0.1900   -0.7158   -0.2346 H   0  0  0  0  0  0  0  0  0  0  0  0
    0.9179    0.8836    1.4537 H   0  0  0  0  0  0  0  0  0  0  0  0
    1.4375   -0.5159    2.3560 H   0  0  0  0  0  0  0  0  0  0  0  0
    3.2975    0.1460    1.0578 H   0  0  0  0  0  0  0  0  0  0  0  0
    2.7083   -1.3686    0.4008 H   0  0  0  0  0  0  0  0  0  0  0  0
    1.5718   -0.1748   -1.4646 H   0  0  0  0  0  0  0  0  0  0  0  0
    3.5146    0.2680   -2.7692 H   0  0  0  0  0  0  0  0  0  0  0  0
    3.9151   -1.0540   -1.6774 H   0  0  0  0  0  0  0  0  0  0  0  0
    5.7473    0.6368   -1.8669 H   0  0  0  0  0  0  0  0  0  0  0  0
    5.1869    0.4612   -0.2127 H   0  0  0  0  0  0  0  0  0  0  0  0
    4.5456    2.7254   -2.1668 H   0  0  0  0  0  0  0  0  0  0  0  0
    5.4472    2.8266   -0.6489 H   0  0  0  0  0  0  0  0  0  0  0  0
    3.4502    2.4463    0.6718 H   0  0  0  0  0  0  0  0  0  0  0  0
    3.0954    3.7182   -0.4916 H   0  0  0  0  0  0  0  0  0  0  0  0
    1.9259    2.1469   -1.9683 H   0  0  0  0  0  0  0  0  0  0  0  0
    1.2262    2.0839   -0.3701 H   0  0  0  0  0  0  0  0  0  0  0  0
  1  2  1  0
  2  3  2  0
  3  4  1  0
  4  5  1  0
  5  6  1  0
  6  7  1  0
  7  8  2  0
  8  9  1  0
  9 10  2  0
 10 11  1  0
 11 12  2  0
  5 13  1  0
 13 14  1  0
 14 15  1  0
 15 16  1  0
 16 17  1  0
 17 18  1  0
 18 19  1  0
 19 20  1  0
 20 21  1  0
 21 22  1  0
 22 23  1  0
 13  2  1  0
 23 18  1  0
 12  7  1  0
  1 24  1  0
  1 25  1  0
  4 26  1  0
  4 27  1  0
  5 28  1  0
  6 29  1  0
  6 30  1  0
  8 31  1  0
  9 32  1  0
 10 33  1  0
 11 34  1  0
 12 35  1  0
 14 36  1  0
 14 37  1  0
 15 38  1  0
 15 39  1  0
 16 40  1  0
 16 41  1  0
 17 42  1  0
 17 43  1  0
 18 44  1  0
 19 45  1  0
 19 46  1  0
 20 47  1  0
 20 48  1  0
 21 49  1  0
 21 50  1  0
 22 51  1  0
 22 52  1  0
 23 53  1  0
 23 54  1  0
M  END
$$$$
