
     RDKit          3D

 52 55  0  0  0  0  0  0  0  0999 V2000
   -5.2462    3.6303   -0.7958 C   0  0  0  0  0  0  0  0  0  0  0  0
   -4.9088    2.3451   -0.1036 C   0  0  0  0  0  0  0  0  0  0  0  0
   -4.2412    1.3153   -0.7787 C   0  0  0  0  0  0  0  0  0  0  0  0
   -3.9119    0.1349   -0.0990 C   0  0  0  0  0  0  0  0  0  0  0  0
   -3.0836   -1.1666   -0.9787 S   0  0  0  0  0  6  0  0  0  0  0  0
   -3.6262   -1.1992   -2.3183 O   0  0  0  0  0  0  0  0  0  0  0  0
   -3.0428   -2.3446   -0.1414 O   0  0  0  0  0  0  0  0  0  0  0  0
   -1.5336   -0.5561   -1.1031 N   0  0  0  0  0  0  0  0  0  0  0  0
   -0.5920   -0.7696    0.0135 C   0  0  0  0  0  0  0  0  0  0  0  0
    0.7697   -0.0850   -0.3248 C   0  0  0  0  0  0  0  0  0  0  0  0
    1.7891   -0.2008    0.8071 C   0  0  0  0  0  0  0  0  0  0  0  0
    2.5154    0.9539    1.2009 C   0  0  0  0  0  0  0  0  0  0  0  0
    3.4646    0.9089    2.2280 C   0  0  0  0  0  0  0  0  0  0  0  0
    3.6735   -0.2987    2.8519 C   0  0  0  0  0  0  0  0  0  0  0  0
    2.9783   -1.4255    2.4885 C   0  0  0  0  0  0  0  0  0  0  0  0
    2.0351   -1.4110    1.4804 C   0  0  0  0  0  0  0  0  0  0  0  0
    3.3303   -2.5128    3.2258 O   0  0  0  0  0  0  0  0  0  0  0  0
    4.3304   -1.9392    4.0942 C   0  0  0  0  0  0  0  0  0  0  0  0
    4.5506   -0.5321    3.8634 O   0  0  0  0  0  0  0  0  0  0  0  0
    1.2590   -0.4769   -1.6710 N   0  0  0  0  0  0  0  0  0  0  0  0
    2.2580    0.4487   -2.2349 C   0  0  0  0  0  0  0  0  0  0  0  0
    2.8997   -0.1350   -3.5033 C   0  0  0  0  0  0  0  0  0  0  0  0
    3.6319   -1.3427   -3.2548 O   0  0  0  0  0  0  0  0  0  0  0  0
    3.1626   -2.0639   -2.1077 C   0  0  0  0  0  0  0  0  0  0  0  0
    1.6558   -1.8833   -1.8580 C   0  0  0  0  0  0  0  0  0  0  0  0
   -4.2480   -0.0371    1.2474 C   0  0  0  0  0  0  0  0  0  0  0  0
   -4.9007    0.9929    1.9233 C   0  0  0  0  0  0  0  0  0  0  0  0
   -5.2186    2.1707    1.2493 C   0  0  0  0  0  0  0  0  0  0  0  0
   -5.8369    3.1515    1.9223 F   0  0  0  0  0  0  0  0  0  0  0  0
   -5.2459    3.5058   -1.8837 H   0  0  0  0  0  0  0  0  0  0  0  0
   -6.2456    3.9732   -0.5084 H   0  0  0  0  0  0  0  0  0  0  0  0
   -4.5141    4.4004   -0.5339 H   0  0  0  0  0  0  0  0  0  0  0  0
   -3.9789    1.4265   -1.8295 H   0  0  0  0  0  0  0  0  0  0  0  0
   -1.1264   -0.6360   -2.0386 H   0  0  0  0  0  0  0  0  0  0  0  0
   -0.4602   -1.8458    0.1624 H   0  0  0  0  0  0  0  0  0  0  0  0
   -1.0048   -0.3410    0.9336 H   0  0  0  0  0  0  0  0  0  0  0  0
    0.5084    0.9816   -0.4034 H   0  0  0  0  0  0  0  0  0  0  0  0
    2.3422    1.9042    0.6974 H   0  0  0  0  0  0  0  0  0  0  0  0
    4.0185    1.7931    2.5227 H   0  0  0  0  0  0  0  0  0  0  0  0
    1.5143   -2.3299    1.2366 H   0  0  0  0  0  0  0  0  0  0  0  0
    5.2757   -2.4723    3.9402 H   0  0  0  0  0  0  0  0  0  0  0  0
    4.0131   -2.0786    5.1341 H   0  0  0  0  0  0  0  0  0  0  0  0
    1.7751    1.4016   -2.4776 H   0  0  0  0  0  0  0  0  0  0  0  0
    3.0610    0.6469   -1.5170 H   0  0  0  0  0  0  0  0  0  0  0  0
    3.5979    0.5873   -3.9387 H   0  0  0  0  0  0  0  0  0  0  0  0
    2.1378   -0.3483   -4.2623 H   0  0  0  0  0  0  0  0  0  0  0  0
    3.3900   -3.1219   -2.2733 H   0  0  0  0  0  0  0  0  0  0  0  0
    3.7458   -1.7400   -1.2381 H   0  0  0  0  0  0  0  0  0  0  0  0
    1.1219   -2.2405   -2.7480 H   0  0  0  0  0  0  0  0  0  0  0  0
    1.3343   -2.5321   -1.0397 H   0  0  0  0  0  0  0  0  0  0  0  0
   -4.0065   -0.9593    1.7711 H   0  0  0  0  0  0  0  0  0  0  0  0
   -5.1670    0.8879    2.9708 H   0  0  0  0  0  0  0  0  0  0  0  0
  1  2  1  0
  2  3  2  0
  3  4  1  0
  4  5  1  0
  5  6  2  0
  5  7  2  0
  5  8  1  0
  8  9  1  0
  9 10  1  0
 10 11  1  0
 11 12  2  0
 12 13  1  0
 13 14  2  0
 14 15  1  0
 15 16  2  0
 15 17  1  0
 17 18  1  0
 18 19  1  0
 10 20  1  0
 20 21  1  0
 21 22  1  0
 22 23  1  0
 23 24  1  0
 24 25  1  0
  4 26  2  0
 26 27  1  0
 27 28  2  0
 28 29  1  0
 28  2  1  0
 16 11  1  0
 25 20  1  0
 19 14  1  0
  1 30  1  0
  1 31  1  0
  1 32  1  0
  3 33  1  0
  8 34  1  0
  9 35  1  0
  9 36  1  0
 10 37  1  0
 12 38  1  0
 13 39  1  0
 16 40  1  0
 18 41  1  0
 18 42  1  0
 21 43  1  0
 21 44  1  0
 22 45  1  0
 22 46  1  0
 24 47  1  0
 24 48  1  0
 25 49  1  0
 25 50  1  0
 26 51  1  0
 27 52  1  0
M  END
$$$$
