
     RDKit          3D

 55 57  0  0  0  0  0  0  0  0999 V2000
   -1.7527   -4.2660   -0.9457 C   0  0  0  0  0  0  0  0  0  0  0  0
   -1.1469   -3.2817    0.0352 C   0  0  0  0  0  0  0  0  0  0  0  0
   -1.5849   -1.9728   -0.3190 O   0  0  0  0  0  0  0  0  0  0  0  0
   -1.0735   -0.9692    0.5681 C   0  0  0  0  0  0  0  0  0  0  0  0
    0.3557   -0.8482    0.4817 O   0  0  0  0  0  0  0  0  0  0  0  0
    0.8331   -0.1379   -0.6080 C   0  0  0  0  0  0  0  0  0  0  0  0
    2.3125   -0.2262   -0.9024 C   0  0  0  0  0  0  0  0  0  0  0  0
    2.8178    0.3763   -1.8412 O   0  0  0  0  0  0  0  0  0  0  0  0
    2.9524   -1.0381    0.0127 N   0  0  0  0  0  0  0  0  0  0  0  0
    4.3190   -1.3653    0.0781 C   0  0  0  0  0  0  0  0  0  0  0  0
    4.7265   -2.2051    1.1229 C   0  0  0  0  0  0  0  0  0  0  0  0
    6.0670   -2.5762    1.2586 C   0  0  0  0  0  0  0  0  0  0  0  0
    7.0127   -2.1108    0.3494 C   0  0  0  0  0  0  0  0  0  0  0  0
    6.6166   -1.2764   -0.6931 C   0  0  0  0  0  0  0  0  0  0  0  0
    5.2748   -0.9049   -0.8287 C   0  0  0  0  0  0  0  0  0  0  0  0
    0.0590    0.6133   -1.4089 C   0  0  0  0  0  0  0  0  0  0  0  0
   -1.4148    0.7806   -1.1698 C   0  0  0  0  0  0  0  0  0  0  0  0
   -2.0065    2.1282   -1.5736 C   0  0  0  0  0  0  0  0  0  0  0  0
   -3.3770    2.2013   -1.8802 C   0  0  0  0  0  0  0  0  0  0  0  0
   -3.9695    3.4133   -2.2397 C   0  0  0  0  0  0  0  0  0  0  0  0
   -3.2026    4.5736   -2.2968 C   0  0  0  0  0  0  0  0  0  0  0  0
   -1.8445    4.5222   -1.9935 C   0  0  0  0  0  0  0  0  0  0  0  0
   -1.2504    3.3100   -1.6334 C   0  0  0  0  0  0  0  0  0  0  0  0
   -1.7884    0.3679    0.2802 C   0  0  0  0  0  0  0  0  0  0  0  0
   -1.4112    1.4160    1.3632 C   0  0  0  0  0  0  0  0  0  0  0  0
   -2.5626    1.7293    2.3314 C   0  0  0  0  0  0  0  0  0  0  0  0
   -3.0384    0.5417    3.1597 C   0  0  0  0  0  0  0  0  0  0  0  0
   -1.9534   -0.0470    3.8624 O   0  0  0  0  0  0  0  0  0  0  0  0
   -1.4369   -4.0344   -1.9683 H   0  0  0  0  0  0  0  0  0  0  0  0
   -1.4525   -5.2902   -0.7067 H   0  0  0  0  0  0  0  0  0  0  0  0
   -2.8460   -4.2047   -0.9283 H   0  0  0  0  0  0  0  0  0  0  0  0
   -1.4762   -3.5217    1.0518 H   0  0  0  0  0  0  0  0  0  0  0  0
   -0.0545   -3.3399   -0.0130 H   0  0  0  0  0  0  0  0  0  0  0  0
   -1.3041   -1.2813    1.5924 H   0  0  0  0  0  0  0  0  0  0  0  0
    2.3494   -1.4346    0.7249 H   0  0  0  0  0  0  0  0  0  0  0  0
    4.0075   -2.5809    1.8459 H   0  0  0  0  0  0  0  0  0  0  0  0
    6.3712   -3.2274    2.0737 H   0  0  0  0  0  0  0  0  0  0  0  0
    8.0563   -2.3967    0.4512 H   0  0  0  0  0  0  0  0  0  0  0  0
    7.3500   -0.9101   -1.4069 H   0  0  0  0  0  0  0  0  0  0  0  0
    5.0087   -0.2542   -1.6556 H   0  0  0  0  0  0  0  0  0  0  0  0
    0.4919    1.0995   -2.2810 H   0  0  0  0  0  0  0  0  0  0  0  0
   -1.8801    0.0570   -1.8577 H   0  0  0  0  0  0  0  0  0  0  0  0
   -3.9939    1.3053   -1.8454 H   0  0  0  0  0  0  0  0  0  0  0  0
   -5.0291    3.4501   -2.4782 H   0  0  0  0  0  0  0  0  0  0  0  0
   -3.6618    5.5172   -2.5790 H   0  0  0  0  0  0  0  0  0  0  0  0
   -1.2435    5.4270   -2.0370 H   0  0  0  0  0  0  0  0  0  0  0  0
   -0.1894    3.3068   -1.3926 H   0  0  0  0  0  0  0  0  0  0  0  0
   -2.8733    0.1985    0.2952 H   0  0  0  0  0  0  0  0  0  0  0  0
   -1.1075    2.3645    0.9125 H   0  0  0  0  0  0  0  0  0  0  0  0
   -0.5417    1.0863    1.9447 H   0  0  0  0  0  0  0  0  0  0  0  0
   -2.2104    2.5109    3.0162 H   0  0  0  0  0  0  0  0  0  0  0  0
   -3.4094    2.1493    1.7764 H   0  0  0  0  0  0  0  0  0  0  0  0
   -3.4922   -0.2279    2.5288 H   0  0  0  0  0  0  0  0  0  0  0  0
   -3.7920    0.8592    3.8879 H   0  0  0  0  0  0  0  0  0  0  0  0
   -1.6104    0.6246    4.4785 H   0  0  0  0  0  0  0  0  0  0  0  0
  1  2  1  0
  2  3  1  0
  3  4  1  0
  4  5  1  0
  5  6  1  0
  6  7  1  0
  7  8  2  0
  7  9  1  0
  9 10  1  0
 10 11  2  0
 11 12  1  0
 12 13  2  0
 13 14  1  0
 14 15  2  0
  6 16  2  0
 16 17  1  0
 17 18  1  0
 18 19  2  0
 19 20  1  0
 20 21  2  0
 21 22  1  0
 22 23  2  0
 17 24  1  0
 24 25  1  0
 25 26  1  0
 26 27  1  0
 27 28  1  0
 24  4  1  0
 15 10  1  0
 23 18  1  0
  1 29  1  0
  1 30  1  0
  1 31  1  0
  2 32  1  0
  2 33  1  0
  4 34  1  0
  9 35  1  0
 11 36  1  0
 12 37  1  0
 13 38  1  0
 14 39  1  0
 15 40  1  0
 16 41  1  0
 17 42  1  0
 19 43  1  0
 20 44  1  0
 21 45  1  0
 22 46  1  0
 23 47  1  0
 24 48  1  0
 25 49  1  0
 25 50  1  0
 26 51  1  0
 26 52  1  0
 27 53  1  0
 27 54  1  0
 28 55  1  0
M  END
$$$$
