
     RDKit          3D

 68 69  0  0  0  0  0  0  0  0999 V2000
   11.1406   -0.0265    0.8804 C   0  0  0  0  0  0  0  0  0  0  0  0
    9.8274   -0.7304    1.1861 C   0  0  0  0  0  0  0  0  0  0  0  0
    8.6342    0.0417    0.6237 C   0  0  0  0  0  0  0  0  0  0  0  0
    7.3176   -0.6872    0.8979 C   0  0  0  0  0  0  0  0  0  0  0  0
    6.1287    0.0934    0.3432 C   0  0  0  0  0  0  0  0  0  0  0  0
    4.8110   -0.6378    0.5741 C   0  0  0  0  0  0  0  0  0  0  0  0
    3.7569    0.1743    0.0274 O   0  0  0  0  0  0  0  0  0  0  0  0
    2.5360   -0.4249   -0.0241 C   0  0  0  0  0  0  0  0  0  0  0  0
    2.2892   -1.5619    0.3505 O   0  0  0  0  0  0  0  0  0  0  0  0
    1.5243    0.5499   -0.6279 C   0  0  0  0  0  0  0  0  0  0  0  0
    0.0635    0.0228   -0.9167 N   0  0  0  0  0  4  0  0  0  0  0  0
   -0.6038   -0.3680    0.4013 C   0  0  0  0  0  0  0  0  0  0  0  0
    0.1218   -1.1885   -1.8358 C   0  0  0  0  0  0  0  0  0  0  0  0
   -0.6945    1.2009   -1.5944 C   0  0  0  0  0  0  0  0  0  0  0  0
   -2.1763    0.9435   -1.9176 C   0  0  0  0  0  0  0  0  0  0  0  0
   -2.9345    0.8673   -0.7109 O   0  0  0  0  0  0  0  0  0  0  0  0
   -4.3307    0.6716   -0.9434 C   0  0  0  0  0  0  0  0  0  0  0  0
   -4.6670   -0.7799   -1.3514 C   0  0  0  0  0  0  0  0  0  0  0  0
   -5.6812   -1.2165   -0.2674 C   0  0  0  0  0  0  0  0  0  0  0  0
   -4.8613   -1.4516    1.0213 C   0  0  0  0  0  0  0  0  0  0  0  0
   -4.5193   -0.0230    1.4748 C   0  0  0  0  0  0  0  0  0  0  0  0
   -5.1651    0.8536    0.3652 C   0  0  0  0  0  0  0  0  0  0  0  0
   -5.3054    2.3062    0.7822 C   0  0  0  0  0  0  0  0  0  0  0  0
   -6.4781    0.0798    0.0378 C   0  0  0  0  0  0  0  0  0  0  0  0
   -7.4773   -0.0577    1.2057 C   0  0  0  0  0  0  0  0  0  0  0  0
   -7.2910    0.6166   -1.1579 C   0  0  0  0  0  0  0  0  0  0  0  0
   11.3018    0.0484   -0.1995 H   0  0  0  0  0  0  0  0  0  0  0  0
   11.9784   -0.5846    1.3099 H   0  0  0  0  0  0  0  0  0  0  0  0
   11.1533    0.9836    1.3012 H   0  0  0  0  0  0  0  0  0  0  0  0
    9.8541   -1.7402    0.7604 H   0  0  0  0  0  0  0  0  0  0  0  0
    9.7206   -0.8375    2.2718 H   0  0  0  0  0  0  0  0  0  0  0  0
    8.7595    0.1767   -0.4583 H   0  0  0  0  0  0  0  0  0  0  0  0
    8.6016    1.0425    1.0732 H   0  0  0  0  0  0  0  0  0  0  0  0
    7.1921   -0.8306    1.9783 H   0  0  0  0  0  0  0  0  0  0  0  0
    7.3485   -1.6838    0.4399 H   0  0  0  0  0  0  0  0  0  0  0  0
    6.0794    1.0875    0.8037 H   0  0  0  0  0  0  0  0  0  0  0  0
    6.2583    0.2674   -0.7320 H   0  0  0  0  0  0  0  0  0  0  0  0
    4.8292   -1.6128    0.0740 H   0  0  0  0  0  0  0  0  0  0  0  0
    4.6312   -0.7764    1.6459 H   0  0  0  0  0  0  0  0  0  0  0  0
    1.4107    1.4001    0.0539 H   0  0  0  0  0  0  0  0  0  0  0  0
    1.9118    0.8882   -1.5954 H   0  0  0  0  0  0  0  0  0  0  0  0
    0.0378   -1.0648    0.9424 H   0  0  0  0  0  0  0  0  0  0  0  0
   -0.7575    0.5382    0.9940 H   0  0  0  0  0  0  0  0  0  0  0  0
   -1.5481   -0.8717    0.1823 H   0  0  0  0  0  0  0  0  0  0  0  0
   -0.8967   -1.5326   -2.0309 H   0  0  0  0  0  0  0  0  0  0  0  0
    0.6110   -0.8898   -2.7677 H   0  0  0  0  0  0  0  0  0  0  0  0
    0.6768   -1.9933   -1.3507 H   0  0  0  0  0  0  0  0  0  0  0  0
   -0.6057    2.0524   -0.9100 H   0  0  0  0  0  0  0  0  0  0  0  0
   -0.1502    1.4243   -2.5183 H   0  0  0  0  0  0  0  0  0  0  0  0
   -2.3054    0.0384   -2.5173 H   0  0  0  0  0  0  0  0  0  0  0  0
   -2.5455    1.7908   -2.5072 H   0  0  0  0  0  0  0  0  0  0  0  0
   -4.6623    1.3821   -1.7108 H   0  0  0  0  0  0  0  0  0  0  0  0
   -3.7915   -1.4353   -1.3884 H   0  0  0  0  0  0  0  0  0  0  0  0
   -5.1347   -0.7960   -2.3411 H   0  0  0  0  0  0  0  0  0  0  0  0
   -6.2800   -2.0823   -0.5604 H   0  0  0  0  0  0  0  0  0  0  0  0
   -3.9600   -2.0469    0.8406 H   0  0  0  0  0  0  0  0  0  0  0  0
   -5.4504   -1.9723    1.7829 H   0  0  0  0  0  0  0  0  0  0  0  0
   -4.9509    0.1829    2.4609 H   0  0  0  0  0  0  0  0  0  0  0  0
   -3.4393    0.1259    1.5714 H   0  0  0  0  0  0  0  0  0  0  0  0
   -4.3259    2.7504    0.9898 H   0  0  0  0  0  0  0  0  0  0  0  0
   -5.9123    2.4047    1.6882 H   0  0  0  0  0  0  0  0  0  0  0  0
   -5.7805    2.9008   -0.0044 H   0  0  0  0  0  0  0  0  0  0  0  0
   -7.9419    0.9094    1.4313 H   0  0  0  0  0  0  0  0  0  0  0  0
   -8.2779   -0.7578    0.9390 H   0  0  0  0  0  0  0  0  0  0  0  0
   -7.0418   -0.4236    2.1369 H   0  0  0  0  0  0  0  0  0  0  0  0
   -6.7137    0.7749   -2.0708 H   0  0  0  0  0  0  0  0  0  0  0  0
   -7.7535    1.5775   -0.9077 H   0  0  0  0  0  0  0  0  0  0  0  0
   -8.0963   -0.0820   -1.4148 H   0  0  0  0  0  0  0  0  0  0  0  0
  1  2  1  0
  2  3  1  0
  3  4  1  0
  4  5  1  0
  5  6  1  0
  6  7  1  0
  7  8  1  0
  8  9  2  0
  8 10  1  0
 10 11  1  0
 11 12  1  0
 11 13  1  0
 11 14  1  0
 14 15  1  0
 15 16  1  0
 16 17  1  0
 17 18  1  0
 18 19  1  0
 19 20  1  0
 20 21  1  0
 21 22  1  0
 22 23  1  0
 22 24  1  0
 24 25  1  0
 24 26  1  0
 22 17  1  0
 24 19  1  0
  1 27  1  0
  1 28  1  0
  1 29  1  0
  2 30  1  0
  2 31  1  0
  3 32  1  0
  3 33  1  0
  4 34  1  0
  4 35  1  0
  5 36  1  0
  5 37  1  0
  6 38  1  0
  6 39  1  0
 10 40  1  0
 10 41  1  0
 12 42  1  0
 12 43  1  0
 12 44  1  0
 13 45  1  0
 13 46  1  0
 13 47  1  0
 14 48  1  0
 14 49  1  0
 15 50  1  0
 15 51  1  0
 17 52  1  0
 18 53  1  0
 18 54  1  0
 19 55  1  0
 20 56  1  0
 20 57  1  0
 21 58  1  0
 21 59  1  0
 23 60  1  0
 23 61  1  0
 23 62  1  0
 25 63  1  0
 25 64  1  0
 25 65  1  0
 26 66  1  0
 26 67  1  0
 26 68  1  0
M  CHG  1  11   1
M  END
$$$$
