
     RDKit          3D

 60 63  0  0  0  0  0  0  0  0999 V2000
   -9.2080    1.3110    0.2663 C   0  0  0  0  0  0  0  0  0  0  0  0
   -7.9989    0.6945   -0.4323 C   0  0  0  0  0  0  0  0  0  0  0  0
   -8.4580   -0.2251   -1.5583 C   0  0  0  0  0  0  0  0  0  0  0  0
   -7.2950   -0.0677    0.5534 O   0  0  0  0  0  0  0  0  0  0  0  0
   -5.9340   -0.1459    0.4802 C   0  0  0  0  0  0  0  0  0  0  0  0
   -5.3183   -0.6642    1.6192 C   0  0  0  0  0  0  0  0  0  0  0  0
   -3.9268   -0.7963    1.6825 C   0  0  0  0  0  0  0  0  0  0  0  0
   -3.1049   -0.4132    0.6085 C   0  0  0  0  0  0  0  0  0  0  0  0
   -1.6352   -0.5404    0.6996 C   0  0  0  0  0  0  0  0  0  0  0  0
   -0.7616    0.3185    0.0565 C   0  0  0  0  0  0  0  0  0  0  0  0
    0.6125    0.1150    0.2033 C   0  0  0  0  0  0  0  0  0  0  0  0
    1.4817    1.0439   -0.5582 C   0  0  0  0  0  0  0  0  0  0  0  0
    1.2746    2.2505   -0.5109 O   0  0  0  0  0  0  0  0  0  0  0  0
    2.4454    0.4527   -1.3398 N   0  0  0  0  0  0  0  0  0  0  0  0
    3.3658    1.2260   -2.1543 C   0  0  0  0  0  0  0  0  0  0  0  0
    4.7685    0.5836   -2.2159 C   0  0  0  0  0  0  0  0  0  0  0  0
    5.3552    0.2788   -0.8954 N   0  0  0  0  0  0  0  0  0  0  0  0
    5.5352    1.5088   -0.0847 C   0  0  0  0  0  0  0  0  0  0  0  0
    6.6190    1.3352    0.9912 C   0  0  0  0  0  0  0  0  0  0  0  0
    7.9193    1.0913    0.4338 O   0  0  0  0  0  0  0  0  0  0  0  0
    7.8737    0.4326   -0.8390 C   0  0  0  0  0  0  0  0  0  0  0  0
    6.6325   -0.4583   -1.0122 C   0  0  0  0  0  0  0  0  0  0  0  0
    1.1111   -0.9148    1.0332 C   0  0  0  0  0  0  0  0  0  0  0  0
    2.4813   -1.1567    1.3178 C   0  0  0  0  0  0  0  0  0  0  0  0
    2.8753   -2.2102    2.1406 C   0  0  0  0  0  0  0  0  0  0  0  0
    1.9106   -3.0312    2.7037 C   0  0  0  0  0  0  0  0  0  0  0  0
    0.5601   -2.7828    2.4502 C   0  0  0  0  0  0  0  0  0  0  0  0
    0.1423   -1.7379    1.6361 C   0  0  0  0  0  0  0  0  0  0  0  0
   -1.1786   -1.5597    1.4685 N   0  0  0  0  0  0  0  0  0  0  0  0
   -3.7469    0.0826   -0.5407 C   0  0  0  0  0  0  0  0  0  0  0  0
   -5.1425    0.2134   -0.6069 C   0  0  0  0  0  0  0  0  0  0  0  0
   -8.8827    1.9555    1.0903 H   0  0  0  0  0  0  0  0  0  0  0  0
   -9.8069    1.9086   -0.4281 H   0  0  0  0  0  0  0  0  0  0  0  0
   -9.8466    0.5375    0.7071 H   0  0  0  0  0  0  0  0  0  0  0  0
   -7.3945    1.5205   -0.8221 H   0  0  0  0  0  0  0  0  0  0  0  0
   -9.0261    0.3268   -2.3135 H   0  0  0  0  0  0  0  0  0  0  0  0
   -7.6070   -0.7049   -2.0503 H   0  0  0  0  0  0  0  0  0  0  0  0
   -9.0869   -1.0330   -1.1705 H   0  0  0  0  0  0  0  0  0  0  0  0
   -5.9240   -0.9668    2.4709 H   0  0  0  0  0  0  0  0  0  0  0  0
   -3.4805   -1.2003    2.5903 H   0  0  0  0  0  0  0  0  0  0  0  0
   -1.1234    1.1468   -0.5451 H   0  0  0  0  0  0  0  0  0  0  0  0
    2.4974   -0.5579   -1.3958 H   0  0  0  0  0  0  0  0  0  0  0  0
    2.9390    1.2683   -3.1634 H   0  0  0  0  0  0  0  0  0  0  0  0
    3.4235    2.2546   -1.7789 H   0  0  0  0  0  0  0  0  0  0  0  0
    4.6649   -0.3566   -2.7726 H   0  0  0  0  0  0  0  0  0  0  0  0
    5.4353    1.2291   -2.8000 H   0  0  0  0  0  0  0  0  0  0  0  0
    4.5866    1.7686    0.3976 H   0  0  0  0  0  0  0  0  0  0  0  0
    5.8297    2.3484   -0.7290 H   0  0  0  0  0  0  0  0  0  0  0  0
    6.6901    2.2402    1.6041 H   0  0  0  0  0  0  0  0  0  0  0  0
    6.3723    0.5051    1.6641 H   0  0  0  0  0  0  0  0  0  0  0  0
    8.7835   -0.1702   -0.9267 H   0  0  0  0  0  0  0  0  0  0  0  0
    7.9145    1.1984   -1.6226 H   0  0  0  0  0  0  0  0  0  0  0  0
    6.6378   -1.2076   -0.2095 H   0  0  0  0  0  0  0  0  0  0  0  0
    6.6942   -1.0185   -1.9542 H   0  0  0  0  0  0  0  0  0  0  0  0
    3.2591   -0.5131    0.9120 H   0  0  0  0  0  0  0  0  0  0  0  0
    3.9298   -2.3805    2.3431 H   0  0  0  0  0  0  0  0  0  0  0  0
    2.1994   -3.8567    3.3493 H   0  0  0  0  0  0  0  0  0  0  0  0
   -0.1929   -3.4216    2.9081 H   0  0  0  0  0  0  0  0  0  0  0  0
   -3.1690    0.3616   -1.4196 H   0  0  0  0  0  0  0  0  0  0  0  0
   -5.5722    0.5841   -1.5312 H   0  0  0  0  0  0  0  0  0  0  0  0
  1  2  1  0
  2  3  1  0
  2  4  1  0
  4  5  1  0
  5  6  2  0
  6  7  1  0
  7  8  2  0
  8  9  1  0
  9 10  2  0
 10 11  1  0
 11 12  1  0
 12 13  2  0
 12 14  1  0
 14 15  1  0
 15 16  1  0
 16 17  1  0
 17 18  1  0
 18 19  1  0
 19 20  1  0
 20 21  1  0
 21 22  1  0
 11 23  2  0
 23 24  1  0
 24 25  2  0
 25 26  1  0
 26 27  2  0
 27 28  1  0
 28 29  2  0
  8 30  1  0
 30 31  2  0
 31  5  1  0
 29  9  1  0
 22 17  1  0
 28 23  1  0
  1 32  1  0
  1 33  1  0
  1 34  1  0
  2 35  1  0
  3 36  1  0
  3 37  1  0
  3 38  1  0
  6 39  1  0
  7 40  1  0
 10 41  1  0
 14 42  1  0
 15 43  1  0
 15 44  1  0
 16 45  1  0
 16 46  1  0
 18 47  1  0
 18 48  1  0
 19 49  1  0
 19 50  1  0
 21 51  1  0
 21 52  1  0
 22 53  1  0
 22 54  1  0
 24 55  1  0
 25 56  1  0
 26 57  1  0
 27 58  1  0
 30 59  1  0
 31 60  1  0
M  END
$$$$
