
     RDKit          3D

 37 39  0  0  0  0  0  0  0  0999 V2000
    4.2833   -2.2336    0.6923 C   0  0  0  0  0  0  0  0  0  0  0  0
    3.0751   -1.3466    0.6421 C   0  0  0  0  0  0  0  0  0  0  0  0
    1.8025   -1.8634    0.8830 C   0  0  0  0  0  0  0  0  0  0  0  0
    0.6745   -1.0391    0.8067 C   0  0  0  0  0  0  0  0  0  0  0  0
    0.7831    0.3110    0.4506 C   0  0  0  0  0  0  0  0  0  0  0  0
    2.0709    0.8428    0.2372 C   0  0  0  0  0  0  0  0  0  0  0  0
    3.2005    0.0074    0.3208 C   0  0  0  0  0  0  0  0  0  0  0  0
    2.2979    2.3120   -0.0234 C   0  0  0  0  0  0  0  0  0  0  0  0
    1.0169    3.0546   -0.3657 C   0  0  0  0  0  0  0  0  0  0  0  0
   -0.1003    2.5984    0.5563 C   0  0  0  0  0  0  0  0  0  0  0  0
   -0.3562    1.1708    0.3732 N   0  0  0  0  0  0  0  0  0  0  0  0
   -1.6906    0.7774    0.2669 C   0  0  0  0  0  0  0  0  0  0  0  0
   -2.6050    1.4554    0.7525 O   0  0  0  0  0  0  0  0  0  0  0  0
   -2.0201   -0.4367   -0.6295 C   0  0  0  0  0  0  0  0  0  0  0  0
   -2.9312   -1.4361    0.0805 C   0  0  0  0  0  0  0  0  0  0  0  0
   -4.0305   -1.7013   -0.9192 C   0  0  0  0  0  0  0  0  0  0  0  0
   -4.1091   -0.3905   -1.6591 C   0  0  0  0  0  0  0  0  0  0  0  0
   -2.7521    0.0425   -1.7850 O   0  0  0  0  0  0  0  0  0  0  0  0
    4.1348   -3.0584    1.3972 H   0  0  0  0  0  0  0  0  0  0  0  0
    4.4835   -2.6489   -0.3001 H   0  0  0  0  0  0  0  0  0  0  0  0
    5.1638   -1.6754    1.0275 H   0  0  0  0  0  0  0  0  0  0  0  0
    1.6775   -2.9102    1.1516 H   0  0  0  0  0  0  0  0  0  0  0  0
   -0.2777   -1.4781    1.0813 H   0  0  0  0  0  0  0  0  0  0  0  0
    4.1899    0.4264    0.1434 H   0  0  0  0  0  0  0  0  0  0  0  0
    2.7384    2.7512    0.8807 H   0  0  0  0  0  0  0  0  0  0  0  0
    3.0170    2.4433   -0.8407 H   0  0  0  0  0  0  0  0  0  0  0  0
    1.1749    4.1350   -0.2786 H   0  0  0  0  0  0  0  0  0  0  0  0
    0.7388    2.8489   -1.4076 H   0  0  0  0  0  0  0  0  0  0  0  0
    0.1470    2.7712    1.6112 H   0  0  0  0  0  0  0  0  0  0  0  0
   -1.0013    3.1803    0.3316 H   0  0  0  0  0  0  0  0  0  0  0  0
   -1.1278   -0.9152   -1.0348 H   0  0  0  0  0  0  0  0  0  0  0  0
   -3.3494   -1.0227    1.0055 H   0  0  0  0  0  0  0  0  0  0  0  0
   -2.4003   -2.3527    0.3561 H   0  0  0  0  0  0  0  0  0  0  0  0
   -4.9778   -1.9942   -0.4596 H   0  0  0  0  0  0  0  0  0  0  0  0
   -3.7164   -2.4984   -1.6033 H   0  0  0  0  0  0  0  0  0  0  0  0
   -4.5590   -0.4905   -2.6504 H   0  0  0  0  0  0  0  0  0  0  0  0
   -4.6655    0.3634   -1.0915 H   0  0  0  0  0  0  0  0  0  0  0  0
  1  2  1  0
  2  3  2  0
  3  4  1  0
  4  5  2  0
  5  6  1  0
  6  7  2  0
  6  8  1  0
  8  9  1  0
  9 10  1  0
 10 11  1  0
 11 12  1  0
 12 13  2  0
 12 14  1  0
 14 15  1  0
 15 16  1  0
 16 17  1  0
 17 18  1  0
  7  2  1  0
 18 14  1  0
 11  5  1  0
  1 19  1  0
  1 20  1  0
  1 21  1  0
  3 22  1  0
  4 23  1  0
  7 24  1  0
  8 25  1  0
  8 26  1  0
  9 27  1  0
  9 28  1  0
 10 29  1  0
 10 30  1  0
 14 31  1  0
 15 32  1  0
 15 33  1  0
 16 34  1  0
 16 35  1  0
 17 36  1  0
 17 37  1  0
M  END
$$$$
