
     RDKit          3D

 31 32  0  0  0  0  0  0  0  0999 V2000
   -0.1778    2.6894    1.8237 S   0  0  0  0  0  0  0  0  0  0  0  0
    0.0472    1.3945    0.7789 C   0  0  0  0  0  0  0  0  0  0  0  0
    1.1120    1.4862   -0.0757 N   0  0  0  0  0  0  0  0  0  0  0  0
    2.0459    0.4907   -0.4585 C   0  0  0  0  0  0  0  0  0  0  0  0
    2.0678   -0.7830    0.1197 C   0  0  0  0  0  0  0  0  0  0  0  0
    3.0297   -1.7221   -0.2662 C   0  0  0  0  0  0  0  0  0  0  0  0
    3.9865   -1.3863   -1.2210 C   0  0  0  0  0  0  0  0  0  0  0  0
    5.1662   -2.5464   -1.6910 Cl  0  0  0  0  0  0  0  0  0  0  0  0
    4.0012   -0.1164   -1.7884 C   0  0  0  0  0  0  0  0  0  0  0  0
    3.0397    0.8192   -1.4001 C   0  0  0  0  0  0  0  0  0  0  0  0
    3.1022    2.3929   -2.1189 Cl  0  0  0  0  0  0  0  0  0  0  0  0
   -0.7997    0.2987    0.6579 N   0  0  0  0  0  0  0  0  0  0  0  0
   -1.0864   -0.2645   -0.6739 C   0  0  0  0  0  0  0  0  0  0  0  0
   -2.5438   -0.7118   -0.8371 C   0  0  0  0  0  0  0  0  0  0  0  0
   -3.4979    0.2613   -0.1540 C   0  0  0  0  0  0  0  0  0  0  0  0
   -3.1753    0.4276    1.3349 C   0  0  0  0  0  0  0  0  0  0  0  0
   -1.7724   -0.0632    1.6930 C   0  0  0  0  0  0  0  0  0  0  0  0
    1.4477    2.4369   -0.2124 H   0  0  0  0  0  0  0  0  0  0  0  0
    1.3589   -1.0610    0.8949 H   0  0  0  0  0  0  0  0  0  0  0  0
    3.0307   -2.7084    0.1918 H   0  0  0  0  0  0  0  0  0  0  0  0
    4.7568    0.1456   -2.5238 H   0  0  0  0  0  0  0  0  0  0  0  0
   -0.4385   -1.1309   -0.8336 H   0  0  0  0  0  0  0  0  0  0  0  0
   -0.8505    0.4828   -1.4402 H   0  0  0  0  0  0  0  0  0  0  0  0
   -2.7853   -0.8043   -1.9018 H   0  0  0  0  0  0  0  0  0  0  0  0
   -2.6743   -1.7100   -0.3999 H   0  0  0  0  0  0  0  0  0  0  0  0
   -4.5345   -0.0728   -0.2751 H   0  0  0  0  0  0  0  0  0  0  0  0
   -3.4257    1.2384   -0.6483 H   0  0  0  0  0  0  0  0  0  0  0  0
   -3.2892    1.4847    1.6023 H   0  0  0  0  0  0  0  0  0  0  0  0
   -3.9068   -0.1212    1.9399 H   0  0  0  0  0  0  0  0  0  0  0  0
   -1.4706    0.3112    2.6759 H   0  0  0  0  0  0  0  0  0  0  0  0
   -1.7639   -1.1578    1.7696 H   0  0  0  0  0  0  0  0  0  0  0  0
  1  2  2  0
  2  3  1  0
  3  4  1  0
  4  5  2  0
  5  6  1  0
  6  7  2  0
  7  8  1  0
  7  9  1  0
  9 10  2  0
 10 11  1  0
  2 12  1  0
 12 13  1  0
 13 14  1  0
 14 15  1  0
 15 16  1  0
 16 17  1  0
 10  4  1  0
 17 12  1  0
  3 18  1  0
  5 19  1  0
  6 20  1  0
  9 21  1  0
 13 22  1  0
 13 23  1  0
 14 24  1  0
 14 25  1  0
 15 26  1  0
 15 27  1  0
 16 28  1  0
 16 29  1  0
 17 30  1  0
 17 31  1  0
M  END
$$$$
