
     RDKit          3D

 39 41  0  0  0  0  0  0  0  0999 V2000
    4.1526   -1.2893   -2.6437 O   0  0  0  0  0  0  0  0  0  0  0  0
    3.0796   -0.7442   -2.4310 C   0  0  0  0  0  0  0  0  0  0  0  0
    2.0362   -1.0112   -3.2530 O   0  0  0  0  0  0  0  0  0  0  0  0
    2.7869    0.3468   -1.3880 C   0  0  0  0  0  0  0  0  0  0  0  0
    3.5457    0.2495   -0.0691 C   0  0  0  0  0  0  0  0  0  0  0  0
    3.8757    1.4316    0.6201 C   0  0  0  0  0  0  0  0  0  0  0  0
    4.5479    1.3845    1.8429 C   0  0  0  0  0  0  0  0  0  0  0  0
    4.8945    0.1571    2.4004 C   0  0  0  0  0  0  0  0  0  0  0  0
    4.5673   -1.0227    1.7372 C   0  0  0  0  0  0  0  0  0  0  0  0
    3.8956   -0.9780    0.5133 C   0  0  0  0  0  0  0  0  0  0  0  0
    1.3412    0.5521   -1.1849 N   0  0  0  0  0  0  0  0  0  0  0  0
    0.5958   -0.4794   -0.6392 C   0  0  0  0  0  0  0  0  0  0  0  0
    1.0063   -1.5916   -0.3363 O   0  0  0  0  0  0  0  0  0  0  0  0
   -0.8287   -0.0766   -0.5056 C   0  0  0  0  0  0  0  0  0  0  0  0
   -1.7460   -0.9008    0.0187 C   0  0  0  0  0  0  0  0  0  0  0  0
   -3.1775   -0.6198    0.1777 C   0  0  0  0  0  0  0  0  0  0  0  0
   -4.1068   -1.4285   -0.4954 C   0  0  0  0  0  0  0  0  0  0  0  0
   -5.4778   -1.2027   -0.3523 C   0  0  0  0  0  0  0  0  0  0  0  0
   -5.9110   -0.1735    0.4689 C   0  0  0  0  0  0  0  0  0  0  0  0
   -7.2508    0.0478    0.6092 O   0  0  0  0  0  0  0  0  0  0  0  0
   -4.9984    0.6286    1.1488 C   0  0  0  0  0  0  0  0  0  0  0  0
   -5.4979    1.6231    1.9445 O   0  0  0  0  0  0  0  0  0  0  0  0
   -3.6309    0.4106    1.0147 C   0  0  0  0  0  0  0  0  0  0  0  0
   -1.0567    1.4995   -1.1401 S   0  0  0  0  0  0  0  0  0  0  0  0
    0.6422    1.6760   -1.5660 C   0  0  0  0  0  0  0  0  0  0  0  0
    1.2135    3.0610   -2.3009 S   0  0  0  0  0  0  0  0  0  0  0  0
    2.3865   -1.6989   -3.8598 H   0  0  0  0  0  0  0  0  0  0  0  0
    3.1941    1.2343   -1.8872 H   0  0  0  0  0  0  0  0  0  0  0  0
    3.6166    2.4049    0.2071 H   0  0  0  0  0  0  0  0  0  0  0  0
    4.8021    2.3063    2.3601 H   0  0  0  0  0  0  0  0  0  0  0  0
    5.4184    0.1184    3.3518 H   0  0  0  0  0  0  0  0  0  0  0  0
    4.8324   -1.9830    2.1728 H   0  0  0  0  0  0  0  0  0  0  0  0
    3.6446   -1.9200    0.0278 H   0  0  0  0  0  0  0  0  0  0  0  0
   -1.4457   -1.8953    0.3479 H   0  0  0  0  0  0  0  0  0  0  0  0
   -3.7711   -2.2376   -1.1407 H   0  0  0  0  0  0  0  0  0  0  0  0
   -6.1988   -1.8233   -0.8755 H   0  0  0  0  0  0  0  0  0  0  0  0
   -7.3106    0.8072    1.2225 H   0  0  0  0  0  0  0  0  0  0  0  0
   -4.7487    2.1104    2.3285 H   0  0  0  0  0  0  0  0  0  0  0  0
   -2.9184    1.0269    1.5538 H   0  0  0  0  0  0  0  0  0  0  0  0
  1  2  2  0
  2  3  1  0
  2  4  1  0
  4  5  1  0
  5  6  2  0
  6  7  1  0
  7  8  2  0
  8  9  1  0
  9 10  2  0
  4 11  1  0
 11 12  1  0
 12 13  2  0
 12 14  1  0
 14 15  2  3
 15 16  1  0
 16 17  2  0
 17 18  1  0
 18 19  2  0
 19 20  1  0
 19 21  1  0
 21 22  1  0
 21 23  2  0
 14 24  1  0
 24 25  1  0
 25 26  2  0
 10  5  1  0
 25 11  1  0
 23 16  1  0
  3 27  1  0
  4 28  1  0
  6 29  1  0
  7 30  1  0
  8 31  1  0
  9 32  1  0
 10 33  1  0
 15 34  1  0
 17 35  1  0
 18 36  1  0
 20 37  1  0
 22 38  1  0
 23 39  1  0
M  END
$$$$
