
     RDKit          3D

 55 57  0  0  0  0  0  0  0  0999 V2000
    0.7476    5.4768   -0.1444 C   0  0  0  0  0  0  0  0  0  0  0  0
    1.0629    4.0464    0.3047 C   0  0  0  0  0  0  0  0  0  0  0  0
    1.6371    4.0711    1.7225 C   0  0  0  0  0  0  0  0  0  0  0  0
   -0.2106    3.1766    0.1916 C   0  0  0  0  0  0  0  0  0  0  0  0
    0.0007    1.6784    0.4873 C   0  0  0  0  0  0  0  0  0  0  0  0
    0.8555    1.0264   -0.5827 C   0  0  0  0  0  0  0  0  0  0  0  0
    2.0691    0.8545   -0.4776 O   0  0  0  0  0  0  0  0  0  0  0  0
    0.1487    0.6876   -1.6948 O   0  0  0  0  0  0  0  0  0  0  0  0
    0.8942    0.0820   -2.7503 C   0  0  0  0  0  0  0  0  0  0  0  0
    1.2052   -1.4065   -2.5354 C   0  0  0  0  0  0  0  0  0  0  0  0
    0.6096   -2.2721   -3.1725 O   0  0  0  0  0  0  0  0  0  0  0  0
    2.2009   -1.6181   -1.5954 N   0  0  0  0  0  0  0  0  0  0  0  0
    2.7426   -2.8464   -1.1672 C   0  0  0  0  0  0  0  0  0  0  0  0
    2.4190   -4.0827   -1.7316 C   0  0  0  0  0  0  0  0  0  0  0  0
    3.0045   -5.2601   -1.2507 C   0  0  0  0  0  0  0  0  0  0  0  0
    3.9201   -5.2091   -0.2010 C   0  0  0  0  0  0  0  0  0  0  0  0
    4.2462   -3.9784    0.3625 C   0  0  0  0  0  0  0  0  0  0  0  0
    5.3722   -3.9071    1.6625 Cl  0  0  0  0  0  0  0  0  0  0  0  0
    3.6660   -2.8015   -0.1145 C   0  0  0  0  0  0  0  0  0  0  0  0
   -1.2143    0.8909    0.7257 N   0  0  0  0  0  0  0  0  0  0  0  0
   -2.4648    1.0748    0.1766 C   0  0  0  0  0  0  0  0  0  0  0  0
   -2.7063    2.0545   -0.6852 O   0  0  0  0  0  0  0  0  0  0  0  0
   -3.2972    0.0946    0.6799 C   0  0  0  0  0  0  0  0  0  0  0  0
   -2.5148   -0.7338    1.5402 C   0  0  0  0  0  0  0  0  0  0  0  0
   -1.2296   -0.2341    1.5301 C   0  0  0  0  0  0  0  0  0  0  0  0
   -0.1181   -0.6566    2.1232 O   0  0  0  0  0  0  0  0  0  0  0  0
   -3.0718   -1.9179    2.2635 C   0  0  0  0  0  0  0  0  0  0  0  0
   -4.5418   -2.1259    1.9805 C   0  0  0  0  0  0  0  0  0  0  0  0
   -5.2807   -1.3454    1.1682 C   0  0  0  0  0  0  0  0  0  0  0  0
   -4.7498   -0.1455    0.4187 C   0  0  0  0  0  0  0  0  0  0  0  0
    1.6476    6.1013   -0.1178 H   0  0  0  0  0  0  0  0  0  0  0  0
   -0.0052    5.9393    0.5022 H   0  0  0  0  0  0  0  0  0  0  0  0
    0.3670    5.4888   -1.1717 H   0  0  0  0  0  0  0  0  0  0  0  0
    1.8304    3.6518   -0.3718 H   0  0  0  0  0  0  0  0  0  0  0  0
    0.8778    4.3699    2.4531 H   0  0  0  0  0  0  0  0  0  0  0  0
    2.4704    4.7796    1.7933 H   0  0  0  0  0  0  0  0  0  0  0  0
    2.0268    3.0919    2.0147 H   0  0  0  0  0  0  0  0  0  0  0  0
   -0.5975    3.2938   -0.8292 H   0  0  0  0  0  0  0  0  0  0  0  0
   -0.9739    3.5791    0.8708 H   0  0  0  0  0  0  0  0  0  0  0  0
    0.5571    1.5977    1.4282 H   0  0  0  0  0  0  0  0  0  0  0  0
    1.8228    0.6336   -2.9473 H   0  0  0  0  0  0  0  0  0  0  0  0
    0.2903    0.1676   -3.6618 H   0  0  0  0  0  0  0  0  0  0  0  0
    2.5230   -0.7883   -1.0945 H   0  0  0  0  0  0  0  0  0  0  0  0
    1.7150   -4.1666   -2.5547 H   0  0  0  0  0  0  0  0  0  0  0  0
    2.7419   -6.2154   -1.7011 H   0  0  0  0  0  0  0  0  0  0  0  0
    4.3720   -6.1260    0.1691 H   0  0  0  0  0  0  0  0  0  0  0  0
    3.9342   -1.8519    0.3435 H   0  0  0  0  0  0  0  0  0  0  0  0
   -3.6266    1.9587   -0.9881 H   0  0  0  0  0  0  0  0  0  0  0  0
   -0.3390   -1.4724    2.6081 H   0  0  0  0  0  0  0  0  0  0  0  0
   -2.5221   -2.8193    1.9683 H   0  0  0  0  0  0  0  0  0  0  0  0
   -2.9360   -1.7797    3.3425 H   0  0  0  0  0  0  0  0  0  0  0  0
   -5.0132   -2.9702    2.4780 H   0  0  0  0  0  0  0  0  0  0  0  0
   -6.3341   -1.5748    1.0257 H   0  0  0  0  0  0  0  0  0  0  0  0
   -5.3234    0.7396    0.7171 H   0  0  0  0  0  0  0  0  0  0  0  0
   -4.9073   -0.3012   -0.6547 H   0  0  0  0  0  0  0  0  0  0  0  0
  1  2  1  0
  2  3  1  0
  2  4  1  0
  4  5  1  0
  5  6  1  0
  6  7  2  0
  6  8  1  0
  8  9  1  0
  9 10  1  0
 10 11  2  0
 10 12  1  0
 12 13  1  0
 13 14  2  0
 14 15  1  0
 15 16  2  0
 16 17  1  0
 17 18  1  0
 17 19  2  0
  5 20  1  0
 20 21  1  0
 21 22  1  0
 21 23  2  0
 23 24  1  0
 24 25  2  0
 25 26  1  0
 24 27  1  0
 27 28  1  0
 28 29  2  0
 29 30  1  0
 19 13  1  0
 25 20  1  0
 30 23  1  0
  1 31  1  0
  1 32  1  0
  1 33  1  0
  2 34  1  0
  3 35  1  0
  3 36  1  0
  3 37  1  0
  4 38  1  0
  4 39  1  0
  5 40  1  0
  9 41  1  0
  9 42  1  0
 12 43  1  0
 14 44  1  0
 15 45  1  0
 16 46  1  0
 19 47  1  0
 22 48  1  0
 26 49  1  0
 27 50  1  0
 27 51  1  0
 28 52  1  0
 29 53  1  0
 30 54  1  0
 30 55  1  0
M  END
$$$$
