
     RDKit          3D

 41 43  0  0  0  0  0  0  0  0999 V2000
    5.5802    1.7103   -1.0220 C   0  0  0  0  0  0  0  0  0  0  0  0
    5.9891    0.3558   -0.8615 O   0  0  0  0  0  0  0  0  0  0  0  0
    5.0047   -0.5340   -0.5124 C   0  0  0  0  0  0  0  0  0  0  0  0
    3.7251   -0.2069   -0.0591 C   0  0  0  0  0  0  0  0  0  0  0  0
    2.8004   -1.2181    0.2462 C   0  0  0  0  0  0  0  0  0  0  0  0
    1.4591   -0.9143    0.7606 C   0  0  0  0  0  0  0  0  0  0  0  0
    0.5192   -0.1397    0.1993 C   0  0  0  0  0  0  0  0  0  0  0  0
   -1.0366    0.0959    0.9390 S   0  0  0  0  0  0  0  0  0  0  0  0
   -1.6050    1.0968   -0.3696 C   0  0  0  0  0  0  0  0  0  0  0  0
   -2.7403    1.6784   -0.5435 N   0  0  0  0  0  0  0  0  0  0  0  0
   -3.7657    1.4830    0.4009 C   0  0  0  0  0  0  0  0  0  0  0  0
   -4.0331    2.5088    1.3151 C   0  0  0  0  0  0  0  0  0  0  0  0
   -5.0534    2.3742    2.2552 C   0  0  0  0  0  0  0  0  0  0  0  0
   -5.8224    1.2139    2.2797 C   0  0  0  0  0  0  0  0  0  0  0  0
   -5.5795    0.1879    1.3616 C   0  0  0  0  0  0  0  0  0  0  0  0
   -4.5589    0.3150    0.4127 C   0  0  0  0  0  0  0  0  0  0  0  0
   -4.2452   -0.6334   -0.5306 O   0  0  0  0  0  0  0  0  0  0  0  0
   -5.0715   -1.7869   -0.5956 C   0  0  0  0  0  0  0  0  0  0  0  0
   -0.6263    1.2474   -1.2941 N   0  0  0  0  0  0  0  0  0  0  0  0
    0.5651    0.6134   -1.0896 C   0  0  0  0  0  0  0  0  0  0  0  0
    1.5080    0.6827   -1.8604 O   0  0  0  0  0  0  0  0  0  0  0  0
    3.1848   -2.5621    0.1323 C   0  0  0  0  0  0  0  0  0  0  0  0
    4.4673   -2.8961   -0.3014 C   0  0  0  0  0  0  0  0  0  0  0  0
    5.3607   -1.8825   -0.6176 C   0  0  0  0  0  0  0  0  0  0  0  0
    6.6133   -2.2329   -1.0428 O   0  0  0  0  0  0  0  0  0  0  0  0
    6.4325    2.2706   -1.4187 H   0  0  0  0  0  0  0  0  0  0  0  0
    5.3114    2.1536   -0.0578 H   0  0  0  0  0  0  0  0  0  0  0  0
    4.7595    1.7978   -1.7420 H   0  0  0  0  0  0  0  0  0  0  0  0
    3.4260    0.8289    0.0600 H   0  0  0  0  0  0  0  0  0  0  0  0
    1.2347   -1.4183    1.7003 H   0  0  0  0  0  0  0  0  0  0  0  0
   -3.4397    3.4186    1.2883 H   0  0  0  0  0  0  0  0  0  0  0  0
   -5.2494    3.1753    2.9630 H   0  0  0  0  0  0  0  0  0  0  0  0
   -6.6189    1.1074    3.0123 H   0  0  0  0  0  0  0  0  0  0  0  0
   -6.2054   -0.6963    1.4139 H   0  0  0  0  0  0  0  0  0  0  0  0
   -6.1106   -1.5193   -0.8138 H   0  0  0  0  0  0  0  0  0  0  0  0
   -4.9980   -2.3760    0.3244 H   0  0  0  0  0  0  0  0  0  0  0  0
   -4.7097   -2.4110   -1.4184 H   0  0  0  0  0  0  0  0  0  0  0  0
   -0.7912    1.7916   -2.1245 H   0  0  0  0  0  0  0  0  0  0  0  0
    2.4885   -3.3608    0.3781 H   0  0  0  0  0  0  0  0  0  0  0  0
    4.7675   -3.9353   -0.3937 H   0  0  0  0  0  0  0  0  0  0  0  0
    7.0635   -1.3832   -1.2163 H   0  0  0  0  0  0  0  0  0  0  0  0
  1  2  1  0
  2  3  1  0
  3  4  2  0
  4  5  1  0
  5  6  1  0
  6  7  2  3
  7  8  1  0
  8  9  1  0
  9 10  2  3
 10 11  1  0
 11 12  2  0
 12 13  1  0
 13 14  2  0
 14 15  1  0
 15 16  2  0
 16 17  1  0
 17 18  1  0
  9 19  1  0
 19 20  1  0
 20 21  2  0
  5 22  2  0
 22 23  1  0
 23 24  2  0
 24 25  1  0
 24  3  1  0
 20  7  1  0
 16 11  1  0
  1 26  1  0
  1 27  1  0
  1 28  1  0
  4 29  1  0
  6 30  1  0
 12 31  1  0
 13 32  1  0
 14 33  1  0
 15 34  1  0
 18 35  1  0
 18 36  1  0
 18 37  1  0
 19 38  1  0
 22 39  1  0
 23 40  1  0
 25 41  1  0
M  END
$$$$
