
     RDKit          3D

 40 44  0  0  0  0  0  0  0  0999 V2000
    6.6910   -2.6682   -1.9598 O   0  0  0  0  0  0  0  0  0  0  0  0
    6.1942   -1.6640   -1.4846 C   0  0  0  0  0  0  0  0  0  0  0  0
    6.9584   -0.6326   -1.0829 O   0  0  0  0  0  0  0  0  0  0  0  0
    4.7455   -1.4232   -1.2799 C   0  0  0  0  0  0  0  0  0  0  0  0
    3.8495   -2.4297   -1.6551 C   0  0  0  0  0  0  0  0  0  0  0  0
    2.4805   -2.2428   -1.4787 C   0  0  0  0  0  0  0  0  0  0  0  0
    2.0050   -1.0498   -0.9288 C   0  0  0  0  0  0  0  0  0  0  0  0
    2.8855   -0.0251   -0.5472 C   0  0  0  0  0  0  0  0  0  0  0  0
    2.3876    1.2205    0.0307 C   0  0  0  0  0  0  0  0  0  0  0  0
    2.9687    2.2847    0.6834 C   0  0  0  0  0  0  0  0  0  0  0  0
    1.9199    3.1848    0.9906 C   0  0  0  0  0  0  0  0  0  0  0  0
    0.7324    2.6341    0.5243 C   0  0  0  0  0  0  0  0  0  0  0  0
   -0.5711    3.1936    0.5774 C   0  0  0  0  0  0  0  0  0  0  0  0
   -1.7194    2.5001    0.5602 C   0  0  0  0  0  0  0  0  0  0  0  0
   -3.2622    3.3647    0.5478 S   0  0  0  0  0  0  0  0  0  0  0  0
   -4.1063    1.8723    0.4737 C   0  0  0  0  0  0  0  0  0  0  0  0
   -5.3744    1.5766    0.4137 N   0  0  0  0  0  0  0  0  0  0  0  0
   -5.3781    0.1957    0.3998 C   0  0  0  0  0  0  0  0  0  0  0  0
   -6.4652   -0.6891    0.3433 C   0  0  0  0  0  0  0  0  0  0  0  0
   -6.2146   -2.0673    0.3443 C   0  0  0  0  0  0  0  0  0  0  0  0
   -4.9083   -2.5594    0.4006 C   0  0  0  0  0  0  0  0  0  0  0  0
   -3.8075   -1.6977    0.4571 C   0  0  0  0  0  0  0  0  0  0  0  0
   -4.0794   -0.3257    0.4544 C   0  0  0  0  0  0  0  0  0  0  0  0
   -3.2878    0.7948    0.4958 N   0  0  0  0  0  0  0  0  0  0  0  0
   -1.9275    1.0131    0.5649 C   0  0  0  0  0  0  0  0  0  0  0  0
   -1.1473    0.0859    0.6478 O   0  0  0  0  0  0  0  0  0  0  0  0
    1.0477    1.4443   -0.0804 O   0  0  0  0  0  0  0  0  0  0  0  0
    4.2624   -0.2273   -0.7277 C   0  0  0  0  0  0  0  0  0  0  0  0
    7.8716   -0.9318   -1.2774 H   0  0  0  0  0  0  0  0  0  0  0  0
    4.2147   -3.3610   -2.0836 H   0  0  0  0  0  0  0  0  0  0  0  0
    1.7804   -3.0239   -1.7648 H   0  0  0  0  0  0  0  0  0  0  0  0
    0.9311   -0.9288   -0.7903 H   0  0  0  0  0  0  0  0  0  0  0  0
    4.0175    2.4013    0.9165 H   0  0  0  0  0  0  0  0  0  0  0  0
    2.0148    4.1327    1.5029 H   0  0  0  0  0  0  0  0  0  0  0  0
   -0.6124    4.2798    0.6247 H   0  0  0  0  0  0  0  0  0  0  0  0
   -7.4787   -0.3048    0.3008 H   0  0  0  0  0  0  0  0  0  0  0  0
   -7.0505   -2.7622    0.3012 H   0  0  0  0  0  0  0  0  0  0  0  0
   -4.7420   -3.6353    0.4009 H   0  0  0  0  0  0  0  0  0  0  0  0
   -2.7918   -2.0806    0.5014 H   0  0  0  0  0  0  0  0  0  0  0  0
    4.9660    0.5511   -0.4434 H   0  0  0  0  0  0  0  0  0  0  0  0
  1  2  2  0
  2  3  1  0
  2  4  1  0
  4  5  2  0
  5  6  1  0
  6  7  2  0
  7  8  1  0
  8  9  1  0
  9 10  2  0
 10 11  1  0
 11 12  2  0
 12 13  1  0
 13 14  2  3
 14 15  1  0
 15 16  1  0
 16 17  2  0
 17 18  1  0
 18 19  2  0
 19 20  1  0
 20 21  2  0
 21 22  1  0
 22 23  2  0
 23 24  1  0
 24 25  1  0
 25 26  2  0
 12 27  1  0
  8 28  2  0
 28  4  1  0
 27  9  1  0
 25 14  1  0
 24 16  1  0
 23 18  1  0
  3 29  1  0
  5 30  1  0
  6 31  1  0
  7 32  1  0
 10 33  1  0
 11 34  1  0
 13 35  1  0
 19 36  1  0
 20 37  1  0
 21 38  1  0
 22 39  1  0
 28 40  1  0
M  END
$$$$
