
     RDKit          3D

 48 50  0  0  0  0  0  0  0  0999 V2000
    4.9633    3.3406   -0.8901 C   0  0  0  0  0  0  0  0  0  0  0  0
    4.3534    2.3169   -1.6660 O   0  0  0  0  0  0  0  0  0  0  0  0
    3.8312    1.2505   -0.9878 C   0  0  0  0  0  0  0  0  0  0  0  0
    3.3078    0.2427   -1.7978 C   0  0  0  0  0  0  0  0  0  0  0  0
    2.7424   -0.9045   -1.2372 C   0  0  0  0  0  0  0  0  0  0  0  0
    2.6838   -1.0543    0.1523 C   0  0  0  0  0  0  0  0  0  0  0  0
    2.0336   -2.2748    0.7641 C   0  0  0  0  0  0  0  0  0  0  0  0
    0.5397   -2.4166    0.4846 C   0  0  0  0  0  0  0  0  0  0  0  0
    0.0555   -3.5298    0.2992 O   0  0  0  0  0  0  0  0  0  0  0  0
   -0.1572   -1.2193    0.5350 N   0  0  0  0  0  0  0  0  0  0  0  0
   -1.5283   -1.0807    0.3854 C   0  0  0  0  0  0  0  0  0  0  0  0
   -2.5344   -2.0025    0.1843 C   0  0  0  0  0  0  0  0  0  0  0  0
   -3.7167   -1.2709    0.1368 C   0  0  0  0  0  0  0  0  0  0  0  0
   -3.5318    0.0344    0.2642 N   0  0  0  0  0  0  0  0  0  0  0  0
   -2.1851    0.1580    0.4245 N   0  0  0  0  0  0  0  0  0  0  0  0
   -1.6238    1.5180    0.5958 C   0  0  0  0  0  0  0  0  0  0  0  0
   -0.6542    1.8523   -0.5552 C   0  0  0  0  0  0  0  0  0  0  0  0
   -2.7358    2.6027    0.5644 C   0  0  0  0  0  0  0  0  0  0  0  0
   -0.9234    1.6513    1.9630 C   0  0  0  0  0  0  0  0  0  0  0  0
   -4.9858   -1.9820   -0.0597 C   0  0  0  0  0  0  0  0  0  0  0  0
   -4.4892   -3.7525   -0.3439 S   0  0  0  0  0  3  0  0  0  0  0  0
   -5.1160   -4.6587    0.9042 O   0  0  0  0  0  1  0  0  0  0  0  0
   -2.6730   -3.4583    0.0185 C   0  0  0  0  0  0  0  0  0  0  0  0
    3.2146   -0.0443    0.9648 C   0  0  0  0  0  0  0  0  0  0  0  0
    3.7841    1.1012    0.3968 C   0  0  0  0  0  0  0  0  0  0  0  0
    4.2270    3.8397   -0.2489 H   0  0  0  0  0  0  0  0  0  0  0  0
    5.3670    4.0881   -1.5816 H   0  0  0  0  0  0  0  0  0  0  0  0
    5.7985    2.9464   -0.3006 H   0  0  0  0  0  0  0  0  0  0  0  0
    3.3451    0.3510   -2.8783 H   0  0  0  0  0  0  0  0  0  0  0  0
    2.3428   -1.6745   -1.8990 H   0  0  0  0  0  0  0  0  0  0  0  0
    2.5454   -3.1672    0.3818 H   0  0  0  0  0  0  0  0  0  0  0  0
    2.1613   -2.2734    1.8529 H   0  0  0  0  0  0  0  0  0  0  0  0
    0.3962   -0.3844    0.6721 H   0  0  0  0  0  0  0  0  0  0  0  0
   -0.3119    2.8921   -0.4930 H   0  0  0  0  0  0  0  0  0  0  0  0
    0.2412    1.2273   -0.5537 H   0  0  0  0  0  0  0  0  0  0  0  0
   -1.1423    1.7196   -1.5284 H   0  0  0  0  0  0  0  0  0  0  0  0
   -3.4658    2.4532    1.3684 H   0  0  0  0  0  0  0  0  0  0  0  0
   -2.3139    3.6063    0.6926 H   0  0  0  0  0  0  0  0  0  0  0  0
   -3.2780    2.5972   -0.3896 H   0  0  0  0  0  0  0  0  0  0  0  0
   -0.5566    2.6728    2.1176 H   0  0  0  0  0  0  0  0  0  0  0  0
   -1.6152    1.4191    2.7802 H   0  0  0  0  0  0  0  0  0  0  0  0
   -0.0624    0.9891    2.0726 H   0  0  0  0  0  0  0  0  0  0  0  0
   -5.6278   -1.9433    0.8238 H   0  0  0  0  0  0  0  0  0  0  0  0
   -5.5266   -1.6426   -0.9470 H   0  0  0  0  0  0  0  0  0  0  0  0
   -2.1300   -3.8389   -0.8518 H   0  0  0  0  0  0  0  0  0  0  0  0
   -2.4238   -4.0191    0.9228 H   0  0  0  0  0  0  0  0  0  0  0  0
    3.1912   -0.1356    2.0505 H   0  0  0  0  0  0  0  0  0  0  0  0
    4.1840    1.8575    1.0652 H   0  0  0  0  0  0  0  0  0  0  0  0
  1  2  1  0
  2  3  1  0
  3  4  2  0
  4  5  1  0
  5  6  2  0
  6  7  1  0
  7  8  1  0
  8  9  2  0
  8 10  1  0
 10 11  1  0
 11 12  2  0
 12 13  1  0
 13 14  2  0
 14 15  1  0
 15 16  1  0
 16 17  1  0
 16 18  1  0
 16 19  1  0
 13 20  1  0
 20 21  1  0
 21 22  1  0
 21 23  1  0
  6 24  1  0
 24 25  2  0
 25  3  1  0
 15 11  1  0
 23 12  1  0
  1 26  1  0
  1 27  1  0
  1 28  1  0
  4 29  1  0
  5 30  1  0
  7 31  1  0
  7 32  1  0
 10 33  1  0
 17 34  1  0
 17 35  1  0
 17 36  1  0
 18 37  1  0
 18 38  1  0
 18 39  1  0
 19 40  1  0
 19 41  1  0
 19 42  1  0
 20 43  1  0
 20 44  1  0
 23 45  1  0
 23 46  1  0
 24 47  1  0
 25 48  1  0
M  CHG  2  21   1  22  -1
M  END
$$$$
