
     RDKit          3D

 64 68  0  0  0  0  0  0  0  0999 V2000
    0.9001   -1.6103   -0.6706 O   0  0  0  0  0  0  0  0  0  0  0  0
    1.4496   -0.6863   -0.0682 C   0  0  0  0  0  0  0  0  0  0  0  0
    0.6894    0.1295    0.9916 C   0  0  0  0  0  0  0  0  0  0  0  0
    0.4684    1.5720    0.4990 C   0  0  0  0  0  0  0  0  0  0  0  0
   -0.9140    2.1171    0.8432 C   0  0  0  0  0  0  0  0  0  0  0  0
   -2.0205    1.2593    0.2132 C   0  0  0  0  0  0  0  0  0  0  0  0
   -3.3993    1.7202    0.7188 C   0  0  0  0  0  0  0  0  0  0  0  0
   -4.4488    1.1492   -0.1084 N   0  0  0  0  0  0  0  0  0  0  0  0
   -5.6003    0.4822    0.2767 C   0  0  0  0  0  0  0  0  0  0  0  0
   -5.6916   -0.0123    1.5504 N   0  0  0  0  0  0  0  0  0  0  0  0
   -6.7461   -0.7148    2.0700 C   0  0  0  0  0  0  0  0  0  0  0  0
   -6.6177   -1.2519    3.6543 S   0  0  0  0  0  0  0  0  0  0  0  0
   -7.8350   -0.9414    1.2792 N   0  0  0  0  0  0  0  0  0  0  0  0
   -7.7911   -0.4964    0.0650 C   0  0  0  0  0  0  0  0  0  0  0  0
   -8.9628   -0.7487   -0.8205 C   0  0  0  0  0  0  0  0  0  0  0  0
   -8.9735   -0.3125   -2.0865 C   0  0  0  0  0  0  0  0  0  0  0  0
   -7.8669    0.4169   -2.6538 C   0  0  0  0  0  0  0  0  0  0  0  0
   -6.7680    0.6901   -1.9361 C   0  0  0  0  0  0  0  0  0  0  0  0
   -6.6494    0.2632   -0.5504 C   0  0  0  0  0  0  0  0  0  0  0  0
   -1.7899   -0.2493    0.4429 C   0  0  0  0  0  0  0  0  0  0  0  0
   -0.6311   -0.5570    1.3917 C   0  0  0  0  0  0  0  0  0  0  0  0
    2.7597   -0.3136   -0.3637 N   0  0  0  0  0  0  0  0  0  0  0  0
    3.4639   -1.1382   -1.3586 C   0  0  0  0  0  0  0  0  0  0  0  0
    4.6790   -0.4341   -1.9857 C   0  0  0  0  0  0  0  0  0  0  0  0
    5.5629    0.1636   -0.9644 N   0  0  0  0  0  0  0  0  0  0  0  0
    6.6296   -0.5512   -0.4217 C   0  0  0  0  0  0  0  0  0  0  0  0
    6.7939   -1.9377   -0.5791 C   0  0  0  0  0  0  0  0  0  0  0  0
    7.8905   -2.6162   -0.0282 C   0  0  0  0  0  0  0  0  0  0  0  0
    8.8513   -1.9101    0.6789 C   0  0  0  0  0  0  0  0  0  0  0  0
    9.8992   -2.5575    1.2054 F   0  0  0  0  0  0  0  0  0  0  0  0
    8.7404   -0.5392    0.8381 C   0  0  0  0  0  0  0  0  0  0  0  0
    7.6417    0.1293    0.2864 C   0  0  0  0  0  0  0  0  0  0  0  0
    4.8294    1.0770   -0.0611 C   0  0  0  0  0  0  0  0  0  0  0  0
    3.6431    0.3562    0.6064 C   0  0  0  0  0  0  0  0  0  0  0  0
    1.3042    0.1361    1.8997 H   0  0  0  0  0  0  0  0  0  0  0  0
    1.2217    2.2342    0.9434 H   0  0  0  0  0  0  0  0  0  0  0  0
    0.6125    1.6352   -0.5880 H   0  0  0  0  0  0  0  0  0  0  0  0
   -1.0321    2.1607    1.9334 H   0  0  0  0  0  0  0  0  0  0  0  0
   -0.9968    3.1493    0.4811 H   0  0  0  0  0  0  0  0  0  0  0  0
   -1.9890    1.4288   -0.8724 H   0  0  0  0  0  0  0  0  0  0  0  0
   -3.4758    2.8119    0.6431 H   0  0  0  0  0  0  0  0  0  0  0  0
   -3.5104    1.4762    1.7798 H   0  0  0  0  0  0  0  0  0  0  0  0
   -4.4414    1.4849   -1.0640 H   0  0  0  0  0  0  0  0  0  0  0  0
   -4.9043    0.0916    2.1704 H   0  0  0  0  0  0  0  0  0  0  0  0
   -9.7920   -1.3000   -0.3921 H   0  0  0  0  0  0  0  0  0  0  0  0
   -9.8316   -0.5048   -2.7240 H   0  0  0  0  0  0  0  0  0  0  0  0
   -7.9495    0.7377   -3.6881 H   0  0  0  0  0  0  0  0  0  0  0  0
   -5.9608    1.2412   -2.4034 H   0  0  0  0  0  0  0  0  0  0  0  0
   -1.5945   -0.7236   -0.5266 H   0  0  0  0  0  0  0  0  0  0  0  0
   -2.6923   -0.7353    0.8298 H   0  0  0  0  0  0  0  0  0  0  0  0
   -0.9111   -0.2217    2.3990 H   0  0  0  0  0  0  0  0  0  0  0  0
   -0.4990   -1.6437    1.4656 H   0  0  0  0  0  0  0  0  0  0  0  0
    3.7672   -2.0595   -0.8492 H   0  0  0  0  0  0  0  0  0  0  0  0
    2.7712   -1.4223   -2.1584 H   0  0  0  0  0  0  0  0  0  0  0  0
    5.2228   -1.1035   -2.6608 H   0  0  0  0  0  0  0  0  0  0  0  0
    4.3139    0.3851   -2.6163 H   0  0  0  0  0  0  0  0  0  0  0  0
    6.0656   -2.5349   -1.1206 H   0  0  0  0  0  0  0  0  0  0  0  0
    7.9955   -3.6893   -0.1500 H   0  0  0  0  0  0  0  0  0  0  0  0
    9.5087    0.0055    1.3773 H   0  0  0  0  0  0  0  0  0  0  0  0
    7.6038    1.2122    0.3861 H   0  0  0  0  0  0  0  0  0  0  0  0
    4.4487    1.9128   -0.6605 H   0  0  0  0  0  0  0  0  0  0  0  0
    5.4618    1.5206    0.7132 H   0  0  0  0  0  0  0  0  0  0  0  0
    3.0915    1.0797    1.2074 H   0  0  0  0  0  0  0  0  0  0  0  0
    4.0054   -0.4203    1.2911 H   0  0  0  0  0  0  0  0  0  0  0  0
  1  2  2  0
  2  3  1  0
  3  4  1  0
  4  5  1  0
  5  6  1  0
  6  7  1  0
  7  8  1  0
  8  9  1  0
  9 10  1  0
 10 11  1  0
 11 12  2  0
 11 13  1  0
 13 14  2  0
 14 15  1  0
 15 16  2  0
 16 17  1  0
 17 18  2  0
 18 19  1  0
  6 20  1  0
 20 21  1  0
  2 22  1  0
 22 23  1  0
 23 24  1  0
 24 25  1  0
 25 26  1  0
 26 27  2  0
 27 28  1  0
 28 29  2  0
 29 30  1  0
 29 31  1  0
 31 32  2  0
 25 33  1  0
 33 34  1  0
 21  3  1  0
 34 22  1  0
 19  9  2  0
 32 26  1  0
 19 14  1  0
  3 35  1  0
  4 36  1  0
  4 37  1  0
  5 38  1  0
  5 39  1  0
  6 40  1  0
  7 41  1  0
  7 42  1  0
  8 43  1  0
 10 44  1  0
 15 45  1  0
 16 46  1  0
 17 47  1  0
 18 48  1  0
 20 49  1  0
 20 50  1  0
 21 51  1  0
 21 52  1  0
 23 53  1  0
 23 54  1  0
 24 55  1  0
 24 56  1  0
 27 57  1  0
 28 58  1  0
 31 59  1  0
 32 60  1  0
 33 61  1  0
 33 62  1  0
 34 63  1  0
 34 64  1  0
M  END
$$$$
