
     RDKit          3D

 41 41  0  0  0  0  0  0  0  0999 V2000
    4.7741   -2.0332    1.6171 C   0  0  0  0  0  0  0  0  0  0  0  0
    3.6834   -1.0517    1.2162 C   0  0  0  0  0  0  0  0  0  0  0  0
    2.4660   -1.1659    2.1345 C   0  0  0  0  0  0  0  0  0  0  0  0
    1.3824   -0.1229    1.8399 C   0  0  0  0  0  0  0  0  0  0  0  0
    0.7480   -0.2855    0.4538 C   0  0  0  0  0  0  0  0  0  0  0  0
   -0.5186    0.5798    0.2465 C   0  0  0  0  0  0  0  0  0  0  0  0
   -0.2062    2.0735    0.3601 C   0  0  0  0  0  0  0  0  0  0  0  0
   -1.4536    2.9079    0.1436 C   0  0  0  0  0  0  0  0  0  0  0  0
   -1.6085    3.9511    0.9007 N   0  0  0  0  0  0  0  0  0  0  0  0
   -2.7795    4.6548    0.5964 O   0  0  0  0  0  0  0  0  0  0  0  0
   -2.3569    2.4886   -0.9631 C   0  0  0  0  0  0  0  0  0  0  0  0
   -2.2008    1.2995   -1.5701 C   0  0  0  0  0  0  0  0  0  0  0  0
   -3.0340    0.9572   -2.7786 C   0  0  0  0  0  0  0  0  0  0  0  0
   -1.1756    0.2631   -1.1249 C   0  0  0  0  0  0  0  0  0  0  0  0
   -1.8420   -1.1148   -1.0260 C   0  0  0  0  0  0  0  0  0  0  0  0
   -2.8260   -1.3766   -0.3465 O   0  0  0  0  0  0  0  0  0  0  0  0
   -1.1689   -2.0147   -1.8009 O   0  0  0  0  0  0  0  0  0  0  0  0
   -1.7140   -3.3341   -1.7622 C   0  0  0  0  0  0  0  0  0  0  0  0
    5.6340   -1.9386    0.9467 H   0  0  0  0  0  0  0  0  0  0  0  0
    5.1177   -1.8427    2.6388 H   0  0  0  0  0  0  0  0  0  0  0  0
    4.4123   -3.0650    1.5624 H   0  0  0  0  0  0  0  0  0  0  0  0
    4.0852   -0.0326    1.2545 H   0  0  0  0  0  0  0  0  0  0  0  0
    3.3973   -1.2514    0.1780 H   0  0  0  0  0  0  0  0  0  0  0  0
    2.0376   -2.1728    2.0582 H   0  0  0  0  0  0  0  0  0  0  0  0
    2.7882   -1.0392    3.1755 H   0  0  0  0  0  0  0  0  0  0  0  0
    0.6029   -0.2149    2.6060 H   0  0  0  0  0  0  0  0  0  0  0  0
    1.8171    0.8776    1.9430 H   0  0  0  0  0  0  0  0  0  0  0  0
    1.4838   -0.0361   -0.3201 H   0  0  0  0  0  0  0  0  0  0  0  0
    0.4904   -1.3423    0.3171 H   0  0  0  0  0  0  0  0  0  0  0  0
   -1.2324    0.3243    1.0436 H   0  0  0  0  0  0  0  0  0  0  0  0
    0.5424    2.3799   -0.3806 H   0  0  0  0  0  0  0  0  0  0  0  0
    0.1931    2.3101    1.3524 H   0  0  0  0  0  0  0  0  0  0  0  0
   -2.7672    5.3723    1.2569 H   0  0  0  0  0  0  0  0  0  0  0  0
   -3.1062    3.2043   -1.2815 H   0  0  0  0  0  0  0  0  0  0  0  0
   -3.7267    0.1392   -2.5591 H   0  0  0  0  0  0  0  0  0  0  0  0
   -3.6309    1.8097   -3.1206 H   0  0  0  0  0  0  0  0  0  0  0  0
   -2.3881    0.6568   -3.6103 H   0  0  0  0  0  0  0  0  0  0  0  0
   -0.3997    0.2277   -1.9020 H   0  0  0  0  0  0  0  0  0  0  0  0
   -1.6707   -3.7367   -0.7453 H   0  0  0  0  0  0  0  0  0  0  0  0
   -2.7420   -3.3354   -2.1379 H   0  0  0  0  0  0  0  0  0  0  0  0
   -1.1072   -3.9703   -2.4123 H   0  0  0  0  0  0  0  0  0  0  0  0
  1  2  1  0
  2  3  1  0
  3  4  1  0
  4  5  1  0
  5  6  1  0
  6  7  1  0
  7  8  1  0
  8  9  2  3
  9 10  1  0
  8 11  1  0
 11 12  2  0
 12 13  1  0
 12 14  1  0
 14 15  1  0
 15 16  2  0
 15 17  1  0
 17 18  1  0
 14  6  1  0
  1 19  1  0
  1 20  1  0
  1 21  1  0
  2 22  1  0
  2 23  1  0
  3 24  1  0
  3 25  1  0
  4 26  1  0
  4 27  1  0
  5 28  1  0
  5 29  1  0
  6 30  1  0
  7 31  1  0
  7 32  1  0
 10 33  1  0
 11 34  1  0
 13 35  1  0
 13 36  1  0
 13 37  1  0
 14 38  1  0
 18 39  1  0
 18 40  1  0
 18 41  1  0
M  END
$$$$
