
     RDKit          3D

 38 39  0  0  0  0  0  0  0  0999 V2000
    2.0126   -0.6094    0.4410 O   0  0  0  0  0  0  0  0  0  0  0  0
    0.9297   -0.2892   -0.0211 C   0  0  0  0  0  0  0  0  0  0  0  0
    0.6870    0.1719   -1.2914 N   0  0  0  0  0  0  0  0  0  0  0  0
    1.7720    0.4679   -2.2019 C   0  0  0  0  0  0  0  0  0  0  0  0
    2.4857    1.7817   -1.8770 C   0  0  0  0  0  0  0  0  0  0  0  0
    3.4216    2.1094   -2.8991 O   0  0  0  0  0  0  0  0  0  0  0  0
   -0.2963   -0.4026    0.8692 C   0  0  0  0  0  0  0  0  0  0  0  0
   -0.6852   -1.8138    1.2367 C   0  0  0  0  0  0  0  0  0  0  0  0
   -1.3043   -2.5442    0.0712 C   0  0  0  0  0  0  0  0  0  0  0  0
   -2.6398   -2.3052   -0.2835 C   0  0  0  0  0  0  0  0  0  0  0  0
   -3.2072   -2.9559   -1.3809 C   0  0  0  0  0  0  0  0  0  0  0  0
   -2.4394   -3.8446   -2.1303 C   0  0  0  0  0  0  0  0  0  0  0  0
   -3.2060   -4.7231   -3.6180 Br  0  0  0  0  0  0  0  0  0  0  0  0
   -1.1096   -4.0878   -1.7932 C   0  0  0  0  0  0  0  0  0  0  0  0
   -0.5424   -3.4373   -0.6955 C   0  0  0  0  0  0  0  0  0  0  0  0
   -0.9847    0.6052    1.3234 N   0  0  0  0  0  0  0  0  0  0  0  0
   -0.6018    1.8610    0.9235 C   0  0  0  0  0  0  0  0  0  0  0  0
   -0.7150    2.2395   -0.2377 O   0  0  0  0  0  0  0  0  0  0  0  0
   -0.0862    2.6522    2.0293 C   0  0  0  0  0  0  0  0  0  0  0  0
    0.0070    2.3400    3.3752 C   0  0  0  0  0  0  0  0  0  0  0  0
    0.5880    3.3908    4.1438 C   0  0  0  0  0  0  0  0  0  0  0  0
    0.9212    4.4741    3.3635 C   0  0  0  0  0  0  0  0  0  0  0  0
    0.5335    4.2226    1.7181 S   0  0  0  0  0  0  0  0  0  0  0  0
   -0.2042    0.6397   -1.4499 H   0  0  0  0  0  0  0  0  0  0  0  0
    2.4923   -0.3582   -2.1858 H   0  0  0  0  0  0  0  0  0  0  0  0
    1.3501    0.5060   -3.2120 H   0  0  0  0  0  0  0  0  0  0  0  0
    3.0280    1.7046   -0.9294 H   0  0  0  0  0  0  0  0  0  0  0  0
    1.7725    2.6078   -1.7841 H   0  0  0  0  0  0  0  0  0  0  0  0
    2.9144    2.3592   -3.6904 H   0  0  0  0  0  0  0  0  0  0  0  0
    0.2008   -2.3462    1.6018 H   0  0  0  0  0  0  0  0  0  0  0  0
   -1.3956   -1.7912    2.0723 H   0  0  0  0  0  0  0  0  0  0  0  0
   -3.2472   -1.6086    0.2923 H   0  0  0  0  0  0  0  0  0  0  0  0
   -4.2442   -2.7621   -1.6422 H   0  0  0  0  0  0  0  0  0  0  0  0
   -0.5067   -4.7782   -2.3774 H   0  0  0  0  0  0  0  0  0  0  0  0
    0.5000   -3.6314   -0.4473 H   0  0  0  0  0  0  0  0  0  0  0  0
   -0.3284    1.3982    3.7940 H   0  0  0  0  0  0  0  0  0  0  0  0
    0.7533    3.3530    5.2139 H   0  0  0  0  0  0  0  0  0  0  0  0
    1.3747    5.4041    3.6790 H   0  0  0  0  0  0  0  0  0  0  0  0
  1  2  2  0
  2  3  1  0
  3  4  1  0
  4  5  1  0
  5  6  1  0
  2  7  1  0
  7  8  1  0
  8  9  1  0
  9 10  2  0
 10 11  1  0
 11 12  2  0
 12 13  1  0
 12 14  1  0
 14 15  2  0
  7 16  2  3
 16 17  1  0
 17 18  2  0
 17 19  1  0
 19 20  2  0
 20 21  1  0
 21 22  2  0
 22 23  1  0
 15  9  1  0
 23 19  1  0
  3 24  1  0
  4 25  1  0
  4 26  1  0
  5 27  1  0
  5 28  1  0
  6 29  1  0
  8 30  1  0
  8 31  1  0
 10 32  1  0
 11 33  1  0
 14 34  1  0
 15 35  1  0
 20 36  1  0
 21 37  1  0
 22 38  1  0
M  END
$$$$
