
     RDKit          3D

 50 52  0  0  0  0  0  0  0  0999 V2000
   -8.7976    0.0317    1.1908 C   0  0  0  0  0  0  0  0  0  0  0  0
   -8.0381    0.0311   -0.0096 O   0  0  0  0  0  0  0  0  0  0  0  0
   -6.6705    0.0706    0.0993 C   0  0  0  0  0  0  0  0  0  0  0  0
   -5.9761    0.1171    1.3125 C   0  0  0  0  0  0  0  0  0  0  0  0
   -4.5803    0.1591    1.3236 C   0  0  0  0  0  0  0  0  0  0  0  0
   -3.8681    0.1668    0.1215 C   0  0  0  0  0  0  0  0  0  0  0  0
   -2.3838    0.2175    0.1845 C   0  0  0  0  0  0  0  0  0  0  0  0
   -1.7882   -0.3003    1.1249 O   0  0  0  0  0  0  0  0  0  0  0  0
   -1.7527    0.9128   -0.8388 N   0  0  0  0  0  0  0  0  0  0  0  0
   -0.3942    1.0717   -1.0853 C   0  0  0  0  0  0  0  0  0  0  0  0
   -0.0215    2.0043   -2.4189 S   0  0  0  0  0  0  0  0  0  0  0  0
    0.4260    0.4327   -0.1873 N   0  0  0  0  0  0  0  0  0  0  0  0
    1.8250    0.2880   -0.0696 C   0  0  0  0  0  0  0  0  0  0  0  0
    2.2809   -0.3985    1.0595 C   0  0  0  0  0  0  0  0  0  0  0  0
    3.6509   -0.6065    1.2828 C   0  0  0  0  0  0  0  0  0  0  0  0
    4.6263   -0.1433    0.3930 C   0  0  0  0  0  0  0  0  0  0  0  0
    5.9675   -0.3446    0.6099 N   0  0  0  0  0  0  0  0  0  0  0  0
    6.5139   -1.1502    1.6989 C   0  0  0  0  0  0  0  0  0  0  0  0
    7.9900   -1.3000    1.3395 C   0  0  0  0  0  0  0  0  0  0  0  0
    8.2967   -0.0058    0.6070 C   0  0  0  0  0  0  0  0  0  0  0  0
    7.0287    0.2384   -0.2076 C   0  0  0  0  0  0  0  0  0  0  0  0
    4.1481    0.5362   -0.7352 C   0  0  0  0  0  0  0  0  0  0  0  0
    2.7766    0.7492   -0.9681 C   0  0  0  0  0  0  0  0  0  0  0  0
   -4.5530    0.0989   -1.0990 C   0  0  0  0  0  0  0  0  0  0  0  0
   -5.9525    0.0545   -1.1159 C   0  0  0  0  0  0  0  0  0  0  0  0
   -6.7108   -0.0062   -2.2591 O   0  0  0  0  0  0  0  0  0  0  0  0
   -6.0368   -0.0961   -3.5061 C   0  0  0  0  0  0  0  0  0  0  0  0
   -8.6334    0.9516    1.7615 H   0  0  0  0  0  0  0  0  0  0  0  0
   -9.8564   -0.0043    0.9168 H   0  0  0  0  0  0  0  0  0  0  0  0
   -8.5808   -0.8547    1.7960 H   0  0  0  0  0  0  0  0  0  0  0  0
   -6.4906    0.1197    2.2679 H   0  0  0  0  0  0  0  0  0  0  0  0
   -4.0522    0.1904    2.2752 H   0  0  0  0  0  0  0  0  0  0  0  0
   -2.3269    1.4149   -1.5021 H   0  0  0  0  0  0  0  0  0  0  0  0
   -0.0957   -0.0108    0.5713 H   0  0  0  0  0  0  0  0  0  0  0  0
    1.5781   -0.7840    1.7950 H   0  0  0  0  0  0  0  0  0  0  0  0
    3.9349   -1.1385    2.1859 H   0  0  0  0  0  0  0  0  0  0  0  0
    6.0422   -2.1358    1.7737 H   0  0  0  0  0  0  0  0  0  0  0  0
    6.4026   -0.6203    2.6519 H   0  0  0  0  0  0  0  0  0  0  0  0
    8.1282   -2.1530    0.6641 H   0  0  0  0  0  0  0  0  0  0  0  0
    8.6217   -1.4530    2.2188 H   0  0  0  0  0  0  0  0  0  0  0  0
    9.1906   -0.0711   -0.0193 H   0  0  0  0  0  0  0  0  0  0  0  0
    8.4417    0.8067    1.3295 H   0  0  0  0  0  0  0  0  0  0  0  0
    6.8916    1.3118   -0.3770 H   0  0  0  0  0  0  0  0  0  0  0  0
    7.0865   -0.2778   -1.1727 H   0  0  0  0  0  0  0  0  0  0  0  0
    4.8403    0.9151   -1.4822 H   0  0  0  0  0  0  0  0  0  0  0  0
    2.5164    1.2737   -1.8767 H   0  0  0  0  0  0  0  0  0  0  0  0
   -3.9901    0.0523   -2.0239 H   0  0  0  0  0  0  0  0  0  0  0  0
   -5.4232   -1.0014   -3.5594 H   0  0  0  0  0  0  0  0  0  0  0  0
   -6.7946   -0.1613   -4.2927 H   0  0  0  0  0  0  0  0  0  0  0  0
   -5.4374    0.8005   -3.6952 H   0  0  0  0  0  0  0  0  0  0  0  0
  1  2  1  0
  2  3  1  0
  3  4  2  0
  4  5  1  0
  5  6  2  0
  6  7  1  0
  7  8  2  0
  7  9  1  0
  9 10  1  0
 10 11  2  0
 10 12  1  0
 12 13  1  0
 13 14  2  0
 14 15  1  0
 15 16  2  0
 16 17  1  0
 17 18  1  0
 18 19  1  0
 19 20  1  0
 20 21  1  0
 16 22  1  0
 22 23  2  0
  6 24  1  0
 24 25  2  0
 25 26  1  0
 26 27  1  0
 25  3  1  0
 23 13  1  0
 21 17  1  0
  1 28  1  0
  1 29  1  0
  1 30  1  0
  4 31  1  0
  5 32  1  0
  9 33  1  0
 12 34  1  0
 14 35  1  0
 15 36  1  0
 18 37  1  0
 18 38  1  0
 19 39  1  0
 19 40  1  0
 20 41  1  0
 20 42  1  0
 21 43  1  0
 21 44  1  0
 22 45  1  0
 23 46  1  0
 24 47  1  0
 27 48  1  0
 27 49  1  0
 27 50  1  0
M  END
$$$$
