
     RDKit          3D

 47 49  0  0  0  0  0  0  0  0999 V2000
    7.7667    0.0873   -2.5180 C   0  0  0  0  0  0  0  0  0  0  0  0
    6.6825    0.3012   -1.4766 C   0  0  0  0  0  0  0  0  0  0  0  0
    5.4868   -0.3135   -1.9534 O   0  0  0  0  0  0  0  0  0  0  0  0
    4.3852   -0.2383   -1.1471 C   0  0  0  0  0  0  0  0  0  0  0  0
    4.3152    0.3941    0.0932 C   0  0  0  0  0  0  0  0  0  0  0  0
    3.1168    0.3984    0.8207 C   0  0  0  0  0  0  0  0  0  0  0  0
    1.9708   -0.2227    0.3104 C   0  0  0  0  0  0  0  0  0  0  0  0
    0.7396   -0.2202    1.0450 N   0  0  0  0  0  0  0  0  0  0  0  0
    0.6003   -0.2121    2.4328 C   0  0  0  0  0  0  0  0  0  0  0  0
    1.6372   -0.1420    3.2670 O   0  0  0  0  0  0  0  0  0  0  0  0
   -0.7360   -0.3679    2.7299 C   0  0  0  0  0  0  0  0  0  0  0  0
   -1.4622   -0.4327    1.5181 C   0  0  0  0  0  0  0  0  0  0  0  0
   -2.8212   -0.5614    1.4086 N   0  0  0  0  0  0  0  0  0  0  0  0
   -3.6615   -0.6058    2.6022 C   0  0  0  0  0  0  0  0  0  0  0  0
   -3.4480   -1.0858    0.1853 C   0  0  0  0  0  0  0  0  0  0  0  0
   -4.4452   -0.1062   -0.4033 C   0  0  0  0  0  0  0  0  0  0  0  0
   -5.7148   -0.5443   -0.8094 C   0  0  0  0  0  0  0  0  0  0  0  0
   -6.6291    0.3496   -1.3719 C   0  0  0  0  0  0  0  0  0  0  0  0
   -6.2831    1.6882   -1.5434 C   0  0  0  0  0  0  0  0  0  0  0  0
   -5.0201    2.1337   -1.1595 C   0  0  0  0  0  0  0  0  0  0  0  0
   -4.1067    1.2408   -0.5981 C   0  0  0  0  0  0  0  0  0  0  0  0
   -0.5493   -0.2439    0.4923 C   0  0  0  0  0  0  0  0  0  0  0  0
   -0.7875   -0.0393   -0.8091 O   0  0  0  0  0  0  0  0  0  0  0  0
    2.0491   -0.8696   -0.9309 C   0  0  0  0  0  0  0  0  0  0  0  0
    3.2479   -0.8708   -1.6513 C   0  0  0  0  0  0  0  0  0  0  0  0
    8.7095    0.5373   -2.1965 H   0  0  0  0  0  0  0  0  0  0  0  0
    7.9262   -0.9810   -2.6950 H   0  0  0  0  0  0  0  0  0  0  0  0
    7.4730    0.5286   -3.4763 H   0  0  0  0  0  0  0  0  0  0  0  0
    6.5270    1.3778   -1.3381 H   0  0  0  0  0  0  0  0  0  0  0  0
    6.9977   -0.1589   -0.5325 H   0  0  0  0  0  0  0  0  0  0  0  0
    5.1723    0.8977    0.5282 H   0  0  0  0  0  0  0  0  0  0  0  0
    3.1015    0.9250    1.7714 H   0  0  0  0  0  0  0  0  0  0  0  0
    1.2873   -0.2118    4.1728 H   0  0  0  0  0  0  0  0  0  0  0  0
   -1.1403   -0.4365    3.7294 H   0  0  0  0  0  0  0  0  0  0  0  0
   -3.4712    0.2595    3.2469 H   0  0  0  0  0  0  0  0  0  0  0  0
   -3.4751   -1.5237    3.1711 H   0  0  0  0  0  0  0  0  0  0  0  0
   -4.7277   -0.5824    2.3512 H   0  0  0  0  0  0  0  0  0  0  0  0
   -2.7333   -1.3670   -0.5938 H   0  0  0  0  0  0  0  0  0  0  0  0
   -3.9628   -2.0213    0.4430 H   0  0  0  0  0  0  0  0  0  0  0  0
   -6.0004   -1.5864   -0.6879 H   0  0  0  0  0  0  0  0  0  0  0  0
   -7.6116    0.0009   -1.6768 H   0  0  0  0  0  0  0  0  0  0  0  0
   -6.9944    2.3842   -1.9800 H   0  0  0  0  0  0  0  0  0  0  0  0
   -4.7442    3.1755   -1.2969 H   0  0  0  0  0  0  0  0  0  0  0  0
   -3.1213    1.5951   -0.3024 H   0  0  0  0  0  0  0  0  0  0  0  0
   -0.0515    0.4794   -1.1786 H   0  0  0  0  0  0  0  0  0  0  0  0
    1.2075   -1.4251   -1.3400 H   0  0  0  0  0  0  0  0  0  0  0  0
    3.2985   -1.3837   -2.6096 H   0  0  0  0  0  0  0  0  0  0  0  0
  1  2  1  0
  2  3  1  0
  3  4  1  0
  4  5  2  0
  5  6  1  0
  6  7  2  0
  7  8  1  0
  8  9  1  0
  9 10  1  0
  9 11  2  0
 11 12  1  0
 12 13  1  0
 13 14  1  0
 13 15  1  0
 15 16  1  0
 16 17  2  0
 17 18  1  0
 18 19  2  0
 19 20  1  0
 20 21  2  0
 12 22  2  0
 22 23  1  0
  7 24  1  0
 24 25  2  0
 25  4  1  0
 22  8  1  0
 21 16  1  0
  1 26  1  0
  1 27  1  0
  1 28  1  0
  2 29  1  0
  2 30  1  0
  5 31  1  0
  6 32  1  0
 10 33  1  0
 11 34  1  0
 14 35  1  0
 14 36  1  0
 14 37  1  0
 15 38  1  0
 15 39  1  0
 17 40  1  0
 18 41  1  0
 19 42  1  0
 20 43  1  0
 21 44  1  0
 23 45  1  0
 24 46  1  0
 25 47  1  0
M  END
$$$$
