
     RDKit          3D

 47 49  0  0  0  0  0  0  0  0999 V2000
    6.5328   -3.0785    1.6122 C   0  0  0  0  0  0  0  0  0  0  0  0
    5.9932   -1.7996    1.0258 C   0  0  0  0  0  0  0  0  0  0  0  0
    4.6030   -1.6086    0.9699 C   0  0  0  0  0  0  0  0  0  0  0  0
    4.0486   -0.4424    0.4388 C   0  0  0  0  0  0  0  0  0  0  0  0
    2.6815   -0.4049    0.4592 O   0  0  0  0  0  0  0  0  0  0  0  0
    2.0539    0.7874   -0.0113 C   0  0  0  0  0  0  0  0  0  0  0  0
    0.5962    0.5958    0.1605 C   0  0  0  0  0  0  0  0  0  0  0  0
   -0.3004   -0.3719   -0.2175 C   0  0  0  0  0  0  0  0  0  0  0  0
   -1.5609    0.0702    0.2800 C   0  0  0  0  0  0  0  0  0  0  0  0
   -2.8373   -0.6528    0.1086 C   0  0  0  0  0  0  0  0  0  0  0  0
   -2.8661   -1.6253   -0.6531 O   0  0  0  0  0  0  0  0  0  0  0  0
   -3.9890   -0.2771    0.8195 N   0  0  0  0  0  0  0  0  0  0  0  0
   -4.0674    0.8607    1.7252 C   0  0  0  0  0  0  0  0  0  0  0  0
   -5.2627   -0.8152    0.3393 C   0  0  0  0  0  0  0  0  0  0  0  0
   -5.9749    0.0521   -0.6922 C   0  0  0  0  0  0  0  0  0  0  0  0
   -7.2825   -0.2721   -1.0655 C   0  0  0  0  0  0  0  0  0  0  0  0
   -7.9414    0.5281   -1.9973 C   0  0  0  0  0  0  0  0  0  0  0  0
   -7.2831    1.6251   -2.5366 C   0  0  0  0  0  0  0  0  0  0  0  0
   -5.9852    1.8779   -2.1209 C   0  0  0  0  0  0  0  0  0  0  0  0
   -5.3231    1.1199   -1.2188 N   0  0  0  0  0  0  0  0  0  0  0  0
   -1.4111    1.2567    0.8942 N   0  0  0  0  0  0  0  0  0  0  0  0
   -0.0712    1.5741    0.8243 O   0  0  0  0  0  0  0  0  0  0  0  0
    4.8931    0.5533   -0.0512 C   0  0  0  0  0  0  0  0  0  0  0  0
    6.2918    0.3933   -0.0125 C   0  0  0  0  0  0  0  0  0  0  0  0
    7.1658    1.4932   -0.5508 C   0  0  0  0  0  0  0  0  0  0  0  0
    6.8347   -0.7917    0.5225 C   0  0  0  0  0  0  0  0  0  0  0  0
    8.5577   -1.0110    0.5599 Cl  0  0  0  0  0  0  0  0  0  0  0  0
    5.7302   -3.6955    2.0344 H   0  0  0  0  0  0  0  0  0  0  0  0
    7.0406   -3.6731    0.8411 H   0  0  0  0  0  0  0  0  0  0  0  0
    7.2293   -2.8601    2.4312 H   0  0  0  0  0  0  0  0  0  0  0  0
    3.9325   -2.3780    1.3512 H   0  0  0  0  0  0  0  0  0  0  0  0
    2.3901    1.6505    0.5747 H   0  0  0  0  0  0  0  0  0  0  0  0
    2.2749    0.9421   -1.0740 H   0  0  0  0  0  0  0  0  0  0  0  0
   -0.0946   -1.2797   -0.7649 H   0  0  0  0  0  0  0  0  0  0  0  0
   -5.0050    0.8287    2.2865 H   0  0  0  0  0  0  0  0  0  0  0  0
   -4.0211    1.7929    1.1549 H   0  0  0  0  0  0  0  0  0  0  0  0
   -3.2532    0.8157    2.4528 H   0  0  0  0  0  0  0  0  0  0  0  0
   -5.9133   -0.9449    1.2138 H   0  0  0  0  0  0  0  0  0  0  0  0
   -5.1139   -1.8115   -0.0969 H   0  0  0  0  0  0  0  0  0  0  0  0
   -7.7868   -1.1325   -0.6359 H   0  0  0  0  0  0  0  0  0  0  0  0
   -8.9640    0.3005   -2.2932 H   0  0  0  0  0  0  0  0  0  0  0  0
   -7.7689    2.2708   -3.2601 H   0  0  0  0  0  0  0  0  0  0  0  0
   -5.4243    2.7244   -2.5087 H   0  0  0  0  0  0  0  0  0  0  0  0
    4.4904    1.4712   -0.4718 H   0  0  0  0  0  0  0  0  0  0  0  0
    7.8576    1.8465    0.2204 H   0  0  0  0  0  0  0  0  0  0  0  0
    6.5733    2.3550   -0.8701 H   0  0  0  0  0  0  0  0  0  0  0  0
    7.7307    1.1404   -1.4182 H   0  0  0  0  0  0  0  0  0  0  0  0
  1  2  1  0
  2  3  2  0
  3  4  1  0
  4  5  1  0
  5  6  1  0
  6  7  1  0
  7  8  2  0
  8  9  1  0
  9 10  1  0
 10 11  2  0
 10 12  1  0
 12 13  1  0
 12 14  1  0
 14 15  1  0
 15 16  2  0
 16 17  1  0
 17 18  2  0
 18 19  1  0
 19 20  2  0
  9 21  2  0
 21 22  1  0
  4 23  2  0
 23 24  1  0
 24 25  1  0
 24 26  2  0
 26 27  1  0
 26  2  1  0
 22  7  1  0
 20 15  1  0
  1 28  1  0
  1 29  1  0
  1 30  1  0
  3 31  1  0
  6 32  1  0
  6 33  1  0
  8 34  1  0
 13 35  1  0
 13 36  1  0
 13 37  1  0
 14 38  1  0
 14 39  1  0
 16 40  1  0
 17 41  1  0
 18 42  1  0
 19 43  1  0
 23 44  1  0
 25 45  1  0
 25 46  1  0
 25 47  1  0
M  END
$$$$
