
     RDKit          3D

 33 35  0  0  0  0  0  0  0  0999 V2000
   -4.8779   -2.4912    1.6659 C   0  0  0  0  0  0  0  0  0  0  0  0
   -4.5154   -1.3198    0.8031 C   0  0  0  0  0  0  0  0  0  0  0  0
   -5.5131   -0.5488    0.2207 C   0  0  0  0  0  0  0  0  0  0  0  0
   -5.1393    0.5288   -0.5719 C   0  0  0  0  0  0  0  0  0  0  0  0
   -3.7874    0.8057   -0.7613 C   0  0  0  0  0  0  0  0  0  0  0  0
   -2.8496   -0.0103   -0.1488 C   0  0  0  0  0  0  0  0  0  0  0  0
   -1.4678    0.1495   -0.2477 N   0  0  0  0  0  0  0  0  0  0  0  0
   -0.7562    1.0803   -0.9725 C   0  0  0  0  0  0  0  0  0  0  0  0
   -1.2818    1.9275   -1.6897 O   0  0  0  0  0  0  0  0  0  0  0  0
    0.6974    0.9676   -0.8232 C   0  0  0  0  0  0  0  0  0  0  0  0
    1.4587    0.2597    0.0890 C   0  0  0  0  0  0  0  0  0  0  0  0
    2.8754    0.4106   -0.1036 C   0  0  0  0  0  0  0  0  0  0  0  0
    3.9628   -0.1480    0.6129 C   0  0  0  0  0  0  0  0  0  0  0  0
    5.2796    0.1543    0.2280 C   0  0  0  0  0  0  0  0  0  0  0  0
    6.4011   -0.4303    0.9755 N   0  0  0  0  0  4  0  0  0  0  0  0
    6.1316   -1.1801    1.9246 O   0  0  0  0  0  0  0  0  0  0  0  0
    7.5499   -0.1401    0.6131 O   0  0  0  0  0  1  0  0  0  0  0  0
    5.5350    0.9996   -0.8511 C   0  0  0  0  0  0  0  0  0  0  0  0
    4.4722    1.5593   -1.5655 C   0  0  0  0  0  0  0  0  0  0  0  0
    3.1511    1.2555   -1.1790 C   0  0  0  0  0  0  0  0  0  0  0  0
    1.7055    1.8323   -1.9062 S   0  0  0  0  0  0  0  0  0  0  0  0
   -3.1967   -1.0611    0.6275 N   0  0  0  0  0  0  0  0  0  0  0  0
   -5.4712   -2.1598    2.5238 H   0  0  0  0  0  0  0  0  0  0  0  0
   -3.9793   -2.9887    2.0448 H   0  0  0  0  0  0  0  0  0  0  0  0
   -5.4544   -3.2214    1.0896 H   0  0  0  0  0  0  0  0  0  0  0  0
   -6.5619   -0.7784    0.3781 H   0  0  0  0  0  0  0  0  0  0  0  0
   -5.8936    1.1536   -1.0422 H   0  0  0  0  0  0  0  0  0  0  0  0
   -3.5100    1.6503   -1.3798 H   0  0  0  0  0  0  0  0  0  0  0  0
   -0.9845   -0.5653    0.2723 H   0  0  0  0  0  0  0  0  0  0  0  0
    1.0430   -0.3446    0.8859 H   0  0  0  0  0  0  0  0  0  0  0  0
    3.7613   -0.8067    1.4551 H   0  0  0  0  0  0  0  0  0  0  0  0
    6.5529    1.2386   -1.1547 H   0  0  0  0  0  0  0  0  0  0  0  0
    4.6629    2.2212   -2.4071 H   0  0  0  0  0  0  0  0  0  0  0  0
  1  2  1  0
  2  3  2  0
  3  4  1  0
  4  5  2  0
  5  6  1  0
  6  7  1  0
  7  8  1  0
  8  9  2  0
  8 10  1  0
 10 11  2  0
 11 12  1  0
 12 13  2  0
 13 14  1  0
 14 15  1  0
 15 16  2  0
 15 17  1  0
 14 18  2  0
 18 19  1  0
 19 20  2  0
 20 21  1  0
  6 22  2  0
 22  2  1  0
 21 10  1  0
 20 12  1  0
  1 23  1  0
  1 24  1  0
  1 25  1  0
  3 26  1  0
  4 27  1  0
  5 28  1  0
  7 29  1  0
 11 30  1  0
 13 31  1  0
 18 32  1  0
 19 33  1  0
M  CHG  2  15   1  17  -1
M  END
$$$$
