
     RDKit          3D

 48 49  0  0  0  0  0  0  0  0999 V2000
   -5.0809   -1.7090   -3.1958 C   0  0  0  0  0  0  0  0  0  0  0  0
   -4.1199   -1.2632   -2.1343 C   0  0  0  0  0  0  0  0  0  0  0  0
   -3.4913   -2.2007   -1.3080 C   0  0  0  0  0  0  0  0  0  0  0  0
   -2.6171   -1.7850   -0.3008 C   0  0  0  0  0  0  0  0  0  0  0  0
   -2.3654   -0.4230   -0.0951 C   0  0  0  0  0  0  0  0  0  0  0  0
   -1.4117    0.0268    0.9868 C   0  0  0  0  0  0  0  0  0  0  0  0
   -0.0541    0.4959    0.4435 C   0  0  0  0  0  0  0  0  0  0  0  0
    0.7043   -0.5931   -0.1683 N   0  0  0  0  0  0  0  0  0  0  0  0
    1.6248   -0.3128   -1.1578 C   0  0  0  0  0  0  0  0  0  0  0  0
    1.7683    0.8024   -1.6466 O   0  0  0  0  0  0  0  0  0  0  0  0
    2.4926   -1.4445   -1.5858 C   0  0  0  0  0  0  0  0  0  0  0  0
    2.0721   -2.7772   -1.4819 C   0  0  0  0  0  0  0  0  0  0  0  0
    2.9159   -3.8097   -1.8980 C   0  0  0  0  0  0  0  0  0  0  0  0
    4.1740   -3.5157   -2.4243 C   0  0  0  0  0  0  0  0  0  0  0  0
    4.5900   -2.1900   -2.5442 C   0  0  0  0  0  0  0  0  0  0  0  0
    3.7497   -1.1551   -2.1304 C   0  0  0  0  0  0  0  0  0  0  0  0
    0.7718    1.0333    1.6259 C   0  0  0  0  0  0  0  0  0  0  0  0
    1.5048    0.3115    2.3016 O   0  0  0  0  0  0  0  0  0  0  0  0
    0.5595    2.3622    1.9168 N   0  0  0  0  0  0  0  0  0  0  0  0
    1.3234    3.0470    2.9602 C   0  0  0  0  0  0  0  0  0  0  0  0
    0.7360    2.7715    4.3377 C   0  0  0  0  0  0  0  0  0  0  0  0
    1.3004    4.5437    2.6611 C   0  0  0  0  0  0  0  0  0  0  0  0
    0.6414    5.0880    1.7859 O   0  0  0  0  0  0  0  0  0  0  0  0
    2.1086    5.2670    3.4597 O   0  0  0  0  0  0  0  0  0  0  0  0
   -3.0067    0.5153   -0.9132 C   0  0  0  0  0  0  0  0  0  0  0  0
   -3.8803    0.0983   -1.9203 C   0  0  0  0  0  0  0  0  0  0  0  0
   -4.7854   -2.6804   -3.6062 H   0  0  0  0  0  0  0  0  0  0  0  0
   -5.1019   -0.9983   -4.0286 H   0  0  0  0  0  0  0  0  0  0  0  0
   -6.0885   -1.7929   -2.7771 H   0  0  0  0  0  0  0  0  0  0  0  0
   -3.6765   -3.2635   -1.4456 H   0  0  0  0  0  0  0  0  0  0  0  0
   -2.1351   -2.5349    0.3217 H   0  0  0  0  0  0  0  0  0  0  0  0
   -1.8933    0.8347    1.5540 H   0  0  0  0  0  0  0  0  0  0  0  0
   -1.2663   -0.7872    1.7101 H   0  0  0  0  0  0  0  0  0  0  0  0
   -0.1890    1.2977   -0.2920 H   0  0  0  0  0  0  0  0  0  0  0  0
    0.9311   -1.3654    0.4469 H   0  0  0  0  0  0  0  0  0  0  0  0
    1.0836   -3.0243   -1.1052 H   0  0  0  0  0  0  0  0  0  0  0  0
    2.5888   -4.8437   -1.8207 H   0  0  0  0  0  0  0  0  0  0  0  0
    4.8283   -4.3207   -2.7501 H   0  0  0  0  0  0  0  0  0  0  0  0
    5.5666   -1.9606   -2.9631 H   0  0  0  0  0  0  0  0  0  0  0  0
    4.0767   -0.1221   -2.2302 H   0  0  0  0  0  0  0  0  0  0  0  0
    0.1393    2.9548    1.2043 H   0  0  0  0  0  0  0  0  0  0  0  0
    2.3622    2.7025    2.9017 H   0  0  0  0  0  0  0  0  0  0  0  0
   -0.2970    3.1319    4.4048 H   0  0  0  0  0  0  0  0  0  0  0  0
    0.7286    1.6997    4.5608 H   0  0  0  0  0  0  0  0  0  0  0  0
    1.3131    3.2748    5.1205 H   0  0  0  0  0  0  0  0  0  0  0  0
    2.0069    6.1887    3.1408 H   0  0  0  0  0  0  0  0  0  0  0  0
   -2.8325    1.5799   -0.7752 H   0  0  0  0  0  0  0  0  0  0  0  0
   -4.3699    0.8456   -2.5409 H   0  0  0  0  0  0  0  0  0  0  0  0
  1  2  1  0
  2  3  2  0
  3  4  1  0
  4  5  2  0
  5  6  1  0
  6  7  1  0
  7  8  1  0
  8  9  1  0
  9 10  2  0
  9 11  1  0
 11 12  2  0
 12 13  1  0
 13 14  2  0
 14 15  1  0
 15 16  2  0
  7 17  1  0
 17 18  2  0
 17 19  1  0
 19 20  1  0
 20 21  1  0
 20 22  1  0
 22 23  2  0
 22 24  1  0
  5 25  1  0
 25 26  2  0
 26  2  1  0
 16 11  1  0
  1 27  1  0
  1 28  1  0
  1 29  1  0
  3 30  1  0
  4 31  1  0
  6 32  1  0
  6 33  1  0
  7 34  1  0
  8 35  1  0
 12 36  1  0
 13 37  1  0
 14 38  1  0
 15 39  1  0
 16 40  1  0
 19 41  1  0
 20 42  1  0
 21 43  1  0
 21 44  1  0
 21 45  1  0
 24 46  1  0
 25 47  1  0
 26 48  1  0
M  END
$$$$
