
     RDKit          3D

 36 38  0  0  0  0  0  0  0  0999 V2000
    7.3085    1.9663   -1.5329 Br  0  0  0  0  0  0  0  0  0  0  0  0
    5.7305    1.0837   -0.9830 C   0  0  0  0  0  0  0  0  0  0  0  0
    5.5589    0.7427    0.3565 C   0  0  0  0  0  0  0  0  0  0  0  0
    4.3904    0.0894    0.7657 C   0  0  0  0  0  0  0  0  0  0  0  0
    3.3864   -0.2304   -0.1612 C   0  0  0  0  0  0  0  0  0  0  0  0
    2.1509   -0.9093    0.2260 C   0  0  0  0  0  0  0  0  0  0  0  0
    1.9704   -1.6122    1.3999 C   0  0  0  0  0  0  0  0  0  0  0  0
    0.3864   -2.2611    1.4613 S   0  0  0  0  0  0  0  0  0  0  0  0
    0.0382   -1.5585   -0.0783 C   0  0  0  0  0  0  0  0  0  0  0  0
   -1.1807   -1.7699   -0.6258 N   0  0  0  0  0  0  0  0  0  0  0  0
   -1.9677   -0.7464   -0.8006 C   0  0  0  0  0  0  0  0  0  0  0  0
   -1.6799    0.6962   -0.3859 C   0  0  0  0  0  0  0  0  0  0  0  0
   -2.4488    1.1050    0.8757 C   0  0  0  0  0  0  0  0  0  0  0  0
   -3.6594    0.2456    1.2496 C   0  0  0  0  0  0  0  0  0  0  0  0
   -4.7678    0.1370    0.1967 C   0  0  0  0  0  0  0  0  0  0  0  0
   -4.3262   -0.0842   -1.2485 C   0  0  0  0  0  0  0  0  0  0  0  0
   -3.2089   -0.9963   -1.3464 N   0  0  0  0  0  0  0  0  0  0  0  0
    1.0456   -0.9005   -0.6121 N   0  0  0  0  0  0  0  0  0  0  0  0
    3.5785    0.1289   -1.5052 C   0  0  0  0  0  0  0  0  0  0  0  0
    4.7448    0.7810   -1.9173 C   0  0  0  0  0  0  0  0  0  0  0  0
    6.3237    0.9823    1.0908 H   0  0  0  0  0  0  0  0  0  0  0  0
    4.2811   -0.1496    1.8199 H   0  0  0  0  0  0  0  0  0  0  0  0
    2.6637   -1.7940    2.2069 H   0  0  0  0  0  0  0  0  0  0  0  0
   -1.9723    1.3475   -1.2187 H   0  0  0  0  0  0  0  0  0  0  0  0
   -0.6160    0.8930   -0.2414 H   0  0  0  0  0  0  0  0  0  0  0  0
   -2.7583    2.1529    0.7786 H   0  0  0  0  0  0  0  0  0  0  0  0
   -1.7511    1.0775    1.7228 H   0  0  0  0  0  0  0  0  0  0  0  0
   -3.3147   -0.7634    1.5113 H   0  0  0  0  0  0  0  0  0  0  0  0
   -4.1003    0.6460    2.1714 H   0  0  0  0  0  0  0  0  0  0  0  0
   -5.3867    1.0422    0.2310 H   0  0  0  0  0  0  0  0  0  0  0  0
   -5.4274   -0.6885    0.4947 H   0  0  0  0  0  0  0  0  0  0  0  0
   -5.1671   -0.4844   -1.8264 H   0  0  0  0  0  0  0  0  0  0  0  0
   -4.0748    0.8737   -1.7173 H   0  0  0  0  0  0  0  0  0  0  0  0
   -3.4318   -1.9848   -1.4090 H   0  0  0  0  0  0  0  0  0  0  0  0
    2.8140   -0.1022   -2.2462 H   0  0  0  0  0  0  0  0  0  0  0  0
    4.8677    1.0450   -2.9642 H   0  0  0  0  0  0  0  0  0  0  0  0
  1  2  1  0
  2  3  2  0
  3  4  1  0
  4  5  2  0
  5  6  1  0
  6  7  2  0
  7  8  1  0
  8  9  1  0
  9 10  1  0
 10 11  2  3
 11 12  1  0
 12 13  1  0
 13 14  1  0
 14 15  1  0
 15 16  1  0
 16 17  1  0
  9 18  2  0
  5 19  1  0
 19 20  2  0
 20  2  1  0
 18  6  1  0
 17 11  1  0
  3 21  1  0
  4 22  1  0
  7 23  1  0
 12 24  1  0
 12 25  1  0
 13 26  1  0
 13 27  1  0
 14 28  1  0
 14 29  1  0
 15 30  1  0
 15 31  1  0
 16 32  1  0
 16 33  1  0
 17 34  1  0
 19 35  1  0
 20 36  1  0
M  END
$$$$
