
     RDKit          3D

 47 49  0  0  0  0  0  0  0  0999 V2000
    7.4865   -2.2079   -0.6891 C   0  0  0  0  0  0  0  0  0  0  0  0
    6.6276   -1.0903   -0.5011 O   0  0  0  0  0  0  0  0  0  0  0  0
    5.3377   -1.2217   -0.9336 C   0  0  0  0  0  0  0  0  0  0  0  0
    4.5394   -0.0926   -0.7433 C   0  0  0  0  0  0  0  0  0  0  0  0
    3.1976   -0.0886   -1.1379 C   0  0  0  0  0  0  0  0  0  0  0  0
    2.6323   -1.2250   -1.7169 C   0  0  0  0  0  0  0  0  0  0  0  0
    1.2949   -1.2915   -2.1691 N   0  0  0  0  0  0  0  0  0  0  0  0
    0.3096   -0.3445   -2.0622 C   0  0  0  0  0  0  0  0  0  0  0  0
   -0.6430   -0.1129   -3.4265 S   0  0  0  0  0  0  0  0  0  0  0  0
    0.1200    0.2665   -0.8268 N   0  0  0  0  0  0  0  0  0  0  0  0
    0.2440   -0.5609    0.3967 C   0  0  0  0  0  0  0  0  0  0  0  0
   -0.4112    0.0253    1.6571 C   0  0  0  0  0  0  0  0  0  0  0  0
   -1.7738    0.5765    1.3306 C   0  0  0  0  0  0  0  0  0  0  0  0
   -2.8767    0.4132    2.1728 C   0  0  0  0  0  0  0  0  0  0  0  0
   -4.1170    0.9574    1.8178 C   0  0  0  0  0  0  0  0  0  0  0  0
   -5.2579    0.8444    2.5751 O   0  0  0  0  0  0  0  0  0  0  0  0
   -5.1748    0.1119    3.7883 C   0  0  0  0  0  0  0  0  0  0  0  0
   -4.2470    1.6764    0.6094 C   0  0  0  0  0  0  0  0  0  0  0  0
   -5.4973    2.1780    0.3384 O   0  0  0  0  0  0  0  0  0  0  0  0
   -5.7127    2.7404   -0.9480 C   0  0  0  0  0  0  0  0  0  0  0  0
   -3.1316    1.8556   -0.2177 C   0  0  0  0  0  0  0  0  0  0  0  0
   -1.8964    1.3073    0.1396 C   0  0  0  0  0  0  0  0  0  0  0  0
   -0.6514    1.5126   -0.6865 C   0  0  0  0  0  0  0  0  0  0  0  0
    3.4385   -2.3481   -1.9279 C   0  0  0  0  0  0  0  0  0  0  0  0
    4.7821   -2.3511   -1.5320 C   0  0  0  0  0  0  0  0  0  0  0  0
    7.6022   -2.4426   -1.7524 H   0  0  0  0  0  0  0  0  0  0  0  0
    8.4730   -1.9410   -0.2980 H   0  0  0  0  0  0  0  0  0  0  0  0
    7.1302   -3.0781   -0.1280 H   0  0  0  0  0  0  0  0  0  0  0  0
    4.9679    0.7990   -0.2917 H   0  0  0  0  0  0  0  0  0  0  0  0
    2.6229    0.8217   -1.0010 H   0  0  0  0  0  0  0  0  0  0  0  0
    1.1521   -1.9257   -2.9484 H   0  0  0  0  0  0  0  0  0  0  0  0
    1.2986   -0.7487    0.6095 H   0  0  0  0  0  0  0  0  0  0  0  0
   -0.2164   -1.5330    0.1740 H   0  0  0  0  0  0  0  0  0  0  0  0
    0.2046    0.8396    2.0585 H   0  0  0  0  0  0  0  0  0  0  0  0
   -0.4728   -0.7514    2.4277 H   0  0  0  0  0  0  0  0  0  0  0  0
   -2.7466   -0.1426    3.0947 H   0  0  0  0  0  0  0  0  0  0  0  0
   -6.1667    0.1169    4.2507 H   0  0  0  0  0  0  0  0  0  0  0  0
   -4.4800    0.5860    4.4893 H   0  0  0  0  0  0  0  0  0  0  0  0
   -4.9008   -0.9318    3.6026 H   0  0  0  0  0  0  0  0  0  0  0  0
   -6.7737    2.9964   -1.0274 H   0  0  0  0  0  0  0  0  0  0  0  0
   -5.4845    2.0210   -1.7415 H   0  0  0  0  0  0  0  0  0  0  0  0
   -5.1389    3.6643   -1.0729 H   0  0  0  0  0  0  0  0  0  0  0  0
   -3.1987    2.4205   -1.1414 H   0  0  0  0  0  0  0  0  0  0  0  0
   -0.8806    1.9655   -1.6543 H   0  0  0  0  0  0  0  0  0  0  0  0
   -0.0026    2.2262   -0.1621 H   0  0  0  0  0  0  0  0  0  0  0  0
    3.0286   -3.2424   -2.3910 H   0  0  0  0  0  0  0  0  0  0  0  0
    5.3629   -3.2503   -1.7075 H   0  0  0  0  0  0  0  0  0  0  0  0
  1  2  1  0
  2  3  1  0
  3  4  2  0
  4  5  1  0
  5  6  2  0
  6  7  1  0
  7  8  1  0
  8  9  2  0
  8 10  1  0
 10 11  1  0
 11 12  1  0
 12 13  1  0
 13 14  2  0
 14 15  1  0
 15 16  1  0
 16 17  1  0
 15 18  2  0
 18 19  1  0
 19 20  1  0
 18 21  1  0
 21 22  2  0
 22 23  1  0
  6 24  1  0
 24 25  2  0
 25  3  1  0
 23 10  1  0
 22 13  1  0
  1 26  1  0
  1 27  1  0
  1 28  1  0
  4 29  1  0
  5 30  1  0
  7 31  1  0
 11 32  1  0
 11 33  1  0
 12 34  1  0
 12 35  1  0
 14 36  1  0
 17 37  1  0
 17 38  1  0
 17 39  1  0
 20 40  1  0
 20 41  1  0
 20 42  1  0
 21 43  1  0
 23 44  1  0
 23 45  1  0
 24 46  1  0
 25 47  1  0
M  END
$$$$
