
     RDKit          3D

 49 51  0  0  0  0  0  0  0  0999 V2000
    6.4069   -2.3445    1.5323 C   0  0  0  0  0  0  0  0  0  0  0  0
    6.2971   -1.1485    0.7752 O   0  0  0  0  0  0  0  0  0  0  0  0
    5.0371   -0.7161    0.4417 C   0  0  0  0  0  0  0  0  0  0  0  0
    3.8549   -1.3772    0.7930 C   0  0  0  0  0  0  0  0  0  0  0  0
    2.6055   -0.8701    0.4039 C   0  0  0  0  0  0  0  0  0  0  0  0
    2.5325    0.3277   -0.3217 C   0  0  0  0  0  0  0  0  0  0  0  0
    3.7214    0.9871   -0.6775 C   0  0  0  0  0  0  0  0  0  0  0  0
    4.9698    0.4768   -0.3029 C   0  0  0  0  0  0  0  0  0  0  0  0
    6.1725    1.0636   -0.6116 O   0  0  0  0  0  0  0  0  0  0  0  0
    6.1461    2.2828   -1.3389 C   0  0  0  0  0  0  0  0  0  0  0  0
    1.2083    0.9214   -0.7555 C   0  0  0  0  0  0  0  0  0  0  0  0
    0.0243    0.2366   -0.2134 N   0  0  0  0  0  0  0  0  0  0  0  0
   -1.2555    0.8354   -0.2791 C   0  0  0  0  0  0  0  0  0  0  0  0
   -1.5659    2.3172   -1.0178 S   0  0  0  0  0  0  0  0  0  0  0  0
   -2.2039    0.1021    0.4314 N   0  0  0  0  0  0  0  0  0  0  0  0
   -3.6111    0.2318    0.3644 C   0  0  0  0  0  0  0  0  0  0  0  0
   -4.2901    0.3843    1.5808 C   0  0  0  0  0  0  0  0  0  0  0  0
   -5.6790    0.5221    1.6122 C   0  0  0  0  0  0  0  0  0  0  0  0
   -6.4150    0.4975    0.4271 C   0  0  0  0  0  0  0  0  0  0  0  0
   -7.9088    0.6277    0.4535 C   0  0  0  0  0  0  0  0  0  0  0  0
   -5.7432    0.2789   -0.7819 C   0  0  0  0  0  0  0  0  0  0  0  0
   -4.3446    0.1176   -0.8291 C   0  0  0  0  0  0  0  0  0  0  0  0
   -3.7316   -0.2159   -2.1616 C   0  0  0  0  0  0  0  0  0  0  0  0
    0.1761   -1.2210   -0.1009 C   0  0  0  0  0  0  0  0  0  0  0  0
    1.3432   -1.5824    0.8131 C   0  0  0  0  0  0  0  0  0  0  0  0
    6.0032   -3.1999    0.9808 H   0  0  0  0  0  0  0  0  0  0  0  0
    5.9251   -2.2393    2.5099 H   0  0  0  0  0  0  0  0  0  0  0  0
    7.4706   -2.5342    1.7057 H   0  0  0  0  0  0  0  0  0  0  0  0
    3.8781   -2.2950    1.3716 H   0  0  0  0  0  0  0  0  0  0  0  0
    3.6430    1.9067   -1.2495 H   0  0  0  0  0  0  0  0  0  0  0  0
    5.6268    3.0670   -0.7782 H   0  0  0  0  0  0  0  0  0  0  0  0
    7.1808    2.6085   -1.4834 H   0  0  0  0  0  0  0  0  0  0  0  0
    5.7013    2.1422   -2.3295 H   0  0  0  0  0  0  0  0  0  0  0  0
    1.1857    1.9704   -0.4405 H   0  0  0  0  0  0  0  0  0  0  0  0
    1.1425    0.8743   -1.8496 H   0  0  0  0  0  0  0  0  0  0  0  0
   -1.8483   -0.1177    1.3540 H   0  0  0  0  0  0  0  0  0  0  0  0
   -3.7432    0.4342    2.5186 H   0  0  0  0  0  0  0  0  0  0  0  0
   -6.1792    0.6604    2.5679 H   0  0  0  0  0  0  0  0  0  0  0  0
   -8.3692   -0.3607    0.5457 H   0  0  0  0  0  0  0  0  0  0  0  0
   -8.2324    1.2487    1.2955 H   0  0  0  0  0  0  0  0  0  0  0  0
   -8.2748    1.1057   -0.4613 H   0  0  0  0  0  0  0  0  0  0  0  0
   -6.3177    0.2131   -1.7050 H   0  0  0  0  0  0  0  0  0  0  0  0
   -4.3725   -0.9191   -2.7061 H   0  0  0  0  0  0  0  0  0  0  0  0
   -2.7609   -0.7092   -2.0587 H   0  0  0  0  0  0  0  0  0  0  0  0
   -3.6210    0.6860   -2.7700 H   0  0  0  0  0  0  0  0  0  0  0  0
    0.3447   -1.6026   -1.1167 H   0  0  0  0  0  0  0  0  0  0  0  0
   -0.7318   -1.7088    0.2634 H   0  0  0  0  0  0  0  0  0  0  0  0
    1.4942   -2.6677    0.7853 H   0  0  0  0  0  0  0  0  0  0  0  0
    1.1079   -1.2976    1.8459 H   0  0  0  0  0  0  0  0  0  0  0  0
  1  2  1  0
  2  3  1  0
  3  4  2  0
  4  5  1  0
  5  6  2  0
  6  7  1  0
  7  8  2  0
  8  9  1  0
  9 10  1  0
  6 11  1  0
 11 12  1  0
 12 13  1  0
 13 14  2  0
 13 15  1  0
 15 16  1  0
 16 17  2  0
 17 18  1  0
 18 19  2  0
 19 20  1  0
 19 21  1  0
 21 22  2  0
 22 23  1  0
 12 24  1  0
 24 25  1  0
  8  3  1  0
 22 16  1  0
 25  5  1  0
  1 26  1  0
  1 27  1  0
  1 28  1  0
  4 29  1  0
  7 30  1  0
 10 31  1  0
 10 32  1  0
 10 33  1  0
 11 34  1  0
 11 35  1  0
 15 36  1  0
 17 37  1  0
 18 38  1  0
 20 39  1  0
 20 40  1  0
 20 41  1  0
 21 42  1  0
 23 43  1  0
 23 44  1  0
 23 45  1  0
 24 46  1  0
 24 47  1  0
 25 48  1  0
 25 49  1  0
M  END
$$$$
