
     RDKit          3D

 54 57  0  0  0  0  0  0  0  0999 V2000
   -3.1209    0.5375    4.4637 C   0  0  0  0  0  0  0  0  0  0  0  0
   -3.6103   -0.2998    3.2776 C   0  0  0  0  0  0  0  0  0  0  0  0
   -5.1432   -0.3117    3.2234 C   0  0  0  0  0  0  0  0  0  0  0  0
   -5.6725   -1.2939    2.1747 C   0  0  0  0  0  0  0  0  0  0  0  0
   -4.6942   -1.5604    1.0309 C   0  0  0  0  0  0  0  0  0  0  0  0
   -3.8597   -0.3279    0.7024 C   0  0  0  0  0  0  0  0  0  0  0  0
   -3.0297    0.1478    1.9134 C   0  0  0  0  0  0  0  0  0  0  0  0
   -2.8071    1.5780    1.8140 N   0  0  0  0  0  0  0  0  0  0  0  0
   -1.5140    1.8831    1.4565 C   0  0  0  0  0  0  0  0  0  0  0  0
   -1.1246    3.0083    1.1941 O   0  0  0  0  0  0  0  0  0  0  0  0
   -0.7844    0.7381    1.4651 N   0  0  0  0  0  0  0  0  0  0  0  0
    0.6016    0.6552    1.0786 C   0  0  0  0  0  0  0  0  0  0  0  0
    0.6972    0.4270   -0.4310 C   0  0  0  0  0  0  0  0  0  0  0  0
   -0.2784    0.2956   -1.1660 O   0  0  0  0  0  0  0  0  0  0  0  0
    1.9951    0.3754   -0.8946 N   0  0  0  0  0  0  0  0  0  0  0  0
    2.3062    0.1201   -2.2939 C   0  0  0  0  0  0  0  0  0  0  0  0
    2.1828   -1.3761   -2.6243 C   0  0  0  0  0  0  0  0  0  0  0  0
    3.3627   -2.1619   -2.0610 C   0  0  0  0  0  0  0  0  0  0  0  0
    4.6701   -1.6872   -2.6894 C   0  0  0  0  0  0  0  0  0  0  0  0
    4.8059   -0.1848   -2.7316 C   0  0  0  0  0  0  0  0  0  0  0  0
    6.0692    0.3735   -2.9815 C   0  0  0  0  0  0  0  0  0  0  0  0
    6.2323    1.7556   -3.0716 C   0  0  0  0  0  0  0  0  0  0  0  0
    5.1342    2.5966   -2.9213 C   0  0  0  0  0  0  0  0  0  0  0  0
    3.8719    2.0552   -2.6824 C   0  0  0  0  0  0  0  0  0  0  0  0
    3.6908    0.6638   -2.5922 C   0  0  0  0  0  0  0  0  0  0  0  0
   -1.5732   -0.3397    1.7496 C   0  0  0  0  0  0  0  0  0  0  0  0
   -1.1982   -1.5023    1.8305 O   0  0  0  0  0  0  0  0  0  0  0  0
   -2.0273    0.5518    4.5119 H   0  0  0  0  0  0  0  0  0  0  0  0
   -3.4865    0.1147    5.4059 H   0  0  0  0  0  0  0  0  0  0  0  0
   -3.4787    1.5709    4.4070 H   0  0  0  0  0  0  0  0  0  0  0  0
   -3.2856   -1.3313    3.4756 H   0  0  0  0  0  0  0  0  0  0  0  0
   -5.5075    0.6970    2.9885 H   0  0  0  0  0  0  0  0  0  0  0  0
   -5.5661   -0.5710    4.2014 H   0  0  0  0  0  0  0  0  0  0  0  0
   -6.6156   -0.9035    1.7733 H   0  0  0  0  0  0  0  0  0  0  0  0
   -5.9184   -2.2493    2.6539 H   0  0  0  0  0  0  0  0  0  0  0  0
   -4.0275   -2.3879    1.3041 H   0  0  0  0  0  0  0  0  0  0  0  0
   -5.2485   -1.8893    0.1445 H   0  0  0  0  0  0  0  0  0  0  0  0
   -4.5423    0.4690    0.3770 H   0  0  0  0  0  0  0  0  0  0  0  0
   -3.2147   -0.5456   -0.1583 H   0  0  0  0  0  0  0  0  0  0  0  0
   -3.5287    2.2847    1.7559 H   0  0  0  0  0  0  0  0  0  0  0  0
    1.0774   -0.1859    1.5929 H   0  0  0  0  0  0  0  0  0  0  0  0
    1.1110    1.5910    1.3295 H   0  0  0  0  0  0  0  0  0  0  0  0
    2.7695    0.4119   -0.2444 H   0  0  0  0  0  0  0  0  0  0  0  0
    1.5715    0.6571   -2.9080 H   0  0  0  0  0  0  0  0  0  0  0  0
    1.2456   -1.7871   -2.2317 H   0  0  0  0  0  0  0  0  0  0  0  0
    2.1556   -1.5079   -3.7140 H   0  0  0  0  0  0  0  0  0  0  0  0
    3.4058   -2.0420   -0.9714 H   0  0  0  0  0  0  0  0  0  0  0  0
    3.2301   -3.2319   -2.2573 H   0  0  0  0  0  0  0  0  0  0  0  0
    4.7317   -2.0608   -3.7194 H   0  0  0  0  0  0  0  0  0  0  0  0
    5.5072   -2.1218   -2.1300 H   0  0  0  0  0  0  0  0  0  0  0  0
    6.9362   -0.2710   -3.1124 H   0  0  0  0  0  0  0  0  0  0  0  0
    7.2162    2.1752   -3.2643 H   0  0  0  0  0  0  0  0  0  0  0  0
    5.2590    3.6740   -2.9924 H   0  0  0  0  0  0  0  0  0  0  0  0
    3.0208    2.7241   -2.5646 H   0  0  0  0  0  0  0  0  0  0  0  0
  1  2  1  0
  2  3  1  0
  3  4  1  0
  4  5  1  0
  5  6  1  0
  6  7  1  0
  7  8  1  0
  8  9  1  0
  9 10  2  0
  9 11  1  0
 11 12  1  0
 12 13  1  0
 13 14  2  0
 13 15  1  0
 15 16  1  0
 16 17  1  0
 17 18  1  0
 18 19  1  0
 19 20  1  0
 20 21  2  0
 21 22  1  0
 22 23  2  0
 23 24  1  0
 24 25  2  0
 11 26  1  0
 26 27  2  0
  7  2  1  0
 25 16  1  0
 26  7  1  0
 25 20  1  0
  1 28  1  0
  1 29  1  0
  1 30  1  0
  2 31  1  0
  3 32  1  0
  3 33  1  0
  4 34  1  0
  4 35  1  0
  5 36  1  0
  5 37  1  0
  6 38  1  0
  6 39  1  0
  8 40  1  0
 12 41  1  0
 12 42  1  0
 15 43  1  0
 16 44  1  0
 17 45  1  0
 17 46  1  0
 18 47  1  0
 18 48  1  0
 19 49  1  0
 19 50  1  0
 21 51  1  0
 22 52  1  0
 23 53  1  0
 24 54  1  0
M  END
$$$$
