
     RDKit          3D

 67 72  0  0  0  0  0  0  0  0999 V2000
   -2.2962    0.2471    3.0197 O   0  0  0  0  0  0  0  0  0  0  0  0
   -2.2266    0.3484    1.7925 C   0  0  0  0  0  0  0  0  0  0  0  0
   -1.0264    1.0222    1.1291 C   0  0  0  0  0  0  0  0  0  0  0  0
   -0.1876    1.8419    2.1337 C   0  0  0  0  0  0  0  0  0  0  0  0
    1.2372    2.1246    1.6357 C   0  0  0  0  0  0  0  0  0  0  0  0
    1.3490    1.9403    0.1272 C   0  0  0  0  0  0  0  0  0  0  0  0
    0.9986    0.5658   -0.2333 N   0  0  0  0  0  0  0  0  0  0  0  0
    2.0031   -0.3669   -0.5348 C   0  0  0  0  0  0  0  0  0  0  0  0
    1.5966   -1.6259   -0.9000 N   0  0  0  0  0  0  0  0  0  0  0  0
    2.5091   -2.5649   -1.2188 C   0  0  0  0  0  0  0  0  0  0  0  0
    3.8460   -2.4532   -1.2247 N   0  0  0  0  0  0  0  0  0  0  0  0
    4.2229   -1.2189   -0.8563 C   0  0  0  0  0  0  0  0  0  0  0  0
    3.4081   -0.1499   -0.5088 C   0  0  0  0  0  0  0  0  0  0  0  0
    4.1939    0.9412   -0.1723 N   0  0  0  0  0  0  0  0  0  0  0  0
    5.4448    0.5543   -0.3259 C   0  0  0  0  0  0  0  0  0  0  0  0
    5.5036   -0.7533   -0.7403 N   0  0  0  0  0  0  0  0  0  0  0  0
    6.7105   -1.5095   -0.9921 C   0  0  0  0  0  0  0  0  0  0  0  0
    7.5976   -1.6436    0.2433 C   0  0  0  0  0  0  0  0  0  0  0  0
    8.3906   -0.3782    0.5771 C   0  0  0  0  0  0  0  0  0  0  0  0
    7.5468    0.8210    1.0174 C   0  0  0  0  0  0  0  0  0  0  0  0
    6.6538    1.3902   -0.0831 C   0  0  0  0  0  0  0  0  0  0  0  0
   -0.1436   -0.0451    0.4733 C   0  0  0  0  0  0  0  0  0  0  0  0
   -3.2165   -0.1887    0.9693 N   0  0  0  0  0  0  0  0  0  0  0  0
   -4.3889   -0.7686    1.6433 C   0  0  0  0  0  0  0  0  0  0  0  0
   -5.1631   -1.7662    0.7632 C   0  0  0  0  0  0  0  0  0  0  0  0
   -5.4657   -1.1994   -0.5659 N   0  0  0  0  0  0  0  0  0  0  0  0
   -6.6441   -0.4840   -0.8052 C   0  0  0  0  0  0  0  0  0  0  0  0
   -7.5099   -0.0836    0.2281 C   0  0  0  0  0  0  0  0  0  0  0  0
   -8.6953    0.6244   -0.0232 C   0  0  0  0  0  0  0  0  0  0  0  0
   -9.0621    0.9433   -1.3249 C   0  0  0  0  0  0  0  0  0  0  0  0
   -8.2470    0.5437   -2.3751 C   0  0  0  0  0  0  0  0  0  0  0  0
   -7.0689   -0.1609   -2.1140 C   0  0  0  0  0  0  0  0  0  0  0  0
   -6.3588   -0.5650   -3.1807 F   0  0  0  0  0  0  0  0  0  0  0  0
   -4.2384   -0.7519   -1.2621 C   0  0  0  0  0  0  0  0  0  0  0  0
   -3.4683    0.2766   -0.4086 C   0  0  0  0  0  0  0  0  0  0  0  0
   -1.3987    1.7295    0.3789 H   0  0  0  0  0  0  0  0  0  0  0  0
   -0.1176    1.3439    3.1079 H   0  0  0  0  0  0  0  0  0  0  0  0
   -0.7041    2.7915    2.3219 H   0  0  0  0  0  0  0  0  0  0  0  0
    1.5304    3.1416    1.9183 H   0  0  0  0  0  0  0  0  0  0  0  0
    1.9342    1.4434    2.1393 H   0  0  0  0  0  0  0  0  0  0  0  0
    2.3223    2.2650   -0.2427 H   0  0  0  0  0  0  0  0  0  0  0  0
    0.6386    2.6144   -0.3696 H   0  0  0  0  0  0  0  0  0  0  0  0
    2.1090   -3.5334   -1.5030 H   0  0  0  0  0  0  0  0  0  0  0  0
    6.4206   -2.5089   -1.3344 H   0  0  0  0  0  0  0  0  0  0  0  0
    7.2386   -1.0219   -1.8196 H   0  0  0  0  0  0  0  0  0  0  0  0
    8.3203   -2.4479    0.0566 H   0  0  0  0  0  0  0  0  0  0  0  0
    7.0021   -1.9489    1.1126 H   0  0  0  0  0  0  0  0  0  0  0  0
    9.0127   -0.0962   -0.2819 H   0  0  0  0  0  0  0  0  0  0  0  0
    9.0837   -0.6205    1.3929 H   0  0  0  0  0  0  0  0  0  0  0  0
    6.9515    0.5539    1.8992 H   0  0  0  0  0  0  0  0  0  0  0  0
    8.2384    1.6116    1.3337 H   0  0  0  0  0  0  0  0  0  0  0  0
    6.3229    2.3913    0.2197 H   0  0  0  0  0  0  0  0  0  0  0  0
    7.2167    1.5162   -1.0151 H   0  0  0  0  0  0  0  0  0  0  0  0
   -0.7260   -0.6461   -0.2344 H   0  0  0  0  0  0  0  0  0  0  0  0
    0.2120   -0.7314    1.2567 H   0  0  0  0  0  0  0  0  0  0  0  0
   -4.0759   -1.2761    2.5626 H   0  0  0  0  0  0  0  0  0  0  0  0
   -5.0300    0.0708    1.9365 H   0  0  0  0  0  0  0  0  0  0  0  0
   -6.0613   -2.1325    1.2722 H   0  0  0  0  0  0  0  0  0  0  0  0
   -4.5333   -2.6523    0.6088 H   0  0  0  0  0  0  0  0  0  0  0  0
   -7.2836   -0.2980    1.2676 H   0  0  0  0  0  0  0  0  0  0  0  0
   -9.3307    0.9214    0.8082 H   0  0  0  0  0  0  0  0  0  0  0  0
   -9.9820    1.4872   -1.5198 H   0  0  0  0  0  0  0  0  0  0  0  0
   -8.5200    0.7595   -3.4031 H   0  0  0  0  0  0  0  0  0  0  0  0
   -3.6003   -1.6308   -1.4187 H   0  0  0  0  0  0  0  0  0  0  0  0
   -4.4188   -0.3278   -2.2524 H   0  0  0  0  0  0  0  0  0  0  0  0
   -2.5336    0.5174   -0.9172 H   0  0  0  0  0  0  0  0  0  0  0  0
   -4.0425    1.2072   -0.3252 H   0  0  0  0  0  0  0  0  0  0  0  0
  1  2  2  0
  2  3  1  0
  3  4  1  0
  4  5  1  0
  5  6  1  0
  6  7  1  0
  7  8  1  0
  8  9  2  0
  9 10  1  0
 10 11  2  0
 11 12  1  0
 12 13  2  0
 13 14  1  0
 14 15  2  0
 15 16  1  0
 16 17  1  0
 17 18  1  0
 18 19  1  0
 19 20  1  0
 20 21  1  0
  7 22  1  0
  2 23  1  0
 23 24  1  0
 24 25  1  0
 25 26  1  0
 26 27  1  0
 27 28  2  0
 28 29  1  0
 29 30  2  0
 30 31  1  0
 31 32  2  0
 32 33  1  0
 26 34  1  0
 34 35  1  0
 22  3  1  0
 35 23  1  0
 13  8  1  0
 21 15  1  0
 32 27  1  0
 16 12  1  0
  3 36  1  0
  4 37  1  0
  4 38  1  0
  5 39  1  0
  5 40  1  0
  6 41  1  0
  6 42  1  0
 10 43  1  0
 17 44  1  0
 17 45  1  0
 18 46  1  0
 18 47  1  0
 19 48  1  0
 19 49  1  0
 20 50  1  0
 20 51  1  0
 21 52  1  0
 21 53  1  0
 22 54  1  0
 22 55  1  0
 24 56  1  0
 24 57  1  0
 25 58  1  0
 25 59  1  0
 28 60  1  0
 29 61  1  0
 30 62  1  0
 31 63  1  0
 34 64  1  0
 34 65  1  0
 35 66  1  0
 35 67  1  0
M  END
$$$$
