
     RDKit          3D

 57 61  0  0  0  0  0  0  0  0999 V2000
    7.4331   -1.8830   -0.0711 C   0  0  0  0  0  0  0  0  0  0  0  0
    6.1471   -1.9673   -0.8387 C   0  0  0  0  0  0  0  0  0  0  0  0
    4.9871   -2.4549   -0.2271 C   0  0  0  0  0  0  0  0  0  0  0  0
    3.7828   -2.5086   -0.9326 C   0  0  0  0  0  0  0  0  0  0  0  0
    3.7164   -2.0709   -2.2624 C   0  0  0  0  0  0  0  0  0  0  0  0
    2.4177   -2.1294   -3.0252 C   0  0  0  0  0  0  0  0  0  0  0  0
    1.7193   -0.8622   -2.9923 N   0  0  0  0  0  0  0  0  0  0  0  0
    1.8097    0.0093   -4.0281 N   0  0  0  0  0  0  0  0  0  0  0  0
    1.0262    1.0516   -3.7522 N   0  0  0  0  0  0  0  0  0  0  0  0
    0.4416    0.8093   -2.5488 C   0  0  0  0  0  0  0  0  0  0  0  0
   -0.4973    1.5820   -1.7847 C   0  0  0  0  0  0  0  0  0  0  0  0
   -0.9693    2.6683   -2.1000 O   0  0  0  0  0  0  0  0  0  0  0  0
   -0.8460    0.9535   -0.5951 N   0  0  0  0  0  0  0  0  0  0  0  0
   -0.3590   -0.2830   -0.1883 C   0  0  0  0  0  0  0  0  0  0  0  0
   -0.8366   -0.8058    1.1638 C   0  0  0  0  0  0  0  0  0  0  0  0
   -0.2908    0.0456    2.3214 C   0  0  0  0  0  0  0  0  0  0  0  0
   -1.2539    1.1356    2.7778 C   0  0  0  0  0  0  0  0  0  0  0  0
   -2.5881    0.5916    3.0932 N   0  0  0  0  0  0  0  0  0  0  0  0
   -3.8552    1.6985    3.3343 S   0  0  0  0  0  6  0  0  0  0  0  0
   -4.9649    0.9969    3.9428 O   0  0  0  0  0  0  0  0  0  0  0  0
   -3.2989    2.8967    3.9228 O   0  0  0  0  0  0  0  0  0  0  0  0
   -4.3302    2.0999    1.6596 C   0  0  0  0  0  0  0  0  0  0  0  0
   -5.3454    1.3637    1.0352 C   0  0  0  0  0  0  0  0  0  0  0  0
   -5.7121    1.6737   -0.2756 C   0  0  0  0  0  0  0  0  0  0  0  0
   -5.0764    2.7188   -0.9391 C   0  0  0  0  0  0  0  0  0  0  0  0
   -5.4336    3.0113   -2.1961 F   0  0  0  0  0  0  0  0  0  0  0  0
   -4.0840    3.4692   -0.3143 C   0  0  0  0  0  0  0  0  0  0  0  0
   -3.7141    3.1699    0.9982 C   0  0  0  0  0  0  0  0  0  0  0  0
   -2.9083   -0.7646    2.6093 C   0  0  0  0  0  0  0  0  0  0  0  0
   -2.3595   -0.9727    1.2059 C   0  0  0  0  0  0  0  0  0  0  0  0
    0.4859   -0.9960   -0.8816 N   0  0  0  0  0  0  0  0  0  0  0  0
    0.8514   -0.4009   -2.0441 C   0  0  0  0  0  0  0  0  0  0  0  0
    4.8732   -1.5571   -2.8643 C   0  0  0  0  0  0  0  0  0  0  0  0
    6.0766   -1.5039   -2.1573 C   0  0  0  0  0  0  0  0  0  0  0  0
    8.2949   -1.9644   -0.7415 H   0  0  0  0  0  0  0  0  0  0  0  0
    7.5083   -2.7000    0.6544 H   0  0  0  0  0  0  0  0  0  0  0  0
    7.4886   -0.9294    0.4621 H   0  0  0  0  0  0  0  0  0  0  0  0
    5.0141   -2.7962    0.8051 H   0  0  0  0  0  0  0  0  0  0  0  0
    2.8941   -2.8895   -0.4331 H   0  0  0  0  0  0  0  0  0  0  0  0
    2.5959   -2.3970   -4.0728 H   0  0  0  0  0  0  0  0  0  0  0  0
    1.7496   -2.8936   -2.6124 H   0  0  0  0  0  0  0  0  0  0  0  0
   -1.5416    1.4529   -0.0646 H   0  0  0  0  0  0  0  0  0  0  0  0
   -0.3904   -1.8055    1.2770 H   0  0  0  0  0  0  0  0  0  0  0  0
    0.6746    0.4948    2.0573 H   0  0  0  0  0  0  0  0  0  0  0  0
   -0.0957   -0.6190    3.1750 H   0  0  0  0  0  0  0  0  0  0  0  0
   -0.8478    1.6086    3.6790 H   0  0  0  0  0  0  0  0  0  0  0  0
   -1.3270    1.9068    2.0088 H   0  0  0  0  0  0  0  0  0  0  0  0
   -5.8551    0.5579    1.5610 H   0  0  0  0  0  0  0  0  0  0  0  0
   -6.4954    1.1167   -0.7818 H   0  0  0  0  0  0  0  0  0  0  0  0
   -3.6146    4.2873   -0.8531 H   0  0  0  0  0  0  0  0  0  0  0  0
   -2.9595    3.7759    1.4959 H   0  0  0  0  0  0  0  0  0  0  0  0
   -3.9873   -0.9470    2.6081 H   0  0  0  0  0  0  0  0  0  0  0  0
   -2.4777   -1.4934    3.3059 H   0  0  0  0  0  0  0  0  0  0  0  0
   -2.8582   -0.2876    0.5125 H   0  0  0  0  0  0  0  0  0  0  0  0
   -2.6186   -1.9808    0.8590 H   0  0  0  0  0  0  0  0  0  0  0  0
    4.8442   -1.1870   -3.8885 H   0  0  0  0  0  0  0  0  0  0  0  0
    6.9601   -1.0957   -2.6445 H   0  0  0  0  0  0  0  0  0  0  0  0
  1  2  1  0
  2  3  2  0
  3  4  1  0
  4  5  2  0
  5  6  1  0
  6  7  1  0
  7  8  1  0
  8  9  2  0
  9 10  1  0
 10 11  1  0
 11 12  2  0
 11 13  1  0
 13 14  1  0
 14 15  1  0
 15 16  1  0
 16 17  1  0
 17 18  1  0
 18 19  1  0
 19 20  2  0
 19 21  2  0
 19 22  1  0
 22 23  2  0
 23 24  1  0
 24 25  2  0
 25 26  1  0
 25 27  1  0
 27 28  2  0
 18 29  1  0
 29 30  1  0
 14 31  2  0
 31 32  1  0
  5 33  1  0
 33 34  2  0
 34  2  1  0
 32  7  1  0
 32 10  2  0
 30 15  1  0
 28 22  1  0
  1 35  1  0
  1 36  1  0
  1 37  1  0
  3 38  1  0
  4 39  1  0
  6 40  1  0
  6 41  1  0
 13 42  1  0
 15 43  1  0
 16 44  1  0
 16 45  1  0
 17 46  1  0
 17 47  1  0
 23 48  1  0
 24 49  1  0
 27 50  1  0
 28 51  1  0
 29 52  1  0
 29 53  1  0
 30 54  1  0
 30 55  1  0
 33 56  1  0
 34 57  1  0
M  END
$$$$
