
     RDKit          3D

 40 43  0  0  0  0  0  0  0  0999 V2000
    2.2352   -3.0500    0.2774 O   0  0  0  0  0  0  0  0  0  0  0  0
    2.0816   -1.6467    0.5933 S   0  0  0  0  0  6  0  0  0  0  0  0
    2.1446   -1.1490    1.9496 O   0  0  0  0  0  0  0  0  0  0  0  0
    3.2268   -0.7769   -0.4015 C   0  0  0  0  0  0  0  0  0  0  0  0
    2.9400   -0.4423   -1.7452 C   0  0  0  0  0  0  0  0  0  0  0  0
    3.8536    0.2581   -2.5734 C   0  0  0  0  0  0  0  0  0  0  0  0
    5.1234    0.6711   -2.1306 C   0  0  0  0  0  0  0  0  0  0  0  0
    5.4279    0.3285   -0.7988 C   0  0  0  0  0  0  0  0  0  0  0  0
    6.5450    0.5721   -0.1051 N   0  0  0  0  0  0  0  0  0  0  0  0
    6.3379    0.0216    1.1467 O   0  0  0  0  0  0  0  0  0  0  0  0
    5.0919   -0.5669    1.2484 N   0  0  0  0  0  0  0  0  0  0  0  0
    4.4940   -0.3915    0.0631 C   0  0  0  0  0  0  0  0  0  0  0  0
    0.5591   -1.1462   -0.0160 N   0  0  0  0  0  0  0  0  0  0  0  0
    0.2047    0.2964    0.2672 C   0  0  0  0  0  0  0  0  0  0  0  0
   -0.8642    0.4279    1.3649 C   0  0  0  0  0  0  0  0  0  0  0  0
   -2.1225   -0.2499    0.9811 N   0  0  0  0  0  0  0  0  0  0  0  0
   -3.2126    0.5293    0.5507 C   0  0  0  0  0  0  0  0  0  0  0  0
   -4.5086    0.0020    0.6970 C   0  0  0  0  0  0  0  0  0  0  0  0
   -5.6438    0.7145    0.2934 C   0  0  0  0  0  0  0  0  0  0  0  0
   -5.5101    1.9786   -0.2726 C   0  0  0  0  0  0  0  0  0  0  0  0
   -4.2413    2.5260   -0.4339 C   0  0  0  0  0  0  0  0  0  0  0  0
   -3.1143    1.8088   -0.0273 C   0  0  0  0  0  0  0  0  0  0  0  0
   -1.9161    2.3739   -0.2478 F   0  0  0  0  0  0  0  0  0  0  0  0
   -1.9381   -1.4719    0.1581 C   0  0  0  0  0  0  0  0  0  0  0  0
   -0.5471   -2.0957    0.3699 C   0  0  0  0  0  0  0  0  0  0  0  0
    1.9832   -0.7411   -2.1769 H   0  0  0  0  0  0  0  0  0  0  0  0
    3.5614    0.4807   -3.6008 H   0  0  0  0  0  0  0  0  0  0  0  0
    5.8213    1.2032   -2.7649 H   0  0  0  0  0  0  0  0  0  0  0  0
   -0.1513    0.7252   -0.6767 H   0  0  0  0  0  0  0  0  0  0  0  0
    1.0927    0.8697    0.5527 H   0  0  0  0  0  0  0  0  0  0  0  0
   -1.0217    1.4764    1.6402 H   0  0  0  0  0  0  0  0  0  0  0  0
   -0.4987   -0.0552    2.2800 H   0  0  0  0  0  0  0  0  0  0  0  0
   -4.6431   -0.9735    1.1595 H   0  0  0  0  0  0  0  0  0  0  0  0
   -6.6311    0.2802    0.4309 H   0  0  0  0  0  0  0  0  0  0  0  0
   -6.3901    2.5344   -0.5852 H   0  0  0  0  0  0  0  0  0  0  0  0
   -4.1157    3.5078   -0.8792 H   0  0  0  0  0  0  0  0  0  0  0  0
   -2.0545   -1.2316   -0.9076 H   0  0  0  0  0  0  0  0  0  0  0  0
   -2.6995   -2.2144    0.4236 H   0  0  0  0  0  0  0  0  0  0  0  0
   -0.4375   -2.3907    1.4207 H   0  0  0  0  0  0  0  0  0  0  0  0
   -0.4622   -2.9929   -0.2531 H   0  0  0  0  0  0  0  0  0  0  0  0
  1  2  2  0
  2  3  2  0
  2  4  1  0
  4  5  2  0
  5  6  1  0
  6  7  2  0
  7  8  1  0
  8  9  2  0
  9 10  1  0
 10 11  1  0
 11 12  2  0
  2 13  1  0
 13 14  1  0
 14 15  1  0
 15 16  1  0
 16 17  1  0
 17 18  2  0
 18 19  1  0
 19 20  2  0
 20 21  1  0
 21 22  2  0
 22 23  1  0
 16 24  1  0
 24 25  1  0
 12  4  1  0
 25 13  1  0
 12  8  1  0
 22 17  1  0
  5 26  1  0
  6 27  1  0
  7 28  1  0
 14 29  1  0
 14 30  1  0
 15 31  1  0
 15 32  1  0
 18 33  1  0
 19 34  1  0
 20 35  1  0
 21 36  1  0
 24 37  1  0
 24 38  1  0
 25 39  1  0
 25 40  1  0
M  END
$$$$
