
     RDKit          3D

 53 56  0  0  0  0  0  0  0  0999 V2000
   -0.8751   -0.6491   -6.7438 C   0  0  0  0  0  0  0  0  0  0  0  0
   -0.7354    0.0732   -5.5158 O   0  0  0  0  0  0  0  0  0  0  0  0
   -0.3458   -0.6466   -4.4223 C   0  0  0  0  0  0  0  0  0  0  0  0
   -0.3910   -2.0319   -4.3062 C   0  0  0  0  0  0  0  0  0  0  0  0
    0.0125   -2.6550   -3.1181 C   0  0  0  0  0  0  0  0  0  0  0  0
    0.4777   -1.8998   -2.0361 C   0  0  0  0  0  0  0  0  0  0  0  0
    0.9038   -2.4305   -0.8483 O   0  0  0  0  0  0  0  0  0  0  0  0
    0.7985   -3.8329   -0.6715 C   0  0  0  0  0  0  0  0  0  0  0  0
    0.5330   -0.4975   -2.1448 C   0  0  0  0  0  0  0  0  0  0  0  0
    1.0152    0.3737   -1.0057 C   0  0  0  0  0  0  0  0  0  0  0  0
   -0.1190    0.9870   -0.2918 N   0  0  0  0  0  0  0  0  0  0  0  0
    0.3273    1.6539    0.8943 N   0  0  0  0  0  0  0  0  0  0  0  0
    0.2317    1.0297    2.1436 C   0  0  0  0  0  0  0  0  0  0  0  0
   -0.3837   -0.3143    2.2234 C   0  0  0  0  0  0  0  0  0  0  0  0
    0.3860   -1.4023    2.6525 C   0  0  0  0  0  0  0  0  0  0  0  0
   -0.2151   -2.6565    2.7745 C   0  0  0  0  0  0  0  0  0  0  0  0
   -1.5697   -2.8220    2.4663 C   0  0  0  0  0  0  0  0  0  0  0  0
   -2.3488   -1.7306    2.0482 C   0  0  0  0  0  0  0  0  0  0  0  0
   -3.8208   -1.8838    1.7881 C   0  0  0  0  0  0  0  0  0  0  0  0
   -1.7468   -0.4710    1.9314 C   0  0  0  0  0  0  0  0  0  0  0  0
    0.6477    1.5812    3.2453 N   0  0  0  0  0  0  0  0  0  0  0  0
    1.1841    2.8746    3.1824 C   0  0  0  0  0  0  0  0  0  0  0  0
    1.6175    3.4774    4.3690 C   0  0  0  0  0  0  0  0  0  0  0  0
    2.1454    4.7725    4.3603 C   0  0  0  0  0  0  0  0  0  0  0  0
    2.2497    5.4781    3.1581 C   0  0  0  0  0  0  0  0  0  0  0  0
    1.8208    4.8888    1.9662 C   0  0  0  0  0  0  0  0  0  0  0  0
    1.2864    3.5948    1.9890 C   0  0  0  0  0  0  0  0  0  0  0  0
    0.8091    2.9557    0.7490 C   0  0  0  0  0  0  0  0  0  0  0  0
    0.8431    3.5631   -0.3225 O   0  0  0  0  0  0  0  0  0  0  0  0
    0.1028    0.1128   -3.3384 C   0  0  0  0  0  0  0  0  0  0  0  0
    0.0224   -1.2508   -6.9613 H   0  0  0  0  0  0  0  0  0  0  0  0
   -1.7859   -1.2678   -6.7292 H   0  0  0  0  0  0  0  0  0  0  0  0
   -0.9839    0.0806   -7.5598 H   0  0  0  0  0  0  0  0  0  0  0  0
   -0.7535   -2.6621   -5.1126 H   0  0  0  0  0  0  0  0  0  0  0  0
   -0.0525   -3.7389   -3.0721 H   0  0  0  0  0  0  0  0  0  0  0  0
    1.1595   -4.0705    0.3331 H   0  0  0  0  0  0  0  0  0  0  0  0
    1.4329   -4.3714   -1.3840 H   0  0  0  0  0  0  0  0  0  0  0  0
   -0.2421   -4.1630   -0.7381 H   0  0  0  0  0  0  0  0  0  0  0  0
    1.6404   -0.2070   -0.3129 H   0  0  0  0  0  0  0  0  0  0  0  0
    1.6747    1.1492   -1.4179 H   0  0  0  0  0  0  0  0  0  0  0  0
   -0.5085    1.7109   -0.9035 H   0  0  0  0  0  0  0  0  0  0  0  0
    1.4378   -1.2708    2.8950 H   0  0  0  0  0  0  0  0  0  0  0  0
    0.3803   -3.5193    3.0760 H   0  0  0  0  0  0  0  0  0  0  0  0
   -2.0223   -3.8074    2.5681 H   0  0  0  0  0  0  0  0  0  0  0  0
   -4.1390   -1.2480    0.9593 H   0  0  0  0  0  0  0  0  0  0  0  0
   -4.3770   -1.6080    2.6933 H   0  0  0  0  0  0  0  0  0  0  0  0
   -4.0858   -2.9157    1.5297 H   0  0  0  0  0  0  0  0  0  0  0  0
   -2.3373    0.3893    1.6137 H   0  0  0  0  0  0  0  0  0  0  0  0
    1.5367    2.9316    5.3076 H   0  0  0  0  0  0  0  0  0  0  0  0
    2.4750    5.2289    5.2944 H   0  0  0  0  0  0  0  0  0  0  0  0
    2.6630    6.4840    3.1480 H   0  0  0  0  0  0  0  0  0  0  0  0
    1.9003    5.4365    1.0260 H   0  0  0  0  0  0  0  0  0  0  0  0
    0.1239    1.1970   -3.4290 H   0  0  0  0  0  0  0  0  0  0  0  0
  1  2  1  0
  2  3  1  0
  3  4  2  0
  4  5  1  0
  5  6  2  0
  6  7  1  0
  7  8  1  0
  6  9  1  0
  9 10  1  0
 10 11  1  0
 11 12  1  0
 12 13  1  0
 13 14  1  0
 14 15  2  0
 15 16  1  0
 16 17  2  0
 17 18  1  0
 18 19  1  0
 18 20  2  0
 13 21  2  0
 21 22  1  0
 22 23  2  0
 23 24  1  0
 24 25  2  0
 25 26  1  0
 26 27  2  0
 27 28  1  0
 28 29  2  0
  9 30  2  0
 30  3  1  0
 28 12  1  0
 20 14  1  0
 27 22  1  0
  1 31  1  0
  1 32  1  0
  1 33  1  0
  4 34  1  0
  5 35  1  0
  8 36  1  0
  8 37  1  0
  8 38  1  0
 10 39  1  0
 10 40  1  0
 11 41  1  0
 15 42  1  0
 16 43  1  0
 17 44  1  0
 19 45  1  0
 19 46  1  0
 19 47  1  0
 20 48  1  0
 23 49  1  0
 24 50  1  0
 25 51  1  0
 26 52  1  0
 30 53  1  0
M  END
$$$$
