
     RDKit          3D

 55 57  0  0  0  0  0  0  0  0999 V2000
   -8.2081    1.5288   -1.6252 C   0  0  0  0  0  0  0  0  0  0  0  0
   -7.4983    1.5269   -0.3951 O   0  0  0  0  0  0  0  0  0  0  0  0
   -6.1692    1.1849   -0.4261 C   0  0  0  0  0  0  0  0  0  0  0  0
   -5.4582    0.8818   -1.5914 C   0  0  0  0  0  0  0  0  0  0  0  0
   -4.1036    0.5452   -1.5260 C   0  0  0  0  0  0  0  0  0  0  0  0
   -3.4458    0.5014   -0.2948 C   0  0  0  0  0  0  0  0  0  0  0  0
   -2.0200    0.1671   -0.2080 C   0  0  0  0  0  0  0  0  0  0  0  0
   -1.4715   -1.0208   -0.4968 C   0  0  0  0  0  0  0  0  0  0  0  0
   -2.2555   -2.4511   -1.0259 S   0  0  0  0  0  0  0  0  0  0  0  0
   -0.7546   -3.3679   -1.0862 C   0  0  0  0  0  0  0  0  0  0  0  0
   -0.7188   -4.9669   -1.5593 S   0  0  0  0  0  0  0  0  0  0  0  0
    0.3016   -2.5655   -0.6962 N   0  0  0  0  0  0  0  0  0  0  0  0
    1.6970   -3.0123   -0.6192 C   0  0  0  0  0  0  0  0  0  0  0  0
    2.4469   -2.8831   -1.9515 C   0  0  0  0  0  0  0  0  0  0  0  0
    2.8134   -1.4539   -2.3519 C   0  0  0  0  0  0  0  0  0  0  0  0
    3.9407   -0.9014   -1.4959 C   0  0  0  0  0  0  0  0  0  0  0  0
    5.1019   -1.2168   -1.7340 O   0  0  0  0  0  0  0  0  0  0  0  0
    3.5001   -0.0961   -0.4654 N   0  0  0  0  0  0  0  0  0  0  0  0
    4.2802    0.5710    0.5027 C   0  0  0  0  0  0  0  0  0  0  0  0
    3.5852    1.2768    1.4951 C   0  0  0  0  0  0  0  0  0  0  0  0
    4.2700    1.9680    2.4961 C   0  0  0  0  0  0  0  0  0  0  0  0
    5.6622    1.9615    2.5129 C   0  0  0  0  0  0  0  0  0  0  0  0
    6.3705    1.2647    1.5267 C   0  0  0  0  0  0  0  0  0  0  0  0
    7.8524    1.2920    1.5878 C   0  0  0  0  0  0  0  0  0  0  0  0
    8.5171    1.8605    2.4350 O   0  0  0  0  0  0  0  0  0  0  0  0
    8.4341    0.6096    0.5877 O   0  0  0  0  0  0  0  0  0  0  0  0
    5.6771    0.5707    0.5225 C   0  0  0  0  0  0  0  0  0  0  0  0
   -0.0109   -1.2586   -0.3670 C   0  0  0  0  0  0  0  0  0  0  0  0
    0.7900   -0.3915   -0.0362 O   0  0  0  0  0  0  0  0  0  0  0  0
   -4.1503    0.8142    0.8744 C   0  0  0  0  0  0  0  0  0  0  0  0
   -5.5085    1.1525    0.8189 C   0  0  0  0  0  0  0  0  0  0  0  0
   -6.2745    1.4684    1.9143 O   0  0  0  0  0  0  0  0  0  0  0  0
   -5.6573    1.4177    3.1920 C   0  0  0  0  0  0  0  0  0  0  0  0
   -7.8041    2.2793   -2.3125 H   0  0  0  0  0  0  0  0  0  0  0  0
   -8.2117    0.5336   -2.0819 H   0  0  0  0  0  0  0  0  0  0  0  0
   -9.2467    1.7997   -1.4117 H   0  0  0  0  0  0  0  0  0  0  0  0
   -5.9282    0.9006   -2.5689 H   0  0  0  0  0  0  0  0  0  0  0  0
   -3.5718    0.3206   -2.4479 H   0  0  0  0  0  0  0  0  0  0  0  0
   -1.3901    0.9826    0.1449 H   0  0  0  0  0  0  0  0  0  0  0  0
    1.7102   -4.0625   -0.3085 H   0  0  0  0  0  0  0  0  0  0  0  0
    2.2116   -2.4558    0.1710 H   0  0  0  0  0  0  0  0  0  0  0  0
    1.8485   -3.3250   -2.7565 H   0  0  0  0  0  0  0  0  0  0  0  0
    3.3673   -3.4765   -1.8813 H   0  0  0  0  0  0  0  0  0  0  0  0
    1.9458   -0.7885   -2.3418 H   0  0  0  0  0  0  0  0  0  0  0  0
    3.1765   -1.4519   -3.3875 H   0  0  0  0  0  0  0  0  0  0  0  0
    2.4889   -0.0018   -0.3515 H   0  0  0  0  0  0  0  0  0  0  0  0
    2.4973    1.2947    1.5018 H   0  0  0  0  0  0  0  0  0  0  0  0
    3.7186    2.5100    3.2602 H   0  0  0  0  0  0  0  0  0  0  0  0
    6.1945    2.5012    3.2940 H   0  0  0  0  0  0  0  0  0  0  0  0
    9.3944    0.7110    0.7502 H   0  0  0  0  0  0  0  0  0  0  0  0
    6.2466    0.0416   -0.2348 H   0  0  0  0  0  0  0  0  0  0  0  0
   -3.6213    0.7841    1.8212 H   0  0  0  0  0  0  0  0  0  0  0  0
   -6.4124    1.6809    3.9391 H   0  0  0  0  0  0  0  0  0  0  0  0
   -5.3025    0.4072    3.4204 H   0  0  0  0  0  0  0  0  0  0  0  0
   -4.8464    2.1495    3.2678 H   0  0  0  0  0  0  0  0  0  0  0  0
  1  2  1  0
  2  3  1  0
  3  4  2  0
  4  5  1  0
  5  6  2  0
  6  7  1  0
  7  8  2  3
  8  9  1  0
  9 10  1  0
 10 11  2  0
 10 12  1  0
 12 13  1  0
 13 14  1  0
 14 15  1  0
 15 16  1  0
 16 17  2  0
 16 18  1  0
 18 19  1  0
 19 20  2  0
 20 21  1  0
 21 22  2  0
 22 23  1  0
 23 24  1  0
 24 25  2  0
 24 26  1  0
 23 27  2  0
 12 28  1  0
 28 29  2  0
  6 30  1  0
 30 31  2  0
 31 32  1  0
 32 33  1  0
 31  3  1  0
 28  8  1  0
 27 19  1  0
  1 34  1  0
  1 35  1  0
  1 36  1  0
  4 37  1  0
  5 38  1  0
  7 39  1  0
 13 40  1  0
 13 41  1  0
 14 42  1  0
 14 43  1  0
 15 44  1  0
 15 45  1  0
 18 46  1  0
 20 47  1  0
 21 48  1  0
 22 49  1  0
 26 50  1  0
 27 51  1  0
 30 52  1  0
 33 53  1  0
 33 54  1  0
 33 55  1  0
M  END
$$$$
