
     RDKit          3D

 51 55  0  0  0  0  0  0  0  0999 V2000
   -1.7738    0.5107    0.9452 C   0  0  0  0  0  0  0  0  0  0  0  0
   -0.4806    0.6791    1.4592 C   0  0  0  0  0  0  0  0  0  0  0  0
    0.6004    0.1703    0.7251 C   0  0  0  0  0  0  0  0  0  0  0  0
    0.4102   -0.4903   -0.4898 C   0  0  0  0  0  0  0  0  0  0  0  0
   -0.9030   -0.6426   -0.9836 C   0  0  0  0  0  0  0  0  0  0  0  0
   -2.0099   -0.1420   -0.2677 C   0  0  0  0  0  0  0  0  0  0  0  0
   -3.4050   -0.3384   -0.8507 C   0  0  0  0  0  0  0  0  0  0  0  0
   -4.1004    0.9780   -1.2440 C   0  0  0  0  0  0  0  0  0  0  0  0
   -4.8939    1.6467   -0.1242 C   0  0  0  0  0  0  0  0  0  0  0  0
   -5.8330    0.6698    0.5714 C   0  0  0  0  0  0  0  0  0  0  0  0
   -5.0928   -0.5538    1.0959 C   0  0  0  0  0  0  0  0  0  0  0  0
   -4.3032   -1.2590   -0.0040 C   0  0  0  0  0  0  0  0  0  0  0  0
    1.6929   -0.8756   -0.9621 C   0  0  0  0  0  0  0  0  0  0  0  0
    2.6232   -0.4740   -0.0217 C   0  0  0  0  0  0  0  0  0  0  0  0
    1.9648    0.2000    0.9720 N   0  0  0  0  0  0  0  0  0  0  0  0
    2.5638    0.9178    2.0831 C   0  0  0  0  0  0  0  0  0  0  0  0
    4.0737    1.1717    2.0508 C   0  0  0  0  0  0  0  0  0  0  0  0
    4.5945    1.6130    0.6812 C   0  0  0  0  0  0  0  0  0  0  0  0
    4.7939    0.5663   -0.3225 N   0  0  0  0  0  0  0  0  0  0  0  0
    4.0961   -0.6948   -0.0902 C   0  0  0  0  0  0  0  0  0  0  0  0
    4.4141   -1.6937   -1.2369 C   0  0  0  0  0  0  0  0  0  0  0  0
    3.5674   -1.4667   -2.5026 C   0  0  0  0  0  0  0  0  0  0  0  0
    2.0643   -1.6074   -2.2073 C   0  0  0  0  0  0  0  0  0  0  0  0
   -2.5954    0.9105    1.5299 H   0  0  0  0  0  0  0  0  0  0  0  0
   -0.3335    1.1908    2.4046 H   0  0  0  0  0  0  0  0  0  0  0  0
   -1.0464   -1.1574   -1.9297 H   0  0  0  0  0  0  0  0  0  0  0  0
   -3.2545   -0.8771   -1.7983 H   0  0  0  0  0  0  0  0  0  0  0  0
   -4.8078    0.7526   -2.0542 H   0  0  0  0  0  0  0  0  0  0  0  0
   -3.3784    1.6908   -1.6609 H   0  0  0  0  0  0  0  0  0  0  0  0
   -4.2158    2.0964    0.6076 H   0  0  0  0  0  0  0  0  0  0  0  0
   -5.4792    2.4740   -0.5432 H   0  0  0  0  0  0  0  0  0  0  0  0
   -6.3418    1.1752    1.4000 H   0  0  0  0  0  0  0  0  0  0  0  0
   -6.6123    0.3504   -0.1317 H   0  0  0  0  0  0  0  0  0  0  0  0
   -5.8164   -1.2567    1.5258 H   0  0  0  0  0  0  0  0  0  0  0  0
   -4.4287   -0.2640    1.9160 H   0  0  0  0  0  0  0  0  0  0  0  0
   -3.7203   -2.0810    0.4294 H   0  0  0  0  0  0  0  0  0  0  0  0
   -5.0328   -1.7268   -0.6796 H   0  0  0  0  0  0  0  0  0  0  0  0
    2.3013    0.3681    2.9944 H   0  0  0  0  0  0  0  0  0  0  0  0
    2.0599    1.8918    2.1245 H   0  0  0  0  0  0  0  0  0  0  0  0
    4.6210    0.2931    2.4119 H   0  0  0  0  0  0  0  0  0  0  0  0
    4.2933    1.9624    2.7801 H   0  0  0  0  0  0  0  0  0  0  0  0
    3.9247    2.3802    0.2723 H   0  0  0  0  0  0  0  0  0  0  0  0
    5.5641    2.1047    0.8216 H   0  0  0  0  0  0  0  0  0  0  0  0
    4.5399    0.9288   -1.2405 H   0  0  0  0  0  0  0  0  0  0  0  0
    4.4608   -1.1637    0.8306 H   0  0  0  0  0  0  0  0  0  0  0  0
    4.2236   -2.7141   -0.8761 H   0  0  0  0  0  0  0  0  0  0  0  0
    5.4810   -1.6561   -1.4906 H   0  0  0  0  0  0  0  0  0  0  0  0
    3.7726   -0.4682   -2.9077 H   0  0  0  0  0  0  0  0  0  0  0  0
    3.8542   -2.1882   -3.2761 H   0  0  0  0  0  0  0  0  0  0  0  0
    1.4878   -1.2336   -3.0608 H   0  0  0  0  0  0  0  0  0  0  0  0
    1.8153   -2.6680   -2.0805 H   0  0  0  0  0  0  0  0  0  0  0  0
  1  2  2  0
  2  3  1  0
  3  4  2  0
  4  5  1  0
  5  6  2  0
  6  7  1  0
  7  8  1  0
  8  9  1  0
  9 10  1  0
 10 11  1  0
 11 12  1  0
  4 13  1  0
 13 14  2  0
 14 15  1  0
 15 16  1  0
 16 17  1  0
 17 18  1  0
 18 19  1  0
 19 20  1  0
 20 21  1  0
 21 22  1  0
 22 23  1  0
  6  1  1  0
 12  7  1  0
 23 13  1  0
 15  3  1  0
 20 14  1  0
  1 24  1  0
  2 25  1  0
  5 26  1  0
  7 27  1  0
  8 28  1  0
  8 29  1  0
  9 30  1  0
  9 31  1  0
 10 32  1  0
 10 33  1  0
 11 34  1  0
 11 35  1  0
 12 36  1  0
 12 37  1  0
 16 38  1  0
 16 39  1  0
 17 40  1  0
 17 41  1  0
 18 42  1  0
 18 43  1  0
 19 44  1  0
 20 45  1  0
 21 46  1  0
 21 47  1  0
 22 48  1  0
 22 49  1  0
 23 50  1  0
 23 51  1  0
M  END
$$$$
