
     RDKit          3D

 46 47  0  0  0  0  0  0  0  0999 V2000
    2.3729   -3.5391    1.1993 C   0  0  0  0  0  0  0  0  0  0  0  0
    1.2627   -2.8533    1.9724 C   0  0  0  0  0  0  0  0  0  0  0  0
    1.1270   -1.4877    1.5553 O   0  0  0  0  0  0  0  0  0  0  0  0
    1.9366   -0.5926    2.1907 C   0  0  0  0  0  0  0  0  0  0  0  0
    2.7151   -0.8773    3.0928 O   0  0  0  0  0  0  0  0  0  0  0  0
    1.6767    0.7784    1.7674 C   0  0  0  0  0  0  0  0  0  0  0  0
    1.4935    1.8409    2.6488 C   0  0  0  0  0  0  0  0  0  0  0  0
    1.5401    1.8775    4.1359 C   0  0  0  0  0  0  0  0  0  0  0  0
    1.2258    2.9678    1.9139 N   0  0  0  0  0  0  0  0  0  0  0  0
    1.2401    2.6711    0.5751 C   0  0  0  0  0  0  0  0  0  0  0  0
    0.9832    3.7150   -0.4519 C   0  0  0  0  0  0  0  0  0  0  0  0
    1.5680    1.3267    0.4507 C   0  0  0  0  0  0  0  0  0  0  0  0
    1.8232    0.4916   -1.0486 S   0  0  0  0  0  6  0  0  0  0  0  0
    2.4796    1.4555   -1.9041 O   0  0  0  0  0  0  0  0  0  0  0  0
    2.4584   -0.7626   -0.7218 O   0  0  0  0  0  0  0  0  0  0  0  0
    0.3290    0.1787   -1.7448 N   0  0  0  0  0  0  0  0  0  0  0  0
   -0.5088   -0.8172   -1.0719 C   0  0  0  0  0  0  0  0  0  0  0  0
   -1.8310   -0.9792   -1.7919 C   0  0  0  0  0  0  0  0  0  0  0  0
   -2.0129   -2.0915   -2.6338 C   0  0  0  0  0  0  0  0  0  0  0  0
   -3.2062   -2.2732   -3.3317 C   0  0  0  0  0  0  0  0  0  0  0  0
   -4.2320   -1.3431   -3.2047 C   0  0  0  0  0  0  0  0  0  0  0  0
   -4.0648   -0.2290   -2.3826 C   0  0  0  0  0  0  0  0  0  0  0  0
   -2.8702   -0.0308   -1.6715 C   0  0  0  0  0  0  0  0  0  0  0  0
   -2.7277    1.1942   -0.8089 C   0  0  0  0  0  0  0  0  0  0  0  0
    3.3355   -3.0479    1.3723 H   0  0  0  0  0  0  0  0  0  0  0  0
    2.1776   -3.4915    0.1232 H   0  0  0  0  0  0  0  0  0  0  0  0
    2.4577   -4.5892    1.4932 H   0  0  0  0  0  0  0  0  0  0  0  0
    0.3091   -3.3473    1.7585 H   0  0  0  0  0  0  0  0  0  0  0  0
    1.4231   -2.9264    3.0542 H   0  0  0  0  0  0  0  0  0  0  0  0
    2.5685    1.7436    4.4859 H   0  0  0  0  0  0  0  0  0  0  0  0
    0.9222    1.0793    4.5593 H   0  0  0  0  0  0  0  0  0  0  0  0
    1.1695    2.8307    4.5266 H   0  0  0  0  0  0  0  0  0  0  0  0
    1.0514    3.8867    2.3031 H   0  0  0  0  0  0  0  0  0  0  0  0
    1.9269    4.0748   -0.8733 H   0  0  0  0  0  0  0  0  0  0  0  0
    0.3660    3.3190   -1.2642 H   0  0  0  0  0  0  0  0  0  0  0  0
    0.4536    4.5723   -0.0232 H   0  0  0  0  0  0  0  0  0  0  0  0
    0.4397    0.0060   -2.7432 H   0  0  0  0  0  0  0  0  0  0  0  0
    0.0089   -1.7831   -1.0512 H   0  0  0  0  0  0  0  0  0  0  0  0
   -0.7032   -0.5261   -0.0358 H   0  0  0  0  0  0  0  0  0  0  0  0
   -1.2205   -2.8283   -2.7517 H   0  0  0  0  0  0  0  0  0  0  0  0
   -3.3339   -3.1390   -3.9762 H   0  0  0  0  0  0  0  0  0  0  0  0
   -5.1625   -1.4812   -3.7491 H   0  0  0  0  0  0  0  0  0  0  0  0
   -4.8774    0.4904   -2.3033 H   0  0  0  0  0  0  0  0  0  0  0  0
   -3.6419    1.7976   -0.8156 H   0  0  0  0  0  0  0  0  0  0  0  0
   -1.9148    1.8280   -1.1753 H   0  0  0  0  0  0  0  0  0  0  0  0
   -2.5339    0.9110    0.2303 H   0  0  0  0  0  0  0  0  0  0  0  0
  1  2  1  0
  2  3  1  0
  3  4  1  0
  4  5  2  0
  4  6  1  0
  6  7  2  0
  7  8  1  0
  7  9  1  0
  9 10  1  0
 10 11  1  0
 10 12  2  0
 12 13  1  0
 13 14  2  0
 13 15  2  0
 13 16  1  0
 16 17  1  0
 17 18  1  0
 18 19  2  0
 19 20  1  0
 20 21  2  0
 21 22  1  0
 22 23  2  0
 23 24  1  0
 12  6  1  0
 23 18  1  0
  1 25  1  0
  1 26  1  0
  1 27  1  0
  2 28  1  0
  2 29  1  0
  8 30  1  0
  8 31  1  0
  8 32  1  0
  9 33  1  0
 11 34  1  0
 11 35  1  0
 11 36  1  0
 16 37  1  0
 17 38  1  0
 17 39  1  0
 19 40  1  0
 20 41  1  0
 21 42  1  0
 22 43  1  0
 24 44  1  0
 24 45  1  0
 24 46  1  0
M  END
$$$$
