
     RDKit          3D

 42 44  0  0  0  0  0  0  0  0999 V2000
   -4.9063    1.9172   -0.8898 C   0  0  0  0  0  0  0  0  0  0  0  0
   -4.1613    2.6519   -1.8515 O   0  0  0  0  0  0  0  0  0  0  0  0
   -2.8413    2.3234   -2.0108 C   0  0  0  0  0  0  0  0  0  0  0  0
   -2.2200    1.1974   -1.4545 C   0  0  0  0  0  0  0  0  0  0  0  0
   -0.8496    0.9551   -1.6604 C   0  0  0  0  0  0  0  0  0  0  0  0
   -0.1760   -0.2152   -1.0800 C   0  0  0  0  0  0  0  0  0  0  0  0
   -0.0857   -0.5125    0.2322 C   0  0  0  0  0  0  0  0  0  0  0  0
   -0.6880    0.2603    1.2614 C   0  0  0  0  0  0  0  0  0  0  0  0
   -1.1884    0.8943    2.0951 N   0  0  0  0  0  0  0  0  0  0  0  0
    0.6534   -1.7639    0.5709 C   0  0  0  0  0  0  0  0  0  0  0  0
    0.5380   -2.7643   -0.1352 O   0  0  0  0  0  0  0  0  0  0  0  0
    1.5185   -1.7271    1.7510 C   0  0  0  0  0  0  0  0  0  0  0  0
    2.0596   -0.6135    2.3755 C   0  0  0  0  0  0  0  0  0  0  0  0
    2.8092   -1.0294    3.4450 N   0  0  0  0  0  0  0  0  0  0  0  0
    2.8188   -2.4006    3.5138 C   0  0  0  0  0  0  0  0  0  0  0  0
    3.4650   -3.2514    4.4199 C   0  0  0  0  0  0  0  0  0  0  0  0
    3.3097   -4.6284    4.2424 C   0  0  0  0  0  0  0  0  0  0  0  0
    2.5333   -5.1315    3.2028 C   0  0  0  0  0  0  0  0  0  0  0  0
    1.8872   -4.2664    2.3117 C   0  0  0  0  0  0  0  0  0  0  0  0
    2.0301   -2.8701    2.4625 C   0  0  0  0  0  0  0  0  0  0  0  0
   -0.1063    1.8225   -2.4688 C   0  0  0  0  0  0  0  0  0  0  0  0
   -0.7302    2.9226   -3.0509 C   0  0  0  0  0  0  0  0  0  0  0  0
   -0.0176    3.8050   -3.8245 O   0  0  0  0  0  0  0  0  0  0  0  0
    0.2059    3.2501   -5.1240 C   0  0  0  0  0  0  0  0  0  0  0  0
   -2.0784    3.1867   -2.8028 C   0  0  0  0  0  0  0  0  0  0  0  0
   -2.6486    4.3080   -3.3484 O   0  0  0  0  0  0  0  0  0  0  0  0
   -4.4453    1.9794    0.1013 H   0  0  0  0  0  0  0  0  0  0  0  0
   -5.9024    2.3670   -0.8233 H   0  0  0  0  0  0  0  0  0  0  0  0
   -5.0331    0.8752   -1.2039 H   0  0  0  0  0  0  0  0  0  0  0  0
   -2.7939    0.4946   -0.8585 H   0  0  0  0  0  0  0  0  0  0  0  0
    0.3058   -0.8596   -1.8160 H   0  0  0  0  0  0  0  0  0  0  0  0
    1.9834    0.4458    2.1669 H   0  0  0  0  0  0  0  0  0  0  0  0
    3.3037   -0.4214    4.0845 H   0  0  0  0  0  0  0  0  0  0  0  0
    4.0730   -2.8627    5.2300 H   0  0  0  0  0  0  0  0  0  0  0  0
    3.8033   -5.3156    4.9266 H   0  0  0  0  0  0  0  0  0  0  0  0
    2.4264   -6.2062    3.0782 H   0  0  0  0  0  0  0  0  0  0  0  0
    1.2842   -4.6742    1.5036 H   0  0  0  0  0  0  0  0  0  0  0  0
    0.9539    1.6556   -2.6397 H   0  0  0  0  0  0  0  0  0  0  0  0
   -0.7440    3.0325   -5.6254 H   0  0  0  0  0  0  0  0  0  0  0  0
    0.7400    3.9979   -5.7201 H   0  0  0  0  0  0  0  0  0  0  0  0
    0.8277    2.3494   -5.0746 H   0  0  0  0  0  0  0  0  0  0  0  0
   -1.9137    4.8222   -3.7304 H   0  0  0  0  0  0  0  0  0  0  0  0
  1  2  1  0
  2  3  1  0
  3  4  2  0
  4  5  1  0
  5  6  1  0
  6  7  2  3
  7  8  1  0
  8  9  3  0
  7 10  1  0
 10 11  2  0
 10 12  1  0
 12 13  2  0
 13 14  1  0
 14 15  1  0
 15 16  2  0
 16 17  1  0
 17 18  2  0
 18 19  1  0
 19 20  2  0
  5 21  2  0
 21 22  1  0
 22 23  1  0
 23 24  1  0
 22 25  2  0
 25 26  1  0
 25  3  1  0
 20 12  1  0
 20 15  1  0
  1 27  1  0
  1 28  1  0
  1 29  1  0
  4 30  1  0
  6 31  1  0
 13 32  1  0
 14 33  1  0
 16 34  1  0
 17 35  1  0
 18 36  1  0
 19 37  1  0
 21 38  1  0
 24 39  1  0
 24 40  1  0
 24 41  1  0
 26 42  1  0
M  END
$$$$
