
     RDKit          3D

 56 59  0  0  0  0  0  0  0  0999 V2000
    2.5041    0.5960    3.7628 C   0  0  0  0  0  0  0  0  0  0  0  0
    2.3918   -0.4265    2.6350 C   0  0  0  0  0  0  0  0  0  0  0  0
    2.5442    0.2088    1.2435 C   0  0  0  0  0  0  0  0  0  0  0  0
    3.9151    0.8380    0.9940 C   0  0  0  0  0  0  0  0  0  0  0  0
    4.0336    1.3113   -0.4352 C   0  0  0  0  0  0  0  0  0  0  0  0
    3.6139    2.5986   -0.7961 C   0  0  0  0  0  0  0  0  0  0  0  0
    3.6949    3.0220   -2.1237 C   0  0  0  0  0  0  0  0  0  0  0  0
    4.1908    2.1623   -3.1023 C   0  0  0  0  0  0  0  0  0  0  0  0
    4.6035    0.8774   -2.7549 C   0  0  0  0  0  0  0  0  0  0  0  0
    4.5230    0.4519   -1.4280 C   0  0  0  0  0  0  0  0  0  0  0  0
    1.1016   -1.1031    2.7271 N   0  0  0  0  0  0  0  0  0  0  0  0
    0.8893   -2.3418    2.1534 C   0  0  0  0  0  0  0  0  0  0  0  0
    1.7853   -3.0223    1.6613 O   0  0  0  0  0  0  0  0  0  0  0  0
   -0.5706   -2.8023    2.1768 C   0  0  0  0  0  0  0  0  0  0  0  0
   -1.3473   -2.2894    1.0934 O   0  0  0  0  0  0  0  0  0  0  0  0
   -1.7223   -0.9954    1.2202 C   0  0  0  0  0  0  0  0  0  0  0  0
   -1.4534   -0.2431    2.1420 O   0  0  0  0  0  0  0  0  0  0  0  0
   -2.5321   -0.6263    0.0464 C   0  0  0  0  0  0  0  0  0  0  0  0
   -3.9467   -0.7153    0.1453 C   0  0  0  0  0  0  0  0  0  0  0  0
   -4.6437   -1.1495    1.3008 C   0  0  0  0  0  0  0  0  0  0  0  0
   -6.0377   -1.2204    1.3304 C   0  0  0  0  0  0  0  0  0  0  0  0
   -6.7713   -0.8589    0.2089 C   0  0  0  0  0  0  0  0  0  0  0  0
   -6.1109   -0.4245   -0.9393 C   0  0  0  0  0  0  0  0  0  0  0  0
   -4.7084   -0.3470   -0.9842 C   0  0  0  0  0  0  0  0  0  0  0  0
   -4.0601    0.0988   -2.1474 C   0  0  0  0  0  0  0  0  0  0  0  0
   -2.6620    0.1952   -2.2323 C   0  0  0  0  0  0  0  0  0  0  0  0
   -2.0505    0.6572   -3.4111 C   0  0  0  0  0  0  0  0  0  0  0  0
   -0.6637    0.7641   -3.5088 C   0  0  0  0  0  0  0  0  0  0  0  0
    0.1318    0.4057   -2.4302 C   0  0  0  0  0  0  0  0  0  0  0  0
   -0.4627   -0.0595   -1.2564 C   0  0  0  0  0  0  0  0  0  0  0  0
   -1.8683   -0.1720   -1.1256 C   0  0  0  0  0  0  0  0  0  0  0  0
    1.7666    1.3979    3.6458 H   0  0  0  0  0  0  0  0  0  0  0  0
    2.3219    0.1216    4.7336 H   0  0  0  0  0  0  0  0  0  0  0  0
    3.5002    1.0469    3.7986 H   0  0  0  0  0  0  0  0  0  0  0  0
    3.1734   -1.1846    2.7682 H   0  0  0  0  0  0  0  0  0  0  0  0
    1.7577    0.9613    1.0953 H   0  0  0  0  0  0  0  0  0  0  0  0
    2.3687   -0.5621    0.4816 H   0  0  0  0  0  0  0  0  0  0  0  0
    4.0839    1.6876    1.6660 H   0  0  0  0  0  0  0  0  0  0  0  0
    4.7115    0.1141    1.2067 H   0  0  0  0  0  0  0  0  0  0  0  0
    3.2183    3.2783   -0.0449 H   0  0  0  0  0  0  0  0  0  0  0  0
    3.3694    4.0232   -2.3943 H   0  0  0  0  0  0  0  0  0  0  0  0
    4.2551    2.4934   -4.1354 H   0  0  0  0  0  0  0  0  0  0  0  0
    4.9871    0.2043   -3.5172 H   0  0  0  0  0  0  0  0  0  0  0  0
    4.8399   -0.5573   -1.1728 H   0  0  0  0  0  0  0  0  0  0  0  0
    0.2723   -0.5163    2.8397 H   0  0  0  0  0  0  0  0  0  0  0  0
   -0.5787   -3.8951    2.1013 H   0  0  0  0  0  0  0  0  0  0  0  0
   -1.0317   -2.5546    3.1409 H   0  0  0  0  0  0  0  0  0  0  0  0
   -4.1042   -1.4368    2.2016 H   0  0  0  0  0  0  0  0  0  0  0  0
   -6.5463   -1.5565    2.2307 H   0  0  0  0  0  0  0  0  0  0  0  0
   -7.8569   -0.9117    0.2260 H   0  0  0  0  0  0  0  0  0  0  0  0
   -6.7058   -0.1432   -1.8063 H   0  0  0  0  0  0  0  0  0  0  0  0
   -4.6614    0.3831   -3.0109 H   0  0  0  0  0  0  0  0  0  0  0  0
   -2.6554    0.9427   -4.2696 H   0  0  0  0  0  0  0  0  0  0  0  0
   -0.2064    1.1259   -4.4259 H   0  0  0  0  0  0  0  0  0  0  0  0
    1.2149    0.4856   -2.4957 H   0  0  0  0  0  0  0  0  0  0  0  0
    0.1947   -0.3379   -0.4374 H   0  0  0  0  0  0  0  0  0  0  0  0
  1  2  1  0
  2  3  1  0
  3  4  1  0
  4  5  1  0
  5  6  2  0
  6  7  1  0
  7  8  2  0
  8  9  1  0
  9 10  2  0
  2 11  1  0
 11 12  1  0
 12 13  2  0
 12 14  1  0
 14 15  1  0
 15 16  1  0
 16 17  2  0
 16 18  1  0
 18 19  1  0
 19 20  2  0
 20 21  1  0
 21 22  2  0
 22 23  1  0
 23 24  2  0
 24 25  1  0
 25 26  2  0
 26 27  1  0
 27 28  2  0
 28 29  1  0
 29 30  2  0
 30 31  1  0
 10  5  1  0
 31 18  2  0
 24 19  1  0
 31 26  1  0
  1 32  1  0
  1 33  1  0
  1 34  1  0
  2 35  1  0
  3 36  1  0
  3 37  1  0
  4 38  1  0
  4 39  1  0
  6 40  1  0
  7 41  1  0
  8 42  1  0
  9 43  1  0
 10 44  1  0
 11 45  1  0
 14 46  1  0
 14 47  1  0
 20 48  1  0
 21 49  1  0
 22 50  1  0
 23 51  1  0
 25 52  1  0
 27 53  1  0
 28 54  1  0
 29 55  1  0
 30 56  1  0
M  END
$$$$
