
     RDKit          3D

 53 57  0  0  0  0  0  0  0  0999 V2000
    8.3300    0.8433    0.0460 C   0  0  0  0  0  0  0  0  0  0  0  0
    7.2801    1.4777    0.7650 O   0  0  0  0  0  0  0  0  0  0  0  0
    6.0059    1.0698    0.4874 C   0  0  0  0  0  0  0  0  0  0  0  0
    5.6355    0.0991   -0.4380 C   0  0  0  0  0  0  0  0  0  0  0  0
    4.2824   -0.2237   -0.6255 C   0  0  0  0  0  0  0  0  0  0  0  0
    3.2735    0.4180    0.1129 C   0  0  0  0  0  0  0  0  0  0  0  0
    1.8906    0.0802   -0.0938 N   0  0  0  0  0  0  0  0  0  0  0  0
    1.4141   -0.6901   -1.1431 C   0  0  0  0  0  0  0  0  0  0  0  0
    0.0448   -0.8125   -1.0474 C   0  0  0  0  0  0  0  0  0  0  0  0
   -0.7226   -1.5869   -2.0025 C   0  0  0  0  0  0  0  0  0  0  0  0
   -0.8030   -1.1808   -3.3394 C   0  0  0  0  0  0  0  0  0  0  0  0
   -1.5589   -1.9197   -4.2514 C   0  0  0  0  0  0  0  0  0  0  0  0
   -2.2348   -3.0651   -3.8321 C   0  0  0  0  0  0  0  0  0  0  0  0
   -2.1551   -3.4756   -2.5019 C   0  0  0  0  0  0  0  0  0  0  0  0
   -1.3993   -2.7398   -1.5878 C   0  0  0  0  0  0  0  0  0  0  0  0
   -0.3697   -0.0890    0.1056 C   0  0  0  0  0  0  0  0  0  0  0  0
   -1.6044    0.1853    0.7398 C   0  0  0  0  0  0  0  0  0  0  0  0
   -2.8306   -0.2765    0.2090 N   0  0  0  0  0  0  0  0  0  0  0  0
   -4.1027    0.1394    0.6439 N   0  0  0  0  0  0  0  0  0  0  0  0
   -4.3218    1.5934    0.5719 C   0  0  0  0  0  0  0  0  0  0  0  0
   -4.6528    2.2229    1.9340 C   0  0  0  0  0  0  0  0  0  0  0  0
   -5.7692    1.5997    2.5830 O   0  0  0  0  0  0  0  0  0  0  0  0
   -5.7931    0.1734    2.4233 C   0  0  0  0  0  0  0  0  0  0  0  0
   -4.4657   -0.4340    1.9461 C   0  0  0  0  0  0  0  0  0  0  0  0
   -1.5759    0.9136    1.8846 N   0  0  0  0  0  0  0  0  0  0  0  0
   -0.3993    1.3444    2.3556 C   0  0  0  0  0  0  0  0  0  0  0  0
    0.8106    1.1620    1.8222 N   0  0  0  0  0  0  0  0  0  0  0  0
    0.7846    0.4415    0.6833 C   0  0  0  0  0  0  0  0  0  0  0  0
    3.6590    1.3924    1.0404 C   0  0  0  0  0  0  0  0  0  0  0  0
    5.0110    1.7117    1.2219 C   0  0  0  0  0  0  0  0  0  0  0  0
    9.2762    1.2765    0.3842 H   0  0  0  0  0  0  0  0  0  0  0  0
    8.2425    1.0326   -1.0290 H   0  0  0  0  0  0  0  0  0  0  0  0
    8.3609   -0.2306    0.2577 H   0  0  0  0  0  0  0  0  0  0  0  0
    6.3717   -0.4335   -1.0312 H   0  0  0  0  0  0  0  0  0  0  0  0
    4.0651   -1.0056   -1.3464 H   0  0  0  0  0  0  0  0  0  0  0  0
    2.0752   -1.0908   -1.8975 H   0  0  0  0  0  0  0  0  0  0  0  0
   -0.2860   -0.2857   -3.6777 H   0  0  0  0  0  0  0  0  0  0  0  0
   -1.6223   -1.6009   -5.2888 H   0  0  0  0  0  0  0  0  0  0  0  0
   -2.8242   -3.6392   -4.5429 H   0  0  0  0  0  0  0  0  0  0  0  0
   -2.6818   -4.3690   -2.1757 H   0  0  0  0  0  0  0  0  0  0  0  0
   -1.3451   -3.0714   -0.5527 H   0  0  0  0  0  0  0  0  0  0  0  0
   -2.7643   -0.5436   -0.7714 H   0  0  0  0  0  0  0  0  0  0  0  0
   -3.4853    2.1285    0.1069 H   0  0  0  0  0  0  0  0  0  0  0  0
   -5.1854    1.7430   -0.0880 H   0  0  0  0  0  0  0  0  0  0  0  0
   -3.7966    2.1846    2.6155 H   0  0  0  0  0  0  0  0  0  0  0  0
   -4.9053    3.2800    1.8004 H   0  0  0  0  0  0  0  0  0  0  0  0
   -6.0765   -0.2586    3.3888 H   0  0  0  0  0  0  0  0  0  0  0  0
   -6.5973   -0.0644    1.7170 H   0  0  0  0  0  0  0  0  0  0  0  0
   -3.6997   -0.2448    2.7064 H   0  0  0  0  0  0  0  0  0  0  0  0
   -4.5778   -1.5202    1.8525 H   0  0  0  0  0  0  0  0  0  0  0  0
   -0.4357    1.9131    3.2797 H   0  0  0  0  0  0  0  0  0  0  0  0
    2.9427    1.9506    1.6332 H   0  0  0  0  0  0  0  0  0  0  0  0
    5.2860    2.4754    1.9461 H   0  0  0  0  0  0  0  0  0  0  0  0
  1  2  1  0
  2  3  1  0
  3  4  2  0
  4  5  1  0
  5  6  2  0
  6  7  1  0
  7  8  1  0
  8  9  2  0
  9 10  1  0
 10 11  2  0
 11 12  1  0
 12 13  2  0
 13 14  1  0
 14 15  2  0
  9 16  1  0
 16 17  2  0
 17 18  1  0
 18 19  1  0
 19 20  1  0
 20 21  1  0
 21 22  1  0
 22 23  1  0
 23 24  1  0
 17 25  1  0
 25 26  2  0
 26 27  1  0
 27 28  2  0
  6 29  1  0
 29 30  2  0
 30  3  1  0
 28  7  1  0
 15 10  1  0
 28 16  1  0
 24 19  1  0
  1 31  1  0
  1 32  1  0
  1 33  1  0
  4 34  1  0
  5 35  1  0
  8 36  1  0
 11 37  1  0
 12 38  1  0
 13 39  1  0
 14 40  1  0
 15 41  1  0
 18 42  1  0
 20 43  1  0
 20 44  1  0
 21 45  1  0
 21 46  1  0
 23 47  1  0
 23 48  1  0
 24 49  1  0
 24 50  1  0
 26 51  1  0
 29 52  1  0
 30 53  1  0
M  END
$$$$
