
     RDKit          3D

 39 41  0  0  0  0  0  0  0  0999 V2000
    2.3551    2.5481   -1.7542 O   0  0  0  0  0  0  0  0  0  0  0  0
    3.0816    1.8939   -1.0134 C   0  0  0  0  0  0  0  0  0  0  0  0
    4.4014    1.8742   -1.2668 O   0  0  0  0  0  0  0  0  0  0  0  0
    2.5927    1.0973    0.2070 C   0  0  0  0  0  0  0  0  0  0  0  0
    3.5357    0.1263    0.9266 C   0  0  0  0  0  0  0  0  0  0  0  0
    3.0917   -1.1135    1.4266 C   0  0  0  0  0  0  0  0  0  0  0  0
    3.9477   -1.9633    2.1347 C   0  0  0  0  0  0  0  0  0  0  0  0
    5.2595   -1.5811    2.3891 C   0  0  0  0  0  0  0  0  0  0  0  0
    5.7100   -0.3417    1.9508 C   0  0  0  0  0  0  0  0  0  0  0  0
    4.8535    0.5066    1.2424 C   0  0  0  0  0  0  0  0  0  0  0  0
    1.2802    0.5324   -0.1790 N   0  0  0  0  0  0  0  0  0  0  0  0
    0.1465    1.0646    0.4077 C   0  0  0  0  0  0  0  0  0  0  0  0
    0.1172    1.9408    1.2610 O   0  0  0  0  0  0  0  0  0  0  0  0
   -1.0758    0.4196   -0.1389 C   0  0  0  0  0  0  0  0  0  0  0  0
   -2.2994    0.7504    0.2962 C   0  0  0  0  0  0  0  0  0  0  0  0
   -3.5694    0.1723   -0.1586 C   0  0  0  0  0  0  0  0  0  0  0  0
   -4.3813   -0.4984    0.7697 C   0  0  0  0  0  0  0  0  0  0  0  0
   -5.6054   -1.0443    0.3764 C   0  0  0  0  0  0  0  0  0  0  0  0
   -6.0133   -0.9097   -0.9415 C   0  0  0  0  0  0  0  0  0  0  0  0
   -7.2094   -1.4431   -1.3266 O   0  0  0  0  0  0  0  0  0  0  0  0
   -5.2207   -0.2376   -1.8681 C   0  0  0  0  0  0  0  0  0  0  0  0
   -5.6881   -0.1401   -3.1502 O   0  0  0  0  0  0  0  0  0  0  0  0
   -4.0010    0.3117   -1.4860 C   0  0  0  0  0  0  0  0  0  0  0  0
   -0.6482   -0.7522   -1.3147 S   0  0  0  0  0  0  0  0  0  0  0  0
    1.0739   -0.4142   -1.1655 C   0  0  0  0  0  0  0  0  0  0  0  0
    2.1919   -1.1831   -2.1387 S   0  0  0  0  0  0  0  0  0  0  0  0
    4.5011    2.3906   -2.0949 H   0  0  0  0  0  0  0  0  0  0  0  0
    2.4185    1.8778    0.9611 H   0  0  0  0  0  0  0  0  0  0  0  0
    2.0674   -1.4493    1.2869 H   0  0  0  0  0  0  0  0  0  0  0  0
    3.5837   -2.9227    2.4946 H   0  0  0  0  0  0  0  0  0  0  0  0
    5.9243   -2.2409    2.9401 H   0  0  0  0  0  0  0  0  0  0  0  0
    6.7284   -0.0271    2.1656 H   0  0  0  0  0  0  0  0  0  0  0  0
    5.2406    1.4806    0.9498 H   0  0  0  0  0  0  0  0  0  0  0  0
   -2.4044    1.5014    1.0789 H   0  0  0  0  0  0  0  0  0  0  0  0
   -4.0657   -0.6057    1.8053 H   0  0  0  0  0  0  0  0  0  0  0  0
   -6.2334   -1.5678    1.0908 H   0  0  0  0  0  0  0  0  0  0  0  0
   -7.2792   -1.2260   -2.2777 H   0  0  0  0  0  0  0  0  0  0  0  0
   -5.0203    0.3261   -3.6824 H   0  0  0  0  0  0  0  0  0  0  0  0
   -3.3880    0.8472   -2.2042 H   0  0  0  0  0  0  0  0  0  0  0  0
  1  2  2  0
  2  3  1  0
  2  4  1  0
  4  5  1  0
  5  6  2  0
  6  7  1  0
  7  8  2  0
  8  9  1  0
  9 10  2  0
  4 11  1  0
 11 12  1  0
 12 13  2  0
 12 14  1  0
 14 15  2  3
 15 16  1  0
 16 17  2  0
 17 18  1  0
 18 19  2  0
 19 20  1  0
 19 21  1  0
 21 22  1  0
 21 23  2  0
 14 24  1  0
 24 25  1  0
 25 26  2  0
 10  5  1  0
 25 11  1  0
 23 16  1  0
  3 27  1  0
  4 28  1  0
  6 29  1  0
  7 30  1  0
  8 31  1  0
  9 32  1  0
 10 33  1  0
 15 34  1  0
 17 35  1  0
 18 36  1  0
 20 37  1  0
 22 38  1  0
 23 39  1  0
M  END
$$$$
