
     RDKit          3D

 40 42  0  0  0  0  0  0  0  0999 V2000
    2.2043    3.8345    1.5069 C   0  0  0  0  0  0  0  0  0  0  0  0
    2.2202    2.8272    2.6438 C   0  0  0  0  0  0  0  0  0  0  0  0
    0.5430    2.2288    3.0416 S   0  0  0  0  0  0  0  0  0  0  0  0
    0.2433    1.0706    1.7117 C   0  0  0  0  0  0  0  0  0  0  0  0
   -1.0275    0.5572    1.5653 C   0  0  0  0  0  0  0  0  0  0  0  0
   -1.2426   -0.3341    0.5336 C   0  0  0  0  0  0  0  0  0  0  0  0
   -2.4898   -0.9101    0.3266 N   0  0  0  0  0  0  0  0  0  0  0  0
   -2.5754   -1.9494   -0.7128 C   0  0  0  0  0  0  0  0  0  0  0  0
   -3.9902   -2.5484   -0.7182 C   0  0  0  0  0  0  0  0  0  0  0  0
   -5.0280   -1.5928   -0.9889 O   0  0  0  0  0  0  0  0  0  0  0  0
   -4.6479   -0.2420   -0.6957 C   0  0  0  0  0  0  0  0  0  0  0  0
   -3.7128   -0.1105    0.5187 C   0  0  0  0  0  0  0  0  0  0  0  0
   -0.2259   -0.6984   -0.2657 N   0  0  0  0  0  0  0  0  0  0  0  0
    0.9877   -0.1576   -0.0521 C   0  0  0  0  0  0  0  0  0  0  0  0
    2.0910   -0.5672   -0.9467 C   0  0  0  0  0  0  0  0  0  0  0  0
    3.4085   -0.1073   -0.7492 C   0  0  0  0  0  0  0  0  0  0  0  0
    4.4555   -0.4966   -1.5928 C   0  0  0  0  0  0  0  0  0  0  0  0
    4.2030   -1.3557   -2.6566 C   0  0  0  0  0  0  0  0  0  0  0  0
    5.4864   -1.8353   -3.6955 Cl  0  0  0  0  0  0  0  0  0  0  0  0
    2.9150   -1.8276   -2.8830 C   0  0  0  0  0  0  0  0  0  0  0  0
    1.8722   -1.4361   -2.0349 C   0  0  0  0  0  0  0  0  0  0  0  0
    1.2637    0.7280    0.9154 N   0  0  0  0  0  0  0  0  0  0  0  0
    1.5757    4.6984    1.7475 H   0  0  0  0  0  0  0  0  0  0  0  0
    1.8452    3.3956    0.5714 H   0  0  0  0  0  0  0  0  0  0  0  0
    3.2185    4.2055    1.3261 H   0  0  0  0  0  0  0  0  0  0  0  0
    2.6080    3.3167    3.5433 H   0  0  0  0  0  0  0  0  0  0  0  0
    2.8923    1.9916    2.4257 H   0  0  0  0  0  0  0  0  0  0  0  0
   -1.8168    0.8297    2.2527 H   0  0  0  0  0  0  0  0  0  0  0  0
   -2.3589   -1.5149   -1.6968 H   0  0  0  0  0  0  0  0  0  0  0  0
   -1.8551   -2.7519   -0.5148 H   0  0  0  0  0  0  0  0  0  0  0  0
   -4.0642   -3.3366   -1.4742 H   0  0  0  0  0  0  0  0  0  0  0  0
   -4.2117   -3.0041    0.2538 H   0  0  0  0  0  0  0  0  0  0  0  0
   -4.1722    0.1753   -1.5914 H   0  0  0  0  0  0  0  0  0  0  0  0
   -5.5674    0.3263   -0.5220 H   0  0  0  0  0  0  0  0  0  0  0  0
   -3.4992    0.9538    0.6667 H   0  0  0  0  0  0  0  0  0  0  0  0
   -4.2219   -0.4846    1.4141 H   0  0  0  0  0  0  0  0  0  0  0  0
    3.6315    0.5648    0.0784 H   0  0  0  0  0  0  0  0  0  0  0  0
    5.4601   -0.1250   -1.4097 H   0  0  0  0  0  0  0  0  0  0  0  0
    2.7107   -2.4988   -3.7125 H   0  0  0  0  0  0  0  0  0  0  0  0
    0.8717   -1.8192   -2.2313 H   0  0  0  0  0  0  0  0  0  0  0  0
  1  2  1  0
  2  3  1  0
  3  4  1  0
  4  5  2  0
  5  6  1  0
  6  7  1  0
  7  8  1  0
  8  9  1  0
  9 10  1  0
 10 11  1  0
 11 12  1  0
  6 13  2  0
 13 14  1  0
 14 15  1  0
 15 16  2  0
 16 17  1  0
 17 18  2  0
 18 19  1  0
 18 20  1  0
 20 21  2  0
 14 22  2  0
 22  4  1  0
 12  7  1  0
 21 15  1  0
  1 23  1  0
  1 24  1  0
  1 25  1  0
  2 26  1  0
  2 27  1  0
  5 28  1  0
  8 29  1  0
  8 30  1  0
  9 31  1  0
  9 32  1  0
 11 33  1  0
 11 34  1  0
 12 35  1  0
 12 36  1  0
 16 37  1  0
 17 38  1  0
 20 39  1  0
 21 40  1  0
M  END
$$$$
