
     RDKit          3D

 49 51  0  0  0  0  0  0  0  0999 V2000
   -9.7182    2.8688    2.5092 C   0  0  0  0  0  0  0  0  0  0  0  0
   -8.8773    1.8431    3.0224 O   0  0  0  0  0  0  0  0  0  0  0  0
   -7.6480    1.7031    2.4422 C   0  0  0  0  0  0  0  0  0  0  0  0
   -7.1297    2.4861    1.4141 C   0  0  0  0  0  0  0  0  0  0  0  0
   -5.8463    2.2293    0.9134 C   0  0  0  0  0  0  0  0  0  0  0  0
   -5.0632    1.1883    1.4301 C   0  0  0  0  0  0  0  0  0  0  0  0
   -3.7823    1.0061    0.8597 N   0  0  0  0  0  0  0  0  0  0  0  0
   -2.8393    0.0489    1.1992 C   0  0  0  0  0  0  0  0  0  0  0  0
   -2.9796   -0.8073    2.0687 O   0  0  0  0  0  0  0  0  0  0  0  0
   -1.5564    0.1050    0.4074 C   0  0  0  0  0  0  0  0  0  0  0  0
   -1.3662    1.1226   -0.5656 C   0  0  0  0  0  0  0  0  0  0  0  0
   -1.2951    1.9761   -1.3489 N   0  0  0  0  0  0  0  0  0  0  0  0
   -0.6189   -0.8250    0.6815 C   0  0  0  0  0  0  0  0  0  0  0  0
    0.6962   -0.9370    0.0389 C   0  0  0  0  0  0  0  0  0  0  0  0
    1.8495   -0.8368    0.8242 C   0  0  0  0  0  0  0  0  0  0  0  0
    3.1196   -0.9542    0.2459 C   0  0  0  0  0  0  0  0  0  0  0  0
    3.2470   -1.1805   -1.1241 C   0  0  0  0  0  0  0  0  0  0  0  0
    4.4187   -1.3133   -1.8153 O   0  0  0  0  0  0  0  0  0  0  0  0
    5.6331   -1.2009   -1.0695 C   0  0  0  0  0  0  0  0  0  0  0  0
    6.8221   -1.3323   -1.9885 C   0  0  0  0  0  0  0  0  0  0  0  0
    6.7849   -0.9102   -3.3255 C   0  0  0  0  0  0  0  0  0  0  0  0
    7.9195   -1.0147   -4.1354 C   0  0  0  0  0  0  0  0  0  0  0  0
    9.1075   -1.5298   -3.6167 C   0  0  0  0  0  0  0  0  0  0  0  0
    9.1625   -1.9357   -2.2852 C   0  0  0  0  0  0  0  0  0  0  0  0
    8.0280   -1.8292   -1.4850 C   0  0  0  0  0  0  0  0  0  0  0  0
    8.1076   -2.2098   -0.2012 F   0  0  0  0  0  0  0  0  0  0  0  0
    2.0950   -1.2947   -1.9055 C   0  0  0  0  0  0  0  0  0  0  0  0
    0.8261   -1.1796   -1.3311 C   0  0  0  0  0  0  0  0  0  0  0  0
   -5.5875    0.4087    2.4593 C   0  0  0  0  0  0  0  0  0  0  0  0
   -6.8699    0.6671    2.9595 C   0  0  0  0  0  0  0  0  0  0  0  0
   -9.2703    3.8573    2.6558 H   0  0  0  0  0  0  0  0  0  0  0  0
   -9.9549    2.6940    1.4543 H   0  0  0  0  0  0  0  0  0  0  0  0
  -10.6573    2.8428    3.0701 H   0  0  0  0  0  0  0  0  0  0  0  0
   -7.6929    3.3046    0.9786 H   0  0  0  0  0  0  0  0  0  0  0  0
   -5.4729    2.8614    0.1111 H   0  0  0  0  0  0  0  0  0  0  0  0
   -3.5631    1.6648    0.1210 H   0  0  0  0  0  0  0  0  0  0  0  0
   -0.7944   -1.5704    1.4572 H   0  0  0  0  0  0  0  0  0  0  0  0
    1.7739   -0.6637    1.8959 H   0  0  0  0  0  0  0  0  0  0  0  0
    3.9832   -0.8668    0.8968 H   0  0  0  0  0  0  0  0  0  0  0  0
    5.6906   -0.2200   -0.5819 H   0  0  0  0  0  0  0  0  0  0  0  0
    5.6643   -2.0011   -0.3202 H   0  0  0  0  0  0  0  0  0  0  0  0
    5.8688   -0.5001   -3.7464 H   0  0  0  0  0  0  0  0  0  0  0  0
    7.8748   -0.6909   -5.1728 H   0  0  0  0  0  0  0  0  0  0  0  0
    9.9884   -1.6100   -4.2484 H   0  0  0  0  0  0  0  0  0  0  0  0
   10.0811   -2.3313   -1.8638 H   0  0  0  0  0  0  0  0  0  0  0  0
    2.1859   -1.4800   -2.9736 H   0  0  0  0  0  0  0  0  0  0  0  0
   -0.0482   -1.2893   -1.9684 H   0  0  0  0  0  0  0  0  0  0  0  0
   -5.0332   -0.4114    2.9032 H   0  0  0  0  0  0  0  0  0  0  0  0
   -7.2630    0.0481    3.7628 H   0  0  0  0  0  0  0  0  0  0  0  0
  1  2  1  0
  2  3  1  0
  3  4  2  0
  4  5  1  0
  5  6  2  0
  6  7  1  0
  7  8  1  0
  8  9  2  0
  8 10  1  0
 10 11  1  0
 11 12  3  0
 10 13  2  3
 13 14  1  0
 14 15  2  0
 15 16  1  0
 16 17  2  0
 17 18  1  0
 18 19  1  0
 19 20  1  0
 20 21  2  0
 21 22  1  0
 22 23  2  0
 23 24  1  0
 24 25  2  0
 25 26  1  0
 17 27  1  0
 27 28  2  0
  6 29  1  0
 29 30  2  0
 30  3  1  0
 28 14  1  0
 25 20  1  0
  1 31  1  0
  1 32  1  0
  1 33  1  0
  4 34  1  0
  5 35  1  0
  7 36  1  0
 13 37  1  0
 15 38  1  0
 16 39  1  0
 19 40  1  0
 19 41  1  0
 21 42  1  0
 22 43  1  0
 23 44  1  0
 24 45  1  0
 27 46  1  0
 28 47  1  0
 29 48  1  0
 30 49  1  0
M  END
$$$$
