
     RDKit          3D

 33 34  0  0  0  0  0  0  0  0999 V2000
    6.4561   -1.1685   -1.0194 C   0  0  0  0  0  0  0  0  0  0  0  0
    5.5730   -0.8688    0.1833 C   0  0  0  0  0  0  0  0  0  0  0  0
    5.4945    0.6340    0.4449 C   0  0  0  0  0  0  0  0  0  0  0  0
    4.4756    1.0070    1.9053 S   0  0  0  0  0  0  0  0  0  0  0  0
    2.8591    0.8388    1.2598 C   0  0  0  0  0  0  0  0  0  0  0  0
    2.6063    0.6602   -0.0181 N   0  0  0  0  0  0  0  0  0  0  0  0
    1.2493    0.5560   -0.2694 N   0  0  0  0  0  0  0  0  0  0  0  0
    0.5446    0.6649    0.8294 C   0  0  0  0  0  0  0  0  0  0  0  0
   -0.8085    0.6302    1.0322 N   0  0  0  0  0  0  0  0  0  0  0  0
   -1.6951    0.3485    0.0115 C   0  0  0  0  0  0  0  0  0  0  0  0
   -1.3710    0.0680   -1.1338 O   0  0  0  0  0  0  0  0  0  0  0  0
   -3.0036    0.4276    0.4735 N   0  0  0  0  0  0  0  0  0  0  0  0
   -4.1872    0.1352   -0.2382 C   0  0  0  0  0  0  0  0  0  0  0  0
   -4.2148   -0.4089   -1.5233 C   0  0  0  0  0  0  0  0  0  0  0  0
   -5.4342   -0.6762   -2.1549 C   0  0  0  0  0  0  0  0  0  0  0  0
   -6.6362   -0.4052   -1.5062 C   0  0  0  0  0  0  0  0  0  0  0  0
   -6.6211    0.1326   -0.2227 C   0  0  0  0  0  0  0  0  0  0  0  0
   -5.4029    0.3998    0.4082 C   0  0  0  0  0  0  0  0  0  0  0  0
    1.4594    0.9061    2.2516 S   0  0  0  0  0  0  0  0  0  0  0  0
    6.0589   -0.6974   -1.9242 H   0  0  0  0  0  0  0  0  0  0  0  0
    7.4752   -0.8023   -0.8593 H   0  0  0  0  0  0  0  0  0  0  0  0
    6.5065   -2.2481   -1.1927 H   0  0  0  0  0  0  0  0  0  0  0  0
    4.5771   -1.2861   -0.0033 H   0  0  0  0  0  0  0  0  0  0  0  0
    5.9847   -1.3852    1.0590 H   0  0  0  0  0  0  0  0  0  0  0  0
    6.4996    1.0200    0.6481 H   0  0  0  0  0  0  0  0  0  0  0  0
    5.1194    1.1743   -0.4308 H   0  0  0  0  0  0  0  0  0  0  0  0
   -1.1262    0.7031    1.9823 H   0  0  0  0  0  0  0  0  0  0  0  0
   -3.1356    0.8307    1.3873 H   0  0  0  0  0  0  0  0  0  0  0  0
   -3.3040   -0.6428   -2.0660 H   0  0  0  0  0  0  0  0  0  0  0  0
   -5.4384   -1.0979   -3.1570 H   0  0  0  0  0  0  0  0  0  0  0  0
   -7.5808   -0.6140   -2.0013 H   0  0  0  0  0  0  0  0  0  0  0  0
   -7.5569    0.3448    0.2877 H   0  0  0  0  0  0  0  0  0  0  0  0
   -5.4227    0.8196    1.4101 H   0  0  0  0  0  0  0  0  0  0  0  0
  1  2  1  0
  2  3  1  0
  3  4  1  0
  4  5  1  0
  5  6  2  0
  6  7  1  0
  7  8  2  0
  8  9  1  0
  9 10  1  0
 10 11  2  0
 10 12  1  0
 12 13  1  0
 13 14  2  0
 14 15  1  0
 15 16  2  0
 16 17  1  0
 17 18  2  0
  8 19  1  0
 19  5  1  0
 18 13  1  0
  1 20  1  0
  1 21  1  0
  1 22  1  0
  2 23  1  0
  2 24  1  0
  3 25  1  0
  3 26  1  0
  9 27  1  0
 12 28  1  0
 14 29  1  0
 15 30  1  0
 16 31  1  0
 17 32  1  0
 18 33  1  0
M  END
$$$$
