
     RDKit          3D

 56 59  0  0  0  0  0  0  0  0999 V2000
   -5.6176    1.6928    1.5172 C   0  0  0  0  0  0  0  0  0  0  0  0
   -4.8102    0.7099    2.3451 C   0  0  0  0  0  0  0  0  0  0  0  0
   -3.3737    0.7510    2.0161 N   0  0  0  0  0  0  0  0  0  0  0  0
   -2.9160    0.1876    0.8141 C   0  0  0  0  0  0  0  0  0  0  0  0
   -2.6781   -1.1148    0.5749 C   0  0  0  0  0  0  0  0  0  0  0  0
   -2.8896   -2.0577    1.6435 N   0  0  0  0  0  0  0  0  0  0  0  0
   -1.6722   -2.0871    2.8310 S   0  0  0  0  0  6  0  0  0  0  0  0
   -1.6019   -3.4534    3.3011 O   0  0  0  0  0  0  0  0  0  0  0  0
   -1.9342   -0.9912    3.7422 O   0  0  0  0  0  0  0  0  0  0  0  0
   -0.1619   -1.7404    1.9609 C   0  0  0  0  0  0  0  0  0  0  0  0
    0.4701   -2.7629    1.2512 C   0  0  0  0  0  0  0  0  0  0  0  0
    1.6355   -2.4827    0.5359 C   0  0  0  0  0  0  0  0  0  0  0  0
    2.1823   -1.1892    0.5310 C   0  0  0  0  0  0  0  0  0  0  0  0
    3.4433   -0.9072   -0.2685 C   0  0  0  0  0  0  0  0  0  0  0  0
    3.2512    0.2230   -1.2905 C   0  0  0  0  0  0  0  0  0  0  0  0
    4.4737    0.3739   -2.2007 C   0  0  0  0  0  0  0  0  0  0  0  0
    5.7917   -0.0099   -1.5253 C   0  0  0  0  0  0  0  0  0  0  0  0
    5.7442    0.2089   -0.0195 C   0  0  0  0  0  0  0  0  0  0  0  0
    4.6519   -0.6310    0.6494 C   0  0  0  0  0  0  0  0  0  0  0  0
    1.5477   -0.1832    1.2776 C   0  0  0  0  0  0  0  0  0  0  0  0
    0.3835   -0.4554    1.9970 C   0  0  0  0  0  0  0  0  0  0  0  0
   -2.2881   -1.6669   -0.7435 C   0  0  0  0  0  0  0  0  0  0  0  0
   -2.1603   -2.8807   -0.8915 O   0  0  0  0  0  0  0  0  0  0  0  0
   -2.0928   -0.7665   -1.7700 O   0  0  0  0  0  0  0  0  0  0  0  0
   -2.2096    0.6144   -1.5331 C   0  0  0  0  0  0  0  0  0  0  0  0
   -1.8945    1.4479   -2.6083 C   0  0  0  0  0  0  0  0  0  0  0  0
   -1.9572    2.8284   -2.4439 C   0  0  0  0  0  0  0  0  0  0  0  0
   -2.3253    3.3611   -1.2101 C   0  0  0  0  0  0  0  0  0  0  0  0
   -2.6392    2.5127   -0.1424 C   0  0  0  0  0  0  0  0  0  0  0  0
   -2.6006    1.1186   -0.2905 C   0  0  0  0  0  0  0  0  0  0  0  0
   -6.6675    1.6720    1.8263 H   0  0  0  0  0  0  0  0  0  0  0  0
   -5.2480    2.7149    1.6468 H   0  0  0  0  0  0  0  0  0  0  0  0
   -5.5787    1.4477    0.4513 H   0  0  0  0  0  0  0  0  0  0  0  0
   -5.2027   -0.3055    2.2181 H   0  0  0  0  0  0  0  0  0  0  0  0
   -4.9219    0.9674    3.4045 H   0  0  0  0  0  0  0  0  0  0  0  0
   -2.9207    0.2511    2.7975 H   0  0  0  0  0  0  0  0  0  0  0  0
   -2.9783   -3.0174    1.2868 H   0  0  0  0  0  0  0  0  0  0  0  0
    0.0591   -3.7703    1.2347 H   0  0  0  0  0  0  0  0  0  0  0  0
    2.1128   -3.2846   -0.0248 H   0  0  0  0  0  0  0  0  0  0  0  0
    3.6781   -1.8119   -0.8484 H   0  0  0  0  0  0  0  0  0  0  0  0
    2.3606    0.0472   -1.9068 H   0  0  0  0  0  0  0  0  0  0  0  0
    3.0800    1.1753   -0.7720 H   0  0  0  0  0  0  0  0  0  0  0  0
    4.5244    1.4124   -2.5501 H   0  0  0  0  0  0  0  0  0  0  0  0
    4.3464   -0.2435   -3.0983 H   0  0  0  0  0  0  0  0  0  0  0  0
    6.6122    0.5665   -1.9676 H   0  0  0  0  0  0  0  0  0  0  0  0
    6.0098   -1.0664   -1.7274 H   0  0  0  0  0  0  0  0  0  0  0  0
    6.7154   -0.0284    0.4294 H   0  0  0  0  0  0  0  0  0  0  0  0
    5.5585    1.2715    0.1825 H   0  0  0  0  0  0  0  0  0  0  0  0
    5.0746   -1.5946    0.9633 H   0  0  0  0  0  0  0  0  0  0  0  0
    4.3544   -0.1257    1.5766 H   0  0  0  0  0  0  0  0  0  0  0  0
    1.9578    0.8245    1.3060 H   0  0  0  0  0  0  0  0  0  0  0  0
   -0.0931    0.3416    2.5644 H   0  0  0  0  0  0  0  0  0  0  0  0
   -1.5968    1.0236   -3.5631 H   0  0  0  0  0  0  0  0  0  0  0  0
   -1.7128    3.4888   -3.2720 H   0  0  0  0  0  0  0  0  0  0  0  0
   -2.3668    4.4391   -1.0725 H   0  0  0  0  0  0  0  0  0  0  0  0
   -2.9090    2.9550    0.8145 H   0  0  0  0  0  0  0  0  0  0  0  0
  1  2  1  0
  2  3  1  0
  3  4  1  0
  4  5  2  0
  5  6  1  0
  6  7  1  0
  7  8  2  0
  7  9  2  0
  7 10  1  0
 10 11  2  0
 11 12  1  0
 12 13  2  0
 13 14  1  0
 14 15  1  0
 15 16  1  0
 16 17  1  0
 17 18  1  0
 18 19  1  0
 13 20  1  0
 20 21  2  0
  5 22  1  0
 22 23  2  0
 22 24  1  0
 24 25  1  0
 25 26  2  0
 26 27  1  0
 27 28  2  0
 28 29  1  0
 29 30  2  0
 30  4  1  0
 21 10  1  0
 30 25  1  0
 19 14  1  0
  1 31  1  0
  1 32  1  0
  1 33  1  0
  2 34  1  0
  2 35  1  0
  3 36  1  0
  6 37  1  0
 11 38  1  0
 12 39  1  0
 14 40  1  0
 15 41  1  0
 15 42  1  0
 16 43  1  0
 16 44  1  0
 17 45  1  0
 17 46  1  0
 18 47  1  0
 18 48  1  0
 19 49  1  0
 19 50  1  0
 20 51  1  0
 21 52  1  0
 26 53  1  0
 27 54  1  0
 28 55  1  0
 29 56  1  0
M  END
$$$$
