
     RDKit          3D

 44 46  0  0  0  0  0  0  0  0999 V2000
   -3.8349   -0.0514   -2.6347 O   0  0  0  0  0  0  0  0  0  0  0  0
   -3.8876    0.0974   -1.4154 C   0  0  0  0  0  0  0  0  0  0  0  0
   -2.8082   -0.0930   -0.5711 N   0  0  0  0  0  0  0  0  0  0  0  0
   -1.6030   -0.4642   -1.0783 N   0  0  0  0  0  0  0  0  0  0  0  0
   -0.6539   -0.6184   -0.2107 C   0  0  0  0  0  0  0  0  0  0  0  0
    0.7151   -1.0192   -0.6040 C   0  0  0  0  0  0  0  0  0  0  0  0
    1.0358   -1.2316   -1.8875 C   0  0  0  0  0  0  0  0  0  0  0  0
    0.1899   -1.1172   -2.9600 O   0  0  0  0  0  0  0  0  0  0  0  0
    2.2897   -1.5999   -2.2450 N   0  0  0  0  0  0  0  0  0  0  0  0
    3.3298   -1.7724   -1.3780 C   0  0  0  0  0  0  0  0  0  0  0  0
    4.4313   -2.1163   -1.8015 O   0  0  0  0  0  0  0  0  0  0  0  0
    3.0383   -1.5467   -0.0425 N   0  0  0  0  0  0  0  0  0  0  0  0
    4.1148   -1.6840    0.9267 C   0  0  0  0  0  0  0  0  0  0  0  0
    4.8179   -0.3677    1.1806 C   0  0  0  0  0  0  0  0  0  0  0  0
    4.3990    0.4771    2.2189 C   0  0  0  0  0  0  0  0  0  0  0  0
    5.0356    1.6998    2.4384 C   0  0  0  0  0  0  0  0  0  0  0  0
    6.0928    2.0933    1.6204 C   0  0  0  0  0  0  0  0  0  0  0  0
    6.5131    1.2662    0.5808 C   0  0  0  0  0  0  0  0  0  0  0  0
    5.8783    0.0431    0.3597 C   0  0  0  0  0  0  0  0  0  0  0  0
    1.7754   -1.2056    0.4163 C   0  0  0  0  0  0  0  0  0  0  0  0
    1.4905   -1.0635    1.6061 O   0  0  0  0  0  0  0  0  0  0  0  0
   -5.1741    0.5073   -0.7655 C   0  0  0  0  0  0  0  0  0  0  0  0
   -6.2815    0.7055   -1.6076 C   0  0  0  0  0  0  0  0  0  0  0  0
   -7.5191    1.0884   -1.0863 C   0  0  0  0  0  0  0  0  0  0  0  0
   -7.6668    1.2785    0.2849 C   0  0  0  0  0  0  0  0  0  0  0  0
   -6.5796    1.0867    1.1377 C   0  0  0  0  0  0  0  0  0  0  0  0
   -5.3392    0.7030    0.6158 C   0  0  0  0  0  0  0  0  0  0  0  0
   -4.2910    0.5232    1.4842 O   0  0  0  0  0  0  0  0  0  0  0  0
   -2.9340    0.0512    0.4307 H   0  0  0  0  0  0  0  0  0  0  0  0
   -0.8164   -0.4584    0.8701 H   0  0  0  0  0  0  0  0  0  0  0  0
   -0.7025   -0.8494   -2.6350 H   0  0  0  0  0  0  0  0  0  0  0  0
    2.4782   -1.7508   -3.2285 H   0  0  0  0  0  0  0  0  0  0  0  0
    4.8450   -2.4258    0.5803 H   0  0  0  0  0  0  0  0  0  0  0  0
    3.7163   -2.0746    1.8714 H   0  0  0  0  0  0  0  0  0  0  0  0
    3.5698    0.1881    2.8624 H   0  0  0  0  0  0  0  0  0  0  0  0
    4.7042    2.3464    3.2467 H   0  0  0  0  0  0  0  0  0  0  0  0
    6.5873    3.0459    1.7908 H   0  0  0  0  0  0  0  0  0  0  0  0
    7.3344    1.5739   -0.0615 H   0  0  0  0  0  0  0  0  0  0  0  0
    6.2150   -0.5881   -0.4615 H   0  0  0  0  0  0  0  0  0  0  0  0
   -6.1831    0.5612   -2.6830 H   0  0  0  0  0  0  0  0  0  0  0  0
   -8.3647    1.2372   -1.7540 H   0  0  0  0  0  0  0  0  0  0  0  0
   -8.6315    1.5767    0.6891 H   0  0  0  0  0  0  0  0  0  0  0  0
   -6.7213    1.2415    2.2036 H   0  0  0  0  0  0  0  0  0  0  0  0
   -4.6053    0.7063    2.3889 H   0  0  0  0  0  0  0  0  0  0  0  0
  1  2  2  0
  2  3  1  0
  3  4  1  0
  4  5  2  3
  5  6  1  0
  6  7  2  0
  7  8  1  0
  7  9  1  0
  9 10  1  0
 10 11  2  0
 10 12  1  0
 12 13  1  0
 13 14  1  0
 14 15  2  0
 15 16  1  0
 16 17  2  0
 17 18  1  0
 18 19  2  0
 12 20  1  0
 20 21  2  0
  2 22  1  0
 22 23  2  0
 23 24  1  0
 24 25  2  0
 25 26  1  0
 26 27  2  0
 27 28  1  0
 20  6  1  0
 27 22  1  0
 19 14  1  0
  3 29  1  0
  5 30  1  0
  8 31  1  0
  9 32  1  0
 13 33  1  0
 13 34  1  0
 15 35  1  0
 16 36  1  0
 17 37  1  0
 18 38  1  0
 19 39  1  0
 23 40  1  0
 24 41  1  0
 25 42  1  0
 26 43  1  0
 28 44  1  0
M  END
$$$$
