
     RDKit          3D

 46 48  0  0  0  0  0  0  0  0999 V2000
   -3.7696    1.8654   -0.2731 C   0  0  0  0  0  0  0  0  0  0  0  0
   -3.1094    0.6014    0.2172 C   0  0  0  0  0  0  0  0  0  0  0  0
   -3.8129   -0.5177    0.4995 C   0  0  0  0  0  0  0  0  0  0  0  0
   -5.2688   -0.6604    0.4049 C   0  0  0  0  0  0  0  0  0  0  0  0
   -6.0955   -0.1938    1.4329 C   0  0  0  0  0  0  0  0  0  0  0  0
   -7.4814   -0.3326    1.3358 C   0  0  0  0  0  0  0  0  0  0  0  0
   -8.0450   -0.9386    0.2134 C   0  0  0  0  0  0  0  0  0  0  0  0
   -7.2250   -1.4062   -0.8131 C   0  0  0  0  0  0  0  0  0  0  0  0
   -5.8389   -1.2684   -0.7182 C   0  0  0  0  0  0  0  0  0  0  0  0
   -1.6509    0.5458    0.3737 C   0  0  0  0  0  0  0  0  0  0  0  0
   -0.6908    1.4782    0.2684 C   0  0  0  0  0  0  0  0  0  0  0  0
   -0.8029    3.1612   -0.0830 S   0  0  0  0  0  0  0  0  0  0  0  0
    0.9362    3.4200    0.0036 C   0  0  0  0  0  0  0  0  0  0  0  0
    1.6592    4.8995   -0.2386 S   0  0  0  0  0  0  0  0  0  0  0  0
    1.5345    2.2234    0.3256 N   0  0  0  0  0  0  0  0  0  0  0  0
    3.0387    2.0370    0.3663 N   0  0  0  0  0  0  0  0  0  0  0  0
    3.6983    1.6175   -1.1602 S   0  0  0  0  0  6  0  0  0  0  0  0
    2.6120    1.1909   -2.0181 O   0  0  0  0  0  0  0  0  0  0  0  0
    4.6063    2.6698   -1.5568 O   0  0  0  0  0  0  0  0  0  0  0  0
    4.6612    0.1892   -0.7337 C   0  0  0  0  0  0  0  0  0  0  0  0
    6.0203    0.3329   -0.4452 C   0  0  0  0  0  0  0  0  0  0  0  0
    6.7740   -0.7936   -0.1128 C   0  0  0  0  0  0  0  0  0  0  0  0
    6.1798   -2.0629   -0.0846 C   0  0  0  0  0  0  0  0  0  0  0  0
    6.9892   -3.2671    0.3010 C   0  0  0  0  0  0  0  0  0  0  0  0
    4.8141   -2.1898   -0.3728 C   0  0  0  0  0  0  0  0  0  0  0  0
    4.0543   -1.0681   -0.7073 C   0  0  0  0  0  0  0  0  0  0  0  0
    0.7385    1.1044    0.4843 C   0  0  0  0  0  0  0  0  0  0  0  0
    1.1450   -0.0138    0.7760 O   0  0  0  0  0  0  0  0  0  0  0  0
   -4.8428    1.7521   -0.4529 H   0  0  0  0  0  0  0  0  0  0  0  0
   -3.6619    2.6685    0.4627 H   0  0  0  0  0  0  0  0  0  0  0  0
   -3.3404    2.1798   -1.2300 H   0  0  0  0  0  0  0  0  0  0  0  0
   -3.3188   -1.4284    0.8330 H   0  0  0  0  0  0  0  0  0  0  0  0
   -5.6657    0.2808    2.3116 H   0  0  0  0  0  0  0  0  0  0  0  0
   -8.1207    0.0325    2.1351 H   0  0  0  0  0  0  0  0  0  0  0  0
   -9.1239   -1.0462    0.1381 H   0  0  0  0  0  0  0  0  0  0  0  0
   -7.6646   -1.8769   -1.6886 H   0  0  0  0  0  0  0  0  0  0  0  0
   -5.2088   -1.6329   -1.5259 H   0  0  0  0  0  0  0  0  0  0  0  0
   -1.2946   -0.4579    0.6257 H   0  0  0  0  0  0  0  0  0  0  0  0
    3.3160    1.3558    1.0811 H   0  0  0  0  0  0  0  0  0  0  0  0
    6.4998    1.3095   -0.4783 H   0  0  0  0  0  0  0  0  0  0  0  0
    7.8318   -0.6783    0.1175 H   0  0  0  0  0  0  0  0  0  0  0  0
    8.0151   -3.1804   -0.0717 H   0  0  0  0  0  0  0  0  0  0  0  0
    7.0133   -3.3683    1.3904 H   0  0  0  0  0  0  0  0  0  0  0  0
    6.5633   -4.1802   -0.1284 H   0  0  0  0  0  0  0  0  0  0  0  0
    4.3345   -3.1668   -0.3441 H   0  0  0  0  0  0  0  0  0  0  0  0
    2.9974   -1.1862   -0.9391 H   0  0  0  0  0  0  0  0  0  0  0  0
  1  2  1  0
  2  3  2  3
  3  4  1  0
  4  5  2  0
  5  6  1  0
  6  7  2  0
  7  8  1  0
  8  9  2  0
  2 10  1  0
 10 11  2  3
 11 12  1  0
 12 13  1  0
 13 14  2  0
 13 15  1  0
 15 16  1  0
 16 17  1  0
 17 18  2  0
 17 19  2  0
 17 20  1  0
 20 21  2  0
 21 22  1  0
 22 23  2  0
 23 24  1  0
 23 25  1  0
 25 26  2  0
 15 27  1  0
 27 28  2  0
  9  4  1  0
 27 11  1  0
 26 20  1  0
  1 29  1  0
  1 30  1  0
  1 31  1  0
  3 32  1  0
  5 33  1  0
  6 34  1  0
  7 35  1  0
  8 36  1  0
  9 37  1  0
 10 38  1  0
 16 39  1  0
 21 40  1  0
 22 41  1  0
 24 42  1  0
 24 43  1  0
 24 44  1  0
 25 45  1  0
 26 46  1  0
M  END
$$$$
