
     RDKit          3D

 42 44  0  0  0  0  0  0  0  0999 V2000
   -3.1250    3.2519   -1.8409 N   0  0  0  0  0  0  0  0  0  0  0  0
   -3.8232    2.3803   -1.5256 C   0  0  0  0  0  0  0  0  0  0  0  0
   -4.6929    1.2694   -1.1234 C   0  0  0  0  0  0  0  0  0  0  0  0
   -4.2190    0.6149    0.1837 C   0  0  0  0  0  0  0  0  0  0  0  0
   -3.2951   -0.5296    0.0157 N   0  0  0  0  0  0  0  0  0  0  0  0
   -1.9852   -0.1277   -0.5447 C   0  0  0  0  0  0  0  0  0  0  0  0
   -1.0104   -1.3129   -0.6652 C   0  0  0  0  0  0  0  0  0  0  0  0
   -0.8245   -2.0242    0.6093 N   0  0  0  0  0  0  0  0  0  0  0  0
    0.3622   -2.7332    0.8627 C   0  0  0  0  0  0  0  0  0  0  0  0
    0.4615   -4.1430    1.7817 S   0  0  0  0  0  0  0  0  0  0  0  0
    1.6140   -2.2153    0.3349 C   0  0  0  0  0  0  0  0  0  0  0  0
    2.7578   -2.8187   -0.1629 C   0  0  0  0  0  0  0  0  0  0  0  0
    3.6558   -1.7813   -0.5152 C   0  0  0  0  0  0  0  0  0  0  0  0
    3.0313   -0.5921   -0.1987 C   0  0  0  0  0  0  0  0  0  0  0  0
    3.3950    0.8181   -0.3071 C   0  0  0  0  0  0  0  0  0  0  0  0
    2.6278    1.8155    0.3153 C   0  0  0  0  0  0  0  0  0  0  0  0
    2.9829    3.1654    0.2161 C   0  0  0  0  0  0  0  0  0  0  0  0
    4.1136    3.5406   -0.5105 C   0  0  0  0  0  0  0  0  0  0  0  0
    4.5028    5.2216   -0.5869 Cl  0  0  0  0  0  0  0  0  0  0  0  0
    4.8848    2.5600   -1.1425 C   0  0  0  0  0  0  0  0  0  0  0  0
    6.2942    2.9431   -2.0694 Cl  0  0  0  0  0  0  0  0  0  0  0  0
    4.5270    1.2089   -1.0377 C   0  0  0  0  0  0  0  0  0  0  0  0
    1.7960   -0.8551    0.3192 O   0  0  0  0  0  0  0  0  0  0  0  0
   -2.0979   -2.3792    1.2541 C   0  0  0  0  0  0  0  0  0  0  0  0
   -3.0695   -1.1851    1.3273 C   0  0  0  0  0  0  0  0  0  0  0  0
   -5.7049    1.6653   -0.9705 H   0  0  0  0  0  0  0  0  0  0  0  0
   -4.7689    0.5252   -1.9249 H   0  0  0  0  0  0  0  0  0  0  0  0
   -3.7977    1.3636    0.8678 H   0  0  0  0  0  0  0  0  0  0  0  0
   -5.1243    0.2248    0.6669 H   0  0  0  0  0  0  0  0  0  0  0  0
   -2.1186    0.2768   -1.5529 H   0  0  0  0  0  0  0  0  0  0  0  0
   -1.5279    0.6543    0.0761 H   0  0  0  0  0  0  0  0  0  0  0  0
   -0.0694   -0.9627   -1.0906 H   0  0  0  0  0  0  0  0  0  0  0  0
   -1.4073   -2.0486   -1.3765 H   0  0  0  0  0  0  0  0  0  0  0  0
    2.9202   -3.8833   -0.2664 H   0  0  0  0  0  0  0  0  0  0  0  0
    4.6418   -1.8964   -0.9418 H   0  0  0  0  0  0  0  0  0  0  0  0
    1.7434    1.5501    0.8930 H   0  0  0  0  0  0  0  0  0  0  0  0
    2.3704    3.9163    0.7105 H   0  0  0  0  0  0  0  0  0  0  0  0
    5.1398    0.4627   -1.5398 H   0  0  0  0  0  0  0  0  0  0  0  0
   -1.9203   -2.7367    2.2729 H   0  0  0  0  0  0  0  0  0  0  0  0
   -2.5436   -3.1997    0.6787 H   0  0  0  0  0  0  0  0  0  0  0  0
   -2.6734   -0.4537    2.0453 H   0  0  0  0  0  0  0  0  0  0  0  0
   -4.0234   -1.5506    1.7256 H   0  0  0  0  0  0  0  0  0  0  0  0
  1  2  3  0
  2  3  1  0
  3  4  1  0
  4  5  1  0
  5  6  1  0
  6  7  1  0
  7  8  1  0
  8  9  1  0
  9 10  2  0
  9 11  1  0
 11 12  2  0
 12 13  1  0
 13 14  2  0
 14 15  1  0
 15 16  2  0
 16 17  1  0
 17 18  2  0
 18 19  1  0
 18 20  1  0
 20 21  1  0
 20 22  2  0
 14 23  1  0
  8 24  1  0
 24 25  1  0
 25  5  1  0
 23 11  1  0
 22 15  1  0
  3 26  1  0
  3 27  1  0
  4 28  1  0
  4 29  1  0
  6 30  1  0
  6 31  1  0
  7 32  1  0
  7 33  1  0
 12 34  1  0
 13 35  1  0
 16 36  1  0
 17 37  1  0
 22 38  1  0
 24 39  1  0
 24 40  1  0
 25 41  1  0
 25 42  1  0
M  END
$$$$
