
     RDKit          3D

 34 34  0  0  0  0  0  0  0  0999 V2000
    4.6103   -1.1685   -0.5091 C   0  0  0  0  0  0  0  0  0  0  0  0
    3.7314   -0.2215    0.0778 O   0  0  0  0  0  0  0  0  0  0  0  0
    2.4805   -0.0853   -0.4716 C   0  0  0  0  0  0  0  0  0  0  0  0
    1.9927   -0.8621   -1.5256 C   0  0  0  0  0  0  0  0  0  0  0  0
    0.7035   -0.6517   -2.0234 C   0  0  0  0  0  0  0  0  0  0  0  0
   -0.1135    0.3436   -1.4792 C   0  0  0  0  0  0  0  0  0  0  0  0
   -1.5187    0.5543   -1.9843 C   0  0  0  0  0  0  0  0  0  0  0  0
   -2.4719   -0.0484   -1.0832 N   0  0  0  0  0  0  0  0  0  0  0  0
   -3.1805    0.6881   -0.1823 C   0  0  0  0  0  0  0  0  0  0  0  0
   -3.2331    1.9123   -0.1672 O   0  0  0  0  0  0  0  0  0  0  0  0
   -3.9909   -0.0858    0.7857 C   0  0  0  0  0  0  0  0  0  0  0  0
   -3.6279   -1.1072    1.5755 C   0  0  0  0  0  0  0  0  0  0  0  0
   -2.3234   -1.7611    1.6958 C   0  0  0  0  0  0  0  0  0  0  0  0
   -1.8646   -2.1807    2.7411 O   0  0  0  0  0  0  0  0  0  0  0  0
   -1.7021   -1.9536    0.5257 O   0  0  0  0  0  0  0  0  0  0  0  0
    0.3738    1.1179   -0.4141 C   0  0  0  0  0  0  0  0  0  0  0  0
    1.6594    0.9086    0.0967 C   0  0  0  0  0  0  0  0  0  0  0  0
    2.2018    1.6147    1.1424 O   0  0  0  0  0  0  0  0  0  0  0  0
    1.3741    2.5712    1.7895 C   0  0  0  0  0  0  0  0  0  0  0  0
    4.8049   -0.9312   -1.5620 H   0  0  0  0  0  0  0  0  0  0  0  0
    4.2225   -2.1875   -0.3963 H   0  0  0  0  0  0  0  0  0  0  0  0
    5.5646   -1.1154    0.0256 H   0  0  0  0  0  0  0  0  0  0  0  0
    2.5916   -1.6412   -1.9827 H   0  0  0  0  0  0  0  0  0  0  0  0
    0.3438   -1.2723   -2.8406 H   0  0  0  0  0  0  0  0  0  0  0  0
   -1.6508    0.0763   -2.9617 H   0  0  0  0  0  0  0  0  0  0  0  0
   -1.7178    1.6242   -2.1126 H   0  0  0  0  0  0  0  0  0  0  0  0
   -2.3545   -1.0378   -0.8875 H   0  0  0  0  0  0  0  0  0  0  0  0
   -4.9807    0.3444    0.9208 H   0  0  0  0  0  0  0  0  0  0  0  0
   -4.3411   -1.4648    2.3132 H   0  0  0  0  0  0  0  0  0  0  0  0
   -0.8397   -2.3471    0.7871 H   0  0  0  0  0  0  0  0  0  0  0  0
   -0.2806    1.8796    0.0031 H   0  0  0  0  0  0  0  0  0  0  0  0
    1.1321    3.3993    1.1173 H   0  0  0  0  0  0  0  0  0  0  0  0
    0.4679    2.1087    2.1928 H   0  0  0  0  0  0  0  0  0  0  0  0
    1.9367    2.9801    2.6334 H   0  0  0  0  0  0  0  0  0  0  0  0
  1  2  1  0
  2  3  1  0
  3  4  2  0
  4  5  1  0
  5  6  2  0
  6  7  1  0
  7  8  1  0
  8  9  1  0
  9 10  2  0
  9 11  1  0
 11 12  2  3
 12 13  1  0
 13 14  2  0
 13 15  1  0
  6 16  1  0
 16 17  2  0
 17 18  1  0
 18 19  1  0
 17  3  1  0
  1 20  1  0
  1 21  1  0
  1 22  1  0
  4 23  1  0
  5 24  1  0
  7 25  1  0
  7 26  1  0
  8 27  1  0
 11 28  1  0
 12 29  1  0
 15 30  1  0
 16 31  1  0
 19 32  1  0
 19 33  1  0
 19 34  1  0
M  END
$$$$
