
     RDKit          3D

 43 45  0  0  0  0  0  0  0  0999 V2000
    3.8515   -0.6469    0.6332 C   0  0  0  0  0  0  0  0  0  0  0  0
    3.6698   -0.1608    2.0683 C   0  0  0  0  0  0  0  0  0  0  0  0
    3.7690    1.3568    2.1806 C   0  0  0  0  0  0  0  0  0  0  0  0
    2.1519   -0.8282    2.8652 S   0  0  0  0  0  0  0  0  0  0  0  0
    0.8880   -0.4737    1.6578 C   0  0  0  0  0  0  0  0  0  0  0  0
    0.0664   -1.4966    1.2366 C   0  0  0  0  0  0  0  0  0  0  0  0
   -0.9120   -1.1880    0.3142 C   0  0  0  0  0  0  0  0  0  0  0  0
   -1.7852   -2.1643   -0.1574 N   0  0  0  0  0  0  0  0  0  0  0  0
   -1.2528   -3.4947   -0.5076 C   0  0  0  0  0  0  0  0  0  0  0  0
   -1.6685   -3.8938   -1.9344 C   0  0  0  0  0  0  0  0  0  0  0  0
   -3.0873   -3.9040   -2.1404 O   0  0  0  0  0  0  0  0  0  0  0  0
   -3.7775   -2.8836   -1.4000 C   0  0  0  0  0  0  0  0  0  0  0  0
   -2.8906   -1.6915   -1.0092 C   0  0  0  0  0  0  0  0  0  0  0  0
   -1.0675    0.0772   -0.1080 N   0  0  0  0  0  0  0  0  0  0  0  0
   -0.2358    1.0232    0.3680 C   0  0  0  0  0  0  0  0  0  0  0  0
   -0.4289    2.4090   -0.1073 C   0  0  0  0  0  0  0  0  0  0  0  0
   -1.3535    2.7154   -1.1255 C   0  0  0  0  0  0  0  0  0  0  0  0
   -1.5416    4.0268   -1.5752 C   0  0  0  0  0  0  0  0  0  0  0  0
   -0.8068    5.0674   -1.0151 C   0  0  0  0  0  0  0  0  0  0  0  0
    0.1145    4.7974   -0.0079 C   0  0  0  0  0  0  0  0  0  0  0  0
    0.2986    3.4847    0.4395 C   0  0  0  0  0  0  0  0  0  0  0  0
    0.7556    0.7899    1.2402 N   0  0  0  0  0  0  0  0  0  0  0  0
    3.7917   -1.7387    0.5711 H   0  0  0  0  0  0  0  0  0  0  0  0
    3.1108   -0.2181   -0.0494 H   0  0  0  0  0  0  0  0  0  0  0  0
    4.8388   -0.3534    0.2596 H   0  0  0  0  0  0  0  0  0  0  0  0
    4.4934   -0.5796    2.6594 H   0  0  0  0  0  0  0  0  0  0  0  0
    4.7654    1.6909    1.8686 H   0  0  0  0  0  0  0  0  0  0  0  0
    3.6226    1.6930    3.2128 H   0  0  0  0  0  0  0  0  0  0  0  0
    3.0487    1.8724    1.5408 H   0  0  0  0  0  0  0  0  0  0  0  0
    0.1748   -2.4967    1.6340 H   0  0  0  0  0  0  0  0  0  0  0  0
   -1.6635   -4.2172    0.2068 H   0  0  0  0  0  0  0  0  0  0  0  0
   -0.1596   -3.5407   -0.4462 H   0  0  0  0  0  0  0  0  0  0  0  0
   -1.2267   -3.2078   -2.6675 H   0  0  0  0  0  0  0  0  0  0  0  0
   -1.2967   -4.8972   -2.1655 H   0  0  0  0  0  0  0  0  0  0  0  0
   -4.6177   -2.5446   -2.0145 H   0  0  0  0  0  0  0  0  0  0  0  0
   -4.1960   -3.3551   -0.5034 H   0  0  0  0  0  0  0  0  0  0  0  0
   -3.5007   -0.9576   -0.4694 H   0  0  0  0  0  0  0  0  0  0  0  0
   -2.4946   -1.2205   -1.9186 H   0  0  0  0  0  0  0  0  0  0  0  0
   -1.9427    1.9205   -1.5810 H   0  0  0  0  0  0  0  0  0  0  0  0
   -2.2646    4.2315   -2.3608 H   0  0  0  0  0  0  0  0  0  0  0  0
   -0.9531    6.0872   -1.3613 H   0  0  0  0  0  0  0  0  0  0  0  0
    0.6906    5.6057    0.4351 H   0  0  0  0  0  0  0  0  0  0  0  0
    1.0214    3.3041    1.2339 H   0  0  0  0  0  0  0  0  0  0  0  0
  1  2  1  0
  2  3  1  0
  2  4  1  0
  4  5  1  0
  5  6  2  0
  6  7  1  0
  7  8  1  0
  8  9  1  0
  9 10  1  0
 10 11  1  0
 11 12  1  0
 12 13  1  0
  7 14  2  0
 14 15  1  0
 15 16  1  0
 16 17  2  0
 17 18  1  0
 18 19  2  0
 19 20  1  0
 20 21  2  0
 15 22  2  0
 22  5  1  0
 13  8  1  0
 21 16  1  0
  1 23  1  0
  1 24  1  0
  1 25  1  0
  2 26  1  0
  3 27  1  0
  3 28  1  0
  3 29  1  0
  6 30  1  0
  9 31  1  0
  9 32  1  0
 10 33  1  0
 10 34  1  0
 12 35  1  0
 12 36  1  0
 13 37  1  0
 13 38  1  0
 17 39  1  0
 18 40  1  0
 19 41  1  0
 20 42  1  0
 21 43  1  0
M  END
$$$$
