
     RDKit          3D

 61 65  0  0  0  0  0  0  0  0999 V2000
   -1.8738   -2.4329    1.0087 C   0  0  0  0  0  0  0  0  0  0  0  0
   -2.9355   -1.4993    0.8545 O   0  0  0  0  0  0  0  0  0  0  0  0
   -3.5865   -1.5111   -0.3543 C   0  0  0  0  0  0  0  0  0  0  0  0
   -3.6509   -2.6359   -1.1862 C   0  0  0  0  0  0  0  0  0  0  0  0
   -4.3560   -2.5874   -2.3916 C   0  0  0  0  0  0  0  0  0  0  0  0
   -5.0095   -1.4199   -2.7735 C   0  0  0  0  0  0  0  0  0  0  0  0
   -4.9615   -0.2974   -1.9479 C   0  0  0  0  0  0  0  0  0  0  0  0
   -4.2567   -0.3302   -0.7319 C   0  0  0  0  0  0  0  0  0  0  0  0
   -4.2076    0.8854    0.0953 C   0  0  0  0  0  0  0  0  0  0  0  0
   -5.6270    1.3600    0.9236 S   0  0  0  0  0  0  0  0  0  0  0  0
   -4.8668    2.7301    1.6272 C   0  0  0  0  0  0  0  0  0  0  0  0
   -5.4578    3.6687    2.4972 C   0  0  0  0  0  0  0  0  0  0  0  0
   -4.6884    4.7318    2.9736 C   0  0  0  0  0  0  0  0  0  0  0  0
   -3.3612    4.8642    2.5946 C   0  0  0  0  0  0  0  0  0  0  0  0
   -2.7795    3.9300    1.7324 C   0  0  0  0  0  0  0  0  0  0  0  0
   -3.5313    2.8337    1.2332 C   0  0  0  0  0  0  0  0  0  0  0  0
   -3.1564    1.7543    0.3449 C   0  0  0  0  0  0  0  0  0  0  0  0
   -1.8327    1.5467   -0.2341 C   0  0  0  0  0  0  0  0  0  0  0  0
   -0.7597    1.1952    0.5916 C   0  0  0  0  0  0  0  0  0  0  0  0
    0.5147    0.9887    0.0516 C   0  0  0  0  0  0  0  0  0  0  0  0
    0.7276    1.1366   -1.3190 C   0  0  0  0  0  0  0  0  0  0  0  0
    1.9104    0.9549   -1.9801 O   0  0  0  0  0  0  0  0  0  0  0  0
    3.0896    0.6931   -1.2131 C   0  0  0  0  0  0  0  0  0  0  0  0
    3.2562   -0.8159   -0.9602 C   0  0  0  0  0  0  0  0  0  0  0  0
    4.3884   -1.1498   -0.0791 N   0  0  0  0  0  0  0  0  0  0  0  0
    5.6833   -0.7434   -0.6540 C   0  0  0  0  0  0  0  0  0  0  0  0
    6.8820   -1.5509   -0.1347 C   0  0  0  0  0  0  0  0  0  0  0  0
    6.6634   -2.0103    1.2986 C   0  0  0  0  0  0  0  0  0  0  0  0
    5.3773   -2.8300    1.4203 C   0  0  0  0  0  0  0  0  0  0  0  0
    4.3827   -2.5686    0.2832 C   0  0  0  0  0  0  0  0  0  0  0  0
   -0.3462    1.4904   -2.1414 C   0  0  0  0  0  0  0  0  0  0  0  0
   -1.6199    1.6989   -1.6060 C   0  0  0  0  0  0  0  0  0  0  0  0
   -1.3082   -2.1504    1.9022 H   0  0  0  0  0  0  0  0  0  0  0  0
   -2.2648   -3.4427    1.1697 H   0  0  0  0  0  0  0  0  0  0  0  0
   -1.1850   -2.4067    0.1567 H   0  0  0  0  0  0  0  0  0  0  0  0
   -3.1737   -3.5710   -0.9130 H   0  0  0  0  0  0  0  0  0  0  0  0
   -4.3997   -3.4668   -3.0294 H   0  0  0  0  0  0  0  0  0  0  0  0
   -5.5590   -1.3827   -3.7105 H   0  0  0  0  0  0  0  0  0  0  0  0
   -5.4739    0.6110   -2.2574 H   0  0  0  0  0  0  0  0  0  0  0  0
   -6.4980    3.5674    2.7935 H   0  0  0  0  0  0  0  0  0  0  0  0
   -5.1363    5.4604    3.6450 H   0  0  0  0  0  0  0  0  0  0  0  0
   -2.7685    5.6961    2.9666 H   0  0  0  0  0  0  0  0  0  0  0  0
   -1.7387    4.0492    1.4401 H   0  0  0  0  0  0  0  0  0  0  0  0
   -0.9147    1.0635    1.6605 H   0  0  0  0  0  0  0  0  0  0  0  0
    1.3096    0.7030    0.7323 H   0  0  0  0  0  0  0  0  0  0  0  0
    3.1198    1.2843   -0.2903 H   0  0  0  0  0  0  0  0  0  0  0  0
    3.9271    1.0514   -1.8229 H   0  0  0  0  0  0  0  0  0  0  0  0
    2.3299   -1.1899   -0.5063 H   0  0  0  0  0  0  0  0  0  0  0  0
    3.3384   -1.3382   -1.9233 H   0  0  0  0  0  0  0  0  0  0  0  0
    5.6795   -0.8254   -1.7485 H   0  0  0  0  0  0  0  0  0  0  0  0
    5.8441    0.3143   -0.4125 H   0  0  0  0  0  0  0  0  0  0  0  0
    7.7932   -0.9462   -0.2034 H   0  0  0  0  0  0  0  0  0  0  0  0
    7.0353   -2.4307   -0.7730 H   0  0  0  0  0  0  0  0  0  0  0  0
    7.5185   -2.5979    1.6510 H   0  0  0  0  0  0  0  0  0  0  0  0
    6.5968   -1.1307    1.9518 H   0  0  0  0  0  0  0  0  0  0  0  0
    5.6222   -3.8991    1.4316 H   0  0  0  0  0  0  0  0  0  0  0  0
    4.9094   -2.6086    2.3875 H   0  0  0  0  0  0  0  0  0  0  0  0
    4.6244   -3.1929   -0.5870 H   0  0  0  0  0  0  0  0  0  0  0  0
    3.3901   -2.8814    0.6294 H   0  0  0  0  0  0  0  0  0  0  0  0
   -0.1902    1.6052   -3.2113 H   0  0  0  0  0  0  0  0  0  0  0  0
   -2.4381    1.9758   -2.2656 H   0  0  0  0  0  0  0  0  0  0  0  0
  1  2  1  0
  2  3  1  0
  3  4  2  0
  4  5  1  0
  5  6  2  0
  6  7  1  0
  7  8  2  0
  8  9  1  0
  9 10  1  0
 10 11  1  0
 11 12  2  0
 12 13  1  0
 13 14  2  0
 14 15  1  0
 15 16  2  0
 16 17  1  0
 17 18  1  0
 18 19  2  0
 19 20  1  0
 20 21  2  0
 21 22  1  0
 22 23  1  0
 23 24  1  0
 24 25  1  0
 25 26  1  0
 26 27  1  0
 27 28  1  0
 28 29  1  0
 29 30  1  0
 21 31  1  0
 31 32  2  0
  8  3  1  0
 17  9  2  0
 32 18  1  0
 16 11  1  0
 30 25  1  0
  1 33  1  0
  1 34  1  0
  1 35  1  0
  4 36  1  0
  5 37  1  0
  6 38  1  0
  7 39  1  0
 12 40  1  0
 13 41  1  0
 14 42  1  0
 15 43  1  0
 19 44  1  0
 20 45  1  0
 23 46  1  0
 23 47  1  0
 24 48  1  0
 24 49  1  0
 26 50  1  0
 26 51  1  0
 27 52  1  0
 27 53  1  0
 28 54  1  0
 28 55  1  0
 29 56  1  0
 29 57  1  0
 30 58  1  0
 30 59  1  0
 31 60  1  0
 32 61  1  0
M  END
$$$$
