
     RDKit          3D

 43 44  0  0  0  0  0  0  0  0999 V2000
   -6.3707    1.9759    3.0730 C   0  0  0  0  0  0  0  0  0  0  0  0
   -5.9677    1.7456    1.6259 C   0  0  0  0  0  0  0  0  0  0  0  0
   -4.4926    1.3670    1.5132 C   0  0  0  0  0  0  0  0  0  0  0  0
   -4.1110    1.0969    0.1088 C   0  0  0  0  0  0  0  0  0  0  0  0
   -3.9014    1.9344   -0.8838 N   0  0  0  0  0  0  0  0  0  0  0  0
   -3.5353    1.1597   -1.9676 N   0  0  0  0  0  0  0  0  0  0  0  0
   -3.5339   -0.0907   -1.5556 C   0  0  0  0  0  0  0  0  0  0  0  0
   -3.0806   -1.4415   -2.5531 S   0  0  0  0  0  0  0  0  0  0  0  0
   -2.5987   -2.6411   -1.2794 C   0  0  0  0  0  0  0  0  0  0  0  0
   -1.4277   -2.1355   -0.4475 C   0  0  0  0  0  0  0  0  0  0  0  0
   -1.5326   -2.0213    0.7703 O   0  0  0  0  0  0  0  0  0  0  0  0
   -0.2949   -1.8753   -1.2022 N   0  0  0  0  0  0  0  0  0  0  0  0
    0.9464   -1.3831   -0.7518 C   0  0  0  0  0  0  0  0  0  0  0  0
    1.2413   -1.1062    0.5835 C   0  0  0  0  0  0  0  0  0  0  0  0
    2.4967   -0.5987    0.9432 C   0  0  0  0  0  0  0  0  0  0  0  0
    3.4784   -0.3716   -0.0276 C   0  0  0  0  0  0  0  0  0  0  0  0
    4.7907    0.1783    0.4080 C   0  0  0  0  0  0  0  0  0  0  0  0
    5.0172    0.5661    1.5432 O   0  0  0  0  0  0  0  0  0  0  0  0
    5.6737    0.1689   -0.6226 O   0  0  0  0  0  0  0  0  0  0  0  0
    6.9703    0.6885   -0.3040 C   0  0  0  0  0  0  0  0  0  0  0  0
    7.9243    0.2847   -1.4114 C   0  0  0  0  0  0  0  0  0  0  0  0
    3.1888   -0.6551   -1.3657 C   0  0  0  0  0  0  0  0  0  0  0  0
    1.9310   -1.1560   -1.7220 C   0  0  0  0  0  0  0  0  0  0  0  0
   -3.9146   -0.2086   -0.2457 O   0  0  0  0  0  0  0  0  0  0  0  0
   -5.7747    2.7734    3.5277 H   0  0  0  0  0  0  0  0  0  0  0  0
   -7.4250    2.2654    3.1320 H   0  0  0  0  0  0  0  0  0  0  0  0
   -6.2318    1.0645    3.6651 H   0  0  0  0  0  0  0  0  0  0  0  0
   -6.1693    2.6545    1.0468 H   0  0  0  0  0  0  0  0  0  0  0  0
   -6.5944    0.9508    1.2000 H   0  0  0  0  0  0  0  0  0  0  0  0
   -3.8677    2.1753    1.9059 H   0  0  0  0  0  0  0  0  0  0  0  0
   -4.2861    0.4817    2.1279 H   0  0  0  0  0  0  0  0  0  0  0  0
   -2.3054   -3.5805   -1.7601 H   0  0  0  0  0  0  0  0  0  0  0  0
   -3.4500   -2.8557   -0.6227 H   0  0  0  0  0  0  0  0  0  0  0  0
   -0.3922   -1.9815   -2.2065 H   0  0  0  0  0  0  0  0  0  0  0  0
    0.5164   -1.2651    1.3760 H   0  0  0  0  0  0  0  0  0  0  0  0
    2.6997   -0.3805    1.9907 H   0  0  0  0  0  0  0  0  0  0  0  0
    6.9094    1.7798   -0.2472 H   0  0  0  0  0  0  0  0  0  0  0  0
    7.3292    0.2857    0.6486 H   0  0  0  0  0  0  0  0  0  0  0  0
    8.9272    0.6814   -1.2290 H   0  0  0  0  0  0  0  0  0  0  0  0
    7.5705    0.6483   -2.3816 H   0  0  0  0  0  0  0  0  0  0  0  0
    7.9854   -0.8042   -1.4852 H   0  0  0  0  0  0  0  0  0  0  0  0
    3.9266   -0.4836   -2.1456 H   0  0  0  0  0  0  0  0  0  0  0  0
    1.7351   -1.3587   -2.7720 H   0  0  0  0  0  0  0  0  0  0  0  0
  1  2  1  0
  2  3  1  0
  3  4  1  0
  4  5  2  0
  5  6  1  0
  6  7  2  0
  7  8  1  0
  8  9  1  0
  9 10  1  0
 10 11  2  0
 10 12  1  0
 12 13  1  0
 13 14  2  0
 14 15  1  0
 15 16  2  0
 16 17  1  0
 17 18  2  0
 17 19  1  0
 19 20  1  0
 20 21  1  0
 16 22  1  0
 22 23  2  0
  7 24  1  0
 24  4  1  0
 23 13  1  0
  1 25  1  0
  1 26  1  0
  1 27  1  0
  2 28  1  0
  2 29  1  0
  3 30  1  0
  3 31  1  0
  9 32  1  0
  9 33  1  0
 12 34  1  0
 14 35  1  0
 15 36  1  0
 20 37  1  0
 20 38  1  0
 21 39  1  0
 21 40  1  0
 21 41  1  0
 22 42  1  0
 23 43  1  0
M  END
$$$$
