
     RDKit          3D

 60 63  0  0  0  0  0  0  0  0999 V2000
   -3.5632   -0.8573   -3.8490 C   0  0  0  0  0  0  0  0  0  0  0  0
   -3.1656   -1.6566   -2.7446 O   0  0  0  0  0  0  0  0  0  0  0  0
   -2.6601   -1.0164   -1.6393 C   0  0  0  0  0  0  0  0  0  0  0  0
   -2.6429    0.3729   -1.4675 C   0  0  0  0  0  0  0  0  0  0  0  0
   -2.1089    0.9488   -0.3077 C   0  0  0  0  0  0  0  0  0  0  0  0
   -2.0669    2.2916   -0.0654 O   0  0  0  0  0  0  0  0  0  0  0  0
   -2.5724    3.1739   -1.0579 C   0  0  0  0  0  0  0  0  0  0  0  0
   -1.5712    0.1313    0.6997 C   0  0  0  0  0  0  0  0  0  0  0  0
   -0.9440    0.6806    1.9802 C   0  0  0  0  0  0  0  0  0  0  0  0
    0.1970    1.7103    1.8685 C   0  0  0  0  0  0  0  0  0  0  0  0
    1.0960    1.3842    0.6880 C   0  0  0  0  0  0  0  0  0  0  0  0
    1.1092    2.0731   -0.3249 O   0  0  0  0  0  0  0  0  0  0  0  0
    1.8667    0.2479    0.9085 N   0  0  0  0  0  0  0  0  0  0  0  0
    2.7171   -0.4140   -0.0128 C   0  0  0  0  0  0  0  0  0  0  0  0
    2.8054   -0.0387   -1.3572 C   0  0  0  0  0  0  0  0  0  0  0  0
    3.6422   -0.7230   -2.2447 C   0  0  0  0  0  0  0  0  0  0  0  0
    4.4005   -1.8092   -1.8109 C   0  0  0  0  0  0  0  0  0  0  0  0
    5.3183   -2.5212   -2.7594 C   0  0  0  0  0  0  0  0  0  0  0  0
    4.3274   -2.1860   -0.4668 C   0  0  0  0  0  0  0  0  0  0  0  0
    3.4903   -1.5065    0.4396 C   0  0  0  0  0  0  0  0  0  0  0  0
    3.4607   -1.9852    1.8668 C   0  0  0  0  0  0  0  0  0  0  0  0
   -0.3052    3.1480    1.9901 C   0  0  0  0  0  0  0  0  0  0  0  0
    0.5223    4.2754    1.4180 C   0  0  0  0  0  0  0  0  0  0  0  0
   -1.3740    3.4854    2.6525 N   0  0  0  0  0  0  0  0  0  0  0  0
   -2.1163    2.5013    3.2125 C   0  0  0  0  0  0  0  0  0  0  0  0
   -3.0543    2.5775    4.1329 N   0  0  0  0  0  0  0  0  0  0  0  0
   -3.4040    1.2757    4.3555 C   0  0  0  0  0  0  0  0  0  0  0  0
   -2.7261    0.3692    3.6459 N   0  0  0  0  0  0  0  0  0  0  0  0
   -1.9687    1.1795    2.8816 N   0  0  0  0  0  0  0  0  0  0  0  0
   -1.6136   -1.2694    0.5272 C   0  0  0  0  0  0  0  0  0  0  0  0
   -2.1535   -1.8465   -0.6263 C   0  0  0  0  0  0  0  0  0  0  0  0
   -2.2140   -3.1970   -0.8626 O   0  0  0  0  0  0  0  0  0  0  0  0
   -1.9053   -4.0699    0.2130 C   0  0  0  0  0  0  0  0  0  0  0  0
   -3.8642   -1.5302   -4.6580 H   0  0  0  0  0  0  0  0  0  0  0  0
   -4.4291   -0.2377   -3.5938 H   0  0  0  0  0  0  0  0  0  0  0  0
   -2.7322   -0.2461   -4.2173 H   0  0  0  0  0  0  0  0  0  0  0  0
   -3.0537    1.0091   -2.2402 H   0  0  0  0  0  0  0  0  0  0  0  0
   -3.6425    3.0130   -1.2188 H   0  0  0  0  0  0  0  0  0  0  0  0
   -2.0106    3.0791   -1.9919 H   0  0  0  0  0  0  0  0  0  0  0  0
   -2.4403    4.1968   -0.6923 H   0  0  0  0  0  0  0  0  0  0  0  0
   -0.5089   -0.1766    2.5169 H   0  0  0  0  0  0  0  0  0  0  0  0
    0.8267    1.6105    2.7686 H   0  0  0  0  0  0  0  0  0  0  0  0
    1.8602   -0.1419    1.8404 H   0  0  0  0  0  0  0  0  0  0  0  0
    2.2278    0.7856   -1.7627 H   0  0  0  0  0  0  0  0  0  0  0  0
    3.6885   -0.3980   -3.2819 H   0  0  0  0  0  0  0  0  0  0  0  0
    5.5003   -3.5515   -2.4339 H   0  0  0  0  0  0  0  0  0  0  0  0
    6.2773   -1.9963   -2.8169 H   0  0  0  0  0  0  0  0  0  0  0  0
    4.8783   -2.5697   -3.7607 H   0  0  0  0  0  0  0  0  0  0  0  0
    4.9306   -3.0240   -0.1205 H   0  0  0  0  0  0  0  0  0  0  0  0
    4.1558   -2.8161    2.0309 H   0  0  0  0  0  0  0  0  0  0  0  0
    3.7549   -1.1777    2.5451 H   0  0  0  0  0  0  0  0  0  0  0  0
    2.4577   -2.3394    2.1272 H   0  0  0  0  0  0  0  0  0  0  0  0
    0.3283    4.3683    0.3466 H   0  0  0  0  0  0  0  0  0  0  0  0
    1.5849    4.0850    1.5903 H   0  0  0  0  0  0  0  0  0  0  0  0
    0.2571    5.2215    1.8990 H   0  0  0  0  0  0  0  0  0  0  0  0
   -4.1638    0.9813    5.0678 H   0  0  0  0  0  0  0  0  0  0  0  0
   -1.2155   -1.9023    1.3146 H   0  0  0  0  0  0  0  0  0  0  0  0
   -0.8456   -4.0049    0.4790 H   0  0  0  0  0  0  0  0  0  0  0  0
   -2.1013   -5.0932   -0.1203 H   0  0  0  0  0  0  0  0  0  0  0  0
   -2.5438   -3.8746    1.0803 H   0  0  0  0  0  0  0  0  0  0  0  0
  1  2  1  0
  2  3  1  0
  3  4  2  0
  4  5  1  0
  5  6  1  0
  6  7  1  0
  5  8  2  0
  8  9  1  0
  9 10  1  0
 10 11  1  0
 11 12  2  0
 11 13  1  0
 13 14  1  0
 14 15  2  0
 15 16  1  0
 16 17  2  0
 17 18  1  0
 17 19  1  0
 19 20  2  0
 20 21  1  0
 10 22  1  0
 22 23  1  0
 22 24  2  0
 24 25  1  0
 25 26  2  0
 26 27  1  0
 27 28  2  0
 28 29  1  0
  8 30  1  0
 30 31  2  0
 31 32  1  0
 32 33  1  0
 31  3  1  0
 29  9  1  0
 20 14  1  0
 29 25  1  0
  1 34  1  0
  1 35  1  0
  1 36  1  0
  4 37  1  0
  7 38  1  0
  7 39  1  0
  7 40  1  0
  9 41  1  0
 10 42  1  0
 13 43  1  0
 15 44  1  0
 16 45  1  0
 18 46  1  0
 18 47  1  0
 18 48  1  0
 19 49  1  0
 21 50  1  0
 21 51  1  0
 21 52  1  0
 23 53  1  0
 23 54  1  0
 23 55  1  0
 27 56  1  0
 30 57  1  0
 33 58  1  0
 33 59  1  0
 33 60  1  0
M  END
$$$$
