
     RDKit          3D

 47 49  0  0  0  0  0  0  0  0999 V2000
    6.8712   -2.1675   -0.4790 C   0  0  0  0  0  0  0  0  0  0  0  0
    6.2197   -1.4135    0.6692 C   0  0  0  0  0  0  0  0  0  0  0  0
    5.1987   -0.3959    0.1627 C   0  0  0  0  0  0  0  0  0  0  0  0
    4.5444    0.3593    1.3231 C   0  0  0  0  0  0  0  0  0  0  0  0
    3.5676    1.3397    0.8454 N   0  0  0  0  0  0  0  0  0  0  0  0
    2.2678    0.9169    0.6091 C   0  0  0  0  0  0  0  0  0  0  0  0
    1.8620   -0.2253    0.7761 O   0  0  0  0  0  0  0  0  0  0  0  0
    1.4333    2.0477    0.1052 C   0  0  0  0  0  0  0  0  0  0  0  0
    0.1296    2.0561   -0.2195 C   0  0  0  0  0  0  0  0  0  0  0  0
   -0.8041    0.9428   -0.1343 C   0  0  0  0  0  0  0  0  0  0  0  0
   -2.1071    0.8776   -0.5081 C   0  0  0  0  0  0  0  0  0  0  0  0
   -2.7573    2.0373   -1.1227 C   0  0  0  0  0  0  0  0  0  0  0  0
   -4.0627    2.0760   -1.4123 C   0  0  0  0  0  0  0  0  0  0  0  0
   -4.9072    0.9267   -1.1013 C   0  0  0  0  0  0  0  0  0  0  0  0
   -6.2875    1.0104   -1.3455 C   0  0  0  0  0  0  0  0  0  0  0  0
   -7.1185   -0.0666   -1.0570 C   0  0  0  0  0  0  0  0  0  0  0  0
   -6.5727   -1.2254   -0.5215 C   0  0  0  0  0  0  0  0  0  0  0  0
   -5.1952   -1.3116   -0.2801 C   0  0  0  0  0  0  0  0  0  0  0  0
   -4.3214   -0.2462   -0.5704 C   0  0  0  0  0  0  0  0  0  0  0  0
   -2.9077   -0.2877   -0.3421 N   0  0  0  0  0  0  0  0  0  0  0  0
   -2.3295   -1.6012    0.0096 C   0  0  0  0  0  0  0  0  0  0  0  0
   -2.2985   -1.8098    1.5185 C   0  0  0  0  0  0  0  0  0  0  0  0
    2.4150    3.4648   -0.0357 S   0  0  0  0  0  0  0  0  0  0  0  0
    3.8607    2.6516    0.5418 C   0  0  0  0  0  0  0  0  0  0  0  0
    5.3257    3.4402    0.6683 S   0  0  0  0  0  0  0  0  0  0  0  0
    6.1243   -2.7148   -1.0629 H   0  0  0  0  0  0  0  0  0  0  0  0
    7.3972   -1.4813   -1.1505 H   0  0  0  0  0  0  0  0  0  0  0  0
    7.5977   -2.8899   -0.0943 H   0  0  0  0  0  0  0  0  0  0  0  0
    5.7302   -2.1306    1.3385 H   0  0  0  0  0  0  0  0  0  0  0  0
    6.9963   -0.9037    1.2510 H   0  0  0  0  0  0  0  0  0  0  0  0
    4.4282   -0.9083   -0.4266 H   0  0  0  0  0  0  0  0  0  0  0  0
    5.6893    0.3126   -0.5154 H   0  0  0  0  0  0  0  0  0  0  0  0
    5.3072    0.8600    1.9280 H   0  0  0  0  0  0  0  0  0  0  0  0
    4.0337   -0.3531    1.9824 H   0  0  0  0  0  0  0  0  0  0  0  0
   -0.2799    2.9993   -0.5699 H   0  0  0  0  0  0  0  0  0  0  0  0
   -0.3772    0.0590    0.3260 H   0  0  0  0  0  0  0  0  0  0  0  0
   -2.1732    2.9130   -1.3745 H   0  0  0  0  0  0  0  0  0  0  0  0
   -4.5081    2.9507   -1.8709 H   0  0  0  0  0  0  0  0  0  0  0  0
   -6.7210    1.9173   -1.7591 H   0  0  0  0  0  0  0  0  0  0  0  0
   -8.1865    0.0010   -1.2442 H   0  0  0  0  0  0  0  0  0  0  0  0
   -7.2159   -2.0689   -0.2836 H   0  0  0  0  0  0  0  0  0  0  0  0
   -4.8405   -2.2380    0.1578 H   0  0  0  0  0  0  0  0  0  0  0  0
   -1.3112   -1.6913   -0.3883 H   0  0  0  0  0  0  0  0  0  0  0  0
   -2.8559   -2.4270   -0.4830 H   0  0  0  0  0  0  0  0  0  0  0  0
   -3.3018   -1.7775    1.9537 H   0  0  0  0  0  0  0  0  0  0  0  0
   -1.8590   -2.7841    1.7542 H   0  0  0  0  0  0  0  0  0  0  0  0
   -1.7004   -1.0409    2.0174 H   0  0  0  0  0  0  0  0  0  0  0  0
  1  2  1  0
  2  3  1  0
  3  4  1  0
  4  5  1  0
  5  6  1  0
  6  7  2  0
  6  8  1  0
  8  9  2  3
  9 10  1  0
 10 11  2  3
 11 12  1  0
 12 13  2  0
 13 14  1  0
 14 15  2  0
 15 16  1  0
 16 17  2  0
 17 18  1  0
 18 19  2  0
 19 20  1  0
 20 21  1  0
 21 22  1  0
  8 23  1  0
 23 24  1  0
 24 25  2  0
 24  5  1  0
 20 11  1  0
 19 14  1  0
  1 26  1  0
  1 27  1  0
  1 28  1  0
  2 29  1  0
  2 30  1  0
  3 31  1  0
  3 32  1  0
  4 33  1  0
  4 34  1  0
  9 35  1  0
 10 36  1  0
 12 37  1  0
 13 38  1  0
 15 39  1  0
 16 40  1  0
 17 41  1  0
 18 42  1  0
 21 43  1  0
 21 44  1  0
 22 45  1  0
 22 46  1  0
 22 47  1  0
M  END
$$$$
