
     RDKit          3D

 33 35  0  0  0  0  0  0  0  0999 V2000
    4.0911   -0.6129   -1.0090 C   0  0  0  0  0  0  0  0  0  0  0  0
    4.6482   -0.0755    0.2716 C   0  0  0  0  0  0  0  0  0  0  0  0
    6.0489   -0.0762    0.5867 C   0  0  0  0  0  0  0  0  0  0  0  0
    6.3190    0.4677    1.8208 C   0  0  0  0  0  0  0  0  0  0  0  0
    4.8995    0.9828    2.6116 S   0  0  0  0  0  0  0  0  0  0  0  0
    3.9079    0.4824    1.3058 C   0  0  0  0  0  0  0  0  0  0  0  0
    2.4823    0.6903    1.4298 C   0  0  0  0  0  0  0  0  0  0  0  0
    1.6639    0.3534    0.4835 N   0  0  0  0  0  0  0  0  0  0  0  0
    0.3366    0.5945    0.7110 N   0  0  0  0  0  0  0  0  0  0  0  0
   -0.6110    0.1372   -0.2007 C   0  0  0  0  0  0  0  0  0  0  0  0
   -0.3333   -0.5080   -1.2076 O   0  0  0  0  0  0  0  0  0  0  0  0
   -1.9713    0.4570    0.1578 C   0  0  0  0  0  0  0  0  0  0  0  0
   -2.3982    1.5630    0.8689 N   0  0  0  0  0  0  0  0  0  0  0  0
   -3.7356    1.6094    1.0944 N   0  0  0  0  0  0  0  0  0  0  0  0
   -4.1609    0.5425    0.4356 C   0  0  0  0  0  0  0  0  0  0  0  0
   -3.1389   -0.1875   -0.1617 C   0  0  0  0  0  0  0  0  0  0  0  0
   -3.6452   -1.3650   -0.8867 C   0  0  0  0  0  0  0  0  0  0  0  0
   -5.1875   -1.0805   -0.9219 C   0  0  0  0  0  0  0  0  0  0  0  0
   -5.4968   -0.0341    0.2037 C   0  0  0  0  0  0  0  0  0  0  0  0
    3.5711    0.1747   -1.5636 H   0  0  0  0  0  0  0  0  0  0  0  0
    4.8875   -1.0019   -1.6522 H   0  0  0  0  0  0  0  0  0  0  0  0
    3.3931   -1.4327   -0.8119 H   0  0  0  0  0  0  0  0  0  0  0  0
    6.8219   -0.4615   -0.0684 H   0  0  0  0  0  0  0  0  0  0  0  0
    7.2841    0.5857    2.2944 H   0  0  0  0  0  0  0  0  0  0  0  0
    2.1098    1.1501    2.3637 H   0  0  0  0  0  0  0  0  0  0  0  0
    0.0491    0.9184    1.6253 H   0  0  0  0  0  0  0  0  0  0  0  0
   -1.8382    2.3353    1.2110 H   0  0  0  0  0  0  0  0  0  0  0  0
   -3.4403   -2.2835   -0.3274 H   0  0  0  0  0  0  0  0  0  0  0  0
   -3.2382   -1.4546   -1.8974 H   0  0  0  0  0  0  0  0  0  0  0  0
   -5.7789   -1.9947   -0.8103 H   0  0  0  0  0  0  0  0  0  0  0  0
   -5.4437   -0.6402   -1.8948 H   0  0  0  0  0  0  0  0  0  0  0  0
   -6.2314    0.7024   -0.1321 H   0  0  0  0  0  0  0  0  0  0  0  0
   -5.8648   -0.5381    1.1029 H   0  0  0  0  0  0  0  0  0  0  0  0
  1  2  1  0
  2  3  1  0
  3  4  2  0
  4  5  1  0
  5  6  1  0
  6  7  1  0
  7  8  2  3
  8  9  1  0
  9 10  1  0
 10 11  2  0
 10 12  1  0
 12 13  1  0
 13 14  1  0
 14 15  2  0
 15 16  1  0
 16 17  1  0
 17 18  1  0
 18 19  1  0
  6  2  2  0
 16 12  2  0
 19 15  1  0
  1 20  1  0
  1 21  1  0
  1 22  1  0
  3 23  1  0
  4 24  1  0
  7 25  1  0
  9 26  1  0
 13 27  1  0
 17 28  1  0
 17 29  1  0
 18 30  1  0
 18 31  1  0
 19 32  1  0
 19 33  1  0
M  END
$$$$
