
     RDKit          3D

 52 54  0  0  0  0  0  0  0  0999 V2000
    2.6914   -2.0457    0.4661 C   0  0  0  0  0  0  0  0  0  0  0  0
    1.4779   -1.7013   -0.3883 C   0  0  0  0  0  0  0  0  0  0  0  0
    0.9422   -0.3726   -0.0234 N   0  0  0  0  0  0  0  0  0  0  0  0
    1.1079    0.5764   -1.1453 C   0  0  0  0  0  0  0  0  0  0  0  0
    2.5537    0.9510   -1.4007 C   0  0  0  0  0  0  0  0  0  0  0  0
    3.1831    0.6263   -2.6105 C   0  0  0  0  0  0  0  0  0  0  0  0
    4.5131    0.9875   -2.8341 C   0  0  0  0  0  0  0  0  0  0  0  0
    5.2244    1.6785   -1.8544 C   0  0  0  0  0  0  0  0  0  0  0  0
    4.6079    2.0105   -0.6496 C   0  0  0  0  0  0  0  0  0  0  0  0
    3.2791    1.6505   -0.4240 C   0  0  0  0  0  0  0  0  0  0  0  0
   -0.4677   -0.4346    0.4706 C   0  0  0  0  0  0  0  0  0  0  0  0
   -0.5957   -1.3435    1.7025 C   0  0  0  0  0  0  0  0  0  0  0  0
   -1.3448   -2.5268    1.6565 C   0  0  0  0  0  0  0  0  0  0  0  0
   -1.4273   -3.3140    2.7959 C   0  0  0  0  0  0  0  0  0  0  0  0
   -0.8242   -3.0134    3.9632 N   0  0  0  0  0  0  0  0  0  0  0  0
   -0.0966   -1.8769    3.9924 C   0  0  0  0  0  0  0  0  0  0  0  0
    0.0479   -1.0273    2.9078 C   0  0  0  0  0  0  0  0  0  0  0  0
   -1.0298    0.9329    0.8087 C   0  0  0  0  0  0  0  0  0  0  0  0
   -0.4278    1.8336    1.5719 N   0  0  0  0  0  0  0  0  0  0  0  0
   -1.2380    2.9260    1.6166 N   0  0  0  0  0  0  0  0  0  0  0  0
   -2.3236    2.7328    0.8928 N   0  0  0  0  0  0  0  0  0  0  0  0
   -2.2203    1.4876    0.3784 N   0  0  0  0  0  0  0  0  0  0  0  0
   -3.2709    1.0048   -0.5296 C   0  0  0  0  0  0  0  0  0  0  0  0
   -4.4555    2.0074   -0.6122 C   0  0  0  0  0  0  0  0  0  0  0  0
   -2.7156    0.8554   -1.9585 C   0  0  0  0  0  0  0  0  0  0  0  0
   -3.8670   -0.3265   -0.0397 C   0  0  0  0  0  0  0  0  0  0  0  0
    2.4415   -2.0753    1.5305 H   0  0  0  0  0  0  0  0  0  0  0  0
    3.0741   -3.0333    0.1880 H   0  0  0  0  0  0  0  0  0  0  0  0
    3.5026   -1.3253    0.3255 H   0  0  0  0  0  0  0  0  0  0  0  0
    0.7334   -2.4977   -0.2789 H   0  0  0  0  0  0  0  0  0  0  0  0
    1.7696   -1.7532   -1.4448 H   0  0  0  0  0  0  0  0  0  0  0  0
    0.6453    0.1753   -2.0571 H   0  0  0  0  0  0  0  0  0  0  0  0
    0.6006    1.5295   -0.9576 H   0  0  0  0  0  0  0  0  0  0  0  0
    2.6437    0.0882   -3.3857 H   0  0  0  0  0  0  0  0  0  0  0  0
    4.9957    0.7304   -3.7733 H   0  0  0  0  0  0  0  0  0  0  0  0
    6.2597    1.9589   -2.0290 H   0  0  0  0  0  0  0  0  0  0  0  0
    5.1598    2.5486    0.1163 H   0  0  0  0  0  0  0  0  0  0  0  0
    2.8040    1.9092    0.5213 H   0  0  0  0  0  0  0  0  0  0  0  0
   -1.0603   -0.8757   -0.3346 H   0  0  0  0  0  0  0  0  0  0  0  0
   -1.8470   -2.8510    0.7523 H   0  0  0  0  0  0  0  0  0  0  0  0
   -1.9967   -4.2392    2.7974 H   0  0  0  0  0  0  0  0  0  0  0  0
    0.3871   -1.6576    4.9399 H   0  0  0  0  0  0  0  0  0  0  0  0
    0.6604   -0.1343    2.9995 H   0  0  0  0  0  0  0  0  0  0  0  0
   -5.2400    1.6404   -1.2848 H   0  0  0  0  0  0  0  0  0  0  0  0
   -4.1340    2.9832   -0.9957 H   0  0  0  0  0  0  0  0  0  0  0  0
   -4.9148    2.1659    0.3709 H   0  0  0  0  0  0  0  0  0  0  0  0
   -1.9385    0.0904   -2.0284 H   0  0  0  0  0  0  0  0  0  0  0  0
   -2.2769    1.7965   -2.3108 H   0  0  0  0  0  0  0  0  0  0  0  0
   -3.5070    0.5713   -2.6618 H   0  0  0  0  0  0  0  0  0  0  0  0
   -3.1772   -1.1609   -0.1690 H   0  0  0  0  0  0  0  0  0  0  0  0
   -4.1388   -0.2746    1.0208 H   0  0  0  0  0  0  0  0  0  0  0  0
   -4.7701   -0.5882   -0.6038 H   0  0  0  0  0  0  0  0  0  0  0  0
  1  2  1  0
  2  3  1  0
  3  4  1  0
  4  5  1  0
  5  6  2  0
  6  7  1  0
  7  8  2  0
  8  9  1  0
  9 10  2  0
  3 11  1  0
 11 12  1  0
 12 13  2  0
 13 14  1  0
 14 15  2  0
 15 16  1  0
 16 17  2  0
 11 18  1  0
 18 19  2  0
 19 20  1  0
 20 21  2  0
 21 22  1  0
 22 23  1  0
 23 24  1  0
 23 25  1  0
 23 26  1  0
 10  5  1  0
 17 12  1  0
 22 18  1  0
  1 27  1  0
  1 28  1  0
  1 29  1  0
  2 30  1  0
  2 31  1  0
  4 32  1  0
  4 33  1  0
  6 34  1  0
  7 35  1  0
  8 36  1  0
  9 37  1  0
 10 38  1  0
 11 39  1  0
 13 40  1  0
 14 41  1  0
 16 42  1  0
 17 43  1  0
 24 44  1  0
 24 45  1  0
 24 46  1  0
 25 47  1  0
 25 48  1  0
 25 49  1  0
 26 50  1  0
 26 51  1  0
 26 52  1  0
M  END
$$$$
