
     RDKit          3D

 65 69  0  0  0  0  0  0  0  0999 V2000
    2.8505   -3.8241   -2.1938 C   0  0  0  0  0  0  0  0  0  0  0  0
    3.3215   -2.5951   -1.6562 O   0  0  0  0  0  0  0  0  0  0  0  0
    2.3868   -1.6574   -1.3042 C   0  0  0  0  0  0  0  0  0  0  0  0
    1.0124   -1.7935   -1.5175 C   0  0  0  0  0  0  0  0  0  0  0  0
    0.1220   -0.7857   -1.1301 C   0  0  0  0  0  0  0  0  0  0  0  0
    0.5865    0.3897   -0.5282 C   0  0  0  0  0  0  0  0  0  0  0  0
   -0.3542    1.5131   -0.0808 C   0  0  0  0  0  0  0  0  0  0  0  0
   -1.1181    2.1079   -1.2797 C   0  0  0  0  0  0  0  0  0  0  0  0
   -1.5018    3.5090   -1.0269 C   0  0  0  0  0  0  0  0  0  0  0  0
   -1.8077    4.6098   -0.8247 N   0  0  0  0  0  0  0  0  0  0  0  0
   -2.3885    1.3074   -1.5638 C   0  0  0  0  0  0  0  0  0  0  0  0
   -2.6451    0.9297   -2.7826 N   0  0  0  0  0  0  0  0  0  0  0  0
   -3.2102    1.0241   -0.4629 N   0  0  0  0  0  0  0  0  0  0  0  0
   -4.5329    0.5101   -0.7024 C   0  0  0  0  0  0  0  0  0  0  0  0
   -5.4302    1.2511   -1.4958 C   0  0  0  0  0  0  0  0  0  0  0  0
   -6.7323    0.8003   -1.7252 C   0  0  0  0  0  0  0  0  0  0  0  0
   -7.1621   -0.4012   -1.1705 C   0  0  0  0  0  0  0  0  0  0  0  0
   -6.2873   -1.1605   -0.3942 C   0  0  0  0  0  0  0  0  0  0  0  0
   -4.9759   -0.7166   -0.1612 C   0  0  0  0  0  0  0  0  0  0  0  0
   -4.0969   -1.5595    0.5977 C   0  0  0  0  0  0  0  0  0  0  0  0
   -3.3807   -2.2334    1.2160 N   0  0  0  0  0  0  0  0  0  0  0  0
   -2.7634    1.2482    0.8555 C   0  0  0  0  0  0  0  0  0  0  0  0
   -3.5705    1.6332    1.8690 C   0  0  0  0  0  0  0  0  0  0  0  0
   -3.1339    1.8688    3.2861 C   0  0  0  0  0  0  0  0  0  0  0  0
   -1.7505    1.3249    3.5902 C   0  0  0  0  0  0  0  0  0  0  0  0
   -0.8491    1.6447    2.4267 C   0  0  0  0  0  0  0  0  0  0  0  0
    0.1677    2.3197    2.5812 O   0  0  0  0  0  0  0  0  0  0  0  0
   -1.2655    1.0278    1.0847 C   0  0  0  0  0  0  0  0  0  0  0  0
    1.9656    0.5199   -0.3118 C   0  0  0  0  0  0  0  0  0  0  0  0
    2.8733   -0.4922   -0.6869 C   0  0  0  0  0  0  0  0  0  0  0  0
    4.3561   -0.2837   -0.4220 C   0  0  0  0  0  0  0  0  0  0  0  0
    4.6492    0.0399    0.9902 N   0  0  0  0  0  0  0  0  0  0  0  0
    6.0666    0.3849    1.1721 C   0  0  0  0  0  0  0  0  0  0  0  0
    6.8048   -0.9334    1.3553 C   0  0  0  0  0  0  0  0  0  0  0  0
    5.7411   -1.9263    1.8036 C   0  0  0  0  0  0  0  0  0  0  0  0
    4.4537   -1.1188    1.8771 C   0  0  0  0  0  0  0  0  0  0  0  0
    2.3452   -3.6668   -3.1521 H   0  0  0  0  0  0  0  0  0  0  0  0
    2.2017   -4.3449   -1.4822 H   0  0  0  0  0  0  0  0  0  0  0  0
    3.7199   -4.4621   -2.3782 H   0  0  0  0  0  0  0  0  0  0  0  0
    0.5917   -2.6801   -1.9814 H   0  0  0  0  0  0  0  0  0  0  0  0
   -0.9387   -0.9579   -1.2992 H   0  0  0  0  0  0  0  0  0  0  0  0
    0.3007    2.3176    0.2791 H   0  0  0  0  0  0  0  0  0  0  0  0
   -0.4778    2.0966   -2.1711 H   0  0  0  0  0  0  0  0  0  0  0  0
   -1.9245    1.2341   -3.4458 H   0  0  0  0  0  0  0  0  0  0  0  0
   -5.1146    2.1935   -1.9386 H   0  0  0  0  0  0  0  0  0  0  0  0
   -7.4072    1.3888   -2.3423 H   0  0  0  0  0  0  0  0  0  0  0  0
   -8.1755   -0.7528   -1.3525 H   0  0  0  0  0  0  0  0  0  0  0  0
   -6.6301   -2.1072    0.0195 H   0  0  0  0  0  0  0  0  0  0  0  0
   -4.6251    1.8279    1.6806 H   0  0  0  0  0  0  0  0  0  0  0  0
   -3.8576    1.4101    3.9696 H   0  0  0  0  0  0  0  0  0  0  0  0
   -3.1579    2.9494    3.4729 H   0  0  0  0  0  0  0  0  0  0  0  0
   -1.3519    1.7695    4.5074 H   0  0  0  0  0  0  0  0  0  0  0  0
   -1.7669    0.2379    3.7247 H   0  0  0  0  0  0  0  0  0  0  0  0
   -1.1316   -0.0540    1.2295 H   0  0  0  0  0  0  0  0  0  0  0  0
    2.3602    1.4107    0.1799 H   0  0  0  0  0  0  0  0  0  0  0  0
    4.6594    0.5618   -1.0547 H   0  0  0  0  0  0  0  0  0  0  0  0
    4.9511   -1.1384   -0.7621 H   0  0  0  0  0  0  0  0  0  0  0  0
    6.1617    0.9855    2.0860 H   0  0  0  0  0  0  0  0  0  0  0  0
    6.4811    0.9891    0.3573 H   0  0  0  0  0  0  0  0  0  0  0  0
    7.6083   -0.8424    2.0932 H   0  0  0  0  0  0  0  0  0  0  0  0
    7.2511   -1.2653    0.4112 H   0  0  0  0  0  0  0  0  0  0  0  0
    5.6522   -2.7350    1.0685 H   0  0  0  0  0  0  0  0  0  0  0  0
    5.9883   -2.3776    2.7700 H   0  0  0  0  0  0  0  0  0  0  0  0
    3.5702   -1.7231    1.6463 H   0  0  0  0  0  0  0  0  0  0  0  0
    4.3154   -0.7480    2.9008 H   0  0  0  0  0  0  0  0  0  0  0  0
  1  2  1  0
  2  3  1  0
  3  4  2  0
  4  5  1  0
  5  6  2  0
  6  7  1  0
  7  8  1  0
  8  9  1  0
  9 10  3  0
  8 11  1  0
 11 12  2  3
 11 13  1  0
 13 14  1  0
 14 15  2  0
 15 16  1  0
 16 17  2  0
 17 18  1  0
 18 19  2  0
 19 20  1  0
 20 21  3  0
 13 22  1  0
 22 23  2  0
 23 24  1  0
 24 25  1  0
 25 26  1  0
 26 27  2  0
 26 28  1  0
  6 29  1  0
 29 30  2  0
 30 31  1  0
 31 32  1  0
 32 33  1  0
 33 34  1  0
 34 35  1  0
 35 36  1  0
 30  3  1  0
 36 32  1  0
 28  7  1  0
 19 14  1  0
 28 22  1  0
  1 37  1  0
  1 38  1  0
  1 39  1  0
  4 40  1  0
  5 41  1  0
  7 42  1  0
  8 43  1  0
 12 44  1  0
 15 45  1  0
 16 46  1  0
 17 47  1  0
 18 48  1  0
 23 49  1  0
 24 50  1  0
 24 51  1  0
 25 52  1  0
 25 53  1  0
 28 54  1  0
 29 55  1  0
 31 56  1  0
 31 57  1  0
 33 58  1  0
 33 59  1  0
 34 60  1  0
 34 61  1  0
 35 62  1  0
 35 63  1  0
 36 64  1  0
 36 65  1  0
M  END
$$$$
