
     RDKit          3D

 46 50  0  0  0  0  0  0  0  0999 V2000
    6.3479    2.5471   -0.3387 C   0  0  0  0  0  0  0  0  0  0  0  0
    5.3399    2.6882    0.6546 O   0  0  0  0  0  0  0  0  0  0  0  0
    4.1753    2.0006    0.4541 C   0  0  0  0  0  0  0  0  0  0  0  0
    3.8775    1.1906   -0.6408 C   0  0  0  0  0  0  0  0  0  0  0  0
    2.6394    0.5413   -0.7192 C   0  0  0  0  0  0  0  0  0  0  0  0
    1.6862    0.6913    0.2944 C   0  0  0  0  0  0  0  0  0  0  0  0
    0.3955    0.0201    0.2023 C   0  0  0  0  0  0  0  0  0  0  0  0
   -0.7942    0.7063    0.3116 N   0  0  0  0  0  0  0  0  0  0  0  0
   -1.8431   -0.1560    0.1005 C   0  0  0  0  0  0  0  0  0  0  0  0
   -3.2608    0.2252    0.1252 C   0  0  0  0  0  0  0  0  0  0  0  0
   -4.2408   -0.7858   -0.0327 C   0  0  0  0  0  0  0  0  0  0  0  0
   -5.6092   -0.4916   -0.0182 C   0  0  0  0  0  0  0  0  0  0  0  0
   -5.9747    0.8227    0.1550 C   0  0  0  0  0  0  0  0  0  0  0  0
   -5.0373    1.8154    0.3084 C   0  0  0  0  0  0  0  0  0  0  0  0
   -3.6807    1.5541    0.2982 C   0  0  0  0  0  0  0  0  0  0  0  0
   -5.6033    3.0430    0.4650 O   0  0  0  0  0  0  0  0  0  0  0  0
   -7.0052    2.7064    0.3915 C   0  0  0  0  0  0  0  0  0  0  0  0
   -7.2472    1.2981    0.1957 O   0  0  0  0  0  0  0  0  0  0  0  0
   -1.3740   -1.3681   -0.1269 N   0  0  0  0  0  0  0  0  0  0  0  0
    0.0003   -1.2839   -0.0513 C   0  0  0  0  0  0  0  0  0  0  0  0
    0.8486   -2.4490   -0.2465 C   0  0  0  0  0  0  0  0  0  0  0  0
    2.0156   -2.6519    0.5019 C   0  0  0  0  0  0  0  0  0  0  0  0
    2.8068   -3.7846    0.2903 C   0  0  0  0  0  0  0  0  0  0  0  0
    2.4333   -4.7298   -0.6634 C   0  0  0  0  0  0  0  0  0  0  0  0
    1.2658   -4.5481   -1.4018 C   0  0  0  0  0  0  0  0  0  0  0  0
    0.4757   -3.4156   -1.1906 C   0  0  0  0  0  0  0  0  0  0  0  0
    1.9890    1.5060    1.3901 C   0  0  0  0  0  0  0  0  0  0  0  0
    3.2254    2.1537    1.4664 C   0  0  0  0  0  0  0  0  0  0  0  0
    6.6784    1.5064   -0.4212 H   0  0  0  0  0  0  0  0  0  0  0  0
    6.0061    2.9321   -1.3051 H   0  0  0  0  0  0  0  0  0  0  0  0
    7.2094    3.1461   -0.0280 H   0  0  0  0  0  0  0  0  0  0  0  0
    4.5817    1.0398   -1.4520 H   0  0  0  0  0  0  0  0  0  0  0  0
    2.4259   -0.0842   -1.5842 H   0  0  0  0  0  0  0  0  0  0  0  0
   -0.8733    1.6970    0.4798 H   0  0  0  0  0  0  0  0  0  0  0  0
   -3.9254   -1.8207   -0.1679 H   0  0  0  0  0  0  0  0  0  0  0  0
   -6.3518   -1.2718   -0.1391 H   0  0  0  0  0  0  0  0  0  0  0  0
   -2.9886    2.3775    0.4194 H   0  0  0  0  0  0  0  0  0  0  0  0
   -7.4898    3.0195    1.3235 H   0  0  0  0  0  0  0  0  0  0  0  0
   -7.4548    3.2589   -0.4415 H   0  0  0  0  0  0  0  0  0  0  0  0
    2.3156   -1.9396    1.2661 H   0  0  0  0  0  0  0  0  0  0  0  0
    3.7101   -3.9305    0.8766 H   0  0  0  0  0  0  0  0  0  0  0  0
    3.0467   -5.6124   -0.8244 H   0  0  0  0  0  0  0  0  0  0  0  0
    0.9646   -5.2880   -2.1385 H   0  0  0  0  0  0  0  0  0  0  0  0
   -0.4391   -3.2861   -1.7660 H   0  0  0  0  0  0  0  0  0  0  0  0
    1.2792    1.6310    2.2041 H   0  0  0  0  0  0  0  0  0  0  0  0
    3.4534    2.7791    2.3263 H   0  0  0  0  0  0  0  0  0  0  0  0
  1  2  1  0
  2  3  1  0
  3  4  2  0
  4  5  1  0
  5  6  2  0
  6  7  1  0
  7  8  1  0
  8  9  1  0
  9 10  1  0
 10 11  2  0
 11 12  1  0
 12 13  2  0
 13 14  1  0
 14 15  2  0
 14 16  1  0
 16 17  1  0
 17 18  1  0
  9 19  2  0
 19 20  1  0
 20 21  1  0
 21 22  2  0
 22 23  1  0
 23 24  2  0
 24 25  1  0
 25 26  2  0
  6 27  1  0
 27 28  2  0
 28  3  1  0
 20  7  2  0
 26 21  1  0
 15 10  1  0
 18 13  1  0
  1 29  1  0
  1 30  1  0
  1 31  1  0
  4 32  1  0
  5 33  1  0
  8 34  1  0
 11 35  1  0
 12 36  1  0
 15 37  1  0
 17 38  1  0
 17 39  1  0
 22 40  1  0
 23 41  1  0
 24 42  1  0
 25 43  1  0
 26 44  1  0
 27 45  1  0
 28 46  1  0
M  END
$$$$
