
     RDKit          3D

 52 55  0  0  0  0  0  0  0  0999 V2000
   -6.8735    1.0176   -1.5562 C   0  0  0  0  0  0  0  0  0  0  0  0
   -6.4696    0.5732   -0.1766 C   0  0  0  0  0  0  0  0  0  0  0  0
   -7.4542    0.1304    0.7211 C   0  0  0  0  0  0  0  0  0  0  0  0
   -7.1096   -0.2838    2.0067 C   0  0  0  0  0  0  0  0  0  0  0  0
   -5.7797   -0.2513    2.4125 C   0  0  0  0  0  0  0  0  0  0  0  0
   -4.7915    0.1886    1.5304 C   0  0  0  0  0  0  0  0  0  0  0  0
   -5.1165    0.5825    0.2228 C   0  0  0  0  0  0  0  0  0  0  0  0
   -4.1348    1.0956   -0.6723 N   0  0  0  0  0  0  0  0  0  0  0  0
   -2.7377    0.8992   -0.5688 C   0  0  0  0  0  0  0  0  0  0  0  0
   -2.0016    2.0217   -0.4213 N   0  0  0  0  0  0  0  0  0  0  0  0
   -0.6471    1.9524   -0.2870 N   0  0  0  0  0  0  0  0  0  0  0  0
   -0.0217    0.7539   -0.3187 C   0  0  0  0  0  0  0  0  0  0  0  0
    1.4384    0.8450   -0.1808 C   0  0  0  0  0  0  0  0  0  0  0  0
    2.2873    0.6013   -1.2741 C   0  0  0  0  0  0  0  0  0  0  0  0
    3.6779    0.6908   -1.1412 C   0  0  0  0  0  0  0  0  0  0  0  0
    4.2445    1.0256    0.0941 C   0  0  0  0  0  0  0  0  0  0  0  0
    5.7185    1.1346    0.2878 C   0  0  0  0  0  0  0  0  0  0  0  0
    6.1753    1.8049    1.2075 O   0  0  0  0  0  0  0  0  0  0  0  0
    6.5080    0.4135   -0.5840 N   0  0  0  0  0  0  0  0  0  0  0  0
    7.9429    0.3128   -0.3749 C   0  0  0  0  0  0  0  0  0  0  0  0
    8.2853   -0.7388    0.6795 C   0  0  0  0  0  0  0  0  0  0  0  0
    7.8783   -2.0285    0.2159 O   0  0  0  0  0  0  0  0  0  0  0  0
    3.4075    1.2976    1.1822 C   0  0  0  0  0  0  0  0  0  0  0  0
    2.0186    1.2078    1.0449 C   0  0  0  0  0  0  0  0  0  0  0  0
   -0.7292   -0.4526   -0.4857 C   0  0  0  0  0  0  0  0  0  0  0  0
   -0.1107   -1.7292   -0.5101 C   0  0  0  0  0  0  0  0  0  0  0  0
   -0.8471   -2.8972   -0.7061 C   0  0  0  0  0  0  0  0  0  0  0  0
   -2.2190   -2.8208   -0.8856 C   0  0  0  0  0  0  0  0  0  0  0  0
   -2.8520   -1.5782   -0.8519 C   0  0  0  0  0  0  0  0  0  0  0  0
   -2.1334   -0.3758   -0.6326 C   0  0  0  0  0  0  0  0  0  0  0  0
   -6.3651    0.4128   -2.3143 H   0  0  0  0  0  0  0  0  0  0  0  0
   -6.6241    2.0733   -1.7031 H   0  0  0  0  0  0  0  0  0  0  0  0
   -7.9514    0.9063   -1.7150 H   0  0  0  0  0  0  0  0  0  0  0  0
   -8.5001    0.1080    0.4228 H   0  0  0  0  0  0  0  0  0  0  0  0
   -7.8804   -0.6233    2.6937 H   0  0  0  0  0  0  0  0  0  0  0  0
   -5.5093   -0.5598    3.4189 H   0  0  0  0  0  0  0  0  0  0  0  0
   -3.7642    0.2264    1.8838 H   0  0  0  0  0  0  0  0  0  0  0  0
   -4.2369    2.1130   -0.6626 H   0  0  0  0  0  0  0  0  0  0  0  0
    1.8636    0.3551   -2.2469 H   0  0  0  0  0  0  0  0  0  0  0  0
    4.2980    0.5274   -2.0181 H   0  0  0  0  0  0  0  0  0  0  0  0
    6.0891   -0.3609   -1.0819 H   0  0  0  0  0  0  0  0  0  0  0  0
    8.3768    0.0373   -1.3416 H   0  0  0  0  0  0  0  0  0  0  0  0
    8.3324    1.2909   -0.0748 H   0  0  0  0  0  0  0  0  0  0  0  0
    7.7770   -0.5362    1.6274 H   0  0  0  0  0  0  0  0  0  0  0  0
    9.3658   -0.7633    0.8507 H   0  0  0  0  0  0  0  0  0  0  0  0
    8.0699   -2.6528    0.9374 H   0  0  0  0  0  0  0  0  0  0  0  0
    3.8339    1.5852    2.1416 H   0  0  0  0  0  0  0  0  0  0  0  0
    1.3855    1.4315    1.9024 H   0  0  0  0  0  0  0  0  0  0  0  0
    0.9649   -1.8268   -0.3729 H   0  0  0  0  0  0  0  0  0  0  0  0
   -0.3465   -3.8620   -0.7230 H   0  0  0  0  0  0  0  0  0  0  0  0
   -2.8028   -3.7231   -1.0492 H   0  0  0  0  0  0  0  0  0  0  0  0
   -3.9298   -1.5519   -1.0042 H   0  0  0  0  0  0  0  0  0  0  0  0
  1  2  1  0
  2  3  2  0
  3  4  1  0
  4  5  2  0
  5  6  1  0
  6  7  2  0
  7  8  1  0
  8  9  1  0
  9 10  2  0
 10 11  1  0
 11 12  2  0
 12 13  1  0
 13 14  2  0
 14 15  1  0
 15 16  2  0
 16 17  1  0
 17 18  2  0
 17 19  1  0
 19 20  1  0
 20 21  1  0
 21 22  1  0
 16 23  1  0
 23 24  2  0
 12 25  1  0
 25 26  2  0
 26 27  1  0
 27 28  2  0
 28 29  1  0
 29 30  2  0
  7  2  1  0
 30  9  1  0
 24 13  1  0
 30 25  1  0
  1 31  1  0
  1 32  1  0
  1 33  1  0
  3 34  1  0
  4 35  1  0
  5 36  1  0
  6 37  1  0
  8 38  1  0
 14 39  1  0
 15 40  1  0
 19 41  1  0
 20 42  1  0
 20 43  1  0
 21 44  1  0
 21 45  1  0
 22 46  1  0
 23 47  1  0
 24 48  1  0
 26 49  1  0
 27 50  1  0
 28 51  1  0
 29 52  1  0
M  END
$$$$
