
     RDKit          3D

 33 33  0  0  0  0  0  0  0  0999 V2000
    5.5107   -0.4129    1.0460 C   0  0  0  0  0  0  0  0  0  0  0  0
    4.5941   -0.1729    1.9932 C   0  0  0  0  0  0  0  0  0  0  0  0
    4.0226    1.1741    2.2991 C   0  0  0  0  0  0  0  0  0  0  0  0
    2.6447    1.1654    1.8480 N   0  0  0  0  0  0  0  0  0  0  0  0
    1.7330    2.1640    2.1051 C   0  0  0  0  0  0  0  0  0  0  0  0
    1.9500    3.4850    3.0953 S   0  0  0  0  0  0  0  0  0  0  0  0
    0.5258    1.9825    1.4716 N   0  0  0  0  0  0  0  0  0  0  0  0
    0.1531    0.7202    0.9700 N   0  0  0  0  0  0  0  0  0  0  0  0
   -1.1572    0.5992    0.5182 C   0  0  0  0  0  0  0  0  0  0  0  0
   -1.9051    1.5658    0.3892 O   0  0  0  0  0  0  0  0  0  0  0  0
   -1.5439   -0.8463    0.1930 C   0  0  0  0  0  0  0  0  0  0  0  0
   -2.9295   -1.0189   -0.0914 O   0  0  0  0  0  0  0  0  0  0  0  0
   -3.1698   -1.0625   -1.4390 C   0  0  0  0  0  0  0  0  0  0  0  0
   -3.6225    0.1048   -2.0554 C   0  0  0  0  0  0  0  0  0  0  0  0
   -3.9217    0.0986   -3.4184 C   0  0  0  0  0  0  0  0  0  0  0  0
   -3.7848   -1.0796   -4.1526 C   0  0  0  0  0  0  0  0  0  0  0  0
   -4.1575   -1.0837   -5.8326 Cl  0  0  0  0  0  0  0  0  0  0  0  0
   -3.3551   -2.2552   -3.5384 C   0  0  0  0  0  0  0  0  0  0  0  0
   -3.0542   -2.2480   -2.1758 C   0  0  0  0  0  0  0  0  0  0  0  0
   -2.5447   -3.7218   -1.4354 Cl  0  0  0  0  0  0  0  0  0  0  0  0
    5.9008    0.3798    0.4143 H   0  0  0  0  0  0  0  0  0  0  0  0
    5.8965   -1.4154    0.8863 H   0  0  0  0  0  0  0  0  0  0  0  0
    4.2449   -0.9982    2.6105 H   0  0  0  0  0  0  0  0  0  0  0  0
    4.0658    1.3656    3.3757 H   0  0  0  0  0  0  0  0  0  0  0  0
    4.5529    1.9781    1.7771 H   0  0  0  0  0  0  0  0  0  0  0  0
    2.5037    0.7568    0.9329 H   0  0  0  0  0  0  0  0  0  0  0  0
   -0.2335    2.6452    1.6436 H   0  0  0  0  0  0  0  0  0  0  0  0
    0.5776   -0.0706    1.4509 H   0  0  0  0  0  0  0  0  0  0  0  0
   -1.3282   -1.4549    1.0788 H   0  0  0  0  0  0  0  0  0  0  0  0
   -0.8940   -1.2028   -0.6175 H   0  0  0  0  0  0  0  0  0  0  0  0
   -3.7430    1.0176   -1.4755 H   0  0  0  0  0  0  0  0  0  0  0  0
   -4.2667    1.0119   -3.8971 H   0  0  0  0  0  0  0  0  0  0  0  0
   -3.2648   -3.1709   -4.1160 H   0  0  0  0  0  0  0  0  0  0  0  0
  1  2  2  0
  2  3  1  0
  3  4  1  0
  4  5  1  0
  5  6  2  0
  5  7  1  0
  7  8  1  0
  8  9  1  0
  9 10  2  0
  9 11  1  0
 11 12  1  0
 12 13  1  0
 13 14  2  0
 14 15  1  0
 15 16  2  0
 16 17  1  0
 16 18  1  0
 18 19  2  0
 19 20  1  0
 19 13  1  0
  1 21  1  0
  1 22  1  0
  2 23  1  0
  3 24  1  0
  3 25  1  0
  4 26  1  0
  7 27  1  0
  8 28  1  0
 11 29  1  0
 11 30  1  0
 14 31  1  0
 15 32  1  0
 18 33  1  0
M  END
$$$$
