
     RDKit          3D

 96102  0  0  0  0  0  0  0  0999 V2000
   -4.6913    2.9470   -0.3433 C   0  0  0  0  0  0  0  0  0  0  0  0
   -3.7485    2.3837   -1.4046 C   0  0  0  0  0  0  0  0  0  0  0  0
   -2.5397    1.6627   -0.8270 C   0  0  0  0  0  0  0  0  0  0  0  0
   -1.3976    2.3336   -0.5610 C   0  0  0  0  0  0  0  0  0  0  0  0
   -1.2796    3.6908   -0.9172 O   0  0  0  0  0  0  0  0  0  0  0  0
   -1.5164    4.6059    0.0801 C   0  0  0  0  0  0  0  0  0  0  0  0
   -1.6999    4.3196    1.2584 O   0  0  0  0  0  0  0  0  0  0  0  0
   -1.5564    5.9118   -0.4003 N   0  0  0  0  0  0  0  0  0  0  0  0
   -1.7874    7.0020    0.5346 C   0  0  0  0  0  0  0  0  0  0  0  0
   -3.2701    7.2704    0.7241 C   0  0  0  0  0  0  0  0  0  0  0  0
   -1.3530    6.2414   -1.8104 C   0  0  0  0  0  0  0  0  0  0  0  0
    0.1123    6.4997   -2.1229 C   0  0  0  0  0  0  0  0  0  0  0  0
   -0.2600    1.6929   -0.1106 N   0  0  0  0  0  0  0  0  0  0  0  0
    0.9849    2.2721   -0.0728 C   0  0  0  0  0  0  0  0  0  0  0  0
    1.2924    3.4493   -0.1429 O   0  0  0  0  0  0  0  0  0  0  0  0
    1.9023    1.2873   -0.0305 O   0  0  0  0  0  0  0  0  0  0  0  0
    1.2528    0.1051   -0.1133 C   0  0  0  0  0  0  0  0  0  0  0  0
    1.8724   -1.0052   -0.3178 N   0  0  0  0  0  0  0  0  0  0  0  0
    3.3417   -0.9370   -0.4546 C   0  0  0  0  0  0  0  0  0  0  0  0
    3.9977   -1.0317    0.9249 C   0  0  0  0  0  0  0  0  0  0  0  0
    5.4856   -1.1477    0.8440 C   0  0  0  0  0  0  0  0  0  0  0  0
    6.3897   -0.1025    0.8759 C   0  0  0  0  0  0  0  0  0  0  0  0
    7.6523   -0.6227    0.7853 N   0  0  0  0  0  0  0  0  0  0  0  0
    7.5969   -1.9944    0.6907 C   0  0  0  0  0  0  0  0  0  0  0  0
    8.6314   -2.9331    0.5921 C   0  0  0  0  0  0  0  0  0  0  0  0
    8.2771   -4.2824    0.5162 C   0  0  0  0  0  0  0  0  0  0  0  0
    6.9420   -4.6746    0.5314 C   0  0  0  0  0  0  0  0  0  0  0  0
    5.9202   -3.7225    0.6297 C   0  0  0  0  0  0  0  0  0  0  0  0
    6.2491   -2.3538    0.7189 C   0  0  0  0  0  0  0  0  0  0  0  0
   -0.2335    0.2506    0.1864 C   0  0  0  0  0  0  0  0  0  0  0  0
   -0.3211   -0.0907    1.7073 C   0  0  0  0  0  0  0  0  0  0  0  0
   -1.6247    0.0961    2.4441 C   0  0  0  0  0  0  0  0  0  0  0  0
   -2.0840    1.3753    2.7751 C   0  0  0  0  0  0  0  0  0  0  0  0
   -3.2861    1.5448    3.4634 C   0  0  0  0  0  0  0  0  0  0  0  0
   -4.0291    0.4338    3.8551 C   0  0  0  0  0  0  0  0  0  0  0  0
   -3.5661   -0.8465    3.5643 C   0  0  0  0  0  0  0  0  0  0  0  0
   -2.3695   -1.0156    2.8657 C   0  0  0  0  0  0  0  0  0  0  0  0
   -1.2060   -0.5174   -0.7500 C   0  0  0  0  0  0  0  0  0  0  0  0
   -2.5900    0.2007   -0.6657 C   0  0  0  0  0  0  0  0  0  0  0  0
   -3.7521   -0.4414   -0.4277 C   0  0  0  0  0  0  0  0  0  0  0  0
   -3.9134   -1.9131   -0.2011 C   0  0  0  0  0  0  0  0  0  0  0  0
   -2.6345   -2.6548   -0.3333 C   0  0  0  0  0  0  0  0  0  0  0  0
   -1.3578   -2.0318   -0.5848 C   0  0  0  0  0  0  0  0  0  0  0  0
   -0.4764   -3.0817   -0.8072 C   0  0  0  0  0  0  0  0  0  0  0  0
    0.7928   -3.1404   -1.1815 O   0  0  0  0  0  0  0  0  0  0  0  0
   -1.1561   -4.2657   -0.6387 N   0  0  0  0  0  0  0  0  0  0  0  0
   -0.5795   -5.5827   -0.8593 C   0  0  0  0  0  0  0  0  0  0  0  0
   -0.5987   -5.9723   -2.3169 C   0  0  0  0  0  0  0  0  0  0  0  0
   -1.3386   -5.5196   -3.1847 O   0  0  0  0  0  0  0  0  0  0  0  0
    0.3191   -6.9656   -2.5367 O   0  0  0  0  0  0  0  0  0  0  0  0
    0.3791   -7.3976   -3.8967 C   0  0  0  0  0  0  0  0  0  0  0  0
   -2.4587   -4.0227   -0.3055 C   0  0  0  0  0  0  0  0  0  0  0  0
   -3.3017   -5.0247   -0.0868 O   0  0  0  0  0  0  0  0  0  0  0  0
   -5.4172    3.6223   -0.8079 H   0  0  0  0  0  0  0  0  0  0  0  0
   -5.2538    2.1626    0.1685 H   0  0  0  0  0  0  0  0  0  0  0  0
   -4.1508    3.5119    0.4177 H   0  0  0  0  0  0  0  0  0  0  0  0
   -4.3027    1.7344   -2.0941 H   0  0  0  0  0  0  0  0  0  0  0  0
   -3.4132    3.2143   -2.0379 H   0  0  0  0  0  0  0  0  0  0  0  0
   -1.3363    6.7525    1.5004 H   0  0  0  0  0  0  0  0  0  0  0  0
   -1.2807    7.9007    0.1655 H   0  0  0  0  0  0  0  0  0  0  0  0
   -3.7799    6.3950    1.1419 H   0  0  0  0  0  0  0  0  0  0  0  0
   -3.7505    7.5186   -0.2267 H   0  0  0  0  0  0  0  0  0  0  0  0
   -3.4200    8.1107    1.4072 H   0  0  0  0  0  0  0  0  0  0  0  0
   -1.7196    5.4243   -2.4406 H   0  0  0  0  0  0  0  0  0  0  0  0
   -1.9582    7.1229   -2.0531 H   0  0  0  0  0  0  0  0  0  0  0  0
    0.7297    5.6311   -1.8672 H   0  0  0  0  0  0  0  0  0  0  0  0
    0.4925    7.3551   -1.5520 H   0  0  0  0  0  0  0  0  0  0  0  0
    0.2408    6.7109   -3.1899 H   0  0  0  0  0  0  0  0  0  0  0  0
    3.6564   -1.7840   -1.0745 H   0  0  0  0  0  0  0  0  0  0  0  0
    3.6705   -0.0411   -0.9939 H   0  0  0  0  0  0  0  0  0  0  0  0
    3.5886   -1.8890    1.4726 H   0  0  0  0  0  0  0  0  0  0  0  0
    3.7326   -0.1465    1.5171 H   0  0  0  0  0  0  0  0  0  0  0  0
    6.2366    0.9665    0.9604 H   0  0  0  0  0  0  0  0  0  0  0  0
    8.5073   -0.0834    0.7991 H   0  0  0  0  0  0  0  0  0  0  0  0
    9.6729   -2.6305    0.5823 H   0  0  0  0  0  0  0  0  0  0  0  0
    9.0588   -5.0336    0.4390 H   0  0  0  0  0  0  0  0  0  0  0  0
    6.6889   -5.7303    0.4710 H   0  0  0  0  0  0  0  0  0  0  0  0
    4.8828   -4.0426    0.6452 H   0  0  0  0  0  0  0  0  0  0  0  0
    0.4325    0.4891    2.2627 H   0  0  0  0  0  0  0  0  0  0  0  0
    0.0008   -1.1328    1.8451 H   0  0  0  0  0  0  0  0  0  0  0  0
   -1.5078    2.2570    2.5071 H   0  0  0  0  0  0  0  0  0  0  0  0
   -3.6323    2.5491    3.6948 H   0  0  0  0  0  0  0  0  0  0  0  0
   -4.9640    0.5636    4.3940 H   0  0  0  0  0  0  0  0  0  0  0  0
   -4.1359   -1.7152    3.8829 H   0  0  0  0  0  0  0  0  0  0  0  0
   -2.0241   -2.0255    2.6527 H   0  0  0  0  0  0  0  0  0  0  0  0
   -0.8541   -0.3823   -1.7858 H   0  0  0  0  0  0  0  0  0  0  0  0
   -4.6849    0.1054   -0.3475 H   0  0  0  0  0  0  0  0  0  0  0  0
   -4.3458   -2.0883    0.7913 H   0  0  0  0  0  0  0  0  0  0  0  0
   -4.6336   -2.2977   -0.9338 H   0  0  0  0  0  0  0  0  0  0  0  0
    1.2100   -2.2723   -1.0003 H   0  0  0  0  0  0  0  0  0  0  0  0
   -1.1410   -6.3206   -0.2792 H   0  0  0  0  0  0  0  0  0  0  0  0
    0.4509   -5.5564   -0.4895 H   0  0  0  0  0  0  0  0  0  0  0  0
    1.1330   -8.1856   -3.9718 H   0  0  0  0  0  0  0  0  0  0  0  0
    0.6784   -6.5731   -4.5521 H   0  0  0  0  0  0  0  0  0  0  0  0
   -0.5846   -7.8112   -4.2129 H   0  0  0  0  0  0  0  0  0  0  0  0
   -4.1871   -4.6408    0.0306 H   0  0  0  0  0  0  0  0  0  0  0  0
  1  2  1  0
  2  3  1  0
  3  4  2  0
  4  5  1  0
  5  6  1  0
  6  7  2  0
  6  8  1  0
  8  9  1  0
  9 10  1  0
  8 11  1  0
 11 12  1  0
  4 13  1  0
 13 14  1  0
 14 15  2  0
 14 16  1  0
 16 17  1  0
 17 18  2  3
 18 19  1  0
 19 20  1  0
 20 21  1  0
 21 22  2  0
 22 23  1  0
 23 24  1  0
 24 25  2  0
 25 26  1  0
 26 27  2  0
 27 28  1  0
 28 29  2  0
 17 30  1  0
 30 31  1  0
 31 32  1  0
 32 33  2  0
 33 34  1  0
 34 35  2  0
 35 36  1  0
 36 37  2  0
 30 38  1  0
 38 39  1  0
 39 40  2  0
 40 41  1  0
 41 42  1  0
 42 43  1  0
 43 44  2  0
 44 45  1  0
 44 46  1  0
 46 47  1  0
 47 48  1  0
 48 49  2  0
 48 50  1  0
 50 51  1  0
 46 52  1  0
 52 53  1  0
 39  3  1  0
 52 42  2  0
 30 13  1  0
 37 32  1  0
 43 38  1  0
 29 21  1  0
 29 24  1  0
  1 54  1  0
  1 55  1  0
  1 56  1  0
  2 57  1  0
  2 58  1  0
  9 59  1  0
  9 60  1  0
 10 61  1  0
 10 62  1  0
 10 63  1  0
 11 64  1  0
 11 65  1  0
 12 66  1  0
 12 67  1  0
 12 68  1  0
 19 69  1  0
 19 70  1  0
 20 71  1  0
 20 72  1  0
 22 73  1  0
 23 74  1  0
 25 75  1  0
 26 76  1  0
 27 77  1  0
 28 78  1  0
 31 79  1  0
 31 80  1  0
 33 81  1  0
 34 82  1  0
 35 83  1  0
 36 84  1  0
 37 85  1  0
 38 86  1  0
 40 87  1  0
 41 88  1  0
 41 89  1  0
 45 90  1  0
 47 91  1  0
 47 92  1  0
 51 93  1  0
 51 94  1  0
 51 95  1  0
 53 96  1  0
M  END
$$$$
