
     RDKit          3D

 52 55  0  0  0  0  0  0  0  0999 V2000
    4.2916   -4.6115    2.1778 N   0  0  0  0  0  0  0  0  0  0  0  0
    4.4781   -3.4188    1.0035 S   0  0  0  0  0  6  0  0  0  0  0  0
    5.8780   -3.0619    1.0312 O   0  0  0  0  0  0  0  0  0  0  0  0
    3.8123   -3.8636   -0.1969 O   0  0  0  0  0  0  0  0  0  0  0  0
    3.5423   -2.0851    1.7021 C   0  0  0  0  0  0  0  0  0  0  0  0
    2.1602   -2.0431    1.5030 C   0  0  0  0  0  0  0  0  0  0  0  0
    1.4203   -0.9939    2.0485 C   0  0  0  0  0  0  0  0  0  0  0  0
    2.0559    0.0175    2.7847 C   0  0  0  0  0  0  0  0  0  0  0  0
    1.2529    1.1690    3.3490 C   0  0  0  0  0  0  0  0  0  0  0  0
    1.3002    2.4158    2.4585 C   0  0  0  0  0  0  0  0  0  0  0  0
    0.6890    2.2088    1.1585 N   0  0  0  0  0  0  0  0  0  0  0  0
   -0.6792    2.2130    0.9998 C   0  0  0  0  0  0  0  0  0  0  0  0
   -1.4746    2.4464    1.9008 O   0  0  0  0  0  0  0  0  0  0  0  0
   -1.1686    1.8062   -0.3373 C   0  0  0  0  0  0  0  0  0  0  0  0
   -2.1071    0.7720   -0.3500 C   0  0  0  0  0  0  0  0  0  0  0  0
   -2.5591    0.2986   -1.5689 C   0  0  0  0  0  0  0  0  0  0  0  0
   -3.5392   -0.8021   -1.6992 C   0  0  0  0  0  0  0  0  0  0  0  0
   -4.4008   -0.8663   -2.8113 C   0  0  0  0  0  0  0  0  0  0  0  0
   -5.3382   -1.8938   -2.9551 C   0  0  0  0  0  0  0  0  0  0  0  0
   -5.4332   -2.8886   -1.9879 C   0  0  0  0  0  0  0  0  0  0  0  0
   -4.5896   -2.8575   -0.8819 C   0  0  0  0  0  0  0  0  0  0  0  0
   -3.6529   -1.8272   -0.7409 C   0  0  0  0  0  0  0  0  0  0  0  0
   -2.1158    0.8328   -2.7341 N   0  0  0  0  0  0  0  0  0  0  0  0
   -1.2382    1.8499   -2.7218 C   0  0  0  0  0  0  0  0  0  0  0  0
   -0.8314    2.3773   -3.9402 C   0  0  0  0  0  0  0  0  0  0  0  0
    0.0588    3.4499   -4.0235 C   0  0  0  0  0  0  0  0  0  0  0  0
    0.5535    4.0220   -2.8614 C   0  0  0  0  0  0  0  0  0  0  0  0
    0.1641    3.5080   -1.6260 C   0  0  0  0  0  0  0  0  0  0  0  0
   -0.7225    2.4027   -1.5364 C   0  0  0  0  0  0  0  0  0  0  0  0
    3.4466   -0.0318    2.9625 C   0  0  0  0  0  0  0  0  0  0  0  0
    4.1924   -1.0798    2.4211 C   0  0  0  0  0  0  0  0  0  0  0  0
    3.6028   -4.3714    2.8898 H   0  0  0  0  0  0  0  0  0  0  0  0
    5.2052   -4.8189    2.5849 H   0  0  0  0  0  0  0  0  0  0  0  0
    1.6582   -2.8158    0.9233 H   0  0  0  0  0  0  0  0  0  0  0  0
    0.3435   -0.9627    1.8911 H   0  0  0  0  0  0  0  0  0  0  0  0
    0.2153    0.8497    3.5072 H   0  0  0  0  0  0  0  0  0  0  0  0
    1.6460    1.4185    4.3426 H   0  0  0  0  0  0  0  0  0  0  0  0
    0.7755    3.2377    2.9586 H   0  0  0  0  0  0  0  0  0  0  0  0
    2.3330    2.7338    2.2797 H   0  0  0  0  0  0  0  0  0  0  0  0
    1.2627    1.8012    0.4284 H   0  0  0  0  0  0  0  0  0  0  0  0
   -2.4717    0.3628    0.5866 H   0  0  0  0  0  0  0  0  0  0  0  0
   -4.3448   -0.0994   -3.5830 H   0  0  0  0  0  0  0  0  0  0  0  0
   -5.9894   -1.9133   -3.8250 H   0  0  0  0  0  0  0  0  0  0  0  0
   -6.1595   -3.6892   -2.0990 H   0  0  0  0  0  0  0  0  0  0  0  0
   -4.6548   -3.6383   -0.1283 H   0  0  0  0  0  0  0  0  0  0  0  0
   -2.9995   -1.8515    0.1277 H   0  0  0  0  0  0  0  0  0  0  0  0
   -1.2260    1.9422   -4.8563 H   0  0  0  0  0  0  0  0  0  0  0  0
    0.3508    3.8386   -4.9957 H   0  0  0  0  0  0  0  0  0  0  0  0
    1.2331    4.8689   -2.9134 H   0  0  0  0  0  0  0  0  0  0  0  0
    0.5447    3.9923   -0.7290 H   0  0  0  0  0  0  0  0  0  0  0  0
    3.9575    0.7501    3.5217 H   0  0  0  0  0  0  0  0  0  0  0  0
    5.2713   -1.1004    2.5602 H   0  0  0  0  0  0  0  0  0  0  0  0
  1  2  1  0
  2  3  2  0
  2  4  2  0
  2  5  1  0
  5  6  2  0
  6  7  1  0
  7  8  2  0
  8  9  1  0
  9 10  1  0
 10 11  1  0
 11 12  1  0
 12 13  2  0
 12 14  1  0
 14 15  2  0
 15 16  1  0
 16 17  1  0
 17 18  2  0
 18 19  1  0
 19 20  2  0
 20 21  1  0
 21 22  2  0
 16 23  2  0
 23 24  1  0
 24 25  2  0
 25 26  1  0
 26 27  2  0
 27 28  1  0
 28 29  2  0
  8 30  1  0
 30 31  2  0
 31  5  1  0
 29 14  1  0
 22 17  1  0
 29 24  1  0
  1 32  1  0
  1 33  1  0
  6 34  1  0
  7 35  1  0
  9 36  1  0
  9 37  1  0
 10 38  1  0
 10 39  1  0
 11 40  1  0
 15 41  1  0
 18 42  1  0
 19 43  1  0
 20 44  1  0
 21 45  1  0
 22 46  1  0
 25 47  1  0
 26 48  1  0
 27 49  1  0
 28 50  1  0
 30 51  1  0
 31 52  1  0
M  END
$$$$
