
     RDKit          3D

 57 58  0  0  0  0  0  0  0  0999 V2000
    4.9900    1.5615    2.5712 C   0  0  0  0  0  0  0  0  0  0  0  0
    5.8752    1.1804    1.4163 C   0  0  0  0  0  0  0  0  0  0  0  0
    7.2325    0.9051    1.6433 C   0  0  0  0  0  0  0  0  0  0  0  0
    8.0681    0.5468    0.5877 C   0  0  0  0  0  0  0  0  0  0  0  0
    7.5538    0.4578   -0.7020 C   0  0  0  0  0  0  0  0  0  0  0  0
    6.2042    0.7307   -0.9407 C   0  0  0  0  0  0  0  0  0  0  0  0
    5.3583    1.0996    0.1096 C   0  0  0  0  0  0  0  0  0  0  0  0
    4.0231    1.3778   -0.0119 O   0  0  0  0  0  0  0  0  0  0  0  0
    3.4517    1.5269   -1.3132 C   0  0  0  0  0  0  0  0  0  0  0  0
    2.9304    0.1952   -1.8318 C   0  0  0  0  0  0  0  0  0  0  0  0
    1.6820   -0.2168   -1.0962 C   0  0  0  0  0  0  0  0  0  0  0  0
    0.8101    0.5434   -0.6980 O   0  0  0  0  0  0  0  0  0  0  0  0
    1.6269   -1.5748   -0.9902 O   0  0  0  0  0  0  0  0  0  0  0  0
    0.4260   -2.0609   -0.3820 C   0  0  0  0  0  0  0  0  0  0  0  0
   -0.7927   -1.8928   -1.2933 C   0  0  0  0  0  0  0  0  0  0  0  0
   -0.6734   -1.8250   -2.5229 O   0  0  0  0  0  0  0  0  0  0  0  0
   -2.1455   -1.7688   -0.6562 C   0  0  0  0  0  0  0  0  0  0  0  0
   -3.0901   -0.9730   -1.2089 C   0  0  0  0  0  0  0  0  0  0  0  0
   -2.8549   -0.2832   -2.3960 N   0  0  0  0  0  0  0  0  0  0  0  0
   -4.3267   -0.8390   -0.5728 N   0  0  0  0  0  0  0  0  0  0  0  0
   -5.3338    0.1180   -1.0730 C   0  0  0  0  0  0  0  0  0  0  0  0
   -5.2558    1.5515   -0.4906 C   0  0  0  0  0  0  0  0  0  0  0  0
   -3.9774    2.2960   -0.8729 C   0  0  0  0  0  0  0  0  0  0  0  0
   -5.4575    1.6057    1.0238 C   0  0  0  0  0  0  0  0  0  0  0  0
   -4.6723   -1.5445    0.5823 C   0  0  0  0  0  0  0  0  0  0  0  0
   -5.7961   -1.4839    1.0863 O   0  0  0  0  0  0  0  0  0  0  0  0
   -3.6810   -2.3277    1.1440 N   0  0  0  0  0  0  0  0  0  0  0  0
   -4.0206   -3.0545    2.3545 C   0  0  0  0  0  0  0  0  0  0  0  0
   -2.4456   -2.5218    0.5772 C   0  0  0  0  0  0  0  0  0  0  0  0
   -1.6109   -3.3048    1.0294 O   0  0  0  0  0  0  0  0  0  0  0  0
    5.5456    1.5790    3.5145 H   0  0  0  0  0  0  0  0  0  0  0  0
    4.5712    2.5610    2.4150 H   0  0  0  0  0  0  0  0  0  0  0  0
    4.1761    0.8378    2.6796 H   0  0  0  0  0  0  0  0  0  0  0  0
    7.6452    0.9684    2.6478 H   0  0  0  0  0  0  0  0  0  0  0  0
    9.1177    0.3340    0.7729 H   0  0  0  0  0  0  0  0  0  0  0  0
    8.2033    0.1712   -1.5254 H   0  0  0  0  0  0  0  0  0  0  0  0
    5.8479    0.6343   -1.9601 H   0  0  0  0  0  0  0  0  0  0  0  0
    2.6321    2.2484   -1.2144 H   0  0  0  0  0  0  0  0  0  0  0  0
    4.1580    1.9850   -2.0155 H   0  0  0  0  0  0  0  0  0  0  0  0
    3.6869   -0.5866   -1.7083 H   0  0  0  0  0  0  0  0  0  0  0  0
    2.6731    0.2719   -2.8933 H   0  0  0  0  0  0  0  0  0  0  0  0
    0.5746   -3.1310   -0.2078 H   0  0  0  0  0  0  0  0  0  0  0  0
    0.2768   -1.5637    0.5829 H   0  0  0  0  0  0  0  0  0  0  0  0
   -3.6172   -0.3949   -3.0568 H   0  0  0  0  0  0  0  0  0  0  0  0
   -1.9879   -0.5882   -2.8585 H   0  0  0  0  0  0  0  0  0  0  0  0
   -6.3317   -0.2818   -0.8493 H   0  0  0  0  0  0  0  0  0  0  0  0
   -5.3055    0.1619   -2.1667 H   0  0  0  0  0  0  0  0  0  0  0  0
   -6.0900    2.1079   -0.9400 H   0  0  0  0  0  0  0  0  0  0  0  0
   -3.8407    2.3067   -1.9588 H   0  0  0  0  0  0  0  0  0  0  0  0
   -4.0282    3.3391   -0.5410 H   0  0  0  0  0  0  0  0  0  0  0  0
   -3.0921    1.8489   -0.4103 H   0  0  0  0  0  0  0  0  0  0  0  0
   -5.5116    2.6451    1.3669 H   0  0  0  0  0  0  0  0  0  0  0  0
   -6.3947    1.1187    1.3115 H   0  0  0  0  0  0  0  0  0  0  0  0
   -4.6333    1.1255    1.5608 H   0  0  0  0  0  0  0  0  0  0  0  0
   -4.4903   -2.3738    3.0721 H   0  0  0  0  0  0  0  0  0  0  0  0
   -3.1447   -3.5097    2.8242 H   0  0  0  0  0  0  0  0  0  0  0  0
   -4.7385   -3.8405    2.0988 H   0  0  0  0  0  0  0  0  0  0  0  0
  1  2  1  0
  2  3  2  0
  3  4  1  0
  4  5  2  0
  5  6  1  0
  6  7  2  0
  7  8  1  0
  8  9  1  0
  9 10  1  0
 10 11  1  0
 11 12  2  0
 11 13  1  0
 13 14  1  0
 14 15  1  0
 15 16  2  0
 15 17  1  0
 17 18  2  0
 18 19  1  0
 18 20  1  0
 20 21  1  0
 21 22  1  0
 22 23  1  0
 22 24  1  0
 20 25  1  0
 25 26  2  0
 25 27  1  0
 27 28  1  0
 27 29  1  0
 29 30  2  0
  7  2  1  0
 29 17  1  0
  1 31  1  0
  1 32  1  0
  1 33  1  0
  3 34  1  0
  4 35  1  0
  5 36  1  0
  6 37  1  0
  9 38  1  0
  9 39  1  0
 10 40  1  0
 10 41  1  0
 14 42  1  0
 14 43  1  0
 19 44  1  0
 19 45  1  0
 21 46  1  0
 21 47  1  0
 22 48  1  0
 23 49  1  0
 23 50  1  0
 23 51  1  0
 24 52  1  0
 24 53  1  0
 24 54  1  0
 28 55  1  0
 28 56  1  0
 28 57  1  0
M  END
$$$$
