
     RDKit          3D

 52 56  0  0  0  0  0  0  0  0999 V2000
    0.4844    1.1678    3.1600 O   0  0  0  0  0  0  0  0  0  0  0  0
    0.3671    0.8862    1.9716 C   0  0  0  0  0  0  0  0  0  0  0  0
    1.5647    0.9884    1.1149 C   0  0  0  0  0  0  0  0  0  0  0  0
    2.1431   -0.2007    0.6742 C   0  0  0  0  0  0  0  0  0  0  0  0
    3.2666   -0.1200   -0.1280 C   0  0  0  0  0  0  0  0  0  0  0  0
    3.9381   -1.3061   -0.6824 C   0  0  0  0  0  0  0  0  0  0  0  0
    4.0991   -1.4013   -2.0807 C   0  0  0  0  0  0  0  0  0  0  0  0
    4.7129   -2.5074   -2.6742 C   0  0  0  0  0  0  0  0  0  0  0  0
    5.1886   -3.5450   -1.8807 C   0  0  0  0  0  0  0  0  0  0  0  0
    5.0580   -3.4708   -0.4953 C   0  0  0  0  0  0  0  0  0  0  0  0
    4.4431   -2.3613    0.1014 C   0  0  0  0  0  0  0  0  0  0  0  0
    4.3770   -2.3466    1.8323 Cl  0  0  0  0  0  0  0  0  0  0  0  0
    3.7892    1.0726   -0.5084 N   0  0  0  0  0  0  0  0  0  0  0  0
    3.2434    2.2144   -0.0571 C   0  0  0  0  0  0  0  0  0  0  0  0
    3.8201    3.4185   -0.4396 C   0  0  0  0  0  0  0  0  0  0  0  0
    3.3106    4.6502   -0.0189 C   0  0  0  0  0  0  0  0  0  0  0  0
    2.1959    4.6797    0.8064 C   0  0  0  0  0  0  0  0  0  0  0  0
    1.4938    6.3351    1.3839 Br  0  0  0  0  0  0  0  0  0  0  0  0
    1.5942    3.4902    1.2066 C   0  0  0  0  0  0  0  0  0  0  0  0
    2.1117    2.2422    0.7776 C   0  0  0  0  0  0  0  0  0  0  0  0
   -0.8212    0.4720    1.3864 N   0  0  0  0  0  0  0  0  0  0  0  0
   -2.0100    0.3272    2.2278 C   0  0  0  0  0  0  0  0  0  0  0  0
   -2.9574   -0.7893    1.7489 C   0  0  0  0  0  0  0  0  0  0  0  0
   -3.2446   -0.7154    0.3029 N   0  0  0  0  0  0  0  0  0  0  0  0
   -4.5581   -0.9462   -0.1061 C   0  0  0  0  0  0  0  0  0  0  0  0
   -5.3070   -1.9870    0.4483 C   0  0  0  0  0  0  0  0  0  0  0  0
   -6.6143   -2.2178    0.0201 C   0  0  0  0  0  0  0  0  0  0  0  0
   -7.1547   -1.4093   -0.9658 C   0  0  0  0  0  0  0  0  0  0  0  0
   -6.3548   -0.4098   -1.4835 C   0  0  0  0  0  0  0  0  0  0  0  0
   -5.0855   -0.1725   -1.0813 N   0  0  0  0  0  0  0  0  0  0  0  0
   -2.5155    0.3062   -0.4631 C   0  0  0  0  0  0  0  0  0  0  0  0
   -1.0294    0.3125   -0.0615 C   0  0  0  0  0  0  0  0  0  0  0  0
    1.7168   -1.1587    0.9540 H   0  0  0  0  0  0  0  0  0  0  0  0
    3.7408   -0.5941   -2.7193 H   0  0  0  0  0  0  0  0  0  0  0  0
    4.8220   -2.5519   -3.7552 H   0  0  0  0  0  0  0  0  0  0  0  0
    5.6706   -4.4057   -2.3377 H   0  0  0  0  0  0  0  0  0  0  0  0
    5.4473   -4.2786    0.1201 H   0  0  0  0  0  0  0  0  0  0  0  0
    4.6970    3.3982   -1.0838 H   0  0  0  0  0  0  0  0  0  0  0  0
    3.7946    5.5688   -0.3396 H   0  0  0  0  0  0  0  0  0  0  0  0
    0.7261    3.5272    1.8625 H   0  0  0  0  0  0  0  0  0  0  0  0
   -2.5301    1.2930    2.2046 H   0  0  0  0  0  0  0  0  0  0  0  0
   -1.7206    0.1414    3.2678 H   0  0  0  0  0  0  0  0  0  0  0  0
   -2.4912   -1.7620    1.9471 H   0  0  0  0  0  0  0  0  0  0  0  0
   -3.8704   -0.7286    2.3542 H   0  0  0  0  0  0  0  0  0  0  0  0
   -4.8747   -2.6397    1.1989 H   0  0  0  0  0  0  0  0  0  0  0  0
   -7.1957   -3.0277    0.4501 H   0  0  0  0  0  0  0  0  0  0  0  0
   -8.1654   -1.5577   -1.3268 H   0  0  0  0  0  0  0  0  0  0  0  0
   -6.7204    0.2512   -2.2638 H   0  0  0  0  0  0  0  0  0  0  0  0
   -2.9485    1.2982   -0.2793 H   0  0  0  0  0  0  0  0  0  0  0  0
   -2.5715    0.1007   -1.5394 H   0  0  0  0  0  0  0  0  0  0  0  0
   -0.5049    1.1117   -0.5952 H   0  0  0  0  0  0  0  0  0  0  0  0
   -0.5708   -0.6425   -0.3435 H   0  0  0  0  0  0  0  0  0  0  0  0
  1  2  2  0
  2  3  1  0
  3  4  2  0
  4  5  1  0
  5  6  1  0
  6  7  2  0
  7  8  1  0
  8  9  2  0
  9 10  1  0
 10 11  2  0
 11 12  1  0
  5 13  2  0
 13 14  1  0
 14 15  2  0
 15 16  1  0
 16 17  2  0
 17 18  1  0
 17 19  1  0
 19 20  2  0
  2 21  1  0
 21 22  1  0
 22 23  1  0
 23 24  1  0
 24 25  1  0
 25 26  2  0
 26 27  1  0
 27 28  2  0
 28 29  1  0
 29 30  2  0
 24 31  1  0
 31 32  1  0
 20  3  1  0
 32 21  1  0
 11  6  1  0
 20 14  1  0
 30 25  1  0
  4 33  1  0
  7 34  1  0
  8 35  1  0
  9 36  1  0
 10 37  1  0
 15 38  1  0
 16 39  1  0
 19 40  1  0
 22 41  1  0
 22 42  1  0
 23 43  1  0
 23 44  1  0
 26 45  1  0
 27 46  1  0
 28 47  1  0
 29 48  1  0
 31 49  1  0
 31 50  1  0
 32 51  1  0
 32 52  1  0
M  END
$$$$
