
     RDKit          3D

 39 42  0  0  0  0  0  0  0  0999 V2000
    0.2337   -5.1585   -1.6637 N   0  0  0  0  0  0  0  0  0  0  0  0
    0.3006   -4.0107   -1.5001 C   0  0  0  0  0  0  0  0  0  0  0  0
    0.4067   -2.5628   -1.2774 C   0  0  0  0  0  0  0  0  0  0  0  0
   -1.2215   -1.7453   -1.2990 S   0  0  0  0  0  0  0  0  0  0  0  0
   -0.7542   -0.1339   -0.7646 C   0  0  0  0  0  0  0  0  0  0  0  0
    0.4669    0.2107   -1.0310 N   0  0  0  0  0  0  0  0  0  0  0  0
    0.8351    1.4740   -0.7071 C   0  0  0  0  0  0  0  0  0  0  0  0
    0.0182    2.3941   -0.2056 C   0  0  0  0  0  0  0  0  0  0  0  0
    0.7737    3.9003    0.0939 S   0  0  0  0  0  0  0  0  0  0  0  0
    2.3263    3.2554   -0.4958 C   0  0  0  0  0  0  0  0  0  0  0  0
    3.7220    4.1620   -0.5346 S   0  0  0  0  0  0  0  0  0  0  0  0
    2.1300    1.9285   -0.8880 N   0  0  0  0  0  0  0  0  0  0  0  0
    3.1761    1.0428   -1.4042 C   0  0  0  0  0  0  0  0  0  0  0  0
    3.6990    0.1709   -0.3156 C   0  0  0  0  0  0  0  0  0  0  0  0
    4.4691    0.4065    0.8058 C   0  0  0  0  0  0  0  0  0  0  0  0
    4.6460   -0.8457    1.4414 C   0  0  0  0  0  0  0  0  0  0  0  0
    3.9800   -1.7663    0.6683 C   0  0  0  0  0  0  0  0  0  0  0  0
    3.3986   -1.1601   -0.3986 O   0  0  0  0  0  0  0  0  0  0  0  0
   -1.3806    2.0542    0.0794 C   0  0  0  0  0  0  0  0  0  0  0  0
   -2.1385    2.9045    0.5414 O   0  0  0  0  0  0  0  0  0  0  0  0
   -1.7084    0.7119   -0.1792 N   0  0  0  0  0  0  0  0  0  0  0  0
   -3.0187    0.2719    0.2116 C   0  0  0  0  0  0  0  0  0  0  0  0
   -4.1577    1.0028   -0.1678 C   0  0  0  0  0  0  0  0  0  0  0  0
   -5.4342    0.5912    0.2250 C   0  0  0  0  0  0  0  0  0  0  0  0
   -5.5769   -0.5443    1.0104 C   0  0  0  0  0  0  0  0  0  0  0  0
   -6.7995   -0.9376    1.3888 F   0  0  0  0  0  0  0  0  0  0  0  0
   -4.4666   -1.2717    1.4177 C   0  0  0  0  0  0  0  0  0  0  0  0
   -3.1890   -0.8612    1.0258 C   0  0  0  0  0  0  0  0  0  0  0  0
    1.0426   -2.1242   -2.0531 H   0  0  0  0  0  0  0  0  0  0  0  0
    0.8761   -2.3878   -0.3040 H   0  0  0  0  0  0  0  0  0  0  0  0
    3.9982    1.6290   -1.8258 H   0  0  0  0  0  0  0  0  0  0  0  0
    2.7679    0.4466   -2.2290 H   0  0  0  0  0  0  0  0  0  0  0  0
    4.8610    1.3633    1.1235 H   0  0  0  0  0  0  0  0  0  0  0  0
    5.1986   -1.0535    2.3472 H   0  0  0  0  0  0  0  0  0  0  0  0
    3.8370   -2.8360    0.7370 H   0  0  0  0  0  0  0  0  0  0  0  0
   -4.0688    1.8963   -0.7827 H   0  0  0  0  0  0  0  0  0  0  0  0
   -6.3136    1.1534   -0.0734 H   0  0  0  0  0  0  0  0  0  0  0  0
   -4.6007   -2.1472    2.0455 H   0  0  0  0  0  0  0  0  0  0  0  0
   -2.3349   -1.4235    1.3947 H   0  0  0  0  0  0  0  0  0  0  0  0
  1  2  3  0
  2  3  1  0
  3  4  1  0
  4  5  1  0
  5  6  2  0
  6  7  1  0
  7  8  2  0
  8  9  1  0
  9 10  1  0
 10 11  2  0
 10 12  1  0
 12 13  1  0
 13 14  1  0
 14 15  2  0
 15 16  1  0
 16 17  2  0
 17 18  1  0
  8 19  1  0
 19 20  2  0
 19 21  1  0
 21 22  1  0
 22 23  2  0
 23 24  1  0
 24 25  2  0
 25 26  1  0
 25 27  1  0
 27 28  2  0
 21  5  1  0
 28 22  1  0
 12  7  1  0
 18 14  1  0
  3 29  1  0
  3 30  1  0
 13 31  1  0
 13 32  1  0
 15 33  1  0
 16 34  1  0
 17 35  1  0
 23 36  1  0
 24 37  1  0
 27 38  1  0
 28 39  1  0
M  END
$$$$
