
     RDKit          3D

 49 52  0  0  0  0  0  0  0  0999 V2000
    1.0231   -0.1060    0.5746 O   0  0  0  0  0  0  0  0  0  0  0  0
    0.8364    0.5110   -0.4701 C   0  0  0  0  0  0  0  0  0  0  0  0
    1.9812    0.9538   -1.3931 C   0  0  0  0  0  0  0  0  0  0  0  0
    3.2567    0.9610   -0.6992 N   0  0  0  0  0  0  0  0  0  0  0  0
    4.0698   -0.1360   -0.8773 N   0  0  0  0  0  0  0  0  0  0  0  0
    5.1878   -0.1710   -0.2199 C   0  0  0  0  0  0  0  0  0  0  0  0
    6.0820   -1.3511   -0.3818 C   0  0  0  0  0  0  0  0  0  0  0  0
    7.4783   -1.2225   -0.4042 C   0  0  0  0  0  0  0  0  0  0  0  0
    8.2788   -2.3560   -0.5681 C   0  0  0  0  0  0  0  0  0  0  0  0
    7.6839   -3.6049   -0.7153 C   0  0  0  0  0  0  0  0  0  0  0  0
    8.4566   -4.6871   -0.8731 F   0  0  0  0  0  0  0  0  0  0  0  0
    6.3012   -3.7452   -0.7079 C   0  0  0  0  0  0  0  0  0  0  0  0
    5.4967   -2.6159   -0.5456 C   0  0  0  0  0  0  0  0  0  0  0  0
    5.6341    0.8858    0.7154 C   0  0  0  0  0  0  0  0  0  0  0  0
    4.8384    1.9475    0.8531 C   0  0  0  0  0  0  0  0  0  0  0  0
    3.5681    2.0429    0.1082 C   0  0  0  0  0  0  0  0  0  0  0  0
    2.8689    3.0456    0.2334 O   0  0  0  0  0  0  0  0  0  0  0  0
   -0.4073    0.8563   -0.9945 N   0  0  0  0  0  0  0  0  0  0  0  0
   -1.6777    0.5750   -0.4500 C   0  0  0  0  0  0  0  0  0  0  0  0
   -2.7908    1.0878   -1.1313 C   0  0  0  0  0  0  0  0  0  0  0  0
   -4.0896    0.8583   -0.6616 C   0  0  0  0  0  0  0  0  0  0  0  0
   -4.2882    0.1113    0.5035 C   0  0  0  0  0  0  0  0  0  0  0  0
   -5.6485   -0.1635    1.0406 C   0  0  0  0  0  0  0  0  0  0  0  0
   -5.8695   -1.2046    1.6489 O   0  0  0  0  0  0  0  0  0  0  0  0
   -6.5899    0.8285    0.8345 N   0  0  0  0  0  0  0  0  0  0  0  0
   -7.9210    0.7206    1.3421 C   0  0  0  0  0  0  0  0  0  0  0  0
   -9.0366    0.2462    0.4533 C   0  0  0  0  0  0  0  0  0  0  0  0
   -8.9911    1.6789    0.8958 C   0  0  0  0  0  0  0  0  0  0  0  0
   -3.1835   -0.4208    1.1739 C   0  0  0  0  0  0  0  0  0  0  0  0
   -1.8860   -0.1842    0.7027 C   0  0  0  0  0  0  0  0  0  0  0  0
    2.0324    0.2644   -2.2430 H   0  0  0  0  0  0  0  0  0  0  0  0
    1.7763    1.9621   -1.7703 H   0  0  0  0  0  0  0  0  0  0  0  0
    7.9575   -0.2512   -0.3215 H   0  0  0  0  0  0  0  0  0  0  0  0
    9.3612   -2.2737   -0.5906 H   0  0  0  0  0  0  0  0  0  0  0  0
    5.8578   -4.7285   -0.8299 H   0  0  0  0  0  0  0  0  0  0  0  0
    4.4135   -2.7251   -0.5404 H   0  0  0  0  0  0  0  0  0  0  0  0
    6.5478    0.7822    1.2830 H   0  0  0  0  0  0  0  0  0  0  0  0
    5.0687    2.7665    1.5214 H   0  0  0  0  0  0  0  0  0  0  0  0
   -0.4039    1.4110   -1.8411 H   0  0  0  0  0  0  0  0  0  0  0  0
   -2.6654    1.6691   -2.0417 H   0  0  0  0  0  0  0  0  0  0  0  0
   -4.9306    1.2430   -1.2317 H   0  0  0  0  0  0  0  0  0  0  0  0
   -6.2828    1.7336    0.5033 H   0  0  0  0  0  0  0  0  0  0  0  0
   -7.9560    0.3998    2.3818 H   0  0  0  0  0  0  0  0  0  0  0  0
   -9.7821   -0.4056    0.8941 H   0  0  0  0  0  0  0  0  0  0  0  0
   -8.8056    0.0182   -0.5803 H   0  0  0  0  0  0  0  0  0  0  0  0
   -8.7486    2.4275    0.1517 H   0  0  0  0  0  0  0  0  0  0  0  0
   -9.7158    2.0038    1.6336 H   0  0  0  0  0  0  0  0  0  0  0  0
   -3.3247   -1.0218    2.0707 H   0  0  0  0  0  0  0  0  0  0  0  0
   -1.0619   -0.6171    1.2618 H   0  0  0  0  0  0  0  0  0  0  0  0
  1  2  2  0
  2  3  1  0
  3  4  1  0
  4  5  1  0
  5  6  2  0
  6  7  1  0
  7  8  2  0
  8  9  1  0
  9 10  2  0
 10 11  1  0
 10 12  1  0
 12 13  2  0
  6 14  1  0
 14 15  2  0
 15 16  1  0
 16 17  2  0
  2 18  1  0
 18 19  1  0
 19 20  2  0
 20 21  1  0
 21 22  2  0
 22 23  1  0
 23 24  2  0
 23 25  1  0
 25 26  1  0
 26 27  1  0
 27 28  1  0
 22 29  1  0
 29 30  2  0
 16  4  1  0
 30 19  1  0
 13  7  1  0
 28 26  1  0
  3 31  1  0
  3 32  1  0
  8 33  1  0
  9 34  1  0
 12 35  1  0
 13 36  1  0
 14 37  1  0
 15 38  1  0
 18 39  1  0
 20 40  1  0
 21 41  1  0
 25 42  1  0
 26 43  1  0
 27 44  1  0
 27 45  1  0
 28 46  1  0
 28 47  1  0
 29 48  1  0
 30 49  1  0
M  END
$$$$
