
     RDKit          3D

 57 61  0  0  0  0  0  0  0  0999 V2000
    4.2208    1.2964    0.9765 C   0  0  0  0  0  0  0  0  0  0  0  0
    4.5158    1.3098   -0.5229 C   0  0  0  0  0  0  0  0  0  0  0  0
    6.0301    1.3135   -0.7485 C   0  0  0  0  0  0  0  0  0  0  0  0
    3.8679    0.0995   -1.2010 C   0  0  0  0  0  0  0  0  0  0  0  0
    4.5551   -0.8565   -1.5700 O   0  0  0  0  0  0  0  0  0  0  0  0
    2.4834    0.0828   -1.3464 N   0  0  0  0  0  0  0  0  0  0  0  0
    1.5948    1.2247   -1.1960 C   0  0  0  0  0  0  0  0  0  0  0  0
    0.3321    0.8694   -0.4029 C   0  0  0  0  0  0  0  0  0  0  0  0
   -0.1678   -0.5938   -0.6096 C   0  0  0  0  0  0  0  0  0  0  0  0
    0.3758   -1.0902   -1.9744 C   0  0  0  0  0  0  0  0  0  0  0  0
    1.9045   -1.0882   -1.9951 C   0  0  0  0  0  0  0  0  0  0  0  0
    0.4404   -1.3531    0.4686 O   0  0  0  0  0  0  0  0  0  0  0  0
   -0.0087   -2.6324    0.6304 C   0  0  0  0  0  0  0  0  0  0  0  0
    0.8235   -3.4904    1.3481 C   0  0  0  0  0  0  0  0  0  0  0  0
    0.4491   -4.8212    1.5472 C   0  0  0  0  0  0  0  0  0  0  0  0
   -0.7608   -5.2877    1.0321 C   0  0  0  0  0  0  0  0  0  0  0  0
   -1.2167   -6.9270    1.2803 Cl  0  0  0  0  0  0  0  0  0  0  0  0
   -1.6041   -4.4339    0.3254 C   0  0  0  0  0  0  0  0  0  0  0  0
   -1.2240   -3.1014    0.1358 C   0  0  0  0  0  0  0  0  0  0  0  0
   -2.1127   -2.1631   -0.5756 C   0  0  0  0  0  0  0  0  0  0  0  0
   -3.1236   -2.5871   -1.1262 O   0  0  0  0  0  0  0  0  0  0  0  0
   -1.7148   -0.6913   -0.5076 C   0  0  0  0  0  0  0  0  0  0  0  0
   -2.3275   -0.1089    0.7617 C   0  0  0  0  0  0  0  0  0  0  0  0
   -3.0171    1.0776    0.1866 C   0  0  0  0  0  0  0  0  0  0  0  0
   -3.6681    2.0985    1.0422 C   0  0  0  0  0  0  0  0  0  0  0  0
   -4.2620    3.2135    0.4345 C   0  0  0  0  0  0  0  0  0  0  0  0
   -4.8802    4.1963    1.2124 C   0  0  0  0  0  0  0  0  0  0  0  0
   -4.9062    4.0651    2.5987 C   0  0  0  0  0  0  0  0  0  0  0  0
   -5.6644    5.2734    3.5591 Cl  0  0  0  0  0  0  0  0  0  0  0  0
   -4.3208    2.9587    3.2130 C   0  0  0  0  0  0  0  0  0  0  0  0
   -3.7023    1.9729    2.4364 C   0  0  0  0  0  0  0  0  0  0  0  0
   -2.9981    1.1502   -1.1046 N   0  0  0  0  0  0  0  0  0  0  0  0
   -2.3261    0.0096   -1.5959 O   0  0  0  0  0  0  0  0  0  0  0  0
    4.6278    0.3948    1.4481 H   0  0  0  0  0  0  0  0  0  0  0  0
    3.1474    1.3098    1.1852 H   0  0  0  0  0  0  0  0  0  0  0  0
    4.6669    2.1674    1.4679 H   0  0  0  0  0  0  0  0  0  0  0  0
    4.1281    2.2253   -0.9808 H   0  0  0  0  0  0  0  0  0  0  0  0
    6.2633    1.3054   -1.8189 H   0  0  0  0  0  0  0  0  0  0  0  0
    6.4859    2.2085   -0.3112 H   0  0  0  0  0  0  0  0  0  0  0  0
    6.5072    0.4359   -0.2978 H   0  0  0  0  0  0  0  0  0  0  0  0
    1.3245    1.5508   -2.2084 H   0  0  0  0  0  0  0  0  0  0  0  0
    2.0824    2.0795   -0.7254 H   0  0  0  0  0  0  0  0  0  0  0  0
    0.5403    1.0322    0.6628 H   0  0  0  0  0  0  0  0  0  0  0  0
   -0.4252    1.6055   -0.6880 H   0  0  0  0  0  0  0  0  0  0  0  0
    0.0397   -2.1049   -2.2136 H   0  0  0  0  0  0  0  0  0  0  0  0
   -0.0025   -0.4451   -2.7780 H   0  0  0  0  0  0  0  0  0  0  0  0
    2.2920   -1.9843   -1.4952 H   0  0  0  0  0  0  0  0  0  0  0  0
    2.2614   -1.1190   -3.0316 H   0  0  0  0  0  0  0  0  0  0  0  0
    1.7727   -3.1299    1.7392 H   0  0  0  0  0  0  0  0  0  0  0  0
    1.1068   -5.4890    2.0990 H   0  0  0  0  0  0  0  0  0  0  0  0
   -2.5504   -4.7979   -0.0691 H   0  0  0  0  0  0  0  0  0  0  0  0
   -3.0718   -0.7642    1.2272 H   0  0  0  0  0  0  0  0  0  0  0  0
   -1.5854    0.1778    1.5109 H   0  0  0  0  0  0  0  0  0  0  0  0
   -4.2512    3.3242   -0.6488 H   0  0  0  0  0  0  0  0  0  0  0  0
   -5.3392    5.0555    0.7296 H   0  0  0  0  0  0  0  0  0  0  0  0
   -4.3461    2.8566    4.2954 H   0  0  0  0  0  0  0  0  0  0  0  0
   -3.2625    1.1193    2.9437 H   0  0  0  0  0  0  0  0  0  0  0  0
  1  2  1  0
  2  3  1  0
  2  4  1  0
  4  5  2  0
  4  6  1  0
  6  7  1  0
  7  8  1  0
  8  9  1  0
  9 10  1  0
 10 11  1  0
  9 12  1  0
 12 13  1  0
 13 14  2  0
 14 15  1  0
 15 16  2  0
 16 17  1  0
 16 18  1  0
 18 19  2  0
 19 20  1  0
 20 21  2  0
 20 22  1  0
 22 23  1  0
 23 24  1  0
 24 25  1  0
 25 26  2  0
 26 27  1  0
 27 28  2  0
 28 29  1  0
 28 30  1  0
 30 31  2  0
 24 32  2  0
 32 33  1  0
 11  6  1  0
 19 13  1  0
 33 22  1  0
 22  9  1  0
 31 25  1  0
  1 34  1  0
  1 35  1  0
  1 36  1  0
  2 37  1  0
  3 38  1  0
  3 39  1  0
  3 40  1  0
  7 41  1  0
  7 42  1  0
  8 43  1  0
  8 44  1  0
 10 45  1  0
 10 46  1  0
 11 47  1  0
 11 48  1  0
 14 49  1  0
 15 50  1  0
 18 51  1  0
 23 52  1  0
 23 53  1  0
 26 54  1  0
 27 55  1  0
 30 56  1  0
 31 57  1  0
M  END
$$$$
