
     RDKit          3D

 44 46  0  0  0  0  0  0  0  0999 V2000
    6.7410   -1.3109   -3.2115 C   0  0  0  0  0  0  0  0  0  0  0  0
    5.7062   -0.3367   -3.3111 O   0  0  0  0  0  0  0  0  0  0  0  0
    4.9063   -0.1788   -2.2143 C   0  0  0  0  0  0  0  0  0  0  0  0
    3.7885    0.6343   -2.4154 C   0  0  0  0  0  0  0  0  0  0  0  0
    2.8726    0.8697   -1.3817 C   0  0  0  0  0  0  0  0  0  0  0  0
    3.0731    0.2996   -0.1230 C   0  0  0  0  0  0  0  0  0  0  0  0
    2.2056    0.4804    0.9743 N   0  0  0  0  0  0  0  0  0  0  0  0
    1.0362    1.2238    1.0165 C   0  0  0  0  0  0  0  0  0  0  0  0
    0.5264    1.8378    0.0819 O   0  0  0  0  0  0  0  0  0  0  0  0
    0.3819    1.2306    2.4040 C   0  0  0  0  0  0  0  0  0  0  0  0
   -0.9629    0.7776    2.4018 O   0  0  0  0  0  0  0  0  0  0  0  0
   -1.1181   -0.5448    2.1206 C   0  0  0  0  0  0  0  0  0  0  0  0
   -0.1206   -1.3761    2.4412 N   0  0  0  0  0  0  0  0  0  0  0  0
   -0.6931   -2.8815    2.0080 S   0  0  0  0  0  0  0  0  0  0  0  0
   -2.2013   -2.4841    1.4377 N   0  0  0  0  0  0  0  0  0  0  0  0
   -2.3213   -1.1521    1.5381 C   0  0  0  0  0  0  0  0  0  0  0  0
   -3.4477   -0.4663    1.1337 N   0  0  0  0  0  0  0  0  0  0  0  0
   -3.5262    0.9958    1.2091 C   0  0  0  0  0  0  0  0  0  0  0  0
   -4.9142    1.5090    0.8346 C   0  0  0  0  0  0  0  0  0  0  0  0
   -5.3364    1.0410   -0.5526 C   0  0  0  0  0  0  0  0  0  0  0  0
   -4.8994   -0.3933   -0.8482 C   0  0  0  0  0  0  0  0  0  0  0  0
   -4.5172   -1.1658    0.4142 C   0  0  0  0  0  0  0  0  0  0  0  0
    4.2056   -0.5043    0.0811 C   0  0  0  0  0  0  0  0  0  0  0  0
    5.1170   -0.7422   -0.9562 C   0  0  0  0  0  0  0  0  0  0  0  0
    6.3435   -2.3001   -2.9486 H   0  0  0  0  0  0  0  0  0  0  0  0
    7.5125   -0.9980   -2.4966 H   0  0  0  0  0  0  0  0  0  0  0  0
    7.2164   -1.3949   -4.1944 H   0  0  0  0  0  0  0  0  0  0  0  0
    3.6131    1.0811   -3.3927 H   0  0  0  0  0  0  0  0  0  0  0  0
    2.0148    1.4998   -1.5997 H   0  0  0  0  0  0  0  0  0  0  0  0
    2.4427   -0.0413    1.8112 H   0  0  0  0  0  0  0  0  0  0  0  0
    0.9857    0.7072    3.1570 H   0  0  0  0  0  0  0  0  0  0  0  0
    0.3672    2.2801    2.7279 H   0  0  0  0  0  0  0  0  0  0  0  0
   -2.7798    1.4439    0.5397 H   0  0  0  0  0  0  0  0  0  0  0  0
   -3.3272    1.3337    2.2323 H   0  0  0  0  0  0  0  0  0  0  0  0
   -4.9364    2.6050    0.8797 H   0  0  0  0  0  0  0  0  0  0  0  0
   -5.6456    1.1514    1.5745 H   0  0  0  0  0  0  0  0  0  0  0  0
   -4.9098    1.7032   -1.3144 H   0  0  0  0  0  0  0  0  0  0  0  0
   -6.4247    1.1342   -0.6438 H   0  0  0  0  0  0  0  0  0  0  0  0
   -5.7035   -0.9160   -1.3827 H   0  0  0  0  0  0  0  0  0  0  0  0
   -4.0355   -0.3685   -1.5256 H   0  0  0  0  0  0  0  0  0  0  0  0
   -5.3882   -1.2730    1.0737 H   0  0  0  0  0  0  0  0  0  0  0  0
   -4.2289   -2.1784    0.1114 H   0  0  0  0  0  0  0  0  0  0  0  0
    4.3987   -0.9533    1.0527 H   0  0  0  0  0  0  0  0  0  0  0  0
    5.9826   -1.3604   -0.7445 H   0  0  0  0  0  0  0  0  0  0  0  0
  1  2  1  0
  2  3  1  0
  3  4  2  0
  4  5  1  0
  5  6  2  0
  6  7  1  0
  7  8  1  0
  8  9  2  0
  8 10  1  0
 10 11  1  0
 11 12  1  0
 12 13  2  0
 13 14  1  0
 14 15  1  0
 15 16  2  0
 16 17  1  0
 17 18  1  0
 18 19  1  0
 19 20  1  0
 20 21  1  0
 21 22  1  0
  6 23  1  0
 23 24  2  0
 24  3  1  0
 16 12  1  0
 22 17  1  0
  1 25  1  0
  1 26  1  0
  1 27  1  0
  4 28  1  0
  5 29  1  0
  7 30  1  0
 10 31  1  0
 10 32  1  0
 18 33  1  0
 18 34  1  0
 19 35  1  0
 19 36  1  0
 20 37  1  0
 20 38  1  0
 21 39  1  0
 21 40  1  0
 22 41  1  0
 22 42  1  0
 23 43  1  0
 24 44  1  0
M  END
$$$$
