
     RDKit          3D

 50 52  0  0  0  0  0  0  0  0999 V2000
   -4.6134   -2.3871    1.9910 C   0  0  0  0  0  0  0  0  0  0  0  0
   -3.2291   -2.7481    1.4629 C   0  0  0  0  0  0  0  0  0  0  0  0
   -2.3878   -1.5347    1.0198 C   0  0  0  0  0  0  0  0  0  0  0  0
   -3.0033   -0.7460   -0.1368 C   0  0  0  0  0  0  0  0  0  0  0  0
   -3.4211    0.5905    0.0018 C   0  0  0  0  0  0  0  0  0  0  0  0
   -3.9870    1.2843   -1.0716 C   0  0  0  0  0  0  0  0  0  0  0  0
   -4.1487    0.6573   -2.3034 C   0  0  0  0  0  0  0  0  0  0  0  0
   -3.7441   -0.6640   -2.4641 C   0  0  0  0  0  0  0  0  0  0  0  0
   -3.1795   -1.3588   -1.3920 C   0  0  0  0  0  0  0  0  0  0  0  0
   -2.0453   -0.6988    2.1531 N   0  0  0  0  0  0  0  0  0  0  0  0
   -0.6946   -0.5762    2.3456 C   0  0  0  0  0  0  0  0  0  0  0  0
   -0.2027    0.0780    3.2497 O   0  0  0  0  0  0  0  0  0  0  0  0
   -0.0477   -1.3041    1.4039 N   0  0  0  0  0  0  0  0  0  0  0  0
    1.3854   -1.5088    1.3464 C   0  0  0  0  0  0  0  0  0  0  0  0
    1.9865   -0.9443    0.0541 C   0  0  0  0  0  0  0  0  0  0  0  0
    2.5676   -1.7095   -0.7227 O   0  0  0  0  0  0  0  0  0  0  0  0
    1.8972    0.4188   -0.2014 N   0  0  0  0  0  0  0  0  0  0  0  0
    1.4451    1.4137    0.7591 C   0  0  0  0  0  0  0  0  0  0  0  0
    2.2839    0.9068   -1.5251 C   0  0  0  0  0  0  0  0  0  0  0  0
    3.6348    1.5860   -1.5282 C   0  0  0  0  0  0  0  0  0  0  0  0
    3.7393    2.9754   -1.6932 C   0  0  0  0  0  0  0  0  0  0  0  0
    4.9895    3.5970   -1.6938 C   0  0  0  0  0  0  0  0  0  0  0  0
    6.1473    2.8381   -1.5301 C   0  0  0  0  0  0  0  0  0  0  0  0
    6.0569    1.4570   -1.3671 C   0  0  0  0  0  0  0  0  0  0  0  0
    4.8078    0.8339   -1.3667 C   0  0  0  0  0  0  0  0  0  0  0  0
   -0.9520   -2.0125    0.6609 C   0  0  0  0  0  0  0  0  0  0  0  0
   -0.6775   -2.8841   -0.1549 O   0  0  0  0  0  0  0  0  0  0  0  0
   -5.1391   -3.2942    2.3072 H   0  0  0  0  0  0  0  0  0  0  0  0
   -4.5508   -1.7203    2.8563 H   0  0  0  0  0  0  0  0  0  0  0  0
   -5.2230   -1.9020    1.2226 H   0  0  0  0  0  0  0  0  0  0  0  0
   -2.6963   -3.2989    2.2500 H   0  0  0  0  0  0  0  0  0  0  0  0
   -3.3482   -3.4550    0.6318 H   0  0  0  0  0  0  0  0  0  0  0  0
   -3.3130    1.1206    0.9449 H   0  0  0  0  0  0  0  0  0  0  0  0
   -4.3024    2.3172   -0.9445 H   0  0  0  0  0  0  0  0  0  0  0  0
   -4.5872    1.1980   -3.1380 H   0  0  0  0  0  0  0  0  0  0  0  0
   -3.8647   -1.1574   -3.4257 H   0  0  0  0  0  0  0  0  0  0  0  0
   -2.8678   -2.3907   -1.5549 H   0  0  0  0  0  0  0  0  0  0  0  0
   -2.7038   -0.2280    2.7577 H   0  0  0  0  0  0  0  0  0  0  0  0
    1.8848   -1.0649    2.2119 H   0  0  0  0  0  0  0  0  0  0  0  0
    1.5748   -2.5881    1.3646 H   0  0  0  0  0  0  0  0  0  0  0  0
    0.3770    1.5876    0.6022 H   0  0  0  0  0  0  0  0  0  0  0  0
    1.9845    2.3535    0.6158 H   0  0  0  0  0  0  0  0  0  0  0  0
    1.6294    1.0838    1.7811 H   0  0  0  0  0  0  0  0  0  0  0  0
    1.5009    1.5961   -1.8664 H   0  0  0  0  0  0  0  0  0  0  0  0
    2.3002    0.0874   -2.2541 H   0  0  0  0  0  0  0  0  0  0  0  0
    2.8468    3.5836   -1.8215 H   0  0  0  0  0  0  0  0  0  0  0  0
    5.0609    4.6744   -1.8217 H   0  0  0  0  0  0  0  0  0  0  0  0
    7.1205    3.3223   -1.5299 H   0  0  0  0  0  0  0  0  0  0  0  0
    6.9580    0.8619   -1.2423 H   0  0  0  0  0  0  0  0  0  0  0  0
    4.7506   -0.2467   -1.2429 H   0  0  0  0  0  0  0  0  0  0  0  0
  1  2  1  0
  2  3  1  0
  3  4  1  0
  4  5  2  0
  5  6  1  0
  6  7  2  0
  7  8  1  0
  8  9  2  0
  3 10  1  0
 10 11  1  0
 11 12  2  0
 11 13  1  0
 13 14  1  0
 14 15  1  0
 15 16  2  0
 15 17  1  0
 17 18  1  0
 17 19  1  0
 19 20  1  0
 20 21  2  0
 21 22  1  0
 22 23  2  0
 23 24  1  0
 24 25  2  0
 13 26  1  0
 26 27  2  0
 26  3  1  0
  9  4  1  0
 25 20  1  0
  1 28  1  0
  1 29  1  0
  1 30  1  0
  2 31  1  0
  2 32  1  0
  5 33  1  0
  6 34  1  0
  7 35  1  0
  8 36  1  0
  9 37  1  0
 10 38  1  0
 14 39  1  0
 14 40  1  0
 18 41  1  0
 18 42  1  0
 18 43  1  0
 19 44  1  0
 19 45  1  0
 21 46  1  0
 22 47  1  0
 23 48  1  0
 24 49  1  0
 25 50  1  0
M  END
$$$$
