
     RDKit          3D

 38 40  0  0  0  0  0  0  0  0999 V2000
    1.4773    1.7262    1.5610 O   0  0  0  0  0  0  0  0  0  0  0  0
    1.1432    0.5670    1.3277 C   0  0  0  0  0  0  0  0  0  0  0  0
   -0.0141   -0.0790    2.1010 C   0  0  0  0  0  0  0  0  0  0  0  0
   -1.0963   -0.5273    1.2113 N   0  0  0  0  0  0  0  0  0  0  0  0
   -0.9995   -1.8077    0.6764 C   0  0  0  0  0  0  0  0  0  0  0  0
    0.0162   -2.4974    0.8042 O   0  0  0  0  0  0  0  0  0  0  0  0
   -2.2015   -2.3395   -0.0665 C   0  0  0  0  0  0  0  0  0  0  0  0
   -2.1334   -2.0144   -1.5432 C   0  0  0  0  0  0  0  0  0  0  0  0
   -1.6522   -0.3065   -1.9421 S   0  0  0  0  0  0  0  0  0  0  0  0
   -2.4274    0.5822   -0.5933 C   0  0  0  0  0  0  0  0  0  0  0  0
   -3.3653    1.5598   -0.9624 C   0  0  0  0  0  0  0  0  0  0  0  0
   -3.9425    2.3929   -0.0062 C   0  0  0  0  0  0  0  0  0  0  0  0
   -3.5751    2.2686    1.3276 C   0  0  0  0  0  0  0  0  0  0  0  0
   -2.6335    1.3091    1.7077 C   0  0  0  0  0  0  0  0  0  0  0  0
   -2.0496    0.4471    0.7633 C   0  0  0  0  0  0  0  0  0  0  0  0
    1.7620   -0.3050    0.4483 N   0  0  0  0  0  0  0  0  0  0  0  0
    2.8292   -0.0409   -0.4292 C   0  0  0  0  0  0  0  0  0  0  0  0
    3.2860   -1.1111   -1.2131 C   0  0  0  0  0  0  0  0  0  0  0  0
    4.3393   -0.9341   -2.1132 C   0  0  0  0  0  0  0  0  0  0  0  0
    4.9346    0.3144   -2.2301 C   0  0  0  0  0  0  0  0  0  0  0  0
    5.9448    0.4867   -3.0925 F   0  0  0  0  0  0  0  0  0  0  0  0
    4.4948    1.3862   -1.4648 C   0  0  0  0  0  0  0  0  0  0  0  0
    3.4401    1.2090   -0.5635 C   0  0  0  0  0  0  0  0  0  0  0  0
    0.3866   -0.9365    2.6558 H   0  0  0  0  0  0  0  0  0  0  0  0
   -0.3759    0.6287    2.8513 H   0  0  0  0  0  0  0  0  0  0  0  0
   -2.2349   -3.4270    0.0732 H   0  0  0  0  0  0  0  0  0  0  0  0
   -3.1268   -1.9656    0.3868 H   0  0  0  0  0  0  0  0  0  0  0  0
   -1.4023   -2.6683   -2.0313 H   0  0  0  0  0  0  0  0  0  0  0  0
   -3.1037   -2.2188   -2.0082 H   0  0  0  0  0  0  0  0  0  0  0  0
   -3.6400    1.6937   -2.0072 H   0  0  0  0  0  0  0  0  0  0  0  0
   -4.6657    3.1471   -0.3065 H   0  0  0  0  0  0  0  0  0  0  0  0
   -4.0196    2.9197    2.0768 H   0  0  0  0  0  0  0  0  0  0  0  0
   -2.3998    1.2280    2.7658 H   0  0  0  0  0  0  0  0  0  0  0  0
    1.3956   -1.2577    0.4371 H   0  0  0  0  0  0  0  0  0  0  0  0
    2.8267   -2.0936   -1.1321 H   0  0  0  0  0  0  0  0  0  0  0  0
    4.6953   -1.7594   -2.7208 H   0  0  0  0  0  0  0  0  0  0  0  0
    4.9704    2.3559   -1.5712 H   0  0  0  0  0  0  0  0  0  0  0  0
    3.1170    2.0680    0.0158 H   0  0  0  0  0  0  0  0  0  0  0  0
  1  2  2  0
  2  3  1  0
  3  4  1  0
  4  5  1  0
  5  6  2  0
  5  7  1  0
  7  8  1  0
  8  9  1  0
  9 10  1  0
 10 11  2  0
 11 12  1  0
 12 13  2  0
 13 14  1  0
 14 15  2  0
  2 16  1  0
 16 17  1  0
 17 18  2  0
 18 19  1  0
 19 20  2  0
 20 21  1  0
 20 22  1  0
 22 23  2  0
 15  4  1  0
 23 17  1  0
 15 10  1  0
  3 24  1  0
  3 25  1  0
  7 26  1  0
  7 27  1  0
  8 28  1  0
  8 29  1  0
 11 30  1  0
 12 31  1  0
 13 32  1  0
 14 33  1  0
 16 34  1  0
 18 35  1  0
 19 36  1  0
 22 37  1  0
 23 38  1  0
M  END
$$$$
