
     RDKit          3D

 35 37  0  0  0  0  0  0  0  0999 V2000
   -2.0927   -2.4673    0.4769 C   0  0  0  0  0  0  0  0  0  0  0  0
   -1.2427   -1.2736    0.1970 C   0  0  0  0  0  0  0  0  0  0  0  0
    0.0459   -1.2555    0.4283 N   0  0  0  0  0  0  0  0  0  0  0  0
    0.4842   -0.0075   -0.0050 N   0  0  0  0  0  0  0  0  0  0  0  0
    1.8089    0.3445    0.0789 C   0  0  0  0  0  0  0  0  0  0  0  0
    2.4008    1.4636   -0.2773 N   0  0  0  0  0  0  0  0  0  0  0  0
    3.7304    1.2934    0.0221 C   0  0  0  0  0  0  0  0  0  0  0  0
    4.8091    2.1721   -0.1521 C   0  0  0  0  0  0  0  0  0  0  0  0
    6.0868    1.7527    0.2406 C   0  0  0  0  0  0  0  0  0  0  0  0
    6.2857    0.4851    0.7948 C   0  0  0  0  0  0  0  0  0  0  0  0
    5.2212   -0.4059    0.9765 C   0  0  0  0  0  0  0  0  0  0  0  0
    3.9601    0.0393    0.5762 C   0  0  0  0  0  0  0  0  0  0  0  0
    2.7210   -0.5400    0.5996 N   0  0  0  0  0  0  0  0  0  0  0  0
   -0.5047    0.8271   -0.5339 C   0  0  0  0  0  0  0  0  0  0  0  0
   -0.4807    1.9479   -1.0071 O   0  0  0  0  0  0  0  0  0  0  0  0
   -1.7229   -0.0067   -0.3737 C   0  0  0  0  0  0  0  0  0  0  0  0
   -2.9379    0.4220   -0.7313 C   0  0  0  0  0  0  0  0  0  0  0  0
   -4.1919   -0.1733   -0.6018 N   0  0  0  0  0  0  0  0  0  0  0  0
   -4.7498   -0.3684    0.7469 C   0  0  0  0  0  0  0  0  0  0  0  0
   -5.2348    0.1903   -1.5763 C   0  0  0  0  0  0  0  0  0  0  0  0
   -1.4857   -3.3739    0.3924 H   0  0  0  0  0  0  0  0  0  0  0  0
   -2.4833   -2.4067    1.4955 H   0  0  0  0  0  0  0  0  0  0  0  0
   -2.9159   -2.5444   -0.2357 H   0  0  0  0  0  0  0  0  0  0  0  0
    4.6456    3.1535   -0.5831 H   0  0  0  0  0  0  0  0  0  0  0  0
    6.9320    2.4245    0.1108 H   0  0  0  0  0  0  0  0  0  0  0  0
    7.2888    0.1845    1.0911 H   0  0  0  0  0  0  0  0  0  0  0  0
    5.3758   -1.3893    1.4063 H   0  0  0  0  0  0  0  0  0  0  0  0
    2.4761   -1.4595    0.9332 H   0  0  0  0  0  0  0  0  0  0  0  0
   -3.0066    1.3926   -1.2283 H   0  0  0  0  0  0  0  0  0  0  0  0
   -5.4678   -1.1951    0.7409 H   0  0  0  0  0  0  0  0  0  0  0  0
   -5.2621    0.5397    1.0839 H   0  0  0  0  0  0  0  0  0  0  0  0
   -3.9739   -0.6039    1.4808 H   0  0  0  0  0  0  0  0  0  0  0  0
   -6.0769   -0.5075   -1.5156 H   0  0  0  0  0  0  0  0  0  0  0  0
   -4.8389    0.1409   -2.5966 H   0  0  0  0  0  0  0  0  0  0  0  0
   -5.6036    1.2049   -1.3903 H   0  0  0  0  0  0  0  0  0  0  0  0
  1  2  1  0
  2  3  2  0
  3  4  1  0
  4  5  1  0
  5  6  2  0
  6  7  1  0
  7  8  2  0
  8  9  1  0
  9 10  2  0
 10 11  1  0
 11 12  2  0
 12 13  1  0
  4 14  1  0
 14 15  2  0
 14 16  1  0
 16 17  2  3
 17 18  1  0
 18 19  1  0
 18 20  1  0
 16  2  1  0
 13  5  1  0
 12  7  1  0
  1 21  1  0
  1 22  1  0
  1 23  1  0
  8 24  1  0
  9 25  1  0
 10 26  1  0
 11 27  1  0
 13 28  1  0
 17 29  1  0
 19 30  1  0
 19 31  1  0
 19 32  1  0
 20 33  1  0
 20 34  1  0
 20 35  1  0
M  END
$$$$
