
     RDKit          3D

 71 75  0  0  0  0  0  0  0  0999 V2000
   -3.7466    5.8071   -2.5759 C   0  0  0  0  0  0  0  0  0  0  0  0
   -3.4885    4.5290   -3.1411 O   0  0  0  0  0  0  0  0  0  0  0  0
   -3.0473    3.5559   -2.2874 C   0  0  0  0  0  0  0  0  0  0  0  0
   -2.8713    2.3011   -2.8705 C   0  0  0  0  0  0  0  0  0  0  0  0
   -2.4275    1.2173   -2.1082 C   0  0  0  0  0  0  0  0  0  0  0  0
   -2.1515    1.3630   -0.7383 C   0  0  0  0  0  0  0  0  0  0  0  0
   -1.6735    0.1383    0.0518 C   0  0  0  0  0  0  0  0  0  0  0  0
   -1.9640    0.1975    1.5766 C   0  0  0  0  0  0  0  0  0  0  0  0
   -1.7042   -1.1228    2.3265 C   0  0  0  0  0  0  0  0  0  0  0  0
   -2.5004   -2.2620    1.8499 N   0  0  0  0  0  0  0  0  0  0  0  0
   -2.0777   -3.5349    2.4722 C   0  0  0  0  0  0  0  0  0  0  0  0
   -3.0145   -4.0108    3.5931 C   0  0  0  0  0  0  0  0  0  0  0  0
   -4.3630   -4.2175    3.1503 O   0  0  0  0  0  0  0  0  0  0  0  0
   -4.7275   -3.3747    2.0478 C   0  0  0  0  0  0  0  0  0  0  0  0
   -3.9525   -2.0482    2.0302 C   0  0  0  0  0  0  0  0  0  0  0  0
   -0.2149   -0.2172   -0.2716 C   0  0  0  0  0  0  0  0  0  0  0  0
    0.0934   -1.4175   -0.9367 C   0  0  0  0  0  0  0  0  0  0  0  0
   -0.9641   -2.2063   -1.3080 O   0  0  0  0  0  0  0  0  0  0  0  0
   -0.7018   -3.5862   -1.5355 C   0  0  0  0  0  0  0  0  0  0  0  0
    1.4258   -1.7418   -1.2141 C   0  0  0  0  0  0  0  0  0  0  0  0
    2.4744   -0.8849   -0.8473 C   0  0  0  0  0  0  0  0  0  0  0  0
    3.7837   -1.2295   -1.0667 O   0  0  0  0  0  0  0  0  0  0  0  0
    4.0581   -1.9254   -2.2789 C   0  0  0  0  0  0  0  0  0  0  0  0
    2.2061    0.3214   -0.1755 C   0  0  0  0  0  0  0  0  0  0  0  0
    3.2461    1.2949    0.2437 C   0  0  0  0  0  0  0  0  0  0  0  0
    4.7021    1.2026    0.0078 C   0  0  0  0  0  0  0  0  0  0  0  0
    5.2560    1.6954   -1.1813 C   0  0  0  0  0  0  0  0  0  0  0  0
    6.6339    1.6242   -1.3965 C   0  0  0  0  0  0  0  0  0  0  0  0
    7.4652    1.0647   -0.4265 C   0  0  0  0  0  0  0  0  0  0  0  0
    6.9214    0.5747    0.7604 C   0  0  0  0  0  0  0  0  0  0  0  0
    5.5440    0.6445    0.9790 C   0  0  0  0  0  0  0  0  0  0  0  0
    2.8689    2.4101    0.8883 C   0  0  0  0  0  0  0  0  0  0  0  0
    1.4775    2.7198    1.2142 C   0  0  0  0  0  0  0  0  0  0  0  0
    1.1816    3.7283    1.8452 O   0  0  0  0  0  0  0  0  0  0  0  0
    0.5327    1.8138    0.7832 O   0  0  0  0  0  0  0  0  0  0  0  0
    0.8616    0.6219    0.0956 C   0  0  0  0  0  0  0  0  0  0  0  0
   -2.3227    2.6314   -0.1657 C   0  0  0  0  0  0  0  0  0  0  0  0
   -2.7654    3.7178   -0.9326 C   0  0  0  0  0  0  0  0  0  0  0  0
   -4.1208    6.4554   -3.3741 H   0  0  0  0  0  0  0  0  0  0  0  0
   -2.8288    6.2569   -2.1837 H   0  0  0  0  0  0  0  0  0  0  0  0
   -4.5211    5.7497   -1.8044 H   0  0  0  0  0  0  0  0  0  0  0  0
   -3.0804    2.1634   -3.9279 H   0  0  0  0  0  0  0  0  0  0  0  0
   -2.2993    0.2499   -2.5915 H   0  0  0  0  0  0  0  0  0  0  0  0
   -2.3267   -0.6649   -0.3119 H   0  0  0  0  0  0  0  0  0  0  0  0
   -1.3614    0.9720    2.0637 H   0  0  0  0  0  0  0  0  0  0  0  0
   -3.0069    0.5021    1.7351 H   0  0  0  0  0  0  0  0  0  0  0  0
   -0.6373   -1.3577    2.2308 H   0  0  0  0  0  0  0  0  0  0  0  0
   -1.8830   -0.9609    3.3977 H   0  0  0  0  0  0  0  0  0  0  0  0
   -2.0811   -4.2931    1.6780 H   0  0  0  0  0  0  0  0  0  0  0  0
   -1.0469   -3.4841    2.8414 H   0  0  0  0  0  0  0  0  0  0  0  0
   -3.0313   -3.2880    4.4173 H   0  0  0  0  0  0  0  0  0  0  0  0
   -2.6569   -4.9609    4.0020 H   0  0  0  0  0  0  0  0  0  0  0  0
   -5.8017   -3.1810    2.1261 H   0  0  0  0  0  0  0  0  0  0  0  0
   -4.5655   -3.9343    1.1191 H   0  0  0  0  0  0  0  0  0  0  0  0
   -4.3320   -1.4217    1.2165 H   0  0  0  0  0  0  0  0  0  0  0  0
   -4.1452   -1.5288    2.9776 H   0  0  0  0  0  0  0  0  0  0  0  0
   -0.1293   -4.0295   -0.7131 H   0  0  0  0  0  0  0  0  0  0  0  0
   -1.6641   -4.1041   -1.5874 H   0  0  0  0  0  0  0  0  0  0  0  0
   -0.1926   -3.7277   -2.4950 H   0  0  0  0  0  0  0  0  0  0  0  0
    1.6595   -2.6736   -1.7129 H   0  0  0  0  0  0  0  0  0  0  0  0
    3.5089   -1.5019   -3.1273 H   0  0  0  0  0  0  0  0  0  0  0  0
    3.8447   -2.9934   -2.1656 H   0  0  0  0  0  0  0  0  0  0  0  0
    5.1266   -1.8205   -2.4876 H   0  0  0  0  0  0  0  0  0  0  0  0
    4.6168    2.1304   -1.9457 H   0  0  0  0  0  0  0  0  0  0  0  0
    7.0587    2.0058   -2.3215 H   0  0  0  0  0  0  0  0  0  0  0  0
    8.5376    1.0099   -0.5962 H   0  0  0  0  0  0  0  0  0  0  0  0
    7.5695    0.1372    1.5153 H   0  0  0  0  0  0  0  0  0  0  0  0
    5.1294    0.2536    1.9050 H   0  0  0  0  0  0  0  0  0  0  0  0
    3.5803    3.1621    1.2144 H   0  0  0  0  0  0  0  0  0  0  0  0
   -2.1030    2.8057    0.8850 H   0  0  0  0  0  0  0  0  0  0  0  0
   -2.8707    4.6770   -0.4366 H   0  0  0  0  0  0  0  0  0  0  0  0
  1  2  1  0
  2  3  1  0
  3  4  2  0
  4  5  1  0
  5  6  2  0
  6  7  1  0
  7  8  1  0
  8  9  1  0
  9 10  1  0
 10 11  1  0
 11 12  1  0
 12 13  1  0
 13 14  1  0
 14 15  1  0
  7 16  1  0
 16 17  2  0
 17 18  1  0
 18 19  1  0
 17 20  1  0
 20 21  2  0
 21 22  1  0
 22 23  1  0
 21 24  1  0
 24 25  1  0
 25 26  1  0
 26 27  2  0
 27 28  1  0
 28 29  2  0
 29 30  1  0
 30 31  2  0
 25 32  2  0
 32 33  1  0
 33 34  2  0
 33 35  1  0
 35 36  1  0
  6 37  1  0
 37 38  2  0
 38  3  1  0
 15 10  1  0
 36 16  1  0
 36 24  2  0
 31 26  1  0
  1 39  1  0
  1 40  1  0
  1 41  1  0
  4 42  1  0
  5 43  1  0
  7 44  1  0
  8 45  1  0
  8 46  1  0
  9 47  1  0
  9 48  1  0
 11 49  1  0
 11 50  1  0
 12 51  1  0
 12 52  1  0
 14 53  1  0
 14 54  1  0
 15 55  1  0
 15 56  1  0
 19 57  1  0
 19 58  1  0
 19 59  1  0
 20 60  1  0
 23 61  1  0
 23 62  1  0
 23 63  1  0
 27 64  1  0
 28 65  1  0
 29 66  1  0
 30 67  1  0
 31 68  1  0
 32 69  1  0
 37 70  1  0
 38 71  1  0
M  END
$$$$
