
     RDKit          3D

 45 46  0  0  0  0  0  0  0  0999 V2000
   -6.6908   -0.3974    2.1339 C   0  0  0  0  0  0  0  0  0  0  0  0
   -6.7577    0.8298    1.2415 C   0  0  0  0  0  0  0  0  0  0  0  0
   -6.3287    0.5178   -0.0830 O   0  0  0  0  0  0  0  0  0  0  0  0
   -5.0035    0.6380   -0.3928 C   0  0  0  0  0  0  0  0  0  0  0  0
   -3.9676    0.9275    0.4929 C   0  0  0  0  0  0  0  0  0  0  0  0
   -2.6490    1.0135    0.0314 C   0  0  0  0  0  0  0  0  0  0  0  0
   -2.3470    0.8113   -1.3223 C   0  0  0  0  0  0  0  0  0  0  0  0
   -0.9206    0.8755   -1.8019 C   0  0  0  0  0  0  0  0  0  0  0  0
   -0.2256   -0.3537   -1.4961 N   0  0  0  0  0  0  0  0  0  0  0  0
    0.5910   -0.4581   -0.4106 C   0  0  0  0  0  0  0  0  0  0  0  0
    0.9141    0.4813    0.2968 O   0  0  0  0  0  0  0  0  0  0  0  0
    1.0246   -1.7552   -0.2072 N   0  0  0  0  0  0  0  0  0  0  0  0
    1.9880   -2.2521    1.0509 S   0  0  0  0  0  6  0  0  0  0  0  0
    1.4128   -1.8196    2.3046 O   0  0  0  0  0  0  0  0  0  0  0  0
    2.2413   -3.6576    0.8015 O   0  0  0  0  0  0  0  0  0  0  0  0
    3.5112   -1.3847    0.7746 C   0  0  0  0  0  0  0  0  0  0  0  0
    3.7649   -0.1911    1.4540 C   0  0  0  0  0  0  0  0  0  0  0  0
    4.9772    0.4782    1.2563 C   0  0  0  0  0  0  0  0  0  0  0  0
    5.9392   -0.0516    0.3934 C   0  0  0  0  0  0  0  0  0  0  0  0
    7.1587    0.5006    0.1130 O   0  0  0  0  0  0  0  0  0  0  0  0
    7.4785    1.7201    0.7714 C   0  0  0  0  0  0  0  0  0  0  0  0
    5.6808   -1.2575   -0.2674 C   0  0  0  0  0  0  0  0  0  0  0  0
    4.4727   -1.9314   -0.0775 C   0  0  0  0  0  0  0  0  0  0  0  0
   -3.3890    0.5098   -2.2060 C   0  0  0  0  0  0  0  0  0  0  0  0
   -4.7040    0.4267   -1.7411 C   0  0  0  0  0  0  0  0  0  0  0  0
   -7.0886   -0.1742    3.1280 H   0  0  0  0  0  0  0  0  0  0  0  0
   -5.6639   -0.7584    2.2430 H   0  0  0  0  0  0  0  0  0  0  0  0
   -7.2706   -1.2186    1.6994 H   0  0  0  0  0  0  0  0  0  0  0  0
   -7.8057    1.1404    1.1610 H   0  0  0  0  0  0  0  0  0  0  0  0
   -6.2240    1.6870    1.6664 H   0  0  0  0  0  0  0  0  0  0  0  0
   -4.1415    1.0818    1.5522 H   0  0  0  0  0  0  0  0  0  0  0  0
   -1.8528    1.2340    0.7421 H   0  0  0  0  0  0  0  0  0  0  0  0
   -0.8883    1.0020   -2.8897 H   0  0  0  0  0  0  0  0  0  0  0  0
   -0.4104    1.7386   -1.3598 H   0  0  0  0  0  0  0  0  0  0  0  0
   -0.5854   -1.2000   -1.9051 H   0  0  0  0  0  0  0  0  0  0  0  0
    0.8029   -2.4997   -0.8527 H   0  0  0  0  0  0  0  0  0  0  0  0
    3.0201    0.2311    2.1269 H   0  0  0  0  0  0  0  0  0  0  0  0
    5.1360    1.4088    1.7913 H   0  0  0  0  0  0  0  0  0  0  0  0
    8.4787    2.0227    0.4467 H   0  0  0  0  0  0  0  0  0  0  0  0
    7.5073    1.5867    1.8579 H   0  0  0  0  0  0  0  0  0  0  0  0
    6.7816    2.5159    0.4881 H   0  0  0  0  0  0  0  0  0  0  0  0
    6.4336   -1.6768   -0.9314 H   0  0  0  0  0  0  0  0  0  0  0  0
    4.2978   -2.8748   -0.5886 H   0  0  0  0  0  0  0  0  0  0  0  0
   -3.1915    0.3388   -3.2615 H   0  0  0  0  0  0  0  0  0  0  0  0
   -5.5069    0.1946   -2.4372 H   0  0  0  0  0  0  0  0  0  0  0  0
  1  2  1  0
  2  3  1  0
  3  4  1  0
  4  5  2  0
  5  6  1  0
  6  7  2  0
  7  8  1  0
  8  9  1  0
  9 10  1  0
 10 11  2  0
 10 12  1  0
 12 13  1  0
 13 14  2  0
 13 15  2  0
 13 16  1  0
 16 17  2  0
 17 18  1  0
 18 19  2  0
 19 20  1  0
 20 21  1  0
 19 22  1  0
 22 23  2  0
  7 24  1  0
 24 25  2  0
 25  4  1  0
 23 16  1  0
  1 26  1  0
  1 27  1  0
  1 28  1  0
  2 29  1  0
  2 30  1  0
  5 31  1  0
  6 32  1  0
  8 33  1  0
  8 34  1  0
  9 35  1  0
 12 36  1  0
 17 37  1  0
 18 38  1  0
 21 39  1  0
 21 40  1  0
 21 41  1  0
 22 42  1  0
 23 43  1  0
 24 44  1  0
 25 45  1  0
M  END
$$$$
