
     RDKit          3D

 62 64  0  0  0  0  0  0  0  0999 V2000
   -5.1269    1.7744   -2.1121 C   0  0  0  0  0  0  0  0  0  0  0  0
   -3.9841    1.3144   -1.2454 C   0  0  0  0  0  0  0  0  0  0  0  0
   -2.7436    1.9312   -1.5293 C   0  0  0  0  0  0  0  0  0  0  0  0
   -1.5814    1.5857   -0.8543 C   0  0  0  0  0  0  0  0  0  0  0  0
   -0.4259    2.3008   -1.2013 O   0  0  0  0  0  0  0  0  0  0  0  0
    0.7747    2.0745   -0.5555 C   0  0  0  0  0  0  0  0  0  0  0  0
    1.7725    2.7395   -0.8308 O   0  0  0  0  0  0  0  0  0  0  0  0
    0.8227    0.9816    0.4569 C   0  0  0  0  0  0  0  0  0  0  0  0
    2.1955    0.8115    1.0615 C   0  0  0  0  0  0  0  0  0  0  0  0
    3.0847    0.0345    0.1049 C   0  0  0  0  0  0  0  0  0  0  0  0
    3.0968   -1.1932    0.0716 O   0  0  0  0  0  0  0  0  0  0  0  0
    3.8514    0.8308   -0.7212 N   0  0  0  0  0  0  0  0  0  0  0  0
    4.6974    0.2807   -1.7609 C   0  0  0  0  0  0  0  0  0  0  0  0
    6.1782    0.3210   -1.3859 C   0  0  0  0  0  0  0  0  0  0  0  0
    6.5321   -0.7042   -0.2982 C   0  0  0  0  0  0  0  0  0  0  0  0
    7.9882   -0.7950   -0.0778 N   0  0  0  0  0  0  0  0  0  0  0  0
    8.5122    0.3733    0.6291 C   0  0  0  0  0  0  0  0  0  0  0  0
    8.3087   -2.0081    0.6744 C   0  0  0  0  0  0  0  0  0  0  0  0
   -0.2711    0.2516    0.7732 C   0  0  0  0  0  0  0  0  0  0  0  0
   -0.2390   -0.9174    1.7250 C   0  0  0  0  0  0  0  0  0  0  0  0
   -1.5462    0.6000    0.1168 C   0  0  0  0  0  0  0  0  0  0  0  0
   -2.7889    0.0030    0.3992 C   0  0  0  0  0  0  0  0  0  0  0  0
   -2.9829   -0.9558    1.3395 O   0  0  0  0  0  0  0  0  0  0  0  0
   -4.2794   -1.2951    1.3320 C   0  0  0  0  0  0  0  0  0  0  0  0
   -5.0007   -0.5801    0.3899 C   0  0  0  0  0  0  0  0  0  0  0  0
   -6.5085   -0.7497    0.1713 C   0  0  0  0  0  0  0  0  0  0  0  0
   -7.0831   -1.9282    1.0102 C   0  0  0  0  0  0  0  0  0  0  0  0
   -7.2685    0.5054    0.6456 C   0  0  0  0  0  0  0  0  0  0  0  0
   -6.8367   -1.1035   -1.2906 C   0  0  0  0  0  0  0  0  0  0  0  0
   -4.0122    0.3045   -0.2328 C   0  0  0  0  0  0  0  0  0  0  0  0
   -5.1507    1.1851   -3.0305 H   0  0  0  0  0  0  0  0  0  0  0  0
   -6.0861    1.7055   -1.6169 H   0  0  0  0  0  0  0  0  0  0  0  0
   -5.0105    2.8269   -2.3952 H   0  0  0  0  0  0  0  0  0  0  0  0
   -2.6855    2.7002   -2.2979 H   0  0  0  0  0  0  0  0  0  0  0  0
    2.6465    1.7838    1.2937 H   0  0  0  0  0  0  0  0  0  0  0  0
    2.1814    0.2857    2.0184 H   0  0  0  0  0  0  0  0  0  0  0  0
    3.5652    1.8065   -0.8199 H   0  0  0  0  0  0  0  0  0  0  0  0
    4.5345    0.9010   -2.6502 H   0  0  0  0  0  0  0  0  0  0  0  0
    4.3870   -0.7401   -2.0115 H   0  0  0  0  0  0  0  0  0  0  0  0
    6.4424    1.3360   -1.0614 H   0  0  0  0  0  0  0  0  0  0  0  0
    6.7638    0.1047   -2.2905 H   0  0  0  0  0  0  0  0  0  0  0  0
    6.1610   -1.6815   -0.6348 H   0  0  0  0  0  0  0  0  0  0  0  0
    6.0110   -0.4698    0.6385 H   0  0  0  0  0  0  0  0  0  0  0  0
    9.5966    0.2829    0.7613 H   0  0  0  0  0  0  0  0  0  0  0  0
    8.3544    1.2929    0.0626 H   0  0  0  0  0  0  0  0  0  0  0  0
    8.0589    0.4928    1.6163 H   0  0  0  0  0  0  0  0  0  0  0  0
    7.9683   -2.8985    0.1361 H   0  0  0  0  0  0  0  0  0  0  0  0
    7.8580   -2.0134    1.6715 H   0  0  0  0  0  0  0  0  0  0  0  0
    9.3921   -2.1109    0.7899 H   0  0  0  0  0  0  0  0  0  0  0  0
   -0.7911   -0.6852    2.6445 H   0  0  0  0  0  0  0  0  0  0  0  0
   -0.6662   -1.8105    1.2569 H   0  0  0  0  0  0  0  0  0  0  0  0
    0.7684   -1.2080    2.0223 H   0  0  0  0  0  0  0  0  0  0  0  0
   -4.5461   -2.0582    2.0506 H   0  0  0  0  0  0  0  0  0  0  0  0
   -8.1594   -2.0575    0.8341 H   0  0  0  0  0  0  0  0  0  0  0  0
   -6.9515   -1.7584    2.0854 H   0  0  0  0  0  0  0  0  0  0  0  0
   -6.5975   -2.8806    0.7571 H   0  0  0  0  0  0  0  0  0  0  0  0
   -8.3450    0.4139    0.4504 H   0  0  0  0  0  0  0  0  0  0  0  0
   -7.1355    0.6596    1.7252 H   0  0  0  0  0  0  0  0  0  0  0  0
   -6.9229    1.4237    0.1675 H   0  0  0  0  0  0  0  0  0  0  0  0
   -6.3681   -2.0524   -1.5818 H   0  0  0  0  0  0  0  0  0  0  0  0
   -6.4932   -0.3608   -2.0049 H   0  0  0  0  0  0  0  0  0  0  0  0
   -7.9161   -1.2033   -1.4396 H   0  0  0  0  0  0  0  0  0  0  0  0
  1  2  1  0
  2  3  2  0
  3  4  1  0
  4  5  1  0
  5  6  1  0
  6  7  2  0
  6  8  1  0
  8  9  1  0
  9 10  1  0
 10 11  2  0
 10 12  1  0
 12 13  1  0
 13 14  1  0
 14 15  1  0
 15 16  1  0
 16 17  1  0
 16 18  1  0
  8 19  2  0
 19 20  1  0
 19 21  1  0
 21 22  1  0
 22 23  1  0
 23 24  1  0
 24 25  2  0
 25 26  1  0
 26 27  1  0
 26 28  1  0
 26 29  1  0
 25 30  1  0
 30  2  1  0
 21  4  2  0
 30 22  2  0
  1 31  1  0
  1 32  1  0
  1 33  1  0
  3 34  1  0
  9 35  1  0
  9 36  1  0
 12 37  1  0
 13 38  1  0
 13 39  1  0
 14 40  1  0
 14 41  1  0
 15 42  1  0
 15 43  1  0
 17 44  1  0
 17 45  1  0
 17 46  1  0
 18 47  1  0
 18 48  1  0
 18 49  1  0
 20 50  1  0
 20 51  1  0
 20 52  1  0
 24 53  1  0
 27 54  1  0
 27 55  1  0
 27 56  1  0
 28 57  1  0
 28 58  1  0
 28 59  1  0
 29 60  1  0
 29 61  1  0
 29 62  1  0
M  END
$$$$
