
     RDKit          3D

 62 63  0  0  0  0  0  0  0  0999 V2000
   -7.7026   -1.0384    1.5578 C   0  0  0  0  0  0  0  0  0  0  0  0
   -7.1216   -0.0149    0.5551 C   0  0  0  0  0  0  0  0  0  0  0  0
   -7.8255   -0.2482   -0.8004 C   0  0  0  0  0  0  0  0  0  0  0  0
   -7.4860    1.3921    1.0806 C   0  0  0  0  0  0  0  0  0  0  0  0
   -5.5970   -0.1309    0.3683 C   0  0  0  0  0  0  0  0  0  0  0  0
   -4.8280   -1.1171    1.0024 C   0  0  0  0  0  0  0  0  0  0  0  0
   -3.4461   -1.2097    0.8019 C   0  0  0  0  0  0  0  0  0  0  0  0
   -2.7954   -0.3147   -0.0441 C   0  0  0  0  0  0  0  0  0  0  0  0
   -1.4455   -0.3278   -0.3125 O   0  0  0  0  0  0  0  0  0  0  0  0
   -0.7359   -1.5212    0.0393 C   0  0  0  0  0  0  0  0  0  0  0  0
    0.6700   -1.4548   -0.5582 C   0  0  0  0  0  0  0  0  0  0  0  0
    1.4295   -0.4777    0.1624 O   0  0  0  0  0  0  0  0  0  0  0  0
    2.7816   -0.4424   -0.0873 C   0  0  0  0  0  0  0  0  0  0  0  0
    3.4075   -1.0592   -1.1690 C   0  0  0  0  0  0  0  0  0  0  0  0
    4.7961   -0.9715   -1.3271 C   0  0  0  0  0  0  0  0  0  0  0  0
    5.5944   -0.2652   -0.4155 C   0  0  0  0  0  0  0  0  0  0  0  0
    7.1232   -0.1517   -0.5612 C   0  0  0  0  0  0  0  0  0  0  0  0
    7.8111   -0.7385    0.6908 C   0  0  0  0  0  0  0  0  0  0  0  0
    7.5186    1.3335   -0.7110 C   0  0  0  0  0  0  0  0  0  0  0  0
    7.6924   -0.9061   -1.7854 C   0  0  0  0  0  0  0  0  0  0  0  0
    4.9404    0.3634    0.6648 C   0  0  0  0  0  0  0  0  0  0  0  0
    3.5535    0.2874    0.8335 C   0  0  0  0  0  0  0  0  0  0  0  0
    2.8628    0.9102    1.8956 N   0  0  0  0  0  0  0  0  0  0  0  0
    3.3820    1.6203    2.9463 C   0  0  0  0  0  0  0  0  0  0  0  0
    4.5503    1.8673    3.2099 O   0  0  0  0  0  0  0  0  0  0  0  0
   -3.5354    0.6972   -0.6780 C   0  0  0  0  0  0  0  0  0  0  0  0
   -2.8196    1.5935   -1.5009 N   0  0  0  0  0  0  0  0  0  0  0  0
   -3.3089    2.6245   -2.2591 C   0  0  0  0  0  0  0  0  0  0  0  0
   -4.4623    2.9878   -2.4113 O   0  0  0  0  0  0  0  0  0  0  0  0
   -4.9180    0.7734   -0.4738 C   0  0  0  0  0  0  0  0  0  0  0  0
   -7.2605   -0.9205    2.5553 H   0  0  0  0  0  0  0  0  0  0  0  0
   -7.5304   -2.0708    1.2274 H   0  0  0  0  0  0  0  0  0  0  0  0
   -8.7870   -0.9146    1.6689 H   0  0  0  0  0  0  0  0  0  0  0  0
   -8.9155   -0.2061   -0.6926 H   0  0  0  0  0  0  0  0  0  0  0  0
   -7.5675   -1.2301   -1.2163 H   0  0  0  0  0  0  0  0  0  0  0  0
   -7.5476    0.5077   -1.5445 H   0  0  0  0  0  0  0  0  0  0  0  0
   -8.5615    1.4730    1.2794 H   0  0  0  0  0  0  0  0  0  0  0  0
   -6.9554    1.6155    2.0155 H   0  0  0  0  0  0  0  0  0  0  0  0
   -7.2370    2.1818    0.3620 H   0  0  0  0  0  0  0  0  0  0  0  0
   -5.2820   -1.8434    1.6701 H   0  0  0  0  0  0  0  0  0  0  0  0
   -2.9121   -1.9897    1.3317 H   0  0  0  0  0  0  0  0  0  0  0  0
   -1.2503   -2.3959   -0.3756 H   0  0  0  0  0  0  0  0  0  0  0  0
   -0.6661   -1.5935    1.1305 H   0  0  0  0  0  0  0  0  0  0  0  0
    0.6098   -1.1620   -1.6120 H   0  0  0  0  0  0  0  0  0  0  0  0
    1.1365   -2.4408   -0.4551 H   0  0  0  0  0  0  0  0  0  0  0  0
    2.8503   -1.6106   -1.9177 H   0  0  0  0  0  0  0  0  0  0  0  0
    5.2327   -1.4713   -2.1874 H   0  0  0  0  0  0  0  0  0  0  0  0
    8.9034   -0.7092    0.5904 H   0  0  0  0  0  0  0  0  0  0  0  0
    7.5189   -1.7853    0.8507 H   0  0  0  0  0  0  0  0  0  0  0  0
    7.5590   -0.1835    1.6019 H   0  0  0  0  0  0  0  0  0  0  0  0
    8.5986    1.4423   -0.8659 H   0  0  0  0  0  0  0  0  0  0  0  0
    7.2626    1.9234    0.1770 H   0  0  0  0  0  0  0  0  0  0  0  0
    7.0097    1.7919   -1.5683 H   0  0  0  0  0  0  0  0  0  0  0  0
    7.4810   -1.9818   -1.7296 H   0  0  0  0  0  0  0  0  0  0  0  0
    8.7828   -0.7954   -1.8456 H   0  0  0  0  0  0  0  0  0  0  0  0
    7.2768   -0.5236   -2.7268 H   0  0  0  0  0  0  0  0  0  0  0  0
    5.5361    0.9250    1.3781 H   0  0  0  0  0  0  0  0  0  0  0  0
    1.8561    0.7822    1.8675 H   0  0  0  0  0  0  0  0  0  0  0  0
    2.5714    1.9812    3.6026 H   0  0  0  0  0  0  0  0  0  0  0  0
   -1.8210    1.4212   -1.5334 H   0  0  0  0  0  0  0  0  0  0  0  0
   -2.4846    3.1432   -2.7787 H   0  0  0  0  0  0  0  0  0  0  0  0
   -5.4932    1.5467   -0.9734 H   0  0  0  0  0  0  0  0  0  0  0  0
  1  2  1  0
  2  3  1  0
  2  4  1  0
  2  5  1  0
  5  6  2  0
  6  7  1  0
  7  8  2  0
  8  9  1  0
  9 10  1  0
 10 11  1  0
 11 12  1  0
 12 13  1  0
 13 14  2  0
 14 15  1  0
 15 16  2  0
 16 17  1  0
 17 18  1  0
 17 19  1  0
 17 20  1  0
 16 21  1  0
 21 22  2  0
 22 23  1  0
 23 24  1  0
 24 25  2  0
  8 26  1  0
 26 27  1  0
 27 28  1  0
 28 29  2  0
 26 30  2  0
 30  5  1  0
 22 13  1  0
  1 31  1  0
  1 32  1  0
  1 33  1  0
  3 34  1  0
  3 35  1  0
  3 36  1  0
  4 37  1  0
  4 38  1  0
  4 39  1  0
  6 40  1  0
  7 41  1  0
 10 42  1  0
 10 43  1  0
 11 44  1  0
 11 45  1  0
 14 46  1  0
 15 47  1  0
 18 48  1  0
 18 49  1  0
 18 50  1  0
 19 51  1  0
 19 52  1  0
 19 53  1  0
 20 54  1  0
 20 55  1  0
 20 56  1  0
 21 57  1  0
 23 58  1  0
 24 59  1  0
 27 60  1  0
 28 61  1  0
 30 62  1  0
M  END
$$$$
