
     RDKit          3D

 48 49  0  0  0  0  0  0  0  0999 V2000
    0.9717    2.5406    2.2123 C   0  0  0  0  0  0  0  0  0  0  0  0
    1.6525    1.6909    1.2986 O   0  0  0  0  0  0  0  0  0  0  0  0
    0.9049    0.7562    0.6292 C   0  0  0  0  0  0  0  0  0  0  0  0
   -0.4190    0.4263    0.9417 C   0  0  0  0  0  0  0  0  0  0  0  0
   -1.1164   -0.5396    0.1956 C   0  0  0  0  0  0  0  0  0  0  0  0
   -2.5546   -0.8792    0.5239 C   0  0  0  0  0  0  0  0  0  0  0  0
   -3.4470   -0.2835   -0.4650 N   0  0  0  0  0  0  0  0  0  0  0  0
   -4.8984   -0.4535   -0.2321 C   0  0  0  0  0  0  0  0  0  0  0  0
   -5.2817   -1.9353   -0.0604 C   0  0  0  0  0  0  0  0  0  0  0  0
   -5.3585    0.3369    1.0080 C   0  0  0  0  0  0  0  0  0  0  0  0
   -5.6175    0.1195   -1.4919 C   0  0  0  0  0  0  0  0  0  0  0  0
   -7.0378    0.0433   -1.4008 O   0  0  0  0  0  0  0  0  0  0  0  0
   -0.4771   -1.1633   -0.8853 C   0  0  0  0  0  0  0  0  0  0  0  0
    0.8437   -0.8457   -1.2014 C   0  0  0  0  0  0  0  0  0  0  0  0
    1.6492   -1.7218   -2.6797 Br  0  0  0  0  0  0  0  0  0  0  0  0
    1.5425    0.0926   -0.4334 C   0  0  0  0  0  0  0  0  0  0  0  0
    2.8326    0.4201   -0.7792 O   0  0  0  0  0  0  0  0  0  0  0  0
    3.7645   -0.2324    0.0875 C   0  0  0  0  0  0  0  0  0  0  0  0
    5.1479   -0.0215   -0.4781 C   0  0  0  0  0  0  0  0  0  0  0  0
    5.7124   -0.9624   -1.3517 C   0  0  0  0  0  0  0  0  0  0  0  0
    6.9850   -0.7547   -1.8885 C   0  0  0  0  0  0  0  0  0  0  0  0
    7.6945    0.3990   -1.5615 C   0  0  0  0  0  0  0  0  0  0  0  0
    9.2626    0.6544   -2.2229 Cl  0  0  0  0  0  0  0  0  0  0  0  0
    7.1409    1.3498   -0.7069 C   0  0  0  0  0  0  0  0  0  0  0  0
    5.8682    1.1423   -0.1703 C   0  0  0  0  0  0  0  0  0  0  0  0
    0.1449    3.0691    1.7259 H   0  0  0  0  0  0  0  0  0  0  0  0
    0.6241    1.9778    3.0845 H   0  0  0  0  0  0  0  0  0  0  0  0
    1.6851    3.2917    2.5648 H   0  0  0  0  0  0  0  0  0  0  0  0
   -0.9346    0.9098    1.7659 H   0  0  0  0  0  0  0  0  0  0  0  0
   -2.6430   -1.9715    0.5335 H   0  0  0  0  0  0  0  0  0  0  0  0
   -2.7819   -0.5276    1.5357 H   0  0  0  0  0  0  0  0  0  0  0  0
   -3.2333    0.7122   -0.5396 H   0  0  0  0  0  0  0  0  0  0  0  0
   -4.9503   -2.5315   -0.9183 H   0  0  0  0  0  0  0  0  0  0  0  0
   -6.3662   -2.0609    0.0310 H   0  0  0  0  0  0  0  0  0  0  0  0
   -4.8429   -2.3699    0.8444 H   0  0  0  0  0  0  0  0  0  0  0  0
   -6.4463    0.2860    1.1313 H   0  0  0  0  0  0  0  0  0  0  0  0
   -5.0857    1.3955    0.9277 H   0  0  0  0  0  0  0  0  0  0  0  0
   -4.9176   -0.0542    1.9308 H   0  0  0  0  0  0  0  0  0  0  0  0
   -5.3631    1.1775   -1.6267 H   0  0  0  0  0  0  0  0  0  0  0  0
   -5.3054   -0.4083   -2.4014 H   0  0  0  0  0  0  0  0  0  0  0  0
   -7.2935   -0.8642   -1.6390 H   0  0  0  0  0  0  0  0  0  0  0  0
   -1.0248   -1.8888   -1.4840 H   0  0  0  0  0  0  0  0  0  0  0  0
    3.5558   -1.3085    0.1575 H   0  0  0  0  0  0  0  0  0  0  0  0
    3.7208    0.1846    1.1010 H   0  0  0  0  0  0  0  0  0  0  0  0
    5.1588   -1.8583   -1.6254 H   0  0  0  0  0  0  0  0  0  0  0  0
    7.4117   -1.4910   -2.5640 H   0  0  0  0  0  0  0  0  0  0  0  0
    7.6887    2.2550   -0.4605 H   0  0  0  0  0  0  0  0  0  0  0  0
    5.4335    1.8965    0.4828 H   0  0  0  0  0  0  0  0  0  0  0  0
  1  2  1  0
  2  3  1  0
  3  4  2  0
  4  5  1  0
  5  6  1  0
  6  7  1  0
  7  8  1  0
  8  9  1  0
  8 10  1  0
  8 11  1  0
 11 12  1  0
  5 13  2  0
 13 14  1  0
 14 15  1  0
 14 16  2  0
 16 17  1  0
 17 18  1  0
 18 19  1  0
 19 20  2  0
 20 21  1  0
 21 22  2  0
 22 23  1  0
 22 24  1  0
 24 25  2  0
 16  3  1  0
 25 19  1  0
  1 26  1  0
  1 27  1  0
  1 28  1  0
  4 29  1  0
  6 30  1  0
  6 31  1  0
  7 32  1  0
  9 33  1  0
  9 34  1  0
  9 35  1  0
 10 36  1  0
 10 37  1  0
 10 38  1  0
 11 39  1  0
 11 40  1  0
 12 41  1  0
 13 42  1  0
 18 43  1  0
 18 44  1  0
 20 45  1  0
 21 46  1  0
 24 47  1  0
 25 48  1  0
M  END
$$$$
