
     RDKit          3D

 38 41  0  0  0  0  0  0  0  0999 V2000
    8.2601    1.5066    0.5046 C   0  0  0  0  0  0  0  0  0  0  0  0
    6.7877    1.6650    0.5925 C   0  0  0  0  0  0  0  0  0  0  0  0
    6.1667    2.7348    1.0423 N   0  0  0  0  0  0  0  0  0  0  0  0
    4.7946    2.5869    1.0024 N   0  0  0  0  0  0  0  0  0  0  0  0
    4.4327    1.4166    0.5246 C   0  0  0  0  0  0  0  0  0  0  0  0
    3.1147    1.0624    0.3989 N   0  0  0  0  0  0  0  0  0  0  0  0
    2.6018   -0.1218   -0.0835 C   0  0  0  0  0  0  0  0  0  0  0  0
    3.2836   -1.0612   -0.4877 O   0  0  0  0  0  0  0  0  0  0  0  0
    1.1364   -0.1964   -0.0876 C   0  0  0  0  0  0  0  0  0  0  0  0
    0.1686    1.1620    0.3038 S   0  0  0  0  0  0  0  0  0  0  0  0
   -1.2747    0.3019    0.0560 C   0  0  0  0  0  0  0  0  0  0  0  0
   -2.4536    0.9224    0.2396 N   0  0  0  0  0  0  0  0  0  0  0  0
   -3.5420    0.1595    0.0417 C   0  0  0  0  0  0  0  0  0  0  0  0
   -4.8350    0.8286    0.2589 C   0  0  0  0  0  0  0  0  0  0  0  0
   -6.0284    0.2985    0.7238 C   0  0  0  0  0  0  0  0  0  0  0  0
   -7.0780    1.2619    0.7867 C   0  0  0  0  0  0  0  0  0  0  0  0
   -6.6608    2.5029    0.3661 C   0  0  0  0  0  0  0  0  0  0  0  0
   -5.0178    2.5026   -0.0994 S   0  0  0  0  0  0  0  0  0  0  0  0
   -3.4803   -1.1800   -0.3192 C   0  0  0  0  0  0  0  0  0  0  0  0
   -2.2344   -1.8103   -0.5165 C   0  0  0  0  0  0  0  0  0  0  0  0
   -2.1988   -3.2717   -0.8718 C   0  0  0  0  0  0  0  0  0  0  0  0
   -1.8487   -4.0594    0.1800 F   0  0  0  0  0  0  0  0  0  0  0  0
   -3.4047   -3.7455   -1.2989 F   0  0  0  0  0  0  0  0  0  0  0  0
   -1.3227   -3.5644   -1.8748 F   0  0  0  0  0  0  0  0  0  0  0  0
   -1.0707   -1.0201   -0.3200 C   0  0  0  0  0  0  0  0  0  0  0  0
    0.3422   -1.2863   -0.4103 C   0  0  0  0  0  0  0  0  0  0  0  0
    0.8613   -2.4870   -0.7637 N   0  0  0  0  0  0  0  0  0  0  0  0
    5.7338    0.4078    0.0886 S   0  0  0  0  0  0  0  0  0  0  0  0
    8.7652    2.3970    0.8926 H   0  0  0  0  0  0  0  0  0  0  0  0
    8.5749    1.3673   -0.5344 H   0  0  0  0  0  0  0  0  0  0  0  0
    8.5964    0.6464    1.0921 H   0  0  0  0  0  0  0  0  0  0  0  0
    2.4709    1.7791    0.7067 H   0  0  0  0  0  0  0  0  0  0  0  0
   -6.1498   -0.7359    1.0217 H   0  0  0  0  0  0  0  0  0  0  0  0
   -8.0854    1.0551    1.1269 H   0  0  0  0  0  0  0  0  0  0  0  0
   -7.2401    3.4144    0.3108 H   0  0  0  0  0  0  0  0  0  0  0  0
   -4.3980   -1.7472   -0.4610 H   0  0  0  0  0  0  0  0  0  0  0  0
    0.3587   -3.1364   -1.3688 H   0  0  0  0  0  0  0  0  0  0  0  0
    1.8733   -2.5560   -0.9230 H   0  0  0  0  0  0  0  0  0  0  0  0
  1  2  1  0
  2  3  2  0
  3  4  1  0
  4  5  2  0
  5  6  1  0
  6  7  1  0
  7  8  2  0
  7  9  1  0
  9 10  1  0
 10 11  1  0
 11 12  2  0
 12 13  1  0
 13 14  1  0
 14 15  2  0
 15 16  1  0
 16 17  2  0
 17 18  1  0
 13 19  2  0
 19 20  1  0
 20 21  1  0
 21 22  1  0
 21 23  1  0
 21 24  1  0
 20 25  2  0
 25 26  1  0
 26 27  1  0
  5 28  1  0
 28  2  1  0
 26  9  2  0
 25 11  1  0
 18 14  1  0
  1 29  1  0
  1 30  1  0
  1 31  1  0
  6 32  1  0
 15 33  1  0
 16 34  1  0
 17 35  1  0
 19 36  1  0
 27 37  1  0
 27 38  1  0
M  END
$$$$
