
     RDKit          3D

 42 44  0  0  0  0  0  0  0  0999 V2000
    5.5917   -0.3449   -0.2713 C   0  0  0  0  0  0  0  0  0  0  0  0
    4.5418   -1.3908    0.0706 C   0  0  0  0  0  0  0  0  0  0  0  0
    3.1806   -0.7749    0.2681 C   0  0  0  0  0  0  0  0  0  0  0  0
    2.3093   -0.6155   -0.8143 C   0  0  0  0  0  0  0  0  0  0  0  0
    1.0524   -0.0288   -0.6385 C   0  0  0  0  0  0  0  0  0  0  0  0
    0.6399    0.4210    0.6234 C   0  0  0  0  0  0  0  0  0  0  0  0
   -0.7331    1.0451    0.8807 C   0  0  0  0  0  0  0  0  0  0  0  0
   -1.7530   -0.0185    1.3360 C   0  0  0  0  0  0  0  0  0  0  0  0
   -2.7791    0.6371    2.2400 C   0  0  0  0  0  0  0  0  0  0  0  0
   -3.9635    0.8278    2.0219 O   0  0  0  0  0  0  0  0  0  0  0  0
   -2.2569    1.0038    3.4323 O   0  0  0  0  0  0  0  0  0  0  0  0
   -2.3961   -0.7138    0.1569 C   0  0  0  0  0  0  0  0  0  0  0  0
   -2.8920   -2.0215    0.2852 C   0  0  0  0  0  0  0  0  0  0  0  0
   -3.5142   -2.6502   -0.7940 C   0  0  0  0  0  0  0  0  0  0  0  0
   -3.6547   -1.9803   -2.0072 C   0  0  0  0  0  0  0  0  0  0  0  0
   -3.1703   -0.6795   -2.1437 C   0  0  0  0  0  0  0  0  0  0  0  0
   -2.5389   -0.0435   -1.0665 C   0  0  0  0  0  0  0  0  0  0  0  0
   -2.0192    1.3411   -1.2509 C   0  0  0  0  0  0  0  0  0  0  0  0
   -2.2893    1.9541   -2.2797 O   0  0  0  0  0  0  0  0  0  0  0  0
   -1.2249    1.8668   -0.2356 N   0  0  0  0  0  0  0  0  0  0  0  0
   -0.6306    3.1818   -0.4191 C   0  0  0  0  0  0  0  0  0  0  0  0
    1.5225    0.2598    1.7059 C   0  0  0  0  0  0  0  0  0  0  0  0
    2.7784   -0.3267    1.5298 C   0  0  0  0  0  0  0  0  0  0  0  0
    5.3388    0.1846   -1.1962 H   0  0  0  0  0  0  0  0  0  0  0  0
    5.6857    0.3995    0.5267 H   0  0  0  0  0  0  0  0  0  0  0  0
    6.5683   -0.8198   -0.4087 H   0  0  0  0  0  0  0  0  0  0  0  0
    4.4943   -2.1429   -0.7264 H   0  0  0  0  0  0  0  0  0  0  0  0
    4.8379   -1.9302    0.9786 H   0  0  0  0  0  0  0  0  0  0  0  0
    2.6031   -0.9464   -1.8085 H   0  0  0  0  0  0  0  0  0  0  0  0
    0.4113    0.0747   -1.5101 H   0  0  0  0  0  0  0  0  0  0  0  0
   -0.5860    1.7603    1.7023 H   0  0  0  0  0  0  0  0  0  0  0  0
   -1.2545   -0.7840    1.9477 H   0  0  0  0  0  0  0  0  0  0  0  0
   -3.0249    1.3862    3.9111 H   0  0  0  0  0  0  0  0  0  0  0  0
   -2.8031   -2.5577    1.2278 H   0  0  0  0  0  0  0  0  0  0  0  0
   -3.8973   -3.6621   -0.6863 H   0  0  0  0  0  0  0  0  0  0  0  0
   -4.1450   -2.4672   -2.8464 H   0  0  0  0  0  0  0  0  0  0  0  0
   -3.2869   -0.1608   -3.0934 H   0  0  0  0  0  0  0  0  0  0  0  0
    0.4131    3.0638   -0.7234 H   0  0  0  0  0  0  0  0  0  0  0  0
   -0.6792    3.7330    0.5244 H   0  0  0  0  0  0  0  0  0  0  0  0
   -1.1571    3.7572   -1.1853 H   0  0  0  0  0  0  0  0  0  0  0  0
    1.2388    0.5931    2.7028 H   0  0  0  0  0  0  0  0  0  0  0  0
    3.4419   -0.4310    2.3855 H   0  0  0  0  0  0  0  0  0  0  0  0
  1  2  1  0
  2  3  1  0
  3  4  2  0
  4  5  1  0
  5  6  2  0
  6  7  1  0
  7  8  1  0
  8  9  1  0
  9 10  2  0
  9 11  1  0
  8 12  1  0
 12 13  2  0
 13 14  1  0
 14 15  2  0
 15 16  1  0
 16 17  2  0
 17 18  1  0
 18 19  2  0
 18 20  1  0
 20 21  1  0
  6 22  1  0
 22 23  2  0
 23  3  1  0
 20  7  1  0
 17 12  1  0
  1 24  1  0
  1 25  1  0
  1 26  1  0
  2 27  1  0
  2 28  1  0
  4 29  1  0
  5 30  1  0
  7 31  1  0
  8 32  1  0
 11 33  1  0
 13 34  1  0
 14 35  1  0
 15 36  1  0
 16 37  1  0
 21 38  1  0
 21 39  1  0
 21 40  1  0
 22 41  1  0
 23 42  1  0
M  END
$$$$
