
     RDKit          3D

 44 47  0  0  0  0  0  0  0  0999 V2000
   -6.2144    0.7323   -2.6024 C   0  0  0  0  0  0  0  0  0  0  0  0
   -5.1436    1.3940   -1.9413 O   0  0  0  0  0  0  0  0  0  0  0  0
   -4.1812    0.6026   -1.3782 C   0  0  0  0  0  0  0  0  0  0  0  0
   -3.1515    1.2980   -0.7428 C   0  0  0  0  0  0  0  0  0  0  0  0
   -2.1022    0.6136   -0.1243 C   0  0  0  0  0  0  0  0  0  0  0  0
   -2.0625   -0.7883   -0.1331 C   0  0  0  0  0  0  0  0  0  0  0  0
   -0.9361   -1.5583    0.5388 C   0  0  0  0  0  0  0  0  0  0  0  0
    0.4243   -1.1537    0.0155 C   0  0  0  0  0  0  0  0  0  0  0  0
    1.5145   -1.0574    0.7981 C   0  0  0  0  0  0  0  0  0  0  0  0
    2.8001   -0.6419    0.2045 C   0  0  0  0  0  0  0  0  0  0  0  0
    3.6992   -1.6436   -0.1641 C   0  0  0  0  0  0  0  0  0  0  0  0
    4.8986   -1.2675   -0.7313 C   0  0  0  0  0  0  0  0  0  0  0  0
    5.2538    0.0141   -0.9530 N   0  0  0  0  0  0  0  0  0  0  0  0
    4.3929    0.9828   -0.6056 C   0  0  0  0  0  0  0  0  0  0  0  0
    4.7606    2.3019   -0.8386 C   0  0  0  0  0  0  0  0  0  0  0  0
    3.9256    3.3721   -0.5071 C   0  0  0  0  0  0  0  0  0  0  0  0
    2.6925    3.1180    0.0736 C   0  0  0  0  0  0  0  0  0  0  0  0
    1.6511    4.4210    0.4894 Cl  0  0  0  0  0  0  0  0  0  0  0  0
    2.2957    1.8069    0.3215 C   0  0  0  0  0  0  0  0  0  0  0  0
    3.1361    0.7176   -0.0157 C   0  0  0  0  0  0  0  0  0  0  0  0
    1.5270   -1.3879    2.2662 C   0  0  0  0  0  0  0  0  0  0  0  0
    0.2046   -1.9971    2.6990 C   0  0  0  0  0  0  0  0  0  0  0  0
    0.1442   -2.8411    3.5935 O   0  0  0  0  0  0  0  0  0  0  0  0
   -1.0410   -1.4339    2.0624 C   0  0  0  0  0  0  0  0  0  0  0  0
   -3.1020   -1.4803   -0.7716 C   0  0  0  0  0  0  0  0  0  0  0  0
   -4.1525   -0.7909   -1.3898 C   0  0  0  0  0  0  0  0  0  0  0  0
   -5.8509    0.1436   -3.4512 H   0  0  0  0  0  0  0  0  0  0  0  0
   -6.7852    0.1106   -1.9047 H   0  0  0  0  0  0  0  0  0  0  0  0
   -6.8900    1.4987   -2.9943 H   0  0  0  0  0  0  0  0  0  0  0  0
   -3.1664    2.3854   -0.7294 H   0  0  0  0  0  0  0  0  0  0  0  0
   -1.3178    1.1899    0.3603 H   0  0  0  0  0  0  0  0  0  0  0  0
   -1.0437   -2.6210    0.2775 H   0  0  0  0  0  0  0  0  0  0  0  0
    0.4949   -0.9432   -1.0520 H   0  0  0  0  0  0  0  0  0  0  0  0
    3.4729   -2.6948   -0.0191 H   0  0  0  0  0  0  0  0  0  0  0  0
    5.6317   -2.0095   -1.0354 H   0  0  0  0  0  0  0  0  0  0  0  0
    5.7284    2.5027   -1.2938 H   0  0  0  0  0  0  0  0  0  0  0  0
    4.2486    4.3902   -0.7063 H   0  0  0  0  0  0  0  0  0  0  0  0
    1.3257    1.6319    0.7787 H   0  0  0  0  0  0  0  0  0  0  0  0
    1.6964   -0.4845    2.8617 H   0  0  0  0  0  0  0  0  0  0  0  0
    2.3174   -2.1140    2.4872 H   0  0  0  0  0  0  0  0  0  0  0  0
   -1.9162   -1.9820    2.4307 H   0  0  0  0  0  0  0  0  0  0  0  0
   -1.1418   -0.3943    2.3967 H   0  0  0  0  0  0  0  0  0  0  0  0
   -3.1068   -2.5684   -0.7951 H   0  0  0  0  0  0  0  0  0  0  0  0
   -4.9310   -1.3743   -1.8699 H   0  0  0  0  0  0  0  0  0  0  0  0
  1  2  1  0
  2  3  1  0
  3  4  2  0
  4  5  1  0
  5  6  2  0
  6  7  1  0
  7  8  1  0
  8  9  2  0
  9 10  1  0
 10 11  2  0
 11 12  1  0
 12 13  2  0
 13 14  1  0
 14 15  2  0
 15 16  1  0
 16 17  2  0
 17 18  1  0
 17 19  1  0
 19 20  2  0
  9 21  1  0
 21 22  1  0
 22 23  2  0
 22 24  1  0
  6 25  1  0
 25 26  2  0
 26  3  1  0
 24  7  1  0
 20 10  1  0
 20 14  1  0
  1 27  1  0
  1 28  1  0
  1 29  1  0
  4 30  1  0
  5 31  1  0
  7 32  1  0
  8 33  1  0
 11 34  1  0
 12 35  1  0
 15 36  1  0
 16 37  1  0
 19 38  1  0
 21 39  1  0
 21 40  1  0
 24 41  1  0
 24 42  1  0
 25 43  1  0
 26 44  1  0
M  END
$$$$
