
     RDKit          3D

 43 45  0  0  0  0  0  0  0  0999 V2000
    5.8757    1.8224    1.4527 C   0  0  0  0  0  0  0  0  0  0  0  0
    4.5152    1.4985    1.1956 O   0  0  0  0  0  0  0  0  0  0  0  0
    4.2749    0.4111    0.3980 C   0  0  0  0  0  0  0  0  0  0  0  0
    5.2413   -0.4035   -0.1819 C   0  0  0  0  0  0  0  0  0  0  0  0
    4.8760   -1.4911   -0.9815 C   0  0  0  0  0  0  0  0  0  0  0  0
    3.5119   -1.7349   -1.1805 C   0  0  0  0  0  0  0  0  0  0  0  0
    2.9025   -2.7244   -1.9122 N   0  0  0  0  0  0  0  0  0  0  0  0
    1.5479   -2.5932   -1.8370 C   0  0  0  0  0  0  0  0  0  0  0  0
    1.2417   -1.4983   -1.0424 C   0  0  0  0  0  0  0  0  0  0  0  0
   -0.1502   -1.0955   -0.7695 C   0  0  0  0  0  0  0  0  0  0  0  0
   -1.0736   -1.7483   -1.2601 O   0  0  0  0  0  0  0  0  0  0  0  0
   -0.3881    0.1320    0.1228 C   0  0  0  0  0  0  0  0  0  0  0  0
   -1.7953    0.5157    0.3813 N   0  0  0  0  0  0  0  0  0  0  0  0
   -2.5083    0.9375   -0.8281 C   0  0  0  0  0  0  0  0  0  0  0  0
   -3.8779    1.5211   -0.4698 C   0  0  0  0  0  0  0  0  0  0  0  0
   -4.7131    0.5254    0.3436 C   0  0  0  0  0  0  0  0  0  0  0  0
   -6.0378    1.1472    0.7771 C   0  0  0  0  0  0  0  0  0  0  0  0
   -3.9090    0.0422    1.5562 C   0  0  0  0  0  0  0  0  0  0  0  0
   -2.5385   -0.4969    1.1371 C   0  0  0  0  0  0  0  0  0  0  0  0
    2.5033   -0.9449   -0.6190 C   0  0  0  0  0  0  0  0  0  0  0  0
    2.9132    0.1454    0.1832 C   0  0  0  0  0  0  0  0  0  0  0  0
    6.3807    1.0107    1.9867 H   0  0  0  0  0  0  0  0  0  0  0  0
    5.8926    2.7061    2.0980 H   0  0  0  0  0  0  0  0  0  0  0  0
    6.4029    2.0762    0.5271 H   0  0  0  0  0  0  0  0  0  0  0  0
    6.3012   -0.2230   -0.0340 H   0  0  0  0  0  0  0  0  0  0  0  0
    5.6349   -2.1237   -1.4318 H   0  0  0  0  0  0  0  0  0  0  0  0
    3.3915   -3.4427   -2.4291 H   0  0  0  0  0  0  0  0  0  0  0  0
    0.8947   -3.2863   -2.3531 H   0  0  0  0  0  0  0  0  0  0  0  0
    0.1143    0.9890   -0.3402 H   0  0  0  0  0  0  0  0  0  0  0  0
    0.0923   -0.0550    1.0900 H   0  0  0  0  0  0  0  0  0  0  0  0
   -2.6476    0.1100   -1.5323 H   0  0  0  0  0  0  0  0  0  0  0  0
   -1.9347    1.7139   -1.3484 H   0  0  0  0  0  0  0  0  0  0  0  0
   -3.7398    2.4491    0.1007 H   0  0  0  0  0  0  0  0  0  0  0  0
   -4.4094    1.7911   -1.3902 H   0  0  0  0  0  0  0  0  0  0  0  0
   -4.9366   -0.3414   -0.2926 H   0  0  0  0  0  0  0  0  0  0  0  0
   -5.8780    2.0212    1.4176 H   0  0  0  0  0  0  0  0  0  0  0  0
   -6.6190    1.4677   -0.0938 H   0  0  0  0  0  0  0  0  0  0  0  0
   -6.6410    0.4240    1.3359 H   0  0  0  0  0  0  0  0  0  0  0  0
   -3.7731    0.8665    2.2690 H   0  0  0  0  0  0  0  0  0  0  0  0
   -4.4628   -0.7441    2.0830 H   0  0  0  0  0  0  0  0  0  0  0  0
   -2.6797   -1.4178    0.5608 H   0  0  0  0  0  0  0  0  0  0  0  0
   -1.9868   -0.7640    2.0464 H   0  0  0  0  0  0  0  0  0  0  0  0
    2.1913    0.8048    0.6536 H   0  0  0  0  0  0  0  0  0  0  0  0
  1  2  1  0
  2  3  1  0
  3  4  2  0
  4  5  1  0
  5  6  2  0
  6  7  1  0
  7  8  1  0
  8  9  2  0
  9 10  1  0
 10 11  2  0
 10 12  1  0
 12 13  1  0
 13 14  1  0
 14 15  1  0
 15 16  1  0
 16 17  1  0
 16 18  1  0
 18 19  1  0
  9 20  1  0
 20 21  2  0
 21  3  1  0
 20  6  1  0
 19 13  1  0
  1 22  1  0
  1 23  1  0
  1 24  1  0
  4 25  1  0
  5 26  1  0
  7 27  1  0
  8 28  1  0
 12 29  1  0
 12 30  1  0
 14 31  1  0
 14 32  1  0
 15 33  1  0
 15 34  1  0
 16 35  1  0
 17 36  1  0
 17 37  1  0
 17 38  1  0
 18 39  1  0
 18 40  1  0
 19 41  1  0
 19 42  1  0
 21 43  1  0
M  END
$$$$
