
     RDKit          3D

 34 36  0  0  0  0  0  0  0  0999 V2000
   -2.4557   -2.8692   -2.5378 O   0  0  0  0  0  0  0  0  0  0  0  0
   -2.2231   -1.9103   -1.8117 C   0  0  0  0  0  0  0  0  0  0  0  0
   -3.2568   -1.1051   -1.3466 O   0  0  0  0  0  0  0  0  0  0  0  0
   -3.0066   -0.0040   -0.5062 C   0  0  0  0  0  0  0  0  0  0  0  0
   -4.1239    0.7281   -0.1016 C   0  0  0  0  0  0  0  0  0  0  0  0
   -3.9515    1.8300    0.7305 C   0  0  0  0  0  0  0  0  0  0  0  0
   -2.6707    2.1876    1.1478 C   0  0  0  0  0  0  0  0  0  0  0  0
   -1.5603    1.4432    0.7332 C   0  0  0  0  0  0  0  0  0  0  0  0
   -1.7107    0.3286   -0.1054 C   0  0  0  0  0  0  0  0  0  0  0  0
   -0.5677   -0.4903   -0.5721 C   0  0  0  0  0  0  0  0  0  0  0  0
    0.7025   -0.0961   -0.1290 N   0  0  0  0  0  0  0  0  0  0  0  0
    1.3469   -0.7845    1.0091 C   0  0  0  0  0  0  0  0  0  0  0  0
    2.8247   -1.0388    0.7372 C   0  0  0  0  0  0  0  0  0  0  0  0
    3.5842    0.2608    0.4727 C   0  0  0  0  0  0  0  0  0  0  0  0
    2.7124    1.3273   -0.1897 C   0  0  0  0  0  0  0  0  0  0  0  0
    1.5831    0.7049   -1.0022 C   0  0  0  0  0  0  0  0  0  0  0  0
   -0.8878   -1.5242   -1.3707 C   0  0  0  0  0  0  0  0  0  0  0  0
    0.1726   -2.3501   -1.8496 N   0  0  0  0  0  4  0  0  0  0  0  0
    0.5133   -3.3049   -1.1362 O   0  0  0  0  0  0  0  0  0  0  0  0
    0.6801   -2.0434   -2.9380 O   0  0  0  0  0  1  0  0  0  0  0  0
   -5.1187    0.4417   -0.4320 H   0  0  0  0  0  0  0  0  0  0  0  0
   -4.8125    2.4098    1.0539 H   0  0  0  0  0  0  0  0  0  0  0  0
   -2.5321    3.0484    1.7981 H   0  0  0  0  0  0  0  0  0  0  0  0
   -0.5740    1.7483    1.0757 H   0  0  0  0  0  0  0  0  0  0  0  0
    0.8479   -1.7382    1.2176 H   0  0  0  0  0  0  0  0  0  0  0  0
    1.2314   -0.1625    1.9049 H   0  0  0  0  0  0  0  0  0  0  0  0
    3.2818   -1.5687    1.5803 H   0  0  0  0  0  0  0  0  0  0  0  0
    2.9242   -1.6954   -0.1366 H   0  0  0  0  0  0  0  0  0  0  0  0
    4.4528    0.0409   -0.1595 H   0  0  0  0  0  0  0  0  0  0  0  0
    3.9817    0.6613    1.4130 H   0  0  0  0  0  0  0  0  0  0  0  0
    2.2838    1.9730    0.5877 H   0  0  0  0  0  0  0  0  0  0  0  0
    3.3319    1.9697   -0.8253 H   0  0  0  0  0  0  0  0  0  0  0  0
    1.0014    1.5039   -1.4771 H   0  0  0  0  0  0  0  0  0  0  0  0
    1.9955    0.0781   -1.8008 H   0  0  0  0  0  0  0  0  0  0  0  0
  1  2  2  0
  2  3  1  0
  3  4  1  0
  4  5  2  0
  5  6  1  0
  6  7  2  0
  7  8  1  0
  8  9  2  0
  9 10  1  0
 10 11  1  0
 11 12  1  0
 12 13  1  0
 13 14  1  0
 14 15  1  0
 15 16  1  0
 10 17  2  0
 17 18  1  0
 18 19  2  0
 18 20  1  0
 17  2  1  0
  9  4  1  0
 16 11  1  0
  5 21  1  0
  6 22  1  0
  7 23  1  0
  8 24  1  0
 12 25  1  0
 12 26  1  0
 13 27  1  0
 13 28  1  0
 14 29  1  0
 14 30  1  0
 15 31  1  0
 15 32  1  0
 16 33  1  0
 16 34  1  0
M  CHG  2  18   1  20  -1
M  END
$$$$
