
     RDKit          3D

 37 38  0  0  0  0  0  0  0  0999 V2000
   -5.8195    0.0496    0.3153 C   0  0  0  0  0  0  0  0  0  0  0  0
   -4.4637    0.5455    0.5338 N   0  0  0  0  0  0  0  0  0  0  0  0
   -4.0589    1.5202   -0.5013 C   0  0  0  0  0  0  0  0  0  0  0  0
   -2.9362    1.0553   -1.4485 C   0  0  0  0  0  0  0  0  0  0  0  0
   -1.7636    0.5689   -0.7187 N   0  0  0  0  0  0  0  0  0  0  0  0
   -0.5180    0.7119   -1.3008 C   0  0  0  0  0  0  0  0  0  0  0  0
   -0.3591    1.1483   -2.4389 O   0  0  0  0  0  0  0  0  0  0  0  0
    0.6573    0.3222   -0.4738 C   0  0  0  0  0  0  0  0  0  0  0  0
    1.8497    0.1391   -1.0629 C   0  0  0  0  0  0  0  0  0  0  0  0
    3.0809   -0.2036   -0.3401 C   0  0  0  0  0  0  0  0  0  0  0  0
    4.2943    0.3445   -0.7811 C   0  0  0  0  0  0  0  0  0  0  0  0
    5.4973    0.0284   -0.1416 C   0  0  0  0  0  0  0  0  0  0  0  0
    5.4885   -0.8548    0.9439 C   0  0  0  0  0  0  0  0  0  0  0  0
    6.7472   -1.1924    1.6200 N   0  0  0  0  0  4  0  0  0  0  0  0
    7.7892   -0.6770    1.1906 O   0  0  0  0  0  0  0  0  0  0  0  0
    6.6935   -1.9728    2.5815 O   0  0  0  0  0  1  0  0  0  0  0  0
    4.2880   -1.4236    1.3864 C   0  0  0  0  0  0  0  0  0  0  0  0
    3.0908   -1.0994    0.7391 C   0  0  0  0  0  0  0  0  0  0  0  0
   -2.0416   -0.1202    0.5470 C   0  0  0  0  0  0  0  0  0  0  0  0
   -3.5099   -0.5702    0.6608 C   0  0  0  0  0  0  0  0  0  0  0  0
   -5.9166   -0.4746   -0.6422 H   0  0  0  0  0  0  0  0  0  0  0  0
   -6.5382    0.8764    0.3317 H   0  0  0  0  0  0  0  0  0  0  0  0
   -6.1133   -0.6370    1.1171 H   0  0  0  0  0  0  0  0  0  0  0  0
   -3.6991    2.4085    0.0339 H   0  0  0  0  0  0  0  0  0  0  0  0
   -4.9154    1.8579   -1.0981 H   0  0  0  0  0  0  0  0  0  0  0  0
   -2.6516    1.8804   -2.1108 H   0  0  0  0  0  0  0  0  0  0  0  0
   -3.2895    0.2324   -2.0817 H   0  0  0  0  0  0  0  0  0  0  0  0
    0.5338    0.2482    0.5967 H   0  0  0  0  0  0  0  0  0  0  0  0
    1.9509    0.2715   -2.1396 H   0  0  0  0  0  0  0  0  0  0  0  0
    4.3113    1.0325   -1.6255 H   0  0  0  0  0  0  0  0  0  0  0  0
    6.4216    0.4756   -0.5018 H   0  0  0  0  0  0  0  0  0  0  0  0
    4.2663   -2.1202    2.2221 H   0  0  0  0  0  0  0  0  0  0  0  0
    2.1698   -1.5663    1.0813 H   0  0  0  0  0  0  0  0  0  0  0  0
   -1.3885   -0.9950    0.6341 H   0  0  0  0  0  0  0  0  0  0  0  0
   -1.7925    0.5738    1.3586 H   0  0  0  0  0  0  0  0  0  0  0  0
   -3.6985   -1.3234   -0.1166 H   0  0  0  0  0  0  0  0  0  0  0  0
   -3.6567   -1.0605    1.6303 H   0  0  0  0  0  0  0  0  0  0  0  0
  1  2  1  0
  2  3  1  0
  3  4  1  0
  4  5  1  0
  5  6  1  0
  6  7  2  0
  6  8  1  0
  8  9  2  3
  9 10  1  0
 10 11  2  0
 11 12  1  0
 12 13  2  0
 13 14  1  0
 14 15  2  0
 14 16  1  0
 13 17  1  0
 17 18  2  0
  5 19  1  0
 19 20  1  0
 20  2  1  0
 18 10  1  0
  1 21  1  0
  1 22  1  0
  1 23  1  0
  3 24  1  0
  3 25  1  0
  4 26  1  0
  4 27  1  0
  8 28  1  0
  9 29  1  0
 11 30  1  0
 12 31  1  0
 17 32  1  0
 18 33  1  0
 19 34  1  0
 19 35  1  0
 20 36  1  0
 20 37  1  0
M  CHG  2  14   1  16  -1
M  END
$$$$
