
     RDKit          3D

 47 49  0  0  0  0  0  0  0  0999 V2000
    8.1744   -0.0175    0.0880 C   0  0  0  0  0  0  0  0  0  0  0  0
    7.1390   -0.1863   -1.0131 C   0  0  0  0  0  0  0  0  0  0  0  0
    5.7463   -0.5407   -0.4896 C   0  0  0  0  0  0  0  0  0  0  0  0
    5.1050    0.5822    0.3321 C   0  0  0  0  0  0  0  0  0  0  0  0
    3.7392    0.2397    0.7337 N   0  0  0  0  0  0  0  0  0  0  0  0
    2.7005    0.5309   -0.1346 C   0  0  0  0  0  0  0  0  0  0  0  0
    2.8067    1.0694   -1.2284 O   0  0  0  0  0  0  0  0  0  0  0  0
    1.4029    0.0821    0.4403 C   0  0  0  0  0  0  0  0  0  0  0  0
    0.2441    0.2678   -0.2104 C   0  0  0  0  0  0  0  0  0  0  0  0
   -1.0805   -0.1247    0.2541 C   0  0  0  0  0  0  0  0  0  0  0  0
   -2.2836    0.0096   -0.3590 C   0  0  0  0  0  0  0  0  0  0  0  0
   -2.3666    0.6123   -1.6914 C   0  0  0  0  0  0  0  0  0  0  0  0
   -3.5259    0.8718   -2.3063 C   0  0  0  0  0  0  0  0  0  0  0  0
   -4.7852    0.5625   -1.6367 C   0  0  0  0  0  0  0  0  0  0  0  0
   -5.9926    0.9050   -2.2665 C   0  0  0  0  0  0  0  0  0  0  0  0
   -7.2088    0.6281   -1.6520 C   0  0  0  0  0  0  0  0  0  0  0  0
   -7.2200    0.0132   -0.4072 C   0  0  0  0  0  0  0  0  0  0  0  0
   -6.0162   -0.3318    0.2212 C   0  0  0  0  0  0  0  0  0  0  0  0
   -4.7662   -0.0784   -0.3759 C   0  0  0  0  0  0  0  0  0  0  0  0
   -3.5100   -0.4141    0.2267 N   0  0  0  0  0  0  0  0  0  0  0  0
   -3.5602   -1.2651    1.4324 C   0  0  0  0  0  0  0  0  0  0  0  0
   -3.6285   -0.4266    2.7026 C   0  0  0  0  0  0  0  0  0  0  0  0
    1.6625   -0.6628    1.9655 S   0  0  0  0  0  0  0  0  0  0  0  0
    3.4038   -0.4188    1.8985 C   0  0  0  0  0  0  0  0  0  0  0  0
    4.4157   -0.9438    3.1169 S   0  0  0  0  0  0  0  0  0  0  0  0
    7.9531    0.8487    0.7182 H   0  0  0  0  0  0  0  0  0  0  0  0
    8.2201   -0.9068    0.7245 H   0  0  0  0  0  0  0  0  0  0  0  0
    9.1659    0.1369   -0.3498 H   0  0  0  0  0  0  0  0  0  0  0  0
    7.0909    0.7297   -1.6133 H   0  0  0  0  0  0  0  0  0  0  0  0
    7.4719   -0.9874   -1.6837 H   0  0  0  0  0  0  0  0  0  0  0  0
    5.7990   -1.4607    0.1046 H   0  0  0  0  0  0  0  0  0  0  0  0
    5.1039   -0.7701   -1.3492 H   0  0  0  0  0  0  0  0  0  0  0  0
    5.6997    0.8002    1.2235 H   0  0  0  0  0  0  0  0  0  0  0  0
    5.0747    1.5012   -0.2654 H   0  0  0  0  0  0  0  0  0  0  0  0
    0.3025    0.7673   -1.1739 H   0  0  0  0  0  0  0  0  0  0  0  0
   -1.0707   -0.5631    1.2468 H   0  0  0  0  0  0  0  0  0  0  0  0
   -1.4608    0.8624   -2.2290 H   0  0  0  0  0  0  0  0  0  0  0  0
   -3.5470    1.3166   -3.2941 H   0  0  0  0  0  0  0  0  0  0  0  0
   -5.9895    1.3924   -3.2381 H   0  0  0  0  0  0  0  0  0  0  0  0
   -8.1418    0.8962   -2.1398 H   0  0  0  0  0  0  0  0  0  0  0  0
   -8.1658   -0.1980    0.0853 H   0  0  0  0  0  0  0  0  0  0  0  0
   -6.0995   -0.7904    1.2003 H   0  0  0  0  0  0  0  0  0  0  0  0
   -2.6791   -1.9170    1.4783 H   0  0  0  0  0  0  0  0  0  0  0  0
   -4.3896   -1.9810    1.3971 H   0  0  0  0  0  0  0  0  0  0  0  0
   -3.6553   -1.0779    3.5818 H   0  0  0  0  0  0  0  0  0  0  0  0
   -4.5204    0.2067    2.7237 H   0  0  0  0  0  0  0  0  0  0  0  0
   -2.7581    0.2303    2.7961 H   0  0  0  0  0  0  0  0  0  0  0  0
  1  2  1  0
  2  3  1  0
  3  4  1  0
  4  5  1  0
  5  6  1  0
  6  7  2  0
  6  8  1  0
  8  9  2  3
  9 10  1  0
 10 11  2  3
 11 12  1  0
 12 13  2  0
 13 14  1  0
 14 15  2  0
 15 16  1  0
 16 17  2  0
 17 18  1  0
 18 19  2  0
 19 20  1  0
 20 21  1  0
 21 22  1  0
  8 23  1  0
 23 24  1  0
 24 25  2  0
 24  5  1  0
 20 11  1  0
 19 14  1  0
  1 26  1  0
  1 27  1  0
  1 28  1  0
  2 29  1  0
  2 30  1  0
  3 31  1  0
  3 32  1  0
  4 33  1  0
  4 34  1  0
  9 35  1  0
 10 36  1  0
 12 37  1  0
 13 38  1  0
 15 39  1  0
 16 40  1  0
 17 41  1  0
 18 42  1  0
 21 43  1  0
 21 44  1  0
 22 45  1  0
 22 46  1  0
 22 47  1  0
M  END
$$$$
