
     RDKit          3D

 69 71  0  0  0  0  0  0  0  0999 V2000
   -4.4855    3.8682   -1.9051 C   0  0  0  0  0  0  0  0  0  0  0  0
   -5.8729    3.4672   -1.4280 C   0  0  0  0  0  0  0  0  0  0  0  0
   -6.0144    1.9618   -1.1995 C   0  0  0  0  0  0  0  0  0  0  0  0
   -5.3082    1.4725   -0.0080 N   0  0  0  0  0  0  0  0  0  0  0  0
   -5.9488    1.7250    1.2892 C   0  0  0  0  0  0  0  0  0  0  0  0
   -5.0414    2.3462    2.3583 C   0  0  0  0  0  0  0  0  0  0  0  0
   -4.5575    3.7432    2.0079 C   0  0  0  0  0  0  0  0  0  0  0  0
   -4.2964    0.5055   -0.0536 C   0  0  0  0  0  0  0  0  0  0  0  0
   -3.9657   -0.1302    0.9512 O   0  0  0  0  0  0  0  0  0  0  0  0
   -3.6386    0.2285   -1.4148 C   0  0  0  0  0  0  0  0  0  0  0  0
   -2.3527   -0.4519   -1.2551 N   0  0  0  0  0  0  0  0  0  0  0  0
   -1.2303    0.3587   -1.0484 C   0  0  0  0  0  0  0  0  0  0  0  0
   -1.3268    1.5897   -1.0409 O   0  0  0  0  0  0  0  0  0  0  0  0
    0.0015   -0.2798   -0.8626 N   0  0  0  0  0  0  0  0  0  0  0  0
    1.1751    0.5626   -0.6510 C   0  0  0  0  0  0  0  0  0  0  0  0
    1.3956    0.8468    0.8384 C   0  0  0  0  0  0  0  0  0  0  0  0
    2.6384    1.6930    1.1258 C   0  0  0  0  0  0  0  0  0  0  0  0
    3.9688    1.1187    0.6278 C   0  0  0  0  0  0  0  0  0  0  0  0
    4.2480   -0.3024    1.1168 C   0  0  0  0  0  0  0  0  0  0  0  0
    5.6184   -0.8079    0.6865 C   0  0  0  0  0  0  0  0  0  0  0  0
    6.4655   -0.0634    0.2069 O   0  0  0  0  0  0  0  0  0  0  0  0
    5.7529   -2.1650    0.9333 N   0  0  0  0  0  0  0  0  0  0  0  0
    6.8805   -2.9770    0.6951 C   0  0  0  0  0  0  0  0  0  0  0  0
    8.0946   -2.5027    0.1959 C   0  0  0  0  0  0  0  0  0  0  0  0
    9.1670   -3.3774   -0.0096 C   0  0  0  0  0  0  0  0  0  0  0  0
    9.0348   -4.7326    0.2828 C   0  0  0  0  0  0  0  0  0  0  0  0
    7.8289   -5.2160    0.7823 C   0  0  0  0  0  0  0  0  0  0  0  0
    6.7577   -4.3421    0.9876 C   0  0  0  0  0  0  0  0  0  0  0  0
    0.1832   -1.6643   -0.7463 C   0  0  0  0  0  0  0  0  0  0  0  0
    1.2757   -2.1694   -0.4855 O   0  0  0  0  0  0  0  0  0  0  0  0
   -1.0231   -2.4162   -0.9454 C   0  0  0  0  0  0  0  0  0  0  0  0
   -1.0810   -4.1121   -0.8931 S   0  0  0  0  0  0  0  0  0  0  0  0
   -2.7697   -4.1075   -1.1762 C   0  0  0  0  0  0  0  0  0  0  0  0
   -3.2660   -2.8264   -1.3098 C   0  0  0  0  0  0  0  0  0  0  0  0
   -2.2426   -1.8410   -1.1842 C   0  0  0  0  0  0  0  0  0  0  0  0
   -3.7136    3.5897   -1.1829 H   0  0  0  0  0  0  0  0  0  0  0  0
   -4.2489    3.3898   -2.8609 H   0  0  0  0  0  0  0  0  0  0  0  0
   -4.4362    4.9519   -2.0510 H   0  0  0  0  0  0  0  0  0  0  0  0
   -6.1220    4.0232   -0.5188 H   0  0  0  0  0  0  0  0  0  0  0  0
   -6.5979    3.7723   -2.1921 H   0  0  0  0  0  0  0  0  0  0  0  0
   -7.0745    1.7121   -1.0663 H   0  0  0  0  0  0  0  0  0  0  0  0
   -5.6977    1.4232   -2.0961 H   0  0  0  0  0  0  0  0  0  0  0  0
   -6.3297    0.7642    1.6568 H   0  0  0  0  0  0  0  0  0  0  0  0
   -6.8191    2.3750    1.1403 H   0  0  0  0  0  0  0  0  0  0  0  0
   -4.1730    1.7121    2.5607 H   0  0  0  0  0  0  0  0  0  0  0  0
   -5.6083    2.4029    3.2955 H   0  0  0  0  0  0  0  0  0  0  0  0
   -3.9011    3.7267    1.1345 H   0  0  0  0  0  0  0  0  0  0  0  0
   -3.9871    4.1634    2.8428 H   0  0  0  0  0  0  0  0  0  0  0  0
   -5.3981    4.4134    1.8046 H   0  0  0  0  0  0  0  0  0  0  0  0
   -3.4730    1.1710   -1.9433 H   0  0  0  0  0  0  0  0  0  0  0  0
   -4.3091   -0.3863   -2.0228 H   0  0  0  0  0  0  0  0  0  0  0  0
    1.0598    1.5068   -1.1957 H   0  0  0  0  0  0  0  0  0  0  0  0
    2.0455    0.0559   -1.0812 H   0  0  0  0  0  0  0  0  0  0  0  0
    1.4518   -0.0936    1.3993 H   0  0  0  0  0  0  0  0  0  0  0  0
    0.5191    1.3738    1.2369 H   0  0  0  0  0  0  0  0  0  0  0  0
    2.7055    1.8453    2.2103 H   0  0  0  0  0  0  0  0  0  0  0  0
    2.5029    2.6880    0.6838 H   0  0  0  0  0  0  0  0  0  0  0  0
    3.9995    1.1433   -0.4682 H   0  0  0  0  0  0  0  0  0  0  0  0
    4.7729    1.7862    0.9631 H   0  0  0  0  0  0  0  0  0  0  0  0
    4.2057   -0.3364    2.2116 H   0  0  0  0  0  0  0  0  0  0  0  0
    3.4944   -0.9907    0.7210 H   0  0  0  0  0  0  0  0  0  0  0  0
    4.9345   -2.6414    1.2931 H   0  0  0  0  0  0  0  0  0  0  0  0
    8.2427   -1.4547   -0.0439 H   0  0  0  0  0  0  0  0  0  0  0  0
   10.1061   -2.9932   -0.3999 H   0  0  0  0  0  0  0  0  0  0  0  0
    9.8700   -5.4086    0.1210 H   0  0  0  0  0  0  0  0  0  0  0  0
    7.7199   -6.2727    1.0113 H   0  0  0  0  0  0  0  0  0  0  0  0
    5.8267   -4.7461    1.3768 H   0  0  0  0  0  0  0  0  0  0  0  0
   -3.3161   -5.0399   -1.2230 H   0  0  0  0  0  0  0  0  0  0  0  0
   -4.3166   -2.6290   -1.4778 H   0  0  0  0  0  0  0  0  0  0  0  0
  1  2  1  0
  2  3  1  0
  3  4  1  0
  4  5  1  0
  5  6  1  0
  6  7  1  0
  4  8  1  0
  8  9  2  0
  8 10  1  0
 10 11  1  0
 11 12  1  0
 12 13  2  0
 12 14  1  0
 14 15  1  0
 15 16  1  0
 16 17  1  0
 17 18  1  0
 18 19  1  0
 19 20  1  0
 20 21  2  0
 20 22  1  0
 22 23  1  0
 23 24  2  0
 24 25  1  0
 25 26  2  0
 26 27  1  0
 27 28  2  0
 14 29  1  0
 29 30  2  0
 29 31  1  0
 31 32  1  0
 32 33  1  0
 33 34  2  0
 34 35  1  0
 35 11  1  0
 28 23  1  0
 35 31  2  0
  1 36  1  0
  1 37  1  0
  1 38  1  0
  2 39  1  0
  2 40  1  0
  3 41  1  0
  3 42  1  0
  5 43  1  0
  5 44  1  0
  6 45  1  0
  6 46  1  0
  7 47  1  0
  7 48  1  0
  7 49  1  0
 10 50  1  0
 10 51  1  0
 15 52  1  0
 15 53  1  0
 16 54  1  0
 16 55  1  0
 17 56  1  0
 17 57  1  0
 18 58  1  0
 18 59  1  0
 19 60  1  0
 19 61  1  0
 22 62  1  0
 24 63  1  0
 25 64  1  0
 26 65  1  0
 27 66  1  0
 28 67  1  0
 33 68  1  0
 34 69  1  0
M  END
$$$$
