
     RDKit          3D

 52 55  0  0  0  0  0  0  0  0999 V2000
    5.7347    0.6932   -2.6380 C   0  0  0  0  0  0  0  0  0  0  0  0
    4.7820    0.4383   -1.6152 O   0  0  0  0  0  0  0  0  0  0  0  0
    5.1488    0.7134   -0.3195 C   0  0  0  0  0  0  0  0  0  0  0  0
    6.4218    1.1694    0.0512 C   0  0  0  0  0  0  0  0  0  0  0  0
    6.7319    1.4074    1.3927 C   0  0  0  0  0  0  0  0  0  0  0  0
    5.7767    1.1900    2.3784 C   0  0  0  0  0  0  0  0  0  0  0  0
    4.5078    0.7370    2.0219 C   0  0  0  0  0  0  0  0  0  0  0  0
    4.1689    0.4961    0.6795 C   0  0  0  0  0  0  0  0  0  0  0  0
    2.8539    0.0432    0.4391 N   0  0  0  0  0  0  0  0  0  0  0  0
    2.8003   -1.3798    0.0443 C   0  0  0  0  0  0  0  0  0  0  0  0
    1.4977   -1.7036   -0.7366 C   0  0  0  0  0  0  0  0  0  0  0  0
    0.2812   -0.9653   -0.3113 N   0  0  0  0  0  0  0  0  0  0  0  0
   -0.0722   -1.3596    1.0862 C   0  0  0  0  0  0  0  0  0  0  0  0
   -1.5299   -0.9896    1.4166 C   0  0  0  0  0  0  0  0  0  0  0  0
   -1.9060   -0.8655    2.5780 O   0  0  0  0  0  0  0  0  0  0  0  0
   -2.3125   -0.8862    0.2799 N   0  0  0  0  0  0  0  0  0  0  0  0
   -3.6799   -0.5903    0.1790 C   0  0  0  0  0  0  0  0  0  0  0  0
   -4.2230   -0.5064   -1.1082 C   0  0  0  0  0  0  0  0  0  0  0  0
   -5.5792   -0.2141   -1.3013 C   0  0  0  0  0  0  0  0  0  0  0  0
   -6.4106   -0.0017   -0.1955 C   0  0  0  0  0  0  0  0  0  0  0  0
   -7.7845    0.2964   -0.3594 N   0  0  0  0  0  0  0  0  0  0  0  0
   -8.5189    0.4266   -1.5118 C   0  0  0  0  0  0  0  0  0  0  0  0
   -9.7643    0.7108   -1.2067 N   0  0  0  0  0  0  0  0  0  0  0  0
   -9.8092    0.7564    0.1609 N   0  0  0  0  0  0  0  0  0  0  0  0
   -8.6174    0.5086    0.6857 N   0  0  0  0  0  0  0  0  0  0  0  0
   -5.8703   -0.0865    1.0945 C   0  0  0  0  0  0  0  0  0  0  0  0
   -4.5130   -0.3797    1.2767 C   0  0  0  0  0  0  0  0  0  0  0  0
    0.5643    0.5042   -0.3655 C   0  0  0  0  0  0  0  0  0  0  0  0
    2.0577    0.9281   -0.4242 C   0  0  0  0  0  0  0  0  0  0  0  0
    5.2678    0.4476   -3.5968 H   0  0  0  0  0  0  0  0  0  0  0  0
    6.0124    1.7521   -2.6663 H   0  0  0  0  0  0  0  0  0  0  0  0
    6.6155    0.0527   -2.5253 H   0  0  0  0  0  0  0  0  0  0  0  0
    7.2022    1.3467   -0.6809 H   0  0  0  0  0  0  0  0  0  0  0  0
    7.7228    1.7606    1.6663 H   0  0  0  0  0  0  0  0  0  0  0  0
    6.0140    1.3726    3.4228 H   0  0  0  0  0  0  0  0  0  0  0  0
    3.7617    0.5712    2.7959 H   0  0  0  0  0  0  0  0  0  0  0  0
    3.6541   -1.6811   -0.5744 H   0  0  0  0  0  0  0  0  0  0  0  0
    2.8307   -1.9854    0.9585 H   0  0  0  0  0  0  0  0  0  0  0  0
    1.3129   -2.7846   -0.7046 H   0  0  0  0  0  0  0  0  0  0  0  0
    1.6637   -1.4783   -1.7989 H   0  0  0  0  0  0  0  0  0  0  0  0
    0.5897   -0.8985    1.8279 H   0  0  0  0  0  0  0  0  0  0  0  0
   -0.0150   -2.4498    1.1955 H   0  0  0  0  0  0  0  0  0  0  0  0
   -1.7767   -1.0003   -0.5787 H   0  0  0  0  0  0  0  0  0  0  0  0
   -3.5948   -0.6700   -1.9815 H   0  0  0  0  0  0  0  0  0  0  0  0
   -5.9429   -0.1636   -2.3234 H   0  0  0  0  0  0  0  0  0  0  0  0
   -8.1225    0.3109   -2.5072 H   0  0  0  0  0  0  0  0  0  0  0  0
   -6.4848    0.0719    1.9801 H   0  0  0  0  0  0  0  0  0  0  0  0
   -4.1376   -0.4359    2.2946 H   0  0  0  0  0  0  0  0  0  0  0  0
    0.0715    0.8981   -1.2631 H   0  0  0  0  0  0  0  0  0  0  0  0
    0.0855    1.0224    0.4754 H   0  0  0  0  0  0  0  0  0  0  0  0
    2.1396    1.9717   -0.0961 H   0  0  0  0  0  0  0  0  0  0  0  0
    2.3934    0.8782   -1.4667 H   0  0  0  0  0  0  0  0  0  0  0  0
  1  2  1  0
  2  3  1  0
  3  4  2  0
  4  5  1  0
  5  6  2  0
  6  7  1  0
  7  8  2  0
  8  9  1  0
  9 10  1  0
 10 11  1  0
 11 12  1  0
 12 13  1  0
 13 14  1  0
 14 15  2  0
 14 16  1  0
 16 17  1  0
 17 18  2  0
 18 19  1  0
 19 20  2  0
 20 21  1  0
 21 22  1  0
 22 23  2  0
 23 24  1  0
 24 25  2  0
 20 26  1  0
 26 27  2  0
 12 28  1  0
 28 29  1  0
  8  3  1  0
 29  9  1  0
 27 17  1  0
 25 21  1  0
  1 30  1  0
  1 31  1  0
  1 32  1  0
  4 33  1  0
  5 34  1  0
  6 35  1  0
  7 36  1  0
 10 37  1  0
 10 38  1  0
 11 39  1  0
 11 40  1  0
 13 41  1  0
 13 42  1  0
 16 43  1  0
 18 44  1  0
 19 45  1  0
 22 46  1  0
 26 47  1  0
 27 48  1  0
 28 49  1  0
 28 50  1  0
 29 51  1  0
 29 52  1  0
M  END
$$$$
