
     RDKit          3D

 45 47  0  0  0  0  0  0  0  0999 V2000
   -4.1867   -0.0177    2.8302 C   0  0  0  0  0  0  0  0  0  0  0  0
   -4.3650   -1.3492    1.6115 S   0  0  0  0  0  0  0  0  0  0  0  0
   -4.3492   -0.3848    0.1026 C   0  0  0  0  0  0  0  0  0  0  0  0
   -5.4784   -0.4809   -0.7244 C   0  0  0  0  0  0  0  0  0  0  0  0
   -5.5756    0.2767   -1.8946 C   0  0  0  0  0  0  0  0  0  0  0  0
   -4.5466    1.1456   -2.2493 C   0  0  0  0  0  0  0  0  0  0  0  0
   -3.4103    1.2377   -1.4472 C   0  0  0  0  0  0  0  0  0  0  0  0
   -3.2937    0.4513   -0.2962 C   0  0  0  0  0  0  0  0  0  0  0  0
   -2.1400    0.6036    0.4319 O   0  0  0  0  0  0  0  0  0  0  0  0
   -1.2215   -0.4948    0.2481 C   0  0  0  0  0  0  0  0  0  0  0  0
   -0.1747   -0.1395   -0.8195 C   0  0  0  0  0  0  0  0  0  0  0  0
    1.0767    0.4693   -0.1926 C   0  0  0  0  0  0  0  0  0  0  0  0
    1.7435   -0.4203    0.7712 N   0  0  0  0  0  0  0  0  0  0  0  0
    2.8903   -1.1456    0.2002 C   0  0  0  0  0  0  0  0  0  0  0  0
    4.0577   -0.2557   -0.1784 C   0  0  0  0  0  0  0  0  0  0  0  0
    4.5745    0.6818    0.7295 C   0  0  0  0  0  0  0  0  0  0  0  0
    5.6659    1.4799    0.3823 C   0  0  0  0  0  0  0  0  0  0  0  0
    6.2590    1.3441   -0.8721 C   0  0  0  0  0  0  0  0  0  0  0  0
    5.7620    0.4096   -1.7793 C   0  0  0  0  0  0  0  0  0  0  0  0
    4.6696   -0.3885   -1.4341 C   0  0  0  0  0  0  0  0  0  0  0  0
    0.8258   -1.3586    1.4346 C   0  0  0  0  0  0  0  0  0  0  0  0
   -0.5671   -0.7680    1.6092 C   0  0  0  0  0  0  0  0  0  0  0  0
   -3.1958    0.4352    2.7712 H   0  0  0  0  0  0  0  0  0  0  0  0
   -4.9489    0.7518    2.6842 H   0  0  0  0  0  0  0  0  0  0  0  0
   -4.3078   -0.4396    3.8324 H   0  0  0  0  0  0  0  0  0  0  0  0
   -6.3027   -1.1399   -0.4564 H   0  0  0  0  0  0  0  0  0  0  0  0
   -6.4614    0.1967   -2.5197 H   0  0  0  0  0  0  0  0  0  0  0  0
   -4.6281    1.7504   -3.1492 H   0  0  0  0  0  0  0  0  0  0  0  0
   -2.6103    1.9209   -1.7212 H   0  0  0  0  0  0  0  0  0  0  0  0
   -1.7472   -1.4016   -0.0831 H   0  0  0  0  0  0  0  0  0  0  0  0
    0.1116   -1.0486   -1.3629 H   0  0  0  0  0  0  0  0  0  0  0  0
   -0.5818    0.5565   -1.5590 H   0  0  0  0  0  0  0  0  0  0  0  0
    1.7551    0.8010   -0.9873 H   0  0  0  0  0  0  0  0  0  0  0  0
    0.7919    1.3853    0.3406 H   0  0  0  0  0  0  0  0  0  0  0  0
    3.2812   -1.8597    0.9378 H   0  0  0  0  0  0  0  0  0  0  0  0
    2.5650   -1.7368   -0.6666 H   0  0  0  0  0  0  0  0  0  0  0  0
    4.1162    0.7945    1.7110 H   0  0  0  0  0  0  0  0  0  0  0  0
    6.0512    2.2070    1.0920 H   0  0  0  0  0  0  0  0  0  0  0  0
    7.1089    1.9648   -1.1424 H   0  0  0  0  0  0  0  0  0  0  0  0
    6.2260    0.3007   -2.7562 H   0  0  0  0  0  0  0  0  0  0  0  0
    4.2971   -1.1147   -2.1527 H   0  0  0  0  0  0  0  0  0  0  0  0
    1.2359   -1.6153    2.4183 H   0  0  0  0  0  0  0  0  0  0  0  0
    0.7369   -2.2958    0.8689 H   0  0  0  0  0  0  0  0  0  0  0  0
   -0.5151    0.1507    2.2075 H   0  0  0  0  0  0  0  0  0  0  0  0
   -1.1938   -1.4596    2.1834 H   0  0  0  0  0  0  0  0  0  0  0  0
  1  2  1  0
  2  3  1  0
  3  4  2  0
  4  5  1  0
  5  6  2  0
  6  7  1  0
  7  8  2  0
  8  9  1  0
  9 10  1  0
 10 11  1  0
 11 12  1  0
 12 13  1  0
 13 14  1  0
 14 15  1  0
 15 16  2  0
 16 17  1  0
 17 18  2  0
 18 19  1  0
 19 20  2  0
 13 21  1  0
 21 22  1  0
  8  3  1  0
 22 10  1  0
 20 15  1  0
  1 23  1  0
  1 24  1  0
  1 25  1  0
  4 26  1  0
  5 27  1  0
  6 28  1  0
  7 29  1  0
 10 30  1  0
 11 31  1  0
 11 32  1  0
 12 33  1  0
 12 34  1  0
 14 35  1  0
 14 36  1  0
 16 37  1  0
 17 38  1  0
 18 39  1  0
 19 40  1  0
 20 41  1  0
 21 42  1  0
 21 43  1  0
 22 44  1  0
 22 45  1  0
M  END
$$$$
