
     RDKit          3D

 47 49  0  0  0  0  0  0  0  0999 V2000
    4.2716   -3.5678    0.9429 C   0  0  0  0  0  0  0  0  0  0  0  0
    5.1476   -2.3625    0.6111 C   0  0  0  0  0  0  0  0  0  0  0  0
    4.4521   -1.1093    0.3163 N   0  0  0  0  0  0  0  0  0  0  0  0
    3.8187   -0.4948    1.4945 C   0  0  0  0  0  0  0  0  0  0  0  0
    2.7973    0.6062    1.1306 C   0  0  0  0  0  0  0  0  0  0  0  0
    1.6725    0.0620    0.3316 N   0  0  0  0  0  0  0  0  0  0  0  0
    0.3825    0.6216    0.3515 C   0  0  0  0  0  0  0  0  0  0  0  0
   -0.7167   -0.0156   -0.1059 C   0  0  0  0  0  0  0  0  0  0  0  0
   -2.0658    0.5314   -0.0773 C   0  0  0  0  0  0  0  0  0  0  0  0
   -3.0848   -0.1105   -0.6803 C   0  0  0  0  0  0  0  0  0  0  0  0
   -4.4700    0.3753   -0.6838 C   0  0  0  0  0  0  0  0  0  0  0  0
   -5.4584   -0.2147   -1.4041 C   0  0  0  0  0  0  0  0  0  0  0  0
   -5.2233   -1.3508   -2.2341 C   0  0  0  0  0  0  0  0  0  0  0  0
   -5.0201   -2.2767   -2.9041 N   0  0  0  0  0  0  0  0  0  0  0  0
   -6.8002    0.2671   -1.3609 C   0  0  0  0  0  0  0  0  0  0  0  0
   -7.8883    0.6683   -1.3154 N   0  0  0  0  0  0  0  0  0  0  0  0
   -4.7137    1.5929    0.2002 C   0  0  0  0  0  0  0  0  0  0  0  0
   -3.5298    2.5589    0.1905 C   0  0  0  0  0  0  0  0  0  0  0  0
   -2.2520    1.8463    0.6473 C   0  0  0  0  0  0  0  0  0  0  0  0
   -1.0330    2.7487    0.4508 C   0  0  0  0  0  0  0  0  0  0  0  0
    0.2434    2.0363    0.9015 C   0  0  0  0  0  0  0  0  0  0  0  0
    2.0272   -1.1235   -0.4861 C   0  0  0  0  0  0  0  0  0  0  0  0
    3.5336   -1.1698   -0.8333 C   0  0  0  0  0  0  0  0  0  0  0  0
    4.9047   -4.4420    1.1289 H   0  0  0  0  0  0  0  0  0  0  0  0
    3.5990   -3.8214    0.1183 H   0  0  0  0  0  0  0  0  0  0  0  0
    3.6704   -3.4033    1.8414 H   0  0  0  0  0  0  0  0  0  0  0  0
    5.8490   -2.1963    1.4384 H   0  0  0  0  0  0  0  0  0  0  0  0
    5.7760   -2.6196   -0.2510 H   0  0  0  0  0  0  0  0  0  0  0  0
    4.5999   -0.0581    2.1274 H   0  0  0  0  0  0  0  0  0  0  0  0
    3.2947   -1.2452    2.0982 H   0  0  0  0  0  0  0  0  0  0  0  0
    3.2878    1.4088    0.5667 H   0  0  0  0  0  0  0  0  0  0  0  0
    2.4261    1.0338    2.0689 H   0  0  0  0  0  0  0  0  0  0  0  0
   -0.6205   -1.0184   -0.5118 H   0  0  0  0  0  0  0  0  0  0  0  0
   -2.8688   -1.0432   -1.2005 H   0  0  0  0  0  0  0  0  0  0  0  0
   -4.8964    1.2498    1.2270 H   0  0  0  0  0  0  0  0  0  0  0  0
   -5.6010    2.1542   -0.1113 H   0  0  0  0  0  0  0  0  0  0  0  0
   -3.7406    3.4058    0.8546 H   0  0  0  0  0  0  0  0  0  0  0  0
   -3.4018    2.9712   -0.8195 H   0  0  0  0  0  0  0  0  0  0  0  0
   -2.3471    1.6230    1.7201 H   0  0  0  0  0  0  0  0  0  0  0  0
   -0.9365    3.0333   -0.6059 H   0  0  0  0  0  0  0  0  0  0  0  0
   -1.1506    3.6790    1.0195 H   0  0  0  0  0  0  0  0  0  0  0  0
    0.2647    1.9909    1.9976 H   0  0  0  0  0  0  0  0  0  0  0  0
    1.0931    2.6513    0.5817 H   0  0  0  0  0  0  0  0  0  0  0  0
    1.7368   -2.0306    0.0567 H   0  0  0  0  0  0  0  0  0  0  0  0
    1.4750   -1.1062   -1.4333 H   0  0  0  0  0  0  0  0  0  0  0  0
    3.7572   -0.2959   -1.4597 H   0  0  0  0  0  0  0  0  0  0  0  0
    3.7386   -2.0397   -1.4690 H   0  0  0  0  0  0  0  0  0  0  0  0
  1  2  1  0
  2  3  1  0
  3  4  1  0
  4  5  1  0
  5  6  1  0
  6  7  1  0
  7  8  2  0
  8  9  1  0
  9 10  2  0
 10 11  1  0
 11 12  2  3
 12 13  1  0
 13 14  3  0
 12 15  1  0
 15 16  3  0
 11 17  1  0
 17 18  1  0
 18 19  1  0
 19 20  1  0
 20 21  1  0
  6 22  1  0
 22 23  1  0
 23  3  1  0
 21  7  1  0
 19  9  1  0
  1 24  1  0
  1 25  1  0
  1 26  1  0
  2 27  1  0
  2 28  1  0
  4 29  1  0
  4 30  1  0
  5 31  1  0
  5 32  1  0
  8 33  1  0
 10 34  1  0
 17 35  1  0
 17 36  1  0
 18 37  1  0
 18 38  1  0
 19 39  1  0
 20 40  1  0
 20 41  1  0
 21 42  1  0
 21 43  1  0
 22 44  1  0
 22 45  1  0
 23 46  1  0
 23 47  1  0
M  END
$$$$
