
     RDKit          3D

 33 34  0  0  0  0  0  0  0  0999 V2000
    6.3715   -1.3144   -0.0477 C   0  0  0  0  0  0  0  0  0  0  0  0
    5.4331   -0.7869    1.0295 C   0  0  0  0  0  0  0  0  0  0  0  0
    5.3848    0.7395    1.1170 C   0  0  0  0  0  0  0  0  0  0  0  0
    4.7106    1.5477   -0.3687 S   0  0  0  0  0  0  0  0  0  0  0  0
    2.9991    1.2364   -0.1931 C   0  0  0  0  0  0  0  0  0  0  0  0
    2.4658    0.7254    0.8945 N   0  0  0  0  0  0  0  0  0  0  0  0
    1.0952    0.5714    0.7779 N   0  0  0  0  0  0  0  0  0  0  0  0
    0.6608    0.9818   -0.3876 C   0  0  0  0  0  0  0  0  0  0  0  0
   -0.6055    1.0232   -0.9047 N   0  0  0  0  0  0  0  0  0  0  0  0
   -1.6672    0.3956   -0.2838 C   0  0  0  0  0  0  0  0  0  0  0  0
   -1.5777   -0.3080    0.7124 O   0  0  0  0  0  0  0  0  0  0  0  0
   -2.8484    0.6744   -0.9603 N   0  0  0  0  0  0  0  0  0  0  0  0
   -4.1224    0.1154   -0.7240 C   0  0  0  0  0  0  0  0  0  0  0  0
   -5.2095    0.6891   -1.3980 C   0  0  0  0  0  0  0  0  0  0  0  0
   -6.5013    0.1834   -1.2288 C   0  0  0  0  0  0  0  0  0  0  0  0
   -6.7176   -0.9063   -0.3895 C   0  0  0  0  0  0  0  0  0  0  0  0
   -5.6427   -1.4871    0.2790 C   0  0  0  0  0  0  0  0  0  0  0  0
   -4.3498   -0.9802    0.1113 C   0  0  0  0  0  0  0  0  0  0  0  0
    1.8653    1.5952   -1.4313 S   0  0  0  0  0  0  0  0  0  0  0  0
    6.0192   -1.0607   -1.0517 H   0  0  0  0  0  0  0  0  0  0  0  0
    6.4359   -2.4058    0.0144 H   0  0  0  0  0  0  0  0  0  0  0  0
    7.3812   -0.9099    0.0777 H   0  0  0  0  0  0  0  0  0  0  0  0
    4.4309   -1.2024    0.8748 H   0  0  0  0  0  0  0  0  0  0  0  0
    5.7781   -1.1720    1.9970 H   0  0  0  0  0  0  0  0  0  0  0  0
    4.8094    1.0497    1.9960 H   0  0  0  0  0  0  0  0  0  0  0  0
    6.4007    1.1241    1.2609 H   0  0  0  0  0  0  0  0  0  0  0  0
   -0.6983    1.3435   -1.8528 H   0  0  0  0  0  0  0  0  0  0  0  0
   -2.8283    1.4719   -1.5770 H   0  0  0  0  0  0  0  0  0  0  0  0
   -5.0708    1.5399   -2.0596 H   0  0  0  0  0  0  0  0  0  0  0  0
   -7.3375    0.6390   -1.7529 H   0  0  0  0  0  0  0  0  0  0  0  0
   -7.7204   -1.3031   -0.2556 H   0  0  0  0  0  0  0  0  0  0  0  0
   -5.8041   -2.3398    0.9341 H   0  0  0  0  0  0  0  0  0  0  0  0
   -3.5401   -1.4701    0.6443 H   0  0  0  0  0  0  0  0  0  0  0  0
  1  2  1  0
  2  3  1  0
  3  4  1  0
  4  5  1  0
  5  6  2  0
  6  7  1  0
  7  8  2  0
  8  9  1  0
  9 10  1  0
 10 11  2  0
 10 12  1  0
 12 13  1  0
 13 14  2  0
 14 15  1  0
 15 16  2  0
 16 17  1  0
 17 18  2  0
  8 19  1  0
 19  5  1  0
 18 13  1  0
  1 20  1  0
  1 21  1  0
  1 22  1  0
  2 23  1  0
  2 24  1  0
  3 25  1  0
  3 26  1  0
  9 27  1  0
 12 28  1  0
 14 29  1  0
 15 30  1  0
 16 31  1  0
 17 32  1  0
 18 33  1  0
M  END
$$$$
