
     RDKit          3D

 48 50  0  0  0  0  0  0  0  0999 V2000
    0.4887    2.6105   -3.0296 C   0  0  0  0  0  0  0  0  0  0  0  0
   -0.8428    1.8970   -2.9227 C   0  0  0  0  0  0  0  0  0  0  0  0
   -0.6775    0.5748   -2.3918 O   0  0  0  0  0  0  0  0  0  0  0  0
   -0.7229    0.4646   -1.0337 C   0  0  0  0  0  0  0  0  0  0  0  0
   -0.7761    1.4114   -0.2586 O   0  0  0  0  0  0  0  0  0  0  0  0
   -0.8172   -0.9282   -0.5932 C   0  0  0  0  0  0  0  0  0  0  0  0
   -0.1297   -1.9929   -1.1437 C   0  0  0  0  0  0  0  0  0  0  0  0
    0.9194   -2.1319   -2.0243 N   0  0  0  0  0  0  0  0  0  0  0  0
    1.9695   -1.2760   -2.2617 C   0  0  0  0  0  0  0  0  0  0  0  0
    2.8776   -1.6217   -3.6240 S   0  0  0  0  0  0  0  0  0  0  0  0
    2.2029   -0.3336   -1.2872 N   0  0  0  0  0  0  0  0  0  0  0  0
    3.1091    0.7484   -1.1928 C   0  0  0  0  0  0  0  0  0  0  0  0
    3.8229    1.3009   -2.2557 C   0  0  0  0  0  0  0  0  0  0  0  0
    4.6811    2.3886   -2.0523 C   0  0  0  0  0  0  0  0  0  0  0  0
    4.8262    2.9438   -0.7846 C   0  0  0  0  0  0  0  0  0  0  0  0
    4.1058    2.4172    0.2816 C   0  0  0  0  0  0  0  0  0  0  0  0
    3.2504    1.3311    0.0764 C   0  0  0  0  0  0  0  0  0  0  0  0
   -0.7338   -3.5004   -0.6463 S   0  0  0  0  0  0  0  0  0  0  0  0
   -1.7685   -2.7818    0.5028 C   0  0  0  0  0  0  0  0  0  0  0  0
   -1.7137   -1.3975    0.4549 C   0  0  0  0  0  0  0  0  0  0  0  0
   -2.5790   -0.5067    1.3169 C   0  0  0  0  0  0  0  0  0  0  0  0
   -3.1509   -1.1745    2.5900 C   0  0  0  0  0  0  0  0  0  0  0  0
   -2.0607   -1.4048    3.6497 C   0  0  0  0  0  0  0  0  0  0  0  0
   -4.2311   -0.2598    3.1926 C   0  0  0  0  0  0  0  0  0  0  0  0
   -3.9797   -2.7708    2.1693 S   0  0  0  0  0  0  0  0  0  0  0  0
   -2.5873   -3.6557    1.4011 C   0  0  0  0  0  0  0  0  0  0  0  0
    0.9374    2.7510   -2.0421 H   0  0  0  0  0  0  0  0  0  0  0  0
    0.3656    3.5921   -3.4960 H   0  0  0  0  0  0  0  0  0  0  0  0
    1.1906    2.0230   -3.6291 H   0  0  0  0  0  0  0  0  0  0  0  0
   -1.2779    1.7847   -3.9213 H   0  0  0  0  0  0  0  0  0  0  0  0
   -1.5586    2.4763   -2.3279 H   0  0  0  0  0  0  0  0  0  0  0  0
    0.9733   -3.0166   -2.5189 H   0  0  0  0  0  0  0  0  0  0  0  0
    1.7590   -0.5594   -0.4065 H   0  0  0  0  0  0  0  0  0  0  0  0
    3.7201    0.9394   -3.2709 H   0  0  0  0  0  0  0  0  0  0  0  0
    5.2296    2.8049   -2.8938 H   0  0  0  0  0  0  0  0  0  0  0  0
    5.4918    3.7890   -0.6316 H   0  0  0  0  0  0  0  0  0  0  0  0
    4.2048    2.8513    1.2730 H   0  0  0  0  0  0  0  0  0  0  0  0
    2.6956    0.9481    0.9295 H   0  0  0  0  0  0  0  0  0  0  0  0
   -2.0015    0.3736    1.6235 H   0  0  0  0  0  0  0  0  0  0  0  0
   -3.3995   -0.1380    0.6856 H   0  0  0  0  0  0  0  0  0  0  0  0
   -1.2383   -2.0289    3.2867 H   0  0  0  0  0  0  0  0  0  0  0  0
   -2.4687   -1.8784    4.5504 H   0  0  0  0  0  0  0  0  0  0  0  0
   -1.6190   -0.4501    3.9597 H   0  0  0  0  0  0  0  0  0  0  0  0
   -4.6624   -0.6855    4.1065 H   0  0  0  0  0  0  0  0  0  0  0  0
   -3.8073    0.7159    3.4591 H   0  0  0  0  0  0  0  0  0  0  0  0
   -5.0494   -0.0740    2.4867 H   0  0  0  0  0  0  0  0  0  0  0  0
   -1.9580   -4.0728    2.1945 H   0  0  0  0  0  0  0  0  0  0  0  0
   -3.0098   -4.4975    0.8418 H   0  0  0  0  0  0  0  0  0  0  0  0
  1  2  1  0
  2  3  1  0
  3  4  1  0
  4  5  2  0
  4  6  1  0
  6  7  2  0
  7  8  1  0
  8  9  1  0
  9 10  2  0
  9 11  1  0
 11 12  1  0
 12 13  2  0
 13 14  1  0
 14 15  2  0
 15 16  1  0
 16 17  2  0
  7 18  1  0
 18 19  1  0
 19 20  2  0
 20 21  1  0
 21 22  1  0
 22 23  1  0
 22 24  1  0
 22 25  1  0
 25 26  1  0
 20  6  1  0
 17 12  1  0
 26 19  1  0
  1 27  1  0
  1 28  1  0
  1 29  1  0
  2 30  1  0
  2 31  1  0
  8 32  1  0
 11 33  1  0
 13 34  1  0
 14 35  1  0
 15 36  1  0
 16 37  1  0
 17 38  1  0
 21 39  1  0
 21 40  1  0
 23 41  1  0
 23 42  1  0
 23 43  1  0
 24 44  1  0
 24 45  1  0
 24 46  1  0
 26 47  1  0
 26 48  1  0
M  END
$$$$
