
     RDKit          3D

 45 47  0  0  0  0  0  0  0  0999 V2000
    7.0254    1.3347    0.1237 C   0  0  0  0  0  0  0  0  0  0  0  0
    6.3152    0.1541   -0.2215 O   0  0  0  0  0  0  0  0  0  0  0  0
    4.9513    0.1661   -0.0674 C   0  0  0  0  0  0  0  0  0  0  0  0
    4.2135    1.2715    0.3628 C   0  0  0  0  0  0  0  0  0  0  0  0
    2.8223    1.1924    0.4897 C   0  0  0  0  0  0  0  0  0  0  0  0
    2.1502    0.0082    0.1949 C   0  0  0  0  0  0  0  0  0  0  0  0
    0.7498   -0.1337    0.2824 N   0  0  0  0  0  0  0  0  0  0  0  0
   -0.1411    0.7180    0.9001 C   0  0  0  0  0  0  0  0  0  0  0  0
    0.1738    1.6558    1.6269 O   0  0  0  0  0  0  0  0  0  0  0  0
   -1.4854    0.3826    0.6609 N   0  0  0  0  0  0  0  0  0  0  0  0
   -2.4747    1.1903    1.3745 C   0  0  0  0  0  0  0  0  0  0  0  0
   -3.8165    0.4812    1.4853 C   0  0  0  0  0  0  0  0  0  0  0  0
   -4.3129    0.0225    0.1173 C   0  0  0  0  0  0  0  0  0  0  0  0
   -3.2531   -0.8262   -0.5800 C   0  0  0  0  0  0  0  0  0  0  0  0
   -1.9235   -0.0899   -0.6569 C   0  0  0  0  0  0  0  0  0  0  0  0
   -4.6227    1.1619   -0.7046 O   0  0  0  0  0  0  0  0  0  0  0  0
   -6.0487    1.2134   -0.7359 C   0  0  0  0  0  0  0  0  0  0  0  0
   -6.4459   -0.2323   -0.6292 C   0  0  0  0  0  0  0  0  0  0  0  0
   -5.5033   -0.7651    0.3005 O   0  0  0  0  0  0  0  0  0  0  0  0
    2.8859   -1.0995   -0.2480 C   0  0  0  0  0  0  0  0  0  0  0  0
    4.2802   -1.0324   -0.3772 C   0  0  0  0  0  0  0  0  0  0  0  0
    5.0717   -2.0724   -0.8010 O   0  0  0  0  0  0  0  0  0  0  0  0
    4.4467   -3.3215   -1.0541 C   0  0  0  0  0  0  0  0  0  0  0  0
    6.8894    1.5839    1.1812 H   0  0  0  0  0  0  0  0  0  0  0  0
    6.7376    2.1712   -0.5215 H   0  0  0  0  0  0  0  0  0  0  0  0
    8.0907    1.1431   -0.0375 H   0  0  0  0  0  0  0  0  0  0  0  0
    4.6857    2.2171    0.6069 H   0  0  0  0  0  0  0  0  0  0  0  0
    2.2891    2.0813    0.8147 H   0  0  0  0  0  0  0  0  0  0  0  0
    0.3797   -1.0507    0.0875 H   0  0  0  0  0  0  0  0  0  0  0  0
   -2.1086    1.4156    2.3830 H   0  0  0  0  0  0  0  0  0  0  0  0
   -2.5746    2.1458    0.8449 H   0  0  0  0  0  0  0  0  0  0  0  0
   -4.5454    1.1555    1.9508 H   0  0  0  0  0  0  0  0  0  0  0  0
   -3.7251   -0.3859    2.1523 H   0  0  0  0  0  0  0  0  0  0  0  0
   -3.5813   -1.0869   -1.5936 H   0  0  0  0  0  0  0  0  0  0  0  0
   -3.1249   -1.7732   -0.0400 H   0  0  0  0  0  0  0  0  0  0  0  0
   -1.1797   -0.7477   -1.1138 H   0  0  0  0  0  0  0  0  0  0  0  0
   -1.9986    0.7893   -1.3090 H   0  0  0  0  0  0  0  0  0  0  0  0
   -6.3888    1.7914    0.1301 H   0  0  0  0  0  0  0  0  0  0  0  0
   -6.3989    1.6939   -1.6526 H   0  0  0  0  0  0  0  0  0  0  0  0
   -6.3173   -0.7571   -1.5819 H   0  0  0  0  0  0  0  0  0  0  0  0
   -7.4680   -0.3772   -0.2709 H   0  0  0  0  0  0  0  0  0  0  0  0
    2.3559   -2.0135   -0.4893 H   0  0  0  0  0  0  0  0  0  0  0  0
    3.9579   -3.7100   -0.1546 H   0  0  0  0  0  0  0  0  0  0  0  0
    5.2261   -4.0336   -1.3420 H   0  0  0  0  0  0  0  0  0  0  0  0
    3.7411   -3.2470   -1.8880 H   0  0  0  0  0  0  0  0  0  0  0  0
  1  2  1  0
  2  3  1  0
  3  4  2  0
  4  5  1  0
  5  6  2  0
  6  7  1  0
  7  8  1  0
  8  9  2  0
  8 10  1  0
 10 11  1  0
 11 12  1  0
 12 13  1  0
 13 14  1  0
 14 15  1  0
 13 16  1  0
 16 17  1  0
 17 18  1  0
 18 19  1  0
  6 20  1  0
 20 21  2  0
 21 22  1  0
 22 23  1  0
 21  3  1  0
 15 10  1  0
 19 13  1  0
  1 24  1  0
  1 25  1  0
  1 26  1  0
  4 27  1  0
  5 28  1  0
  7 29  1  0
 11 30  1  0
 11 31  1  0
 12 32  1  0
 12 33  1  0
 14 34  1  0
 14 35  1  0
 15 36  1  0
 15 37  1  0
 17 38  1  0
 17 39  1  0
 18 40  1  0
 18 41  1  0
 20 42  1  0
 23 43  1  0
 23 44  1  0
 23 45  1  0
M  END
$$$$
