
     RDKit          3D

 52 55  0  0  0  0  0  0  0  0999 V2000
    0.4853   -2.4414   -0.0181 O   0  0  0  0  0  0  0  0  0  0  0  0
    0.1630   -1.2686    0.1537 C   0  0  0  0  0  0  0  0  0  0  0  0
   -1.1570   -0.9165    0.4076 N   0  0  0  0  0  0  0  0  0  0  0  0
   -2.2499   -1.8550    0.2027 C   0  0  0  0  0  0  0  0  0  0  0  0
   -3.6006   -1.1562    0.3407 C   0  0  0  0  0  0  0  0  0  0  0  0
   -3.8219   -1.0551    1.8478 C   0  0  0  0  0  0  0  0  0  0  0  0
   -3.0548   -2.2267    2.4609 C   0  0  0  0  0  0  0  0  0  0  0  0
   -2.3357   -2.9137    1.2997 C   0  0  0  0  0  0  0  0  0  0  0  0
    1.1616   -0.0722    0.2729 C   0  0  0  0  0  0  0  0  0  0  0  0
    2.6277   -0.2604   -0.1447 C   0  0  0  0  0  0  0  0  0  0  0  0
    3.2252   -1.5082   -0.3293 C   0  0  0  0  0  0  0  0  0  0  0  0
    4.5572   -1.5778   -0.7104 C   0  0  0  0  0  0  0  0  0  0  0  0
    5.3423   -0.4989   -0.9086 N   0  0  0  0  0  0  0  0  0  0  0  0
    4.7784    0.7025   -0.6832 C   0  0  0  0  0  0  0  0  0  0  0  0
    3.4602    0.8629   -0.2933 C   0  0  0  0  0  0  0  0  0  0  0  0
    0.5488    1.1679   -0.3107 N   0  0  0  0  0  0  0  0  0  0  0  0
    0.5896    1.4046   -1.7151 C   0  0  0  0  0  0  0  0  0  0  0  0
    0.5402    2.5404   -2.1838 O   0  0  0  0  0  0  0  0  0  0  0  0
    0.7679    0.2729   -2.6023 C   0  0  0  0  0  0  0  0  0  0  0  0
    1.6800    0.0518   -3.6160 C   0  0  0  0  0  0  0  0  0  0  0  0
    1.3815   -1.2253   -4.1554 C   0  0  0  0  0  0  0  0  0  0  0  0
    0.2780   -1.6852   -3.4736 C   0  0  0  0  0  0  0  0  0  0  0  0
   -0.1146   -0.7770   -2.5461 O   0  0  0  0  0  0  0  0  0  0  0  0
    0.0553    2.1966    0.5729 C   0  0  0  0  0  0  0  0  0  0  0  0
    0.5203    2.3575    1.8861 C   0  0  0  0  0  0  0  0  0  0  0  0
   -0.0320    3.3246    2.7394 C   0  0  0  0  0  0  0  0  0  0  0  0
   -1.0639    4.1475    2.2979 C   0  0  0  0  0  0  0  0  0  0  0  0
   -1.5357    4.0114    0.9988 C   0  0  0  0  0  0  0  0  0  0  0  0
   -0.9783    3.0469    0.1461 C   0  0  0  0  0  0  0  0  0  0  0  0
   -1.3696    0.0649    0.2883 H   0  0  0  0  0  0  0  0  0  0  0  0
   -2.1278   -2.3091   -0.7868 H   0  0  0  0  0  0  0  0  0  0  0  0
   -4.3893   -1.7818   -0.1011 H   0  0  0  0  0  0  0  0  0  0  0  0
   -3.6348   -0.1746   -0.1456 H   0  0  0  0  0  0  0  0  0  0  0  0
   -3.4185   -0.1088    2.2281 H   0  0  0  0  0  0  0  0  0  0  0  0
   -4.8871   -1.0846    2.1017 H   0  0  0  0  0  0  0  0  0  0  0  0
   -2.3386   -1.8613    3.2118 H   0  0  0  0  0  0  0  0  0  0  0  0
   -3.7314   -2.9328    2.9640 H   0  0  0  0  0  0  0  0  0  0  0  0
   -1.3730   -3.3378    1.6018 H   0  0  0  0  0  0  0  0  0  0  0  0
   -2.9648   -3.7365    0.9525 H   0  0  0  0  0  0  0  0  0  0  0  0
    1.2248    0.0319    1.3603 H   0  0  0  0  0  0  0  0  0  0  0  0
    2.6928   -2.4462   -0.2017 H   0  0  0  0  0  0  0  0  0  0  0  0
    5.0361   -2.5341   -0.8734 H   0  0  0  0  0  0  0  0  0  0  0  0
    5.4312    1.5613   -0.8356 H   0  0  0  0  0  0  0  0  0  0  0  0
    3.0974    1.8722   -0.1165 H   0  0  0  0  0  0  0  0  0  0  0  0
    2.4810    0.7240   -3.9049 H   0  0  0  0  0  0  0  0  0  0  0  0
    1.9111   -1.7456   -4.9422 H   0  0  0  0  0  0  0  0  0  0  0  0
   -0.3186   -2.5888   -3.5210 H   0  0  0  0  0  0  0  0  0  0  0  0
    1.3467    1.7823    2.2832 H   0  0  0  0  0  0  0  0  0  0  0  0
    0.3516    3.4388    3.7513 H   0  0  0  0  0  0  0  0  0  0  0  0
   -1.4950    4.8998    2.9623 H   0  0  0  0  0  0  0  0  0  0  0  0
   -2.3433    4.6511    0.6412 H   0  0  0  0  0  0  0  0  0  0  0  0
   -1.3988    2.9663   -0.8540 H   0  0  0  0  0  0  0  0  0  0  0  0
  1  2  2  0
  2  3  1  0
  3  4  1  0
  4  5  1  0
  5  6  1  0
  6  7  1  0
  7  8  1  0
  2  9  1  0
  9 10  1  0
 10 11  2  0
 11 12  1  0
 12 13  2  0
 13 14  1  0
 14 15  2  0
  9 16  1  0
 16 17  1  0
 17 18  2  0
 17 19  1  0
 19 20  2  0
 20 21  1  0
 21 22  2  0
 22 23  1  0
 16 24  1  0
 24 25  2  0
 25 26  1  0
 26 27  2  0
 27 28  1  0
 28 29  2  0
  8  4  1  0
 15 10  1  0
 23 19  1  0
 29 24  1  0
  3 30  1  0
  4 31  1  0
  5 32  1  0
  5 33  1  0
  6 34  1  0
  6 35  1  0
  7 36  1  0
  7 37  1  0
  8 38  1  0
  8 39  1  0
  9 40  1  0
 11 41  1  0
 12 42  1  0
 14 43  1  0
 15 44  1  0
 20 45  1  0
 21 46  1  0
 22 47  1  0
 25 48  1  0
 26 49  1  0
 27 50  1  0
 28 51  1  0
 29 52  1  0
M  END
$$$$
