
     RDKit          3D

 44 46  0  0  0  0  0  0  0  0999 V2000
   -2.9945   -3.2205   -0.0619 O   0  0  0  0  0  0  0  0  0  0  0  0
   -1.9776   -2.8148    0.4957 C   0  0  0  0  0  0  0  0  0  0  0  0
   -0.9572   -3.7593    1.1111 C   0  0  0  0  0  0  0  0  0  0  0  0
    0.2110   -4.3600   -0.1551 S   0  0  0  0  0  0  0  0  0  0  0  0
    1.0743   -2.8546   -0.5282 C   0  0  0  0  0  0  0  0  0  0  0  0
    1.5979   -2.6396   -1.7886 C   0  0  0  0  0  0  0  0  0  0  0  0
    2.2329   -1.4264   -2.0554 C   0  0  0  0  0  0  0  0  0  0  0  0
    2.3284   -0.4675   -1.0528 C   0  0  0  0  0  0  0  0  0  0  0  0
    2.9560    0.8539   -1.2341 C   0  0  0  0  0  0  0  0  0  0  0  0
    2.9056    1.5430   -2.4605 C   0  0  0  0  0  0  0  0  0  0  0  0
    3.4982    2.8008   -2.6125 C   0  0  0  0  0  0  0  0  0  0  0  0
    4.1536    3.3978   -1.5402 C   0  0  0  0  0  0  0  0  0  0  0  0
    4.2150    2.7413   -0.3152 C   0  0  0  0  0  0  0  0  0  0  0  0
    3.6213    1.4851   -0.1657 C   0  0  0  0  0  0  0  0  0  0  0  0
    1.8172   -0.7241    0.1746 N   0  0  0  0  0  0  0  0  0  0  0  0
    1.1983   -1.9233    0.4389 N   0  0  0  0  0  0  0  0  0  0  0  0
   -1.6608   -1.4756    0.6116 N   0  0  0  0  0  0  0  0  0  0  0  0
   -2.4866   -0.4306    0.0178 C   0  0  0  0  0  0  0  0  0  0  0  0
   -3.7573   -0.1853    0.8467 C   0  0  0  0  0  0  0  0  0  0  0  0
   -3.4575    0.4940    2.1822 C   0  0  0  0  0  0  0  0  0  0  0  0
   -2.6716    1.7878    1.9921 C   0  0  0  0  0  0  0  0  0  0  0  0
   -1.3973    1.5639    1.1825 C   0  0  0  0  0  0  0  0  0  0  0  0
   -1.6890    0.8706   -0.1489 C   0  0  0  0  0  0  0  0  0  0  0  0
   -1.4978   -4.6180    1.5236 H   0  0  0  0  0  0  0  0  0  0  0  0
   -0.4329   -3.2839    1.9467 H   0  0  0  0  0  0  0  0  0  0  0  0
    1.5173   -3.3934   -2.5644 H   0  0  0  0  0  0  0  0  0  0  0  0
    2.6557   -1.2538   -3.0389 H   0  0  0  0  0  0  0  0  0  0  0  0
    2.3812    1.1185   -3.3144 H   0  0  0  0  0  0  0  0  0  0  0  0
    3.4391    3.3167   -3.5680 H   0  0  0  0  0  0  0  0  0  0  0  0
    4.6072    4.3775   -1.6545 H   0  0  0  0  0  0  0  0  0  0  0  0
    4.7183    3.2055    0.5290 H   0  0  0  0  0  0  0  0  0  0  0  0
    3.6819    0.9939    0.8052 H   0  0  0  0  0  0  0  0  0  0  0  0
   -0.6977   -1.2436    0.8495 H   0  0  0  0  0  0  0  0  0  0  0  0
   -2.7833   -0.7872   -0.9760 H   0  0  0  0  0  0  0  0  0  0  0  0
   -4.4375    0.4552    0.2712 H   0  0  0  0  0  0  0  0  0  0  0  0
   -4.2921   -1.1248    1.0326 H   0  0  0  0  0  0  0  0  0  0  0  0
   -2.8910   -0.1886    2.8263 H   0  0  0  0  0  0  0  0  0  0  0  0
   -4.4000    0.7099    2.7017 H   0  0  0  0  0  0  0  0  0  0  0  0
   -2.4196    2.2113    2.9715 H   0  0  0  0  0  0  0  0  0  0  0  0
   -3.3031    2.5244    1.4795 H   0  0  0  0  0  0  0  0  0  0  0  0
   -0.9084    2.5276    0.9946 H   0  0  0  0  0  0  0  0  0  0  0  0
   -0.6912    0.9619    1.7675 H   0  0  0  0  0  0  0  0  0  0  0  0
   -2.2623    1.5570   -0.7842 H   0  0  0  0  0  0  0  0  0  0  0  0
   -0.7437    0.6774   -0.6696 H   0  0  0  0  0  0  0  0  0  0  0  0
  1  2  2  0
  2  3  1  0
  3  4  1  0
  4  5  1  0
  5  6  2  0
  6  7  1  0
  7  8  2  0
  8  9  1  0
  9 10  2  0
 10 11  1  0
 11 12  2  0
 12 13  1  0
 13 14  2  0
  8 15  1  0
 15 16  2  0
  2 17  1  0
 17 18  1  0
 18 19  1  0
 19 20  1  0
 20 21  1  0
 21 22  1  0
 22 23  1  0
 16  5  1  0
 23 18  1  0
 14  9  1  0
  3 24  1  0
  3 25  1  0
  6 26  1  0
  7 27  1  0
 10 28  1  0
 11 29  1  0
 12 30  1  0
 13 31  1  0
 14 32  1  0
 17 33  1  0
 18 34  1  0
 19 35  1  0
 19 36  1  0
 20 37  1  0
 20 38  1  0
 21 39  1  0
 21 40  1  0
 22 41  1  0
 22 42  1  0
 23 43  1  0
 23 44  1  0
M  END
$$$$
