
     RDKit          3D

 49 52  0  0  0  0  0  0  0  0999 V2000
   -4.0341   -5.2341   -0.1023 C   0  0  0  0  0  0  0  0  0  0  0  0
   -3.3602   -4.3280    0.7617 O   0  0  0  0  0  0  0  0  0  0  0  0
   -2.7722   -3.2409    0.1759 C   0  0  0  0  0  0  0  0  0  0  0  0
   -2.1138   -2.3851    1.0602 C   0  0  0  0  0  0  0  0  0  0  0  0
   -1.4713   -1.2335    0.5966 C   0  0  0  0  0  0  0  0  0  0  0  0
   -1.4705   -0.9163   -0.7696 C   0  0  0  0  0  0  0  0  0  0  0  0
   -0.7933    0.3508   -1.2996 C   0  0  0  0  0  0  0  0  0  0  0  0
    0.6049    0.4211   -0.8217 N   0  0  0  0  0  0  0  0  0  0  0  0
    0.8782    1.2789    0.0993 C   0  0  0  0  0  0  0  0  0  0  0  0
    2.0902    1.4463    0.7227 N   0  0  0  0  0  0  0  0  0  0  0  0
    3.3075    0.7680    0.5002 C   0  0  0  0  0  0  0  0  0  0  0  0
    3.5626   -0.0468   -0.6059 C   0  0  0  0  0  0  0  0  0  0  0  0
    4.8070   -0.6661   -0.7826 C   0  0  0  0  0  0  0  0  0  0  0  0
    5.8339   -0.4813    0.1455 C   0  0  0  0  0  0  0  0  0  0  0  0
    7.1745   -1.1189   -0.0637 C   0  0  0  0  0  0  0  0  0  0  0  0
    5.6062    0.3583    1.2367 C   0  0  0  0  0  0  0  0  0  0  0  0
    4.3608    0.9735    1.4083 C   0  0  0  0  0  0  0  0  0  0  0  0
   -0.0612    2.1519    0.5567 N   0  0  0  0  0  0  0  0  0  0  0  0
   -1.2648    2.3789   -0.0271 C   0  0  0  0  0  0  0  0  0  0  0  0
   -1.9904    3.3888    0.3502 N   0  0  0  0  0  0  0  0  0  0  0  0
   -3.1727    3.6043   -0.3110 C   0  0  0  0  0  0  0  0  0  0  0  0
   -3.9916    4.7576    0.1939 C   0  0  0  0  0  0  0  0  0  0  0  0
   -3.5844    2.8641   -1.3466 C   0  0  0  0  0  0  0  0  0  0  0  0
   -2.7438    1.7410   -1.7910 C   0  0  0  0  0  0  0  0  0  0  0  0
   -3.0872    1.0911   -2.7747 O   0  0  0  0  0  0  0  0  0  0  0  0
   -1.6114    1.5264   -1.0417 N   0  0  0  0  0  0  0  0  0  0  0  0
   -2.1389   -1.7816   -1.6505 C   0  0  0  0  0  0  0  0  0  0  0  0
   -2.7834   -2.9335   -1.1833 C   0  0  0  0  0  0  0  0  0  0  0  0
   -4.4392   -6.0436    0.5127 H   0  0  0  0  0  0  0  0  0  0  0  0
   -4.8751   -4.7471   -0.6069 H   0  0  0  0  0  0  0  0  0  0  0  0
   -3.3425   -5.6798   -0.8250 H   0  0  0  0  0  0  0  0  0  0  0  0
   -2.0994   -2.6176    2.1221 H   0  0  0  0  0  0  0  0  0  0  0  0
   -0.9666   -0.5921    1.3133 H   0  0  0  0  0  0  0  0  0  0  0  0
   -0.7199    0.2576   -2.3913 H   0  0  0  0  0  0  0  0  0  0  0  0
    2.0675    1.9042    1.6221 H   0  0  0  0  0  0  0  0  0  0  0  0
    2.8053   -0.2187   -1.3645 H   0  0  0  0  0  0  0  0  0  0  0  0
    4.9617   -1.2934   -1.6579 H   0  0  0  0  0  0  0  0  0  0  0  0
    7.0742   -2.0775   -0.5835 H   0  0  0  0  0  0  0  0  0  0  0  0
    7.8143   -0.4592   -0.6579 H   0  0  0  0  0  0  0  0  0  0  0  0
    7.6656   -1.3192    0.8944 H   0  0  0  0  0  0  0  0  0  0  0  0
    6.3956    0.5421    1.9620 H   0  0  0  0  0  0  0  0  0  0  0  0
    4.2267    1.6211    2.2712 H   0  0  0  0  0  0  0  0  0  0  0  0
    0.2217    2.8965    1.1740 H   0  0  0  0  0  0  0  0  0  0  0  0
   -4.2637    4.5983    1.2426 H   0  0  0  0  0  0  0  0  0  0  0  0
   -4.9176    4.8885   -0.3760 H   0  0  0  0  0  0  0  0  0  0  0  0
   -3.4199    5.6888    0.1223 H   0  0  0  0  0  0  0  0  0  0  0  0
   -4.5083    3.0343   -1.8818 H   0  0  0  0  0  0  0  0  0  0  0  0
   -2.1742   -1.5556   -2.7154 H   0  0  0  0  0  0  0  0  0  0  0  0
   -3.2868   -3.5622   -1.9097 H   0  0  0  0  0  0  0  0  0  0  0  0
  1  2  1  0
  2  3  1  0
  3  4  2  0
  4  5  1  0
  5  6  2  0
  6  7  1  0
  7  8  1  0
  8  9  2  0
  9 10  1  0
 10 11  1  0
 11 12  2  0
 12 13  1  0
 13 14  2  0
 14 15  1  0
 14 16  1  0
 16 17  2  0
  9 18  1  0
 18 19  1  0
 19 20  2  0
 20 21  1  0
 21 22  1  0
 21 23  2  0
 23 24  1  0
 24 25  2  0
 24 26  1  0
  6 27  1  0
 27 28  2  0
 28  3  1  0
 26  7  1  0
 17 11  1  0
 26 19  1  0
  1 29  1  0
  1 30  1  0
  1 31  1  0
  4 32  1  0
  5 33  1  0
  7 34  1  0
 10 35  1  0
 12 36  1  0
 13 37  1  0
 15 38  1  0
 15 39  1  0
 15 40  1  0
 16 41  1  0
 17 42  1  0
 18 43  1  0
 22 44  1  0
 22 45  1  0
 22 46  1  0
 23 47  1  0
 27 48  1  0
 28 49  1  0
M  END
$$$$
