
     RDKit          3D

 43 46  0  0  0  0  0  0  0  0999 V2000
    3.8737   -1.3343    1.3483 O   0  0  0  0  0  0  0  0  0  0  0  0
    2.8575   -0.9503    0.8141 C   0  0  0  0  0  0  0  0  0  0  0  0
    2.4910    0.3830    0.2497 C   0  0  0  0  0  0  0  0  0  0  0  0
    3.1880    1.5228    0.1788 C   0  0  0  0  0  0  0  0  0  0  0  0
    4.4944    1.7714    0.6743 C   0  0  0  0  0  0  0  0  0  0  0  0
    5.1937    1.2845    1.7729 C   0  0  0  0  0  0  0  0  0  0  0  0
    6.4645    1.9081    1.8039 C   0  0  0  0  0  0  0  0  0  0  0  0
    6.4826    2.7671    0.7381 C   0  0  0  0  0  0  0  0  0  0  0  0
    5.3091    2.7074    0.0662 O   0  0  0  0  0  0  0  0  0  0  0  0
    1.1977    0.3208   -0.2962 O   0  0  0  0  0  0  0  0  0  0  0  0
    0.7384   -0.9593   -0.0845 C   0  0  0  0  0  0  0  0  0  0  0  0
    1.6733   -1.7617    0.5641 C   0  0  0  0  0  0  0  0  0  0  0  0
    1.4382   -3.0885    0.8635 C   0  0  0  0  0  0  0  0  0  0  0  0
    0.2013   -3.6105    0.4873 C   0  0  0  0  0  0  0  0  0  0  0  0
   -0.7468   -2.7990   -0.1618 C   0  0  0  0  0  0  0  0  0  0  0  0
   -1.9374   -3.3955   -0.4811 O   0  0  0  0  0  0  0  0  0  0  0  0
   -0.5047   -1.4454   -0.4614 C   0  0  0  0  0  0  0  0  0  0  0  0
   -1.4743   -0.5783   -1.2293 C   0  0  0  0  0  0  0  0  0  0  0  0
   -2.8908   -0.8451   -0.8918 N   0  0  0  0  0  0  0  0  0  0  0  0
   -3.8002   -0.3123   -1.9231 C   0  0  0  0  0  0  0  0  0  0  0  0
   -3.9103    1.2137   -1.9376 C   0  0  0  0  0  0  0  0  0  0  0  0
   -4.3029    1.7499   -0.5659 C   0  0  0  0  0  0  0  0  0  0  0  0
   -3.3791    1.2041    0.5165 C   0  0  0  0  0  0  0  0  0  0  0  0
   -3.2655   -0.3209    0.4385 C   0  0  0  0  0  0  0  0  0  0  0  0
    2.7309    2.3591   -0.3442 H   0  0  0  0  0  0  0  0  0  0  0  0
    4.8295    0.5579    2.4858 H   0  0  0  0  0  0  0  0  0  0  0  0
    7.2591    1.7512    2.5190 H   0  0  0  0  0  0  0  0  0  0  0  0
    7.2134    3.4591    0.3441 H   0  0  0  0  0  0  0  0  0  0  0  0
    2.1849   -3.6956    1.3637 H   0  0  0  0  0  0  0  0  0  0  0  0
   -0.0385   -4.6507    0.6958 H   0  0  0  0  0  0  0  0  0  0  0  0
   -2.5579   -2.6727   -0.7262 H   0  0  0  0  0  0  0  0  0  0  0  0
   -1.2309    0.4819   -1.1022 H   0  0  0  0  0  0  0  0  0  0  0  0
   -1.3027   -0.8128   -2.2885 H   0  0  0  0  0  0  0  0  0  0  0  0
   -3.4993   -0.6720   -2.9148 H   0  0  0  0  0  0  0  0  0  0  0  0
   -4.7974   -0.7388   -1.7517 H   0  0  0  0  0  0  0  0  0  0  0  0
   -4.6589    1.5199   -2.6774 H   0  0  0  0  0  0  0  0  0  0  0  0
   -2.9584    1.6589   -2.2504 H   0  0  0  0  0  0  0  0  0  0  0  0
   -4.2746    2.8451   -0.5675 H   0  0  0  0  0  0  0  0  0  0  0  0
   -5.3362    1.4564   -0.3433 H   0  0  0  0  0  0  0  0  0  0  0  0
   -3.7632    1.4915    1.5022 H   0  0  0  0  0  0  0  0  0  0  0  0
   -2.3885    1.6639    0.4224 H   0  0  0  0  0  0  0  0  0  0  0  0
   -4.2351   -0.7592    0.7097 H   0  0  0  0  0  0  0  0  0  0  0  0
   -2.5676   -0.6748    1.2062 H   0  0  0  0  0  0  0  0  0  0  0  0
  1  2  2  0
  2  3  1  0
  3  4  2  3
  4  5  1  0
  5  6  2  0
  6  7  1  0
  7  8  2  0
  8  9  1  0
  3 10  1  0
 10 11  1  0
 11 12  2  0
 12 13  1  0
 13 14  2  0
 14 15  1  0
 15 16  1  0
 15 17  2  0
 17 18  1  0
 18 19  1  0
 19 20  1  0
 20 21  1  0
 21 22  1  0
 22 23  1  0
 23 24  1  0
 12  2  1  0
 24 19  1  0
  9  5  1  0
 17 11  1  0
  4 25  1  0
  6 26  1  0
  7 27  1  0
  8 28  1  0
 13 29  1  0
 14 30  1  0
 16 31  1  0
 18 32  1  0
 18 33  1  0
 20 34  1  0
 20 35  1  0
 21 36  1  0
 21 37  1  0
 22 38  1  0
 22 39  1  0
 23 40  1  0
 23 41  1  0
 24 42  1  0
 24 43  1  0
M  END
$$$$
