
     RDKit          3D

 42 45  0  0  0  0  0  0  0  0999 V2000
    7.3565    0.9869    0.7993 O   0  0  0  0  0  0  0  0  0  0  0  0
    6.6797    1.9928    0.9184 C   0  0  0  0  0  0  0  0  0  0  0  0
    7.2123    3.1250    1.4193 O   0  0  0  0  0  0  0  0  0  0  0  0
    5.2141    2.1453    0.6182 C   0  0  0  0  0  0  0  0  0  0  0  0
    4.7324    1.0407   -0.3261 C   0  0  0  0  0  0  0  0  0  0  0  0
    5.0439    1.3975   -1.7810 C   0  0  0  0  0  0  0  0  0  0  0  0
    6.0606    1.9450   -2.1789 O   0  0  0  0  0  0  0  0  0  0  0  0
    4.1053    1.0058   -2.6678 O   0  0  0  0  0  0  0  0  0  0  0  0
    3.3038    0.6637   -0.1611 N   0  0  0  0  0  0  0  0  0  0  0  0
    2.9982   -0.6889   -0.1298 C   0  0  0  0  0  0  0  0  0  0  0  0
    3.8038   -1.6092   -0.1861 O   0  0  0  0  0  0  0  0  0  0  0  0
    1.5304   -0.9043   -0.0261 C   0  0  0  0  0  0  0  0  0  0  0  0
    1.0391   -2.1487    0.0495 C   0  0  0  0  0  0  0  0  0  0  0  0
   -0.3379   -2.4972    0.1446 C   0  0  0  0  0  0  0  0  0  0  0  0
   -0.8835   -3.7653    0.2923 C   0  0  0  0  0  0  0  0  0  0  0  0
   -2.2919   -3.6317    0.3356 C   0  0  0  0  0  0  0  0  0  0  0  0
   -2.5778   -2.2842    0.2059 C   0  0  0  0  0  0  0  0  0  0  0  0
   -3.8470   -1.6020    0.1765 C   0  0  0  0  0  0  0  0  0  0  0  0
   -3.9360   -0.3030   -0.0132 N   0  0  0  0  0  0  0  0  0  0  0  0
   -5.2621    0.0915   -0.0086 C   0  0  0  0  0  0  0  0  0  0  0  0
   -5.7334    1.4070   -0.1897 C   0  0  0  0  0  0  0  0  0  0  0  0
   -7.1081    1.6640   -0.1626 C   0  0  0  0  0  0  0  0  0  0  0  0
   -8.0141    0.6285    0.0439 C   0  0  0  0  0  0  0  0  0  0  0  0
   -7.5720   -0.6853    0.2269 C   0  0  0  0  0  0  0  0  0  0  0  0
   -6.1891   -0.9314    0.1957 C   0  0  0  0  0  0  0  0  0  0  0  0
   -5.3442   -2.4193    0.3798 S   0  0  0  0  0  0  0  0  0  0  0  0
   -1.3866   -1.6138    0.0938 O   0  0  0  0  0  0  0  0  0  0  0  0
    0.7274    0.6067   -0.0242 S   0  0  0  0  0  0  0  0  0  0  0  0
    2.2198    1.5193   -0.2034 C   0  0  0  0  0  0  0  0  0  0  0  0
    2.1926    3.1759   -0.4002 S   0  0  0  0  0  0  0  0  0  0  0  0
    8.1570    2.9080    1.5702 H   0  0  0  0  0  0  0  0  0  0  0  0
    5.0743    3.1362    0.1739 H   0  0  0  0  0  0  0  0  0  0  0  0
    4.6867    2.0976    1.5777 H   0  0  0  0  0  0  0  0  0  0  0  0
    5.3186    0.1326   -0.1425 H   0  0  0  0  0  0  0  0  0  0  0  0
    4.4677    1.2710   -3.5407 H   0  0  0  0  0  0  0  0  0  0  0  0
    1.7396   -2.9819    0.0382 H   0  0  0  0  0  0  0  0  0  0  0  0
   -0.3203   -4.6867    0.3609 H   0  0  0  0  0  0  0  0  0  0  0  0
   -3.0111   -4.4314    0.4442 H   0  0  0  0  0  0  0  0  0  0  0  0
   -5.0215    2.2117   -0.3489 H   0  0  0  0  0  0  0  0  0  0  0  0
   -7.4664    2.6810   -0.3049 H   0  0  0  0  0  0  0  0  0  0  0  0
   -9.0806    0.8431    0.0626 H   0  0  0  0  0  0  0  0  0  0  0  0
   -8.2805   -1.4923    0.3864 H   0  0  0  0  0  0  0  0  0  0  0  0
  1  2  2  0
  2  3  1  0
  2  4  1  0
  4  5  1  0
  5  6  1  0
  6  7  2  0
  6  8  1  0
  5  9  1  0
  9 10  1  0
 10 11  2  0
 10 12  1  0
 12 13  2  3
 13 14  1  0
 14 15  2  0
 15 16  1  0
 16 17  2  0
 17 18  1  0
 18 19  2  0
 19 20  1  0
 20 21  2  0
 21 22  1  0
 22 23  2  0
 23 24  1  0
 24 25  2  0
 25 26  1  0
 17 27  1  0
 12 28  1  0
 28 29  1  0
 29 30  2  0
 29  9  1  0
 27 14  1  0
 26 18  1  0
 25 20  1  0
  3 31  1  0
  4 32  1  0
  4 33  1  0
  5 34  1  0
  8 35  1  0
 13 36  1  0
 15 37  1  0
 16 38  1  0
 21 39  1  0
 22 40  1  0
 23 41  1  0
 24 42  1  0
M  END
$$$$
