
     RDKit          3D

 52 55  0  0  0  0  0  0  0  0999 V2000
    8.8564   -0.6012    0.5060 C   0  0  0  0  0  0  0  0  0  0  0  0
    8.2868    0.0786   -0.7273 C   0  0  0  0  0  0  0  0  0  0  0  0
    7.3307    1.0725   -0.3637 O   0  0  0  0  0  0  0  0  0  0  0  0
    6.0223    0.7104   -0.2176 C   0  0  0  0  0  0  0  0  0  0  0  0
    5.1512    1.7719    0.0340 C   0  0  0  0  0  0  0  0  0  0  0  0
    3.7795    1.5544    0.2095 C   0  0  0  0  0  0  0  0  0  0  0  0
    3.2586    0.2637    0.1434 C   0  0  0  0  0  0  0  0  0  0  0  0
    1.8908   -0.0432    0.2914 N   0  0  0  0  0  0  0  0  0  0  0  0
    0.8836    0.7927    0.7245 C   0  0  0  0  0  0  0  0  0  0  0  0
    1.0535    1.9183    1.1840 O   0  0  0  0  0  0  0  0  0  0  0  0
   -0.3978    0.2387    0.6111 N   0  0  0  0  0  0  0  0  0  0  0  0
   -0.7133   -0.8805   -0.2781 C   0  0  0  0  0  0  0  0  0  0  0  0
   -2.1905   -0.9606   -0.6403 C   0  0  0  0  0  0  0  0  0  0  0  0
   -3.0415   -0.9730    0.6317 C   0  0  0  0  0  0  0  0  0  0  0  0
   -4.4604   -1.0450    0.3403 N   0  0  0  0  0  0  0  0  0  0  0  0
   -5.2372   -2.2170    0.5016 C   0  0  0  0  0  0  0  0  0  0  0  0
   -4.8769   -3.2991    0.9332 O   0  0  0  0  0  0  0  0  0  0  0  0
   -6.5280   -1.9090    0.0524 N   0  0  0  0  0  0  0  0  0  0  0  0
   -6.5475   -0.5987   -0.4062 C   0  0  0  0  0  0  0  0  0  0  0  0
   -7.5970    0.1050   -0.9526 C   0  0  0  0  0  0  0  0  0  0  0  0
   -7.3352    1.4181   -1.3504 C   0  0  0  0  0  0  0  0  0  0  0  0
   -6.0508    1.9783   -1.1949 C   0  0  0  0  0  0  0  0  0  0  0  0
   -5.0004    1.2383   -0.6364 C   0  0  0  0  0  0  0  0  0  0  0  0
   -5.2719   -0.0544   -0.2427 C   0  0  0  0  0  0  0  0  0  0  0  0
   -2.6622    0.1365    1.6258 C   0  0  0  0  0  0  0  0  0  0  0  0
   -1.5179    1.0169    1.1330 C   0  0  0  0  0  0  0  0  0  0  0  0
    4.1320   -0.8001   -0.1126 C   0  0  0  0  0  0  0  0  0  0  0  0
    5.5052   -0.5803   -0.2876 C   0  0  0  0  0  0  0  0  0  0  0  0
    8.0815   -1.1353    1.0637 H   0  0  0  0  0  0  0  0  0  0  0  0
    9.2834    0.1407    1.1889 H   0  0  0  0  0  0  0  0  0  0  0  0
    9.6381   -1.3137    0.2274 H   0  0  0  0  0  0  0  0  0  0  0  0
    9.1012    0.6053   -1.2377 H   0  0  0  0  0  0  0  0  0  0  0  0
    7.8921   -0.6381   -1.4559 H   0  0  0  0  0  0  0  0  0  0  0  0
    5.5405    2.7858    0.0928 H   0  0  0  0  0  0  0  0  0  0  0  0
    3.1464    2.4178    0.3893 H   0  0  0  0  0  0  0  0  0  0  0  0
    1.6533   -1.0205    0.2481 H   0  0  0  0  0  0  0  0  0  0  0  0
   -0.4035   -1.7984    0.2355 H   0  0  0  0  0  0  0  0  0  0  0  0
   -0.1168   -0.7923   -1.1932 H   0  0  0  0  0  0  0  0  0  0  0  0
   -2.4574   -0.1105   -1.2795 H   0  0  0  0  0  0  0  0  0  0  0  0
   -2.3793   -1.8638   -1.2331 H   0  0  0  0  0  0  0  0  0  0  0  0
   -2.7995   -1.9170    1.1409 H   0  0  0  0  0  0  0  0  0  0  0  0
   -7.2881   -2.5687    0.0482 H   0  0  0  0  0  0  0  0  0  0  0  0
   -8.5805   -0.3326   -1.0728 H   0  0  0  0  0  0  0  0  0  0  0  0
   -8.1307    2.0181   -1.7876 H   0  0  0  0  0  0  0  0  0  0  0  0
   -5.8739    3.0037   -1.5151 H   0  0  0  0  0  0  0  0  0  0  0  0
   -4.0222    1.6856   -0.5280 H   0  0  0  0  0  0  0  0  0  0  0  0
   -2.3486   -0.3415    2.5636 H   0  0  0  0  0  0  0  0  0  0  0  0
   -3.5194    0.7648    1.8923 H   0  0  0  0  0  0  0  0  0  0  0  0
   -1.8525    1.6825    0.3292 H   0  0  0  0  0  0  0  0  0  0  0  0
   -1.1836    1.6584    1.9564 H   0  0  0  0  0  0  0  0  0  0  0  0
    3.7608   -1.8198   -0.1739 H   0  0  0  0  0  0  0  0  0  0  0  0
    6.1369   -1.4428   -0.4676 H   0  0  0  0  0  0  0  0  0  0  0  0
  1  2  1  0
  2  3  1  0
  3  4  1  0
  4  5  2  0
  5  6  1  0
  6  7  2  0
  7  8  1  0
  8  9  1  0
  9 10  2  0
  9 11  1  0
 11 12  1  0
 12 13  1  0
 13 14  1  0
 14 15  1  0
 15 16  1  0
 16 17  2  0
 16 18  1  0
 18 19  1  0
 19 20  2  0
 20 21  1  0
 21 22  2  0
 22 23  1  0
 23 24  2  0
 14 25  1  0
 25 26  1  0
  7 27  1  0
 27 28  2  0
 28  4  1  0
 26 11  1  0
 24 15  1  0
 24 19  1  0
  1 29  1  0
  1 30  1  0
  1 31  1  0
  2 32  1  0
  2 33  1  0
  5 34  1  0
  6 35  1  0
  8 36  1  0
 12 37  1  0
 12 38  1  0
 13 39  1  0
 13 40  1  0
 14 41  1  0
 18 42  1  0
 20 43  1  0
 21 44  1  0
 22 45  1  0
 23 46  1  0
 25 47  1  0
 25 48  1  0
 26 49  1  0
 26 50  1  0
 27 51  1  0
 28 52  1  0
M  END
$$$$
