
     RDKit          3D

 43 46  0  0  0  0  0  0  0  0999 V2000
    1.4894    1.0697    1.2676 O   0  0  0  0  0  0  0  0  0  0  0  0
    2.1929    0.6547    0.3480 C   0  0  0  0  0  0  0  0  0  0  0  0
    3.4580   -0.0265    0.6746 C   0  0  0  0  0  0  0  0  0  0  0  0
    3.8847   -0.1667    1.9997 C   0  0  0  0  0  0  0  0  0  0  0  0
    5.0865   -0.8208    2.2741 C   0  0  0  0  0  0  0  0  0  0  0  0
    5.8561   -1.3327    1.2280 C   0  0  0  0  0  0  0  0  0  0  0  0
    5.4264   -1.1926   -0.0937 C   0  0  0  0  0  0  0  0  0  0  0  0
    4.2246   -0.5370   -0.3630 C   0  0  0  0  0  0  0  0  0  0  0  0
    3.7872   -0.3974   -1.6771 N   0  0  0  0  0  0  0  0  0  0  0  0
    2.6283    0.2351   -2.0389 C   0  0  0  0  0  0  0  0  0  0  0  0
    2.2941    0.2695   -3.6828 S   0  0  0  0  0  0  0  0  0  0  0  0
    1.8599    0.7782   -1.0111 N   0  0  0  0  0  0  0  0  0  0  0  0
    0.5820    1.4646   -1.2726 C   0  0  0  0  0  0  0  0  0  0  0  0
   -0.6151    0.4931   -1.1881 C   0  0  0  0  0  0  0  0  0  0  0  0
   -1.9169    1.1310   -1.4679 N   0  0  0  0  0  0  0  0  0  0  0  0
   -2.3318    2.1092   -0.4457 C   0  0  0  0  0  0  0  0  0  0  0  0
   -2.5672    1.5119    0.9502 C   0  0  0  0  0  0  0  0  0  0  0  0
   -3.3301    0.2108    0.9030 C   0  0  0  0  0  0  0  0  0  0  0  0
   -3.8335   -0.3474    2.0856 C   0  0  0  0  0  0  0  0  0  0  0  0
   -4.5095   -1.5665    2.0572 C   0  0  0  0  0  0  0  0  0  0  0  0
   -4.6838   -2.2389    0.8498 C   0  0  0  0  0  0  0  0  0  0  0  0
   -4.1785   -1.6954   -0.3315 C   0  0  0  0  0  0  0  0  0  0  0  0
   -3.4867   -0.4754   -0.3155 C   0  0  0  0  0  0  0  0  0  0  0  0
   -2.9845    0.1202   -1.6144 C   0  0  0  0  0  0  0  0  0  0  0  0
    3.2845    0.2305    2.8155 H   0  0  0  0  0  0  0  0  0  0  0  0
    5.4217   -0.9317    3.3028 H   0  0  0  0  0  0  0  0  0  0  0  0
    6.7922   -1.8428    1.4438 H   0  0  0  0  0  0  0  0  0  0  0  0
    6.0358   -1.5975   -0.8970 H   0  0  0  0  0  0  0  0  0  0  0  0
    4.3440   -0.7809   -2.4331 H   0  0  0  0  0  0  0  0  0  0  0  0
    0.6025    1.9516   -2.2526 H   0  0  0  0  0  0  0  0  0  0  0  0
    0.4729    2.2696   -0.5375 H   0  0  0  0  0  0  0  0  0  0  0  0
   -0.4456   -0.2921   -1.9362 H   0  0  0  0  0  0  0  0  0  0  0  0
   -0.6112   -0.0197   -0.2190 H   0  0  0  0  0  0  0  0  0  0  0  0
   -3.2633    2.5815   -0.7887 H   0  0  0  0  0  0  0  0  0  0  0  0
   -1.6146    2.9344   -0.3782 H   0  0  0  0  0  0  0  0  0  0  0  0
   -1.6046    1.3320    1.4439 H   0  0  0  0  0  0  0  0  0  0  0  0
   -3.1202    2.2398    1.5558 H   0  0  0  0  0  0  0  0  0  0  0  0
   -3.6967    0.1658    3.0346 H   0  0  0  0  0  0  0  0  0  0  0  0
   -4.8993   -1.9923    2.9779 H   0  0  0  0  0  0  0  0  0  0  0  0
   -5.2143   -3.1871    0.8280 H   0  0  0  0  0  0  0  0  0  0  0  0
   -4.3272   -2.2287   -1.2677 H   0  0  0  0  0  0  0  0  0  0  0  0
   -2.6489   -0.6777   -2.2891 H   0  0  0  0  0  0  0  0  0  0  0  0
   -3.8401    0.5946   -2.1132 H   0  0  0  0  0  0  0  0  0  0  0  0
  1  2  2  0
  2  3  1  0
  3  4  2  0
  4  5  1  0
  5  6  2  0
  6  7  1  0
  7  8  2  0
  8  9  1  0
  9 10  1  0
 10 11  2  0
 10 12  1  0
 12 13  1  0
 13 14  1  0
 14 15  1  0
 15 16  1  0
 16 17  1  0
 17 18  1  0
 18 19  2  0
 19 20  1  0
 20 21  2  0
 21 22  1  0
 22 23  2  0
 23 24  1  0
 12  2  1  0
 24 15  1  0
  8  3  1  0
 23 18  1  0
  4 25  1  0
  5 26  1  0
  6 27  1  0
  7 28  1  0
  9 29  1  0
 13 30  1  0
 13 31  1  0
 14 32  1  0
 14 33  1  0
 16 34  1  0
 16 35  1  0
 17 36  1  0
 17 37  1  0
 19 38  1  0
 20 39  1  0
 21 40  1  0
 22 41  1  0
 24 42  1  0
 24 43  1  0
M  END
$$$$
