
     RDKit          3D

 67 71  0  0  0  0  0  0  0  0999 V2000
    8.7593   -2.1723    1.3627 O   0  0  0  0  0  0  0  0  0  0  0  0
    9.3283   -1.2229    0.8461 C   0  0  0  0  0  0  0  0  0  0  0  0
   10.7313   -1.2313    0.2894 C   0  0  0  0  0  0  0  0  0  0  0  0
   10.7553    0.0182   -0.5894 C   0  0  0  0  0  0  0  0  0  0  0  0
    9.7619    0.9575    0.0733 C   0  0  0  0  0  0  0  0  0  0  0  0
    8.8241    0.0609    0.7021 N   0  0  0  0  0  0  0  0  0  0  0  0
    7.5254    0.4878    1.1940 C   0  0  0  0  0  0  0  0  0  0  0  0
    6.4620    0.4440    0.0983 C   0  0  0  0  0  0  0  0  0  0  0  0
    5.0664    0.5785    0.7020 C   0  0  0  0  0  0  0  0  0  0  0  0
    4.0559    0.7014   -0.3412 N   0  0  0  0  0  0  0  0  0  0  0  0
    3.2156   -0.3366   -0.6726 C   0  0  0  0  0  0  0  0  0  0  0  0
    3.7442   -1.7003   -0.9899 C   0  0  0  0  0  0  0  0  0  0  0  0
    2.8801   -2.6616   -1.3396 C   0  0  0  0  0  0  0  0  0  0  0  0
    1.5055   -2.3616   -1.3716 C   0  0  0  0  0  0  0  0  0  0  0  0
    0.4409   -3.0767   -1.6613 N   0  0  0  0  0  0  0  0  0  0  0  0
   -0.6643   -2.2720   -1.4853 N   0  0  0  0  0  0  0  0  0  0  0  0
   -0.2456   -1.0823   -1.0903 C   0  0  0  0  0  0  0  0  0  0  0  0
   -1.0773    0.0911   -0.7080 C   0  0  0  0  0  0  0  0  0  0  0  0
   -2.5216   -0.3230   -0.4035 C   0  0  0  0  0  0  0  0  0  0  0  0
   -3.3339    0.8320    0.1486 C   0  0  0  0  0  0  0  0  0  0  0  0
   -2.8388    1.9515    0.2924 O   0  0  0  0  0  0  0  0  0  0  0  0
   -4.6484    0.5511    0.5124 N   0  0  0  0  0  0  0  0  0  0  0  0
   -5.3799   -0.6485    0.0669 C   0  0  0  0  0  0  0  0  0  0  0  0
   -6.5582   -1.0223    0.9949 C   0  0  0  0  0  0  0  0  0  0  0  0
   -7.4142    0.1423    1.3029 N   0  0  0  0  0  0  0  0  0  0  0  0
   -8.4791    0.4893    0.4659 C   0  0  0  0  0  0  0  0  0  0  0  0
   -9.4202    1.4503    0.8793 C   0  0  0  0  0  0  0  0  0  0  0  0
  -10.5003    1.8313    0.0721 C   0  0  0  0  0  0  0  0  0  0  0  0
  -10.6789    1.2440   -1.1753 C   0  0  0  0  0  0  0  0  0  0  0  0
   -9.7882    0.2671   -1.5998 C   0  0  0  0  0  0  0  0  0  0  0  0
   -8.7104   -0.1082   -0.7847 C   0  0  0  0  0  0  0  0  0  0  0  0
   -6.6241    1.2604    1.8773 C   0  0  0  0  0  0  0  0  0  0  0  0
   -5.4983    1.6819    0.9158 C   0  0  0  0  0  0  0  0  0  0  0  0
    1.1296   -1.0789   -1.0357 N   0  0  0  0  0  0  0  0  0  0  0  0
    1.9425   -0.0341   -0.6982 N   0  0  0  0  0  0  0  0  0  0  0  0
   11.4420   -1.1584    1.1199 H   0  0  0  0  0  0  0  0  0  0  0  0
   10.9190   -2.1380   -0.2944 H   0  0  0  0  0  0  0  0  0  0  0  0
   11.7542    0.4532   -0.6886 H   0  0  0  0  0  0  0  0  0  0  0  0
   10.4026   -0.2437   -1.5964 H   0  0  0  0  0  0  0  0  0  0  0  0
    9.2568    1.6009   -0.6527 H   0  0  0  0  0  0  0  0  0  0  0  0
   10.2302    1.5688    0.8508 H   0  0  0  0  0  0  0  0  0  0  0  0
    7.6273    1.5005    1.6066 H   0  0  0  0  0  0  0  0  0  0  0  0
    7.2364   -0.1816    2.0163 H   0  0  0  0  0  0  0  0  0  0  0  0
    6.5430   -0.5007   -0.4567 H   0  0  0  0  0  0  0  0  0  0  0  0
    6.6475    1.2452   -0.6339 H   0  0  0  0  0  0  0  0  0  0  0  0
    4.8435   -0.2713    1.3583 H   0  0  0  0  0  0  0  0  0  0  0  0
    5.0256    1.4777    1.3260 H   0  0  0  0  0  0  0  0  0  0  0  0
    3.4926    1.5387   -0.2075 H   0  0  0  0  0  0  0  0  0  0  0  0
    4.8101   -1.8750   -0.9573 H   0  0  0  0  0  0  0  0  0  0  0  0
    3.2117   -3.6613   -1.5940 H   0  0  0  0  0  0  0  0  0  0  0  0
   -0.6380    0.5688    0.1798 H   0  0  0  0  0  0  0  0  0  0  0  0
   -1.0641    0.8333   -1.5184 H   0  0  0  0  0  0  0  0  0  0  0  0
   -2.9983   -0.6835   -1.3244 H   0  0  0  0  0  0  0  0  0  0  0  0
   -2.5257   -1.1310    0.3418 H   0  0  0  0  0  0  0  0  0  0  0  0
   -5.7342   -0.4339   -0.9489 H   0  0  0  0  0  0  0  0  0  0  0  0
   -4.7043   -1.5076    0.0028 H   0  0  0  0  0  0  0  0  0  0  0  0
   -7.1346   -1.8628    0.5887 H   0  0  0  0  0  0  0  0  0  0  0  0
   -6.1433   -1.3872    1.9451 H   0  0  0  0  0  0  0  0  0  0  0  0
   -9.3443    1.9026    1.8649 H   0  0  0  0  0  0  0  0  0  0  0  0
  -11.2020    2.5791    0.4291 H   0  0  0  0  0  0  0  0  0  0  0  0
  -11.5105    1.5364   -1.8094 H   0  0  0  0  0  0  0  0  0  0  0  0
   -9.9254   -0.2077   -2.5706 H   0  0  0  0  0  0  0  0  0  0  0  0
   -8.0496   -0.8739   -1.1763 H   0  0  0  0  0  0  0  0  0  0  0  0
   -6.1754    0.9085    2.8161 H   0  0  0  0  0  0  0  0  0  0  0  0
   -7.2316    2.1312    2.1424 H   0  0  0  0  0  0  0  0  0  0  0  0
   -5.9161    2.1083   -0.0037 H   0  0  0  0  0  0  0  0  0  0  0  0
   -4.8915    2.4565    1.3937 H   0  0  0  0  0  0  0  0  0  0  0  0
  1  2  2  0
  2  3  1  0
  3  4  1  0
  4  5  1  0
  5  6  1  0
  6  7  1  0
  7  8  1  0
  8  9  1  0
  9 10  1  0
 10 11  1  0
 11 12  1  0
 12 13  2  0
 13 14  1  0
 14 15  2  0
 15 16  1  0
 16 17  2  0
 17 18  1  0
 18 19  1  0
 19 20  1  0
 20 21  2  0
 20 22  1  0
 22 23  1  0
 23 24  1  0
 24 25  1  0
 25 26  1  0
 26 27  2  0
 27 28  1  0
 28 29  2  0
 29 30  1  0
 30 31  2  0
 25 32  1  0
 32 33  1  0
 17 34  1  0
 34 35  1  0
  6  2  1  0
 35 11  2  0
 34 14  1  0
 33 22  1  0
 31 26  1  0
  3 36  1  0
  3 37  1  0
  4 38  1  0
  4 39  1  0
  5 40  1  0
  5 41  1  0
  7 42  1  0
  7 43  1  0
  8 44  1  0
  8 45  1  0
  9 46  1  0
  9 47  1  0
 10 48  1  0
 12 49  1  0
 13 50  1  0
 18 51  1  0
 18 52  1  0
 19 53  1  0
 19 54  1  0
 23 55  1  0
 23 56  1  0
 24 57  1  0
 24 58  1  0
 27 59  1  0
 28 60  1  0
 29 61  1  0
 30 62  1  0
 31 63  1  0
 32 64  1  0
 32 65  1  0
 33 66  1  0
 33 67  1  0
M  END
$$$$
