
     RDKit          3D

 35 36  0  0  0  0  0  0  0  0999 V2000
   -5.0646   -2.9829   -0.8198 N   0  0  0  0  0  0  0  0  0  0  0  0
   -4.3643   -1.8106   -0.8942 C   0  0  0  0  0  0  0  0  0  0  0  0
   -4.1500   -1.1703   -2.2079 C   0  0  0  0  0  0  0  0  0  0  0  0
   -3.4805   -0.0193   -2.1899 C   0  0  0  0  0  0  0  0  0  0  0  0
   -3.0220    0.5091   -1.0066 N   0  0  0  0  0  0  0  0  0  0  0  0
   -2.2664    1.7571   -1.0095 C   0  0  0  0  0  0  0  0  0  0  0  0
   -0.7705    1.4541   -1.0720 C   0  0  0  0  0  0  0  0  0  0  0  0
   -0.1566    1.4128   -2.1355 O   0  0  0  0  0  0  0  0  0  0  0  0
   -0.1981    1.1865    0.1575 N   0  0  0  0  0  0  0  0  0  0  0  0
    1.1569    0.6707    0.2449 C   0  0  0  0  0  0  0  0  0  0  0  0
    1.7324    0.8336    1.6472 C   0  0  0  0  0  0  0  0  0  0  0  0
    3.1467    0.3234    1.7137 C   0  0  0  0  0  0  0  0  0  0  0  0
    4.2212    1.1805    1.4870 C   0  0  0  0  0  0  0  0  0  0  0  0
    5.5134    0.6655    1.5370 C   0  0  0  0  0  0  0  0  0  0  0  0
    5.6985   -0.6846    1.8068 C   0  0  0  0  0  0  0  0  0  0  0  0
    4.5767   -1.4681    2.0145 C   0  0  0  0  0  0  0  0  0  0  0  0
    3.3112   -0.9966    1.9707 N   0  0  0  0  0  0  0  0  0  0  0  0
   -3.1921   -0.1566    0.2087 C   0  0  0  0  0  0  0  0  0  0  0  0
   -2.6818    0.2878    1.2380 O   0  0  0  0  0  0  0  0  0  0  0  0
   -3.9131   -1.3244    0.2197 N   0  0  0  0  0  0  0  0  0  0  0  0
   -4.9548   -3.6281   -1.5924 H   0  0  0  0  0  0  0  0  0  0  0  0
   -4.9507   -3.4315    0.0849 H   0  0  0  0  0  0  0  0  0  0  0  0
   -4.5363   -1.6242   -3.1082 H   0  0  0  0  0  0  0  0  0  0  0  0
   -3.2724    0.5308   -3.1030 H   0  0  0  0  0  0  0  0  0  0  0  0
   -2.4866    2.3372   -0.1058 H   0  0  0  0  0  0  0  0  0  0  0  0
   -2.5459    2.3762   -1.8696 H   0  0  0  0  0  0  0  0  0  0  0  0
   -0.8523    0.8978    0.8888 H   0  0  0  0  0  0  0  0  0  0  0  0
    1.7790    1.1908   -0.4934 H   0  0  0  0  0  0  0  0  0  0  0  0
    1.1225   -0.3860   -0.0463 H   0  0  0  0  0  0  0  0  0  0  0  0
    1.1169    0.2841    2.3708 H   0  0  0  0  0  0  0  0  0  0  0  0
    1.6967    1.8854    1.9576 H   0  0  0  0  0  0  0  0  0  0  0  0
    4.0604    2.2323    1.2730 H   0  0  0  0  0  0  0  0  0  0  0  0
    6.3683    1.3131    1.3650 H   0  0  0  0  0  0  0  0  0  0  0  0
    6.6916   -1.1164    1.8526 H   0  0  0  0  0  0  0  0  0  0  0  0
    4.6668   -2.5293    2.2273 H   0  0  0  0  0  0  0  0  0  0  0  0
  1  2  1  0
  2  3  1  0
  3  4  2  0
  4  5  1  0
  5  6  1  0
  6  7  1  0
  7  8  2  0
  7  9  1  0
  9 10  1  0
 10 11  1  0
 11 12  1  0
 12 13  2  0
 13 14  1  0
 14 15  2  0
 15 16  1  0
 16 17  2  0
  5 18  1  0
 18 19  2  0
 18 20  1  0
 20  2  2  0
 17 12  1  0
  1 21  1  0
  1 22  1  0
  3 23  1  0
  4 24  1  0
  6 25  1  0
  6 26  1  0
  9 27  1  0
 10 28  1  0
 10 29  1  0
 11 30  1  0
 11 31  1  0
 13 32  1  0
 14 33  1  0
 15 34  1  0
 16 35  1  0
M  END
$$$$
