
     RDKit          3D

 35 37  0  0  0  0  0  0  0  0999 V2000
    5.5300   -1.3103    1.3291 C   0  0  0  0  0  0  0  0  0  0  0  0
    4.2670   -0.8261    0.6700 C   0  0  0  0  0  0  0  0  0  0  0  0
    3.6533   -1.6249   -0.3071 C   0  0  0  0  0  0  0  0  0  0  0  0
    2.4864   -1.2014   -0.9446 C   0  0  0  0  0  0  0  0  0  0  0  0
    1.9074    0.0213   -0.6113 C   0  0  0  0  0  0  0  0  0  0  0  0
    0.7259    0.4379   -1.2371 N   0  0  0  0  0  0  0  0  0  0  0  0
   -0.4033    0.1258   -0.7014 C   0  0  0  0  0  0  0  0  0  0  0  0
   -0.6118   -0.5810    0.4394 N   0  0  0  0  0  0  0  0  0  0  0  0
   -1.9031   -0.7930    0.8234 C   0  0  0  0  0  0  0  0  0  0  0  0
   -2.2354   -1.4100    1.8230 O   0  0  0  0  0  0  0  0  0  0  0  0
   -2.8356   -0.1608   -0.1526 C   0  0  0  0  0  0  0  0  0  0  0  0
   -4.1611   -0.2692    0.0081 C   0  0  0  0  0  0  0  0  0  0  0  0
   -5.1519    0.2755   -0.8603 C   0  0  0  0  0  0  0  0  0  0  0  0
   -5.2104    1.4738   -1.5530 C   0  0  0  0  0  0  0  0  0  0  0  0
   -6.4092    1.6294   -2.3093 C   0  0  0  0  0  0  0  0  0  0  0  0
   -7.2490    0.5509   -2.1668 C   0  0  0  0  0  0  0  0  0  0  0  0
   -6.6009   -0.6297   -1.1192 S   0  0  0  0  0  0  0  0  0  0  0  0
   -1.9264    0.5974   -1.4077 S   0  0  0  0  0  0  0  0  0  0  0  0
    2.5263    0.8341    0.3415 C   0  0  0  0  0  0  0  0  0  0  0  0
    3.7024    0.4245    0.9918 C   0  0  0  0  0  0  0  0  0  0  0  0
    4.3323    1.3316    2.0131 C   0  0  0  0  0  0  0  0  0  0  0  0
    5.4136   -1.3221    2.4174 H   0  0  0  0  0  0  0  0  0  0  0  0
    6.3702   -0.6633    1.0577 H   0  0  0  0  0  0  0  0  0  0  0  0
    5.7798   -2.3303    1.0173 H   0  0  0  0  0  0  0  0  0  0  0  0
    4.0857   -2.5838   -0.5858 H   0  0  0  0  0  0  0  0  0  0  0  0
    2.0300   -1.8260   -1.7079 H   0  0  0  0  0  0  0  0  0  0  0  0
    0.1469   -0.9449    0.9935 H   0  0  0  0  0  0  0  0  0  0  0  0
   -4.5273   -0.8483    0.8563 H   0  0  0  0  0  0  0  0  0  0  0  0
   -4.4306    2.2250   -1.5209 H   0  0  0  0  0  0  0  0  0  0  0  0
   -6.6418    2.4916   -2.9221 H   0  0  0  0  0  0  0  0  0  0  0  0
   -8.2190    0.4019   -2.6210 H   0  0  0  0  0  0  0  0  0  0  0  0
    2.0835    1.8011    0.5702 H   0  0  0  0  0  0  0  0  0  0  0  0
    5.3591    1.5770    1.7235 H   0  0  0  0  0  0  0  0  0  0  0  0
    4.3341    0.8513    2.9967 H   0  0  0  0  0  0  0  0  0  0  0  0
    3.7832    2.2748    2.1066 H   0  0  0  0  0  0  0  0  0  0  0  0
  1  2  1  0
  2  3  2  0
  3  4  1  0
  4  5  2  0
  5  6  1  0
  6  7  2  3
  7  8  1  0
  8  9  1  0
  9 10  2  0
  9 11  1  0
 11 12  2  3
 12 13  1  0
 13 14  2  0
 14 15  1  0
 15 16  2  0
 16 17  1  0
 11 18  1  0
  5 19  1  0
 19 20  2  0
 20 21  1  0
 20  2  1  0
 18  7  1  0
 17 13  1  0
  1 22  1  0
  1 23  1  0
  1 24  1  0
  3 25  1  0
  4 26  1  0
  8 27  1  0
 12 28  1  0
 14 29  1  0
 15 30  1  0
 16 31  1  0
 19 32  1  0
 21 33  1  0
 21 34  1  0
 21 35  1  0
M  END
$$$$
