
     RDKit          3D

 53 56  0  0  0  0  0  0  0  0999 V2000
    3.8189   -4.8013   -0.9014 C   0  0  0  0  0  0  0  0  0  0  0  0
    2.8925   -3.8535   -0.3872 O   0  0  0  0  0  0  0  0  0  0  0  0
    3.0262   -2.5623   -0.8159 C   0  0  0  0  0  0  0  0  0  0  0  0
    3.9905   -2.0859   -1.7001 C   0  0  0  0  0  0  0  0  0  0  0  0
    4.0096   -0.7332   -2.0656 C   0  0  0  0  0  0  0  0  0  0  0  0
    3.0675    0.1601   -1.5479 C   0  0  0  0  0  0  0  0  0  0  0  0
    2.9999    1.4917   -1.8582 O   0  0  0  0  0  0  0  0  0  0  0  0
    3.8966    1.9845   -2.8448 C   0  0  0  0  0  0  0  0  0  0  0  0
    2.1030   -0.3074   -0.6398 C   0  0  0  0  0  0  0  0  0  0  0  0
    1.0479    0.6080   -0.0620 C   0  0  0  0  0  0  0  0  0  0  0  0
   -0.1307    0.6474   -0.9393 N   0  0  0  0  0  0  0  0  0  0  0  0
   -1.1876    1.4077   -0.3458 N   0  0  0  0  0  0  0  0  0  0  0  0
   -2.1155    0.8116    0.5170 C   0  0  0  0  0  0  0  0  0  0  0  0
   -2.0455   -0.6531    0.7771 C   0  0  0  0  0  0  0  0  0  0  0  0
   -2.0138   -1.5810   -0.2679 C   0  0  0  0  0  0  0  0  0  0  0  0
   -1.9440   -2.9445    0.0168 C   0  0  0  0  0  0  0  0  0  0  0  0
   -1.9285   -3.3835    1.3422 C   0  0  0  0  0  0  0  0  0  0  0  0
   -2.0028   -2.4656    2.3975 C   0  0  0  0  0  0  0  0  0  0  0  0
   -1.9664   -2.9378    3.8206 C   0  0  0  0  0  0  0  0  0  0  0  0
   -2.0561   -1.0962    2.1064 C   0  0  0  0  0  0  0  0  0  0  0  0
   -3.0375    1.4946    1.1276 N   0  0  0  0  0  0  0  0  0  0  0  0
   -3.1319    2.8711    0.8843 C   0  0  0  0  0  0  0  0  0  0  0  0
   -4.1242    3.5993    1.5455 C   0  0  0  0  0  0  0  0  0  0  0  0
   -4.2662    4.9731    1.3292 C   0  0  0  0  0  0  0  0  0  0  0  0
   -3.4139    5.6336    0.4449 C   0  0  0  0  0  0  0  0  0  0  0  0
   -2.4194    4.9199   -0.2223 C   0  0  0  0  0  0  0  0  0  0  0  0
   -2.2865    3.5441    0.0030 C   0  0  0  0  0  0  0  0  0  0  0  0
   -1.2406    2.7645   -0.6788 C   0  0  0  0  0  0  0  0  0  0  0  0
   -0.4825    3.3055   -1.4833 O   0  0  0  0  0  0  0  0  0  0  0  0
    2.0874   -1.6716   -0.2940 C   0  0  0  0  0  0  0  0  0  0  0  0
    4.8432   -4.5532   -0.6045 H   0  0  0  0  0  0  0  0  0  0  0  0
    3.5743   -5.7764   -0.4692 H   0  0  0  0  0  0  0  0  0  0  0  0
    3.7321   -4.8885   -1.9896 H   0  0  0  0  0  0  0  0  0  0  0  0
    4.7425   -2.7386   -2.1304 H   0  0  0  0  0  0  0  0  0  0  0  0
    4.7775   -0.4111   -2.7612 H   0  0  0  0  0  0  0  0  0  0  0  0
    3.6744    3.0450   -2.9982 H   0  0  0  0  0  0  0  0  0  0  0  0
    3.7531    1.4726   -3.8020 H   0  0  0  0  0  0  0  0  0  0  0  0
    4.9348    1.9079   -2.5056 H   0  0  0  0  0  0  0  0  0  0  0  0
    1.4558    1.6144    0.0937 H   0  0  0  0  0  0  0  0  0  0  0  0
    0.7763    0.2411    0.9360 H   0  0  0  0  0  0  0  0  0  0  0  0
    0.1572    1.1616   -1.7816 H   0  0  0  0  0  0  0  0  0  0  0  0
   -2.0339   -1.2507   -1.3029 H   0  0  0  0  0  0  0  0  0  0  0  0
   -1.8975   -3.6657   -0.7952 H   0  0  0  0  0  0  0  0  0  0  0  0
   -1.8647   -4.4503    1.5464 H   0  0  0  0  0  0  0  0  0  0  0  0
   -2.5297   -2.2605    4.4711 H   0  0  0  0  0  0  0  0  0  0  0  0
   -0.9311   -2.9871    4.1718 H   0  0  0  0  0  0  0  0  0  0  0  0
   -2.4200   -3.9300    3.9149 H   0  0  0  0  0  0  0  0  0  0  0  0
   -2.1031   -0.3681    2.9137 H   0  0  0  0  0  0  0  0  0  0  0  0
   -4.7931    3.0868    2.2326 H   0  0  0  0  0  0  0  0  0  0  0  0
   -5.0444    5.5249    1.8510 H   0  0  0  0  0  0  0  0  0  0  0  0
   -3.5245    6.7020    0.2756 H   0  0  0  0  0  0  0  0  0  0  0  0
   -1.7519    5.4312   -0.9122 H   0  0  0  0  0  0  0  0  0  0  0  0
    1.3263   -2.0474    0.3882 H   0  0  0  0  0  0  0  0  0  0  0  0
  1  2  1  0
  2  3  1  0
  3  4  2  0
  4  5  1  0
  5  6  2  0
  6  7  1  0
  7  8  1  0
  6  9  1  0
  9 10  1  0
 10 11  1  0
 11 12  1  0
 12 13  1  0
 13 14  1  0
 14 15  2  0
 15 16  1  0
 16 17  2  0
 17 18  1  0
 18 19  1  0
 18 20  2  0
 13 21  2  0
 21 22  1  0
 22 23  2  0
 23 24  1  0
 24 25  2  0
 25 26  1  0
 26 27  2  0
 27 28  1  0
 28 29  2  0
  9 30  2  0
 30  3  1  0
 28 12  1  0
 20 14  1  0
 27 22  1  0
  1 31  1  0
  1 32  1  0
  1 33  1  0
  4 34  1  0
  5 35  1  0
  8 36  1  0
  8 37  1  0
  8 38  1  0
 10 39  1  0
 10 40  1  0
 11 41  1  0
 15 42  1  0
 16 43  1  0
 17 44  1  0
 19 45  1  0
 19 46  1  0
 19 47  1  0
 20 48  1  0
 23 49  1  0
 24 50  1  0
 25 51  1  0
 26 52  1  0
 30 53  1  0
M  END
$$$$
