
     RDKit          3D

 47 50  0  0  0  0  0  0  0  0999 V2000
   -0.6480    6.3717   -2.2912 C   0  0  0  0  0  0  0  0  0  0  0  0
   -0.3382    4.9464   -2.6477 C   0  0  0  0  0  0  0  0  0  0  0  0
   -0.7421    4.4273   -3.8823 C   0  0  0  0  0  0  0  0  0  0  0  0
   -0.4423    3.1133   -4.2575 C   0  0  0  0  0  0  0  0  0  0  0  0
    0.2890    2.3324   -3.3574 C   0  0  0  0  0  0  0  0  0  0  0  0
    0.7192    1.0256   -3.4640 N   0  0  0  0  0  0  0  0  0  0  0  0
    1.4075    0.6788   -2.3375 C   0  0  0  0  0  0  0  0  0  0  0  0
    2.0267   -0.5756   -2.0298 C   0  0  0  0  0  0  0  0  0  0  0  0
    1.9908   -1.5364   -2.7905 O   0  0  0  0  0  0  0  0  0  0  0  0
    2.6661   -0.5725   -0.7747 N   0  0  0  0  0  0  0  0  0  0  0  0
    3.3283   -1.7929   -0.3195 C   0  0  0  0  0  0  0  0  0  0  0  0
    2.4053   -2.6806    0.5178 C   0  0  0  0  0  0  0  0  0  0  0  0
    2.6916   -3.8454    0.7865 O   0  0  0  0  0  0  0  0  0  0  0  0
    1.2904   -2.0446    1.0272 N   0  0  0  0  0  0  0  0  0  0  0  0
    0.4373   -2.6823    2.0097 C   0  0  0  0  0  0  0  0  0  0  0  0
   -0.9358   -2.0160    2.0736 C   0  0  0  0  0  0  0  0  0  0  0  0
   -1.8259   -2.6506    3.1126 C   0  0  0  0  0  0  0  0  0  0  0  0
   -2.5939   -3.7794    2.7927 C   0  0  0  0  0  0  0  0  0  0  0  0
   -3.4062   -4.3788    3.7577 C   0  0  0  0  0  0  0  0  0  0  0  0
   -3.4507   -3.8546    5.0474 C   0  0  0  0  0  0  0  0  0  0  0  0
   -4.4519   -4.5922    6.2366 Cl  0  0  0  0  0  0  0  0  0  0  0  0
   -2.6882   -2.7375    5.3811 C   0  0  0  0  0  0  0  0  0  0  0  0
   -1.8754   -2.1378    4.4164 C   0  0  0  0  0  0  0  0  0  0  0  0
    2.6665    0.5183    0.1218 N   0  0  0  0  0  0  0  0  0  0  0  0
    2.0934    1.6362   -0.2279 C   0  0  0  0  0  0  0  0  0  0  0  0
    1.4278    1.7596   -1.4928 C   0  0  0  0  0  0  0  0  0  0  0  0
    0.7239    2.8191   -2.1193 C   0  0  0  0  0  0  0  0  0  0  0  0
    0.4090    4.1470   -1.7657 C   0  0  0  0  0  0  0  0  0  0  0  0
   -0.7508    6.4897   -1.2074 H   0  0  0  0  0  0  0  0  0  0  0  0
    0.1534    7.0279   -2.6445 H   0  0  0  0  0  0  0  0  0  0  0  0
   -1.5931    6.6910   -2.7430 H   0  0  0  0  0  0  0  0  0  0  0  0
   -1.3044    5.0513   -4.5753 H   0  0  0  0  0  0  0  0  0  0  0  0
   -0.7668    2.7228   -5.2170 H   0  0  0  0  0  0  0  0  0  0  0  0
    0.5555    0.4135   -4.2534 H   0  0  0  0  0  0  0  0  0  0  0  0
    4.1946   -1.5158    0.2902 H   0  0  0  0  0  0  0  0  0  0  0  0
    3.6699   -2.3726   -1.1829 H   0  0  0  0  0  0  0  0  0  0  0  0
    1.3402   -1.0284    0.9991 H   0  0  0  0  0  0  0  0  0  0  0  0
    0.3426   -3.7463    1.7630 H   0  0  0  0  0  0  0  0  0  0  0  0
    0.9505   -2.6161    2.9762 H   0  0  0  0  0  0  0  0  0  0  0  0
   -0.8251   -0.9450    2.2884 H   0  0  0  0  0  0  0  0  0  0  0  0
   -1.4251   -2.0665    1.0920 H   0  0  0  0  0  0  0  0  0  0  0  0
   -2.5628   -4.2002    1.7894 H   0  0  0  0  0  0  0  0  0  0  0  0
   -3.9974   -5.2526    3.4975 H   0  0  0  0  0  0  0  0  0  0  0  0
   -2.7204   -2.3306    6.3882 H   0  0  0  0  0  0  0  0  0  0  0  0
   -1.2816   -1.2684    4.6905 H   0  0  0  0  0  0  0  0  0  0  0  0
    2.1044    2.4966    0.4595 H   0  0  0  0  0  0  0  0  0  0  0  0
    0.7422    4.5514   -0.8138 H   0  0  0  0  0  0  0  0  0  0  0  0
  1  2  1  0
  2  3  2  0
  3  4  1  0
  4  5  2  0
  5  6  1  0
  6  7  1  0
  7  8  1  0
  8  9  2  0
  8 10  1  0
 10 11  1  0
 11 12  1  0
 12 13  2  0
 12 14  1  0
 14 15  1  0
 15 16  1  0
 16 17  1  0
 17 18  2  0
 18 19  1  0
 19 20  2  0
 20 21  1  0
 20 22  1  0
 22 23  2  0
 10 24  1  0
 24 25  2  0
 25 26  1  0
 26 27  1  0
 27 28  2  0
 28  2  1  0
 27  5  1  0
 26  7  2  0
 23 17  1  0
  1 29  1  0
  1 30  1  0
  1 31  1  0
  3 32  1  0
  4 33  1  0
  6 34  1  0
 11 35  1  0
 11 36  1  0
 14 37  1  0
 15 38  1  0
 15 39  1  0
 16 40  1  0
 16 41  1  0
 18 42  1  0
 19 43  1  0
 22 44  1  0
 23 45  1  0
 25 46  1  0
 28 47  1  0
M  END
$$$$
