
     RDKit          3D

 58 61  0  0  0  0  0  0  0  0999 V2000
   -6.6222    3.0436    0.5705 C   0  0  0  0  0  0  0  0  0  0  0  0
   -5.1245    3.1281    0.5540 C   0  0  0  0  0  0  0  0  0  0  0  0
   -4.4611    4.0889    1.3238 C   0  0  0  0  0  0  0  0  0  0  0  0
   -3.0673    4.1479    1.3310 C   0  0  0  0  0  0  0  0  0  0  0  0
   -2.3230    3.2409    0.5737 C   0  0  0  0  0  0  0  0  0  0  0  0
   -2.9635    2.2579   -0.1952 C   0  0  0  0  0  0  0  0  0  0  0  0
   -2.2145    1.2873   -0.9889 C   0  0  0  0  0  0  0  0  0  0  0  0
   -2.6601    0.2332   -1.6460 N   0  0  0  0  0  0  0  0  0  0  0  0
   -1.5169   -0.2918   -2.2268 C   0  0  0  0  0  0  0  0  0  0  0  0
   -1.4901   -1.7375   -3.1633 S   0  0  0  0  0  6  0  0  0  0  0  0
   -0.2484   -1.6871   -3.9162 O   0  0  0  0  0  0  0  0  0  0  0  0
   -2.7800   -1.8265   -3.8176 O   0  0  0  0  0  0  0  0  0  0  0  0
   -1.3776   -3.0440   -1.9690 C   0  0  0  0  0  0  0  0  0  0  0  0
   -0.2314   -3.8469   -1.9182 C   0  0  0  0  0  0  0  0  0  0  0  0
   -0.1587   -4.8735   -0.9771 C   0  0  0  0  0  0  0  0  0  0  0  0
   -1.2249   -5.0867   -0.1061 C   0  0  0  0  0  0  0  0  0  0  0  0
   -1.1500   -6.0737    0.7947 F   0  0  0  0  0  0  0  0  0  0  0  0
   -2.3679   -4.2935   -0.1571 C   0  0  0  0  0  0  0  0  0  0  0  0
   -2.4518   -3.2665   -1.0970 C   0  0  0  0  0  0  0  0  0  0  0  0
   -0.4156    0.4577   -1.8745 C   0  0  0  0  0  0  0  0  0  0  0  0
    0.9072    0.3714   -2.1364 N   0  0  0  0  0  0  0  0  0  0  0  0
    1.8391    1.4210   -1.7583 C   0  0  0  0  0  0  0  0  0  0  0  0
    2.2542    1.3185   -0.2882 C   0  0  0  0  0  0  0  0  0  0  0  0
    2.9827    0.0019    0.0194 C   0  0  0  0  0  0  0  0  0  0  0  0
    3.3876   -0.1053    1.4312 N   0  0  0  0  0  0  0  0  0  0  0  0
    4.4038    0.9031    1.8044 C   0  0  0  0  0  0  0  0  0  0  0  0
    5.2538    0.4544    3.0042 C   0  0  0  0  0  0  0  0  0  0  0  0
    6.0233   -0.7252    2.7279 O   0  0  0  0  0  0  0  0  0  0  0  0
    5.3898   -1.6007    1.7858 C   0  0  0  0  0  0  0  0  0  0  0  0
    3.8591   -1.4682    1.7684 C   0  0  0  0  0  0  0  0  0  0  0  0
   -0.8605    1.4749   -1.0787 O   0  0  0  0  0  0  0  0  0  0  0  0
   -4.3682    2.2103   -0.1896 C   0  0  0  0  0  0  0  0  0  0  0  0
   -7.0673    4.0416    0.6474 H   0  0  0  0  0  0  0  0  0  0  0  0
   -6.9539    2.4394    1.4206 H   0  0  0  0  0  0  0  0  0  0  0  0
   -7.0001    2.5912   -0.3520 H   0  0  0  0  0  0  0  0  0  0  0  0
   -5.0272    4.7979    1.9242 H   0  0  0  0  0  0  0  0  0  0  0  0
   -2.5594    4.8989    1.9316 H   0  0  0  0  0  0  0  0  0  0  0  0
   -1.2365    3.3044    0.5989 H   0  0  0  0  0  0  0  0  0  0  0  0
    0.5996   -3.6858   -2.6020 H   0  0  0  0  0  0  0  0  0  0  0  0
    0.7163   -5.5128   -0.9188 H   0  0  0  0  0  0  0  0  0  0  0  0
   -3.1859   -4.4863    0.5317 H   0  0  0  0  0  0  0  0  0  0  0  0
   -3.3482   -2.6499   -1.1456 H   0  0  0  0  0  0  0  0  0  0  0  0
    1.1958   -0.1979   -2.9365 H   0  0  0  0  0  0  0  0  0  0  0  0
    1.4121    2.4106   -1.9605 H   0  0  0  0  0  0  0  0  0  0  0  0
    2.7313    1.3370   -2.3896 H   0  0  0  0  0  0  0  0  0  0  0  0
    1.3768    1.4115    0.3637 H   0  0  0  0  0  0  0  0  0  0  0  0
    2.9062    2.1723   -0.0680 H   0  0  0  0  0  0  0  0  0  0  0  0
    3.8504   -0.1142   -0.6426 H   0  0  0  0  0  0  0  0  0  0  0  0
    2.2955   -0.8217   -0.2091 H   0  0  0  0  0  0  0  0  0  0  0  0
    3.9012    1.8427    2.0563 H   0  0  0  0  0  0  0  0  0  0  0  0
    5.0811    1.0919    0.9626 H   0  0  0  0  0  0  0  0  0  0  0  0
    5.9567    1.2457    3.2832 H   0  0  0  0  0  0  0  0  0  0  0  0
    4.6219    0.2584    3.8793 H   0  0  0  0  0  0  0  0  0  0  0  0
    5.8090   -1.3943    0.7934 H   0  0  0  0  0  0  0  0  0  0  0  0
    5.6750   -2.6246    2.0514 H   0  0  0  0  0  0  0  0  0  0  0  0
    3.4236   -2.2258    1.1062 H   0  0  0  0  0  0  0  0  0  0  0  0
    3.4829   -1.6924    2.7752 H   0  0  0  0  0  0  0  0  0  0  0  0
   -4.8795    1.4482   -0.7787 H   0  0  0  0  0  0  0  0  0  0  0  0
  1  2  1  0
  2  3  2  0
  3  4  1  0
  4  5  2  0
  5  6  1  0
  6  7  1  0
  7  8  2  0
  8  9  1  0
  9 10  1  0
 10 11  2  0
 10 12  2  0
 10 13  1  0
 13 14  2  0
 14 15  1  0
 15 16  2  0
 16 17  1  0
 16 18  1  0
 18 19  2  0
  9 20  2  0
 20 21  1  0
 21 22  1  0
 22 23  1  0
 23 24  1  0
 24 25  1  0
 25 26  1  0
 26 27  1  0
 27 28  1  0
 28 29  1  0
 29 30  1  0
 20 31  1  0
  6 32  2  0
 32  2  1  0
 31  7  1  0
 19 13  1  0
 30 25  1  0
  1 33  1  0
  1 34  1  0
  1 35  1  0
  3 36  1  0
  4 37  1  0
  5 38  1  0
 14 39  1  0
 15 40  1  0
 18 41  1  0
 19 42  1  0
 21 43  1  0
 22 44  1  0
 22 45  1  0
 23 46  1  0
 23 47  1  0
 24 48  1  0
 24 49  1  0
 26 50  1  0
 26 51  1  0
 27 52  1  0
 27 53  1  0
 29 54  1  0
 29 55  1  0
 30 56  1  0
 30 57  1  0
 32 58  1  0
M  END
$$$$
