
     RDKit          3D

 53 56  0  0  0  0  0  0  0  0999 V2000
    5.4511    2.1314    0.5036 C   0  0  0  0  0  0  0  0  0  0  0  0
    4.5426    1.1091    1.0399 N   0  0  0  0  0  0  0  0  0  0  0  0
    5.1044   -0.0583    1.6086 C   0  0  0  0  0  0  0  0  0  0  0  0
    4.2716   -0.9815    2.2705 C   0  0  0  0  0  0  0  0  0  0  0  0
    4.7798   -2.1486    2.8496 C   0  0  0  0  0  0  0  0  0  0  0  0
    6.1412   -2.4194    2.7861 C   0  0  0  0  0  0  0  0  0  0  0  0
    6.9898   -1.5212    2.1484 C   0  0  0  0  0  0  0  0  0  0  0  0
    6.4764   -0.3533    1.5708 C   0  0  0  0  0  0  0  0  0  0  0  0
    3.2542    1.1790    0.4529 C   0  0  0  0  0  0  0  0  0  0  0  0
    2.3609    2.1526    0.9333 C   0  0  0  0  0  0  0  0  0  0  0  0
    1.0522    2.2482    0.4441 C   0  0  0  0  0  0  0  0  0  0  0  0
    0.5982    1.3671   -0.5422 C   0  0  0  0  0  0  0  0  0  0  0  0
   -0.7747    1.4484   -1.0502 C   0  0  0  0  0  0  0  0  0  0  0  0
   -1.8769    1.0504   -0.3804 C   0  0  0  0  0  0  0  0  0  0  0  0
   -1.8007    0.5281    0.9472 C   0  0  0  0  0  0  0  0  0  0  0  0
   -1.7708    0.0694    2.0130 N   0  0  0  0  0  0  0  0  0  0  0  0
   -3.1339    1.2374   -1.0280 C   0  0  0  0  0  0  0  0  0  0  0  0
   -3.5222    2.2570   -1.7708 N   0  0  0  0  0  0  0  0  0  0  0  0
   -4.8186    2.0576   -2.1472 N   0  0  0  0  0  0  0  0  0  0  0  0
   -5.2199    0.9038   -1.6594 C   0  0  0  0  0  0  0  0  0  0  0  0
   -4.1682    0.3145   -0.9907 N   0  0  0  0  0  0  0  0  0  0  0  0
   -4.1425   -1.0146   -0.4049 C   0  0  0  0  0  0  0  0  0  0  0  0
   -5.0620   -2.0435   -1.0573 C   0  0  0  0  0  0  0  0  0  0  0  0
   -6.5271   -1.9059   -0.6467 C   0  0  0  0  0  0  0  0  0  0  0  0
   -7.0757   -0.4798   -0.6521 C   0  0  0  0  0  0  0  0  0  0  0  0
   -6.5925    0.3468   -1.8366 C   0  0  0  0  0  0  0  0  0  0  0  0
    1.4680    0.4030   -1.0526 C   0  0  0  0  0  0  0  0  0  0  0  0
    2.7796    0.3218   -0.5545 C   0  0  0  0  0  0  0  0  0  0  0  0
    3.6504   -0.6607   -1.1720 N   0  0  0  0  0  4  0  0  0  0  0  0
    3.2743   -1.8417   -1.1382 O   0  0  0  0  0  0  0  0  0  0  0  0
    4.6563   -0.2419   -1.7629 O   0  0  0  0  0  1  0  0  0  0  0  0
    5.9566    1.7793   -0.4026 H   0  0  0  0  0  0  0  0  0  0  0  0
    6.2056    2.4105    1.2484 H   0  0  0  0  0  0  0  0  0  0  0  0
    4.9242    3.0594    0.2489 H   0  0  0  0  0  0  0  0  0  0  0  0
    3.2042   -0.7921    2.3587 H   0  0  0  0  0  0  0  0  0  0  0  0
    4.1083   -2.8408    3.3504 H   0  0  0  0  0  0  0  0  0  0  0  0
    6.5396   -3.3266    3.2317 H   0  0  0  0  0  0  0  0  0  0  0  0
    8.0553   -1.7283    2.0920 H   0  0  0  0  0  0  0  0  0  0  0  0
    7.1813    0.3041    1.0712 H   0  0  0  0  0  0  0  0  0  0  0  0
    2.6807    2.8313    1.7228 H   0  0  0  0  0  0  0  0  0  0  0  0
    0.3936    3.0140    0.8512 H   0  0  0  0  0  0  0  0  0  0  0  0
   -0.8592    1.8630   -2.0554 H   0  0  0  0  0  0  0  0  0  0  0  0
   -4.3662   -0.9047    0.6617 H   0  0  0  0  0  0  0  0  0  0  0  0
   -3.1186   -1.3893   -0.5117 H   0  0  0  0  0  0  0  0  0  0  0  0
   -4.9717   -1.9928   -2.1496 H   0  0  0  0  0  0  0  0  0  0  0  0
   -4.7284   -3.0488   -0.7709 H   0  0  0  0  0  0  0  0  0  0  0  0
   -7.1302   -2.5268   -1.3211 H   0  0  0  0  0  0  0  0  0  0  0  0
   -6.6661   -2.3263    0.3571 H   0  0  0  0  0  0  0  0  0  0  0  0
   -6.8206    0.0196    0.2914 H   0  0  0  0  0  0  0  0  0  0  0  0
   -8.1709   -0.5408   -0.6782 H   0  0  0  0  0  0  0  0  0  0  0  0
   -6.6416   -0.2324   -2.7658 H   0  0  0  0  0  0  0  0  0  0  0  0
   -7.2792    1.1937   -1.9627 H   0  0  0  0  0  0  0  0  0  0  0  0
    1.1382   -0.2801   -1.8335 H   0  0  0  0  0  0  0  0  0  0  0  0
  1  2  1  0
  2  3  1  0
  3  4  2  0
  4  5  1  0
  5  6  2  0
  6  7  1  0
  7  8  2  0
  2  9  1  0
  9 10  2  0
 10 11  1  0
 11 12  2  0
 12 13  1  0
 13 14  2  3
 14 15  1  0
 15 16  3  0
 14 17  1  0
 17 18  2  0
 18 19  1  0
 19 20  2  0
 20 21  1  0
 21 22  1  0
 22 23  1  0
 23 24  1  0
 24 25  1  0
 25 26  1  0
 12 27  1  0
 27 28  2  0
 28 29  1  0
 29 30  2  0
 29 31  1  0
  8  3  1  0
 28  9  1  0
 21 17  1  0
 26 20  1  0
  1 32  1  0
  1 33  1  0
  1 34  1  0
  4 35  1  0
  5 36  1  0
  6 37  1  0
  7 38  1  0
  8 39  1  0
 10 40  1  0
 11 41  1  0
 13 42  1  0
 22 43  1  0
 22 44  1  0
 23 45  1  0
 23 46  1  0
 24 47  1  0
 24 48  1  0
 25 49  1  0
 25 50  1  0
 26 51  1  0
 26 52  1  0
 27 53  1  0
M  CHG  2  29   1  31  -1
M  END
$$$$
