
     RDKit          3D

 52 54  0  0  0  0  0  0  0  0999 V2000
    7.7317    0.5540    2.6315 C   0  0  0  0  0  0  0  0  0  0  0  0
    6.8753    1.7355    2.2181 C   0  0  0  0  0  0  0  0  0  0  0  0
    5.6463    1.2312    1.6772 O   0  0  0  0  0  0  0  0  0  0  0  0
    4.8535    2.1741    1.0968 C   0  0  0  0  0  0  0  0  0  0  0  0
    5.1560    3.3597    1.0165 O   0  0  0  0  0  0  0  0  0  0  0  0
    3.6682    1.6439    0.6145 N   0  0  0  0  0  0  0  0  0  0  0  0
    3.3215    0.2292    0.7392 C   0  0  0  0  0  0  0  0  0  0  0  0
    2.3500   -0.2113   -0.3489 C   0  0  0  0  0  0  0  0  0  0  0  0
    1.0574    0.6272   -0.3552 C   0  0  0  0  0  0  0  0  0  0  0  0
   -0.0433   -0.0418    0.3351 N   0  0  0  0  0  0  0  0  0  0  0  0
   -0.6335   -1.1877   -0.1713 C   0  0  0  0  0  0  0  0  0  0  0  0
   -0.2274   -1.7765   -1.1691 O   0  0  0  0  0  0  0  0  0  0  0  0
   -1.8984   -1.6116    0.5814 C   0  0  0  0  0  0  0  0  0  0  0  0
   -3.0886   -1.0052   -0.0202 N   0  0  0  0  0  0  0  0  0  0  0  0
   -3.2985    0.3495    0.2224 C   0  0  0  0  0  0  0  0  0  0  0  0
   -2.5649    1.0075    0.9673 O   0  0  0  0  0  0  0  0  0  0  0  0
   -4.4108    1.0313   -0.5400 C   0  0  0  0  0  0  0  0  0  0  0  0
   -5.7423    0.9034    0.1645 C   0  0  0  0  0  0  0  0  0  0  0  0
   -6.2009   -0.7761    0.6923 S   0  0  0  0  0  0  0  0  0  0  0  0
   -5.4008   -1.7697   -0.5666 C   0  0  0  0  0  0  0  0  0  0  0  0
   -6.2393   -2.6277   -1.2992 C   0  0  0  0  0  0  0  0  0  0  0  0
   -5.7079   -3.5512   -2.1978 C   0  0  0  0  0  0  0  0  0  0  0  0
   -4.3307   -3.6434   -2.3549 C   0  0  0  0  0  0  0  0  0  0  0  0
   -3.4844   -2.8054   -1.6225 C   0  0  0  0  0  0  0  0  0  0  0  0
   -3.9997   -1.8477   -0.7330 C   0  0  0  0  0  0  0  0  0  0  0  0
    1.2661    2.0264    0.2453 C   0  0  0  0  0  0  0  0  0  0  0  0
    2.6816    2.5353    0.0188 C   0  0  0  0  0  0  0  0  0  0  0  0
    8.6442    0.8923    3.1354 H   0  0  0  0  0  0  0  0  0  0  0  0
    7.1803   -0.1102    3.3019 H   0  0  0  0  0  0  0  0  0  0  0  0
    8.0133   -0.0384    1.7556 H   0  0  0  0  0  0  0  0  0  0  0  0
    6.6503    2.3572    3.0937 H   0  0  0  0  0  0  0  0  0  0  0  0
    7.4117    2.3275    1.4683 H   0  0  0  0  0  0  0  0  0  0  0  0
    2.8790    0.0889    1.7330 H   0  0  0  0  0  0  0  0  0  0  0  0
    4.2269   -0.3856    0.6931 H   0  0  0  0  0  0  0  0  0  0  0  0
    2.1476   -1.2814   -0.2464 H   0  0  0  0  0  0  0  0  0  0  0  0
    2.8460   -0.0785   -1.3202 H   0  0  0  0  0  0  0  0  0  0  0  0
    0.7382    0.7373   -1.4008 H   0  0  0  0  0  0  0  0  0  0  0  0
   -0.6930    0.5567    0.8514 H   0  0  0  0  0  0  0  0  0  0  0  0
   -1.9587   -2.7067    0.5995 H   0  0  0  0  0  0  0  0  0  0  0  0
   -1.8248   -1.2879    1.6291 H   0  0  0  0  0  0  0  0  0  0  0  0
   -4.4545    0.6559   -1.5689 H   0  0  0  0  0  0  0  0  0  0  0  0
   -4.1495    2.0947   -0.6360 H   0  0  0  0  0  0  0  0  0  0  0  0
   -6.5364    1.2852   -0.4870 H   0  0  0  0  0  0  0  0  0  0  0  0
   -5.7423    1.5279    1.0649 H   0  0  0  0  0  0  0  0  0  0  0  0
   -7.3181   -2.5968   -1.1583 H   0  0  0  0  0  0  0  0  0  0  0  0
   -6.3704   -4.2065   -2.7618 H   0  0  0  0  0  0  0  0  0  0  0  0
   -3.9084   -4.3648   -3.0499 H   0  0  0  0  0  0  0  0  0  0  0  0
   -2.4133   -2.8924   -1.7935 H   0  0  0  0  0  0  0  0  0  0  0  0
    0.5386    2.7245   -0.1864 H   0  0  0  0  0  0  0  0  0  0  0  0
    1.0692    2.0067    1.3259 H   0  0  0  0  0  0  0  0  0  0  0  0
    2.7861    3.5430    0.4359 H   0  0  0  0  0  0  0  0  0  0  0  0
    2.9020    2.5986   -1.0531 H   0  0  0  0  0  0  0  0  0  0  0  0
  1  2  1  0
  2  3  1  0
  3  4  1  0
  4  5  2  0
  4  6  1  0
  6  7  1  0
  7  8  1  0
  8  9  1  0
  9 10  1  0
 10 11  1  0
 11 12  2  0
 11 13  1  0
 13 14  1  0
 14 15  1  0
 15 16  2  0
 15 17  1  0
 17 18  1  0
 18 19  1  0
 19 20  1  0
 20 21  2  0
 21 22  1  0
 22 23  2  0
 23 24  1  0
 24 25  2  0
  9 26  1  0
 26 27  1  0
 27  6  1  0
 25 14  1  0
 25 20  1  0
  1 28  1  0
  1 29  1  0
  1 30  1  0
  2 31  1  0
  2 32  1  0
  7 33  1  0
  7 34  1  0
  8 35  1  0
  8 36  1  0
  9 37  1  0
 10 38  1  0
 13 39  1  0
 13 40  1  0
 17 41  1  0
 17 42  1  0
 18 43  1  0
 18 44  1  0
 21 45  1  0
 22 46  1  0
 23 47  1  0
 24 48  1  0
 26 49  1  0
 26 50  1  0
 27 51  1  0
 27 52  1  0
M  END
$$$$
