
     RDKit          3D

 45 46  0  0  0  0  0  0  0  0999 V2000
   -7.6856    0.5748   -0.6657 C   0  0  0  0  0  0  0  0  0  0  0  0
   -7.3100   -0.8902   -0.5270 C   0  0  0  0  0  0  0  0  0  0  0  0
   -6.0523   -1.1505   -1.1471 O   0  0  0  0  0  0  0  0  0  0  0  0
   -4.9122   -1.0394   -0.4030 C   0  0  0  0  0  0  0  0  0  0  0  0
   -3.7528   -1.4675   -1.0536 C   0  0  0  0  0  0  0  0  0  0  0  0
   -2.5112   -1.4092   -0.4164 C   0  0  0  0  0  0  0  0  0  0  0  0
   -2.4093   -0.9169    0.8901 C   0  0  0  0  0  0  0  0  0  0  0  0
   -1.0666   -0.8299    1.5672 C   0  0  0  0  0  0  0  0  0  0  0  0
   -0.3305    0.3183    1.0905 N   0  0  0  0  0  0  0  0  0  0  0  0
    0.6761    0.1919    0.1811 C   0  0  0  0  0  0  0  0  0  0  0  0
    1.1262   -0.8755   -0.1987 O   0  0  0  0  0  0  0  0  0  0  0  0
    1.1432    1.4189   -0.2530 N   0  0  0  0  0  0  0  0  0  0  0  0
    2.3252    1.6395   -1.3985 S   0  0  0  0  0  6  0  0  0  0  0  0
    2.0007    0.8857   -2.5879 O   0  0  0  0  0  0  0  0  0  0  0  0
    2.5197    3.0750   -1.4654 O   0  0  0  0  0  0  0  0  0  0  0  0
    3.7742    0.9489   -0.6414 C   0  0  0  0  0  0  0  0  0  0  0  0
    4.5725    1.7487    0.1819 C   0  0  0  0  0  0  0  0  0  0  0  0
    5.7353    1.2178    0.7513 C   0  0  0  0  0  0  0  0  0  0  0  0
    6.1045   -0.1042    0.4915 C   0  0  0  0  0  0  0  0  0  0  0  0
    7.2099   -0.7412    0.9840 O   0  0  0  0  0  0  0  0  0  0  0  0
    8.0775    0.0207    1.8137 C   0  0  0  0  0  0  0  0  0  0  0  0
    5.3045   -0.8892   -0.3455 C   0  0  0  0  0  0  0  0  0  0  0  0
    4.1446   -0.3666   -0.9209 C   0  0  0  0  0  0  0  0  0  0  0  0
   -3.5714   -0.4755    1.5359 C   0  0  0  0  0  0  0  0  0  0  0  0
   -4.8146   -0.5380    0.8939 C   0  0  0  0  0  0  0  0  0  0  0  0
   -6.9695    1.2225   -0.1513 H   0  0  0  0  0  0  0  0  0  0  0  0
   -8.6813    0.7592   -0.2524 H   0  0  0  0  0  0  0  0  0  0  0  0
   -7.6816    0.8728   -1.7195 H   0  0  0  0  0  0  0  0  0  0  0  0
   -8.0514   -1.4890   -1.0683 H   0  0  0  0  0  0  0  0  0  0  0  0
   -7.3476   -1.2354    0.5121 H   0  0  0  0  0  0  0  0  0  0  0  0
   -3.8159   -1.8518   -2.0692 H   0  0  0  0  0  0  0  0  0  0  0  0
   -1.6238   -1.7482   -0.9494 H   0  0  0  0  0  0  0  0  0  0  0  0
   -1.1916   -0.7048    2.6485 H   0  0  0  0  0  0  0  0  0  0  0  0
   -0.5033   -1.7567    1.4113 H   0  0  0  0  0  0  0  0  0  0  0  0
   -0.7561    1.2222    1.2105 H   0  0  0  0  0  0  0  0  0  0  0  0
    0.7960    2.2874    0.1275 H   0  0  0  0  0  0  0  0  0  0  0  0
    4.3047    2.7841    0.3796 H   0  0  0  0  0  0  0  0  0  0  0  0
    6.3329    1.8632    1.3867 H   0  0  0  0  0  0  0  0  0  0  0  0
    8.4961    0.8739    1.2697 H   0  0  0  0  0  0  0  0  0  0  0  0
    8.9093   -0.6255    2.1102 H   0  0  0  0  0  0  0  0  0  0  0  0
    7.5663    0.3450    2.7261 H   0  0  0  0  0  0  0  0  0  0  0  0
    5.5894   -1.9182   -0.5536 H   0  0  0  0  0  0  0  0  0  0  0  0
    3.5350   -0.9916   -1.5708 H   0  0  0  0  0  0  0  0  0  0  0  0
   -3.5224   -0.0784    2.5476 H   0  0  0  0  0  0  0  0  0  0  0  0
   -5.6826   -0.1773    1.4345 H   0  0  0  0  0  0  0  0  0  0  0  0
  1  2  1  0
  2  3  1  0
  3  4  1  0
  4  5  2  0
  5  6  1  0
  6  7  2  0
  7  8  1  0
  8  9  1  0
  9 10  1  0
 10 11  2  0
 10 12  1  0
 12 13  1  0
 13 14  2  0
 13 15  2  0
 13 16  1  0
 16 17  2  0
 17 18  1  0
 18 19  2  0
 19 20  1  0
 20 21  1  0
 19 22  1  0
 22 23  2  0
  7 24  1  0
 24 25  2  0
 25  4  1  0
 23 16  1  0
  1 26  1  0
  1 27  1  0
  1 28  1  0
  2 29  1  0
  2 30  1  0
  5 31  1  0
  6 32  1  0
  8 33  1  0
  8 34  1  0
  9 35  1  0
 12 36  1  0
 17 37  1  0
 18 38  1  0
 21 39  1  0
 21 40  1  0
 21 41  1  0
 22 42  1  0
 23 43  1  0
 24 44  1  0
 25 45  1  0
M  END
$$$$
