
     RDKit          3D

 59 62  0  0  0  0  0  0  0  0999 V2000
    4.4350   -4.1067   -0.0176 C   0  0  0  0  0  0  0  0  0  0  0  0
    5.2159   -3.0246   -0.5108 O   0  0  0  0  0  0  0  0  0  0  0  0
    4.5728   -1.8370   -0.7511 C   0  0  0  0  0  0  0  0  0  0  0  0
    3.2473   -1.5563   -0.3966 C   0  0  0  0  0  0  0  0  0  0  0  0
    2.6698   -0.3064   -0.6823 C   0  0  0  0  0  0  0  0  0  0  0  0
    1.3235   -0.1204   -0.2973 N   0  0  0  0  0  0  0  0  0  0  0  0
    0.5729    1.0359   -0.4018 C   0  0  0  0  0  0  0  0  0  0  0  0
    0.9602    2.1442   -0.7480 O   0  0  0  0  0  0  0  0  0  0  0  0
   -0.8397    0.8988    0.0140 C   0  0  0  0  0  0  0  0  0  0  0  0
   -1.4489    1.9340    0.7376 C   0  0  0  0  0  0  0  0  0  0  0  0
   -2.7739    1.8083    1.1637 C   0  0  0  0  0  0  0  0  0  0  0  0
   -3.4718    2.8637    1.9490 C   0  0  0  0  0  0  0  0  0  0  0  0
   -4.8809    2.8887    2.0252 C   0  0  0  0  0  0  0  0  0  0  0  0
   -5.5655    3.8684    2.7529 C   0  0  0  0  0  0  0  0  0  0  0  0
   -4.8562    4.8557    3.4277 C   0  0  0  0  0  0  0  0  0  0  0  0
   -3.4660    4.8600    3.3763 C   0  0  0  0  0  0  0  0  0  0  0  0
   -2.7839    3.8745    2.6504 C   0  0  0  0  0  0  0  0  0  0  0  0
   -3.5277    0.7116    0.8907 N   0  0  0  0  0  0  0  0  0  0  0  0
   -2.9175   -0.2361    0.1564 C   0  0  0  0  0  0  0  0  0  0  0  0
   -1.6145   -0.2196   -0.3134 C   0  0  0  0  0  0  0  0  0  0  0  0
   -1.4953   -1.4170   -1.0520 C   0  0  0  0  0  0  0  0  0  0  0  0
   -2.5986   -2.1674   -1.0102 N   0  0  0  0  0  0  0  0  0  0  0  0
   -3.4641   -1.4155   -0.2844 N   0  0  0  0  0  0  0  0  0  0  0  0
   -4.8261   -1.8825   -0.0520 C   0  0  0  0  0  0  0  0  0  0  0  0
   -4.8400   -3.1570    0.7924 C   0  0  0  0  0  0  0  0  0  0  0  0
   -5.5792   -2.0777   -1.3675 C   0  0  0  0  0  0  0  0  0  0  0  0
    3.4306    0.6649   -1.3322 C   0  0  0  0  0  0  0  0  0  0  0  0
    4.7616    0.4041   -1.6662 C   0  0  0  0  0  0  0  0  0  0  0  0
    5.4392    1.4004   -2.3202 O   0  0  0  0  0  0  0  0  0  0  0  0
    6.4856    1.9318   -1.5082 C   0  0  0  0  0  0  0  0  0  0  0  0
    5.3248   -0.8494   -1.4032 C   0  0  0  0  0  0  0  0  0  0  0  0
    6.6344   -1.1051   -1.7277 O   0  0  0  0  0  0  0  0  0  0  0  0
    6.7305   -1.5240   -3.0894 C   0  0  0  0  0  0  0  0  0  0  0  0
    3.6080   -4.3406   -0.6983 H   0  0  0  0  0  0  0  0  0  0  0  0
    4.0708   -3.8997    0.9941 H   0  0  0  0  0  0  0  0  0  0  0  0
    5.0820   -4.9864    0.0371 H   0  0  0  0  0  0  0  0  0  0  0  0
    2.6491   -2.3039    0.1129 H   0  0  0  0  0  0  0  0  0  0  0  0
    0.8897   -0.9097    0.1644 H   0  0  0  0  0  0  0  0  0  0  0  0
   -0.8706    2.8287    0.9471 H   0  0  0  0  0  0  0  0  0  0  0  0
   -5.4672    2.1321    1.5039 H   0  0  0  0  0  0  0  0  0  0  0  0
   -6.6520    3.8568    2.7866 H   0  0  0  0  0  0  0  0  0  0  0  0
   -5.3834    5.6207    3.9912 H   0  0  0  0  0  0  0  0  0  0  0  0
   -2.9053    5.6309    3.9017 H   0  0  0  0  0  0  0  0  0  0  0  0
   -1.6972    3.9166    2.6581 H   0  0  0  0  0  0  0  0  0  0  0  0
   -0.6493   -1.7823   -1.6215 H   0  0  0  0  0  0  0  0  0  0  0  0
   -5.3410   -1.0964    0.5126 H   0  0  0  0  0  0  0  0  0  0  0  0
   -4.2911   -3.9699    0.3073 H   0  0  0  0  0  0  0  0  0  0  0  0
   -4.3732   -2.9804    1.7670 H   0  0  0  0  0  0  0  0  0  0  0  0
   -5.8652   -3.4969    0.9634 H   0  0  0  0  0  0  0  0  0  0  0  0
   -5.5727   -1.1580   -1.9635 H   0  0  0  0  0  0  0  0  0  0  0  0
   -6.6232   -2.3491   -1.1803 H   0  0  0  0  0  0  0  0  0  0  0  0
   -5.1304   -2.8692   -1.9773 H   0  0  0  0  0  0  0  0  0  0  0  0
    3.0233    1.6396   -1.5843 H   0  0  0  0  0  0  0  0  0  0  0  0
    6.7080    2.9405   -1.8715 H   0  0  0  0  0  0  0  0  0  0  0  0
    6.1974    2.0125   -0.4538 H   0  0  0  0  0  0  0  0  0  0  0  0
    7.3964    1.3334   -1.6094 H   0  0  0  0  0  0  0  0  0  0  0  0
    6.2572   -2.5023   -3.2296 H   0  0  0  0  0  0  0  0  0  0  0  0
    6.2925   -0.7897   -3.7732 H   0  0  0  0  0  0  0  0  0  0  0  0
    7.7932   -1.6196   -3.3326 H   0  0  0  0  0  0  0  0  0  0  0  0
  1  2  1  0
  2  3  1  0
  3  4  2  0
  4  5  1  0
  5  6  1  0
  6  7  1  0
  7  8  2  0
  7  9  1  0
  9 10  2  0
 10 11  1  0
 11 12  1  0
 12 13  2  0
 13 14  1  0
 14 15  2  0
 15 16  1  0
 16 17  2  0
 11 18  2  0
 18 19  1  0
 19 20  2  0
 20 21  1  0
 21 22  2  0
 22 23  1  0
 23 24  1  0
 24 25  1  0
 24 26  1  0
  5 27  2  0
 27 28  1  0
 28 29  1  0
 29 30  1  0
 28 31  2  0
 31 32  1  0
 32 33  1  0
 31  3  1  0
 20  9  1  0
 17 12  1  0
 23 19  1  0
  1 34  1  0
  1 35  1  0
  1 36  1  0
  4 37  1  0
  6 38  1  0
 10 39  1  0
 13 40  1  0
 14 41  1  0
 15 42  1  0
 16 43  1  0
 17 44  1  0
 21 45  1  0
 24 46  1  0
 25 47  1  0
 25 48  1  0
 25 49  1  0
 26 50  1  0
 26 51  1  0
 26 52  1  0
 27 53  1  0
 30 54  1  0
 30 55  1  0
 30 56  1  0
 33 57  1  0
 33 58  1  0
 33 59  1  0
M  END
$$$$
