
     RDKit          3D

 50 53  0  0  0  0  0  0  0  0999 V2000
    0.3971    2.5239    1.4990 C   0  0  0  0  0  0  0  0  0  0  0  0
    0.8917    1.6343    0.5050 O   0  0  0  0  0  0  0  0  0  0  0  0
    2.0805    1.9742   -0.0982 C   0  0  0  0  0  0  0  0  0  0  0  0
    2.8191    3.1263    0.1988 C   0  0  0  0  0  0  0  0  0  0  0  0
    4.0112    3.3937   -0.4753 C   0  0  0  0  0  0  0  0  0  0  0  0
    4.4722    2.5124   -1.4470 C   0  0  0  0  0  0  0  0  0  0  0  0
    3.7455    1.3584   -1.7490 C   0  0  0  0  0  0  0  0  0  0  0  0
    2.5492    1.0749   -1.0814 C   0  0  0  0  0  0  0  0  0  0  0  0
    1.7736   -0.0817   -1.3296 N   0  0  0  0  0  0  0  0  0  0  0  0
    1.9827   -1.0766   -2.2621 C   0  0  0  0  0  0  0  0  0  0  0  0
    2.9047   -1.0823   -3.0724 O   0  0  0  0  0  0  0  0  0  0  0  0
    1.0072   -2.1480   -2.2267 C   0  0  0  0  0  0  0  0  0  0  0  0
   -0.1051   -2.3534   -1.4371 C   0  0  0  0  0  0  0  0  0  0  0  0
   -0.5440   -1.5185   -0.4029 N   0  0  0  0  0  0  0  0  0  0  0  0
   -1.8044   -1.2224   -0.4988 C   0  0  0  0  0  0  0  0  0  0  0  0
   -2.5326   -0.4013    0.5045 C   0  0  0  0  0  0  0  0  0  0  0  0
   -3.6402    0.3200    0.0244 C   0  0  0  0  0  0  0  0  0  0  0  0
   -3.9842    0.2533   -1.3001 O   0  0  0  0  0  0  0  0  0  0  0  0
   -4.3958    1.1168    0.8760 C   0  0  0  0  0  0  0  0  0  0  0  0
   -4.0536    1.1957    2.2229 C   0  0  0  0  0  0  0  0  0  0  0  0
   -2.9633    0.4793    2.7386 C   0  0  0  0  0  0  0  0  0  0  0  0
   -2.6607    0.5826    4.1072 C   0  0  0  0  0  0  0  0  0  0  0  0
   -1.5951   -0.1195    4.6646 C   0  0  0  0  0  0  0  0  0  0  0  0
   -0.8220   -0.9408    3.8595 C   0  0  0  0  0  0  0  0  0  0  0  0
   -1.1118   -1.0548    2.4968 C   0  0  0  0  0  0  0  0  0  0  0  0
   -2.1778   -0.3438    1.8866 C   0  0  0  0  0  0  0  0  0  0  0  0
   -0.6344   -3.6020   -1.8054 C   0  0  0  0  0  0  0  0  0  0  0  0
    0.0440   -4.1480   -2.8144 N   0  0  0  0  0  0  0  0  0  0  0  0
    1.0318   -3.2537   -3.0535 N   0  0  0  0  0  0  0  0  0  0  0  0
    1.9880   -3.5482   -4.0981 C   0  0  0  0  0  0  0  0  0  0  0  0
    1.0770    2.5698    2.3558 H   0  0  0  0  0  0  0  0  0  0  0  0
    0.2086    3.5195    1.0827 H   0  0  0  0  0  0  0  0  0  0  0  0
   -0.5594    2.1361    1.8550 H   0  0  0  0  0  0  0  0  0  0  0  0
    2.4923    3.8412    0.9466 H   0  0  0  0  0  0  0  0  0  0  0  0
    4.5797    4.2903   -0.2417 H   0  0  0  0  0  0  0  0  0  0  0  0
    5.4013    2.7169   -1.9736 H   0  0  0  0  0  0  0  0  0  0  0  0
    4.1467    0.6980   -2.5099 H   0  0  0  0  0  0  0  0  0  0  0  0
    0.9554   -0.1837   -0.7272 H   0  0  0  0  0  0  0  0  0  0  0  0
   -2.4087   -1.5560   -1.3653 H   0  0  0  0  0  0  0  0  0  0  0  0
   -4.7270    0.8557   -1.4745 H   0  0  0  0  0  0  0  0  0  0  0  0
   -5.2519    1.6801    0.5162 H   0  0  0  0  0  0  0  0  0  0  0  0
   -4.6567    1.8238    2.8769 H   0  0  0  0  0  0  0  0  0  0  0  0
   -3.2614    1.2150    4.7587 H   0  0  0  0  0  0  0  0  0  0  0  0
   -1.3755   -0.0295    5.7249 H   0  0  0  0  0  0  0  0  0  0  0  0
    0.0098   -1.4987    4.2818 H   0  0  0  0  0  0  0  0  0  0  0  0
   -0.4777   -1.7198    1.9159 H   0  0  0  0  0  0  0  0  0  0  0  0
   -1.4796   -4.1325   -1.3883 H   0  0  0  0  0  0  0  0  0  0  0  0
    1.7137   -4.4879   -4.5865 H   0  0  0  0  0  0  0  0  0  0  0  0
    2.9780   -3.6489   -3.6461 H   0  0  0  0  0  0  0  0  0  0  0  0
    1.9621   -2.7402   -4.8329 H   0  0  0  0  0  0  0  0  0  0  0  0
  1  2  1  0
  2  3  1  0
  3  4  2  0
  4  5  1  0
  5  6  2  0
  6  7  1  0
  7  8  2  0
  8  9  1  0
  9 10  1  0
 10 11  2  0
 10 12  1  0
 12 13  2  0
 13 14  1  0
 14 15  2  3
 15 16  1  0
 16 17  2  0
 17 18  1  0
 17 19  1  0
 19 20  2  0
 20 21  1  0
 21 22  2  0
 22 23  1  0
 23 24  2  0
 24 25  1  0
 25 26  2  0
 13 27  1  0
 27 28  2  0
 28 29  1  0
 29 30  1  0
  8  3  1  0
 29 12  1  0
 26 16  1  0
 26 21  1  0
  1 31  1  0
  1 32  1  0
  1 33  1  0
  4 34  1  0
  5 35  1  0
  6 36  1  0
  7 37  1  0
  9 38  1  0
 15 39  1  0
 18 40  1  0
 19 41  1  0
 20 42  1  0
 22 43  1  0
 23 44  1  0
 24 45  1  0
 25 46  1  0
 27 47  1  0
 30 48  1  0
 30 49  1  0
 30 50  1  0
M  END
$$$$
