
     RDKit          3D

 36 38  0  0  0  0  0  0  0  0999 V2000
   -4.4146    2.2692   -0.4239 C   0  0  0  0  0  0  0  0  0  0  0  0
   -3.4253    1.2380   -0.1959 N   0  0  0  0  0  0  0  0  0  0  0  0
   -2.0694    1.4217   -0.2897 C   0  0  0  0  0  0  0  0  0  0  0  0
   -1.4542    0.2215   -0.0047 C   0  0  0  0  0  0  0  0  0  0  0  0
   -0.0447   -0.0263    0.0149 C   0  0  0  0  0  0  0  0  0  0  0  0
    0.9182    0.8500   -0.3198 C   0  0  0  0  0  0  0  0  0  0  0  0
    2.3500    0.5328   -0.2839 C   0  0  0  0  0  0  0  0  0  0  0  0
    3.1697    0.9629   -1.3254 C   0  0  0  0  0  0  0  0  0  0  0  0
    4.5317    0.6850   -1.2913 C   0  0  0  0  0  0  0  0  0  0  0  0
    5.0704    0.0079   -0.2528 N   0  0  0  0  0  4  0  0  0  0  0  0
    6.5173   -0.2667   -0.2336 C   0  0  0  0  0  0  0  0  0  0  0  0
    4.2997   -0.3967    0.7812 C   0  0  0  0  0  0  0  0  0  0  0  0
    2.9328   -0.1429    0.7875 C   0  0  0  0  0  0  0  0  0  0  0  0
   -2.4853   -0.7309    0.2752 C   0  0  0  0  0  0  0  0  0  0  0  0
   -2.4951   -2.0995    0.6248 C   0  0  0  0  0  0  0  0  0  0  0  0
   -3.7163   -2.7466    0.8338 C   0  0  0  0  0  0  0  0  0  0  0  0
   -3.7210   -4.4154    1.2608 Cl  0  0  0  0  0  0  0  0  0  0  0  0
   -4.9215   -2.0669    0.7030 C   0  0  0  0  0  0  0  0  0  0  0  0
   -4.9403   -0.7128    0.3571 C   0  0  0  0  0  0  0  0  0  0  0  0
   -3.7105   -0.0666    0.1482 C   0  0  0  0  0  0  0  0  0  0  0  0
   -3.9145    3.2061   -0.6821 H   0  0  0  0  0  0  0  0  0  0  0  0
   -5.0581    1.9539   -1.2492 H   0  0  0  0  0  0  0  0  0  0  0  0
   -4.9946    2.4000    0.4932 H   0  0  0  0  0  0  0  0  0  0  0  0
   -1.6664    2.3919   -0.5477 H   0  0  0  0  0  0  0  0  0  0  0  0
    0.2463   -1.0293    0.3193 H   0  0  0  0  0  0  0  0  0  0  0  0
    0.6598    1.8494   -0.6624 H   0  0  0  0  0  0  0  0  0  0  0  0
    2.7536    1.5061   -2.1723 H   0  0  0  0  0  0  0  0  0  0  0  0
    5.1981    1.0020   -2.0887 H   0  0  0  0  0  0  0  0  0  0  0  0
    6.6978   -1.1982    0.3090 H   0  0  0  0  0  0  0  0  0  0  0  0
    7.0035    0.5755    0.2649 H   0  0  0  0  0  0  0  0  0  0  0  0
    6.8759   -0.3716   -1.2608 H   0  0  0  0  0  0  0  0  0  0  0  0
    4.7862   -0.9177    1.6013 H   0  0  0  0  0  0  0  0  0  0  0  0
    2.3336   -0.4654    1.6372 H   0  0  0  0  0  0  0  0  0  0  0  0
   -1.5655   -2.6485    0.7301 H   0  0  0  0  0  0  0  0  0  0  0  0
   -5.8628   -2.5860    0.8692 H   0  0  0  0  0  0  0  0  0  0  0  0
   -5.8844   -0.1859    0.2556 H   0  0  0  0  0  0  0  0  0  0  0  0
  1  2  1  0
  2  3  1  0
  3  4  2  0
  4  5  1  0
  5  6  2  3
  6  7  1  0
  7  8  2  0
  8  9  1  0
  9 10  2  0
 10 11  1  0
 10 12  1  0
 12 13  2  0
  4 14  1  0
 14 15  2  0
 15 16  1  0
 16 17  1  0
 16 18  2  0
 18 19  1  0
 19 20  2  0
 20  2  1  0
 13  7  1  0
 20 14  1  0
  1 21  1  0
  1 22  1  0
  1 23  1  0
  3 24  1  0
  5 25  1  0
  6 26  1  0
  8 27  1  0
  9 28  1  0
 11 29  1  0
 11 30  1  0
 11 31  1  0
 12 32  1  0
 13 33  1  0
 15 34  1  0
 18 35  1  0
 19 36  1  0
M  CHG  1  10   1
M  END
$$$$
