
     RDKit          3D

 50 53  0  0  0  0  0  0  0  0999 V2000
    5.8683   -0.6615    0.9237 C   0  0  0  0  0  0  0  0  0  0  0  0
    4.4529   -0.3620    1.2102 C   0  0  0  0  0  0  0  0  0  0  0  0
    3.5437   -0.8569    2.1192 C   0  0  0  0  0  0  0  0  0  0  0  0
    2.3307   -0.1685    1.8841 C   0  0  0  0  0  0  0  0  0  0  0  0
    2.5700    0.6971    0.8369 C   0  0  0  0  0  0  0  0  0  0  0  0
    1.7248    1.6704    0.1012 C   0  0  0  0  0  0  0  0  0  0  0  0
    0.6310    0.9915   -0.6022 N   0  0  0  0  0  0  0  0  0  0  0  0
    0.9144    0.4756   -1.9441 C   0  0  0  0  0  0  0  0  0  0  0  0
    1.8130   -0.7297   -1.9860 C   0  0  0  0  0  0  0  0  0  0  0  0
    3.0228   -0.6978   -2.6895 C   0  0  0  0  0  0  0  0  0  0  0  0
    3.8296   -1.8310   -2.7397 C   0  0  0  0  0  0  0  0  0  0  0  0
    3.3955   -2.9729   -2.0909 C   0  0  0  0  0  0  0  0  0  0  0  0
    2.2339   -3.0504   -1.4111 N   0  0  0  0  0  0  0  0  0  0  0  0
    1.4761   -1.9293   -1.3641 C   0  0  0  0  0  0  0  0  0  0  0  0
   -0.5856    0.8597    0.0648 C   0  0  0  0  0  0  0  0  0  0  0  0
   -0.7434    1.3086    1.2038 O   0  0  0  0  0  0  0  0  0  0  0  0
   -1.7478    0.1945   -0.6936 C   0  0  0  0  0  0  0  0  0  0  0  0
   -2.8823   -0.0897    0.1761 N   0  0  0  0  0  0  0  0  0  0  0  0
   -2.8917   -1.3069    0.8432 C   0  0  0  0  0  0  0  0  0  0  0  0
   -2.0298   -2.1723    0.6829 O   0  0  0  0  0  0  0  0  0  0  0  0
   -4.0103   -1.4707    1.8639 C   0  0  0  0  0  0  0  0  0  0  0  0
   -5.2381   -0.8137    1.6080 O   0  0  0  0  0  0  0  0  0  0  0  0
   -5.0621    0.4524    1.1171 C   0  0  0  0  0  0  0  0  0  0  0  0
   -6.1336    1.3272    1.3098 C   0  0  0  0  0  0  0  0  0  0  0  0
   -6.0633    2.6322    0.8306 C   0  0  0  0  0  0  0  0  0  0  0  0
   -4.9242    3.0567    0.1523 C   0  0  0  0  0  0  0  0  0  0  0  0
   -3.8594    2.1738   -0.0600 C   0  0  0  0  0  0  0  0  0  0  0  0
   -3.9178    0.8554    0.4115 C   0  0  0  0  0  0  0  0  0  0  0  0
    3.8703    0.5943    0.4348 O   0  0  0  0  0  0  0  0  0  0  0  0
    6.2494   -1.4380    1.5939 H   0  0  0  0  0  0  0  0  0  0  0  0
    5.9842   -1.0133   -0.1060 H   0  0  0  0  0  0  0  0  0  0  0  0
    6.4835    0.2340    1.0546 H   0  0  0  0  0  0  0  0  0  0  0  0
    3.7292   -1.6275    2.8541 H   0  0  0  0  0  0  0  0  0  0  0  0
    1.3870   -0.2953    2.3977 H   0  0  0  0  0  0  0  0  0  0  0  0
    1.3208    2.4020    0.8099 H   0  0  0  0  0  0  0  0  0  0  0  0
    2.3136    2.2357   -0.6302 H   0  0  0  0  0  0  0  0  0  0  0  0
    1.3593    1.3028   -2.5117 H   0  0  0  0  0  0  0  0  0  0  0  0
   -0.0093    0.2305   -2.4752 H   0  0  0  0  0  0  0  0  0  0  0  0
    3.3513    0.2087   -3.1913 H   0  0  0  0  0  0  0  0  0  0  0  0
    4.7747   -1.8225   -3.2701 H   0  0  0  0  0  0  0  0  0  0  0  0
    3.9876   -3.8831   -2.1001 H   0  0  0  0  0  0  0  0  0  0  0  0
    0.5623   -2.0380   -0.7853 H   0  0  0  0  0  0  0  0  0  0  0  0
   -1.3987   -0.7522   -1.1161 H   0  0  0  0  0  0  0  0  0  0  0  0
   -2.0580    0.8274   -1.5307 H   0  0  0  0  0  0  0  0  0  0  0  0
   -4.2336   -2.5410    1.9335 H   0  0  0  0  0  0  0  0  0  0  0  0
   -3.6296   -1.1495    2.8413 H   0  0  0  0  0  0  0  0  0  0  0  0
   -7.0198    0.9894    1.8406 H   0  0  0  0  0  0  0  0  0  0  0  0
   -6.8923    3.3166    0.9905 H   0  0  0  0  0  0  0  0  0  0  0  0
   -4.8610    4.0791   -0.2126 H   0  0  0  0  0  0  0  0  0  0  0  0
   -2.9881    2.5581   -0.5795 H   0  0  0  0  0  0  0  0  0  0  0  0
  1  2  1  0
  2  3  2  0
  3  4  1  0
  4  5  2  0
  5  6  1  0
  6  7  1  0
  7  8  1  0
  8  9  1  0
  9 10  2  0
 10 11  1  0
 11 12  2  0
 12 13  1  0
 13 14  2  0
  7 15  1  0
 15 16  2  0
 15 17  1  0
 17 18  1  0
 18 19  1  0
 19 20  2  0
 19 21  1  0
 21 22  1  0
 22 23  1  0
 23 24  2  0
 24 25  1  0
 25 26  2  0
 26 27  1  0
 27 28  2  0
  5 29  1  0
 29  2  1  0
 14  9  1  0
 28 18  1  0
 28 23  1  0
  1 30  1  0
  1 31  1  0
  1 32  1  0
  3 33  1  0
  4 34  1  0
  6 35  1  0
  6 36  1  0
  8 37  1  0
  8 38  1  0
 10 39  1  0
 11 40  1  0
 12 41  1  0
 14 42  1  0
 17 43  1  0
 17 44  1  0
 21 45  1  0
 21 46  1  0
 24 47  1  0
 25 48  1  0
 26 49  1  0
 27 50  1  0
M  END
$$$$
