
     RDKit          3D

 42 44  0  0  0  0  0  0  0  0999 V2000
   -6.9847   -0.0539   -1.3268 C   0  0  0  0  0  0  0  0  0  0  0  0
   -5.6096   -0.0026   -0.7287 C   0  0  0  0  0  0  0  0  0  0  0  0
   -4.8608    1.1777   -0.7774 C   0  0  0  0  0  0  0  0  0  0  0  0
   -3.5612    1.2350   -0.2482 C   0  0  0  0  0  0  0  0  0  0  0  0
   -2.7980    2.5313   -0.3251 C   0  0  0  0  0  0  0  0  0  0  0  0
   -3.0014    0.0768    0.3347 C   0  0  0  0  0  0  0  0  0  0  0  0
   -1.6630    0.1280    0.9026 C   0  0  0  0  0  0  0  0  0  0  0  0
   -1.4276    0.2999    2.2518 C   0  0  0  0  0  0  0  0  0  0  0  0
    0.2622    0.3131    2.5330 S   0  0  0  0  0  0  0  0  0  0  0  0
    0.5358    0.0993    0.8654 C   0  0  0  0  0  0  0  0  0  0  0  0
    1.7862    0.0141    0.3089 N   0  0  0  0  0  0  0  0  0  0  0  0
    2.9893    0.0798    0.9646 C   0  0  0  0  0  0  0  0  0  0  0  0
    3.1842    0.2242    2.1638 O   0  0  0  0  0  0  0  0  0  0  0  0
    4.1354   -0.0502    0.0171 C   0  0  0  0  0  0  0  0  0  0  0  0
    5.3912   -0.0140    0.4902 C   0  0  0  0  0  0  0  0  0  0  0  0
    6.5650   -0.1280   -0.3179 C   0  0  0  0  0  0  0  0  0  0  0  0
    7.8778   -0.0990    0.1312 C   0  0  0  0  0  0  0  0  0  0  0  0
    8.8397   -0.2357   -0.9107 C   0  0  0  0  0  0  0  0  0  0  0  0
    8.2424   -0.3658   -2.1411 C   0  0  0  0  0  0  0  0  0  0  0  0
    6.5407   -0.3246   -2.0317 S   0  0  0  0  0  0  0  0  0  0  0  0
   -0.5351    0.0186    0.1109 N   0  0  0  0  0  0  0  0  0  0  0  0
   -3.7358   -1.1295    0.3578 C   0  0  0  0  0  0  0  0  0  0  0  0
   -3.1679   -2.3962    0.9418 C   0  0  0  0  0  0  0  0  0  0  0  0
   -5.0361   -1.1508   -0.1727 C   0  0  0  0  0  0  0  0  0  0  0  0
   -7.6102   -0.7869   -0.8067 H   0  0  0  0  0  0  0  0  0  0  0  0
   -6.9226   -0.3283   -2.3842 H   0  0  0  0  0  0  0  0  0  0  0  0
   -7.4843    0.9167   -1.2413 H   0  0  0  0  0  0  0  0  0  0  0  0
   -5.2956    2.0652   -1.2341 H   0  0  0  0  0  0  0  0  0  0  0  0
   -1.8900    2.4054   -0.9234 H   0  0  0  0  0  0  0  0  0  0  0  0
   -2.5331    2.8807    0.6779 H   0  0  0  0  0  0  0  0  0  0  0  0
   -3.3938    3.3200   -0.7975 H   0  0  0  0  0  0  0  0  0  0  0  0
   -2.1400    0.4138    3.0562 H   0  0  0  0  0  0  0  0  0  0  0  0
    1.7500   -0.1105   -0.6921 H   0  0  0  0  0  0  0  0  0  0  0  0
    3.9097   -0.1705   -1.0336 H   0  0  0  0  0  0  0  0  0  0  0  0
    5.5497    0.1089    1.5614 H   0  0  0  0  0  0  0  0  0  0  0  0
    8.1396    0.0164    1.1769 H   0  0  0  0  0  0  0  0  0  0  0  0
    9.9126   -0.2377   -0.7625 H   0  0  0  0  0  0  0  0  0  0  0  0
    8.7245   -0.4833   -3.1021 H   0  0  0  0  0  0  0  0  0  0  0  0
   -2.1927   -2.6234    0.4987 H   0  0  0  0  0  0  0  0  0  0  0  0
   -3.8178   -3.2552    0.7425 H   0  0  0  0  0  0  0  0  0  0  0  0
   -3.0661   -2.3019    2.0274 H   0  0  0  0  0  0  0  0  0  0  0  0
   -5.6087   -2.0769   -0.1572 H   0  0  0  0  0  0  0  0  0  0  0  0
  1  2  1  0
  2  3  2  0
  3  4  1  0
  4  5  1  0
  4  6  2  0
  6  7  1  0
  7  8  2  0
  8  9  1  0
  9 10  1  0
 10 11  1  0
 11 12  1  0
 12 13  2  0
 12 14  1  0
 14 15  2  3
 15 16  1  0
 16 17  2  0
 17 18  1  0
 18 19  2  0
 19 20  1  0
 10 21  2  0
  6 22  1  0
 22 23  1  0
 22 24  2  0
 24  2  1  0
 21  7  1  0
 20 16  1  0
  1 25  1  0
  1 26  1  0
  1 27  1  0
  3 28  1  0
  5 29  1  0
  5 30  1  0
  5 31  1  0
  8 32  1  0
 11 33  1  0
 14 34  1  0
 15 35  1  0
 17 36  1  0
 18 37  1  0
 19 38  1  0
 23 39  1  0
 23 40  1  0
 23 41  1  0
 24 42  1  0
M  END
$$$$
