
     RDKit          3D

 46 48  0  0  0  0  0  0  0  0999 V2000
   -3.9408    3.4150   -0.5662 C   0  0  0  0  0  0  0  0  0  0  0  0
   -3.6435    1.9705   -0.2535 C   0  0  0  0  0  0  0  0  0  0  0  0
   -4.6737    1.0961   -0.2864 C   0  0  0  0  0  0  0  0  0  0  0  0
   -4.6148   -0.3433   -0.0155 C   0  0  0  0  0  0  0  0  0  0  0  0
   -4.5771   -0.8157    1.3006 C   0  0  0  0  0  0  0  0  0  0  0  0
   -4.5190   -2.1875    1.5515 C   0  0  0  0  0  0  0  0  0  0  0  0
   -4.4991   -3.0907    0.4893 C   0  0  0  0  0  0  0  0  0  0  0  0
   -4.5377   -2.6247   -0.8240 C   0  0  0  0  0  0  0  0  0  0  0  0
   -4.5963   -1.2531   -1.0772 C   0  0  0  0  0  0  0  0  0  0  0  0
   -2.2674    1.5441    0.0227 C   0  0  0  0  0  0  0  0  0  0  0  0
   -1.1417    2.2341    0.2679 C   0  0  0  0  0  0  0  0  0  0  0  0
   -0.8926    3.9351    0.3937 S   0  0  0  0  0  0  0  0  0  0  0  0
    0.8225    3.7774    0.7228 C   0  0  0  0  0  0  0  0  0  0  0  0
    1.8467    5.0630    0.9960 S   0  0  0  0  0  0  0  0  0  0  0  0
    1.1476    2.4411    0.7471 N   0  0  0  0  0  0  0  0  0  0  0  0
    2.5849    1.9693    0.8864 N   0  0  0  0  0  0  0  0  0  0  0  0
    3.3512    1.6856   -0.6140 S   0  0  0  0  0  6  0  0  0  0  0  0
    2.3506    1.7087   -1.6593 O   0  0  0  0  0  0  0  0  0  0  0  0
    4.4896    2.5784   -0.6444 O   0  0  0  0  0  0  0  0  0  0  0  0
    3.9442    0.0300   -0.4140 C   0  0  0  0  0  0  0  0  0  0  0  0
    3.0990   -1.0443   -0.6977 C   0  0  0  0  0  0  0  0  0  0  0  0
    3.5760   -2.3498   -0.5690 C   0  0  0  0  0  0  0  0  0  0  0  0
    4.8954   -2.5872   -0.1644 C   0  0  0  0  0  0  0  0  0  0  0  0
    5.4212   -3.9880   -0.0445 C   0  0  0  0  0  0  0  0  0  0  0  0
    5.7400   -1.4991    0.0963 C   0  0  0  0  0  0  0  0  0  0  0  0
    5.2689   -0.1911   -0.0289 C   0  0  0  0  0  0  0  0  0  0  0  0
    0.1489    1.5115    0.5033 C   0  0  0  0  0  0  0  0  0  0  0  0
    0.2754    0.2943    0.4863 O   0  0  0  0  0  0  0  0  0  0  0  0
   -3.3057    3.7791   -1.3807 H   0  0  0  0  0  0  0  0  0  0  0  0
   -3.8065    4.0417    0.3206 H   0  0  0  0  0  0  0  0  0  0  0  0
   -4.9757    3.5606   -0.8958 H   0  0  0  0  0  0  0  0  0  0  0  0
   -5.6781    1.4422   -0.5249 H   0  0  0  0  0  0  0  0  0  0  0  0
   -4.5913   -0.1192    2.1356 H   0  0  0  0  0  0  0  0  0  0  0  0
   -4.4878   -2.5510    2.5750 H   0  0  0  0  0  0  0  0  0  0  0  0
   -4.4523   -4.1584    0.6848 H   0  0  0  0  0  0  0  0  0  0  0  0
   -4.5196   -3.3294   -1.6512 H   0  0  0  0  0  0  0  0  0  0  0  0
   -4.6218   -0.9009   -2.1053 H   0  0  0  0  0  0  0  0  0  0  0  0
   -2.1480    0.4567    0.0228 H   0  0  0  0  0  0  0  0  0  0  0  0
    3.1678    2.6273    1.4156 H   0  0  0  0  0  0  0  0  0  0  0  0
    2.0710   -0.8783   -1.0143 H   0  0  0  0  0  0  0  0  0  0  0  0
    2.9083   -3.1801   -0.7906 H   0  0  0  0  0  0  0  0  0  0  0  0
    5.9111   -4.1286    0.9246 H   0  0  0  0  0  0  0  0  0  0  0  0
    6.1411   -4.1881   -0.8440 H   0  0  0  0  0  0  0  0  0  0  0  0
    4.6150   -4.7256   -0.1168 H   0  0  0  0  0  0  0  0  0  0  0  0
    6.7730   -1.6680    0.3930 H   0  0  0  0  0  0  0  0  0  0  0  0
    5.9409    0.6404    0.1682 H   0  0  0  0  0  0  0  0  0  0  0  0
  1  2  1  0
  2  3  2  3
  3  4  1  0
  4  5  2  0
  5  6  1  0
  6  7  2  0
  7  8  1  0
  8  9  2  0
  2 10  1  0
 10 11  2  3
 11 12  1  0
 12 13  1  0
 13 14  2  0
 13 15  1  0
 15 16  1  0
 16 17  1  0
 17 18  2  0
 17 19  2  0
 17 20  1  0
 20 21  2  0
 21 22  1  0
 22 23  2  0
 23 24  1  0
 23 25  1  0
 25 26  2  0
 15 27  1  0
 27 28  2  0
  9  4  1  0
 27 11  1  0
 26 20  1  0
  1 29  1  0
  1 30  1  0
  1 31  1  0
  3 32  1  0
  5 33  1  0
  6 34  1  0
  7 35  1  0
  8 36  1  0
  9 37  1  0
 10 38  1  0
 16 39  1  0
 21 40  1  0
 22 41  1  0
 24 42  1  0
 24 43  1  0
 24 44  1  0
 25 45  1  0
 26 46  1  0
M  END
$$$$
