
     RDKit          3D

 31 31  0  0  0  0  0  0  0  0999 V2000
    5.2322    0.2029   -1.4622 N   0  0  0  0  0  0  0  0  0  0  0  0
    4.1458   -0.4777   -1.0077 C   0  0  0  0  0  0  0  0  0  0  0  0
    4.3396   -1.9179   -0.1945 S   0  0  0  0  0  0  0  0  0  0  0  0
    2.9543    0.1375   -1.3063 N   0  0  0  0  0  0  0  0  0  0  0  0
    1.7603   -0.3305   -0.7233 N   0  0  0  0  0  0  0  0  0  0  0  0
    0.9143    0.6208   -0.1815 C   0  0  0  0  0  0  0  0  0  0  0  0
    1.0800    1.8252   -0.3618 O   0  0  0  0  0  0  0  0  0  0  0  0
   -0.2292    0.0293    0.6397 C   0  0  0  0  0  0  0  0  0  0  0  0
   -0.9586    1.1233    1.4326 C   0  0  0  0  0  0  0  0  0  0  0  0
   -2.1342    0.5624    2.2235 C   0  0  0  0  0  0  0  0  0  0  0  0
   -3.1189   -0.1657    1.3188 C   0  0  0  0  0  0  0  0  0  0  0  0
   -2.4405   -1.2703    0.5124 C   0  0  0  0  0  0  0  0  0  0  0  0
   -1.1763   -0.8186   -0.2297 C   0  0  0  0  0  0  0  0  0  0  0  0
   -1.5071   -0.1748   -1.5613 C   0  0  0  0  0  0  0  0  0  0  0  0
   -1.2160   -0.6323   -2.6546 O   0  0  0  0  0  0  0  0  0  0  0  0
   -2.1716    0.9859   -1.4645 O   0  0  0  0  0  0  0  0  0  0  0  0
    6.1277   -0.2657   -1.3829 H   0  0  0  0  0  0  0  0  0  0  0  0
    5.1315    0.8292   -2.2500 H   0  0  0  0  0  0  0  0  0  0  0  0
    2.9655    1.1476   -1.4539 H   0  0  0  0  0  0  0  0  0  0  0  0
    1.8010   -1.2749   -0.3436 H   0  0  0  0  0  0  0  0  0  0  0  0
    0.2334   -0.6399    1.3802 H   0  0  0  0  0  0  0  0  0  0  0  0
   -0.2560    1.6038    2.1253 H   0  0  0  0  0  0  0  0  0  0  0  0
   -1.3135    1.9185    0.7664 H   0  0  0  0  0  0  0  0  0  0  0  0
   -1.7639   -0.1260    2.9931 H   0  0  0  0  0  0  0  0  0  0  0  0
   -2.6481    1.3772    2.7460 H   0  0  0  0  0  0  0  0  0  0  0  0
   -3.9204   -0.6009    1.9270 H   0  0  0  0  0  0  0  0  0  0  0  0
   -3.5983    0.5521    0.6439 H   0  0  0  0  0  0  0  0  0  0  0  0
   -3.1647   -1.7000   -0.1904 H   0  0  0  0  0  0  0  0  0  0  0  0
   -2.1629   -2.0758    1.2050 H   0  0  0  0  0  0  0  0  0  0  0  0
   -0.6359   -1.7368   -0.5047 H   0  0  0  0  0  0  0  0  0  0  0  0
   -2.2694    1.2919   -2.3910 H   0  0  0  0  0  0  0  0  0  0  0  0
  1  2  1  0
  2  3  2  0
  2  4  1  0
  4  5  1  0
  5  6  1  0
  6  7  2  0
  6  8  1  0
  8  9  1  0
  9 10  1  0
 10 11  1  0
 11 12  1  0
 12 13  1  0
 13 14  1  0
 14 15  2  0
 14 16  1  0
 13  8  1  0
  1 17  1  0
  1 18  1  0
  4 19  1  0
  5 20  1  0
  8 21  1  0
  9 22  1  0
  9 23  1  0
 10 24  1  0
 10 25  1  0
 11 26  1  0
 11 27  1  0
 12 28  1  0
 12 29  1  0
 13 30  1  0
 16 31  1  0
M  END
$$$$
