
     RDKit          3D

 49 51  0  0  0  0  0  0  0  0999 V2000
   -3.4718   -1.6243    3.3565 C   0  0  0  0  0  0  0  0  0  0  0  0
   -3.1637   -1.3560    1.8903 C   0  0  0  0  0  0  0  0  0  0  0  0
   -2.2825   -0.1116    1.6689 C   0  0  0  0  0  0  0  0  0  0  0  0
   -2.9492    1.1951    2.1125 C   0  0  0  0  0  0  0  0  0  0  0  0
   -1.8231   -0.0363    0.2541 N   0  0  0  0  0  0  0  0  0  0  0  0
   -0.4857   -0.2325   -0.1387 C   0  0  0  0  0  0  0  0  0  0  0  0
   -0.1630   -0.1696   -1.3254 O   0  0  0  0  0  0  0  0  0  0  0  0
    0.5311   -0.5164    0.9451 C   0  0  0  0  0  0  0  0  0  0  0  0
    1.8479   -0.7566    0.3979 N   0  0  0  0  0  0  0  0  0  0  0  0
    2.2651   -1.9994    0.1011 N   0  0  0  0  0  0  0  0  0  0  0  0
    3.5460   -1.8587   -0.2055 N   0  0  0  0  0  0  0  0  0  0  0  0
    3.8594   -0.5300   -0.0247 C   0  0  0  0  0  0  0  0  0  0  0  0
    5.1945    0.0067   -0.2578 C   0  0  0  0  0  0  0  0  0  0  0  0
    6.2330   -0.8344   -0.6915 C   0  0  0  0  0  0  0  0  0  0  0  0
    7.5145   -0.3232   -0.9153 C   0  0  0  0  0  0  0  0  0  0  0  0
    7.7599    1.0284   -0.7069 C   0  0  0  0  0  0  0  0  0  0  0  0
    8.9882    1.5172   -0.9209 F   0  0  0  0  0  0  0  0  0  0  0  0
    6.7489    1.8802   -0.2796 C   0  0  0  0  0  0  0  0  0  0  0  0
    5.4671    1.3704   -0.0554 C   0  0  0  0  0  0  0  0  0  0  0  0
    2.8099    0.1895    0.4140 N   0  0  0  0  0  0  0  0  0  0  0  0
   -2.8471    0.2042   -0.7886 C   0  0  0  0  0  0  0  0  0  0  0  0
   -2.6433    1.4991   -1.5936 C   0  0  0  0  0  0  0  0  0  0  0  0
   -3.7506    1.5188   -2.6417 C   0  0  0  0  0  0  0  0  0  0  0  0
   -4.0541   -0.1924   -3.0638 S   0  0  0  0  0  6  0  0  0  0  0  0
   -3.5030   -0.4663   -4.3730 O   0  0  0  0  0  0  0  0  0  0  0  0
   -5.4302   -0.4996   -2.7271 O   0  0  0  0  0  0  0  0  0  0  0  0
   -3.0058   -0.9188   -1.8167 C   0  0  0  0  0  0  0  0  0  0  0  0
   -4.0882   -0.8303    3.7881 H   0  0  0  0  0  0  0  0  0  0  0  0
   -2.5517   -1.7082    3.9432 H   0  0  0  0  0  0  0  0  0  0  0  0
   -4.0239   -2.5642    3.4577 H   0  0  0  0  0  0  0  0  0  0  0  0
   -4.1087   -1.2652    1.3426 H   0  0  0  0  0  0  0  0  0  0  0  0
   -2.6502   -2.2345    1.4790 H   0  0  0  0  0  0  0  0  0  0  0  0
   -1.4092   -0.2261    2.3145 H   0  0  0  0  0  0  0  0  0  0  0  0
   -3.9287    1.3394    1.6469 H   0  0  0  0  0  0  0  0  0  0  0  0
   -3.0938    1.2127    3.1973 H   0  0  0  0  0  0  0  0  0  0  0  0
   -2.3234    2.0551    1.8497 H   0  0  0  0  0  0  0  0  0  0  0  0
    0.6067    0.3430    1.6187 H   0  0  0  0  0  0  0  0  0  0  0  0
    0.2465   -1.4127    1.5053 H   0  0  0  0  0  0  0  0  0  0  0  0
    6.0523   -1.8948   -0.8601 H   0  0  0  0  0  0  0  0  0  0  0  0
    8.3185   -0.9707   -1.2510 H   0  0  0  0  0  0  0  0  0  0  0  0
    6.9616    2.9331   -0.1248 H   0  0  0  0  0  0  0  0  0  0  0  0
    4.6801    2.0451    0.2769 H   0  0  0  0  0  0  0  0  0  0  0  0
   -3.8144    0.3039   -0.2810 H   0  0  0  0  0  0  0  0  0  0  0  0
   -1.6735    1.5142   -2.1006 H   0  0  0  0  0  0  0  0  0  0  0  0
   -2.6854    2.3876   -0.9552 H   0  0  0  0  0  0  0  0  0  0  0  0
   -3.4658    2.0761   -3.5366 H   0  0  0  0  0  0  0  0  0  0  0  0
   -4.6757    1.9288   -2.2260 H   0  0  0  0  0  0  0  0  0  0  0  0
   -3.4923   -1.8027   -1.3972 H   0  0  0  0  0  0  0  0  0  0  0  0
   -2.0735   -1.2131   -2.3017 H   0  0  0  0  0  0  0  0  0  0  0  0
  1  2  1  0
  2  3  1  0
  3  4  1  0
  3  5  1  0
  5  6  1  0
  6  7  2  0
  6  8  1  0
  8  9  1  0
  9 10  1  0
 10 11  2  0
 11 12  1  0
 12 13  1  0
 13 14  2  0
 14 15  1  0
 15 16  2  0
 16 17  1  0
 16 18  1  0
 18 19  2  0
 12 20  2  0
  5 21  1  0
 21 22  1  0
 22 23  1  0
 23 24  1  0
 24 25  2  0
 24 26  2  0
 24 27  1  0
 20  9  1  0
 27 21  1  0
 19 13  1  0
  1 28  1  0
  1 29  1  0
  1 30  1  0
  2 31  1  0
  2 32  1  0
  3 33  1  0
  4 34  1  0
  4 35  1  0
  4 36  1  0
  8 37  1  0
  8 38  1  0
 14 39  1  0
 15 40  1  0
 18 41  1  0
 19 42  1  0
 21 43  1  0
 22 44  1  0
 22 45  1  0
 23 46  1  0
 23 47  1  0
 27 48  1  0
 27 49  1  0
M  END
$$$$
