
     RDKit          3D

 40 43  0  0  0  0  0  0  0  0999 V2000
   -4.9868    1.7051    2.0070 C   0  0  0  0  0  0  0  0  0  0  0  0
   -4.7019    0.4296    2.7133 C   0  0  0  0  0  0  0  0  0  0  0  0
   -5.5124    0.0839    3.7906 N   0  0  0  0  0  0  0  0  0  0  0  0
   -5.1712   -1.0802    4.3129 N   0  0  0  0  0  0  0  0  0  0  0  0
   -3.8896   -1.7940    3.5197 S   0  0  0  0  0  0  0  0  0  0  0  0
   -3.6937   -0.4840    2.4288 C   0  0  0  0  0  0  0  0  0  0  0  0
   -2.7155   -0.4401    1.3919 C   0  0  0  0  0  0  0  0  0  0  0  0
   -2.9644    0.0231    0.1789 N   0  0  0  0  0  0  0  0  0  0  0  0
   -1.8352   -0.1446   -0.5908 N   0  0  0  0  0  0  0  0  0  0  0  0
   -0.9106   -0.6803    0.1726 C   0  0  0  0  0  0  0  0  0  0  0  0
    0.6778   -1.1390   -0.3262 S   0  0  0  0  0  0  0  0  0  0  0  0
    0.4645   -1.1225   -2.1287 C   0  0  0  0  0  0  0  0  0  0  0  0
    1.7805   -1.4639   -2.7933 C   0  0  0  0  0  0  0  0  0  0  0  0
    2.0819   -2.6314   -3.0456 O   0  0  0  0  0  0  0  0  0  0  0  0
    2.7416   -0.3735   -3.1544 C   0  0  0  0  0  0  0  0  0  0  0  0
    3.8630   -0.7130   -3.9275 C   0  0  0  0  0  0  0  0  0  0  0  0
    4.7982    0.2598   -4.2955 C   0  0  0  0  0  0  0  0  0  0  0  0
    4.6242    1.5855   -3.8915 C   0  0  0  0  0  0  0  0  0  0  0  0
    5.5810    2.5862   -4.2648 C   0  0  0  0  0  0  0  0  0  0  0  0
    6.3526    3.3995   -4.5642 N   0  0  0  0  0  0  0  0  0  0  0  0
    3.5115    1.9303   -3.1170 C   0  0  0  0  0  0  0  0  0  0  0  0
    2.5742    0.9564   -2.7481 C   0  0  0  0  0  0  0  0  0  0  0  0
   -1.3964   -0.8236    1.4436 N   0  0  0  0  0  0  0  0  0  0  0  0
   -0.6459   -1.3060    2.6280 C   0  0  0  0  0  0  0  0  0  0  0  0
    0.6201   -0.6310    3.1120 C   0  0  0  0  0  0  0  0  0  0  0  0
   -0.6203   -0.5565    3.9433 C   0  0  0  0  0  0  0  0  0  0  0  0
   -5.7298    2.2959    2.5521 H   0  0  0  0  0  0  0  0  0  0  0  0
   -4.0792    2.3100    1.9155 H   0  0  0  0  0  0  0  0  0  0  0  0
   -5.3802    1.5073    1.0052 H   0  0  0  0  0  0  0  0  0  0  0  0
    0.0856   -0.1626   -2.4905 H   0  0  0  0  0  0  0  0  0  0  0  0
   -0.2688   -1.8823   -2.4223 H   0  0  0  0  0  0  0  0  0  0  0  0
    4.0165   -1.7428   -4.2494 H   0  0  0  0  0  0  0  0  0  0  0  0
    5.6594   -0.0289   -4.8962 H   0  0  0  0  0  0  0  0  0  0  0  0
    3.3669    2.9599   -2.7915 H   0  0  0  0  0  0  0  0  0  0  0  0
    1.7337    1.2701   -2.1353 H   0  0  0  0  0  0  0  0  0  0  0  0
   -0.6548   -2.3922    2.6864 H   0  0  0  0  0  0  0  0  0  0  0  0
    0.9542    0.2811    2.6295 H   0  0  0  0  0  0  0  0  0  0  0  0
    1.4301   -1.2643    3.4582 H   0  0  0  0  0  0  0  0  0  0  0  0
   -1.1111    0.4079    4.0192 H   0  0  0  0  0  0  0  0  0  0  0  0
   -0.6497   -1.1350    4.8608 H   0  0  0  0  0  0  0  0  0  0  0  0
  1  2  1  0
  2  3  1  0
  3  4  2  0
  4  5  1  0
  5  6  1  0
  6  7  1  0
  7  8  2  0
  8  9  1  0
  9 10  2  0
 10 11  1  0
 11 12  1  0
 12 13  1  0
 13 14  2  0
 13 15  1  0
 15 16  2  0
 16 17  1  0
 17 18  2  0
 18 19  1  0
 19 20  3  0
 18 21  1  0
 21 22  2  0
 10 23  1  0
 23 24  1  0
 24 25  1  0
 25 26  1  0
  6  2  2  0
 23  7  1  0
 26 24  1  0
 22 15  1  0
  1 27  1  0
  1 28  1  0
  1 29  1  0
 12 30  1  0
 12 31  1  0
 16 32  1  0
 17 33  1  0
 21 34  1  0
 22 35  1  0
 24 36  1  0
 25 37  1  0
 25 38  1  0
 26 39  1  0
 26 40  1  0
M  END
$$$$
