
     RDKit          3D

 51 54  0  0  0  0  0  0  0  0999 V2000
    7.8439   -1.6998    1.6990 C   0  0  0  0  0  0  0  0  0  0  0  0
    6.5403   -1.5832    0.9662 C   0  0  0  0  0  0  0  0  0  0  0  0
    6.4637   -1.8920   -0.3961 C   0  0  0  0  0  0  0  0  0  0  0  0
    5.2438   -1.8152   -1.0715 C   0  0  0  0  0  0  0  0  0  0  0  0
    4.0755   -1.4398   -0.3939 C   0  0  0  0  0  0  0  0  0  0  0  0
    2.7650   -1.3514   -1.1365 C   0  0  0  0  0  0  0  0  0  0  0  0
    2.7904   -0.2631   -2.1046 N   0  0  0  0  0  0  0  0  0  0  0  0
    1.6099   -0.1747   -3.2794 S   0  0  0  0  0  6  0  0  0  0  0  0
    1.8216    1.0692   -3.9860 O   0  0  0  0  0  0  0  0  0  0  0  0
    1.5605   -1.4449   -3.9674 O   0  0  0  0  0  0  0  0  0  0  0  0
    0.1221   -0.0019   -2.3221 C   0  0  0  0  0  0  0  0  0  0  0  0
   -0.6819   -1.1260   -2.0733 C   0  0  0  0  0  0  0  0  0  0  0  0
   -1.8542   -0.9984   -1.3187 C   0  0  0  0  0  0  0  0  0  0  0  0
   -2.2144    0.2546   -0.8442 C   0  0  0  0  0  0  0  0  0  0  0  0
   -1.4131    1.3687   -1.1162 C   0  0  0  0  0  0  0  0  0  0  0  0
   -0.2407    1.2632   -1.8509 C   0  0  0  0  0  0  0  0  0  0  0  0
   -1.9600    2.5966   -0.4669 C   0  0  0  0  0  0  0  0  0  0  0  0
   -3.3452    2.1134   -0.0256 C   0  0  0  0  0  0  0  0  0  0  0  0
   -3.3430    0.6408   -0.0796 N   0  0  0  0  0  0  0  0  0  0  0  0
   -4.3033   -0.2362    0.4257 C   0  0  0  0  0  0  0  0  0  0  0  0
   -4.2110   -1.4646    0.2542 O   0  0  0  0  0  0  0  0  0  0  0  0
   -5.4985    0.2749    1.2469 C   0  0  0  0  0  0  0  0  0  0  0  0
   -6.3706    1.4952    0.8797 C   0  0  0  0  0  0  0  0  0  0  0  0
   -6.5636    1.7355    2.3913 C   0  0  0  0  0  0  0  0  0  0  0  0
   -5.2715    0.9298    2.6301 C   0  0  0  0  0  0  0  0  0  0  0  0
    4.1522   -1.1413    0.9725 C   0  0  0  0  0  0  0  0  0  0  0  0
    5.3734   -1.2194    1.6474 C   0  0  0  0  0  0  0  0  0  0  0  0
    7.9616   -2.7135    2.0941 H   0  0  0  0  0  0  0  0  0  0  0  0
    8.6864   -1.4782    1.0354 H   0  0  0  0  0  0  0  0  0  0  0  0
    7.8899   -0.9881    2.5300 H   0  0  0  0  0  0  0  0  0  0  0  0
    7.3545   -2.1933   -0.9429 H   0  0  0  0  0  0  0  0  0  0  0  0
    5.2062   -2.0488   -2.1343 H   0  0  0  0  0  0  0  0  0  0  0  0
    2.5752   -2.3123   -1.6273 H   0  0  0  0  0  0  0  0  0  0  0  0
    1.9548   -1.1789   -0.4197 H   0  0  0  0  0  0  0  0  0  0  0  0
    3.2056    0.6233   -1.8282 H   0  0  0  0  0  0  0  0  0  0  0  0
   -0.4052   -2.1041   -2.4630 H   0  0  0  0  0  0  0  0  0  0  0  0
   -2.4609   -1.8796   -1.1386 H   0  0  0  0  0  0  0  0  0  0  0  0
    0.3734    2.1365   -2.0516 H   0  0  0  0  0  0  0  0  0  0  0  0
   -2.0283    3.4457   -1.1526 H   0  0  0  0  0  0  0  0  0  0  0  0
   -1.3463    2.8662    0.3990 H   0  0  0  0  0  0  0  0  0  0  0  0
   -3.5997    2.4855    0.9672 H   0  0  0  0  0  0  0  0  0  0  0  0
   -4.0986    2.4622   -0.7411 H   0  0  0  0  0  0  0  0  0  0  0  0
   -6.1797   -0.5874    1.3819 H   0  0  0  0  0  0  0  0  0  0  0  0
   -7.2884    1.2607    0.3315 H   0  0  0  0  0  0  0  0  0  0  0  0
   -5.8865    2.3330    0.3788 H   0  0  0  0  0  0  0  0  0  0  0  0
   -7.4610    1.2576    2.8006 H   0  0  0  0  0  0  0  0  0  0  0  0
   -6.5370    2.7796    2.7132 H   0  0  0  0  0  0  0  0  0  0  0  0
   -5.3062    0.2443    3.4822 H   0  0  0  0  0  0  0  0  0  0  0  0
   -4.3719    1.5439    2.7233 H   0  0  0  0  0  0  0  0  0  0  0  0
    3.2626   -0.8502    1.5264 H   0  0  0  0  0  0  0  0  0  0  0  0
    5.4084   -0.9936    2.7110 H   0  0  0  0  0  0  0  0  0  0  0  0
  1  2  1  0
  2  3  2  0
  3  4  1  0
  4  5  2  0
  5  6  1  0
  6  7  1  0
  7  8  1  0
  8  9  2  0
  8 10  2  0
  8 11  1  0
 11 12  2  0
 12 13  1  0
 13 14  2  0
 14 15  1  0
 15 16  2  0
 15 17  1  0
 17 18  1  0
 18 19  1  0
 19 20  1  0
 20 21  2  0
 20 22  1  0
 22 23  1  0
 23 24  1  0
 24 25  1  0
  5 26  1  0
 26 27  2  0
 27  2  1  0
 16 11  1  0
 25 22  1  0
 19 14  1  0
  1 28  1  0
  1 29  1  0
  1 30  1  0
  3 31  1  0
  4 32  1  0
  6 33  1  0
  6 34  1  0
  7 35  1  0
 12 36  1  0
 13 37  1  0
 16 38  1  0
 17 39  1  0
 17 40  1  0
 18 41  1  0
 18 42  1  0
 22 43  1  0
 23 44  1  0
 23 45  1  0
 24 46  1  0
 24 47  1  0
 25 48  1  0
 25 49  1  0
 26 50  1  0
 27 51  1  0
M  END
$$$$
