
     RDKit          3D

 61 64  0  0  0  0  0  0  0  0999 V2000
    8.9037   -0.4219   -2.2892 C   0  0  0  0  0  0  0  0  0  0  0  0
    7.5713   -0.4776   -1.6020 C   0  0  0  0  0  0  0  0  0  0  0  0
    6.4580   -1.0026   -2.2693 C   0  0  0  0  0  0  0  0  0  0  0  0
    5.2070   -1.0340   -1.6481 C   0  0  0  0  0  0  0  0  0  0  0  0
    5.0475   -0.5386   -0.3469 C   0  0  0  0  0  0  0  0  0  0  0  0
    3.6937   -0.5374    0.3181 C   0  0  0  0  0  0  0  0  0  0  0  0
    3.0619    0.7748    0.2987 N   0  0  0  0  0  0  0  0  0  0  0  0
    2.6635    1.4132   -0.9353 C   0  0  0  0  0  0  0  0  0  0  0  0
    2.0240    2.7080   -0.4733 C   0  0  0  0  0  0  0  0  0  0  0  0
    0.5102    2.5950   -0.3211 C   0  0  0  0  0  0  0  0  0  0  0  0
   -0.2171    3.3932   -0.9106 O   0  0  0  0  0  0  0  0  0  0  0  0
    0.0896    1.5668    0.5055 N   0  0  0  0  0  0  0  0  0  0  0  0
   -1.2338    1.2402    0.8662 C   0  0  0  0  0  0  0  0  0  0  0  0
   -2.3517    2.0023    0.5161 C   0  0  0  0  0  0  0  0  0  0  0  0
   -3.6342    1.6108    0.9154 C   0  0  0  0  0  0  0  0  0  0  0  0
   -3.8025    0.4327    1.6444 C   0  0  0  0  0  0  0  0  0  0  0  0
   -5.4319   -0.0672    2.1682 S   0  0  0  0  0  6  0  0  0  0  0  0
   -5.2657   -0.8991    3.3419 O   0  0  0  0  0  0  0  0  0  0  0  0
   -6.2670    1.1157    2.1968 O   0  0  0  0  0  0  0  0  0  0  0  0
   -5.9577   -1.0581    0.8911 N   0  0  0  0  0  0  0  0  0  0  0  0
   -5.2674   -2.3450    0.6961 C   0  0  0  0  0  0  0  0  0  0  0  0
   -6.2180   -3.3281    0.0133 C   0  0  0  0  0  0  0  0  0  0  0  0
   -7.0222   -2.7017   -1.1275 C   0  0  0  0  0  0  0  0  0  0  0  0
   -6.4669   -1.3452   -1.5387 C   0  0  0  0  0  0  0  0  0  0  0  0
   -6.4005   -0.3820   -0.3520 C   0  0  0  0  0  0  0  0  0  0  0  0
   -2.6929   -0.3232    2.0268 C   0  0  0  0  0  0  0  0  0  0  0  0
   -1.4141    0.0809    1.6343 C   0  0  0  0  0  0  0  0  0  0  0  0
    2.7127    3.0329    0.8510 C   0  0  0  0  0  0  0  0  0  0  0  0
    3.2350    1.6977    1.3229 C   0  0  0  0  0  0  0  0  0  0  0  0
    3.7222    1.4804    2.4195 O   0  0  0  0  0  0  0  0  0  0  0  0
    6.1627   -0.0095    0.3163 C   0  0  0  0  0  0  0  0  0  0  0  0
    7.4126    0.0227   -0.3055 C   0  0  0  0  0  0  0  0  0  0  0  0
    9.7049   -0.1668   -1.5865 H   0  0  0  0  0  0  0  0  0  0  0  0
    9.1479   -1.3954   -2.7287 H   0  0  0  0  0  0  0  0  0  0  0  0
    8.8859    0.3363   -3.0778 H   0  0  0  0  0  0  0  0  0  0  0  0
    6.5588   -1.3868   -3.2820 H   0  0  0  0  0  0  0  0  0  0  0  0
    4.3584   -1.4435   -2.1922 H   0  0  0  0  0  0  0  0  0  0  0  0
    3.7988   -0.8716    1.3586 H   0  0  0  0  0  0  0  0  0  0  0  0
    3.0160   -1.2440   -0.1773 H   0  0  0  0  0  0  0  0  0  0  0  0
    1.9911    0.7589   -1.4966 H   0  0  0  0  0  0  0  0  0  0  0  0
    3.5604    1.6182   -1.5296 H   0  0  0  0  0  0  0  0  0  0  0  0
    2.2031    3.5045   -1.2066 H   0  0  0  0  0  0  0  0  0  0  0  0
    0.8045    0.9415    0.8634 H   0  0  0  0  0  0  0  0  0  0  0  0
   -2.2606    2.9275   -0.0477 H   0  0  0  0  0  0  0  0  0  0  0  0
   -4.4885    2.2345    0.6574 H   0  0  0  0  0  0  0  0  0  0  0  0
   -4.9496   -2.7790    1.6498 H   0  0  0  0  0  0  0  0  0  0  0  0
   -4.3681   -2.1943    0.0865 H   0  0  0  0  0  0  0  0  0  0  0  0
   -5.6374   -4.1785   -0.3660 H   0  0  0  0  0  0  0  0  0  0  0  0
   -6.9181   -3.7394    0.7515 H   0  0  0  0  0  0  0  0  0  0  0  0
   -7.0436   -3.3791   -1.9894 H   0  0  0  0  0  0  0  0  0  0  0  0
   -8.0647   -2.5799   -0.8066 H   0  0  0  0  0  0  0  0  0  0  0  0
   -7.0844   -0.9059   -2.3315 H   0  0  0  0  0  0  0  0  0  0  0  0
   -5.4615   -1.4770   -1.9629 H   0  0  0  0  0  0  0  0  0  0  0  0
   -7.4001    0.0309   -0.1682 H   0  0  0  0  0  0  0  0  0  0  0  0
   -5.7368    0.4469   -0.6140 H   0  0  0  0  0  0  0  0  0  0  0  0
   -2.8127   -1.2216    2.6300 H   0  0  0  0  0  0  0  0  0  0  0  0
   -0.5637   -0.5208    1.9454 H   0  0  0  0  0  0  0  0  0  0  0  0
    2.0364    3.4604    1.5957 H   0  0  0  0  0  0  0  0  0  0  0  0
    3.5692    3.6971    0.6946 H   0  0  0  0  0  0  0  0  0  0  0  0
    6.0622    0.3867    1.3249 H   0  0  0  0  0  0  0  0  0  0  0  0
    8.2600    0.4443    0.2315 H   0  0  0  0  0  0  0  0  0  0  0  0
  1  2  1  0
  2  3  2  0
  3  4  1  0
  4  5  2  0
  5  6  1  0
  6  7  1  0
  7  8  1  0
  8  9  1  0
  9 10  1  0
 10 11  2  0
 10 12  1  0
 12 13  1  0
 13 14  2  0
 14 15  1  0
 15 16  2  0
 16 17  1  0
 17 18  2  0
 17 19  2  0
 17 20  1  0
 20 21  1  0
 21 22  1  0
 22 23  1  0
 23 24  1  0
 24 25  1  0
 16 26  1  0
 26 27  2  0
  9 28  1  0
 28 29  1  0
 29 30  2  0
  5 31  1  0
 31 32  2  0
 32  2  1  0
 29  7  1  0
 27 13  1  0
 25 20  1  0
  1 33  1  0
  1 34  1  0
  1 35  1  0
  3 36  1  0
  4 37  1  0
  6 38  1  0
  6 39  1  0
  8 40  1  0
  8 41  1  0
  9 42  1  0
 12 43  1  0
 14 44  1  0
 15 45  1  0
 21 46  1  0
 21 47  1  0
 22 48  1  0
 22 49  1  0
 23 50  1  0
 23 51  1  0
 24 52  1  0
 24 53  1  0
 25 54  1  0
 25 55  1  0
 26 56  1  0
 27 57  1  0
 28 58  1  0
 28 59  1  0
 31 60  1  0
 32 61  1  0
M  END
$$$$
