
     RDKit          3D

 80 86  0  0  0  0  0  0  0  0999 V2000
   -5.5804   -0.8395    0.7983 C   0  0  0  0  0  0  0  0  0  0  0  0
   -4.2913   -0.1650    1.1617 C   0  0  0  0  0  0  0  0  0  0  0  0
   -4.1574    0.5084    2.4009 C   0  0  0  0  0  0  0  0  0  0  0  0
   -5.4455    0.5904    3.5595 Cl  0  0  0  0  0  0  0  0  0  0  0  0
   -2.9716    1.1657    2.7663 C   0  0  0  0  0  0  0  0  0  0  0  0
   -1.8789    1.1754    1.9115 C   0  0  0  0  0  0  0  0  0  0  0  0
   -1.9883    0.5195    0.6909 C   0  0  0  0  0  0  0  0  0  0  0  0
   -3.1819   -0.1292    0.3011 C   0  0  0  0  0  0  0  0  0  0  0  0
   -3.0038   -0.6321   -1.0136 N   0  0  0  0  0  0  0  0  0  0  0  0
   -3.9428   -1.3609   -1.8325 C   0  0  0  0  0  0  0  0  0  0  0  0
   -3.9893   -2.8545   -1.5794 C   0  0  0  0  0  0  0  0  0  0  0  0
   -5.1813   -3.5553   -1.8306 C   0  0  0  0  0  0  0  0  0  0  0  0
   -5.2512   -4.9373   -1.6436 C   0  0  0  0  0  0  0  0  0  0  0  0
   -4.1262   -5.6413   -1.2197 C   0  0  0  0  0  0  0  0  0  0  0  0
   -2.9299   -4.9664   -0.9899 C   0  0  0  0  0  0  0  0  0  0  0  0
   -2.8597   -3.5835   -1.1758 C   0  0  0  0  0  0  0  0  0  0  0  0
   -1.7290   -0.3144   -1.5266 C   0  0  0  0  0  0  0  0  0  0  0  0
   -1.3174   -0.5874   -2.6484 O   0  0  0  0  0  0  0  0  0  0  0  0
   -0.9567    0.4006   -0.3997 C   0  0  1  0  0  0  0  0  0  0  0  0
   -0.5056    1.7541   -0.7809 C   0  0  0  0  0  0  0  0  0  0  0  0
    0.8847    1.8304   -0.8000 C   0  0  0  0  0  0  0  0  0  0  0  0
    1.2589    3.0874   -1.1874 C   0  0  0  0  0  0  0  0  0  0  0  0
    2.4904    3.5326   -1.4272 O   0  0  0  0  0  0  0  0  0  0  0  0
    0.0760    3.8226   -1.3923 N   0  0  0  0  0  0  0  0  0  0  0  0
   -0.0013    5.1793   -1.8255 C   0  0  0  0  0  0  0  0  0  0  0  0
   -0.9867    5.5663   -2.7432 C   0  0  0  0  0  0  0  0  0  0  0  0
   -1.0505    6.8905   -3.1799 C   0  0  0  0  0  0  0  0  0  0  0  0
   -0.1363    7.8290   -2.7046 C   0  0  0  0  0  0  0  0  0  0  0  0
    0.8428    7.4490   -1.7863 C   0  0  0  0  0  0  0  0  0  0  0  0
    0.9135    6.1263   -1.3463 C   0  0  0  0  0  0  0  0  0  0  0  0
   -1.0182    2.9807   -1.1144 C   0  0  0  0  0  0  0  0  0  0  0  0
   -2.2943    3.3621   -1.1255 O   0  0  0  0  0  0  0  0  0  0  0  0
    1.5137    0.5317   -0.4829 C   0  0  1  0  0  0  0  0  0  0  0  0
    2.6006    0.6073    0.6071 C   0  0  0  0  0  0  0  0  0  0  0  0
    2.9482   -0.7184    1.1250 N   0  0  0  0  0  0  0  0  0  0  0  0
    4.2655   -1.0480    1.3669 C   0  0  0  0  0  0  0  0  0  0  0  0
    5.1997   -0.2708    1.2224 O   0  0  0  0  0  0  0  0  0  0  0  0
    4.3910   -2.3371    1.7765 O   0  0  0  0  0  0  0  0  0  0  0  0
    5.6941   -2.9141    2.0436 C   0  0  0  0  0  0  0  0  0  0  0  0
    6.4042   -2.1945    3.1963 C   0  0  0  0  0  0  0  0  0  0  0  0
    5.3973   -4.3573    2.4782 C   0  0  0  0  0  0  0  0  0  0  0  0
    6.5526   -2.9547    0.7733 C   0  0  0  0  0  0  0  0  0  0  0  0
    1.8552   -1.6789    1.2841 C   0  0  0  0  0  0  0  0  0  0  0  0
    0.4659   -1.0278    1.1450 C   0  0  0  0  0  0  0  0  0  0  0  0
    0.3259   -0.3342   -0.1322 N   0  0  0  0  0  0  0  0  0  0  0  0
   -6.0849   -0.2845    0.0039 H   0  0  0  0  0  0  0  0  0  0  0  0
   -5.3974   -1.8691    0.4948 H   0  0  0  0  0  0  0  0  0  0  0  0
   -6.2891   -0.9145    1.6262 H   0  0  0  0  0  0  0  0  0  0  0  0
   -2.9038    1.6809    3.7219 H   0  0  0  0  0  0  0  0  0  0  0  0
   -0.9667    1.6960    2.1882 H   0  0  0  0  0  0  0  0  0  0  0  0
   -3.6691   -1.2302   -2.8875 H   0  0  0  0  0  0  0  0  0  0  0  0
   -4.9304   -0.9053   -1.7300 H   0  0  0  0  0  0  0  0  0  0  0  0
   -6.0670   -3.0252   -2.1760 H   0  0  0  0  0  0  0  0  0  0  0  0
   -6.1799   -5.4673   -1.8391 H   0  0  0  0  0  0  0  0  0  0  0  0
   -4.1788   -6.7177   -1.0776 H   0  0  0  0  0  0  0  0  0  0  0  0
   -2.0481   -5.5167   -0.6735 H   0  0  0  0  0  0  0  0  0  0  0  0
   -1.9064   -3.0880   -1.0098 H   0  0  0  0  0  0  0  0  0  0  0  0
    2.4441    4.2866   -2.0437 H   0  0  0  0  0  0  0  0  0  0  0  0
   -1.6793    4.8447   -3.1714 H   0  0  0  0  0  0  0  0  0  0  0  0
   -1.8029    7.1874   -3.9077 H   0  0  0  0  0  0  0  0  0  0  0  0
   -0.1860    8.8592   -3.0489 H   0  0  0  0  0  0  0  0  0  0  0  0
    1.5498    8.1863   -1.4126 H   0  0  0  0  0  0  0  0  0  0  0  0
    1.6631    5.8677   -0.6009 H   0  0  0  0  0  0  0  0  0  0  0  0
   -2.3388    4.3310   -1.0453 H   0  0  0  0  0  0  0  0  0  0  0  0
    1.9528    0.1043   -1.3935 H   0  0  0  0  0  0  0  0  0  0  0  0
    2.2517    1.1966    1.4652 H   0  0  0  0  0  0  0  0  0  0  0  0
    3.4905    1.1143    0.2169 H   0  0  0  0  0  0  0  0  0  0  0  0
    7.3022   -2.7384    3.5102 H   0  0  0  0  0  0  0  0  0  0  0  0
    5.7383   -2.0913    4.0612 H   0  0  0  0  0  0  0  0  0  0  0  0
    6.7157   -1.1837    2.9167 H   0  0  0  0  0  0  0  0  0  0  0  0
    4.8658   -4.9019    1.6878 H   0  0  0  0  0  0  0  0  0  0  0  0
    4.7436   -4.3715    3.3581 H   0  0  0  0  0  0  0  0  0  0  0  0
    6.3140   -4.9070    2.7170 H   0  0  0  0  0  0  0  0  0  0  0  0
    5.9928   -3.3944   -0.0604 H   0  0  0  0  0  0  0  0  0  0  0  0
    7.4663   -3.5396    0.9267 H   0  0  0  0  0  0  0  0  0  0  0  0
    6.8542   -1.9532    0.4525 H   0  0  0  0  0  0  0  0  0  0  0  0
    1.9452   -2.1579    2.2669 H   0  0  0  0  0  0  0  0  0  0  0  0
    1.9869   -2.4581    0.5226 H   0  0  0  0  0  0  0  0  0  0  0  0
   -0.2972   -1.8101    1.2351 H   0  0  0  0  0  0  0  0  0  0  0  0
    0.3440   -0.3365    1.9857 H   0  0  0  0  0  0  0  0  0  0  0  0
  1  2  1  0
  2  3  2  0
  3  4  1  0
  3  5  1  0
  5  6  2  0
  6  7  1  0
  7  8  2  0
  8  9  1  0
  9 10  1  0
 10 11  1  0
 11 12  2  0
 12 13  1  0
 13 14  2  0
 14 15  1  0
 15 16  2  0
  9 17  1  0
 17 18  2  0
 17 19  1  0
 19 20  1  0
 20 21  1  0
 21 22  2  0
 22 23  1  0
 22 24  1  0
 24 25  1  0
 25 26  2  0
 26 27  1  0
 27 28  2  0
 28 29  1  0
 29 30  2  0
 24 31  1  0
 31 32  1  0
 21 33  1  0
 33 34  1  0
 34 35  1  0
 35 36  1  0
 36 37  2  0
 36 38  1  0
 38 39  1  0
 39 40  1  0
 39 41  1  0
 39 42  1  0
 35 43  1  0
 43 44  1  0
 44 45  1  0
  8  2  1  0
 16 11  1  0
 19 45  1  1
 19  7  1  0
 31 20  2  0
 45 33  1  0
 30 25  1  0
  1 46  1  0
  1 47  1  0
  1 48  1  0
  5 49  1  0
  6 50  1  0
 10 51  1  0
 10 52  1  0
 12 53  1  0
 13 54  1  0
 14 55  1  0
 15 56  1  0
 16 57  1  0
 23 58  1  0
 26 59  1  0
 27 60  1  0
 28 61  1  0
 29 62  1  0
 30 63  1  0
 32 64  1  0
 33 65  1  6
 34 66  1  0
 34 67  1  0
 40 68  1  0
 40 69  1  0
 40 70  1  0
 41 71  1  0
 41 72  1  0
 41 73  1  0
 42 74  1  0
 42 75  1  0
 42 76  1  0
 43 77  1  0
 43 78  1  0
 44 79  1  0
 44 80  1  0
M  END
$$$$
