
     RDKit          3D

 47 50  0  0  0  0  0  0  0  0999 V2000
   -6.1771    1.1103    2.0623 C   0  0  0  0  0  0  0  0  0  0  0  0
   -5.7914    1.1284    0.5896 C   0  0  0  0  0  0  0  0  0  0  0  0
   -5.0701   -0.0973    0.2190 N   0  0  0  0  0  0  0  0  0  0  0  0
   -5.9007   -1.1934   -0.2984 C   0  0  0  0  0  0  0  0  0  0  0  0
   -6.0203   -1.1217   -1.8151 C   0  0  0  0  0  0  0  0  0  0  0  0
   -3.6877   -0.2037    0.3292 C   0  0  0  0  0  0  0  0  0  0  0  0
   -2.9768   -1.3155   -0.1576 C   0  0  0  0  0  0  0  0  0  0  0  0
   -1.5813   -1.4282   -0.0521 C   0  0  0  0  0  0  0  0  0  0  0  0
   -0.8371   -0.4178    0.5486 C   0  0  0  0  0  0  0  0  0  0  0  0
    0.6167   -0.5502    0.6612 C   0  0  0  0  0  0  0  0  0  0  0  0
    1.5212    0.1865    0.0013 C   0  0  0  0  0  0  0  0  0  0  0  0
    1.2134    1.4655   -1.1510 S   0  0  0  0  0  0  0  0  0  0  0  0
    2.9035    1.6638   -1.3650 C   0  0  0  0  0  0  0  0  0  0  0  0
    3.6523    2.4814   -2.0474 N   0  0  0  0  0  0  0  0  0  0  0  0
    4.9631    2.1276   -1.7554 N   0  0  0  0  0  0  0  0  0  0  0  0
    4.9537    1.0913   -0.9230 C   0  0  0  0  0  0  0  0  0  0  0  0
    6.1228    0.4072   -0.3853 C   0  0  0  0  0  0  0  0  0  0  0  0
    7.0224    1.1443    0.4020 C   0  0  0  0  0  0  0  0  0  0  0  0
    8.1577    0.5386    0.9452 C   0  0  0  0  0  0  0  0  0  0  0  0
    8.4130   -0.8085    0.7008 C   0  0  0  0  0  0  0  0  0  0  0  0
    7.5400   -1.5487   -0.0967 C   0  0  0  0  0  0  0  0  0  0  0  0
    6.4031   -0.9449   -0.6446 C   0  0  0  0  0  0  0  0  0  0  0  0
    5.4001   -1.9122   -1.6732 Cl  0  0  0  0  0  0  0  0  0  0  0  0
    3.6457    0.8073   -0.6294 N   0  0  0  0  0  0  0  0  0  0  0  0
    2.9796   -0.0570    0.2032 C   0  0  0  0  0  0  0  0  0  0  0  0
    3.5445   -0.8256    0.9580 O   0  0  0  0  0  0  0  0  0  0  0  0
   -1.5074    0.6929    1.0523 C   0  0  0  0  0  0  0  0  0  0  0  0
   -2.9032    0.7917    0.9385 C   0  0  0  0  0  0  0  0  0  0  0  0
   -5.2984    1.0532    2.7115 H   0  0  0  0  0  0  0  0  0  0  0  0
   -6.8142    0.2498    2.2914 H   0  0  0  0  0  0  0  0  0  0  0  0
   -6.7302    2.0195    2.3190 H   0  0  0  0  0  0  0  0  0  0  0  0
   -6.7093    1.2115   -0.0065 H   0  0  0  0  0  0  0  0  0  0  0  0
   -5.2186    2.0299    0.3445 H   0  0  0  0  0  0  0  0  0  0  0  0
   -5.5281   -2.1739    0.0205 H   0  0  0  0  0  0  0  0  0  0  0  0
   -6.9086   -1.1254    0.1314 H   0  0  0  0  0  0  0  0  0  0  0  0
   -5.0460   -1.2159   -2.3047 H   0  0  0  0  0  0  0  0  0  0  0  0
   -6.4585   -0.1682   -2.1309 H   0  0  0  0  0  0  0  0  0  0  0  0
   -6.6631   -1.9286   -2.1819 H   0  0  0  0  0  0  0  0  0  0  0  0
   -3.4903   -2.1345   -0.6517 H   0  0  0  0  0  0  0  0  0  0  0  0
   -1.0942   -2.3137   -0.4540 H   0  0  0  0  0  0  0  0  0  0  0  0
    0.9457   -1.3395    1.3364 H   0  0  0  0  0  0  0  0  0  0  0  0
    6.8414    2.2011    0.5957 H   0  0  0  0  0  0  0  0  0  0  0  0
    8.8431    1.1210    1.5572 H   0  0  0  0  0  0  0  0  0  0  0  0
    9.2971   -1.2809    1.1226 H   0  0  0  0  0  0  0  0  0  0  0  0
    7.7552   -2.5962   -0.2947 H   0  0  0  0  0  0  0  0  0  0  0  0
   -0.9639    1.4966    1.5429 H   0  0  0  0  0  0  0  0  0  0  0  0
   -3.3590    1.6821    1.3603 H   0  0  0  0  0  0  0  0  0  0  0  0
  1  2  1  0
  2  3  1  0
  3  4  1  0
  4  5  1  0
  3  6  1  0
  6  7  2  0
  7  8  1  0
  8  9  2  0
  9 10  1  0
 10 11  2  3
 11 12  1  0
 12 13  1  0
 13 14  2  0
 14 15  1  0
 15 16  2  0
 16 17  1  0
 17 18  2  0
 18 19  1  0
 19 20  2  0
 20 21  1  0
 21 22  2  0
 22 23  1  0
 16 24  1  0
 24 25  1  0
 25 26  2  0
  9 27  1  0
 27 28  2  0
 28  6  1  0
 25 11  1  0
 24 13  1  0
 22 17  1  0
  1 29  1  0
  1 30  1  0
  1 31  1  0
  2 32  1  0
  2 33  1  0
  4 34  1  0
  4 35  1  0
  5 36  1  0
  5 37  1  0
  5 38  1  0
  7 39  1  0
  8 40  1  0
 10 41  1  0
 18 42  1  0
 19 43  1  0
 20 44  1  0
 21 45  1  0
 27 46  1  0
 28 47  1  0
M  END
$$$$
