
     RDKit          3D

 42 45  0  0  0  0  0  0  0  0999 V2000
    6.9715    1.0630   -2.4258 O   0  0  0  0  0  0  0  0  0  0  0  0
    6.7714    1.4081   -1.2745 C   0  0  0  0  0  0  0  0  0  0  0  0
    7.6916    2.1229   -0.6007 O   0  0  0  0  0  0  0  0  0  0  0  0
    5.5263    1.1786   -0.4662 C   0  0  0  0  0  0  0  0  0  0  0  0
    4.7448   -0.0224   -1.0109 C   0  0  0  0  0  0  0  0  0  0  0  0
    5.3539   -1.3211   -0.4731 C   0  0  0  0  0  0  0  0  0  0  0  0
    6.5474   -1.5689   -0.3923 O   0  0  0  0  0  0  0  0  0  0  0  0
    4.4534   -2.2632   -0.1224 O   0  0  0  0  0  0  0  0  0  0  0  0
    3.2910    0.0295   -0.7132 N   0  0  0  0  0  0  0  0  0  0  0  0
    2.8715    0.2786    0.5824 C   0  0  0  0  0  0  0  0  0  0  0  0
    3.6005    0.5123    1.5376 O   0  0  0  0  0  0  0  0  0  0  0  0
    1.3900    0.2011    0.6883 C   0  0  0  0  0  0  0  0  0  0  0  0
    0.7875    0.4539    1.8581 C   0  0  0  0  0  0  0  0  0  0  0  0
   -0.6152    0.4161    2.0985 C   0  0  0  0  0  0  0  0  0  0  0  0
   -1.2761    0.6177    3.3026 C   0  0  0  0  0  0  0  0  0  0  0  0
   -2.6655    0.4878    3.0643 C   0  0  0  0  0  0  0  0  0  0  0  0
   -2.8242    0.2116    1.7180 C   0  0  0  0  0  0  0  0  0  0  0  0
   -4.0227   -0.0110    0.9493 C   0  0  0  0  0  0  0  0  0  0  0  0
   -3.9849   -0.2567   -0.3427 N   0  0  0  0  0  0  0  0  0  0  0  0
   -5.2660   -0.4322   -0.8339 C   0  0  0  0  0  0  0  0  0  0  0  0
   -5.6067   -0.7118   -2.1727 C   0  0  0  0  0  0  0  0  0  0  0  0
   -6.9499   -0.8655   -2.5314 C   0  0  0  0  0  0  0  0  0  0  0  0
   -7.9527   -0.7441   -1.5747 C   0  0  0  0  0  0  0  0  0  0  0  0
   -7.6408   -0.4672   -0.2397 C   0  0  0  0  0  0  0  0  0  0  0  0
   -6.2883   -0.3150    0.1087 C   0  0  0  0  0  0  0  0  0  0  0  0
   -5.5925    0.0247    1.6453 S   0  0  0  0  0  0  0  0  0  0  0  0
   -1.5766    0.1732    1.1505 O   0  0  0  0  0  0  0  0  0  0  0  0
    0.7287   -0.2426   -0.8277 S   0  0  0  0  0  0  0  0  0  0  0  0
    2.3027   -0.3473   -1.6018 C   0  0  0  0  0  0  0  0  0  0  0  0
    2.4639   -0.8243   -3.1928 S   0  0  0  0  0  0  0  0  0  0  0  0
    8.4476    2.1981   -1.2210 H   0  0  0  0  0  0  0  0  0  0  0  0
    4.9295    2.0955   -0.5292 H   0  0  0  0  0  0  0  0  0  0  0  0
    5.8233    1.0177    0.5763 H   0  0  0  0  0  0  0  0  0  0  0  0
    4.8601   -0.0775   -2.0964 H   0  0  0  0  0  0  0  0  0  0  0  0
    5.0010   -3.0262    0.1634 H   0  0  0  0  0  0  0  0  0  0  0  0
    1.4085    0.7119    2.7143 H   0  0  0  0  0  0  0  0  0  0  0  0
   -0.8022    0.8343    4.2507 H   0  0  0  0  0  0  0  0  0  0  0  0
   -3.4559    0.5863    3.7955 H   0  0  0  0  0  0  0  0  0  0  0  0
   -4.8198   -0.8055   -2.9148 H   0  0  0  0  0  0  0  0  0  0  0  0
   -7.2077   -1.0812   -3.5657 H   0  0  0  0  0  0  0  0  0  0  0  0
   -8.9936   -0.8661   -1.8675 H   0  0  0  0  0  0  0  0  0  0  0  0
   -8.4247   -0.3730    0.5055 H   0  0  0  0  0  0  0  0  0  0  0  0
  1  2  2  0
  2  3  1  0
  2  4  1  0
  4  5  1  0
  5  6  1  0
  6  7  2  0
  6  8  1  0
  5  9  1  0
  9 10  1  0
 10 11  2  0
 10 12  1  0
 12 13  2  3
 13 14  1  0
 14 15  2  0
 15 16  1  0
 16 17  2  0
 17 18  1  0
 18 19  2  0
 19 20  1  0
 20 21  2  0
 21 22  1  0
 22 23  2  0
 23 24  1  0
 24 25  2  0
 25 26  1  0
 17 27  1  0
 12 28  1  0
 28 29  1  0
 29 30  2  0
 29  9  1  0
 27 14  1  0
 26 18  1  0
 25 20  1  0
  3 31  1  0
  4 32  1  0
  4 33  1  0
  5 34  1  0
  8 35  1  0
 13 36  1  0
 15 37  1  0
 16 38  1  0
 21 39  1  0
 22 40  1  0
 23 41  1  0
 24 42  1  0
M  END
$$$$
