
     RDKit          3D

 36 37  0  0  0  0  0  0  0  0999 V2000
    5.2032   -3.4162   -0.2622 C   0  0  0  0  0  0  0  0  0  0  0  0
    5.0522   -2.2598   -1.0766 O   0  0  0  0  0  0  0  0  0  0  0  0
    4.0748   -1.3740   -0.7175 C   0  0  0  0  0  0  0  0  0  0  0  0
    3.1682   -1.5346    0.3328 C   0  0  0  0  0  0  0  0  0  0  0  0
    2.2131   -0.5465    0.5954 C   0  0  0  0  0  0  0  0  0  0  0  0
    2.1626    0.5988   -0.2038 C   0  0  0  0  0  0  0  0  0  0  0  0
    0.9708    1.8716    0.1454 S   0  0  0  0  0  6  0  0  0  0  0  0
    1.5339    3.1343   -0.2849 O   0  0  0  0  0  0  0  0  0  0  0  0
    0.4845    1.6616    1.4935 O   0  0  0  0  0  0  0  0  0  0  0  0
   -0.2670    1.4562   -0.9897 N   0  0  0  0  0  0  0  0  0  0  0  0
   -1.6811    1.7044   -0.5466 N   0  0  0  0  0  0  0  0  0  0  0  0
   -2.2905    0.7083    0.0295 C   0  0  0  0  0  0  0  0  0  0  0  0
   -1.6716   -0.6645    0.1980 C   0  0  0  0  0  0  0  0  0  0  0  0
   -3.6711    0.9318    0.5603 C   0  0  0  0  0  0  0  0  0  0  0  0
   -4.4240    2.0007    0.0700 C   0  0  0  0  0  0  0  0  0  0  0  0
   -5.6935    2.1964    0.5820 C   0  0  0  0  0  0  0  0  0  0  0  0
   -6.2479    1.4109    1.5289 N   0  0  0  0  0  0  0  0  0  0  0  0
   -5.4947    0.3938    1.9966 C   0  0  0  0  0  0  0  0  0  0  0  0
   -4.2126    0.1156    1.5532 C   0  0  0  0  0  0  0  0  0  0  0  0
    3.0733    0.7763   -1.2476 C   0  0  0  0  0  0  0  0  0  0  0  0
    4.0208   -0.2169   -1.5031 C   0  0  0  0  0  0  0  0  0  0  0  0
    4.3121   -4.0512   -0.3122 H   0  0  0  0  0  0  0  0  0  0  0  0
    6.0455   -3.9951   -0.6540 H   0  0  0  0  0  0  0  0  0  0  0  0
    5.4396   -3.1455    0.7728 H   0  0  0  0  0  0  0  0  0  0  0  0
    3.1803   -2.4140    0.9687 H   0  0  0  0  0  0  0  0  0  0  0  0
    1.5202   -0.6774    1.4241 H   0  0  0  0  0  0  0  0  0  0  0  0
   -0.0601    2.0159   -1.8255 H   0  0  0  0  0  0  0  0  0  0  0  0
   -2.4376   -1.4439    0.2076 H   0  0  0  0  0  0  0  0  0  0  0  0
   -1.1108   -0.6971    1.1358 H   0  0  0  0  0  0  0  0  0  0  0  0
   -1.0013   -0.8993   -0.6321 H   0  0  0  0  0  0  0  0  0  0  0  0
   -4.0371    2.6696   -0.6912 H   0  0  0  0  0  0  0  0  0  0  0  0
   -6.3179    3.0174    0.2383 H   0  0  0  0  0  0  0  0  0  0  0  0
   -5.9639   -0.2110    2.7695 H   0  0  0  0  0  0  0  0  0  0  0  0
   -3.6649   -0.7064    1.9965 H   0  0  0  0  0  0  0  0  0  0  0  0
    3.0602    1.6762   -1.8582 H   0  0  0  0  0  0  0  0  0  0  0  0
    4.7321   -0.0866   -2.3162 H   0  0  0  0  0  0  0  0  0  0  0  0
  1  2  1  0
  2  3  1  0
  3  4  2  0
  4  5  1  0
  5  6  2  0
  6  7  1  0
  7  8  2  0
  7  9  2  0
  7 10  1  0
 10 11  1  0
 11 12  2  3
 12 13  1  0
 12 14  1  0
 14 15  2  0
 15 16  1  0
 16 17  2  0
 17 18  1  0
 18 19  2  0
  6 20  1  0
 20 21  2  0
 21  3  1  0
 19 14  1  0
  1 22  1  0
  1 23  1  0
  1 24  1  0
  4 25  1  0
  5 26  1  0
 10 27  1  0
 13 28  1  0
 13 29  1  0
 13 30  1  0
 15 31  1  0
 16 32  1  0
 18 33  1  0
 19 34  1  0
 20 35  1  0
 21 36  1  0
M  END
$$$$
