
     RDKit          3D

 61 64  0  0  0  0  0  0  0  0999 V2000
    8.4585   -4.1712    1.8774 C   0  0  0  0  0  0  0  0  0  0  0  0
    7.2895   -3.2931    2.2497 C   0  0  0  0  0  0  0  0  0  0  0  0
    6.7697   -3.3755    3.3564 O   0  0  0  0  0  0  0  0  0  0  0  0
    6.9397   -2.4308    1.2250 N   0  0  0  0  0  0  0  0  0  0  0  0
    5.9112   -1.4660    1.2277 C   0  0  0  0  0  0  0  0  0  0  0  0
    5.0677   -1.2267    2.3167 C   0  0  0  0  0  0  0  0  0  0  0  0
    4.0702   -0.2488    2.2417 C   0  0  0  0  0  0  0  0  0  0  0  0
    3.9123    0.4895    1.0677 C   0  0  0  0  0  0  0  0  0  0  0  0
    2.6339    1.7202    0.9859 S   0  0  0  0  0  6  0  0  0  0  0  0
    2.8277    2.6087    2.1106 O   0  0  0  0  0  0  0  0  0  0  0  0
    2.5682    2.2150   -0.3736 O   0  0  0  0  0  0  0  0  0  0  0  0
    1.2242    0.8029    1.2582 N   0  0  0  0  0  0  0  0  0  0  0  0
    0.8628   -0.1712    0.1731 C   0  0  0  0  0  0  0  0  0  0  0  0
   -0.3100    0.3301   -0.6867 C   0  0  0  0  0  0  0  0  0  0  0  0
   -1.5506    0.5071    0.1198 N   0  0  0  0  0  0  0  0  0  0  0  0
   -2.4638    1.3220   -0.4815 C   0  0  0  0  0  0  0  0  0  0  0  0
   -2.5847    2.6199   -0.3255 N   0  0  0  0  0  0  0  0  0  0  0  0
   -3.6202    2.9969   -1.1413 C   0  0  0  0  0  0  0  0  0  0  0  0
   -4.1530    4.2742   -1.3707 C   0  0  0  0  0  0  0  0  0  0  0  0
   -5.2264    4.4082   -2.2594 C   0  0  0  0  0  0  0  0  0  0  0  0
   -5.7599    3.2924   -2.9068 C   0  0  0  0  0  0  0  0  0  0  0  0
   -5.2421    2.0101   -2.6900 C   0  0  0  0  0  0  0  0  0  0  0  0
   -4.1675    1.8989   -1.7979 C   0  0  0  0  0  0  0  0  0  0  0  0
   -3.4269    0.8321   -1.3362 N   0  0  0  0  0  0  0  0  0  0  0  0
   -3.6557   -0.5582   -1.6812 C   0  0  0  0  0  0  0  0  0  0  0  0
   -4.8413   -1.1999   -0.9378 C   0  0  0  0  0  0  0  0  0  0  0  0
   -5.1368   -2.5786   -1.5321 C   0  0  0  0  0  0  0  0  0  0  0  0
   -4.5765   -1.3299    0.5638 C   0  0  0  0  0  0  0  0  0  0  0  0
   -1.2684    0.8740    1.5359 C   0  0  0  0  0  0  0  0  0  0  0  0
    0.0513    1.6466    1.6855 C   0  0  0  0  0  0  0  0  0  0  0  0
    4.7479    0.2687   -0.0270 C   0  0  0  0  0  0  0  0  0  0  0  0
    5.7436   -0.7089    0.0576 C   0  0  0  0  0  0  0  0  0  0  0  0
    9.3849   -3.5954    1.9519 H   0  0  0  0  0  0  0  0  0  0  0  0
    8.5069   -5.0236    2.5613 H   0  0  0  0  0  0  0  0  0  0  0  0
    8.3426   -4.5568    0.8601 H   0  0  0  0  0  0  0  0  0  0  0  0
    7.4886   -2.4916    0.3763 H   0  0  0  0  0  0  0  0  0  0  0  0
    5.1633   -1.7807    3.2464 H   0  0  0  0  0  0  0  0  0  0  0  0
    3.4261   -0.0673    3.0998 H   0  0  0  0  0  0  0  0  0  0  0  0
    0.6003   -1.1197    0.6578 H   0  0  0  0  0  0  0  0  0  0  0  0
    1.7217   -0.3824   -0.4716 H   0  0  0  0  0  0  0  0  0  0  0  0
   -0.5027   -0.3982   -1.4828 H   0  0  0  0  0  0  0  0  0  0  0  0
   -0.0258    1.2764   -1.1670 H   0  0  0  0  0  0  0  0  0  0  0  0
   -3.7328    5.1355   -0.8639 H   0  0  0  0  0  0  0  0  0  0  0  0
   -5.6474    5.3934   -2.4440 H   0  0  0  0  0  0  0  0  0  0  0  0
   -6.5955    3.4217   -3.5918 H   0  0  0  0  0  0  0  0  0  0  0  0
   -5.6634    1.1470   -3.1931 H   0  0  0  0  0  0  0  0  0  0  0  0
   -2.7375   -1.1261   -1.4999 H   0  0  0  0  0  0  0  0  0  0  0  0
   -3.8244   -0.5851   -2.7652 H   0  0  0  0  0  0  0  0  0  0  0  0
   -5.7360   -0.5788   -1.0703 H   0  0  0  0  0  0  0  0  0  0  0  0
   -5.3794   -2.4986   -2.5969 H   0  0  0  0  0  0  0  0  0  0  0  0
   -5.9910   -3.0452   -1.0306 H   0  0  0  0  0  0  0  0  0  0  0  0
   -4.2759   -3.2481   -1.4295 H   0  0  0  0  0  0  0  0  0  0  0  0
   -4.4678   -0.3480    1.0340 H   0  0  0  0  0  0  0  0  0  0  0  0
   -3.6655   -1.9059    0.7590 H   0  0  0  0  0  0  0  0  0  0  0  0
   -5.4095   -1.8380    1.0619 H   0  0  0  0  0  0  0  0  0  0  0  0
   -2.0932    1.4496    1.9761 H   0  0  0  0  0  0  0  0  0  0  0  0
   -1.2110   -0.0590    2.1112 H   0  0  0  0  0  0  0  0  0  0  0  0
    0.0137    2.5679    1.0923 H   0  0  0  0  0  0  0  0  0  0  0  0
    0.1911    1.9145    2.7385 H   0  0  0  0  0  0  0  0  0  0  0  0
    4.6370    0.8499   -0.9400 H   0  0  0  0  0  0  0  0  0  0  0  0
    6.3880   -0.8665   -0.8041 H   0  0  0  0  0  0  0  0  0  0  0  0
  1  2  1  0
  2  3  2  0
  2  4  1  0
  4  5  1  0
  5  6  2  0
  6  7  1  0
  7  8  2  0
  8  9  1  0
  9 10  2  0
  9 11  2  0
  9 12  1  0
 12 13  1  0
 13 14  1  0
 14 15  1  0
 15 16  1  0
 16 17  2  0
 17 18  1  0
 18 19  2  0
 19 20  1  0
 20 21  2  0
 21 22  1  0
 22 23  2  0
 23 24  1  0
 24 25  1  0
 25 26  1  0
 26 27  1  0
 26 28  1  0
 15 29  1  0
 29 30  1  0
  8 31  1  0
 31 32  2  0
 32  5  1  0
 30 12  1  0
 24 16  1  0
 23 18  1  0
  1 33  1  0
  1 34  1  0
  1 35  1  0
  4 36  1  0
  6 37  1  0
  7 38  1  0
 13 39  1  0
 13 40  1  0
 14 41  1  0
 14 42  1  0
 19 43  1  0
 20 44  1  0
 21 45  1  0
 22 46  1  0
 25 47  1  0
 25 48  1  0
 26 49  1  0
 27 50  1  0
 27 51  1  0
 27 52  1  0
 28 53  1  0
 28 54  1  0
 28 55  1  0
 29 56  1  0
 29 57  1  0
 30 58  1  0
 30 59  1  0
 31 60  1  0
 32 61  1  0
M  END
$$$$
