
     RDKit          3D

 43 45  0  0  0  0  0  0  0  0999 V2000
   -5.7304   -0.4150    0.3243 C   0  0  0  0  0  0  0  0  0  0  0  0
   -4.8751   -1.4892   -0.1784 N   0  0  0  0  0  0  0  0  0  0  0  0
   -4.0991   -1.0539   -1.3622 C   0  0  0  0  0  0  0  0  0  0  0  0
   -2.9284   -0.0802   -1.0758 C   0  0  0  0  0  0  0  0  0  0  0  0
   -2.0525   -0.6284   -0.0149 N   0  0  0  0  0  0  0  0  0  0  0  0
   -0.8213    0.0222    0.0953 C   0  0  0  0  0  0  0  0  0  0  0  0
    0.2115   -0.4751   -0.7238 C   0  0  0  0  0  0  0  0  0  0  0  0
    1.5067    0.0590   -0.7025 C   0  0  0  0  0  0  0  0  0  0  0  0
    1.8110    1.1161    0.1570 C   0  0  0  0  0  0  0  0  0  0  0  0
    3.1616    1.7281    0.2001 C   0  0  0  0  0  0  0  0  0  0  0  0
    3.2551    2.9374    0.3915 O   0  0  0  0  0  0  0  0  0  0  0  0
    4.3947    0.9222    0.0170 C   0  0  0  0  0  0  0  0  0  0  0  0
    4.4991   -0.3870    0.5039 C   0  0  0  0  0  0  0  0  0  0  0  0
    5.6844   -1.1055    0.3227 C   0  0  0  0  0  0  0  0  0  0  0  0
    6.7636   -0.5109   -0.3313 C   0  0  0  0  0  0  0  0  0  0  0  0
    8.3645   -1.4861   -0.5734 Br  0  0  0  0  0  0  0  0  0  0  0  0
    6.6743    0.7990   -0.7998 C   0  0  0  0  0  0  0  0  0  0  0  0
    5.4908    1.5185   -0.6194 C   0  0  0  0  0  0  0  0  0  0  0  0
    0.8075    1.6621    0.9578 C   0  0  0  0  0  0  0  0  0  0  0  0
   -0.4847    1.1127    0.9153 C   0  0  0  0  0  0  0  0  0  0  0  0
   -1.4743    1.7711    1.7350 N   0  0  0  0  0  4  0  0  0  0  0  0
   -1.3975    1.5880    2.9581 O   0  0  0  0  0  0  0  0  0  0  0  0
   -2.3094    2.4831    1.1612 O   0  0  0  0  0  1  0  0  0  0  0  0
   -2.7838   -1.0043    1.2120 C   0  0  0  0  0  0  0  0  0  0  0  0
   -3.9398   -1.9748    0.8630 C   0  0  0  0  0  0  0  0  0  0  0  0
   -6.3203   -0.7668    1.1781 H   0  0  0  0  0  0  0  0  0  0  0  0
   -5.1749    0.4743    0.6380 H   0  0  0  0  0  0  0  0  0  0  0  0
   -6.4489   -0.1116   -0.4453 H   0  0  0  0  0  0  0  0  0  0  0  0
   -3.6861   -1.9561   -1.8331 H   0  0  0  0  0  0  0  0  0  0  0  0
   -4.7692   -0.6120   -2.1099 H   0  0  0  0  0  0  0  0  0  0  0  0
   -2.3648    0.0584   -2.0070 H   0  0  0  0  0  0  0  0  0  0  0  0
   -3.3203    0.8991   -0.7785 H   0  0  0  0  0  0  0  0  0  0  0  0
    0.0002   -1.3110   -1.3909 H   0  0  0  0  0  0  0  0  0  0  0  0
    2.2540   -0.3562   -1.3748 H   0  0  0  0  0  0  0  0  0  0  0  0
    3.6790   -0.8554    1.0423 H   0  0  0  0  0  0  0  0  0  0  0  0
    5.7601   -2.1215    0.7028 H   0  0  0  0  0  0  0  0  0  0  0  0
    7.5174    1.2705   -1.2985 H   0  0  0  0  0  0  0  0  0  0  0  0
    5.4254    2.5457   -0.9743 H   0  0  0  0  0  0  0  0  0  0  0  0
    1.0270    2.5136    1.6010 H   0  0  0  0  0  0  0  0  0  0  0  0
   -2.1045   -1.5043    1.9127 H   0  0  0  0  0  0  0  0  0  0  0  0
   -3.2035   -0.1277    1.7130 H   0  0  0  0  0  0  0  0  0  0  0  0
   -3.5052   -2.9180    0.5057 H   0  0  0  0  0  0  0  0  0  0  0  0
   -4.4935   -2.2299    1.7749 H   0  0  0  0  0  0  0  0  0  0  0  0
  1  2  1  0
  2  3  1  0
  3  4  1  0
  4  5  1  0
  5  6  1  0
  6  7  2  0
  7  8  1  0
  8  9  2  0
  9 10  1  0
 10 11  2  0
 10 12  1  0
 12 13  2  0
 13 14  1  0
 14 15  2  0
 15 16  1  0
 15 17  1  0
 17 18  2  0
  9 19  1  0
 19 20  2  0
 20 21  1  0
 21 22  2  0
 21 23  1  0
  5 24  1  0
 24 25  1  0
 25  2  1  0
 20  6  1  0
 18 12  1  0
  1 26  1  0
  1 27  1  0
  1 28  1  0
  3 29  1  0
  3 30  1  0
  4 31  1  0
  4 32  1  0
  7 33  1  0
  8 34  1  0
 13 35  1  0
 14 36  1  0
 17 37  1  0
 18 38  1  0
 19 39  1  0
 24 40  1  0
 24 41  1  0
 25 42  1  0
 25 43  1  0
M  CHG  2  21   1  23  -1
M  END
$$$$
