
     RDKit          3D

 49 51  0  0  0  0  0  0  0  0999 V2000
   -5.7386   -0.2202    1.3689 C   0  0  0  0  0  0  0  0  0  0  0  0
   -4.6892    0.4371    0.5211 C   0  0  0  0  0  0  0  0  0  0  0  0
   -4.9777    1.6144   -0.1787 C   0  0  0  0  0  0  0  0  0  0  0  0
   -4.0153    2.2072   -1.0022 C   0  0  0  0  0  0  0  0  0  0  0  0
   -4.3157    3.4907   -1.7177 C   0  0  0  0  0  0  0  0  0  0  0  0
   -2.7492    1.6150   -1.1061 C   0  0  0  0  0  0  0  0  0  0  0  0
   -2.4461    0.4299   -0.4224 C   0  0  0  0  0  0  0  0  0  0  0  0
   -1.1537   -0.1002   -0.6082 N   0  0  0  0  0  0  0  0  0  0  0  0
   -0.5770   -1.1983    0.0218 C   0  0  0  0  0  0  0  0  0  0  0  0
   -1.1108   -1.8698    0.9015 O   0  0  0  0  0  0  0  0  0  0  0  0
    0.8576   -1.4914   -0.5065 C   0  0  0  0  0  0  0  0  0  0  0  0
    1.8329   -0.6083    0.0728 O   0  0  0  0  0  0  0  0  0  0  0  0
    1.9099    0.6246   -0.4744 C   0  0  0  0  0  0  0  0  0  0  0  0
    1.2014    1.0386   -1.3809 O   0  0  0  0  0  0  0  0  0  0  0  0
    2.9741    1.4309    0.1806 C   0  0  0  0  0  0  0  0  0  0  0  0
    3.2037    2.7328   -0.2910 C   0  0  0  0  0  0  0  0  0  0  0  0
    4.1917    3.5322    0.2909 C   0  0  0  0  0  0  0  0  0  0  0  0
    4.9464    3.0254    1.3442 C   0  0  0  0  0  0  0  0  0  0  0  0
    5.9194    3.7682    1.9428 O   0  0  0  0  0  0  0  0  0  0  0  0
    4.7318    1.7369    1.8217 C   0  0  0  0  0  0  0  0  0  0  0  0
    3.7455    0.9356    1.2412 C   0  0  0  0  0  0  0  0  0  0  0  0
    1.3169   -2.9164   -0.2328 C   0  0  0  0  0  0  0  0  0  0  0  0
    1.3941   -3.8489   -1.2798 C   0  0  0  0  0  0  0  0  0  0  0  0
    1.8205   -5.1564   -1.0372 C   0  0  0  0  0  0  0  0  0  0  0  0
    2.1713   -5.5494    0.2525 C   0  0  0  0  0  0  0  0  0  0  0  0
    2.0942   -4.6373    1.3024 C   0  0  0  0  0  0  0  0  0  0  0  0
    1.6693   -3.3297    1.0624 C   0  0  0  0  0  0  0  0  0  0  0  0
   -3.4254   -0.1570    0.3799 C   0  0  0  0  0  0  0  0  0  0  0  0
   -6.2898   -0.9574    0.7768 H   0  0  0  0  0  0  0  0  0  0  0  0
   -5.2851   -0.7224    2.2301 H   0  0  0  0  0  0  0  0  0  0  0  0
   -6.4456    0.5189    1.7602 H   0  0  0  0  0  0  0  0  0  0  0  0
   -5.9606    2.0718   -0.0812 H   0  0  0  0  0  0  0  0  0  0  0  0
   -3.7312    3.5711   -2.6401 H   0  0  0  0  0  0  0  0  0  0  0  0
   -5.3731    3.5424   -1.9982 H   0  0  0  0  0  0  0  0  0  0  0  0
   -4.0779    4.3424   -1.0730 H   0  0  0  0  0  0  0  0  0  0  0  0
   -1.9955    2.0890   -1.7315 H   0  0  0  0  0  0  0  0  0  0  0  0
   -0.5384    0.4385   -1.2195 H   0  0  0  0  0  0  0  0  0  0  0  0
    0.8503   -1.3572   -1.5975 H   0  0  0  0  0  0  0  0  0  0  0  0
    2.6148    3.1299   -1.1160 H   0  0  0  0  0  0  0  0  0  0  0  0
    4.3557    4.5361   -0.0886 H   0  0  0  0  0  0  0  0  0  0  0  0
    5.9513    4.6435    1.5227 H   0  0  0  0  0  0  0  0  0  0  0  0
    5.3310    1.3565    2.6450 H   0  0  0  0  0  0  0  0  0  0  0  0
    3.5933   -0.0692    1.6283 H   0  0  0  0  0  0  0  0  0  0  0  0
    1.1220   -3.5676   -2.2948 H   0  0  0  0  0  0  0  0  0  0  0  0
    1.8752   -5.8707   -1.8549 H   0  0  0  0  0  0  0  0  0  0  0  0
    2.4980   -6.5689    0.4407 H   0  0  0  0  0  0  0  0  0  0  0  0
    2.3566   -4.9449    2.3112 H   0  0  0  0  0  0  0  0  0  0  0  0
    1.5992   -2.6337    1.8963 H   0  0  0  0  0  0  0  0  0  0  0  0
   -3.2325   -1.0843    0.9111 H   0  0  0  0  0  0  0  0  0  0  0  0
  1  2  1  0
  2  3  2  0
  3  4  1  0
  4  5  1  0
  4  6  2  0
  6  7  1  0
  7  8  1  0
  8  9  1  0
  9 10  2  0
  9 11  1  0
 11 12  1  0
 12 13  1  0
 13 14  2  0
 13 15  1  0
 15 16  2  0
 16 17  1  0
 17 18  2  0
 18 19  1  0
 18 20  1  0
 20 21  2  0
 11 22  1  0
 22 23  2  0
 23 24  1  0
 24 25  2  0
 25 26  1  0
 26 27  2  0
  7 28  2  0
 28  2  1  0
 21 15  1  0
 27 22  1  0
  1 29  1  0
  1 30  1  0
  1 31  1  0
  3 32  1  0
  5 33  1  0
  5 34  1  0
  5 35  1  0
  6 36  1  0
  8 37  1  0
 11 38  1  0
 16 39  1  0
 17 40  1  0
 19 41  1  0
 20 42  1  0
 21 43  1  0
 23 44  1  0
 24 45  1  0
 25 46  1  0
 26 47  1  0
 27 48  1  0
 28 49  1  0
M  END
$$$$
