
     RDKit          3D

 43 44  0  0  0  0  0  0  0  0999 V2000
    5.7379    2.3648    1.0551 C   0  0  0  0  0  0  0  0  0  0  0  0
    6.0605    0.9397    0.6438 C   0  0  0  0  0  0  0  0  0  0  0  0
    4.8877    0.1154    0.7312 O   0  0  0  0  0  0  0  0  0  0  0  0
    4.0820    0.1206   -0.3685 C   0  0  0  0  0  0  0  0  0  0  0  0
    4.2707    0.7861   -1.3825 O   0  0  0  0  0  0  0  0  0  0  0  0
    2.8934   -0.8078   -0.1500 C   0  0  0  0  0  0  0  0  0  0  0  0
    2.1029   -0.9093   -1.3645 N   0  0  0  0  0  0  0  0  0  0  0  0
    1.1111   -1.8528   -1.4875 C   0  0  0  0  0  0  0  0  0  0  0  0
    0.9185   -2.7256   -0.6466 O   0  0  0  0  0  0  0  0  0  0  0  0
    0.2583   -1.7080   -2.7389 C   0  0  0  0  0  0  0  0  0  0  0  0
   -1.4181   -1.1460   -2.3118 S   0  0  0  0  0  0  0  0  0  0  0  0
   -1.0569    0.3385   -1.4886 C   0  0  0  0  0  0  0  0  0  0  0  0
   -0.0514    1.1306   -1.7923 N   0  0  0  0  0  0  0  0  0  0  0  0
    0.1112    1.9533   -0.7116 N   0  0  0  0  0  0  0  0  0  0  0  0
   -0.7768    1.6891    0.2347 N   0  0  0  0  0  0  0  0  0  0  0  0
   -1.6022    0.7353   -0.2771 N   0  0  0  0  0  0  0  0  0  0  0  0
   -2.7119    0.2600    0.4639 C   0  0  0  0  0  0  0  0  0  0  0  0
   -2.5222    0.0833    1.8495 C   0  0  0  0  0  0  0  0  0  0  0  0
   -3.5351   -0.4462    2.6530 C   0  0  0  0  0  0  0  0  0  0  0  0
   -3.2923   -0.6942    4.1125 C   0  0  0  0  0  0  0  0  0  0  0  0
   -4.7477   -0.7979    2.0620 C   0  0  0  0  0  0  0  0  0  0  0  0
   -4.9588   -0.5771    0.6989 C   0  0  0  0  0  0  0  0  0  0  0  0
   -3.9607   -0.0175   -0.1175 C   0  0  0  0  0  0  0  0  0  0  0  0
   -4.3493    0.3124   -1.5333 C   0  0  0  0  0  0  0  0  0  0  0  0
    4.9840    2.8031    0.3930 H   0  0  0  0  0  0  0  0  0  0  0  0
    6.6366    2.9899    1.0284 H   0  0  0  0  0  0  0  0  0  0  0  0
    5.3228    2.3898    2.0677 H   0  0  0  0  0  0  0  0  0  0  0  0
    6.4960    0.9007   -0.3611 H   0  0  0  0  0  0  0  0  0  0  0  0
    6.8028    0.5197    1.3297 H   0  0  0  0  0  0  0  0  0  0  0  0
    3.2445   -1.8066    0.1274 H   0  0  0  0  0  0  0  0  0  0  0  0
    2.2504   -0.3975    0.6376 H   0  0  0  0  0  0  0  0  0  0  0  0
    2.0406   -0.0613   -1.9266 H   0  0  0  0  0  0  0  0  0  0  0  0
    0.7172   -1.0163   -3.4545 H   0  0  0  0  0  0  0  0  0  0  0  0
    0.1969   -2.6886   -3.2245 H   0  0  0  0  0  0  0  0  0  0  0  0
   -1.5618    0.3158    2.3082 H   0  0  0  0  0  0  0  0  0  0  0  0
   -2.7158    0.1284    4.5533 H   0  0  0  0  0  0  0  0  0  0  0  0
   -2.7393   -1.6317    4.2446 H   0  0  0  0  0  0  0  0  0  0  0  0
   -4.2372   -0.7650    4.6653 H   0  0  0  0  0  0  0  0  0  0  0  0
   -5.5506   -1.2281    2.6620 H   0  0  0  0  0  0  0  0  0  0  0  0
   -5.9338   -0.8204    0.2788 H   0  0  0  0  0  0  0  0  0  0  0  0
   -5.3629    0.7294   -1.5538 H   0  0  0  0  0  0  0  0  0  0  0  0
   -3.7036    1.0784   -1.9736 H   0  0  0  0  0  0  0  0  0  0  0  0
   -4.3375   -0.5865   -2.1579 H   0  0  0  0  0  0  0  0  0  0  0  0
  1  2  1  0
  2  3  1  0
  3  4  1  0
  4  5  2  0
  4  6  1  0
  6  7  1  0
  7  8  1  0
  8  9  2  0
  8 10  1  0
 10 11  1  0
 11 12  1  0
 12 13  2  0
 13 14  1  0
 14 15  2  0
 15 16  1  0
 16 17  1  0
 17 18  2  0
 18 19  1  0
 19 20  1  0
 19 21  2  0
 21 22  1  0
 22 23  2  0
 23 24  1  0
 16 12  1  0
 23 17  1  0
  1 25  1  0
  1 26  1  0
  1 27  1  0
  2 28  1  0
  2 29  1  0
  6 30  1  0
  6 31  1  0
  7 32  1  0
 10 33  1  0
 10 34  1  0
 18 35  1  0
 20 36  1  0
 20 37  1  0
 20 38  1  0
 21 39  1  0
 22 40  1  0
 24 41  1  0
 24 42  1  0
 24 43  1  0
M  END
$$$$
