
     RDKit          3D

 54 58  0  0  0  0  0  0  0  0999 V2000
   -4.7780   -3.9884    1.6072 C   0  0  0  0  0  0  0  0  0  0  0  0
   -3.8041   -2.8531    1.3225 C   0  0  0  0  0  0  0  0  0  0  0  0
   -3.8489   -2.3644   -0.1388 C   0  0  0  0  0  0  0  0  0  0  0  0
   -5.1901   -1.7307   -0.5226 C   0  0  0  0  0  0  0  0  0  0  0  0
   -2.7155   -1.4743   -0.4477 N   0  0  0  0  0  0  0  0  0  0  0  0
   -1.7675   -1.8946   -1.3786 C   0  0  0  0  0  0  0  0  0  0  0  0
   -0.7124   -1.2380   -1.7567 N   0  0  0  0  0  0  0  0  0  0  0  0
   -0.5825   -0.0408   -1.1409 C   0  0  0  0  0  0  0  0  0  0  0  0
   -1.4330    0.5122   -0.2069 C   0  0  0  0  0  0  0  0  0  0  0  0
   -2.5997   -0.2307    0.1994 C   0  0  0  0  0  0  0  0  0  0  0  0
   -3.4025    0.1901    1.0253 O   0  0  0  0  0  0  0  0  0  0  0  0
   -0.9177    1.7735    0.1474 C   0  0  0  0  0  0  0  0  0  0  0  0
   -1.3677    2.7219    1.0051 N   0  0  0  0  0  0  0  0  0  0  0  0
   -0.6011    3.8210    1.0770 C   0  0  0  0  0  0  0  0  0  0  0  0
   -0.9918    4.8382    1.9381 C   0  0  0  0  0  0  0  0  0  0  0  0
   -0.2492    6.0125    2.0683 C   0  0  0  0  0  0  0  0  0  0  0  0
    0.9091    6.1747    1.3217 C   0  0  0  0  0  0  0  0  0  0  0  0
    1.3140    5.1610    0.4518 C   0  0  0  0  0  0  0  0  0  0  0  0
    0.5855    3.9865    0.3118 C   0  0  0  0  0  0  0  0  0  0  0  0
    1.0383    3.0550   -0.5457 N   0  0  0  0  0  0  0  0  0  0  0  0
    0.2511    1.9600   -0.5874 C   0  0  0  0  0  0  0  0  0  0  0  0
    0.4537    0.8357   -1.3508 N   0  0  0  0  0  0  0  0  0  0  0  0
    1.5671    0.6395   -2.2624 C   0  0  0  0  0  0  0  0  0  0  0  0
    2.7297   -0.0370   -1.5788 C   0  0  0  0  0  0  0  0  0  0  0  0
    2.8460   -1.4336   -1.5809 C   0  0  0  0  0  0  0  0  0  0  0  0
    3.9167   -2.0645   -0.9370 C   0  0  0  0  0  0  0  0  0  0  0  0
    4.8835   -1.3066   -0.2771 C   0  0  0  0  0  0  0  0  0  0  0  0
    5.9745   -1.7949    0.3878 O   0  0  0  0  0  0  0  0  0  0  0  0
    6.1269   -3.2080    0.4202 C   0  0  0  0  0  0  0  0  0  0  0  0
    4.7667    0.0847   -0.2652 C   0  0  0  0  0  0  0  0  0  0  0  0
    3.6992    0.7172   -0.9067 C   0  0  0  0  0  0  0  0  0  0  0  0
   -4.6131   -4.8290    0.9259 H   0  0  0  0  0  0  0  0  0  0  0  0
   -4.6414   -4.3515    2.6310 H   0  0  0  0  0  0  0  0  0  0  0  0
   -5.8165   -3.6595    1.5086 H   0  0  0  0  0  0  0  0  0  0  0  0
   -4.0120   -2.0321    2.0172 H   0  0  0  0  0  0  0  0  0  0  0  0
   -2.7897   -3.2041    1.5511 H   0  0  0  0  0  0  0  0  0  0  0  0
   -3.7414   -3.2538   -0.7735 H   0  0  0  0  0  0  0  0  0  0  0  0
   -5.9944   -2.4729   -0.5024 H   0  0  0  0  0  0  0  0  0  0  0  0
   -5.1469   -1.3195   -1.5372 H   0  0  0  0  0  0  0  0  0  0  0  0
   -5.4729   -0.9195    0.1547 H   0  0  0  0  0  0  0  0  0  0  0  0
   -1.9652   -2.8854   -1.8176 H   0  0  0  0  0  0  0  0  0  0  0  0
   -1.9000    4.7104    2.5235 H   0  0  0  0  0  0  0  0  0  0  0  0
   -0.5785    6.7919    2.7507 H   0  0  0  0  0  0  0  0  0  0  0  0
    1.4987    7.0834    1.4122 H   0  0  0  0  0  0  0  0  0  0  0  0
    2.2224    5.2900   -0.1321 H   0  0  0  0  0  0  0  0  0  0  0  0
    1.8642    1.6155   -2.6639 H   0  0  0  0  0  0  0  0  0  0  0  0
    1.2159    0.0493   -3.1168 H   0  0  0  0  0  0  0  0  0  0  0  0
    2.0947   -2.0429   -2.0806 H   0  0  0  0  0  0  0  0  0  0  0  0
    3.9612   -3.1477   -0.9679 H   0  0  0  0  0  0  0  0  0  0  0  0
    5.2854   -3.6846    0.9338 H   0  0  0  0  0  0  0  0  0  0  0  0
    6.2570   -3.6142   -0.5884 H   0  0  0  0  0  0  0  0  0  0  0  0
    7.0343   -3.4334    0.9888 H   0  0  0  0  0  0  0  0  0  0  0  0
    5.5116    0.6829    0.2538 H   0  0  0  0  0  0  0  0  0  0  0  0
    3.6260    1.8027   -0.8702 H   0  0  0  0  0  0  0  0  0  0  0  0
  1  2  1  0
  2  3  1  0
  3  4  1  0
  3  5  1  0
  5  6  1  0
  6  7  2  0
  7  8  1  0
  8  9  2  0
  9 10  1  0
 10 11  2  0
  9 12  1  0
 12 13  2  0
 13 14  1  0
 14 15  2  0
 15 16  1  0
 16 17  2  0
 17 18  1  0
 18 19  2  0
 19 20  1  0
 20 21  2  0
 21 22  1  0
 22 23  1  0
 23 24  1  0
 24 25  2  0
 25 26  1  0
 26 27  2  0
 27 28  1  0
 28 29  1  0
 27 30  1  0
 30 31  2  0
 10  5  1  0
 21 12  1  0
 31 24  1  0
 22  8  1  0
 19 14  1  0
  1 32  1  0
  1 33  1  0
  1 34  1  0
  2 35  1  0
  2 36  1  0
  3 37  1  0
  4 38  1  0
  4 39  1  0
  4 40  1  0
  6 41  1  0
 15 42  1  0
 16 43  1  0
 17 44  1  0
 18 45  1  0
 23 46  1  0
 23 47  1  0
 25 48  1  0
 26 49  1  0
 29 50  1  0
 29 51  1  0
 29 52  1  0
 30 53  1  0
 31 54  1  0
M  END
$$$$
