
     RDKit          3D

 40 42  0  0  0  0  0  0  0  0999 V2000
    4.8819    1.6493    2.1508 C   0  0  0  0  0  0  0  0  0  0  0  0
    4.6307    1.5556    0.6576 C   0  0  0  0  0  0  0  0  0  0  0  0
    3.6347    0.5609    0.3848 O   0  0  0  0  0  0  0  0  0  0  0  0
    2.3390    0.9847    0.4358 C   0  0  0  0  0  0  0  0  0  0  0  0
    1.9863    2.1259    0.6979 O   0  0  0  0  0  0  0  0  0  0  0  0
    1.4100   -0.1596    0.1254 C   0  0  0  0  0  0  0  0  0  0  0  0
    0.0958    0.1118    0.1534 N   0  0  0  0  0  0  0  0  0  0  0  0
   -0.7438   -0.8974   -0.1279 C   0  0  0  0  0  0  0  0  0  0  0  0
   -2.1493   -0.6607   -0.0912 N   0  0  0  0  0  0  0  0  0  0  0  0
   -2.7535    0.6127    0.0732 C   0  0  0  0  0  0  0  0  0  0  0  0
   -3.5276    0.8473    1.2240 C   0  0  0  0  0  0  0  0  0  0  0  0
   -4.1152    2.0916    1.4569 C   0  0  0  0  0  0  0  0  0  0  0  0
   -3.9334    3.1241    0.5447 C   0  0  0  0  0  0  0  0  0  0  0  0
   -3.1725    2.9088   -0.6033 C   0  0  0  0  0  0  0  0  0  0  0  0
   -2.5888    1.6553   -0.8610 C   0  0  0  0  0  0  0  0  0  0  0  0
   -1.7899    1.4895   -2.1245 C   0  0  0  0  0  0  0  0  0  0  0  0
   -0.2820   -2.1876   -0.4552 C   0  0  0  0  0  0  0  0  0  0  0  0
   -1.1083   -3.2898   -0.7969 C   0  0  0  0  0  0  0  0  0  0  0  0
   -0.5555   -4.5321   -1.0999 C   0  0  0  0  0  0  0  0  0  0  0  0
    0.8228   -4.6890   -1.0702 C   0  0  0  0  0  0  0  0  0  0  0  0
    1.6372   -3.6011   -0.7453 C   0  0  0  0  0  0  0  0  0  0  0  0
    1.1095   -2.3521   -0.4418 C   0  0  0  0  0  0  0  0  0  0  0  0
    1.9524   -1.3609   -0.1534 N   0  0  0  0  0  0  0  0  0  0  0  0
    5.6823    2.3630    2.3654 H   0  0  0  0  0  0  0  0  0  0  0  0
    3.9791    1.9665    2.6822 H   0  0  0  0  0  0  0  0  0  0  0  0
    5.1625    0.6713    2.5555 H   0  0  0  0  0  0  0  0  0  0  0  0
    5.5474    1.2378    0.1501 H   0  0  0  0  0  0  0  0  0  0  0  0
    4.3509    2.5276    0.2356 H   0  0  0  0  0  0  0  0  0  0  0  0
   -2.5560   -1.3306    0.5544 H   0  0  0  0  0  0  0  0  0  0  0  0
   -3.6644    0.0645    1.9649 H   0  0  0  0  0  0  0  0  0  0  0  0
   -4.7014    2.2572    2.3565 H   0  0  0  0  0  0  0  0  0  0  0  0
   -4.3771    4.0990    0.7272 H   0  0  0  0  0  0  0  0  0  0  0  0
   -3.0338    3.7287   -1.3050 H   0  0  0  0  0  0  0  0  0  0  0  0
   -2.1565    2.1637   -2.9067 H   0  0  0  0  0  0  0  0  0  0  0  0
   -0.7362    1.7191   -1.9420 H   0  0  0  0  0  0  0  0  0  0  0  0
   -1.8792    0.4749   -2.5251 H   0  0  0  0  0  0  0  0  0  0  0  0
   -2.1894   -3.1768   -0.8446 H   0  0  0  0  0  0  0  0  0  0  0  0
   -1.1975   -5.3690   -1.3635 H   0  0  0  0  0  0  0  0  0  0  0  0
    1.2710   -5.6511   -1.3058 H   0  0  0  0  0  0  0  0  0  0  0  0
    2.7177   -3.7330   -0.7331 H   0  0  0  0  0  0  0  0  0  0  0  0
  1  2  1  0
  2  3  1  0
  3  4  1  0
  4  5  2  0
  4  6  1  0
  6  7  2  0
  7  8  1  0
  8  9  1  0
  9 10  1  0
 10 11  2  0
 11 12  1  0
 12 13  2  0
 13 14  1  0
 14 15  2  0
 15 16  1  0
  8 17  2  0
 17 18  1  0
 18 19  2  0
 19 20  1  0
 20 21  2  0
 21 22  1  0
 22 23  2  0
 23  6  1  0
 15 10  1  0
 22 17  1  0
  1 24  1  0
  1 25  1  0
  1 26  1  0
  2 27  1  0
  2 28  1  0
  9 29  1  0
 11 30  1  0
 12 31  1  0
 13 32  1  0
 14 33  1  0
 16 34  1  0
 16 35  1  0
 16 36  1  0
 18 37  1  0
 19 38  1  0
 20 39  1  0
 21 40  1  0
M  END
$$$$
