
     RDKit          3D

 48 52  0  0  0  0  0  0  0  0999 V2000
    5.6683   -0.9568   -0.1941 C   0  0  0  0  0  0  0  0  0  0  0  0
    4.2299   -0.6377   -0.4713 C   0  0  0  0  0  0  0  0  0  0  0  0
    3.2943   -0.6181    0.5674 C   0  0  0  0  0  0  0  0  0  0  0  0
    1.9589   -0.2905    0.3144 C   0  0  0  0  0  0  0  0  0  0  0  0
    1.5275    0.0338   -0.9833 C   0  0  0  0  0  0  0  0  0  0  0  0
    0.0915    0.3986   -1.3037 C   0  0  0  0  0  0  0  0  0  0  0  0
   -0.1371    1.7627   -0.7789 C   0  0  0  0  0  0  0  0  0  0  0  0
   -1.1563    1.7744    0.1822 C   0  0  0  0  0  0  0  0  0  0  0  0
   -1.2362    3.0341    0.7082 C   0  0  0  0  0  0  0  0  0  0  0  0
   -1.9279    3.5122    1.7343 O   0  0  0  0  0  0  0  0  0  0  0  0
   -0.3730    3.8251   -0.0301 N   0  0  0  0  0  0  0  0  0  0  0  0
   -0.2036    5.2480    0.1615 C   0  0  0  0  0  0  0  0  0  0  0  0
    0.3223    3.0435   -0.9454 C   0  0  0  0  0  0  0  0  0  0  0  0
    1.2434    3.5070   -1.7817 O   0  0  0  0  0  0  0  0  0  0  0  0
   -1.7693    0.4379    0.3521 C   0  0  0  0  0  0  0  0  0  0  0  0
   -1.7854   -0.0295    1.7985 C   0  0  0  0  0  0  0  0  0  0  0  0
   -1.7539    0.7517    2.7579 O   0  0  0  0  0  0  0  0  0  0  0  0
   -2.0526   -1.3428    2.0680 N   0  0  0  0  0  0  0  0  0  0  0  0
   -2.4800   -2.3581    1.1926 C   0  0  0  0  0  0  0  0  0  0  0  0
   -3.2533   -3.3609    1.8130 C   0  0  0  0  0  0  0  0  0  0  0  0
   -3.8149   -4.4095    1.0837 C   0  0  0  0  0  0  0  0  0  0  0  0
   -3.5999   -4.4867   -0.2829 C   0  0  0  0  0  0  0  0  0  0  0  0
   -2.8031   -3.5276   -0.9065 C   0  0  0  0  0  0  0  0  0  0  0  0
   -2.2247   -2.4595   -0.1845 C   0  0  0  0  0  0  0  0  0  0  0  0
   -1.2543   -1.6353   -0.9600 C   0  0  0  0  0  0  0  0  0  0  0  0
   -0.7679   -2.1153   -1.9837 O   0  0  0  0  0  0  0  0  0  0  0  0
   -0.9083   -0.3826   -0.5207 N   0  0  0  0  0  0  0  0  0  0  0  0
    2.4801    0.0312   -2.0151 C   0  0  0  0  0  0  0  0  0  0  0  0
    3.8151   -0.2969   -1.7622 C   0  0  0  0  0  0  0  0  0  0  0  0
    6.1396   -1.4249   -1.0647 H   0  0  0  0  0  0  0  0  0  0  0  0
    5.7587   -1.6599    0.6406 H   0  0  0  0  0  0  0  0  0  0  0  0
    6.2138   -0.0411    0.0540 H   0  0  0  0  0  0  0  0  0  0  0  0
    3.5973   -0.8566    1.5841 H   0  0  0  0  0  0  0  0  0  0  0  0
    1.2582   -0.2816    1.1448 H   0  0  0  0  0  0  0  0  0  0  0  0
   -0.1397    0.3225   -2.3721 H   0  0  0  0  0  0  0  0  0  0  0  0
   -2.1537    2.7420    2.2989 H   0  0  0  0  0  0  0  0  0  0  0  0
   -0.2685    5.7395   -0.8127 H   0  0  0  0  0  0  0  0  0  0  0  0
   -0.9881    5.6400    0.8125 H   0  0  0  0  0  0  0  0  0  0  0  0
    0.7771    5.4162    0.6134 H   0  0  0  0  0  0  0  0  0  0  0  0
    1.4536    4.4293   -1.5670 H   0  0  0  0  0  0  0  0  0  0  0  0
   -2.7924    0.4262   -0.0416 H   0  0  0  0  0  0  0  0  0  0  0  0
   -2.1930   -1.4901    3.0616 H   0  0  0  0  0  0  0  0  0  0  0  0
   -3.4539   -3.3245    2.8826 H   0  0  0  0  0  0  0  0  0  0  0  0
   -4.4191   -5.1620    1.5849 H   0  0  0  0  0  0  0  0  0  0  0  0
   -4.0253   -5.3021   -0.8628 H   0  0  0  0  0  0  0  0  0  0  0  0
   -2.6063   -3.6346   -1.9737 H   0  0  0  0  0  0  0  0  0  0  0  0
    2.1845    0.2927   -3.0292 H   0  0  0  0  0  0  0  0  0  0  0  0
    4.5277   -0.2834   -2.5834 H   0  0  0  0  0  0  0  0  0  0  0  0
  1  2  1  0
  2  3  2  0
  3  4  1  0
  4  5  2  0
  5  6  1  0
  6  7  1  0
  7  8  1  0
  8  9  2  0
  9 10  1  0
  9 11  1  0
 11 12  1  0
 11 13  1  0
 13 14  1  0
  8 15  1  0
 15 16  1  0
 16 17  2  0
 16 18  1  0
 18 19  1  0
 19 20  2  0
 20 21  1  0
 21 22  2  0
 22 23  1  0
 23 24  2  0
 24 25  1  0
 25 26  2  0
 25 27  1  0
  5 28  1  0
 28 29  2  0
 29  2  1  0
 27  6  1  0
 13  7  2  0
 27 15  1  0
 24 19  1  0
  1 30  1  0
  1 31  1  0
  1 32  1  0
  3 33  1  0
  4 34  1  0
  6 35  1  0
 10 36  1  0
 12 37  1  0
 12 38  1  0
 12 39  1  0
 14 40  1  0
 15 41  1  0
 18 42  1  0
 20 43  1  0
 21 44  1  0
 22 45  1  0
 23 46  1  0
 28 47  1  0
 29 48  1  0
M  END
$$$$
