
     RDKit          3D

 43 45  0  0  0  0  0  0  0  0999 V2000
   -5.9493    2.3577    3.1528 C   0  0  0  0  0  0  0  0  0  0  0  0
   -4.9288    1.6539    2.2738 C   0  0  0  0  0  0  0  0  0  0  0  0
   -5.2475    0.1688    2.1261 C   0  0  0  0  0  0  0  0  0  0  0  0
   -4.2430   -0.4933    1.2329 C   0  0  0  0  0  0  0  0  0  0  0  0
   -4.3349   -0.5107   -0.0594 N   0  0  0  0  0  0  0  0  0  0  0  0
   -3.2449   -1.1779   -0.5706 N   0  0  0  0  0  0  0  0  0  0  0  0
   -3.0694   -1.3619   -1.9235 C   0  0  0  0  0  0  0  0  0  0  0  0
   -3.8120   -0.9858   -2.8244 O   0  0  0  0  0  0  0  0  0  0  0  0
   -1.8310   -2.0996   -2.2647 C   0  0  0  0  0  0  0  0  0  0  0  0
   -1.0044   -2.5092   -1.2865 C   0  0  0  0  0  0  0  0  0  0  0  0
    0.2599   -3.2737   -1.6195 C   0  0  0  0  0  0  0  0  0  0  0  0
    1.7646   -2.3737   -1.1167 S   0  0  0  0  0  0  0  0  0  0  0  0
    1.6416   -0.9320   -2.2312 C   0  0  0  0  0  0  0  0  0  0  0  0
    2.8501   -0.0013   -2.1514 C   0  0  0  0  0  0  0  0  0  0  0  0
    3.0990    0.7498   -3.0925 O   0  0  0  0  0  0  0  0  0  0  0  0
    3.5340   -0.0515   -0.9524 N   0  0  0  0  0  0  0  0  0  0  0  0
    4.6417    0.7136   -0.5449 C   0  0  0  0  0  0  0  0  0  0  0  0
    5.2075    1.7379   -1.3099 C   0  0  0  0  0  0  0  0  0  0  0  0
    6.3084    2.4542   -0.8287 C   0  0  0  0  0  0  0  0  0  0  0  0
    6.8406    2.1455    0.4158 C   0  0  0  0  0  0  0  0  0  0  0  0
    7.8950    2.8322    0.8744 F   0  0  0  0  0  0  0  0  0  0  0  0
    6.2923    1.1332    1.1914 C   0  0  0  0  0  0  0  0  0  0  0  0
    5.1924    0.4180    0.7112 C   0  0  0  0  0  0  0  0  0  0  0  0
   -1.2532   -2.2975    0.0558 N   0  0  0  0  0  0  0  0  0  0  0  0
   -2.3355   -1.6536    0.3350 C   0  0  0  0  0  0  0  0  0  0  0  0
   -2.8456   -1.2643    1.9451 S   0  0  0  0  0  0  0  0  0  0  0  0
   -6.9547    2.2772    2.7279 H   0  0  0  0  0  0  0  0  0  0  0  0
   -5.7031    3.4204    3.2434 H   0  0  0  0  0  0  0  0  0  0  0  0
   -5.9652    1.9257    4.1585 H   0  0  0  0  0  0  0  0  0  0  0  0
   -3.9292    1.7834    2.7053 H   0  0  0  0  0  0  0  0  0  0  0  0
   -4.9086    2.1329    1.2875 H   0  0  0  0  0  0  0  0  0  0  0  0
   -5.2602   -0.3216    3.1059 H   0  0  0  0  0  0  0  0  0  0  0  0
   -6.2406    0.0396    1.6800 H   0  0  0  0  0  0  0  0  0  0  0  0
   -1.6503   -2.2729   -3.3180 H   0  0  0  0  0  0  0  0  0  0  0  0
    0.3317   -3.5039   -2.6883 H   0  0  0  0  0  0  0  0  0  0  0  0
    0.2486   -4.2331   -1.0898 H   0  0  0  0  0  0  0  0  0  0  0  0
    0.7573   -0.3402   -1.9785 H   0  0  0  0  0  0  0  0  0  0  0  0
    1.5637   -1.2944   -3.2610 H   0  0  0  0  0  0  0  0  0  0  0  0
    3.2196   -0.7793   -0.3154 H   0  0  0  0  0  0  0  0  0  0  0  0
    4.8158    2.0056   -2.2864 H   0  0  0  0  0  0  0  0  0  0  0  0
    6.7500    3.2485   -1.4220 H   0  0  0  0  0  0  0  0  0  0  0  0
    6.7224    0.9063    2.1615 H   0  0  0  0  0  0  0  0  0  0  0  0
    4.7753   -0.3729    1.3294 H   0  0  0  0  0  0  0  0  0  0  0  0
  1  2  1  0
  2  3  1  0
  3  4  1  0
  4  5  2  0
  5  6  1  0
  6  7  1  0
  7  8  2  0
  7  9  1  0
  9 10  2  0
 10 11  1  0
 11 12  1  0
 12 13  1  0
 13 14  1  0
 14 15  2  0
 14 16  1  0
 16 17  1  0
 17 18  2  0
 18 19  1  0
 19 20  2  0
 20 21  1  0
 20 22  1  0
 22 23  2  0
 10 24  1  0
 24 25  2  0
 25 26  1  0
 26  4  1  0
 25  6  1  0
 23 17  1  0
  1 27  1  0
  1 28  1  0
  1 29  1  0
  2 30  1  0
  2 31  1  0
  3 32  1  0
  3 33  1  0
  9 34  1  0
 11 35  1  0
 11 36  1  0
 13 37  1  0
 13 38  1  0
 16 39  1  0
 18 40  1  0
 19 41  1  0
 22 42  1  0
 23 43  1  0
M  END
$$$$
