
     RDKit          3D

 45 47  0  0  0  0  0  0  0  0999 V2000
   -4.6751   -2.0877   -0.1446 C   0  0  0  0  0  0  0  0  0  0  0  0
   -3.3542   -1.6723   -0.7865 C   0  0  0  0  0  0  0  0  0  0  0  0
   -2.7181   -0.4593   -0.2509 N   0  0  0  0  0  0  0  0  0  0  0  0
   -3.5358    0.7582   -0.3705 C   0  0  0  0  0  0  0  0  0  0  0  0
   -3.9275    1.0941   -1.8067 C   0  0  0  0  0  0  0  0  0  0  0  0
   -2.2644   -0.6643    1.1415 C   0  0  0  0  0  0  0  0  0  0  0  0
   -1.1799    0.3058    1.5695 C   0  0  0  0  0  0  0  0  0  0  0  0
   -1.4376    1.3197    2.5059 C   0  0  0  0  0  0  0  0  0  0  0  0
   -2.6897    1.4252    3.0458 O   0  0  0  0  0  0  0  0  0  0  0  0
   -0.4458    2.2221    2.8945 C   0  0  0  0  0  0  0  0  0  0  0  0
    0.8311    2.1218    2.3458 C   0  0  0  0  0  0  0  0  0  0  0  0
    1.1100    1.1168    1.4144 C   0  0  0  0  0  0  0  0  0  0  0  0
    2.4607    1.0050    0.8313 C   0  0  0  0  0  0  0  0  0  0  0  0
    3.3502    1.7761    1.1743 O   0  0  0  0  0  0  0  0  0  0  0  0
    2.6690   -0.0728   -0.1746 C   0  0  0  0  0  0  0  0  0  0  0  0
    3.9617   -0.2928   -0.8497 C   0  0  0  0  0  0  0  0  0  0  0  0
    4.0324   -0.4347   -2.2449 C   0  0  0  0  0  0  0  0  0  0  0  0
    5.2584   -0.6519   -2.8794 C   0  0  0  0  0  0  0  0  0  0  0  0
    6.4289   -0.7265   -2.1283 C   0  0  0  0  0  0  0  0  0  0  0  0
    6.3756   -0.5799   -0.7442 C   0  0  0  0  0  0  0  0  0  0  0  0
    5.1499   -0.3632   -0.1092 C   0  0  0  0  0  0  0  0  0  0  0  0
    1.6221   -0.8733   -0.4256 C   0  0  0  0  0  0  0  0  0  0  0  0
    0.3710   -0.7956    0.1318 O   0  0  0  0  0  0  0  0  0  0  0  0
    0.1180    0.2133    1.0305 C   0  0  0  0  0  0  0  0  0  0  0  0
   -4.5632   -2.2800    0.9265 H   0  0  0  0  0  0  0  0  0  0  0  0
   -5.4510   -1.3292   -0.2834 H   0  0  0  0  0  0  0  0  0  0  0  0
   -5.0350   -3.0125   -0.6082 H   0  0  0  0  0  0  0  0  0  0  0  0
   -2.6476   -2.5082   -0.7005 H   0  0  0  0  0  0  0  0  0  0  0  0
   -3.5049   -1.5597   -1.8665 H   0  0  0  0  0  0  0  0  0  0  0  0
   -4.4383    0.6975    0.2493 H   0  0  0  0  0  0  0  0  0  0  0  0
   -2.9630    1.6178   -0.0038 H   0  0  0  0  0  0  0  0  0  0  0  0
   -4.4011    2.0810   -1.8416 H   0  0  0  0  0  0  0  0  0  0  0  0
   -4.6439    0.3745   -2.2141 H   0  0  0  0  0  0  0  0  0  0  0  0
   -3.0488    1.1220   -2.4596 H   0  0  0  0  0  0  0  0  0  0  0  0
   -1.8375   -1.6706    1.2557 H   0  0  0  0  0  0  0  0  0  0  0  0
   -3.1142   -0.6394    1.8347 H   0  0  0  0  0  0  0  0  0  0  0  0
   -2.7100    2.1799    3.6576 H   0  0  0  0  0  0  0  0  0  0  0  0
   -0.6477    3.0071    3.6173 H   0  0  0  0  0  0  0  0  0  0  0  0
    1.6068    2.8247    2.6429 H   0  0  0  0  0  0  0  0  0  0  0  0
    3.1342   -0.3649   -2.8548 H   0  0  0  0  0  0  0  0  0  0  0  0
    5.2990   -0.7563   -3.9606 H   0  0  0  0  0  0  0  0  0  0  0  0
    7.3835   -0.8909   -2.6214 H   0  0  0  0  0  0  0  0  0  0  0  0
    7.2881   -0.6272   -0.1555 H   0  0  0  0  0  0  0  0  0  0  0  0
    5.1333   -0.2424    0.9724 H   0  0  0  0  0  0  0  0  0  0  0  0
    1.6501   -1.7072   -1.1169 H   0  0  0  0  0  0  0  0  0  0  0  0
  1  2  1  0
  2  3  1  0
  3  4  1  0
  4  5  1  0
  3  6  1  0
  6  7  1  0
  7  8  2  0
  8  9  1  0
  8 10  1  0
 10 11  2  0
 11 12  1  0
 12 13  1  0
 13 14  2  0
 13 15  1  0
 15 16  1  0
 16 17  2  0
 17 18  1  0
 18 19  2  0
 19 20  1  0
 20 21  2  0
 15 22  2  0
 22 23  1  0
 23 24  1  0
 24  7  1  0
 24 12  2  0
 21 16  1  0
  1 25  1  0
  1 26  1  0
  1 27  1  0
  2 28  1  0
  2 29  1  0
  4 30  1  0
  4 31  1  0
  5 32  1  0
  5 33  1  0
  5 34  1  0
  6 35  1  0
  6 36  1  0
  9 37  1  0
 10 38  1  0
 11 39  1  0
 17 40  1  0
 18 41  1  0
 19 42  1  0
 20 43  1  0
 21 44  1  0
 22 45  1  0
M  END
$$$$
