
     RDKit          3D

 43 45  0  0  0  0  0  0  0  0999 V2000
    7.3179   -0.9357   -1.1876 C   0  0  0  0  0  0  0  0  0  0  0  0
    5.9753   -1.0813   -0.7441 O   0  0  0  0  0  0  0  0  0  0  0  0
    5.1979    0.0454   -0.7363 C   0  0  0  0  0  0  0  0  0  0  0  0
    5.5770    1.3009   -1.2094 C   0  0  0  0  0  0  0  0  0  0  0  0
    4.6716    2.3617   -1.1692 C   0  0  0  0  0  0  0  0  0  0  0  0
    3.3908    2.1718   -0.6476 C   0  0  0  0  0  0  0  0  0  0  0  0
    3.0067    0.9254   -0.1411 C   0  0  0  0  0  0  0  0  0  0  0  0
    1.6835    0.8027    0.3370 N   0  0  0  0  0  0  0  0  0  0  0  0
    1.1192   -0.0959    1.2338 C   0  0  0  0  0  0  0  0  0  0  0  0
    1.9704   -0.9437    2.4105 S   0  0  0  0  0  0  0  0  0  0  0  0
   -0.2814   -0.1654    1.0980 N   0  0  0  0  0  0  0  0  0  0  0  0
   -0.9811    0.2220   -0.1428 C   0  0  0  0  0  0  0  0  0  0  0  0
   -2.1781   -0.6887   -0.4858 C   0  0  0  0  0  0  0  0  0  0  0  0
   -3.1234   -0.8162    0.6343 N   0  0  0  0  0  0  0  0  0  0  0  0
   -4.4741   -0.5754    0.3993 C   0  0  0  0  0  0  0  0  0  0  0  0
   -5.1022   -1.0739   -0.7443 C   0  0  0  0  0  0  0  0  0  0  0  0
   -6.4606   -0.8403   -0.9590 C   0  0  0  0  0  0  0  0  0  0  0  0
   -7.1781   -0.1176   -0.0206 C   0  0  0  0  0  0  0  0  0  0  0  0
   -6.5007    0.3316    1.0955 C   0  0  0  0  0  0  0  0  0  0  0  0
   -5.1847    0.1147    1.3191 N   0  0  0  0  0  0  0  0  0  0  0  0
   -2.6273   -0.4258    1.9635 C   0  0  0  0  0  0  0  0  0  0  0  0
   -1.1435   -0.8021    2.1181 C   0  0  0  0  0  0  0  0  0  0  0  0
    3.9112   -0.1360   -0.2120 C   0  0  0  0  0  0  0  0  0  0  0  0
    7.8090   -1.9090   -1.0923 H   0  0  0  0  0  0  0  0  0  0  0  0
    7.8668   -0.2233   -0.5627 H   0  0  0  0  0  0  0  0  0  0  0  0
    7.3545   -0.6467   -2.2431 H   0  0  0  0  0  0  0  0  0  0  0  0
    6.5622    1.4836   -1.6245 H   0  0  0  0  0  0  0  0  0  0  0  0
    4.9645    3.3385   -1.5457 H   0  0  0  0  0  0  0  0  0  0  0  0
    2.7068    3.0161   -0.6273 H   0  0  0  0  0  0  0  0  0  0  0  0
    1.0959    1.6095    0.1754 H   0  0  0  0  0  0  0  0  0  0  0  0
   -1.3284    1.2520    0.0038 H   0  0  0  0  0  0  0  0  0  0  0  0
   -0.2862    0.2187   -0.9890 H   0  0  0  0  0  0  0  0  0  0  0  0
   -2.6513   -0.2846   -1.3887 H   0  0  0  0  0  0  0  0  0  0  0  0
   -1.8084   -1.6918   -0.7302 H   0  0  0  0  0  0  0  0  0  0  0  0
   -4.5497   -1.6708   -1.4617 H   0  0  0  0  0  0  0  0  0  0  0  0
   -6.9493   -1.2318   -1.8459 H   0  0  0  0  0  0  0  0  0  0  0  0
   -8.2355    0.0811   -0.1485 H   0  0  0  0  0  0  0  0  0  0  0  0
   -7.0112    0.8954    1.8707 H   0  0  0  0  0  0  0  0  0  0  0  0
   -2.7370    0.6571    2.1085 H   0  0  0  0  0  0  0  0  0  0  0  0
   -3.1982   -0.9395    2.7467 H   0  0  0  0  0  0  0  0  0  0  0  0
   -1.0217   -1.8874    2.0143 H   0  0  0  0  0  0  0  0  0  0  0  0
   -0.8005   -0.5097    3.1159 H   0  0  0  0  0  0  0  0  0  0  0  0
    3.6315   -1.1354    0.1057 H   0  0  0  0  0  0  0  0  0  0  0  0
  1  2  1  0
  2  3  1  0
  3  4  2  0
  4  5  1  0
  5  6  2  0
  6  7  1  0
  7  8  1  0
  8  9  1  0
  9 10  2  0
  9 11  1  0
 11 12  1  0
 12 13  1  0
 13 14  1  0
 14 15  1  0
 15 16  2  0
 16 17  1  0
 17 18  2  0
 18 19  1  0
 19 20  2  0
 14 21  1  0
 21 22  1  0
  7 23  2  0
 23  3  1  0
 22 11  1  0
 20 15  1  0
  1 24  1  0
  1 25  1  0
  1 26  1  0
  4 27  1  0
  5 28  1  0
  6 29  1  0
  8 30  1  0
 12 31  1  0
 12 32  1  0
 13 33  1  0
 13 34  1  0
 16 35  1  0
 17 36  1  0
 18 37  1  0
 19 38  1  0
 21 39  1  0
 21 40  1  0
 22 41  1  0
 22 42  1  0
 23 43  1  0
M  END
$$$$
