
     RDKit          3D

 39 41  0  0  0  0  0  0  0  0999 V2000
   -5.2432    1.7988   -2.0744 C   0  0  0  0  0  0  0  0  0  0  0  0
   -4.3774    1.0803   -1.0837 C   0  0  0  0  0  0  0  0  0  0  0  0
   -3.0689    1.4747   -0.8867 C   0  0  0  0  0  0  0  0  0  0  0  0
   -2.3057    0.7683    0.0419 C   0  0  0  0  0  0  0  0  0  0  0  0
   -0.8890    1.1741    0.1664 C   0  0  0  0  0  0  0  0  0  0  0  0
   -0.6250    2.3373    0.4446 O   0  0  0  0  0  0  0  0  0  0  0  0
    0.0151    0.1622   -0.1156 N   0  0  0  0  0  0  0  0  0  0  0  0
    1.3518    0.4108   -0.0492 N   0  0  0  0  0  0  0  0  0  0  0  0
    2.1227   -0.5781   -0.3650 C   0  0  0  0  0  0  0  0  0  0  0  0
    3.5933   -0.4471   -0.3373 C   0  0  0  0  0  0  0  0  0  0  0  0
    4.3715   -1.5550   -0.6930 C   0  0  0  0  0  0  0  0  0  0  0  0
    5.7647   -1.4630   -0.6773 C   0  0  0  0  0  0  0  0  0  0  0  0
    6.3819   -0.2667   -0.3069 C   0  0  0  0  0  0  0  0  0  0  0  0
    5.5961    0.8403    0.0487 C   0  0  0  0  0  0  0  0  0  0  0  0
    6.2510    2.0959    0.4379 N   0  0  0  0  0  4  0  0  0  0  0  0
    7.4900    2.1278    0.4141 O   0  0  0  0  0  0  0  0  0  0  0  0
    5.5307    3.0473    0.7673 O   0  0  0  0  0  1  0  0  0  0  0  0
    4.1985    0.7579    0.0359 C   0  0  0  0  0  0  0  0  0  0  0  0
   -2.8629   -0.2850    0.8002 C   0  0  0  0  0  0  0  0  0  0  0  0
   -2.1871   -1.0007    1.8229 C   0  0  0  0  0  0  0  0  0  0  0  0
   -2.8160   -2.0359    2.5117 C   0  0  0  0  0  0  0  0  0  0  0  0
   -4.1262   -2.3662    2.1979 C   0  0  0  0  0  0  0  0  0  0  0  0
   -4.8021   -1.6500    1.2074 C   0  0  0  0  0  0  0  0  0  0  0  0
   -4.2011   -0.6108    0.5095 C   0  0  0  0  0  0  0  0  0  0  0  0
   -4.9283    0.0421   -0.4140 N   0  0  0  0  0  0  0  0  0  0  0  0
   -4.8147    1.7196   -3.0784 H   0  0  0  0  0  0  0  0  0  0  0  0
   -5.3322    2.8553   -1.8031 H   0  0  0  0  0  0  0  0  0  0  0  0
   -6.2491    1.3673   -2.0978 H   0  0  0  0  0  0  0  0  0  0  0  0
   -2.6412    2.3045   -1.4417 H   0  0  0  0  0  0  0  0  0  0  0  0
   -0.3130   -0.7510   -0.4113 H   0  0  0  0  0  0  0  0  0  0  0  0
    1.7154   -1.5595   -0.6685 H   0  0  0  0  0  0  0  0  0  0  0  0
    3.9062   -2.4939   -0.9845 H   0  0  0  0  0  0  0  0  0  0  0  0
    6.3712   -2.3232   -0.9539 H   0  0  0  0  0  0  0  0  0  0  0  0
    7.4694   -0.2122   -0.3001 H   0  0  0  0  0  0  0  0  0  0  0  0
    3.5816    1.6131    0.3099 H   0  0  0  0  0  0  0  0  0  0  0  0
   -1.1704   -0.7374    2.1109 H   0  0  0  0  0  0  0  0  0  0  0  0
   -2.2889   -2.5711    3.2977 H   0  0  0  0  0  0  0  0  0  0  0  0
   -4.6336   -3.1673    2.7294 H   0  0  0  0  0  0  0  0  0  0  0  0
   -5.8354   -1.9037    0.9790 H   0  0  0  0  0  0  0  0  0  0  0  0
  1  2  1  0
  2  3  2  0
  3  4  1  0
  4  5  1  0
  5  6  2  0
  5  7  1  0
  7  8  1  0
  8  9  2  3
  9 10  1  0
 10 11  2  0
 11 12  1  0
 12 13  2  0
 13 14  1  0
 14 15  1  0
 15 16  2  0
 15 17  1  0
 14 18  2  0
  4 19  2  0
 19 20  1  0
 20 21  2  0
 21 22  1  0
 22 23  2  0
 23 24  1  0
 24 25  2  0
 25  2  1  0
 18 10  1  0
 24 19  1  0
  1 26  1  0
  1 27  1  0
  1 28  1  0
  3 29  1  0
  7 30  1  0
  9 31  1  0
 11 32  1  0
 12 33  1  0
 13 34  1  0
 18 35  1  0
 20 36  1  0
 21 37  1  0
 22 38  1  0
 23 39  1  0
M  CHG  2  15   1  17  -1
M  END
$$$$
