
     RDKit          3D

 51 56  0  0  0  0  0  0  0  0999 V2000
   -2.3052   -0.1458   -0.8638 O   0  0  0  0  0  0  0  0  0  0  0  0
   -2.1843   -0.3130    0.3528 C   0  0  0  0  0  0  0  0  0  0  0  0
   -3.0230   -1.3648    0.9957 C   0  0  0  0  0  0  0  0  0  0  0  0
   -2.6185   -2.0453    2.1506 C   0  0  0  0  0  0  0  0  0  0  0  0
   -3.4423   -3.0286    2.7093 C   0  0  0  0  0  0  0  0  0  0  0  0
   -4.6642   -3.3363    2.1125 C   0  0  0  0  0  0  0  0  0  0  0  0
   -5.6715   -4.5471    2.8039 Cl  0  0  0  0  0  0  0  0  0  0  0  0
   -5.0703   -2.6740    0.9565 C   0  0  0  0  0  0  0  0  0  0  0  0
   -4.2486   -1.6924    0.3964 C   0  0  0  0  0  0  0  0  0  0  0  0
   -1.2255    0.4942    1.2422 C   0  0  0  0  0  0  0  0  0  0  0  0
    0.1846    0.1941    0.8960 C   0  0  0  0  0  0  0  0  0  0  0  0
    0.8494    1.2968    0.3379 C   0  0  0  0  0  0  0  0  0  0  0  0
    2.1754    0.9633    0.1931 C   0  0  0  0  0  0  0  0  0  0  0  0
    3.2091    1.7089   -0.1896 O   0  0  0  0  0  0  0  0  0  0  0  0
    2.2899   -0.4127    0.4752 N   0  0  0  0  0  0  0  0  0  0  0  0
    3.4318   -1.2439    0.2384 C   0  0  0  0  0  0  0  0  0  0  0  0
    4.7312   -0.7249    0.3041 C   0  0  0  0  0  0  0  0  0  0  0  0
    5.8345   -1.5519    0.0662 C   0  0  0  0  0  0  0  0  0  0  0  0
    5.6433   -2.8945   -0.2495 C   0  0  0  0  0  0  0  0  0  0  0  0
    7.0022   -3.9072   -0.5430 Cl  0  0  0  0  0  0  0  0  0  0  0  0
    4.3567   -3.4198   -0.3341 C   0  0  0  0  0  0  0  0  0  0  0  0
    3.2517   -2.5972   -0.0939 C   0  0  0  0  0  0  0  0  0  0  0  0
    1.0708   -0.8360    1.0419 C   0  0  0  0  0  0  0  0  0  0  0  0
    0.8763   -2.0031    1.6550 O   0  0  0  0  0  0  0  0  0  0  0  0
   -0.0425    2.4756    0.2427 C   0  0  0  0  0  0  0  0  0  0  0  0
   -0.3701    2.8367   -1.1780 C   0  0  0  0  0  0  0  0  0  0  0  0
    0.5397    2.8798   -2.2424 C   0  0  0  0  0  0  0  0  0  0  0  0
    0.1376    3.3376   -3.5020 C   0  0  0  0  0  0  0  0  0  0  0  0
   -1.1705    3.7740   -3.7127 C   0  0  0  0  0  0  0  0  0  0  0  0
   -2.0884    3.7483   -2.6658 C   0  0  0  0  0  0  0  0  0  0  0  0
   -1.6825    3.2797   -1.4145 C   0  0  0  0  0  0  0  0  0  0  0  0
   -2.6577    3.2231   -0.3079 C   0  0  0  0  0  0  0  0  0  0  0  0
   -2.4779    2.5756    0.8073 N   0  0  0  0  0  0  0  0  0  0  0  0
   -1.2523    1.9615    0.9434 N   0  0  0  0  0  0  0  0  0  0  0  0
   -1.6586   -1.8492    2.6207 H   0  0  0  0  0  0  0  0  0  0  0  0
   -3.1204   -3.5552    3.6043 H   0  0  0  0  0  0  0  0  0  0  0  0
   -6.0190   -2.9156    0.4846 H   0  0  0  0  0  0  0  0  0  0  0  0
   -4.5675   -1.1795   -0.5097 H   0  0  0  0  0  0  0  0  0  0  0  0
   -1.4384    0.3914    2.3085 H   0  0  0  0  0  0  0  0  0  0  0  0
    2.9091    2.6329   -0.2488 H   0  0  0  0  0  0  0  0  0  0  0  0
    4.9198    0.3114    0.5704 H   0  0  0  0  0  0  0  0  0  0  0  0
    6.8380   -1.1391    0.1304 H   0  0  0  0  0  0  0  0  0  0  0  0
    4.2049   -4.4621   -0.6031 H   0  0  0  0  0  0  0  0  0  0  0  0
    2.2581   -3.0221   -0.2280 H   0  0  0  0  0  0  0  0  0  0  0  0
    1.7434   -2.3843    1.8856 H   0  0  0  0  0  0  0  0  0  0  0  0
    0.3379    3.3377    0.8001 H   0  0  0  0  0  0  0  0  0  0  0  0
    1.5666    2.5500   -2.1233 H   0  0  0  0  0  0  0  0  0  0  0  0
    0.8499    3.3505   -4.3242 H   0  0  0  0  0  0  0  0  0  0  0  0
   -1.4748    4.1232   -4.6963 H   0  0  0  0  0  0  0  0  0  0  0  0
   -3.1105    4.0739   -2.8359 H   0  0  0  0  0  0  0  0  0  0  0  0
   -3.6274    3.7256   -0.4593 H   0  0  0  0  0  0  0  0  0  0  0  0
  1  2  2  0
  2  3  1  0
  3  4  2  0
  4  5  1  0
  5  6  2  0
  6  7  1  0
  6  8  1  0
  8  9  2  0
  2 10  1  0
 10 11  1  0
 11 12  1  0
 12 13  2  0
 13 14  1  0
 13 15  1  0
 15 16  1  0
 16 17  2  0
 17 18  1  0
 18 19  2  0
 19 20  1  0
 19 21  1  0
 21 22  2  0
 15 23  1  0
 23 24  1  0
 12 25  1  0
 25 26  1  0
 26 27  2  0
 27 28  1  0
 28 29  2  0
 29 30  1  0
 30 31  2  0
 31 32  1  0
 32 33  2  0
 33 34  1  0
  9  3  1  0
 34 10  1  0
 23 11  2  0
 34 25  1  0
 22 16  1  0
 31 26  1  0
  4 35  1  0
  5 36  1  0
  8 37  1  0
  9 38  1  0
 10 39  1  0
 14 40  1  0
 17 41  1  0
 18 42  1  0
 21 43  1  0
 22 44  1  0
 24 45  1  0
 25 46  1  0
 27 47  1  0
 28 48  1  0
 29 49  1  0
 30 50  1  0
 32 51  1  0
M  END
$$$$
