
     RDKit          3D

 26 27  0  0  0  0  0  0  0  0999 V2000
    6.1335    0.4415   -0.4274 C   0  0  0  0  0  0  0  0  0  0  0  0
    4.7597    0.1191   -0.0086 C   0  0  0  0  0  0  0  0  0  0  0  0
    4.3361   -0.6264    0.9881 N   0  0  0  0  0  0  0  0  0  0  0  0
    2.9583   -0.5944    0.9311 N   0  0  0  0  0  0  0  0  0  0  0  0
    2.6363    0.1674   -0.0952 C   0  0  0  0  0  0  0  0  0  0  0  0
    1.0168    0.5311   -0.6000 S   0  0  0  0  0  0  0  0  0  0  0  0
    0.0817   -0.4026    0.6443 C   0  0  0  0  0  0  0  0  0  0  0  0
   -1.4076   -0.2562    0.4326 C   0  0  0  0  0  0  0  0  0  0  0  0
   -2.0979   -1.1502   -0.4019 C   0  0  0  0  0  0  0  0  0  0  0  0
   -3.4716   -1.0087   -0.6141 C   0  0  0  0  0  0  0  0  0  0  0  0
   -4.1616    0.0384    0.0088 C   0  0  0  0  0  0  0  0  0  0  0  0
   -5.6048    0.1920   -0.2121 N   0  0  0  0  0  4  0  0  0  0  0  0
   -6.1657   -0.6277   -0.9536 O   0  0  0  0  0  0  0  0  0  0  0  0
   -6.1790    1.1318    0.3567 O   0  0  0  0  0  1  0  0  0  0  0  0
   -3.4864    0.9420    0.8385 C   0  0  0  0  0  0  0  0  0  0  0  0
   -2.1127    0.7927    1.0449 C   0  0  0  0  0  0  0  0  0  0  0  0
    3.7404    0.6582   -0.7429 O   0  0  0  0  0  0  0  0  0  0  0  0
    6.3135    0.0972   -1.4501 H   0  0  0  0  0  0  0  0  0  0  0  0
    6.8619   -0.0425    0.2298 H   0  0  0  0  0  0  0  0  0  0  0  0
    6.3027    1.5216   -0.3893 H   0  0  0  0  0  0  0  0  0  0  0  0
    0.3538   -1.4636    0.5957 H   0  0  0  0  0  0  0  0  0  0  0  0
    0.3431   -0.0495    1.6488 H   0  0  0  0  0  0  0  0  0  0  0  0
   -1.5662   -1.9623   -0.8958 H   0  0  0  0  0  0  0  0  0  0  0  0
   -3.9828   -1.7153   -1.2649 H   0  0  0  0  0  0  0  0  0  0  0  0
   -4.0092    1.7629    1.3253 H   0  0  0  0  0  0  0  0  0  0  0  0
   -1.5924    1.5036    1.6852 H   0  0  0  0  0  0  0  0  0  0  0  0
  1  2  1  0
  2  3  2  0
  3  4  1  0
  4  5  2  0
  5  6  1  0
  6  7  1  0
  7  8  1  0
  8  9  2  0
  9 10  1  0
 10 11  2  0
 11 12  1  0
 12 13  2  0
 12 14  1  0
 11 15  1  0
 15 16  2  0
  5 17  1  0
 17  2  1  0
 16  8  1  0
  1 18  1  0
  1 19  1  0
  1 20  1  0
  7 21  1  0
  7 22  1  0
  9 23  1  0
 10 24  1  0
 15 25  1  0
 16 26  1  0
M  CHG  2  12   1  14  -1
M  END
$$$$
