
     RDKit          3D

 47 49  0  0  0  0  0  0  0  0999 V2000
   -2.6252    5.4175   -1.3406 C   0  0  0  0  0  0  0  0  0  0  0  0
   -1.9075    4.6636   -0.3699 O   0  0  0  0  0  0  0  0  0  0  0  0
   -1.7670    3.3403   -0.6823 C   0  0  0  0  0  0  0  0  0  0  0  0
   -2.1555    2.8197   -1.7193 O   0  0  0  0  0  0  0  0  0  0  0  0
   -0.9958    2.6324    0.4199 C   0  0  0  0  0  0  0  0  0  0  0  0
   -1.2594    1.1974    0.4215 N   0  0  0  0  0  0  0  0  0  0  0  0
   -0.5740    0.2623   -0.3395 C   0  0  0  0  0  0  0  0  0  0  0  0
    0.5542    0.5737   -1.2609 C   0  0  0  0  0  0  0  0  0  0  0  0
    1.8941    0.5140   -0.5286 C   0  0  0  0  0  0  0  0  0  0  0  0
    2.0267    0.9561    0.6084 O   0  0  0  0  0  0  0  0  0  0  0  0
    2.9028   -0.0295   -1.3107 N   0  0  0  0  0  0  0  0  0  0  0  0
    4.2469   -0.2489   -0.9494 C   0  0  0  0  0  0  0  0  0  0  0  0
    5.0948   -0.7629   -1.9387 C   0  0  0  0  0  0  0  0  0  0  0  0
    6.4411   -1.0111   -1.6639 C   0  0  0  0  0  0  0  0  0  0  0  0
    6.9463   -0.7504   -0.3933 C   0  0  0  0  0  0  0  0  0  0  0  0
    8.6015   -1.0642   -0.0515 Cl  0  0  0  0  0  0  0  0  0  0  0  0
    6.1152   -0.2448    0.6005 C   0  0  0  0  0  0  0  0  0  0  0  0
    4.7695    0.0050    0.3212 C   0  0  0  0  0  0  0  0  0  0  0  0
   -1.1105   -0.9437   -0.1129 C   0  0  0  0  0  0  0  0  0  0  0  0
   -0.6466   -2.1223   -0.6119 O   0  0  0  0  0  0  0  0  0  0  0  0
   -2.1535   -0.8661    0.7936 N   0  0  0  0  0  0  0  0  0  0  0  0
   -3.0119   -1.9205    1.2078 C   0  0  0  0  0  0  0  0  0  0  0  0
   -3.4356   -2.0327    2.5373 C   0  0  0  0  0  0  0  0  0  0  0  0
   -4.2660   -3.0826    2.9394 C   0  0  0  0  0  0  0  0  0  0  0  0
   -4.6766   -4.0347    2.0130 C   0  0  0  0  0  0  0  0  0  0  0  0
   -5.7002   -5.3207    2.5062 Cl  0  0  0  0  0  0  0  0  0  0  0  0
   -4.2631   -3.9468    0.6882 C   0  0  0  0  0  0  0  0  0  0  0  0
   -3.4303   -2.8976    0.2903 C   0  0  0  0  0  0  0  0  0  0  0  0
   -2.3080    0.5354    1.1380 C   0  0  0  0  0  0  0  0  0  0  0  0
   -3.4726    1.2883    2.0655 S   0  0  0  0  0  0  0  0  0  0  0  0
   -2.7996    6.4144   -0.9251 H   0  0  0  0  0  0  0  0  0  0  0  0
   -2.0275    5.5222   -2.2532 H   0  0  0  0  0  0  0  0  0  0  0  0
   -3.5942    4.9587   -1.5589 H   0  0  0  0  0  0  0  0  0  0  0  0
   -1.2915    3.0507    1.3826 H   0  0  0  0  0  0  0  0  0  0  0  0
    0.0724    2.8207    0.2857 H   0  0  0  0  0  0  0  0  0  0  0  0
    0.4513    1.5653   -1.7154 H   0  0  0  0  0  0  0  0  0  0  0  0
    0.5533   -0.1451   -2.0905 H   0  0  0  0  0  0  0  0  0  0  0  0
    2.6538   -0.2932   -2.2555 H   0  0  0  0  0  0  0  0  0  0  0  0
    4.7238   -0.9729   -2.9394 H   0  0  0  0  0  0  0  0  0  0  0  0
    7.0862   -1.4087   -2.4433 H   0  0  0  0  0  0  0  0  0  0  0  0
    6.5020   -0.0431    1.5972 H   0  0  0  0  0  0  0  0  0  0  0  0
    4.1550    0.3936    1.1250 H   0  0  0  0  0  0  0  0  0  0  0  0
   -0.8930   -2.7983    0.0418 H   0  0  0  0  0  0  0  0  0  0  0  0
   -3.0967   -1.3305    3.2952 H   0  0  0  0  0  0  0  0  0  0  0  0
   -4.5807   -3.1493    3.9769 H   0  0  0  0  0  0  0  0  0  0  0  0
   -4.5933   -4.6817   -0.0415 H   0  0  0  0  0  0  0  0  0  0  0  0
   -3.1553   -2.8290   -0.7588 H   0  0  0  0  0  0  0  0  0  0  0  0
  1  2  1  0
  2  3  1  0
  3  4  2  0
  3  5  1  0
  5  6  1  0
  6  7  1  0
  7  8  1  0
  8  9  1  0
  9 10  2  0
  9 11  1  0
 11 12  1  0
 12 13  2  0
 13 14  1  0
 14 15  2  0
 15 16  1  0
 15 17  1  0
 17 18  2  0
  7 19  2  0
 19 20  1  0
 19 21  1  0
 21 22  1  0
 22 23  2  0
 23 24  1  0
 24 25  2  0
 25 26  1  0
 25 27  1  0
 27 28  2  0
 21 29  1  0
 29 30  2  0
 29  6  1  0
 18 12  1  0
 28 22  1  0
  1 31  1  0
  1 32  1  0
  1 33  1  0
  5 34  1  0
  5 35  1  0
  8 36  1  0
  8 37  1  0
 11 38  1  0
 13 39  1  0
 14 40  1  0
 17 41  1  0
 18 42  1  0
 20 43  1  0
 23 44  1  0
 24 45  1  0
 27 46  1  0
 28 47  1  0
M  END
$$$$
