
     RDKit          3D

 43 45  0  0  0  0  0  0  0  0999 V2000
   -3.5016   -2.3180    2.0645 C   0  0  0  0  0  0  0  0  0  0  0  0
   -4.3090   -1.2827    1.3320 C   0  0  0  0  0  0  0  0  0  0  0  0
   -5.7069   -1.3687    1.3522 C   0  0  0  0  0  0  0  0  0  0  0  0
   -6.4865   -0.4139    0.6980 C   0  0  0  0  0  0  0  0  0  0  0  0
   -5.8809    0.6454    0.0224 C   0  0  0  0  0  0  0  0  0  0  0  0
   -4.4854    0.7557   -0.0172 C   0  0  0  0  0  0  0  0  0  0  0  0
   -3.8469    1.9135   -0.7324 C   0  0  0  0  0  0  0  0  0  0  0  0
   -3.7112   -0.2425    0.5998 C   0  0  0  0  0  0  0  0  0  0  0  0
   -2.3428   -0.1403    0.5412 O   0  0  0  0  0  0  0  0  0  0  0  0
   -1.8306   -0.9347   -0.5351 C   0  0  0  0  0  0  0  0  0  0  0  0
   -0.3797   -0.6541   -0.5945 C   0  0  0  0  0  0  0  0  0  0  0  0
    0.3792    0.3708   -1.1000 C   0  0  0  0  0  0  0  0  0  0  0  0
    1.7235    0.0231   -0.7888 C   0  0  0  0  0  0  0  0  0  0  0  0
    2.9129    0.8218   -1.1329 C   0  0  0  0  0  0  0  0  0  0  0  0
    2.8102    1.7219   -1.9724 O   0  0  0  0  0  0  0  0  0  0  0  0
    4.1481    0.5768   -0.5068 N   0  0  0  0  0  0  0  0  0  0  0  0
    5.2471    1.4777   -0.8492 C   0  0  0  0  0  0  0  0  0  0  0  0
    6.6046    0.8856   -0.4863 C   0  0  0  0  0  0  0  0  0  0  0  0
    6.6536    0.5275    0.9097 N   0  0  0  0  0  0  0  0  0  0  0  0
    5.6056   -0.1115    1.5173 C   0  0  0  0  0  0  0  0  0  0  0  0
    5.7625   -0.6212    2.6251 O   0  0  0  0  0  0  0  0  0  0  0  0
    4.2716   -0.1820    0.7516 C   0  0  0  0  0  0  0  0  0  0  0  0
    1.7569   -1.1674   -0.1664 N   0  0  0  0  0  0  0  0  0  0  0  0
    0.4452   -1.5787   -0.0367 O   0  0  0  0  0  0  0  0  0  0  0  0
   -3.3913   -3.2145    1.4455 H   0  0  0  0  0  0  0  0  0  0  0  0
   -3.9906   -2.5969    3.0054 H   0  0  0  0  0  0  0  0  0  0  0  0
   -2.5078   -1.9431    2.3268 H   0  0  0  0  0  0  0  0  0  0  0  0
   -6.1988   -2.1767    1.8891 H   0  0  0  0  0  0  0  0  0  0  0  0
   -7.5696   -0.4873    0.7271 H   0  0  0  0  0  0  0  0  0  0  0  0
   -6.5069    1.3934   -0.4627 H   0  0  0  0  0  0  0  0  0  0  0  0
   -3.0107    2.3156   -0.1487 H   0  0  0  0  0  0  0  0  0  0  0  0
   -4.5626    2.7319   -0.8771 H   0  0  0  0  0  0  0  0  0  0  0  0
   -3.4815    1.6007   -1.7138 H   0  0  0  0  0  0  0  0  0  0  0  0
   -2.2996   -0.6596   -1.4868 H   0  0  0  0  0  0  0  0  0  0  0  0
   -2.0033   -2.0020   -0.3495 H   0  0  0  0  0  0  0  0  0  0  0  0
    0.0302    1.2608   -1.6060 H   0  0  0  0  0  0  0  0  0  0  0  0
    5.0765    2.4118   -0.2995 H   0  0  0  0  0  0  0  0  0  0  0  0
    5.2223    1.7105   -1.9195 H   0  0  0  0  0  0  0  0  0  0  0  0
    6.7982   -0.0240   -1.0656 H   0  0  0  0  0  0  0  0  0  0  0  0
    7.4080    1.6020   -0.6804 H   0  0  0  0  0  0  0  0  0  0  0  0
    7.5396    0.4467    1.3928 H   0  0  0  0  0  0  0  0  0  0  0  0
    3.4897    0.1657    1.4361 H   0  0  0  0  0  0  0  0  0  0  0  0
    4.1189   -1.2395    0.5145 H   0  0  0  0  0  0  0  0  0  0  0  0
  1  2  1  0
  2  3  2  0
  3  4  1  0
  4  5  2  0
  5  6  1  0
  6  7  1  0
  6  8  2  0
  8  9  1  0
  9 10  1  0
 10 11  1  0
 11 12  2  0
 12 13  1  0
 13 14  1  0
 14 15  2  0
 14 16  1  0
 16 17  1  0
 17 18  1  0
 18 19  1  0
 19 20  1  0
 20 21  2  0
 20 22  1  0
 13 23  2  0
 23 24  1  0
  8  2  1  0
 24 11  1  0
 22 16  1  0
  1 25  1  0
  1 26  1  0
  1 27  1  0
  3 28  1  0
  4 29  1  0
  5 30  1  0
  7 31  1  0
  7 32  1  0
  7 33  1  0
 10 34  1  0
 10 35  1  0
 12 36  1  0
 17 37  1  0
 17 38  1  0
 18 39  1  0
 18 40  1  0
 19 41  1  0
 22 42  1  0
 22 43  1  0
M  END
$$$$
