
     RDKit          3D

 73 75  0  0  0  0  0  0  0  0999 V2000
    9.4262   -2.5694   -2.8205 C   0  0  0  0  0  0  0  0  0  0  0  0
    9.3279   -2.6560   -1.3050 C   0  0  0  0  0  0  0  0  0  0  0  0
    8.2505   -1.7478   -0.7086 C   0  0  0  0  0  0  0  0  0  0  0  0
    6.8304   -2.1366   -1.1255 C   0  0  0  0  0  0  0  0  0  0  0  0
    5.7864   -1.2732   -0.4113 C   0  0  0  0  0  0  0  0  0  0  0  0
    4.3674   -1.6571   -0.8370 C   0  0  0  0  0  0  0  0  0  0  0  0
    3.2724   -0.9178   -0.0605 C   0  0  0  0  0  0  0  0  0  0  0  0
    3.2453    0.5877   -0.3340 C   0  0  0  0  0  0  0  0  0  0  0  0
    2.1372    1.3289    0.4231 C   0  0  0  0  0  0  0  0  0  0  0  0
    0.7005    0.8570    0.1578 C   0  0  0  0  0  0  0  0  0  0  0  0
    0.3056    0.9577   -1.3130 C   0  0  0  0  0  0  0  0  0  0  0  0
   -1.1185    0.4413   -1.6310 N   0  0  0  0  0  4  0  0  0  0  0  0
   -1.3459    0.7262   -3.1328 C   0  0  0  0  0  0  0  0  0  0  0  0
   -1.2046   -1.0740   -1.4571 C   0  0  0  0  0  0  0  0  0  0  0  0
   -2.2217    1.2087   -0.8570 C   0  0  0  0  0  0  0  0  0  0  0  0
   -2.6488    0.5702    0.4722 C   0  0  0  0  0  0  0  0  0  0  0  0
   -3.5853    1.4705    1.2383 C   0  0  0  0  0  0  0  0  0  0  0  0
   -4.8870    1.2698    1.5492 C   0  0  0  0  0  0  0  0  0  0  0  0
   -5.6372    0.0565    1.1344 C   0  0  0  0  0  0  0  0  0  0  0  0
   -5.7379   -0.3369   -0.2085 C   0  0  0  0  0  0  0  0  0  0  0  0
   -6.4599   -1.4792   -0.5603 C   0  0  0  0  0  0  0  0  0  0  0  0
   -7.1036   -2.2272    0.4226 C   0  0  0  0  0  0  0  0  0  0  0  0
   -7.0522   -1.8196    1.7560 C   0  0  0  0  0  0  0  0  0  0  0  0
   -6.3409   -0.6690    2.1160 C   0  0  0  0  0  0  0  0  0  0  0  0
   -6.3892   -0.1365    3.8281 S   0  0  0  0  0  0  0  0  0  0  0  0
   -6.2113    1.6386    3.6283 C   0  0  0  0  0  0  0  0  0  0  0  0
   -6.7909    2.4799    4.5859 C   0  0  0  0  0  0  0  0  0  0  0  0
   -6.6873    3.8669    4.4592 C   0  0  0  0  0  0  0  0  0  0  0  0
   -6.0086    4.4132    3.3731 C   0  0  0  0  0  0  0  0  0  0  0  0
   -5.8910    6.1214    3.2081 Cl  0  0  0  0  0  0  0  0  0  0  0  0
   -5.4196    3.5887    2.4146 C   0  0  0  0  0  0  0  0  0  0  0  0
   -5.5014    2.1941    2.5429 C   0  0  0  0  0  0  0  0  0  0  0  0
    9.5746   -1.5350   -3.1466 H   0  0  0  0  0  0  0  0  0  0  0  0
    8.5260   -2.9601   -3.3042 H   0  0  0  0  0  0  0  0  0  0  0  0
   10.2758   -3.1615   -3.1756 H   0  0  0  0  0  0  0  0  0  0  0  0
    9.1442   -3.6960   -1.0106 H   0  0  0  0  0  0  0  0  0  0  0  0
   10.2966   -2.3717   -0.8766 H   0  0  0  0  0  0  0  0  0  0  0  0
    8.3294   -1.7957    0.3846 H   0  0  0  0  0  0  0  0  0  0  0  0
    8.4479   -0.7073   -0.9941 H   0  0  0  0  0  0  0  0  0  0  0  0
    6.6552   -3.1933   -0.8906 H   0  0  0  0  0  0  0  0  0  0  0  0
    6.7117   -2.0195   -2.2086 H   0  0  0  0  0  0  0  0  0  0  0  0
    5.9768   -0.2193   -0.6426 H   0  0  0  0  0  0  0  0  0  0  0  0
    5.8901   -1.3936    0.6739 H   0  0  0  0  0  0  0  0  0  0  0  0
    4.2416   -1.4757   -1.9115 H   0  0  0  0  0  0  0  0  0  0  0  0
    4.2264   -2.7339   -0.6808 H   0  0  0  0  0  0  0  0  0  0  0  0
    2.3120   -1.3605   -0.3478 H   0  0  0  0  0  0  0  0  0  0  0  0
    3.3968   -1.0975    1.0141 H   0  0  0  0  0  0  0  0  0  0  0  0
    3.1502    0.7695   -1.4104 H   0  0  0  0  0  0  0  0  0  0  0  0
    4.2004    1.0327   -0.0321 H   0  0  0  0  0  0  0  0  0  0  0  0
    2.3317    1.2488    1.5002 H   0  0  0  0  0  0  0  0  0  0  0  0
    2.2085    2.3961    0.1777 H   0  0  0  0  0  0  0  0  0  0  0  0
    0.5813   -0.1628    0.5339 H   0  0  0  0  0  0  0  0  0  0  0  0
    0.0456    1.4976    0.7578 H   0  0  0  0  0  0  0  0  0  0  0  0
    0.9844    0.3741   -1.9439 H   0  0  0  0  0  0  0  0  0  0  0  0
    0.3441    2.0037   -1.6406 H   0  0  0  0  0  0  0  0  0  0  0  0
   -0.5495    0.2391   -3.7035 H   0  0  0  0  0  0  0  0  0  0  0  0
   -1.3217    1.8097   -3.2833 H   0  0  0  0  0  0  0  0  0  0  0  0
   -2.3206    0.3191   -3.4188 H   0  0  0  0  0  0  0  0  0  0  0  0
   -0.4514   -1.5391   -2.1003 H   0  0  0  0  0  0  0  0  0  0  0  0
   -1.0102   -1.3336   -0.4150 H   0  0  0  0  0  0  0  0  0  0  0  0
   -2.2074   -1.3970   -1.7524 H   0  0  0  0  0  0  0  0  0  0  0  0
   -1.8571    2.2340   -0.7214 H   0  0  0  0  0  0  0  0  0  0  0  0
   -3.0970    1.2562   -1.5162 H   0  0  0  0  0  0  0  0  0  0  0  0
   -1.7863    0.3823    1.1175 H   0  0  0  0  0  0  0  0  0  0  0  0
   -3.0996   -0.4098    0.2956 H   0  0  0  0  0  0  0  0  0  0  0  0
   -3.0820    2.3402    1.6660 H   0  0  0  0  0  0  0  0  0  0  0  0
   -5.2822    0.2559   -0.9947 H   0  0  0  0  0  0  0  0  0  0  0  0
   -6.5403   -1.7787   -1.6027 H   0  0  0  0  0  0  0  0  0  0  0  0
   -7.6734   -3.1133    0.1502 H   0  0  0  0  0  0  0  0  0  0  0  0
   -7.5904   -2.3936    2.5077 H   0  0  0  0  0  0  0  0  0  0  0  0
   -7.3334    2.0635    5.4327 H   0  0  0  0  0  0  0  0  0  0  0  0
   -7.1455    4.5114    5.2057 H   0  0  0  0  0  0  0  0  0  0  0  0
   -4.9105    4.0378    1.5669 H   0  0  0  0  0  0  0  0  0  0  0  0
  1  2  1  0
  2  3  1  0
  3  4  1  0
  4  5  1  0
  5  6  1  0
  6  7  1  0
  7  8  1  0
  8  9  1  0
  9 10  1  0
 10 11  1  0
 11 12  1  0
 12 13  1  0
 12 14  1  0
 12 15  1  0
 15 16  1  0
 16 17  1  0
 17 18  2  3
 18 19  1  0
 19 20  2  0
 20 21  1  0
 21 22  2  0
 22 23  1  0
 23 24  2  0
 24 25  1  0
 25 26  1  0
 26 27  2  0
 27 28  1  0
 28 29  2  0
 29 30  1  0
 29 31  1  0
 31 32  2  0
 32 18  1  0
 24 19  1  0
 32 26  1  0
  1 33  1  0
  1 34  1  0
  1 35  1  0
  2 36  1  0
  2 37  1  0
  3 38  1  0
  3 39  1  0
  4 40  1  0
  4 41  1  0
  5 42  1  0
  5 43  1  0
  6 44  1  0
  6 45  1  0
  7 46  1  0
  7 47  1  0
  8 48  1  0
  8 49  1  0
  9 50  1  0
  9 51  1  0
 10 52  1  0
 10 53  1  0
 11 54  1  0
 11 55  1  0
 13 56  1  0
 13 57  1  0
 13 58  1  0
 14 59  1  0
 14 60  1  0
 14 61  1  0
 15 62  1  0
 15 63  1  0
 16 64  1  0
 16 65  1  0
 17 66  1  0
 20 67  1  0
 21 68  1  0
 22 69  1  0
 23 70  1  0
 27 71  1  0
 28 72  1  0
 31 73  1  0
M  CHG  1  12   1
M  END
$$$$
