
     RDKit          3D

 24 25  0  0  0  0  0  0  0  0999 V2000
    2.2028    1.3111   -2.8823 C   0  0  0  0  0  0  0  0  0  0  0  0
    1.9422    1.1296   -1.4761 N   0  0  0  0  0  0  0  0  0  0  0  0
    2.8174    1.5995   -0.5602 N   0  0  0  0  0  0  0  0  0  0  0  0
    2.2104    1.2297    0.5810 C   0  0  0  0  0  0  0  0  0  0  0  0
    2.7930    1.5253    1.8829 N   0  0  0  0  0  4  0  0  0  0  0  0
    2.1624    1.1458    2.8820 O   0  0  0  0  0  0  0  0  0  0  0  0
    3.8749    2.1334    1.9131 O   0  0  0  0  0  1  0  0  0  0  0  0
    1.0186    0.5625    0.4351 N   0  0  0  0  0  0  0  0  0  0  0  0
    0.8780    0.5157   -0.8701 C   0  0  0  0  0  0  0  0  0  0  0  0
   -0.4248   -0.1954   -1.7635 S   0  0  0  0  0  0  0  0  0  0  0  0
   -1.4235   -0.7912   -0.4130 C   0  0  0  0  0  0  0  0  0  0  0  0
   -1.2374   -2.0866    0.0841 C   0  0  0  0  0  0  0  0  0  0  0  0
   -2.0336   -2.5610    1.1305 C   0  0  0  0  0  0  0  0  0  0  0  0
   -3.0206   -1.7422    1.6755 C   0  0  0  0  0  0  0  0  0  0  0  0
   -4.0034   -2.3273    2.9603 Cl  0  0  0  0  0  0  0  0  0  0  0  0
   -3.2198   -0.4541    1.1827 C   0  0  0  0  0  0  0  0  0  0  0  0
   -2.4235    0.0201    0.1364 C   0  0  0  0  0  0  0  0  0  0  0  0
    3.1477    1.8459   -3.0112 H   0  0  0  0  0  0  0  0  0  0  0  0
    2.2715    0.3281   -3.3545 H   0  0  0  0  0  0  0  0  0  0  0  0
    1.3887    1.8970   -3.3156 H   0  0  0  0  0  0  0  0  0  0  0  0
   -0.4689   -2.7338   -0.3314 H   0  0  0  0  0  0  0  0  0  0  0  0
   -1.8768   -3.5651    1.5152 H   0  0  0  0  0  0  0  0  0  0  0  0
   -3.9886    0.1855    1.6081 H   0  0  0  0  0  0  0  0  0  0  0  0
   -2.5867    1.0277   -0.2382 H   0  0  0  0  0  0  0  0  0  0  0  0
  1  2  1  0
  2  3  1  0
  3  4  2  0
  4  5  1  0
  5  6  2  0
  5  7  1  0
  4  8  1  0
  8  9  2  0
  9 10  1  0
 10 11  1  0
 11 12  2  0
 12 13  1  0
 13 14  2  0
 14 15  1  0
 14 16  1  0
 16 17  2  0
  9  2  1  0
 17 11  1  0
  1 18  1  0
  1 19  1  0
  1 20  1  0
 12 21  1  0
 13 22  1  0
 16 23  1  0
 17 24  1  0
M  CHG  2   5   1   7  -1
M  END
$$$$
