
     RDKit          3D

 42 44  0  0  0  0  0  0  0  0999 V2000
    5.4520   -0.0959    0.2460 C   0  0  0  0  0  0  0  0  0  0  0  0
    3.9534    0.0782    0.4864 C   0  0  0  0  0  0  0  0  0  0  0  0
    3.6716    0.2556    1.9761 C   0  0  0  0  0  0  0  0  0  0  0  0
    3.0923   -1.4136   -0.1489 S   0  0  0  0  0  0  0  0  0  0  0  0
    1.4034   -0.8327   -0.2283 C   0  0  0  0  0  0  0  0  0  0  0  0
    0.3832   -1.7526   -0.1086 C   0  0  0  0  0  0  0  0  0  0  0  0
   -0.9115   -1.2860   -0.2001 C   0  0  0  0  0  0  0  0  0  0  0  0
   -1.9942   -2.1305   -0.1050 N   0  0  0  0  0  0  0  0  0  0  0  0
   -3.3436   -1.5772   -0.1426 C   0  0  0  0  0  0  0  0  0  0  0  0
   -4.2231   -2.8030    0.0813 C   0  0  0  0  0  0  0  0  0  0  0  0
   -3.4001   -3.6265    1.0590 C   0  0  0  0  0  0  0  0  0  0  0  0
   -1.9605   -3.4142    0.5878 C   0  0  0  0  0  0  0  0  0  0  0  0
   -1.1443    0.0175   -0.4293 N   0  0  0  0  0  0  0  0  0  0  0  0
   -0.0904    0.8488   -0.5279 C   0  0  0  0  0  0  0  0  0  0  0  0
   -0.3802    2.2526   -0.8427 C   0  0  0  0  0  0  0  0  0  0  0  0
   -1.2962    2.5460   -1.8778 C   0  0  0  0  0  0  0  0  0  0  0  0
   -1.6018    3.8605   -2.2399 C   0  0  0  0  0  0  0  0  0  0  0  0
   -1.0012    4.9194   -1.5701 C   0  0  0  0  0  0  0  0  0  0  0  0
   -0.1038    4.6611   -0.5357 C   0  0  0  0  0  0  0  0  0  0  0  0
    0.2034    3.3416   -0.1704 C   0  0  0  0  0  0  0  0  0  0  0  0
    1.2799    3.1475    1.1731 Cl  0  0  0  0  0  0  0  0  0  0  0  0
    1.1907    0.4708   -0.4474 N   0  0  0  0  0  0  0  0  0  0  0  0
    5.6740   -0.2075   -0.8213 H   0  0  0  0  0  0  0  0  0  0  0  0
    5.8543   -0.9675    0.7751 H   0  0  0  0  0  0  0  0  0  0  0  0
    5.9988    0.7849    0.6010 H   0  0  0  0  0  0  0  0  0  0  0  0
    3.6257    0.9641   -0.0667 H   0  0  0  0  0  0  0  0  0  0  0  0
    4.1836    1.1470    2.3554 H   0  0  0  0  0  0  0  0  0  0  0  0
    4.0266   -0.6003    2.5615 H   0  0  0  0  0  0  0  0  0  0  0  0
    2.6035    0.3852    2.1773 H   0  0  0  0  0  0  0  0  0  0  0  0
    0.6001   -2.8017    0.0362 H   0  0  0  0  0  0  0  0  0  0  0  0
   -3.4923   -0.8541    0.6689 H   0  0  0  0  0  0  0  0  0  0  0  0
   -3.5722   -1.0999   -1.1015 H   0  0  0  0  0  0  0  0  0  0  0  0
   -4.3515   -3.3547   -0.8578 H   0  0  0  0  0  0  0  0  0  0  0  0
   -5.2124   -2.5451    0.4690 H   0  0  0  0  0  0  0  0  0  0  0  0
   -3.5221   -3.2290    2.0740 H   0  0  0  0  0  0  0  0  0  0  0  0
   -3.6842   -4.6824    1.0717 H   0  0  0  0  0  0  0  0  0  0  0  0
   -1.2824   -3.4231    1.4484 H   0  0  0  0  0  0  0  0  0  0  0  0
   -1.6619   -4.2028   -0.1115 H   0  0  0  0  0  0  0  0  0  0  0  0
   -1.7758    1.7285   -2.4167 H   0  0  0  0  0  0  0  0  0  0  0  0
   -2.3076    4.0515   -3.0447 H   0  0  0  0  0  0  0  0  0  0  0  0
   -1.2348    5.9444   -1.8464 H   0  0  0  0  0  0  0  0  0  0  0  0
    0.3519    5.4951   -0.0068 H   0  0  0  0  0  0  0  0  0  0  0  0
  1  2  1  0
  2  3  1  0
  2  4  1  0
  4  5  1  0
  5  6  2  0
  6  7  1  0
  7  8  1  0
  8  9  1  0
  9 10  1  0
 10 11  1  0
 11 12  1  0
  7 13  2  0
 13 14  1  0
 14 15  1  0
 15 16  2  0
 16 17  1  0
 17 18  2  0
 18 19  1  0
 19 20  2  0
 20 21  1  0
 14 22  2  0
 22  5  1  0
 12  8  1  0
 20 15  1  0
  1 23  1  0
  1 24  1  0
  1 25  1  0
  2 26  1  0
  3 27  1  0
  3 28  1  0
  3 29  1  0
  6 30  1  0
  9 31  1  0
  9 32  1  0
 10 33  1  0
 10 34  1  0
 11 35  1  0
 11 36  1  0
 12 37  1  0
 12 38  1  0
 16 39  1  0
 17 40  1  0
 18 41  1  0
 19 42  1  0
M  END
$$$$
