
     RDKit          3D

 60 63  0  0  0  0  0  0  0  0999 V2000
   -2.6970    3.0805    1.4180 C   0  0  0  0  0  0  0  0  0  0  0  0
   -1.9161    1.9025    1.9696 C   0  0  0  0  0  0  0  0  0  0  0  0
   -2.7515    0.7353    2.0167 O   0  0  0  0  0  0  0  0  0  0  0  0
   -2.7956   -0.0125    0.8771 C   0  0  0  0  0  0  0  0  0  0  0  0
   -2.2192    0.2709   -0.1661 O   0  0  0  0  0  0  0  0  0  0  0  0
   -3.6942   -1.2274    1.0784 C   0  0  0  0  0  0  0  0  0  0  0  0
   -5.1238   -0.8896    0.6324 C   0  0  0  0  0  0  0  0  0  0  0  0
   -5.2721   -0.8600   -0.8879 C   0  0  0  0  0  0  0  0  0  0  0  0
   -4.7592   -2.1545   -1.5082 C   0  0  0  0  0  0  0  0  0  0  0  0
   -3.3271   -2.4573   -1.0773 C   0  0  0  0  0  0  0  0  0  0  0  0
   -3.2506   -2.4837    0.4003 N   0  0  0  0  0  0  0  0  0  0  0  0
   -1.9595   -3.3313    1.1084 S   0  0  0  0  0  6  0  0  0  0  0  0
   -1.7595   -4.5578    0.3654 O   0  0  0  0  0  0  0  0  0  0  0  0
   -2.1955   -3.3612    2.5370 O   0  0  0  0  0  0  0  0  0  0  0  0
   -0.5299   -2.3117    0.8271 C   0  0  0  0  0  0  0  0  0  0  0  0
   -0.0099   -1.5399    1.8809 C   0  0  0  0  0  0  0  0  0  0  0  0
    1.1157   -0.7343    1.6760 C   0  0  0  0  0  0  0  0  0  0  0  0
    1.7070   -0.7190    0.4224 C   0  0  0  0  0  0  0  0  0  0  0  0
    1.2069   -1.5238   -0.6051 C   0  0  0  0  0  0  0  0  0  0  0  0
    0.0995   -2.3392   -0.4201 C   0  0  0  0  0  0  0  0  0  0  0  0
    2.0561   -1.4242   -1.8306 C   0  0  0  0  0  0  0  0  0  0  0  0
    2.9462   -0.2063   -1.4997 C   0  0  0  0  0  0  0  0  0  0  0  0
    2.4892    1.0203   -2.2951 C   0  0  0  0  0  0  0  0  0  0  0  0
    2.8227    0.0201   -0.0347 N   0  0  0  0  0  0  0  0  0  0  0  0
    3.6091    0.8575    0.7581 C   0  0  0  0  0  0  0  0  0  0  0  0
    3.3665    1.0590    1.9564 O   0  0  0  0  0  0  0  0  0  0  0  0
    4.8432    1.5375    0.0788 C   0  0  0  0  0  0  0  0  0  0  0  0
    6.0923    1.7874    0.9704 C   0  0  0  0  0  0  0  0  0  0  0  0
    5.6050    3.2313    1.1741 C   0  0  0  0  0  0  0  0  0  0  0  0
    4.7785    3.0772   -0.1133 C   0  0  0  0  0  0  0  0  0  0  0  0
   -3.6019    3.2530    2.0099 H   0  0  0  0  0  0  0  0  0  0  0  0
   -3.0205    2.8908    0.3895 H   0  0  0  0  0  0  0  0  0  0  0  0
   -2.0880    3.9887    1.4306 H   0  0  0  0  0  0  0  0  0  0  0  0
   -1.0051    1.7184    1.3885 H   0  0  0  0  0  0  0  0  0  0  0  0
   -1.6055    2.1149    2.9981 H   0  0  0  0  0  0  0  0  0  0  0  0
   -3.7396   -1.4282    2.1565 H   0  0  0  0  0  0  0  0  0  0  0  0
   -5.4390    0.0757    1.0463 H   0  0  0  0  0  0  0  0  0  0  0  0
   -5.8092   -1.6471    1.0346 H   0  0  0  0  0  0  0  0  0  0  0  0
   -4.7222   -0.0071   -1.3030 H   0  0  0  0  0  0  0  0  0  0  0  0
   -6.3260   -0.7162   -1.1522 H   0  0  0  0  0  0  0  0  0  0  0  0
   -4.8113   -2.0884   -2.6007 H   0  0  0  0  0  0  0  0  0  0  0  0
   -5.4138   -2.9819   -1.2052 H   0  0  0  0  0  0  0  0  0  0  0  0
   -2.6379   -1.7215   -1.4985 H   0  0  0  0  0  0  0  0  0  0  0  0
   -3.0554   -3.4346   -1.4892 H   0  0  0  0  0  0  0  0  0  0  0  0
   -0.4761   -1.5545    2.8644 H   0  0  0  0  0  0  0  0  0  0  0  0
    1.4934   -0.1371    2.4987 H   0  0  0  0  0  0  0  0  0  0  0  0
   -0.2622   -2.9778   -1.2201 H   0  0  0  0  0  0  0  0  0  0  0  0
    1.4629   -1.2903   -2.7401 H   0  0  0  0  0  0  0  0  0  0  0  0
    2.6654   -2.3302   -1.9230 H   0  0  0  0  0  0  0  0  0  0  0  0
    3.9863   -0.4360   -1.7525 H   0  0  0  0  0  0  0  0  0  0  0  0
    2.5484    0.8255   -3.3712 H   0  0  0  0  0  0  0  0  0  0  0  0
    1.4551    1.2904   -2.0534 H   0  0  0  0  0  0  0  0  0  0  0  0
    3.1109    1.8936   -2.0832 H   0  0  0  0  0  0  0  0  0  0  0  0
    5.1529    1.0294   -0.8397 H   0  0  0  0  0  0  0  0  0  0  0  0
    7.0402    1.7151    0.4241 H   0  0  0  0  0  0  0  0  0  0  0  0
    6.1685    1.1863    1.8806 H   0  0  0  0  0  0  0  0  0  0  0  0
    4.9966    3.3694    2.0748 H   0  0  0  0  0  0  0  0  0  0  0  0
    6.3804    4.0011    1.1499 H   0  0  0  0  0  0  0  0  0  0  0  0
    5.2936    3.4266   -1.0156 H   0  0  0  0  0  0  0  0  0  0  0  0
    3.7819    3.5262   -0.0815 H   0  0  0  0  0  0  0  0  0  0  0  0
  1  2  1  0
  2  3  1  0
  3  4  1  0
  4  5  2  0
  4  6  1  0
  6  7  1  0
  7  8  1  0
  8  9  1  0
  9 10  1  0
 10 11  1  0
 11 12  1  0
 12 13  2  0
 12 14  2  0
 12 15  1  0
 15 16  2  0
 16 17  1  0
 17 18  2  0
 18 19  1  0
 19 20  2  0
 19 21  1  0
 21 22  1  0
 22 23  1  0
 22 24  1  0
 24 25  1  0
 25 26  2  0
 25 27  1  0
 27 28  1  0
 28 29  1  0
 29 30  1  0
 11  6  1  0
 20 15  1  0
 30 27  1  0
 24 18  1  0
  1 31  1  0
  1 32  1  0
  1 33  1  0
  2 34  1  0
  2 35  1  0
  6 36  1  0
  7 37  1  0
  7 38  1  0
  8 39  1  0
  8 40  1  0
  9 41  1  0
  9 42  1  0
 10 43  1  0
 10 44  1  0
 16 45  1  0
 17 46  1  0
 20 47  1  0
 21 48  1  0
 21 49  1  0
 22 50  1  0
 23 51  1  0
 23 52  1  0
 23 53  1  0
 27 54  1  0
 28 55  1  0
 28 56  1  0
 29 57  1  0
 29 58  1  0
 30 59  1  0
 30 60  1  0
M  END
$$$$
