
     RDKit          3D

 42 45  0  0  0  0  0  0  0  0999 V2000
    0.5263    3.9833    0.6813 O   0  0  0  0  0  0  0  0  0  0  0  0
   -0.1374    3.0156    0.3238 C   0  0  0  0  0  0  0  0  0  0  0  0
   -1.4957    3.0855    0.2769 N   0  0  0  0  0  0  0  0  0  0  0  0
   -2.3438    2.1830   -0.2874 C   0  0  0  0  0  0  0  0  0  0  0  0
   -3.5283    2.4834   -0.4210 O   0  0  0  0  0  0  0  0  0  0  0  0
   -1.8036    0.9720   -0.6656 N   0  0  0  0  0  0  0  0  0  0  0  0
   -2.7118   -0.0536   -1.1817 C   0  0  0  0  0  0  0  0  0  0  0  0
   -3.2000   -1.0460   -0.1188 C   0  0  0  0  0  0  0  0  0  0  0  0
   -4.0624   -0.4396    0.9766 C   0  0  0  0  0  0  0  0  0  0  0  0
   -4.8295   -1.6467    1.4559 C   0  0  0  0  0  0  0  0  0  0  0  0
   -5.0951   -2.3840    0.1605 C   0  0  0  0  0  0  0  0  0  0  0  0
   -4.0229   -2.0579   -0.7373 O   0  0  0  0  0  0  0  0  0  0  0  0
   -0.4771    0.6080   -0.4625 C   0  0  0  0  0  0  0  0  0  0  0  0
   -0.1074   -0.5598   -0.5422 O   0  0  0  0  0  0  0  0  0  0  0  0
    0.4423    1.7212   -0.1021 C   0  0  0  0  0  0  0  0  0  0  0  0
    1.7901    1.6613   -0.1152 C   0  0  0  0  0  0  0  0  0  0  0  0
    2.6572    0.6036   -0.5240 C   0  0  0  0  0  0  0  0  0  0  0  0
    2.5427   -0.1391   -1.6775 C   0  0  0  0  0  0  0  0  0  0  0  0
    3.5816   -1.0322   -1.7077 N   0  0  0  0  0  0  0  0  0  0  0  0
    4.4065   -0.8431   -0.6225 C   0  0  0  0  0  0  0  0  0  0  0  0
    5.5889   -1.5013   -0.2633 C   0  0  0  0  0  0  0  0  0  0  0  0
    6.2275   -1.0923    0.9109 C   0  0  0  0  0  0  0  0  0  0  0  0
    5.7019   -0.0677    1.6940 C   0  0  0  0  0  0  0  0  0  0  0  0
    4.5170    0.5783    1.3220 C   0  0  0  0  0  0  0  0  0  0  0  0
    3.8520    0.1867    0.1403 C   0  0  0  0  0  0  0  0  0  0  0  0
   -1.9030    3.9779    0.5191 H   0  0  0  0  0  0  0  0  0  0  0  0
   -2.1937   -0.6104   -1.9735 H   0  0  0  0  0  0  0  0  0  0  0  0
   -3.5727    0.4159   -1.6735 H   0  0  0  0  0  0  0  0  0  0  0  0
   -2.3483   -1.5683    0.3334 H   0  0  0  0  0  0  0  0  0  0  0  0
   -3.4779    0.0418    1.7653 H   0  0  0  0  0  0  0  0  0  0  0  0
   -4.7655    0.2935    0.5647 H   0  0  0  0  0  0  0  0  0  0  0  0
   -5.7441   -1.3997    2.0012 H   0  0  0  0  0  0  0  0  0  0  0  0
   -4.1949   -2.2558    2.1105 H   0  0  0  0  0  0  0  0  0  0  0  0
   -5.1438   -3.4679    0.2977 H   0  0  0  0  0  0  0  0  0  0  0  0
   -6.0289   -2.0482   -0.3026 H   0  0  0  0  0  0  0  0  0  0  0  0
    2.3370    2.5395    0.2322 H   0  0  0  0  0  0  0  0  0  0  0  0
    1.8074   -0.1343   -2.4705 H   0  0  0  0  0  0  0  0  0  0  0  0
    3.7321   -1.7241   -2.4282 H   0  0  0  0  0  0  0  0  0  0  0  0
    6.0005   -2.3009   -0.8703 H   0  0  0  0  0  0  0  0  0  0  0  0
    7.1481   -1.5837    1.2173 H   0  0  0  0  0  0  0  0  0  0  0  0
    6.2138    0.2336    2.6045 H   0  0  0  0  0  0  0  0  0  0  0  0
    4.1148    1.3725    1.9438 H   0  0  0  0  0  0  0  0  0  0  0  0
  1  2  2  0
  2  3  1  0
  3  4  1  0
  4  5  2  0
  4  6  1  0
  6  7  1  0
  7  8  1  0
  8  9  1  0
  9 10  1  0
 10 11  1  0
 11 12  1  0
  6 13  1  0
 13 14  2  0
 13 15  1  0
 15 16  2  3
 16 17  1  0
 17 18  2  0
 18 19  1  0
 19 20  1  0
 20 21  2  0
 21 22  1  0
 22 23  2  0
 23 24  1  0
 24 25  2  0
 15  2  1  0
 25 17  1  0
 12  8  1  0
 25 20  1  0
  3 26  1  0
  7 27  1  0
  7 28  1  0
  8 29  1  0
  9 30  1  0
  9 31  1  0
 10 32  1  0
 10 33  1  0
 11 34  1  0
 11 35  1  0
 16 36  1  0
 18 37  1  0
 19 38  1  0
 21 39  1  0
 22 40  1  0
 23 41  1  0
 24 42  1  0
M  END
$$$$
