
     RDKit          3D

 47 49  0  0  0  0  0  0  0  0999 V2000
    5.4238   -0.7842   -2.4233 C   0  0  0  0  0  0  0  0  0  0  0  0
    4.3921   -0.3241   -1.5587 O   0  0  0  0  0  0  0  0  0  0  0  0
    4.7842    0.3522   -0.4246 C   0  0  0  0  0  0  0  0  0  0  0  0
    6.1112    0.5966   -0.0576 C   0  0  0  0  0  0  0  0  0  0  0  0
    6.3958    1.2927    1.1189 C   0  0  0  0  0  0  0  0  0  0  0  0
    5.3598    1.7432    1.9330 C   0  0  0  0  0  0  0  0  0  0  0  0
    4.0316    1.5035    1.5755 C   0  0  0  0  0  0  0  0  0  0  0  0
    3.7334    0.8154    0.3977 C   0  0  0  0  0  0  0  0  0  0  0  0
    2.4168    0.5256   -0.0253 N   0  0  0  0  0  0  0  0  0  0  0  0
    1.2315    0.9976    0.4833 C   0  0  0  0  0  0  0  0  0  0  0  0
    1.1352    1.8541    1.3588 O   0  0  0  0  0  0  0  0  0  0  0  0
    0.0938    0.4222   -0.0916 N   0  0  0  0  0  0  0  0  0  0  0  0
    0.1126   -0.8067   -0.8868 C   0  0  0  0  0  0  0  0  0  0  0  0
   -1.2198   -1.5446   -0.8655 C   0  0  0  0  0  0  0  0  0  0  0  0
   -2.3583   -0.6378   -1.3349 C   0  0  0  0  0  0  0  0  0  0  0  0
   -3.7069   -1.3319   -1.1505 C   0  0  0  0  0  0  0  0  0  0  0  0
   -4.1085   -2.1519   -1.9774 O   0  0  0  0  0  0  0  0  0  0  0  0
   -4.5769   -1.0543    0.0199 C   0  0  0  0  0  0  0  0  0  0  0  0
   -4.0816   -1.0231    1.3275 C   0  0  0  0  0  0  0  0  0  0  0  0
   -4.9493   -0.7636    2.3915 C   0  0  0  0  0  0  0  0  0  0  0  0
   -6.3020   -0.5529    2.1437 C   0  0  0  0  0  0  0  0  0  0  0  0
   -7.1289   -0.3073    3.1677 F   0  0  0  0  0  0  0  0  0  0  0  0
   -6.8094   -0.6040    0.8507 C   0  0  0  0  0  0  0  0  0  0  0  0
   -5.9464   -0.8621   -0.2153 C   0  0  0  0  0  0  0  0  0  0  0  0
   -2.2520    0.8000   -0.8037 C   0  0  0  0  0  0  0  0  0  0  0  0
   -1.2062    0.9610    0.2960 C   0  0  0  0  0  0  0  0  0  0  0  0
    4.9483   -1.2850   -3.2721 H   0  0  0  0  0  0  0  0  0  0  0  0
    6.0112    0.0518   -2.8172 H   0  0  0  0  0  0  0  0  0  0  0  0
    6.0623   -1.5176   -1.9200 H   0  0  0  0  0  0  0  0  0  0  0  0
    6.9469    0.2605   -0.6614 H   0  0  0  0  0  0  0  0  0  0  0  0
    7.4281    1.4825    1.4024 H   0  0  0  0  0  0  0  0  0  0  0  0
    5.5812    2.2823    2.8507 H   0  0  0  0  0  0  0  0  0  0  0  0
    3.2498    1.8601    2.2387 H   0  0  0  0  0  0  0  0  0  0  0  0
    2.3834    0.0526   -0.9171 H   0  0  0  0  0  0  0  0  0  0  0  0
    0.8984   -1.4725   -0.5133 H   0  0  0  0  0  0  0  0  0  0  0  0
    0.3727   -0.5226   -1.9133 H   0  0  0  0  0  0  0  0  0  0  0  0
   -1.4121   -1.9166    0.1471 H   0  0  0  0  0  0  0  0  0  0  0  0
   -1.1608   -2.4322   -1.5073 H   0  0  0  0  0  0  0  0  0  0  0  0
   -2.2659   -0.5411   -2.4282 H   0  0  0  0  0  0  0  0  0  0  0  0
   -3.0381   -1.2225    1.5443 H   0  0  0  0  0  0  0  0  0  0  0  0
   -4.5824   -0.7356    3.4134 H   0  0  0  0  0  0  0  0  0  0  0  0
   -7.8707   -0.4501    0.6814 H   0  0  0  0  0  0  0  0  0  0  0  0
   -6.3413   -0.9162   -1.2282 H   0  0  0  0  0  0  0  0  0  0  0  0
   -1.9502    1.4448   -1.6412 H   0  0  0  0  0  0  0  0  0  0  0  0
   -3.2151    1.1956   -0.4661 H   0  0  0  0  0  0  0  0  0  0  0  0
   -1.1114    2.0240    0.5458 H   0  0  0  0  0  0  0  0  0  0  0  0
   -1.5098    0.4455    1.2124 H   0  0  0  0  0  0  0  0  0  0  0  0
  1  2  1  0
  2  3  1  0
  3  4  2  0
  4  5  1  0
  5  6  2  0
  6  7  1  0
  7  8  2  0
  8  9  1  0
  9 10  1  0
 10 11  2  0
 10 12  1  0
 12 13  1  0
 13 14  1  0
 14 15  1  0
 15 16  1  0
 16 17  2  0
 16 18  1  0
 18 19  2  0
 19 20  1  0
 20 21  2  0
 21 22  1  0
 21 23  1  0
 23 24  2  0
 15 25  1  0
 25 26  1  0
  8  3  1  0
 26 12  1  0
 24 18  1  0
  1 27  1  0
  1 28  1  0
  1 29  1  0
  4 30  1  0
  5 31  1  0
  6 32  1  0
  7 33  1  0
  9 34  1  0
 13 35  1  0
 13 36  1  0
 14 37  1  0
 14 38  1  0
 15 39  1  0
 19 40  1  0
 20 41  1  0
 23 42  1  0
 24 43  1  0
 25 44  1  0
 25 45  1  0
 26 46  1  0
 26 47  1  0
M  END
$$$$
