
     RDKit          3D

 53 56  0  0  0  0  0  0  0  0999 V2000
    7.4901    2.5625    0.0630 C   0  0  0  0  0  0  0  0  0  0  0  0
    6.7970    1.9916   -1.0393 O   0  0  0  0  0  0  0  0  0  0  0  0
    5.7643    1.1437   -0.7469 C   0  0  0  0  0  0  0  0  0  0  0  0
    5.0515    0.6849   -1.8571 C   0  0  0  0  0  0  0  0  0  0  0  0
    3.9706   -0.1848   -1.7011 C   0  0  0  0  0  0  0  0  0  0  0  0
    3.5864   -0.6152   -0.4253 C   0  0  0  0  0  0  0  0  0  0  0  0
    2.4004   -1.5288   -0.2579 C   0  0  0  0  0  0  0  0  0  0  0  0
    1.1665   -0.7813   -0.3470 N   0  0  0  0  0  0  0  0  0  0  0  0
    0.3646   -0.7938   -1.4678 C   0  0  0  0  0  0  0  0  0  0  0  0
    0.5992   -1.5295   -2.4289 O   0  0  0  0  0  0  0  0  0  0  0  0
   -0.8118    0.1722   -1.4850 C   0  0  0  0  0  0  0  0  0  0  0  0
   -0.3582    1.4926   -1.9421 C   0  0  0  0  0  0  0  0  0  0  0  0
   -0.0242    2.5390   -2.3231 N   0  0  0  0  0  0  0  0  0  0  0  0
   -1.5285    0.2495   -0.1529 C   0  0  0  0  0  0  0  0  0  0  0  0
   -0.8430    0.7873    0.9019 N   0  0  0  0  0  0  0  0  0  0  0  0
   -1.4984    0.8922    2.0713 C   0  0  0  0  0  0  0  0  0  0  0  0
   -0.8609    1.4530    3.1709 C   0  0  0  0  0  0  0  0  0  0  0  0
   -1.5089    1.5783    4.4003 C   0  0  0  0  0  0  0  0  0  0  0  0
   -2.8176    1.1350    4.5313 C   0  0  0  0  0  0  0  0  0  0  0  0
   -3.4661    0.5717    3.4313 C   0  0  0  0  0  0  0  0  0  0  0  0
   -2.8289    0.4425    2.2028 C   0  0  0  0  0  0  0  0  0  0  0  0
   -3.4882   -0.1084    1.1670 N   0  0  0  0  0  0  0  0  0  0  0  0
   -2.8464   -0.2060   -0.0193 C   0  0  0  0  0  0  0  0  0  0  0  0
   -3.5074   -0.8009   -1.1071 N   0  0  0  0  0  0  0  0  0  0  0  0
   -4.9126   -0.3650   -1.2548 C   0  0  0  0  0  0  0  0  0  0  0  0
   -5.7574   -1.6226   -1.0848 C   0  0  0  0  0  0  0  0  0  0  0  0
   -4.8262   -2.7194   -1.5581 C   0  0  0  0  0  0  0  0  0  0  0  0
   -3.4883   -2.2738   -0.9822 C   0  0  0  0  0  0  0  0  0  0  0  0
    4.3001   -0.1508    0.6869 C   0  0  0  0  0  0  0  0  0  0  0  0
    5.3859    0.7199    0.5270 C   0  0  0  0  0  0  0  0  0  0  0  0
    8.2318    3.2588   -0.3341 H   0  0  0  0  0  0  0  0  0  0  0  0
    6.8105    3.1285    0.7062 H   0  0  0  0  0  0  0  0  0  0  0  0
    8.0237    1.7945    0.6313 H   0  0  0  0  0  0  0  0  0  0  0  0
    5.3350    1.0146   -2.8537 H   0  0  0  0  0  0  0  0  0  0  0  0
    3.4229   -0.5185   -2.5811 H   0  0  0  0  0  0  0  0  0  0  0  0
    2.4299   -2.3298   -1.0067 H   0  0  0  0  0  0  0  0  0  0  0  0
    2.4184   -2.0053    0.7289 H   0  0  0  0  0  0  0  0  0  0  0  0
    0.9723   -0.0928    0.3799 H   0  0  0  0  0  0  0  0  0  0  0  0
   -1.4885   -0.2129   -2.2553 H   0  0  0  0  0  0  0  0  0  0  0  0
    0.1627    1.8063    3.0665 H   0  0  0  0  0  0  0  0  0  0  0  0
   -0.9919    2.0245    5.2471 H   0  0  0  0  0  0  0  0  0  0  0  0
   -3.3369    1.2289    5.4821 H   0  0  0  0  0  0  0  0  0  0  0  0
   -4.4932    0.2287    3.5317 H   0  0  0  0  0  0  0  0  0  0  0  0
   -5.2305    0.4313   -0.5710 H   0  0  0  0  0  0  0  0  0  0  0  0
   -5.0301    0.0231   -2.2747 H   0  0  0  0  0  0  0  0  0  0  0  0
   -6.0110   -1.7697   -0.0276 H   0  0  0  0  0  0  0  0  0  0  0  0
   -6.6898   -1.5789   -1.6558 H   0  0  0  0  0  0  0  0  0  0  0  0
   -4.7815   -2.7353   -2.6544 H   0  0  0  0  0  0  0  0  0  0  0  0
   -5.1257   -3.7111   -1.2097 H   0  0  0  0  0  0  0  0  0  0  0  0
   -2.6525   -2.6987   -1.5458 H   0  0  0  0  0  0  0  0  0  0  0  0
   -3.4095   -2.6082    0.0621 H   0  0  0  0  0  0  0  0  0  0  0  0
    4.0176   -0.4611    1.6902 H   0  0  0  0  0  0  0  0  0  0  0  0
    5.9128    1.0474    1.4175 H   0  0  0  0  0  0  0  0  0  0  0  0
  1  2  1  0
  2  3  1  0
  3  4  2  0
  4  5  1  0
  5  6  2  0
  6  7  1  0
  7  8  1  0
  8  9  1  0
  9 10  2  0
  9 11  1  0
 11 12  1  0
 12 13  3  0
 11 14  1  0
 14 15  2  0
 15 16  1  0
 16 17  2  0
 17 18  1  0
 18 19  2  0
 19 20  1  0
 20 21  2  0
 21 22  1  0
 22 23  2  0
 23 24  1  0
 24 25  1  0
 25 26  1  0
 26 27  1  0
 27 28  1  0
  6 29  1  0
 29 30  2  0
 30  3  1  0
 23 14  1  0
 28 24  1  0
 21 16  1  0
  1 31  1  0
  1 32  1  0
  1 33  1  0
  4 34  1  0
  5 35  1  0
  7 36  1  0
  7 37  1  0
  8 38  1  0
 11 39  1  0
 17 40  1  0
 18 41  1  0
 19 42  1  0
 20 43  1  0
 25 44  1  0
 25 45  1  0
 26 46  1  0
 26 47  1  0
 27 48  1  0
 27 49  1  0
 28 50  1  0
 28 51  1  0
 29 52  1  0
 30 53  1  0
M  END
$$$$
