
     RDKit          3D

 46 48  0  0  0  0  0  0  0  0999 V2000
    7.9506   -0.8199    1.1609 C   0  0  0  0  0  0  0  0  0  0  0  0
    7.1567    0.3594    1.1962 O   0  0  0  0  0  0  0  0  0  0  0  0
    5.8366    0.2300    0.8677 C   0  0  0  0  0  0  0  0  0  0  0  0
    5.1915   -0.9525    0.5052 C   0  0  0  0  0  0  0  0  0  0  0  0
    3.8248   -0.9478    0.1901 C   0  0  0  0  0  0  0  0  0  0  0  0
    3.0915    0.2442    0.2345 C   0  0  0  0  0  0  0  0  0  0  0  0
    1.6332    0.3055   -0.0907 C   0  0  0  0  0  0  0  0  0  0  0  0
    1.0325    1.3710    0.0539 O   0  0  0  0  0  0  0  0  0  0  0  0
    0.9485   -0.9683   -0.5778 C   0  0  0  0  0  0  0  0  0  0  0  0
   -0.4116   -0.6609   -0.9534 N   0  0  0  0  0  0  0  0  0  0  0  0
   -0.7906   -0.2467   -2.1877 C   0  0  0  0  0  0  0  0  0  0  0  0
   -0.0849   -0.1117   -3.1728 O   0  0  0  0  0  0  0  0  0  0  0  0
   -2.1438   -0.0082   -2.1685 N   0  0  0  0  0  0  0  0  0  0  0  0
   -2.7136   -0.0880   -0.8258 C   0  0  0  0  0  0  0  0  0  0  0  0
   -3.0251    1.3412   -0.3490 C   0  0  0  0  0  0  0  0  0  0  0  0
   -3.5128    1.4745    1.0917 C   0  0  0  0  0  0  0  0  0  0  0  0
   -5.0088    1.2601    1.2908 C   0  0  0  0  0  0  0  0  0  0  0  0
   -5.6417    0.0979    0.5353 C   0  0  0  0  0  0  0  0  0  0  0  0
   -4.7583   -1.1378    0.4062 C   0  0  0  0  0  0  0  0  0  0  0  0
   -3.8670   -1.0954   -0.8352 C   0  0  0  0  0  0  0  0  0  0  0  0
   -1.4739   -0.6638   -0.0952 C   0  0  0  0  0  0  0  0  0  0  0  0
   -1.4432   -1.0513    1.0660 O   0  0  0  0  0  0  0  0  0  0  0  0
    3.7426    1.4281    0.6012 C   0  0  0  0  0  0  0  0  0  0  0  0
    5.1045    1.4174    0.9140 C   0  0  0  0  0  0  0  0  0  0  0  0
    7.9874   -1.2407    0.1506 H   0  0  0  0  0  0  0  0  0  0  0  0
    7.5914   -1.5589    1.8846 H   0  0  0  0  0  0  0  0  0  0  0  0
    8.9710   -0.5448    1.4444 H   0  0  0  0  0  0  0  0  0  0  0  0
    5.7224   -1.8981    0.4584 H   0  0  0  0  0  0  0  0  0  0  0  0
    3.3667   -1.8940   -0.0818 H   0  0  0  0  0  0  0  0  0  0  0  0
    1.4767   -1.3538   -1.4551 H   0  0  0  0  0  0  0  0  0  0  0  0
    0.9401   -1.7038    0.2322 H   0  0  0  0  0  0  0  0  0  0  0  0
   -2.5903    0.4216   -2.9682 H   0  0  0  0  0  0  0  0  0  0  0  0
   -2.1064    1.9402   -0.4307 H   0  0  0  0  0  0  0  0  0  0  0  0
   -3.7441    1.8152   -1.0300 H   0  0  0  0  0  0  0  0  0  0  0  0
   -2.9550    0.8078    1.7562 H   0  0  0  0  0  0  0  0  0  0  0  0
   -3.2808    2.4890    1.4417 H   0  0  0  0  0  0  0  0  0  0  0  0
   -5.1886    1.1254    2.3653 H   0  0  0  0  0  0  0  0  0  0  0  0
   -5.5440    2.1779    1.0155 H   0  0  0  0  0  0  0  0  0  0  0  0
   -5.9599    0.4372   -0.4584 H   0  0  0  0  0  0  0  0  0  0  0  0
   -6.5638   -0.1785    1.0623 H   0  0  0  0  0  0  0  0  0  0  0  0
   -4.1734   -1.3107    1.3157 H   0  0  0  0  0  0  0  0  0  0  0  0
   -5.4187   -2.0080    0.2981 H   0  0  0  0  0  0  0  0  0  0  0  0
   -4.5035   -0.9089   -1.7114 H   0  0  0  0  0  0  0  0  0  0  0  0
   -3.4590   -2.1049   -0.9858 H   0  0  0  0  0  0  0  0  0  0  0  0
    3.1962    2.3688    0.6457 H   0  0  0  0  0  0  0  0  0  0  0  0
    5.5976    2.3450    1.1964 H   0  0  0  0  0  0  0  0  0  0  0  0
  1  2  1  0
  2  3  1  0
  3  4  2  0
  4  5  1  0
  5  6  2  0
  6  7  1  0
  7  8  2  0
  7  9  1  0
  9 10  1  0
 10 11  1  0
 11 12  2  0
 11 13  1  0
 13 14  1  0
 14 15  1  0
 15 16  1  0
 16 17  1  0
 17 18  1  0
 18 19  1  0
 19 20  1  0
 14 21  1  0
 21 22  2  0
  6 23  1  0
 23 24  2  0
 24  3  1  0
 21 10  1  0
 20 14  1  0
  1 25  1  0
  1 26  1  0
  1 27  1  0
  4 28  1  0
  5 29  1  0
  9 30  1  0
  9 31  1  0
 13 32  1  0
 15 33  1  0
 15 34  1  0
 16 35  1  0
 16 36  1  0
 17 37  1  0
 17 38  1  0
 18 39  1  0
 18 40  1  0
 19 41  1  0
 19 42  1  0
 20 43  1  0
 20 44  1  0
 23 45  1  0
 24 46  1  0
M  END
$$$$
