
     RDKit          3D

 40 42  0  0  0  0  0  0  0  0999 V2000
    6.1293    0.7755    0.2615 C   0  0  0  0  0  0  0  0  0  0  0  0
    5.3120   -0.0891   -0.6860 C   0  0  0  0  0  0  0  0  0  0  0  0
    3.8309    0.0654   -0.4491 C   0  0  0  0  0  0  0  0  0  0  0  0
    3.1697   -0.7584    0.4696 C   0  0  0  0  0  0  0  0  0  0  0  0
    1.8005   -0.6049    0.7008 C   0  0  0  0  0  0  0  0  0  0  0  0
    1.0748    0.3770    0.0171 C   0  0  0  0  0  0  0  0  0  0  0  0
   -0.3751    0.5137    0.2834 C   0  0  0  0  0  0  0  0  0  0  0  0
   -0.9831   -0.1081    1.2504 N   0  0  0  0  0  0  0  0  0  0  0  0
   -2.4072    0.3078    1.1419 N   0  0  0  0  0  0  0  0  0  0  0  0
   -3.6370   -0.5312    1.9374 S   0  0  0  0  0  6  0  0  0  0  0  0
   -3.0573   -0.4478    3.6159 C   0  0  0  0  0  0  0  0  0  0  0  0
   -3.6255   -1.9216    1.5323 O   0  0  0  0  0  0  0  0  0  0  0  0
   -4.8454    0.2658    1.8566 O   0  0  0  0  0  0  0  0  0  0  0  0
   -2.6627    0.9339   -0.1695 C   0  0  0  0  0  0  0  0  0  0  0  0
   -3.1839   -0.0262   -1.2089 C   0  0  0  0  0  0  0  0  0  0  0  0
   -2.8143   -1.3325   -1.4767 C   0  0  0  0  0  0  0  0  0  0  0  0
   -3.5400   -1.8962   -2.5647 C   0  0  0  0  0  0  0  0  0  0  0  0
   -4.4345   -1.0018   -3.1052 C   0  0  0  0  0  0  0  0  0  0  0  0
   -4.3968    0.5063   -2.3042 S   0  0  0  0  0  0  0  0  0  0  0  0
   -1.2568    1.4243   -0.5456 C   0  0  0  0  0  0  0  0  0  0  0  0
    1.7316    1.2092   -0.8943 C   0  0  0  0  0  0  0  0  0  0  0  0
    3.1024    1.0536   -1.1233 C   0  0  0  0  0  0  0  0  0  0  0  0
    5.8904    1.8371    0.1368 H   0  0  0  0  0  0  0  0  0  0  0  0
    7.1984    0.6434    0.0672 H   0  0  0  0  0  0  0  0  0  0  0  0
    5.9390    0.5090    1.3067 H   0  0  0  0  0  0  0  0  0  0  0  0
    5.5485    0.1729   -1.7245 H   0  0  0  0  0  0  0  0  0  0  0  0
    5.5968   -1.1416   -0.5667 H   0  0  0  0  0  0  0  0  0  0  0  0
    3.7166   -1.5266    1.0126 H   0  0  0  0  0  0  0  0  0  0  0  0
    1.3086   -1.2608    1.4163 H   0  0  0  0  0  0  0  0  0  0  0  0
   -2.9381    0.5997    3.8993 H   0  0  0  0  0  0  0  0  0  0  0  0
   -2.1131   -0.9886    3.6988 H   0  0  0  0  0  0  0  0  0  0  0  0
   -3.8081   -0.9194    4.2540 H   0  0  0  0  0  0  0  0  0  0  0  0
   -3.3317    1.7929   -0.0442 H   0  0  0  0  0  0  0  0  0  0  0  0
   -2.0725   -1.8731   -0.8988 H   0  0  0  0  0  0  0  0  0  0  0  0
   -3.4181   -2.9108   -2.9233 H   0  0  0  0  0  0  0  0  0  0  0  0
   -5.1149   -1.1633   -3.9299 H   0  0  0  0  0  0  0  0  0  0  0  0
   -1.0996    2.4519   -0.1983 H   0  0  0  0  0  0  0  0  0  0  0  0
   -1.0413    1.3592   -1.6154 H   0  0  0  0  0  0  0  0  0  0  0  0
    1.2061    1.9916   -1.4333 H   0  0  0  0  0  0  0  0  0  0  0  0
    3.6014    1.7117   -1.8322 H   0  0  0  0  0  0  0  0  0  0  0  0
  1  2  1  0
  2  3  1  0
  3  4  2  0
  4  5  1  0
  5  6  2  0
  6  7  1  0
  7  8  2  0
  8  9  1  0
  9 10  1  0
 10 11  1  0
 10 12  2  0
 10 13  2  0
  9 14  1  0
 14 15  1  0
 15 16  2  0
 16 17  1  0
 17 18  2  0
 18 19  1  0
 14 20  1  0
  6 21  1  0
 21 22  2  0
 22  3  1  0
 20  7  1  0
 19 15  1  0
  1 23  1  0
  1 24  1  0
  1 25  1  0
  2 26  1  0
  2 27  1  0
  4 28  1  0
  5 29  1  0
 11 30  1  0
 11 31  1  0
 11 32  1  0
 14 33  1  0
 16 34  1  0
 17 35  1  0
 18 36  1  0
 20 37  1  0
 20 38  1  0
 21 39  1  0
 22 40  1  0
M  END
$$$$
