
     RDKit          3D

 37 37  0  0  0  0  0  0  0  0999 V2000
    5.8358   -0.9502    0.2502 C   0  0  0  0  0  0  0  0  0  0  0  0
    4.5451   -0.2148    0.5738 C   0  0  0  0  0  0  0  0  0  0  0  0
    3.5007   -0.4063   -0.5256 C   0  0  0  0  0  0  0  0  0  0  0  0
    2.2043    0.3345   -0.1962 C   0  0  0  0  0  0  0  0  0  0  0  0
    1.1599    0.1433   -1.2941 C   0  0  0  0  0  0  0  0  0  0  0  0
   -0.1429    0.8590   -0.9813 C   0  0  0  0  0  0  0  0  0  0  0  0
   -0.2983    1.5694    0.0074 O   0  0  0  0  0  0  0  0  0  0  0  0
   -1.1134    0.5956   -1.9558 N   0  0  0  0  0  0  0  0  0  0  0  0
   -2.2836    1.3111   -1.9800 N   0  0  0  0  0  0  0  0  0  0  0  0
   -3.1151    1.1894   -0.9833 C   0  0  0  0  0  0  0  0  0  0  0  0
   -4.3047    2.1222   -0.9592 C   0  0  0  0  0  0  0  0  0  0  0  0
   -3.0407    0.1892    0.1120 C   0  0  0  0  0  0  0  0  0  0  0  0
   -2.9922   -1.1738   -0.2006 C   0  0  0  0  0  0  0  0  0  0  0  0
   -2.9404   -2.1176    0.8269 C   0  0  0  0  0  0  0  0  0  0  0  0
   -2.9396   -1.6943    2.1567 C   0  0  0  0  0  0  0  0  0  0  0  0
   -2.8723   -2.8595    3.4210 Cl  0  0  0  0  0  0  0  0  0  0  0  0
   -2.9928   -0.3356    2.4700 C   0  0  0  0  0  0  0  0  0  0  0  0
   -3.0477    0.6115    1.4450 C   0  0  0  0  0  0  0  0  0  0  0  0
    6.2725   -0.5837   -0.6843 H   0  0  0  0  0  0  0  0  0  0  0  0
    6.5683   -0.7998    1.0494 H   0  0  0  0  0  0  0  0  0  0  0  0
    5.6596   -2.0259    0.1488 H   0  0  0  0  0  0  0  0  0  0  0  0
    4.1519   -0.5819    1.5290 H   0  0  0  0  0  0  0  0  0  0  0  0
    4.7614    0.8524    0.7004 H   0  0  0  0  0  0  0  0  0  0  0  0
    3.2912   -1.4756   -0.6510 H   0  0  0  0  0  0  0  0  0  0  0  0
    3.9002   -0.0413   -1.4797 H   0  0  0  0  0  0  0  0  0  0  0  0
    2.4126    1.4039   -0.0669 H   0  0  0  0  0  0  0  0  0  0  0  0
    1.8046   -0.0270    0.7595 H   0  0  0  0  0  0  0  0  0  0  0  0
    1.5442    0.5315   -2.2446 H   0  0  0  0  0  0  0  0  0  0  0  0
    0.9439   -0.9243   -1.4200 H   0  0  0  0  0  0  0  0  0  0  0  0
   -0.7408    0.4336   -2.8872 H   0  0  0  0  0  0  0  0  0  0  0  0
   -5.0580    1.8018   -0.2346 H   0  0  0  0  0  0  0  0  0  0  0  0
   -4.7676    2.1463   -1.9505 H   0  0  0  0  0  0  0  0  0  0  0  0
   -3.9639    3.1293   -0.7019 H   0  0  0  0  0  0  0  0  0  0  0  0
   -2.9978   -1.4993   -1.2376 H   0  0  0  0  0  0  0  0  0  0  0  0
   -2.9010   -3.1766    0.5864 H   0  0  0  0  0  0  0  0  0  0  0  0
   -2.9818   -0.0075    3.5061 H   0  0  0  0  0  0  0  0  0  0  0  0
   -3.0613    1.6710    1.6883 H   0  0  0  0  0  0  0  0  0  0  0  0
  1  2  1  0
  2  3  1  0
  3  4  1  0
  4  5  1  0
  5  6  1  0
  6  7  2  0
  6  8  1  0
  8  9  1  0
  9 10  2  3
 10 11  1  0
 10 12  1  0
 12 13  2  0
 13 14  1  0
 14 15  2  0
 15 16  1  0
 15 17  1  0
 17 18  2  0
 18 12  1  0
  1 19  1  0
  1 20  1  0
  1 21  1  0
  2 22  1  0
  2 23  1  0
  3 24  1  0
  3 25  1  0
  4 26  1  0
  4 27  1  0
  5 28  1  0
  5 29  1  0
  8 30  1  0
 11 31  1  0
 11 32  1  0
 11 33  1  0
 13 34  1  0
 14 35  1  0
 17 36  1  0
 18 37  1  0
M  END
$$$$
