
     RDKit          3D

 36 37  0  0  0  0  0  0  0  0999 V2000
   -4.7848    1.1232    1.8118 C   0  0  0  0  0  0  0  0  0  0  0  0
   -4.0819    0.8864    0.5644 N   0  0  0  0  0  0  0  0  0  0  0  0
   -4.5342    1.5322   -0.5784 C   0  0  0  0  0  0  0  0  0  0  0  0
   -5.5113    2.2780   -0.5970 O   0  0  0  0  0  0  0  0  0  0  0  0
   -3.7718    1.2789   -1.8207 C   0  0  0  0  0  0  0  0  0  0  0  0
   -4.1209    1.9522   -3.0196 C   0  0  0  0  0  0  0  0  0  0  0  0
   -4.3535    2.4707   -4.0316 N   0  0  0  0  0  0  0  0  0  0  0  0
   -2.7646    0.4011   -1.7815 C   0  0  0  0  0  0  0  0  0  0  0  0
   -2.4161   -0.2725   -0.6317 N   0  0  0  0  0  0  0  0  0  0  0  0
   -1.2974   -1.2225   -0.6665 C   0  0  0  0  0  0  0  0  0  0  0  0
    0.0206   -0.5997   -0.1767 C   0  0  0  0  0  0  0  0  0  0  0  0
    1.0961   -1.5894   -0.2490 N   0  0  0  0  0  0  0  0  0  0  0  0
    2.3775   -1.0944    0.0699 C   0  0  0  0  0  0  0  0  0  0  0  0
    2.5650    0.2428    0.1613 N   0  0  0  0  0  0  0  0  0  0  0  0
    3.8136    0.7053    0.4129 C   0  0  0  0  0  0  0  0  0  0  0  0
    4.9262   -0.1051    0.5706 C   0  0  0  0  0  0  0  0  0  0  0  0
    6.2623    0.4989    0.8685 C   0  0  0  0  0  0  0  0  0  0  0  0
    6.4339    0.7403    2.1960 F   0  0  0  0  0  0  0  0  0  0  0  0
    6.4582    1.6909    0.2415 F   0  0  0  0  0  0  0  0  0  0  0  0
    7.3026   -0.2949    0.4936 F   0  0  0  0  0  0  0  0  0  0  0  0
    4.7321   -1.4844    0.4756 C   0  0  0  0  0  0  0  0  0  0  0  0
    3.4556   -1.9836    0.2157 C   0  0  0  0  0  0  0  0  0  0  0  0
    3.2446   -3.6951    0.1087 Cl  0  0  0  0  0  0  0  0  0  0  0  0
   -3.0514   -0.0504    0.5887 C   0  0  0  0  0  0  0  0  0  0  0  0
   -2.7167   -0.6455    1.6130 O   0  0  0  0  0  0  0  0  0  0  0  0
   -4.0698    1.2005    2.6371 H   0  0  0  0  0  0  0  0  0  0  0  0
   -5.4460    0.2715    2.0014 H   0  0  0  0  0  0  0  0  0  0  0  0
   -5.3818    2.0385    1.7780 H   0  0  0  0  0  0  0  0  0  0  0  0
   -2.1796    0.1790   -2.6725 H   0  0  0  0  0  0  0  0  0  0  0  0
   -1.5513   -2.0847   -0.0365 H   0  0  0  0  0  0  0  0  0  0  0  0
   -1.1803   -1.6120   -1.6859 H   0  0  0  0  0  0  0  0  0  0  0  0
   -0.0931   -0.2394    0.8530 H   0  0  0  0  0  0  0  0  0  0  0  0
    0.2451    0.2645   -0.8150 H   0  0  0  0  0  0  0  0  0  0  0  0
    0.9155   -2.4041    0.3368 H   0  0  0  0  0  0  0  0  0  0  0  0
    3.8871    1.7896    0.4815 H   0  0  0  0  0  0  0  0  0  0  0  0
    5.5706   -2.1668    0.5994 H   0  0  0  0  0  0  0  0  0  0  0  0
  1  2  1  0
  2  3  1  0
  3  4  2  0
  3  5  1  0
  5  6  1  0
  6  7  3  0
  5  8  2  0
  8  9  1  0
  9 10  1  0
 10 11  1  0
 11 12  1  0
 12 13  1  0
 13 14  2  0
 14 15  1  0
 15 16  2  0
 16 17  1  0
 17 18  1  0
 17 19  1  0
 17 20  1  0
 16 21  1  0
 21 22  2  0
 22 23  1  0
  9 24  1  0
 24 25  2  0
 24  2  1  0
 22 13  1  0
  1 26  1  0
  1 27  1  0
  1 28  1  0
  8 29  1  0
 10 30  1  0
 10 31  1  0
 11 32  1  0
 11 33  1  0
 12 34  1  0
 15 35  1  0
 21 36  1  0
M  END
$$$$
