
     RDKit          3D

 49 52  0  0  0  0  0  0  0  0999 V2000
   -5.8098    2.1476    0.4396 C   0  0  0  0  0  0  0  0  0  0  0  0
   -5.1582    0.8086    0.2469 C   0  0  0  0  0  0  0  0  0  0  0  0
   -5.8997   -0.3642    0.4315 C   0  0  0  0  0  0  0  0  0  0  0  0
   -5.2952   -1.6172    0.3000 C   0  0  0  0  0  0  0  0  0  0  0  0
   -6.0832   -2.8708    0.5398 C   0  0  0  0  0  0  0  0  0  0  0  0
   -3.9271   -1.6866    0.0027 C   0  0  0  0  0  0  0  0  0  0  0  0
   -3.1629   -0.5217   -0.1946 C   0  0  0  0  0  0  0  0  0  0  0  0
   -1.7729   -0.6575   -0.5049 N   0  0  0  0  0  0  0  0  0  0  0  0
   -1.1860   -1.8860   -0.3822 N   0  0  0  0  0  0  0  0  0  0  0  0
    0.1029   -1.6970   -0.6518 C   0  0  0  0  0  0  0  0  0  0  0  0
    0.3872   -0.3704   -0.9898 C   0  0  0  0  0  0  0  0  0  0  0  0
   -0.8376    0.2740   -0.9399 C   0  0  0  0  0  0  0  0  0  0  0  0
   -1.0444    1.6962   -1.3359 C   0  0  0  0  0  0  0  0  0  0  0  0
    0.1621    2.2050   -2.1500 C   0  0  0  0  0  0  0  0  0  0  0  0
    1.5005    1.8066   -1.5069 C   0  0  0  0  0  0  0  0  0  0  0  0
    1.6634    0.2717   -1.4179 C   0  0  0  0  0  0  0  0  0  0  0  0
    2.6946   -0.0823   -0.4767 N   0  0  0  0  0  0  0  0  0  0  0  0
    4.0331   -0.0049   -0.7846 C   0  0  0  0  0  0  0  0  0  0  0  0
    4.4613    0.2461   -1.9067 O   0  0  0  0  0  0  0  0  0  0  0  0
    4.9060   -0.2403    0.3756 C   0  0  0  0  0  0  0  0  0  0  0  0
    6.3238   -0.2690    0.3881 C   0  0  0  0  0  0  0  0  0  0  0  0
    6.6773   -0.5245    1.6931 C   0  0  0  0  0  0  0  0  0  0  0  0
    7.9946   -0.6736    2.3492 C   0  0  0  0  0  0  0  0  0  0  0  0
    5.4994   -0.6283    2.3778 N   0  0  0  0  0  0  0  0  0  0  0  0
    4.4085   -0.4577    1.6116 N   0  0  0  0  0  0  0  0  0  0  0  0
   -3.7884    0.7216   -0.0524 C   0  0  0  0  0  0  0  0  0  0  0  0
   -6.8561    2.1203    0.1189 H   0  0  0  0  0  0  0  0  0  0  0  0
   -5.7674    2.4356    1.4945 H   0  0  0  0  0  0  0  0  0  0  0  0
   -5.3092    2.9170   -0.1581 H   0  0  0  0  0  0  0  0  0  0  0  0
   -6.9553   -0.3002    0.6893 H   0  0  0  0  0  0  0  0  0  0  0  0
   -7.1264   -2.7402    0.2333 H   0  0  0  0  0  0  0  0  0  0  0  0
   -6.0560   -3.1317    1.6021 H   0  0  0  0  0  0  0  0  0  0  0  0
   -5.6772   -3.7061   -0.0401 H   0  0  0  0  0  0  0  0  0  0  0  0
   -3.4613   -2.6682   -0.0829 H   0  0  0  0  0  0  0  0  0  0  0  0
    0.7796   -2.5410   -0.6024 H   0  0  0  0  0  0  0  0  0  0  0  0
   -1.1437    2.3130   -0.4353 H   0  0  0  0  0  0  0  0  0  0  0  0
   -1.9444    1.8131   -1.9480 H   0  0  0  0  0  0  0  0  0  0  0  0
    0.1185    1.7949   -3.1673 H   0  0  0  0  0  0  0  0  0  0  0  0
    0.1030    3.2955   -2.2425 H   0  0  0  0  0  0  0  0  0  0  0  0
    2.3314    2.2338   -2.0812 H   0  0  0  0  0  0  0  0  0  0  0  0
    1.5560    2.2527   -0.5043 H   0  0  0  0  0  0  0  0  0  0  0  0
    1.9392   -0.1136   -2.4078 H   0  0  0  0  0  0  0  0  0  0  0  0
    2.4836   -0.1786    0.5134 H   0  0  0  0  0  0  0  0  0  0  0  0
    6.9840   -0.1242   -0.4569 H   0  0  0  0  0  0  0  0  0  0  0  0
    8.2822    0.2610    2.8424 H   0  0  0  0  0  0  0  0  0  0  0  0
    7.9726   -1.4699    3.1012 H   0  0  0  0  0  0  0  0  0  0  0  0
    8.7688   -0.9259    1.6163 H   0  0  0  0  0  0  0  0  0  0  0  0
    5.3670   -0.8131    3.3672 H   0  0  0  0  0  0  0  0  0  0  0  0
   -3.2378    1.6502   -0.1253 H   0  0  0  0  0  0  0  0  0  0  0  0
  1  2  1  0
  2  3  2  0
  3  4  1  0
  4  5  1  0
  4  6  2  0
  6  7  1  0
  7  8  1  0
  8  9  1  0
  9 10  2  0
 10 11  1  0
 11 12  2  0
 12 13  1  0
 13 14  1  0
 14 15  1  0
 15 16  1  0
 16 17  1  0
 17 18  1  0
 18 19  2  0
 18 20  1  0
 20 21  1  0
 21 22  2  0
 22 23  1  0
 22 24  1  0
 24 25  1  0
  7 26  2  0
 26  2  1  0
 12  8  1  0
 25 20  2  0
 16 11  1  0
  1 27  1  0
  1 28  1  0
  1 29  1  0
  3 30  1  0
  5 31  1  0
  5 32  1  0
  5 33  1  0
  6 34  1  0
 10 35  1  0
 13 36  1  0
 13 37  1  0
 14 38  1  0
 14 39  1  0
 15 40  1  0
 15 41  1  0
 16 42  1  0
 17 43  1  0
 21 44  1  0
 23 45  1  0
 23 46  1  0
 23 47  1  0
 24 48  1  0
 26 49  1  0
M  END
$$$$
