
     RDKit          3D

 56 59  0  0  0  0  0  0  0  0999 V2000
    7.3772    1.6018    0.7011 C   0  0  0  0  0  0  0  0  0  0  0  0
    5.9593    1.1470    0.8886 C   0  0  0  0  0  0  0  0  0  0  0  0
    5.6806    0.0197    1.6731 C   0  0  0  0  0  0  0  0  0  0  0  0
    4.3626   -0.3905    1.8784 C   0  0  0  0  0  0  0  0  0  0  0  0
    3.3164    0.3237    1.2868 C   0  0  0  0  0  0  0  0  0  0  0  0
    1.6347   -0.1792    1.5852 S   0  0  0  0  0  6  0  0  0  0  0  0
    0.7941    0.9877    1.3847 O   0  0  0  0  0  0  0  0  0  0  0  0
    1.6139   -0.8912    2.8462 O   0  0  0  0  0  0  0  0  0  0  0  0
    1.2824   -1.2627    0.3206 N   0  0  0  0  0  0  0  0  0  0  0  0
    0.9668   -0.6625   -0.9982 C   0  0  0  0  0  0  0  0  0  0  0  0
   -0.5436   -0.5599   -1.1712 C   0  0  0  0  0  0  0  0  0  0  0  0
   -1.1720   -1.4307   -1.7737 O   0  0  0  0  0  0  0  0  0  0  0  0
   -1.0850    0.5976   -0.6140 N   0  0  0  0  0  0  0  0  0  0  0  0
   -2.4269    0.8925   -0.5706 N   0  0  0  0  0  0  0  0  0  0  0  0
   -3.1576    0.5778   -1.5925 C   0  0  0  0  0  0  0  0  0  0  0  0
   -4.6236    0.7897   -1.6485 C   0  0  0  0  0  0  0  0  0  0  0  0
   -5.3044    0.1134   -2.6744 C   0  0  0  0  0  0  0  0  0  0  0  0
   -6.6860    0.2464   -2.8149 C   0  0  0  0  0  0  0  0  0  0  0  0
   -7.3973    1.0493   -1.9273 C   0  0  0  0  0  0  0  0  0  0  0  0
   -6.7288    1.7192   -0.9024 C   0  0  0  0  0  0  0  0  0  0  0  0
   -5.3345    1.6168   -0.7671 C   0  0  0  0  0  0  0  0  0  0  0  0
   -4.6538    2.3140    0.1979 O   0  0  0  0  0  0  0  0  0  0  0  0
   -5.4363    3.3574    0.7800 C   0  0  0  0  0  0  0  0  0  0  0  0
   -6.8217    2.8457    1.1221 C   0  0  0  0  0  0  0  0  0  0  0  0
   -7.5197    2.4748   -0.0710 O   0  0  0  0  0  0  0  0  0  0  0  0
    1.9989   -2.5129    0.3274 C   0  0  0  0  0  0  0  0  0  0  0  0
    1.5538   -3.5326    1.1710 C   0  0  0  0  0  0  0  0  0  0  0  0
    2.2579   -4.7375    1.2511 C   0  0  0  0  0  0  0  0  0  0  0  0
    3.4186   -4.9250    0.4983 C   0  0  0  0  0  0  0  0  0  0  0  0
    3.8807   -3.9056   -0.3327 C   0  0  0  0  0  0  0  0  0  0  0  0
    3.1755   -2.7076   -0.4074 C   0  0  0  0  0  0  0  0  0  0  0  0
    3.6493   -1.7306   -1.1964 F   0  0  0  0  0  0  0  0  0  0  0  0
    3.5780    1.4749    0.5395 C   0  0  0  0  0  0  0  0  0  0  0  0
    4.8989    1.8802    0.3389 C   0  0  0  0  0  0  0  0  0  0  0  0
    8.0492    0.7428    0.6009 H   0  0  0  0  0  0  0  0  0  0  0  0
    7.4809    2.2032   -0.2083 H   0  0  0  0  0  0  0  0  0  0  0  0
    7.6929    2.2044    1.5582 H   0  0  0  0  0  0  0  0  0  0  0  0
    6.4905   -0.5413    2.1348 H   0  0  0  0  0  0  0  0  0  0  0  0
    4.1623   -1.2624    2.4979 H   0  0  0  0  0  0  0  0  0  0  0  0
    1.4233    0.3236   -1.1247 H   0  0  0  0  0  0  0  0  0  0  0  0
    1.3393   -1.2729   -1.8284 H   0  0  0  0  0  0  0  0  0  0  0  0
   -0.5695    1.0102    0.1714 H   0  0  0  0  0  0  0  0  0  0  0  0
   -2.7193    0.1325   -2.5023 H   0  0  0  0  0  0  0  0  0  0  0  0
   -4.7644   -0.5308   -3.3660 H   0  0  0  0  0  0  0  0  0  0  0  0
   -7.2076   -0.2823   -3.6087 H   0  0  0  0  0  0  0  0  0  0  0  0
   -8.4753    1.1480   -2.0256 H   0  0  0  0  0  0  0  0  0  0  0  0
   -4.9217    3.6958    1.6844 H   0  0  0  0  0  0  0  0  0  0  0  0
   -5.4788    4.1975    0.0762 H   0  0  0  0  0  0  0  0  0  0  0  0
   -7.4045    3.6279    1.6186 H   0  0  0  0  0  0  0  0  0  0  0  0
   -6.7789    1.9751    1.7882 H   0  0  0  0  0  0  0  0  0  0  0  0
    0.6564   -3.3937    1.7707 H   0  0  0  0  0  0  0  0  0  0  0  0
    1.9008   -5.5274    1.9087 H   0  0  0  0  0  0  0  0  0  0  0  0
    3.9635   -5.8640    0.5644 H   0  0  0  0  0  0  0  0  0  0  0  0
    4.7868   -4.0336   -0.9165 H   0  0  0  0  0  0  0  0  0  0  0  0
    2.7687    2.0679    0.1202 H   0  0  0  0  0  0  0  0  0  0  0  0
    5.0972    2.7786   -0.2427 H   0  0  0  0  0  0  0  0  0  0  0  0
  1  2  1  0
  2  3  2  0
  3  4  1  0
  4  5  2  0
  5  6  1  0
  6  7  2  0
  6  8  2  0
  6  9  1  0
  9 10  1  0
 10 11  1  0
 11 12  2  0
 11 13  1  0
 13 14  1  0
 14 15  2  3
 15 16  1  0
 16 17  2  0
 17 18  1  0
 18 19  2  0
 19 20  1  0
 20 21  2  0
 21 22  1  0
 22 23  1  0
 23 24  1  0
 24 25  1  0
  9 26  1  0
 26 27  2  0
 27 28  1  0
 28 29  2  0
 29 30  1  0
 30 31  2  0
 31 32  1  0
  5 33  1  0
 33 34  2  0
 34  2  1  0
 21 16  1  0
 31 26  1  0
 25 20  1  0
  1 35  1  0
  1 36  1  0
  1 37  1  0
  3 38  1  0
  4 39  1  0
 10 40  1  0
 10 41  1  0
 13 42  1  0
 15 43  1  0
 17 44  1  0
 18 45  1  0
 19 46  1  0
 23 47  1  0
 23 48  1  0
 24 49  1  0
 24 50  1  0
 27 51  1  0
 28 52  1  0
 29 53  1  0
 30 54  1  0
 33 55  1  0
 34 56  1  0
M  END
$$$$
