
     RDKit          3D

 46 48  0  0  0  0  0  0  0  0999 V2000
    4.5620    4.5853   -1.1391 C   0  0  0  0  0  0  0  0  0  0  0  0
    3.5372    4.3804   -2.1028 O   0  0  0  0  0  0  0  0  0  0  0  0
    2.6563    3.3122   -1.7628 C   0  0  0  0  0  0  0  0  0  0  0  0
    3.2291    1.9477   -2.1372 C   0  0  0  0  0  0  0  0  0  0  0  0
    2.2493    0.9433   -1.8442 O   0  0  0  0  0  0  0  0  0  0  0  0
    2.6512   -0.3333   -2.1042 C   0  0  0  0  0  0  0  0  0  0  0  0
    3.7514   -0.6225   -2.5595 O   0  0  0  0  0  0  0  0  0  0  0  0
    1.6339   -1.3186   -1.7792 C   0  0  0  0  0  0  0  0  0  0  0  0
    1.7875   -2.6878   -1.9469 C   0  0  0  0  0  0  0  0  0  0  0  0
    2.8918   -3.5326   -2.4554 C   0  0  0  0  0  0  0  0  0  0  0  0
    0.6698   -3.3515   -1.5444 O   0  0  0  0  0  0  0  0  0  0  0  0
   -0.2182   -2.4204   -1.1130 C   0  0  0  0  0  0  0  0  0  0  0  0
   -1.4877   -2.6998   -0.6108 C   0  0  0  0  0  0  0  0  0  0  0  0
   -2.2595   -1.6041   -0.2138 C   0  0  0  0  0  0  0  0  0  0  0  0
   -1.7667   -0.3041   -0.3297 C   0  0  0  0  0  0  0  0  0  0  0  0
   -2.5802    0.7771    0.1029 N   0  0  0  0  0  0  0  0  0  0  0  0
   -2.3115    1.4058    1.6486 S   0  0  0  0  0  6  0  0  0  0  0  0
   -0.8941    1.3899    1.9378 O   0  0  0  0  0  0  0  0  0  0  0  0
   -3.0710    2.6364    1.7168 O   0  0  0  0  0  0  0  0  0  0  0  0
   -3.1253    0.2196    2.6906 C   0  0  0  0  0  0  0  0  0  0  0  0
   -4.5121    0.2966    2.8677 C   0  0  0  0  0  0  0  0  0  0  0  0
   -5.1483   -0.6283    3.6961 C   0  0  0  0  0  0  0  0  0  0  0  0
   -4.3960   -1.6071    4.3397 C   0  0  0  0  0  0  0  0  0  0  0  0
   -5.0117   -2.4946    5.1314 F   0  0  0  0  0  0  0  0  0  0  0  0
   -3.0153   -1.6787    4.1766 C   0  0  0  0  0  0  0  0  0  0  0  0
   -2.3701   -0.7573    3.3511 C   0  0  0  0  0  0  0  0  0  0  0  0
   -0.4855   -0.0527   -0.8393 C   0  0  0  0  0  0  0  0  0  0  0  0
    0.3157   -1.1427   -1.2401 C   0  0  0  0  0  0  0  0  0  0  0  0
    5.1657    5.4389   -1.4590 H   0  0  0  0  0  0  0  0  0  0  0  0
    5.2134    3.7103   -1.0678 H   0  0  0  0  0  0  0  0  0  0  0  0
    4.1275    4.8157   -0.1616 H   0  0  0  0  0  0  0  0  0  0  0  0
    2.3810    3.3511   -0.7014 H   0  0  0  0  0  0  0  0  0  0  0  0
    1.7253    3.4689   -2.3197 H   0  0  0  0  0  0  0  0  0  0  0  0
    3.4747    1.9315   -3.2057 H   0  0  0  0  0  0  0  0  0  0  0  0
    4.1442    1.7490   -1.5687 H   0  0  0  0  0  0  0  0  0  0  0  0
    3.1472   -3.2527   -3.4818 H   0  0  0  0  0  0  0  0  0  0  0  0
    3.7819   -3.4157   -1.8297 H   0  0  0  0  0  0  0  0  0  0  0  0
    2.6149   -4.5917   -2.4547 H   0  0  0  0  0  0  0  0  0  0  0  0
   -1.8511   -3.7180   -0.5347 H   0  0  0  0  0  0  0  0  0  0  0  0
   -3.2581   -1.7781    0.1804 H   0  0  0  0  0  0  0  0  0  0  0  0
   -2.7767    1.5202   -0.5671 H   0  0  0  0  0  0  0  0  0  0  0  0
   -5.0952    1.0676    2.3686 H   0  0  0  0  0  0  0  0  0  0  0  0
   -6.2227   -0.5914    3.8480 H   0  0  0  0  0  0  0  0  0  0  0  0
   -2.4524   -2.4484    4.6961 H   0  0  0  0  0  0  0  0  0  0  0  0
   -1.2905   -0.8082    3.2252 H   0  0  0  0  0  0  0  0  0  0  0  0
   -0.1109    0.9642   -0.9032 H   0  0  0  0  0  0  0  0  0  0  0  0
  1  2  1  0
  2  3  1  0
  3  4  1  0
  4  5  1  0
  5  6  1  0
  6  7  2  0
  6  8  1  0
  8  9  2  0
  9 10  1  0
  9 11  1  0
 11 12  1  0
 12 13  2  0
 13 14  1  0
 14 15  2  0
 15 16  1  0
 16 17  1  0
 17 18  2  0
 17 19  2  0
 17 20  1  0
 20 21  2  0
 21 22  1  0
 22 23  2  0
 23 24  1  0
 23 25  1  0
 25 26  2  0
 15 27  1  0
 27 28  2  0
 28  8  1  0
 28 12  1  0
 26 20  1  0
  1 29  1  0
  1 30  1  0
  1 31  1  0
  3 32  1  0
  3 33  1  0
  4 34  1  0
  4 35  1  0
 10 36  1  0
 10 37  1  0
 10 38  1  0
 13 39  1  0
 14 40  1  0
 16 41  1  0
 21 42  1  0
 22 43  1  0
 25 44  1  0
 26 45  1  0
 27 46  1  0
M  END
$$$$
