
     RDKit          3D

 46 50  0  0  0  0  0  0  0  0999 V2000
   -8.0823    1.7336   -0.0369 C   0  0  0  0  0  0  0  0  0  0  0  0
   -6.6556    1.2758    0.1174 C   0  0  0  0  0  0  0  0  0  0  0  0
   -5.7404    1.5574   -0.9175 C   0  0  0  0  0  0  0  0  0  0  0  0
   -4.4070    1.1418   -0.7965 C   0  0  0  0  0  0  0  0  0  0  0  0
   -3.3545    1.3081   -1.6767 N   0  0  0  0  0  0  0  0  0  0  0  0
   -2.3582    0.7338   -1.0635 C   0  0  0  0  0  0  0  0  0  0  0  0
   -0.7046    0.5031   -1.4752 S   0  0  0  0  0  0  0  0  0  0  0  0
   -0.4416   -0.3395    0.0304 C   0  0  0  0  0  0  0  0  0  0  0  0
    0.6874   -0.8619    0.5271 C   0  0  0  0  0  0  0  0  0  0  0  0
    1.9694   -0.8691   -0.0893 C   0  0  0  0  0  0  0  0  0  0  0  0
    2.3767   -0.8816   -1.4181 C   0  0  0  0  0  0  0  0  0  0  0  0
    3.7930   -0.9032   -1.4466 C   0  0  0  0  0  0  0  0  0  0  0  0
    4.2066   -0.9132   -0.1348 C   0  0  0  0  0  0  0  0  0  0  0  0
    5.5020   -0.9459    0.5388 C   0  0  0  0  0  0  0  0  0  0  0  0
    5.6371   -1.7014    1.7186 C   0  0  0  0  0  0  0  0  0  0  0  0
    6.8713   -1.8287    2.3641 C   0  0  0  0  0  0  0  0  0  0  0  0
    8.0004   -1.2069    1.8401 C   0  0  0  0  0  0  0  0  0  0  0  0
    7.8919   -0.4441    0.6794 C   0  0  0  0  0  0  0  0  0  0  0  0
    6.6481   -0.3000    0.0427 C   0  0  0  0  0  0  0  0  0  0  0  0
    6.6281    0.5674   -1.1466 C   0  0  0  0  0  0  0  0  0  0  0  0
    7.3421    0.4556   -2.1241 O   0  0  0  0  0  0  0  0  0  0  0  0
    5.7691    1.5884   -0.9932 O   0  0  0  0  0  0  0  0  0  0  0  0
    3.1136   -0.9180    0.6791 O   0  0  0  0  0  0  0  0  0  0  0  0
   -1.6874   -0.4208    0.8519 C   0  0  0  0  0  0  0  0  0  0  0  0
   -1.8717   -0.9290    1.9423 O   0  0  0  0  0  0  0  0  0  0  0  0
   -2.6845    0.2081    0.1413 N   0  0  0  0  0  0  0  0  0  0  0  0
   -4.0158    0.4536    0.3553 C   0  0  0  0  0  0  0  0  0  0  0  0
   -4.8936    0.1561    1.4017 C   0  0  0  0  0  0  0  0  0  0  0  0
   -6.2309    0.5780    1.2706 C   0  0  0  0  0  0  0  0  0  0  0  0
   -7.1949    0.2680    2.3877 C   0  0  0  0  0  0  0  0  0  0  0  0
   -8.3480    2.4273    0.7670 H   0  0  0  0  0  0  0  0  0  0  0  0
   -8.2366    2.2563   -0.9869 H   0  0  0  0  0  0  0  0  0  0  0  0
   -8.7610    0.8750   -0.0200 H   0  0  0  0  0  0  0  0  0  0  0  0
   -6.0457    2.0921   -1.8116 H   0  0  0  0  0  0  0  0  0  0  0  0
    0.6635   -1.3004    1.5244 H   0  0  0  0  0  0  0  0  0  0  0  0
    1.7322   -0.8912   -2.2857 H   0  0  0  0  0  0  0  0  0  0  0  0
    4.4264   -0.9249   -2.3226 H   0  0  0  0  0  0  0  0  0  0  0  0
    4.7735   -2.2160    2.1380 H   0  0  0  0  0  0  0  0  0  0  0  0
    6.9482   -2.4232    3.2716 H   0  0  0  0  0  0  0  0  0  0  0  0
    8.9620   -1.3120    2.3366 H   0  0  0  0  0  0  0  0  0  0  0  0
    8.7737    0.0489    0.2747 H   0  0  0  0  0  0  0  0  0  0  0  0
    5.8683    2.1244   -1.8068 H   0  0  0  0  0  0  0  0  0  0  0  0
   -4.5514   -0.3814    2.2826 H   0  0  0  0  0  0  0  0  0  0  0  0
   -6.7048   -0.2759    3.2024 H   0  0  0  0  0  0  0  0  0  0  0  0
   -8.0137   -0.3583    2.0201 H   0  0  0  0  0  0  0  0  0  0  0  0
   -7.6004    1.1939    2.8076 H   0  0  0  0  0  0  0  0  0  0  0  0
  1  2  1  0
  2  3  2  0
  3  4  1  0
  4  5  1  0
  5  6  2  0
  6  7  1  0
  7  8  1  0
  8  9  2  3
  9 10  1  0
 10 11  2  0
 11 12  1  0
 12 13  2  0
 13 14  1  0
 14 15  2  0
 15 16  1  0
 16 17  2  0
 17 18  1  0
 18 19  2  0
 19 20  1  0
 20 21  2  0
 20 22  1  0
 13 23  1  0
  8 24  1  0
 24 25  2  0
 24 26  1  0
 26 27  1  0
 27 28  1  0
 28 29  2  0
 29 30  1  0
 29  2  1  0
 27  4  2  0
 26  6  1  0
 23 10  1  0
 19 14  1  0
  1 31  1  0
  1 32  1  0
  1 33  1  0
  3 34  1  0
  9 35  1  0
 11 36  1  0
 12 37  1  0
 15 38  1  0
 16 39  1  0
 17 40  1  0
 18 41  1  0
 22 42  1  0
 28 43  1  0
 30 44  1  0
 30 45  1  0
 30 46  1  0
M  END
$$$$
