
     RDKit          3D

 51 54  0  0  0  0  0  0  0  0999 V2000
    1.8190   -0.7295   -3.6298 O   0  0  0  0  0  0  0  0  0  0  0  0
    1.6595   -0.5875   -2.4166 C   0  0  0  0  0  0  0  0  0  0  0  0
    2.7666   -0.3049   -1.5147 C   0  0  0  0  0  0  0  0  0  0  0  0
    3.0821   -0.8832   -0.2972 C   0  0  0  0  0  0  0  0  0  0  0  0
    4.2639   -0.3302    0.2819 C   0  0  0  0  0  0  0  0  0  0  0  0
    4.8102    0.6432   -0.5310 C   0  0  0  0  0  0  0  0  0  0  0  0
    3.9295    0.8703   -1.9673 S   0  0  0  0  0  0  0  0  0  0  0  0
    6.0699    1.4004   -0.2431 C   0  0  0  0  0  0  0  0  0  0  0  0
    6.4637    1.2469    1.2348 C   0  0  0  0  0  0  0  0  0  0  0  0
    6.3240   -0.2055    1.7151 C   0  0  0  0  0  0  0  0  0  0  0  0
    4.8752   -0.7050    1.5981 C   0  0  0  0  0  0  0  0  0  0  0  0
    0.3835   -0.7151   -1.8578 N   0  0  0  0  0  0  0  0  0  0  0  0
   -0.7164   -1.1350   -2.7286 C   0  0  0  0  0  0  0  0  0  0  0  0
   -1.8886   -1.7126   -1.9298 C   0  0  0  0  0  0  0  0  0  0  0  0
   -2.4305   -0.7328   -0.9288 N   0  0  0  0  0  0  0  0  0  0  0  0
   -3.2977   -1.4703    0.3291 S   0  0  0  0  0  6  0  0  0  0  0  0
   -4.1608   -2.4947   -0.2093 O   0  0  0  0  0  0  0  0  0  0  0  0
   -2.3284   -1.7763    1.3617 O   0  0  0  0  0  0  0  0  0  0  0  0
   -4.3514   -0.1617    0.9263 C   0  0  0  0  0  0  0  0  0  0  0  0
   -4.3695    0.0571    2.3147 C   0  0  0  0  0  0  0  0  0  0  0  0
   -5.1557    1.0707    2.8578 C   0  0  0  0  0  0  0  0  0  0  0  0
   -5.9236    1.8721    2.0213 C   0  0  0  0  0  0  0  0  0  0  0  0
   -5.9085    1.6576    0.6414 C   0  0  0  0  0  0  0  0  0  0  0  0
   -5.1305    0.6316    0.0629 C   0  0  0  0  0  0  0  0  0  0  0  0
   -5.1486    0.4926   -1.4428 C   0  0  0  0  0  0  0  0  0  0  0  0
   -5.1171   -0.7775   -1.9122 F   0  0  0  0  0  0  0  0  0  0  0  0
   -4.1170    1.1578   -2.0335 F   0  0  0  0  0  0  0  0  0  0  0  0
   -6.2750    1.0388   -1.9940 F   0  0  0  0  0  0  0  0  0  0  0  0
   -1.4460    0.3207   -0.5192 C   0  0  0  0  0  0  0  0  0  0  0  0
   -0.0007   -0.1961   -0.5388 C   0  0  0  0  0  0  0  0  0  0  0  0
    2.4968   -1.6761    0.1535 H   0  0  0  0  0  0  0  0  0  0  0  0
    5.9540    2.4640   -0.4807 H   0  0  0  0  0  0  0  0  0  0  0  0
    6.8744    1.0041   -0.8749 H   0  0  0  0  0  0  0  0  0  0  0  0
    7.4947    1.5906    1.3752 H   0  0  0  0  0  0  0  0  0  0  0  0
    5.8248    1.8906    1.8533 H   0  0  0  0  0  0  0  0  0  0  0  0
    6.6564   -0.2897    2.7558 H   0  0  0  0  0  0  0  0  0  0  0  0
    6.9831   -0.8459    1.1148 H   0  0  0  0  0  0  0  0  0  0  0  0
    4.2724   -0.2609    2.4000 H   0  0  0  0  0  0  0  0  0  0  0  0
    4.8506   -1.7922    1.7335 H   0  0  0  0  0  0  0  0  0  0  0  0
   -1.0363   -0.2536   -3.2978 H   0  0  0  0  0  0  0  0  0  0  0  0
   -0.3526   -1.8790   -3.4460 H   0  0  0  0  0  0  0  0  0  0  0  0
   -1.5487   -2.6178   -1.4115 H   0  0  0  0  0  0  0  0  0  0  0  0
   -2.6965   -1.9878   -2.6161 H   0  0  0  0  0  0  0  0  0  0  0  0
   -3.7758   -0.5638    2.9846 H   0  0  0  0  0  0  0  0  0  0  0  0
   -5.1695    1.2334    3.9332 H   0  0  0  0  0  0  0  0  0  0  0  0
   -6.5381    2.6656    2.4415 H   0  0  0  0  0  0  0  0  0  0  0  0
   -6.5186    2.3039    0.0088 H   0  0  0  0  0  0  0  0  0  0  0  0
   -1.6824    0.7187    0.4729 H   0  0  0  0  0  0  0  0  0  0  0  0
   -1.5543    1.1583   -1.2195 H   0  0  0  0  0  0  0  0  0  0  0  0
    0.1128   -1.0198    0.1742 H   0  0  0  0  0  0  0  0  0  0  0  0
    0.6713    0.6151   -0.2431 H   0  0  0  0  0  0  0  0  0  0  0  0
  1  2  2  0
  2  3  1  0
  3  4  2  0
  4  5  1  0
  5  6  2  0
  6  7  1  0
  6  8  1  0
  8  9  1  0
  9 10  1  0
 10 11  1  0
  2 12  1  0
 12 13  1  0
 13 14  1  0
 14 15  1  0
 15 16  1  0
 16 17  2  0
 16 18  2  0
 16 19  1  0
 19 20  2  0
 20 21  1  0
 21 22  2  0
 22 23  1  0
 23 24  2  0
 24 25  1  0
 25 26  1  0
 25 27  1  0
 25 28  1  0
 15 29  1  0
 29 30  1  0
  7  3  1  0
 30 12  1  0
 11  5  1  0
 24 19  1  0
  4 31  1  0
  8 32  1  0
  8 33  1  0
  9 34  1  0
  9 35  1  0
 10 36  1  0
 10 37  1  0
 11 38  1  0
 11 39  1  0
 13 40  1  0
 13 41  1  0
 14 42  1  0
 14 43  1  0
 20 44  1  0
 21 45  1  0
 22 46  1  0
 23 47  1  0
 29 48  1  0
 29 49  1  0
 30 50  1  0
 30 51  1  0
M  END
$$$$
