
     RDKit          3D

 52 55  0  0  0  0  0  0  0  0999 V2000
    9.5247    0.7575    1.0740 C   0  0  0  0  0  0  0  0  0  0  0  0
    8.0973    0.2963    1.3077 C   0  0  0  0  0  0  0  0  0  0  0  0
    7.4480    0.2237    0.0410 O   0  0  0  0  0  0  0  0  0  0  0  0
    6.1030   -0.0130    0.0604 C   0  0  0  0  0  0  0  0  0  0  0  0
    5.3873   -0.5594    1.1234 C   0  0  0  0  0  0  0  0  0  0  0  0
    4.0068   -0.7637    1.0095 C   0  0  0  0  0  0  0  0  0  0  0  0
    3.3238   -0.4233   -0.1652 C   0  0  0  0  0  0  0  0  0  0  0  0
    1.9293   -0.6265   -0.1821 N   0  0  0  0  0  0  0  0  0  0  0  0
    1.0695   -0.4863   -1.2484 C   0  0  0  0  0  0  0  0  0  0  0  0
    1.4184   -0.3236   -2.4151 O   0  0  0  0  0  0  0  0  0  0  0  0
   -0.2866   -0.5357   -0.9085 N   0  0  0  0  0  0  0  0  0  0  0  0
   -0.8304   -0.4064    0.4494 C   0  0  0  0  0  0  0  0  0  0  0  0
   -1.9869    0.5870    0.4935 C   0  0  0  0  0  0  0  0  0  0  0  0
   -3.1080    0.2454   -0.5026 C   0  0  0  0  0  0  0  0  0  0  0  0
   -4.3255   -0.1758    0.1692 N   0  0  0  0  0  0  0  0  0  0  0  0
   -4.4479   -1.2787    1.0443 C   0  0  0  0  0  0  0  0  0  0  0  0
   -3.5707   -2.0379    1.4183 O   0  0  0  0  0  0  0  0  0  0  0  0
   -5.7952   -1.3432    1.4238 N   0  0  0  0  0  0  0  0  0  0  0  0
   -6.4917   -0.3162    0.8001 C   0  0  0  0  0  0  0  0  0  0  0  0
   -7.8298   -0.0049    0.8849 C   0  0  0  0  0  0  0  0  0  0  0  0
   -8.2669    1.0996    0.1461 C   0  0  0  0  0  0  0  0  0  0  0  0
   -7.3676    1.8440   -0.6448 C   0  0  0  0  0  0  0  0  0  0  0  0
   -6.0102    1.5014   -0.7163 C   0  0  0  0  0  0  0  0  0  0  0  0
   -5.5936    0.4129    0.0191 C   0  0  0  0  0  0  0  0  0  0  0  0
   -2.6693   -0.7807   -1.5578 C   0  0  0  0  0  0  0  0  0  0  0  0
   -1.2434   -0.5002   -2.0112 C   0  0  0  0  0  0  0  0  0  0  0  0
    4.0458    0.1219   -1.2261 C   0  0  0  0  0  0  0  0  0  0  0  0
    5.4274    0.3130   -1.1160 C   0  0  0  0  0  0  0  0  0  0  0  0
   10.0704    0.0216    0.4764 H   0  0  0  0  0  0  0  0  0  0  0  0
    9.5462    1.6958    0.5168 H   0  0  0  0  0  0  0  0  0  0  0  0
   10.0526    0.8934    2.0255 H   0  0  0  0  0  0  0  0  0  0  0  0
    7.5893    1.0186    1.9533 H   0  0  0  0  0  0  0  0  0  0  0  0
    8.1127   -0.6889    1.7891 H   0  0  0  0  0  0  0  0  0  0  0  0
    5.8724   -0.8479    2.0492 H   0  0  0  0  0  0  0  0  0  0  0  0
    3.4743   -1.1900    1.8570 H   0  0  0  0  0  0  0  0  0  0  0  0
    1.5430   -1.1066    0.6160 H   0  0  0  0  0  0  0  0  0  0  0  0
   -0.0632   -0.0673    1.1506 H   0  0  0  0  0  0  0  0  0  0  0  0
   -1.1491   -1.4050    0.7655 H   0  0  0  0  0  0  0  0  0  0  0  0
   -1.5876    1.5738    0.2284 H   0  0  0  0  0  0  0  0  0  0  0  0
   -2.3663    0.6791    1.5162 H   0  0  0  0  0  0  0  0  0  0  0  0
   -3.3331    1.1793   -1.0327 H   0  0  0  0  0  0  0  0  0  0  0  0
   -6.1700   -2.0451    2.0421 H   0  0  0  0  0  0  0  0  0  0  0  0
   -8.5137   -0.5800    1.4963 H   0  0  0  0  0  0  0  0  0  0  0  0
   -9.3165    1.3925    0.1815 H   0  0  0  0  0  0  0  0  0  0  0  0
   -7.7319    2.7033   -1.2065 H   0  0  0  0  0  0  0  0  0  0  0  0
   -5.3315    2.0860   -1.3267 H   0  0  0  0  0  0  0  0  0  0  0  0
   -3.3522   -0.7437   -2.4142 H   0  0  0  0  0  0  0  0  0  0  0  0
   -2.7285   -1.8021   -1.1601 H   0  0  0  0  0  0  0  0  0  0  0  0
   -1.1809    0.4963   -2.4697 H   0  0  0  0  0  0  0  0  0  0  0  0
   -0.9367   -1.2311   -2.7704 H   0  0  0  0  0  0  0  0  0  0  0  0
    3.5655    0.4119   -2.1548 H   0  0  0  0  0  0  0  0  0  0  0  0
    5.9773    0.7290   -1.9560 H   0  0  0  0  0  0  0  0  0  0  0  0
  1  2  1  0
  2  3  1  0
  3  4  1  0
  4  5  2  0
  5  6  1  0
  6  7  2  0
  7  8  1  0
  8  9  1  0
  9 10  2  0
  9 11  1  0
 11 12  1  0
 12 13  1  0
 13 14  1  0
 14 15  1  0
 15 16  1  0
 16 17  2  0
 16 18  1  0
 18 19  1  0
 19 20  2  0
 20 21  1  0
 21 22  2  0
 22 23  1  0
 23 24  2  0
 14 25  1  0
 25 26  1  0
  7 27  1  0
 27 28  2  0
 28  4  1  0
 26 11  1  0
 24 15  1  0
 24 19  1  0
  1 29  1  0
  1 30  1  0
  1 31  1  0
  2 32  1  0
  2 33  1  0
  5 34  1  0
  6 35  1  0
  8 36  1  0
 12 37  1  0
 12 38  1  0
 13 39  1  0
 13 40  1  0
 14 41  1  0
 18 42  1  0
 20 43  1  0
 21 44  1  0
 22 45  1  0
 23 46  1  0
 25 47  1  0
 25 48  1  0
 26 49  1  0
 26 50  1  0
 27 51  1  0
 28 52  1  0
M  END
$$$$
