
     RDKit          3D

 69 71  0  0  0  0  0  0  0  0999 V2000
    9.5845    1.7094   -0.7713 C   0  0  0  0  0  0  0  0  0  0  0  0
    8.5497    2.8195   -0.8700 C   0  0  0  0  0  0  0  0  0  0  0  0
    7.5927    2.6602   -2.0548 C   0  0  0  0  0  0  0  0  0  0  0  0
    6.7577    1.3754   -2.0623 C   0  0  0  0  0  0  0  0  0  0  0  0
    5.7982    1.2678   -0.8730 C   0  0  0  0  0  0  0  0  0  0  0  0
    4.9305    0.0106   -0.9802 C   0  0  0  0  0  0  0  0  0  0  0  0
    3.9769   -0.1710    0.2049 C   0  0  0  0  0  0  0  0  0  0  0  0
    2.9137    0.9212    0.3763 C   0  0  0  0  0  0  0  0  0  0  0  0
    2.0252    1.1780   -0.8470 C   0  0  0  0  0  0  0  0  0  0  0  0
    1.2691   -0.0498   -1.3474 C   0  0  0  0  0  0  0  0  0  0  0  0
    0.4371   -0.5885   -0.3043 O   0  0  0  0  0  0  0  0  0  0  0  0
   -0.8699   -0.2242   -0.3248 C   0  0  0  0  0  0  0  0  0  0  0  0
   -1.3896    0.5549   -1.1157 O   0  0  0  0  0  0  0  0  0  0  0  0
   -1.6397   -0.9045    0.7989 C   0  0  0  0  0  0  0  0  0  0  0  0
   -2.9899   -1.3100    0.3426 N   0  0  0  0  0  0  0  0  0  0  0  0
   -3.9924   -0.4538    0.0126 C   0  0  0  0  0  0  0  0  0  0  0  0
   -4.0396    1.0527    0.2410 C   0  0  0  0  0  0  0  0  0  0  0  0
   -5.3033    1.5056    0.7305 O   0  0  0  0  0  0  0  0  0  0  0  0
   -5.6841    1.1192    1.9840 C   0  0  0  0  0  0  0  0  0  0  0  0
   -7.0555    1.2344    2.2353 C   0  0  0  0  0  0  0  0  0  0  0  0
   -7.5872    0.8565    3.4703 C   0  0  0  0  0  0  0  0  0  0  0  0
   -6.7408    0.3754    4.4648 C   0  0  0  0  0  0  0  0  0  0  0  0
   -7.3854   -0.0971    5.9859 Cl  0  0  0  0  0  0  0  0  0  0  0  0
   -5.3693    0.2808    4.2339 C   0  0  0  0  0  0  0  0  0  0  0  0
   -4.8387    0.6571    2.9946 C   0  0  0  0  0  0  0  0  0  0  0  0
   -4.9614   -1.1972   -0.5752 N   0  0  0  0  0  4  0  0  0  0  0  0
   -6.1794   -0.6540   -1.1769 C   0  0  0  0  0  0  0  0  0  0  0  0
   -4.6523   -2.5472   -0.4919 C   0  0  0  0  0  0  0  0  0  0  0  0
   -5.3608   -3.6802   -0.8860 C   0  0  0  0  0  0  0  0  0  0  0  0
   -4.7271   -4.9102   -0.6709 C   0  0  0  0  0  0  0  0  0  0  0  0
   -3.4481   -4.9898   -0.0886 C   0  0  0  0  0  0  0  0  0  0  0  0
   -2.7445   -3.8432    0.3057 C   0  0  0  0  0  0  0  0  0  0  0  0
   -3.3850   -2.6233    0.0906 C   0  0  0  0  0  0  0  0  0  0  0  0
   10.1220    1.5847   -1.7166 H   0  0  0  0  0  0  0  0  0  0  0  0
    9.1249    0.7544   -0.5050 H   0  0  0  0  0  0  0  0  0  0  0  0
   10.3166    1.9525    0.0053 H   0  0  0  0  0  0  0  0  0  0  0  0
    7.9908    2.8822    0.0703 H   0  0  0  0  0  0  0  0  0  0  0  0
    9.0763    3.7757   -0.9795 H   0  0  0  0  0  0  0  0  0  0  0  0
    6.9176    3.5265   -2.0743 H   0  0  0  0  0  0  0  0  0  0  0  0
    8.1730    2.7031   -2.9855 H   0  0  0  0  0  0  0  0  0  0  0  0
    7.4135    0.4977   -2.0948 H   0  0  0  0  0  0  0  0  0  0  0  0
    6.1744    1.3570   -2.9920 H   0  0  0  0  0  0  0  0  0  0  0  0
    6.3630    1.2323    0.0655 H   0  0  0  0  0  0  0  0  0  0  0  0
    5.1653    2.1614   -0.8405 H   0  0  0  0  0  0  0  0  0  0  0  0
    4.3660    0.0254   -1.9198 H   0  0  0  0  0  0  0  0  0  0  0  0
    5.5851   -0.8694   -1.0308 H   0  0  0  0  0  0  0  0  0  0  0  0
    3.4785   -1.1427    0.1043 H   0  0  0  0  0  0  0  0  0  0  0  0
    4.5647   -0.2309    1.1296 H   0  0  0  0  0  0  0  0  0  0  0  0
    2.2785    0.6507    1.2287 H   0  0  0  0  0  0  0  0  0  0  0  0
    3.4012    1.8620    0.6564 H   0  0  0  0  0  0  0  0  0  0  0  0
    2.6257    1.5911   -1.6647 H   0  0  0  0  0  0  0  0  0  0  0  0
    1.2967    1.9503   -0.5694 H   0  0  0  0  0  0  0  0  0  0  0  0
    1.9621   -0.8405   -1.6499 H   0  0  0  0  0  0  0  0  0  0  0  0
    0.6812    0.1988   -2.2387 H   0  0  0  0  0  0  0  0  0  0  0  0
   -1.7343   -0.2154    1.6426 H   0  0  0  0  0  0  0  0  0  0  0  0
   -1.0912   -1.7859    1.1440 H   0  0  0  0  0  0  0  0  0  0  0  0
   -3.2136    1.3584    0.8853 H   0  0  0  0  0  0  0  0  0  0  0  0
   -3.8861    1.4841   -0.7521 H   0  0  0  0  0  0  0  0  0  0  0  0
   -7.7224    1.6214    1.4659 H   0  0  0  0  0  0  0  0  0  0  0  0
   -8.6563    0.9469    3.6508 H   0  0  0  0  0  0  0  0  0  0  0  0
   -4.7086   -0.0729    5.0237 H   0  0  0  0  0  0  0  0  0  0  0  0
   -3.7642    0.5990    2.8754 H   0  0  0  0  0  0  0  0  0  0  0  0
   -6.9805   -0.6701   -0.4349 H   0  0  0  0  0  0  0  0  0  0  0  0
   -6.0091    0.3668   -1.5256 H   0  0  0  0  0  0  0  0  0  0  0  0
   -6.4668   -1.2580   -2.0415 H   0  0  0  0  0  0  0  0  0  0  0  0
   -6.3439   -3.6165   -1.3349 H   0  0  0  0  0  0  0  0  0  0  0  0
   -5.2358   -5.8296   -0.9645 H   0  0  0  0  0  0  0  0  0  0  0  0
   -2.9940   -5.9712    0.0578 H   0  0  0  0  0  0  0  0  0  0  0  0
   -1.7614   -3.9140    0.7534 H   0  0  0  0  0  0  0  0  0  0  0  0
  1  2  1  0
  2  3  1  0
  3  4  1  0
  4  5  1  0
  5  6  1  0
  6  7  1  0
  7  8  1  0
  8  9  1  0
  9 10  1  0
 10 11  1  0
 11 12  1  0
 12 13  2  0
 12 14  1  0
 14 15  1  0
 15 16  1  0
 16 17  1  0
 17 18  1  0
 18 19  1  0
 19 20  2  0
 20 21  1  0
 21 22  2  0
 22 23  1  0
 22 24  1  0
 24 25  2  0
 16 26  2  0
 26 27  1  0
 26 28  1  0
 28 29  2  0
 29 30  1  0
 30 31  2  0
 31 32  1  0
 32 33  2  0
 33 15  1  0
 25 19  1  0
 33 28  1  0
  1 34  1  0
  1 35  1  0
  1 36  1  0
  2 37  1  0
  2 38  1  0
  3 39  1  0
  3 40  1  0
  4 41  1  0
  4 42  1  0
  5 43  1  0
  5 44  1  0
  6 45  1  0
  6 46  1  0
  7 47  1  0
  7 48  1  0
  8 49  1  0
  8 50  1  0
  9 51  1  0
  9 52  1  0
 10 53  1  0
 10 54  1  0
 14 55  1  0
 14 56  1  0
 17 57  1  0
 17 58  1  0
 20 59  1  0
 21 60  1  0
 24 61  1  0
 25 62  1  0
 27 63  1  0
 27 64  1  0
 27 65  1  0
 29 66  1  0
 30 67  1  0
 31 68  1  0
 32 69  1  0
M  CHG  1  26   1
M  END
$$$$
