
     RDKit          3D

 50 53  0  0  0  0  0  0  0  0999 V2000
   -7.3477    3.0096    0.8036 C   0  0  0  0  0  0  0  0  0  0  0  0
   -6.1917    2.0536    0.7985 C   0  0  0  0  0  0  0  0  0  0  0  0
   -5.6314    1.6085    1.9987 C   0  0  0  0  0  0  0  0  0  0  0  0
   -4.5772    0.6895    1.9897 C   0  0  0  0  0  0  0  0  0  0  0  0
   -4.0664    0.1956    0.7819 C   0  0  0  0  0  0  0  0  0  0  0  0
   -2.9992   -0.7277    0.8654 N   0  0  0  0  0  0  0  0  0  0  0  0
   -2.3114   -1.3058   -0.1882 C   0  0  0  0  0  0  0  0  0  0  0  0
   -2.4874   -1.0878   -1.3857 O   0  0  0  0  0  0  0  0  0  0  0  0
   -1.1965   -2.2655    0.2417 C   0  0  0  0  0  0  0  0  0  0  0  0
    0.1249   -1.7265   -0.1124 N   0  0  0  0  0  4  0  0  0  0  0  0
    1.1285   -1.3152    0.7634 C   0  0  0  0  0  0  0  0  0  0  0  0
    2.2118   -0.8505    0.0299 C   0  0  0  0  0  0  0  0  0  0  0  0
    3.5466   -0.2586    0.6082 C   0  0  0  0  0  0  0  0  0  0  0  0
    4.5199    0.2664   -0.2421 C   0  0  0  0  0  0  0  0  0  0  0  0
    5.7024    0.7967    0.2844 C   0  0  0  0  0  0  0  0  0  0  0  0
    5.9212    0.8184    1.6652 C   0  0  0  0  0  0  0  0  0  0  0  0
    7.2070    1.3620    2.2194 C   0  0  0  0  0  0  0  0  0  0  0  0
    4.9477    0.2821    2.5140 C   0  0  0  0  0  0  0  0  0  0  0  0
    3.7634   -0.2468    1.9917 C   0  0  0  0  0  0  0  0  0  0  0  0
    1.8110   -1.0439   -1.2782 N   0  0  0  0  0  0  0  0  0  0  0  0
    0.5707   -1.5229   -1.3502 C   0  0  0  0  0  0  0  0  0  0  0  0
    0.1110   -1.7291   -2.7439 C   0  0  0  0  0  0  0  0  0  0  0  0
    1.4344   -1.6501   -3.5277 C   0  0  0  0  0  0  0  0  0  0  0  0
    2.3995   -0.8670   -2.5987 C   0  0  0  0  0  0  0  0  0  0  0  0
   -4.6381    0.6292   -0.4145 C   0  0  0  0  0  0  0  0  0  0  0  0
   -5.6938    1.5490   -0.4058 C   0  0  0  0  0  0  0  0  0  0  0  0
   -7.3602    3.6138   -0.1084 H   0  0  0  0  0  0  0  0  0  0  0  0
   -8.2903    2.4558    0.8714 H   0  0  0  0  0  0  0  0  0  0  0  0
   -7.2783    3.6994    1.6522 H   0  0  0  0  0  0  0  0  0  0  0  0
   -6.0102    1.9791    2.9485 H   0  0  0  0  0  0  0  0  0  0  0  0
   -4.1686    0.3749    2.9460 H   0  0  0  0  0  0  0  0  0  0  0  0
   -2.7182   -0.9579    1.8097 H   0  0  0  0  0  0  0  0  0  0  0  0
   -1.2320   -2.4572    1.3197 H   0  0  0  0  0  0  0  0  0  0  0  0
   -1.3356   -3.2216   -0.2759 H   0  0  0  0  0  0  0  0  0  0  0  0
    0.9389   -1.3937    1.8188 H   0  0  0  0  0  0  0  0  0  0  0  0
    4.3927    0.2957   -1.3159 H   0  0  0  0  0  0  0  0  0  0  0  0
    6.4553    1.1990   -0.3914 H   0  0  0  0  0  0  0  0  0  0  0  0
    7.9931    0.6060    2.1540 H   0  0  0  0  0  0  0  0  0  0  0  0
    7.5202    2.2505    1.6654 H   0  0  0  0  0  0  0  0  0  0  0  0
    7.0924    1.6559    3.2662 H   0  0  0  0  0  0  0  0  0  0  0  0
    5.1074    0.2746    3.5915 H   0  0  0  0  0  0  0  0  0  0  0  0
    3.0397   -0.6500    2.6950 H   0  0  0  0  0  0  0  0  0  0  0  0
   -0.5496   -0.8977   -2.9872 H   0  0  0  0  0  0  0  0  0  0  0  0
   -0.3894   -2.6946   -2.8204 H   0  0  0  0  0  0  0  0  0  0  0  0
    1.3226   -1.1874   -4.5084 H   0  0  0  0  0  0  0  0  0  0  0  0
    1.8254   -2.6611   -3.6727 H   0  0  0  0  0  0  0  0  0  0  0  0
    3.4088   -1.2830   -2.6405 H   0  0  0  0  0  0  0  0  0  0  0  0
    2.4050    0.1993   -2.8424 H   0  0  0  0  0  0  0  0  0  0  0  0
   -4.2981    0.2738   -1.3813 H   0  0  0  0  0  0  0  0  0  0  0  0
   -6.1300    1.8629   -1.3524 H   0  0  0  0  0  0  0  0  0  0  0  0
  1  2  1  0
  2  3  2  0
  3  4  1  0
  4  5  2  0
  5  6  1  0
  6  7  1  0
  7  8  2  0
  7  9  1  0
  9 10  1  0
 10 11  1  0
 11 12  2  0
 12 13  1  0
 13 14  2  0
 14 15  1  0
 15 16  2  0
 16 17  1  0
 16 18  1  0
 18 19  2  0
 12 20  1  0
 20 21  1  0
 21 22  1  0
 22 23  1  0
 23 24  1  0
  5 25  1  0
 25 26  2  0
 26  2  1  0
 21 10  2  0
 19 13  1  0
 24 20  1  0
  1 27  1  0
  1 28  1  0
  1 29  1  0
  3 30  1  0
  4 31  1  0
  6 32  1  0
  9 33  1  0
  9 34  1  0
 11 35  1  0
 14 36  1  0
 15 37  1  0
 17 38  1  0
 17 39  1  0
 17 40  1  0
 18 41  1  0
 19 42  1  0
 22 43  1  0
 22 44  1  0
 23 45  1  0
 23 46  1  0
 24 47  1  0
 24 48  1  0
 25 49  1  0
 26 50  1  0
M  CHG  1  10   1
M  END
$$$$
