
     RDKit          3D

 57 61  0  0  0  0  0  0  0  0999 V2000
    8.7646    0.0728   -2.3586 C   0  0  0  0  0  0  0  0  0  0  0  0
    7.6150    0.8936   -2.1977 O   0  0  0  0  0  0  0  0  0  0  0  0
    6.7017    0.4967   -1.2596 C   0  0  0  0  0  0  0  0  0  0  0  0
    6.7598   -0.6651   -0.4925 C   0  0  0  0  0  0  0  0  0  0  0  0
    5.7469   -0.9495    0.4337 C   0  0  0  0  0  0  0  0  0  0  0  0
    4.6646   -0.0771    0.6085 C   0  0  0  0  0  0  0  0  0  0  0  0
    3.5766   -0.3949    1.6021 C   0  0  0  0  0  0  0  0  0  0  0  0
    2.2937   -0.5280    0.9578 N   0  0  0  0  0  0  0  0  0  0  0  0
    1.2335   -1.1601    1.5466 C   0  0  0  0  0  0  0  0  0  0  0  0
    1.3324   -1.8049    2.5885 O   0  0  0  0  0  0  0  0  0  0  0  0
   -0.0752   -0.9928    0.8400 C   0  0  0  0  0  0  0  0  0  0  0  0
   -1.0988   -1.7806    1.2067 C   0  0  0  0  0  0  0  0  0  0  0  0
   -2.4154   -1.6967    0.5971 C   0  0  0  0  0  0  0  0  0  0  0  0
   -3.4717   -2.6699    0.9964 C   0  0  0  0  0  0  0  0  0  0  0  0
   -3.2155   -3.5567    1.8138 O   0  0  0  0  0  0  0  0  0  0  0  0
   -4.7076   -2.5045    0.3960 N   0  0  0  0  0  0  0  0  0  0  0  0
   -5.7433   -3.3833    0.7047 C   0  0  0  0  0  0  0  0  0  0  0  0
   -6.9563   -3.2663    0.1506 C   0  0  0  0  0  0  0  0  0  0  0  0
   -7.2166   -2.2028   -0.7820 C   0  0  0  0  0  0  0  0  0  0  0  0
   -6.2513   -1.3328   -1.1036 C   0  0  0  0  0  0  0  0  0  0  0  0
   -4.8941   -1.4715   -0.5016 C   0  0  0  0  0  0  0  0  0  0  0  0
   -3.9742   -0.6289   -0.8502 N   0  0  0  0  0  0  0  0  0  0  0  0
   -2.7126   -0.7343   -0.3062 C   0  0  0  0  0  0  0  0  0  0  0  0
   -1.6952    0.1833   -0.6938 N   0  0  0  0  0  0  0  0  0  0  0  0
   -2.1236    1.4327   -1.3491 C   0  0  0  0  0  0  0  0  0  0  0  0
   -2.5906    2.4458   -0.3316 C   0  0  0  0  0  0  0  0  0  0  0  0
   -1.7001    3.1350    0.4995 C   0  0  0  0  0  0  0  0  0  0  0  0
   -2.1893    4.0375    1.4407 C   0  0  0  0  0  0  0  0  0  0  0  0
   -3.5577    4.2263    1.5177 C   0  0  0  0  0  0  0  0  0  0  0  0
   -4.4483    3.5844    0.7316 N   0  0  0  0  0  0  0  0  0  0  0  0
   -3.9464    2.7062   -0.1660 C   0  0  0  0  0  0  0  0  0  0  0  0
   -0.3751    0.0179   -0.2424 C   0  0  0  0  0  0  0  0  0  0  0  0
    0.6447    0.6866   -0.7061 N   0  0  0  0  0  0  0  0  0  0  0  0
    4.6180    1.0918   -0.1612 C   0  0  0  0  0  0  0  0  0  0  0  0
    5.6253    1.3706   -1.0897 C   0  0  0  0  0  0  0  0  0  0  0  0
    8.4891   -0.9124   -2.7441 H   0  0  0  0  0  0  0  0  0  0  0  0
    9.3290   -0.0064   -1.4224 H   0  0  0  0  0  0  0  0  0  0  0  0
    9.4162    0.5518   -3.0960 H   0  0  0  0  0  0  0  0  0  0  0  0
    7.5730   -1.3728   -0.5928 H   0  0  0  0  0  0  0  0  0  0  0  0
    5.8120   -1.8604    1.0242 H   0  0  0  0  0  0  0  0  0  0  0  0
    3.8007   -1.3158    2.1483 H   0  0  0  0  0  0  0  0  0  0  0  0
    3.5026    0.4090    2.3415 H   0  0  0  0  0  0  0  0  0  0  0  0
    2.0729    0.0730    0.1587 H   0  0  0  0  0  0  0  0  0  0  0  0
   -0.9655   -2.5222    1.9952 H   0  0  0  0  0  0  0  0  0  0  0  0
   -5.5254   -4.1760    1.4171 H   0  0  0  0  0  0  0  0  0  0  0  0
   -7.7580   -3.9580    0.3967 H   0  0  0  0  0  0  0  0  0  0  0  0
   -8.2100   -2.1203   -1.2118 H   0  0  0  0  0  0  0  0  0  0  0  0
   -6.4103   -0.5174   -1.7989 H   0  0  0  0  0  0  0  0  0  0  0  0
   -2.9178    1.2349   -2.0822 H   0  0  0  0  0  0  0  0  0  0  0  0
   -1.3322    1.8861   -1.9562 H   0  0  0  0  0  0  0  0  0  0  0  0
   -0.6286    2.9673    0.4298 H   0  0  0  0  0  0  0  0  0  0  0  0
   -1.5204    4.5759    2.1034 H   0  0  0  0  0  0  0  0  0  0  0  0
   -3.9875    4.9166    2.2376 H   0  0  0  0  0  0  0  0  0  0  0  0
   -4.6955    2.1955   -0.7654 H   0  0  0  0  0  0  0  0  0  0  0  0
    0.3751    1.2989   -1.4732 H   0  0  0  0  0  0  0  0  0  0  0  0
    3.7928    1.7939   -0.0471 H   0  0  0  0  0  0  0  0  0  0  0  0
    5.5702    2.2782   -1.6886 H   0  0  0  0  0  0  0  0  0  0  0  0
  1  2  1  0
  2  3  1  0
  3  4  2  0
  4  5  1  0
  5  6  2  0
  6  7  1  0
  7  8  1  0
  8  9  1  0
  9 10  2  0
  9 11  1  0
 11 12  2  0
 12 13  1  0
 13 14  1  0
 14 15  2  0
 14 16  1  0
 16 17  1  0
 17 18  2  0
 18 19  1  0
 19 20  2  0
 20 21  1  0
 21 22  2  0
 22 23  1  0
 23 24  1  0
 24 25  1  0
 25 26  1  0
 26 27  2  0
 27 28  1  0
 28 29  2  0
 29 30  1  0
 30 31  2  0
 24 32  1  0
 32 33  2  3
  6 34  1  0
 34 35  2  0
 35  3  1  0
 32 11  1  0
 23 13  2  0
 31 26  1  0
 21 16  1  0
  1 36  1  0
  1 37  1  0
  1 38  1  0
  4 39  1  0
  5 40  1  0
  7 41  1  0
  7 42  1  0
  8 43  1  0
 12 44  1  0
 17 45  1  0
 18 46  1  0
 19 47  1  0
 20 48  1  0
 25 49  1  0
 25 50  1  0
 27 51  1  0
 28 52  1  0
 29 53  1  0
 31 54  1  0
 33 55  1  0
 34 56  1  0
 35 57  1  0
M  END
$$$$
