
     RDKit          3D

 63 67  0  0  0  0  0  0  0  0999 V2000
    9.6245    2.0394   -1.2971 C   0  0  0  0  0  0  0  0  0  0  0  0
    8.9800    0.8821   -0.7834 O   0  0  0  0  0  0  0  0  0  0  0  0
    7.6141    0.9191   -0.6520 C   0  0  0  0  0  0  0  0  0  0  0  0
    6.8204    2.0283   -0.9543 C   0  0  0  0  0  0  0  0  0  0  0  0
    5.4328    1.9721   -0.7881 C   0  0  0  0  0  0  0  0  0  0  0  0
    4.8056    0.8106   -0.3166 C   0  0  0  0  0  0  0  0  0  0  0  0
    3.3442    0.7567   -0.1429 C   0  0  0  0  0  0  0  0  0  0  0  0
    2.4758    1.1092   -1.1921 C   0  0  0  0  0  0  0  0  0  0  0  0
    1.0856    1.0572   -1.0341 C   0  0  0  0  0  0  0  0  0  0  0  0
    0.5351    0.6400    0.1796 C   0  0  0  0  0  0  0  0  0  0  0  0
    1.3850    0.3100    1.2247 C   0  0  0  0  0  0  0  0  0  0  0  0
    2.7762    0.3562    1.0766 C   0  0  0  0  0  0  0  0  0  0  0  0
    0.6930   -0.1701    2.7604 S   0  0  0  0  0  6  0  0  0  0  0  0
    1.4434   -1.3273    3.2083 O   0  0  0  0  0  0  0  0  0  0  0  0
    0.5715    1.0248    3.5680 O   0  0  0  0  0  0  0  0  0  0  0  0
   -0.9396   -0.7331    2.4413 C   0  0  0  0  0  0  0  0  0  0  0  0
   -1.5623   -1.5694    3.3770 C   0  0  0  0  0  0  0  0  0  0  0  0
   -2.8411   -2.0575    3.1194 C   0  0  0  0  0  0  0  0  0  0  0  0
   -3.4763   -1.7330    1.9212 C   0  0  0  0  0  0  0  0  0  0  0  0
   -2.8373   -0.8981    0.9895 C   0  0  0  0  0  0  0  0  0  0  0  0
   -3.4801   -0.7293   -0.3267 C   0  0  0  0  0  0  0  0  0  0  0  0
   -2.9385   -1.2081   -1.3142 O   0  0  0  0  0  0  0  0  0  0  0  0
   -4.6895   -0.0755   -0.3057 N   0  0  0  0  0  0  0  0  0  0  0  0
   -5.4596    0.1499   -1.5223 C   0  0  0  0  0  0  0  0  0  0  0  0
   -6.2485   -1.1070   -1.9174 C   0  0  0  0  0  0  0  0  0  0  0  0
   -7.4175   -1.3827   -0.9724 C   0  0  0  0  0  0  0  0  0  0  0  0
   -8.3387   -0.1730   -0.8525 C   0  0  0  0  0  0  0  0  0  0  0  0
   -7.5747    1.0798   -0.4359 C   0  0  0  0  0  0  0  0  0  0  0  0
   -6.3917    1.3583   -1.3639 C   0  0  0  0  0  0  0  0  0  0  0  0
   -1.5655   -0.3731    1.2505 C   0  0  0  0  0  0  0  0  0  0  0  0
   -0.9334    0.5895    0.3213 C   0  0  0  0  0  0  0  0  0  0  0  0
   -1.6226    1.3851   -0.3046 O   0  0  0  0  0  0  0  0  0  0  0  0
    5.6127   -0.3006   -0.0130 C   0  0  0  0  0  0  0  0  0  0  0  0
    7.0048   -0.2572   -0.1744 C   0  0  0  0  0  0  0  0  0  0  0  0
    7.8508   -1.3037    0.1021 O   0  0  0  0  0  0  0  0  0  0  0  0
    7.2783   -2.5076    0.5924 C   0  0  0  0  0  0  0  0  0  0  0  0
    9.2769    2.2697   -2.3100 H   0  0  0  0  0  0  0  0  0  0  0  0
   10.6962    1.8269   -1.3551 H   0  0  0  0  0  0  0  0  0  0  0  0
    9.4910    2.8957   -0.6277 H   0  0  0  0  0  0  0  0  0  0  0  0
    7.2485    2.9566   -1.3178 H   0  0  0  0  0  0  0  0  0  0  0  0
    4.8435    2.8577   -1.0209 H   0  0  0  0  0  0  0  0  0  0  0  0
    2.8794    1.4190   -2.1557 H   0  0  0  0  0  0  0  0  0  0  0  0
    0.4380    1.3338   -1.8653 H   0  0  0  0  0  0  0  0  0  0  0  0
    3.4170    0.0969    1.9191 H   0  0  0  0  0  0  0  0  0  0  0  0
   -1.0527   -1.8436    4.2999 H   0  0  0  0  0  0  0  0  0  0  0  0
   -3.3301   -2.7141    3.8364 H   0  0  0  0  0  0  0  0  0  0  0  0
   -4.4510   -2.1619    1.6953 H   0  0  0  0  0  0  0  0  0  0  0  0
   -5.0226    0.3178    0.5647 H   0  0  0  0  0  0  0  0  0  0  0  0
   -4.7393    0.3694   -2.3206 H   0  0  0  0  0  0  0  0  0  0  0  0
   -5.5921   -1.9844   -1.9455 H   0  0  0  0  0  0  0  0  0  0  0  0
   -6.6405   -0.9742   -2.9339 H   0  0  0  0  0  0  0  0  0  0  0  0
   -7.9889   -2.2428   -1.3390 H   0  0  0  0  0  0  0  0  0  0  0  0
   -7.0368   -1.6544    0.0194 H   0  0  0  0  0  0  0  0  0  0  0  0
   -8.8321    0.0057   -1.8158 H   0  0  0  0  0  0  0  0  0  0  0  0
   -9.1296   -0.3822   -0.1235 H   0  0  0  0  0  0  0  0  0  0  0  0
   -8.2525    1.9410   -0.4395 H   0  0  0  0  0  0  0  0  0  0  0  0
   -7.2200    0.9647    0.5953 H   0  0  0  0  0  0  0  0  0  0  0  0
   -5.8322    2.2234   -0.9882 H   0  0  0  0  0  0  0  0  0  0  0  0
   -6.7799    1.6365   -2.3521 H   0  0  0  0  0  0  0  0  0  0  0  0
    5.1274   -1.2048    0.3413 H   0  0  0  0  0  0  0  0  0  0  0  0
    8.0921   -3.2180    0.7663 H   0  0  0  0  0  0  0  0  0  0  0  0
    6.6021   -2.9521   -0.1449 H   0  0  0  0  0  0  0  0  0  0  0  0
    6.7708   -2.3440    1.5492 H   0  0  0  0  0  0  0  0  0  0  0  0
  1  2  1  0
  2  3  1  0
  3  4  2  0
  4  5  1  0
  5  6  2  0
  6  7  1  0
  7  8  2  0
  8  9  1  0
  9 10  2  0
 10 11  1  0
 11 12  2  0
 11 13  1  0
 13 14  2  0
 13 15  2  0
 13 16  1  0
 16 17  2  0
 17 18  1  0
 18 19  2  0
 19 20  1  0
 20 21  1  0
 21 22  2  0
 21 23  1  0
 23 24  1  0
 24 25  1  0
 25 26  1  0
 26 27  1  0
 27 28  1  0
 28 29  1  0
 20 30  2  0
 30 31  1  0
 31 32  2  0
  6 33  1  0
 33 34  2  0
 34 35  1  0
 35 36  1  0
 34  3  1  0
 12  7  1  0
 30 16  1  0
 31 10  1  0
 29 24  1  0
  1 37  1  0
  1 38  1  0
  1 39  1  0
  4 40  1  0
  5 41  1  0
  8 42  1  0
  9 43  1  0
 12 44  1  0
 17 45  1  0
 18 46  1  0
 19 47  1  0
 23 48  1  0
 24 49  1  0
 25 50  1  0
 25 51  1  0
 26 52  1  0
 26 53  1  0
 27 54  1  0
 27 55  1  0
 28 56  1  0
 28 57  1  0
 29 58  1  0
 29 59  1  0
 33 60  1  0
 36 61  1  0
 36 62  1  0
 36 63  1  0
M  END
$$$$
