
     RDKit          3D

 40 41  0  0  0  0  0  0  0  0999 V2000
   -0.5315    3.7474   -1.7047 C   0  0  0  0  0  0  0  0  0  0  0  0
   -0.1449    2.3340   -2.1217 C   0  0  0  0  0  0  0  0  0  0  0  0
   -0.5063    1.3091   -1.0659 C   0  0  0  0  0  0  0  0  0  0  0  0
   -1.7449    0.6670   -1.1042 C   0  0  0  0  0  0  0  0  0  0  0  0
   -2.7439    0.8915   -2.2041 C   0  0  0  0  0  0  0  0  0  0  0  0
   -2.1433   -0.2149   -0.1607 N   0  0  0  0  0  0  0  0  0  0  0  0
   -1.3661   -0.4935    0.9035 C   0  0  0  0  0  0  0  0  0  0  0  0
   -1.8262   -1.3947    1.8873 C   0  0  0  0  0  0  0  0  0  0  0  0
   -3.0723   -1.9417    1.6568 O   0  0  0  0  0  0  0  0  0  0  0  0
   -3.6181   -2.8017    2.6453 C   0  0  0  0  0  0  0  0  0  0  0  0
   -1.0509   -1.7004    3.0113 C   0  0  0  0  0  0  0  0  0  0  0  0
    0.1910   -1.1080    3.1755 C   0  0  0  0  0  0  0  0  0  0  0  0
    0.6586   -0.2189    2.2129 C   0  0  0  0  0  0  0  0  0  0  0  0
   -0.0983    0.1023    1.0542 C   0  0  0  0  0  0  0  0  0  0  0  0
    0.3364    0.9939    0.0242 C   0  0  0  0  0  0  0  0  0  0  0  0
    1.9884    1.7427    0.1317 S   0  0  0  0  0  0  0  0  0  0  0  0
    2.9082    0.6222   -0.9872 C   0  0  0  0  0  0  0  0  0  0  0  0
    3.2633   -0.6958   -0.3137 C   0  0  0  0  0  0  0  0  0  0  0  0
    4.1107   -1.5332   -1.2279 C   0  0  0  0  0  0  0  0  0  0  0  0
    4.4340   -1.2807   -2.3754 O   0  0  0  0  0  0  0  0  0  0  0  0
    4.5111   -2.6762   -0.6373 O   0  0  0  0  0  0  0  0  0  0  0  0
   -0.2673    4.4580   -2.4944 H   0  0  0  0  0  0  0  0  0  0  0  0
   -1.6078    3.8306   -1.5224 H   0  0  0  0  0  0  0  0  0  0  0  0
   -0.0150    4.0539   -0.7895 H   0  0  0  0  0  0  0  0  0  0  0  0
    0.9218    2.2994   -2.3620 H   0  0  0  0  0  0  0  0  0  0  0  0
   -0.6329    2.0940   -3.0729 H   0  0  0  0  0  0  0  0  0  0  0  0
   -3.6682    0.3368   -2.0083 H   0  0  0  0  0  0  0  0  0  0  0  0
   -2.3444    0.5395   -3.1601 H   0  0  0  0  0  0  0  0  0  0  0  0
   -3.0078    1.9501   -2.2808 H   0  0  0  0  0  0  0  0  0  0  0  0
   -3.7357   -2.2821    3.6019 H   0  0  0  0  0  0  0  0  0  0  0  0
   -3.0136   -3.7077    2.7568 H   0  0  0  0  0  0  0  0  0  0  0  0
   -4.6138   -3.1074    2.3097 H   0  0  0  0  0  0  0  0  0  0  0  0
   -1.3903   -2.3922    3.7741 H   0  0  0  0  0  0  0  0  0  0  0  0
    0.7958   -1.3335    4.0502 H   0  0  0  0  0  0  0  0  0  0  0  0
    1.6335    0.2320    2.3845 H   0  0  0  0  0  0  0  0  0  0  0  0
    2.3355    0.4503   -1.9048 H   0  0  0  0  0  0  0  0  0  0  0  0
    3.8233    1.1490   -1.2808 H   0  0  0  0  0  0  0  0  0  0  0  0
    3.8318   -0.5154    0.6055 H   0  0  0  0  0  0  0  0  0  0  0  0
    2.3620   -1.2713   -0.0811 H   0  0  0  0  0  0  0  0  0  0  0  0
    5.0382   -3.1345   -1.3255 H   0  0  0  0  0  0  0  0  0  0  0  0
  1  2  1  0
  2  3  1  0
  3  4  2  0
  4  5  1  0
  4  6  1  0
  6  7  2  0
  7  8  1  0
  8  9  1  0
  9 10  1  0
  8 11  2  0
 11 12  1  0
 12 13  2  0
 13 14  1  0
 14 15  2  0
 15 16  1  0
 16 17  1  0
 17 18  1  0
 18 19  1  0
 19 20  2  0
 19 21  1  0
 15  3  1  0
 14  7  1  0
  1 22  1  0
  1 23  1  0
  1 24  1  0
  2 25  1  0
  2 26  1  0
  5 27  1  0
  5 28  1  0
  5 29  1  0
 10 30  1  0
 10 31  1  0
 10 32  1  0
 11 33  1  0
 12 34  1  0
 13 35  1  0
 17 36  1  0
 17 37  1  0
 18 38  1  0
 18 39  1  0
 21 40  1  0
M  END
$$$$
