
     RDKit          3D

 56 59  0  0  0  0  0  0  0  0999 V2000
    3.9604   -3.4723    3.0978 C   0  0  0  0  0  0  0  0  0  0  0  0
    4.1163   -3.5041    1.6831 O   0  0  0  0  0  0  0  0  0  0  0  0
    3.7803   -2.3670    1.0022 C   0  0  0  0  0  0  0  0  0  0  0  0
    3.1483   -1.2455    1.5399 C   0  0  0  0  0  0  0  0  0  0  0  0
    2.8568   -0.1433    0.7274 C   0  0  0  0  0  0  0  0  0  0  0  0
    3.1993   -0.1565   -0.6233 C   0  0  0  0  0  0  0  0  0  0  0  0
    2.8805    0.9541   -1.4686 N   0  0  0  0  0  0  0  0  0  0  0  0
    1.5144    0.7680   -2.4751 S   0  0  0  0  0  6  0  0  0  0  0  0
    1.4435    1.9130   -3.3598 O   0  0  0  0  0  0  0  0  0  0  0  0
    1.5038   -0.5748   -3.0228 O   0  0  0  0  0  0  0  0  0  0  0  0
    0.1559    0.9079   -1.3295 C   0  0  0  0  0  0  0  0  0  0  0  0
   -0.8158   -0.1087   -1.3607 C   0  0  0  0  0  0  0  0  0  0  0  0
   -1.9135   -0.0665   -0.5025 C   0  0  0  0  0  0  0  0  0  0  0  0
   -2.8392   -1.1268   -0.5842 N   0  0  0  0  0  0  0  0  0  0  0  0
   -3.9862   -1.2920    0.1706 C   0  0  0  0  0  0  0  0  0  0  0  0
   -4.4365   -0.5423    1.0241 O   0  0  0  0  0  0  0  0  0  0  0  0
   -4.7358   -2.5166   -0.1471 C   0  0  0  0  0  0  0  0  0  0  0  0
   -5.2589   -2.6974   -1.4310 C   0  0  0  0  0  0  0  0  0  0  0  0
   -5.9713   -3.8592   -1.7147 C   0  0  0  0  0  0  0  0  0  0  0  0
   -6.1324   -4.7956   -0.7053 C   0  0  0  0  0  0  0  0  0  0  0  0
   -5.6364   -4.6472    0.5418 N   0  0  0  0  0  0  0  0  0  0  0  0
   -4.9567   -3.5031    0.8009 C   0  0  0  0  0  0  0  0  0  0  0  0
   -4.3247   -3.4519    2.3989 Cl  0  0  0  0  0  0  0  0  0  0  0  0
   -2.0307    1.0087    0.3725 C   0  0  0  0  0  0  0  0  0  0  0  0
   -1.0552    2.0174    0.4061 C   0  0  0  0  0  0  0  0  0  0  0  0
    0.0772    1.9847   -0.4227 C   0  0  0  0  0  0  0  0  0  0  0  0
    1.0600    2.9907   -0.3833 N   0  0  0  0  0  0  0  0  0  0  0  0
    1.4404    3.5752    0.9249 C   0  0  0  0  0  0  0  0  0  0  0  0
    1.6746    5.0543    0.6396 C   0  0  0  0  0  0  0  0  0  0  0  0
    0.6529    5.3456   -0.4404 C   0  0  0  0  0  0  0  0  0  0  0  0
    0.7447    4.1044   -1.3207 C   0  0  0  0  0  0  0  0  0  0  0  0
    3.8189   -1.2794   -1.1660 C   0  0  0  0  0  0  0  0  0  0  0  0
    4.1058   -2.3797   -0.3545 C   0  0  0  0  0  0  0  0  0  0  0  0
    4.5521   -2.6648    3.5432 H   0  0  0  0  0  0  0  0  0  0  0  0
    2.9045   -3.3908    3.3759 H   0  0  0  0  0  0  0  0  0  0  0  0
    4.3363   -4.4194    3.4966 H   0  0  0  0  0  0  0  0  0  0  0  0
    2.8578   -1.2001    2.5847 H   0  0  0  0  0  0  0  0  0  0  0  0
    2.3556    0.7128    1.1681 H   0  0  0  0  0  0  0  0  0  0  0  0
    2.7233    1.8322   -0.9565 H   0  0  0  0  0  0  0  0  0  0  0  0
   -0.7050   -0.9311   -2.0646 H   0  0  0  0  0  0  0  0  0  0  0  0
   -2.6079   -1.8624   -1.2428 H   0  0  0  0  0  0  0  0  0  0  0  0
   -5.1335   -1.9360   -2.1963 H   0  0  0  0  0  0  0  0  0  0  0  0
   -6.3984   -4.0290   -2.6975 H   0  0  0  0  0  0  0  0  0  0  0  0
   -6.6816   -5.7180   -0.8777 H   0  0  0  0  0  0  0  0  0  0  0  0
   -2.8745    1.1027    1.0506 H   0  0  0  0  0  0  0  0  0  0  0  0
   -1.2275    2.8458    1.0891 H   0  0  0  0  0  0  0  0  0  0  0  0
    0.6764    3.4677    1.7001 H   0  0  0  0  0  0  0  0  0  0  0  0
    2.3572    3.1049    1.2953 H   0  0  0  0  0  0  0  0  0  0  0  0
    1.5438    5.6769    1.5286 H   0  0  0  0  0  0  0  0  0  0  0  0
    2.6893    5.2116    0.2549 H   0  0  0  0  0  0  0  0  0  0  0  0
    0.8641    6.2677   -0.9908 H   0  0  0  0  0  0  0  0  0  0  0  0
   -0.3490    5.4244   -0.0023 H   0  0  0  0  0  0  0  0  0  0  0  0
   -0.1747    3.9609   -1.8999 H   0  0  0  0  0  0  0  0  0  0  0  0
    1.5808    4.2107   -2.0219 H   0  0  0  0  0  0  0  0  0  0  0  0
    4.0802   -1.3074   -2.2217 H   0  0  0  0  0  0  0  0  0  0  0  0
    4.5903   -3.2533   -0.7872 H   0  0  0  0  0  0  0  0  0  0  0  0
  1  2  1  0
  2  3  1  0
  3  4  2  0
  4  5  1  0
  5  6  2  0
  6  7  1  0
  7  8  1  0
  8  9  2  0
  8 10  2  0
  8 11  1  0
 11 12  2  0
 12 13  1  0
 13 14  1  0
 14 15  1  0
 15 16  2  0
 15 17  1  0
 17 18  2  0
 18 19  1  0
 19 20  2  0
 20 21  1  0
 21 22  2  0
 22 23  1  0
 13 24  2  0
 24 25  1  0
 25 26  2  0
 26 27  1  0
 27 28  1  0
 28 29  1  0
 29 30  1  0
 30 31  1  0
  6 32  1  0
 32 33  2  0
 33  3  1  0
 26 11  1  0
 31 27  1  0
 22 17  1  0
  1 34  1  0
  1 35  1  0
  1 36  1  0
  4 37  1  0
  5 38  1  0
  7 39  1  0
 12 40  1  0
 14 41  1  0
 18 42  1  0
 19 43  1  0
 20 44  1  0
 24 45  1  0
 25 46  1  0
 28 47  1  0
 28 48  1  0
 29 49  1  0
 29 50  1  0
 30 51  1  0
 30 52  1  0
 31 53  1  0
 31 54  1  0
 32 55  1  0
 33 56  1  0
M  END
$$$$
