
     RDKit          3D

 43 44  0  0  0  0  0  0  0  0999 V2000
   -5.3982    2.2264   -2.0981 C   0  0  0  0  0  0  0  0  0  0  0  0
   -6.0080    1.7485   -0.9044 O   0  0  0  0  0  0  0  0  0  0  0  0
   -5.3107    0.8060   -0.1926 C   0  0  0  0  0  0  0  0  0  0  0  0
   -4.0643    0.2725   -0.5276 C   0  0  0  0  0  0  0  0  0  0  0  0
   -3.4507   -0.6870    0.2984 C   0  0  0  0  0  0  0  0  0  0  0  0
   -2.1505   -1.2377   -0.1125 C   0  0  0  0  0  0  0  0  0  0  0  0
   -1.1848   -1.6075    0.7417 C   0  0  0  0  0  0  0  0  0  0  0  0
    0.1091   -2.1369    0.2221 C   0  0  0  0  0  0  0  0  0  0  0  0
    0.3391   -2.2051   -0.9842 O   0  0  0  0  0  0  0  0  0  0  0  0
    1.1234   -2.5892    1.2346 C   0  0  0  0  0  0  0  0  0  0  0  0
    1.6922   -1.4525    2.0371 C   0  0  0  0  0  0  0  0  0  0  0  0
    1.2207   -1.1604    3.1375 O   0  0  0  0  0  0  0  0  0  0  0  0
    2.8235   -0.6385    1.5160 C   0  0  0  0  0  0  0  0  0  0  0  0
    3.3197   -0.7219    0.2728 C   0  0  0  0  0  0  0  0  0  0  0  0
    4.4434    0.0978   -0.2065 C   0  0  0  0  0  0  0  0  0  0  0  0
    4.6043    1.4422    0.1604 C   0  0  0  0  0  0  0  0  0  0  0  0
    5.6717    2.1955   -0.3392 C   0  0  0  0  0  0  0  0  0  0  0  0
    6.5738    1.6055   -1.2170 C   0  0  0  0  0  0  0  0  0  0  0  0
    7.6279    2.3016   -1.7285 O   0  0  0  0  0  0  0  0  0  0  0  0
    6.4224    0.2811   -1.6060 C   0  0  0  0  0  0  0  0  0  0  0  0
    5.3556   -0.4699   -1.1067 C   0  0  0  0  0  0  0  0  0  0  0  0
   -4.1174   -1.1241    1.4527 C   0  0  0  0  0  0  0  0  0  0  0  0
   -5.3627   -0.5956    1.7937 C   0  0  0  0  0  0  0  0  0  0  0  0
   -5.9427    0.3609    0.9727 C   0  0  0  0  0  0  0  0  0  0  0  0
   -7.1649    0.8628    1.3288 O   0  0  0  0  0  0  0  0  0  0  0  0
   -4.4500    2.7297   -1.8825 H   0  0  0  0  0  0  0  0  0  0  0  0
   -6.0723    2.9637   -2.5449 H   0  0  0  0  0  0  0  0  0  0  0  0
   -5.2624    1.4171   -2.8231 H   0  0  0  0  0  0  0  0  0  0  0  0
   -3.5440    0.5932   -1.4246 H   0  0  0  0  0  0  0  0  0  0  0  0
   -1.9875   -1.3158   -1.1868 H   0  0  0  0  0  0  0  0  0  0  0  0
   -1.2895   -1.5271    1.8180 H   0  0  0  0  0  0  0  0  0  0  0  0
    0.6519   -3.3064    1.9172 H   0  0  0  0  0  0  0  0  0  0  0  0
    1.9254   -3.1461    0.7389 H   0  0  0  0  0  0  0  0  0  0  0  0
    3.2295    0.0545    2.2476 H   0  0  0  0  0  0  0  0  0  0  0  0
    2.9207   -1.4180   -0.4612 H   0  0  0  0  0  0  0  0  0  0  0  0
    3.8956    1.9250    0.8290 H   0  0  0  0  0  0  0  0  0  0  0  0
    5.7753    3.2331   -0.0379 H   0  0  0  0  0  0  0  0  0  0  0  0
    7.6053    3.2055   -1.3742 H   0  0  0  0  0  0  0  0  0  0  0  0
    7.1302   -0.1666   -2.2979 H   0  0  0  0  0  0  0  0  0  0  0  0
    5.2503   -1.5048   -1.4249 H   0  0  0  0  0  0  0  0  0  0  0  0
   -3.6853   -1.8871    2.0950 H   0  0  0  0  0  0  0  0  0  0  0  0
   -5.8789   -0.9307    2.6883 H   0  0  0  0  0  0  0  0  0  0  0  0
   -7.3864    1.5058    0.6274 H   0  0  0  0  0  0  0  0  0  0  0  0
  1  2  1  0
  2  3  1  0
  3  4  2  0
  4  5  1  0
  5  6  1  0
  6  7  2  3
  7  8  1  0
  8  9  2  0
  8 10  1  0
 10 11  1  0
 11 12  2  0
 11 13  1  0
 13 14  2  3
 14 15  1  0
 15 16  2  0
 16 17  1  0
 17 18  2  0
 18 19  1  0
 18 20  1  0
 20 21  2  0
  5 22  2  0
 22 23  1  0
 23 24  2  0
 24 25  1  0
 24  3  1  0
 21 15  1  0
  1 26  1  0
  1 27  1  0
  1 28  1  0
  4 29  1  0
  6 30  1  0
  7 31  1  0
 10 32  1  0
 10 33  1  0
 13 34  1  0
 14 35  1  0
 16 36  1  0
 17 37  1  0
 19 38  1  0
 20 39  1  0
 21 40  1  0
 22 41  1  0
 23 42  1  0
 25 43  1  0
M  END
$$$$
