
     RDKit          3D

 61 65  0  0  0  0  0  0  0  0999 V2000
    5.6826    5.2345    0.4338 C   0  0  0  0  0  0  0  0  0  0  0  0
    4.2799    5.0044    0.4132 O   0  0  0  0  0  0  0  0  0  0  0  0
    3.8684    3.7012    0.4701 C   0  0  0  0  0  0  0  0  0  0  0  0
    2.4836    3.5263    0.4995 C   0  0  0  0  0  0  0  0  0  0  0  0
    1.9252    2.2464    0.5606 C   0  0  0  0  0  0  0  0  0  0  0  0
    2.7453    1.1142    0.5929 C   0  0  0  0  0  0  0  0  0  0  0  0
    2.1481   -0.2784    0.6450 C   0  0  0  0  0  0  0  0  0  0  0  0
    2.0540   -0.9020   -0.6743 N   0  0  0  0  0  0  0  0  0  0  0  0
    3.1728   -1.6167   -1.1200 C   0  0  0  0  0  0  0  0  0  0  0  0
    4.1197   -1.9168   -0.3868 O   0  0  0  0  0  0  0  0  0  0  0  0
    3.1410   -2.1074   -2.5759 C   0  0  0  0  0  0  0  0  0  0  0  0
    2.4820   -3.4797   -2.6716 C   0  0  0  0  0  0  0  0  0  0  0  0
    2.4891   -1.1393   -3.4506 N   0  0  0  0  0  0  0  0  0  0  0  0
    1.2706   -0.6565   -2.9816 C   0  0  0  0  0  0  0  0  0  0  0  0
    0.4063   -0.2995   -3.9417 N   0  0  0  0  0  0  0  0  0  0  0  0
   -0.7526    0.2049   -3.5196 C   0  0  0  0  0  0  0  0  0  0  0  0
   -1.1413    0.3270   -2.2464 N   0  0  0  0  0  0  0  0  0  0  0  0
   -0.2715   -0.0696   -1.2897 C   0  0  0  0  0  0  0  0  0  0  0  0
   -0.7753   -0.1317    0.0317 N   0  0  0  0  0  0  0  0  0  0  0  0
   -1.8345    0.8736    0.3119 C   0  0  0  0  0  0  0  0  0  0  0  0
   -3.2672    0.3063    0.2097 C   0  0  0  0  0  0  0  0  0  0  0  0
   -3.4519   -0.8422    1.1217 N   0  0  0  0  0  0  0  0  0  0  0  0
   -4.6713   -1.0918    1.7290 C   0  0  0  0  0  0  0  0  0  0  0  0
   -5.8790   -0.6332    1.1757 C   0  0  0  0  0  0  0  0  0  0  0  0
   -7.1176   -0.8798    1.7822 C   0  0  0  0  0  0  0  0  0  0  0  0
   -7.1814   -1.6012    2.9669 C   0  0  0  0  0  0  0  0  0  0  0  0
   -6.0070   -2.0750    3.5392 C   0  0  0  0  0  0  0  0  0  0  0  0
   -4.7736   -1.8237    2.9233 C   0  0  0  0  0  0  0  0  0  0  0  0
   -2.2386   -1.6030    1.4665 C   0  0  0  0  0  0  0  0  0  0  0  0
   -1.1942   -1.5320    0.3289 C   0  0  0  0  0  0  0  0  0  0  0  0
    1.0163   -0.5329   -1.6093 C   0  0  0  0  0  0  0  0  0  0  0  0
    4.1365    1.2954    0.5570 C   0  0  0  0  0  0  0  0  0  0  0  0
    4.6949    2.5783    0.4973 C   0  0  0  0  0  0  0  0  0  0  0  0
    5.8414    6.3169    0.3991 H   0  0  0  0  0  0  0  0  0  0  0  0
    6.1324    4.8592    1.3630 H   0  0  0  0  0  0  0  0  0  0  0  0
    6.1705    4.7996   -0.4453 H   0  0  0  0  0  0  0  0  0  0  0  0
    1.8321    4.3954    0.4751 H   0  0  0  0  0  0  0  0  0  0  0  0
    0.8437    2.1445    0.5846 H   0  0  0  0  0  0  0  0  0  0  0  0
    2.7903   -0.8958    1.2880 H   0  0  0  0  0  0  0  0  0  0  0  0
    1.1981   -0.2693    1.1777 H   0  0  0  0  0  0  0  0  0  0  0  0
    4.1833   -2.1888   -2.9076 H   0  0  0  0  0  0  0  0  0  0  0  0
    1.4348   -3.4576   -2.3534 H   0  0  0  0  0  0  0  0  0  0  0  0
    2.5100   -3.8527   -3.7004 H   0  0  0  0  0  0  0  0  0  0  0  0
    2.9997   -4.2028   -2.0330 H   0  0  0  0  0  0  0  0  0  0  0  0
    2.4244   -1.3530   -4.4400 H   0  0  0  0  0  0  0  0  0  0  0  0
   -1.4522    0.5327   -4.2805 H   0  0  0  0  0  0  0  0  0  0  0  0
   -1.7301    1.7711   -0.3109 H   0  0  0  0  0  0  0  0  0  0  0  0
   -1.6736    1.2169    1.3420 H   0  0  0  0  0  0  0  0  0  0  0  0
   -3.4841   -0.0149   -0.8150 H   0  0  0  0  0  0  0  0  0  0  0  0
   -3.9534    1.1236    0.4619 H   0  0  0  0  0  0  0  0  0  0  0  0
   -5.8822   -0.0883    0.2354 H   0  0  0  0  0  0  0  0  0  0  0  0
   -8.0284   -0.5086    1.3187 H   0  0  0  0  0  0  0  0  0  0  0  0
   -8.1392   -1.7946    3.4416 H   0  0  0  0  0  0  0  0  0  0  0  0
   -6.0420   -2.6375    4.4682 H   0  0  0  0  0  0  0  0  0  0  0  0
   -3.8831   -2.1988    3.4201 H   0  0  0  0  0  0  0  0  0  0  0  0
   -1.8073   -1.2036    2.3921 H   0  0  0  0  0  0  0  0  0  0  0  0
   -2.4790   -2.6610    1.6255 H   0  0  0  0  0  0  0  0  0  0  0  0
   -0.3155   -2.1196    0.6202 H   0  0  0  0  0  0  0  0  0  0  0  0
   -1.6300   -2.0061   -0.5622 H   0  0  0  0  0  0  0  0  0  0  0  0
    4.8020    0.4332    0.5754 H   0  0  0  0  0  0  0  0  0  0  0  0
    5.7778    2.6597    0.4717 H   0  0  0  0  0  0  0  0  0  0  0  0
  1  2  1  0
  2  3  1  0
  3  4  2  0
  4  5  1  0
  5  6  2  0
  6  7  1  0
  7  8  1  0
  8  9  1  0
  9 10  2  0
  9 11  1  0
 11 12  1  0
 11 13  1  0
 13 14  1  0
 14 15  2  0
 15 16  1  0
 16 17  2  0
 17 18  1  0
 18 19  1  0
 19 20  1  0
 20 21  1  0
 21 22  1  0
 22 23  1  0
 23 24  2  0
 24 25  1  0
 25 26  2  0
 26 27  1  0
 27 28  2  0
 22 29  1  0
 29 30  1  0
 18 31  2  0
  6 32  1  0
 32 33  2  0
 33  3  1  0
 31  8  1  0
 31 14  1  0
 30 19  1  0
 28 23  1  0
  1 34  1  0
  1 35  1  0
  1 36  1  0
  4 37  1  0
  5 38  1  0
  7 39  1  0
  7 40  1  0
 11 41  1  0
 12 42  1  0
 12 43  1  0
 12 44  1  0
 13 45  1  0
 16 46  1  0
 20 47  1  0
 20 48  1  0
 21 49  1  0
 21 50  1  0
 24 51  1  0
 25 52  1  0
 26 53  1  0
 27 54  1  0
 28 55  1  0
 29 56  1  0
 29 57  1  0
 30 58  1  0
 30 59  1  0
 32 60  1  0
 33 61  1  0
M  END
$$$$
