
     RDKit          3D

 51 54  0  0  0  0  0  0  0  0999 V2000
    7.6010   -2.4914    1.6519 C   0  0  0  0  0  0  0  0  0  0  0  0
    6.4259   -1.8326    0.9921 C   0  0  0  0  0  0  0  0  0  0  0  0
    5.1353   -2.0062    1.5045 C   0  0  0  0  0  0  0  0  0  0  0  0
    4.0358   -1.4201    0.8721 C   0  0  0  0  0  0  0  0  0  0  0  0
    4.2090   -0.6533   -0.2873 C   0  0  0  0  0  0  0  0  0  0  0  0
    3.0278   -0.0305   -0.9889 C   0  0  0  0  0  0  0  0  0  0  0  0
    2.7178   -0.7505   -2.2166 N   0  0  0  0  0  0  0  0  0  0  0  0
    1.6442   -0.0862   -3.3080 S   0  0  0  0  0  6  0  0  0  0  0  0
    1.4146   -1.0802   -4.3318 O   0  0  0  0  0  0  0  0  0  0  0  0
    2.1008    1.2489   -3.6254 O   0  0  0  0  0  0  0  0  0  0  0  0
    0.1530    0.0539   -2.3515 C   0  0  0  0  0  0  0  0  0  0  0  0
   -0.5622   -1.1121   -2.0318 C   0  0  0  0  0  0  0  0  0  0  0  0
   -1.7316   -1.0316   -1.2669 C   0  0  0  0  0  0  0  0  0  0  0  0
   -2.1761    0.2147   -0.8500 C   0  0  0  0  0  0  0  0  0  0  0  0
   -1.4614    1.3685   -1.1900 C   0  0  0  0  0  0  0  0  0  0  0  0
   -0.2934    1.3114   -1.9372 C   0  0  0  0  0  0  0  0  0  0  0  0
   -2.0867    2.5849   -0.5914 C   0  0  0  0  0  0  0  0  0  0  0  0
   -3.4276    2.0264   -0.1046 C   0  0  0  0  0  0  0  0  0  0  0  0
   -3.3195    0.5568   -0.0864 N   0  0  0  0  0  0  0  0  0  0  0  0
   -4.2059   -0.3605    0.4789 C   0  0  0  0  0  0  0  0  0  0  0  0
   -4.0254   -1.5862    0.3683 O   0  0  0  0  0  0  0  0  0  0  0  0
   -5.4247    0.1040    1.2930 C   0  0  0  0  0  0  0  0  0  0  0  0
   -5.2287    0.8427    2.6381 C   0  0  0  0  0  0  0  0  0  0  0  0
   -6.5790    1.5400    2.3806 C   0  0  0  0  0  0  0  0  0  0  0  0
   -6.3880    1.2380    0.8798 C   0  0  0  0  0  0  0  0  0  0  0  0
    5.4995   -0.5000   -0.8117 C   0  0  0  0  0  0  0  0  0  0  0  0
    6.5976   -1.0867   -0.1789 C   0  0  0  0  0  0  0  0  0  0  0  0
    7.7514   -3.4921    1.2355 H   0  0  0  0  0  0  0  0  0  0  0  0
    8.5131   -1.9042    1.5018 H   0  0  0  0  0  0  0  0  0  0  0  0
    7.4447   -2.5771    2.7324 H   0  0  0  0  0  0  0  0  0  0  0  0
    4.9778   -2.6018    2.4012 H   0  0  0  0  0  0  0  0  0  0  0  0
    3.0440   -1.5715    1.2926 H   0  0  0  0  0  0  0  0  0  0  0  0
    3.2551    1.0209   -1.1972 H   0  0  0  0  0  0  0  0  0  0  0  0
    2.1604   -0.0528   -0.3202 H   0  0  0  0  0  0  0  0  0  0  0  0
    2.7515   -1.7675   -2.2019 H   0  0  0  0  0  0  0  0  0  0  0  0
   -0.2176   -2.0844   -2.3785 H   0  0  0  0  0  0  0  0  0  0  0  0
   -2.2704   -1.9438   -1.0333 H   0  0  0  0  0  0  0  0  0  0  0  0
    0.2544    2.2164   -2.1848 H   0  0  0  0  0  0  0  0  0  0  0  0
   -1.4827    2.9396    0.2502 H   0  0  0  0  0  0  0  0  0  0  0  0
   -2.2249    3.3923   -1.3159 H   0  0  0  0  0  0  0  0  0  0  0  0
   -3.6958    2.4285    0.8728 H   0  0  0  0  0  0  0  0  0  0  0  0
   -4.2132    2.2841   -0.8240 H   0  0  0  0  0  0  0  0  0  0  0  0
   -6.0396   -0.7973    1.4815 H   0  0  0  0  0  0  0  0  0  0  0  0
   -5.2025    0.2006    3.5236 H   0  0  0  0  0  0  0  0  0  0  0  0
   -4.3750    1.5241    2.6860 H   0  0  0  0  0  0  0  0  0  0  0  0
   -6.6244    2.5982    2.6499 H   0  0  0  0  0  0  0  0  0  0  0  0
   -7.4339    1.0199    2.8277 H   0  0  0  0  0  0  0  0  0  0  0  0
   -5.9725    2.0821    0.3303 H   0  0  0  0  0  0  0  0  0  0  0  0
   -7.2931    0.9105    0.3590 H   0  0  0  0  0  0  0  0  0  0  0  0
    5.6527    0.0725   -1.7251 H   0  0  0  0  0  0  0  0  0  0  0  0
    7.5884   -0.9592   -0.6094 H   0  0  0  0  0  0  0  0  0  0  0  0
  1  2  1  0
  2  3  2  0
  3  4  1  0
  4  5  2  0
  5  6  1  0
  6  7  1  0
  7  8  1  0
  8  9  2  0
  8 10  2  0
  8 11  1  0
 11 12  2  0
 12 13  1  0
 13 14  2  0
 14 15  1  0
 15 16  2  0
 15 17  1  0
 17 18  1  0
 18 19  1  0
 19 20  1  0
 20 21  2  0
 20 22  1  0
 22 23  1  0
 23 24  1  0
 24 25  1  0
  5 26  1  0
 26 27  2  0
 27  2  1  0
 16 11  1  0
 25 22  1  0
 19 14  1  0
  1 28  1  0
  1 29  1  0
  1 30  1  0
  3 31  1  0
  4 32  1  0
  6 33  1  0
  6 34  1  0
  7 35  1  0
 12 36  1  0
 13 37  1  0
 16 38  1  0
 17 39  1  0
 17 40  1  0
 18 41  1  0
 18 42  1  0
 22 43  1  0
 23 44  1  0
 23 45  1  0
 24 46  1  0
 24 47  1  0
 25 48  1  0
 25 49  1  0
 26 50  1  0
 27 51  1  0
M  END
$$$$
