
     RDKit          3D

 58 61  0  0  0  0  0  0  0  0999 V2000
   -6.3964    3.3310    1.8366 C   0  0  0  0  0  0  0  0  0  0  0  0
   -5.1648    3.2591    0.9821 C   0  0  0  0  0  0  0  0  0  0  0  0
   -4.8463    4.3025    0.1079 C   0  0  0  0  0  0  0  0  0  0  0  0
   -3.6825    4.2490   -0.6589 C   0  0  0  0  0  0  0  0  0  0  0  0
   -2.8205    3.1559   -0.5505 C   0  0  0  0  0  0  0  0  0  0  0  0
   -3.1098    2.1023    0.3282 C   0  0  0  0  0  0  0  0  0  0  0  0
   -2.2266    0.9470    0.4668 C   0  0  0  0  0  0  0  0  0  0  0  0
   -2.4108   -0.1613    1.1585 N   0  0  0  0  0  0  0  0  0  0  0  0
   -1.2470   -0.8808    0.9305 C   0  0  0  0  0  0  0  0  0  0  0  0
   -0.9395   -2.4316    1.6091 S   0  0  0  0  0  6  0  0  0  0  0  0
   -0.7631   -2.2072    3.0309 O   0  0  0  0  0  0  0  0  0  0  0  0
    0.1034   -3.0236    0.7873 O   0  0  0  0  0  0  0  0  0  0  0  0
   -2.4366   -3.3531    1.3683 C   0  0  0  0  0  0  0  0  0  0  0  0
   -2.5196   -4.2944    0.3353 C   0  0  0  0  0  0  0  0  0  0  0  0
   -3.6916   -5.0387    0.1837 C   0  0  0  0  0  0  0  0  0  0  0  0
   -4.7553   -4.8405    1.0627 C   0  0  0  0  0  0  0  0  0  0  0  0
   -5.8753   -5.5581    0.9121 F   0  0  0  0  0  0  0  0  0  0  0  0
   -4.6723   -3.9131    2.0974 C   0  0  0  0  0  0  0  0  0  0  0  0
   -3.5049   -3.1654    2.2573 C   0  0  0  0  0  0  0  0  0  0  0  0
   -0.4070   -0.1775    0.0943 C   0  0  0  0  0  0  0  0  0  0  0  0
    0.8142   -0.4043   -0.4391 N   0  0  0  0  0  0  0  0  0  0  0  0
    1.2977    0.3990   -1.5504 C   0  0  0  0  0  0  0  0  0  0  0  0
    2.7366    0.0280   -1.9134 C   0  0  0  0  0  0  0  0  0  0  0  0
    3.7284    0.3921   -0.8009 C   0  0  0  0  0  0  0  0  0  0  0  0
    5.1139    0.0155   -1.1366 N   0  0  0  0  0  0  0  0  0  0  0  0
    5.9665    0.1122    0.0718 C   0  0  0  0  0  0  0  0  0  0  0  0
    7.4327   -0.2201   -0.2432 C   0  0  0  0  0  0  0  0  0  0  0  0
    7.9558    0.6534   -1.2532 O   0  0  0  0  0  0  0  0  0  0  0  0
    7.1722    0.5388   -2.4465 C   0  0  0  0  0  0  0  0  0  0  0  0
    5.6966    0.8860   -2.1830 C   0  0  0  0  0  0  0  0  0  0  0  0
   -1.0354    0.9979   -0.2079 O   0  0  0  0  0  0  0  0  0  0  0  0
   -4.2868    2.1705    1.0924 C   0  0  0  0  0  0  0  0  0  0  0  0
   -7.1964    3.8793    1.3246 H   0  0  0  0  0  0  0  0  0  0  0  0
   -6.7789    2.3276    2.0558 H   0  0  0  0  0  0  0  0  0  0  0  0
   -6.1673    3.8366    2.7808 H   0  0  0  0  0  0  0  0  0  0  0  0
   -5.5038    5.1647    0.0195 H   0  0  0  0  0  0  0  0  0  0  0  0
   -3.4449    5.0607   -1.3400 H   0  0  0  0  0  0  0  0  0  0  0  0
   -1.9183    3.1374   -1.1589 H   0  0  0  0  0  0  0  0  0  0  0  0
   -1.6853   -4.4594   -0.3454 H   0  0  0  0  0  0  0  0  0  0  0  0
   -3.7814   -5.7755   -0.6095 H   0  0  0  0  0  0  0  0  0  0  0  0
   -5.5133   -3.7821    2.7726 H   0  0  0  0  0  0  0  0  0  0  0  0
   -3.4326   -2.4422    3.0689 H   0  0  0  0  0  0  0  0  0  0  0  0
    1.1727   -1.3631   -0.4001 H   0  0  0  0  0  0  0  0  0  0  0  0
    0.6585    0.2279   -2.4247 H   0  0  0  0  0  0  0  0  0  0  0  0
    1.2503    1.4663   -1.3048 H   0  0  0  0  0  0  0  0  0  0  0  0
    2.9906    0.5619   -2.8350 H   0  0  0  0  0  0  0  0  0  0  0  0
    2.8008   -1.0451   -2.1325 H   0  0  0  0  0  0  0  0  0  0  0  0
    3.4304   -0.1533    0.1035 H   0  0  0  0  0  0  0  0  0  0  0  0
    3.6598    1.4615   -0.5615 H   0  0  0  0  0  0  0  0  0  0  0  0
    5.9133    1.1283    0.4847 H   0  0  0  0  0  0  0  0  0  0  0  0
    5.6074   -0.5855    0.8383 H   0  0  0  0  0  0  0  0  0  0  0  0
    8.0417   -0.0911    0.6575 H   0  0  0  0  0  0  0  0  0  0  0  0
    7.5438   -1.2611   -0.5701 H   0  0  0  0  0  0  0  0  0  0  0  0
    7.2754   -0.4747   -2.8526 H   0  0  0  0  0  0  0  0  0  0  0  0
    7.5893    1.2339   -3.1824 H   0  0  0  0  0  0  0  0  0  0  0  0
    5.6304    1.9372   -1.8727 H   0  0  0  0  0  0  0  0  0  0  0  0
    5.1522    0.7754   -3.1261 H   0  0  0  0  0  0  0  0  0  0  0  0
   -4.5204    1.3641    1.7872 H   0  0  0  0  0  0  0  0  0  0  0  0
  1  2  1  0
  2  3  2  0
  3  4  1  0
  4  5  2  0
  5  6  1  0
  6  7  1  0
  7  8  2  0
  8  9  1  0
  9 10  1  0
 10 11  2  0
 10 12  2  0
 10 13  1  0
 13 14  2  0
 14 15  1  0
 15 16  2  0
 16 17  1  0
 16 18  1  0
 18 19  2  0
  9 20  2  0
 20 21  1  0
 21 22  1  0
 22 23  1  0
 23 24  1  0
 24 25  1  0
 25 26  1  0
 26 27  1  0
 27 28  1  0
 28 29  1  0
 29 30  1  0
 20 31  1  0
  6 32  2  0
 32  2  1  0
 31  7  1  0
 19 13  1  0
 30 25  1  0
  1 33  1  0
  1 34  1  0
  1 35  1  0
  3 36  1  0
  4 37  1  0
  5 38  1  0
 14 39  1  0
 15 40  1  0
 18 41  1  0
 19 42  1  0
 21 43  1  0
 22 44  1  0
 22 45  1  0
 23 46  1  0
 23 47  1  0
 24 48  1  0
 24 49  1  0
 26 50  1  0
 26 51  1  0
 27 52  1  0
 27 53  1  0
 29 54  1  0
 29 55  1  0
 30 56  1  0
 30 57  1  0
 32 58  1  0
M  END
$$$$
