
     RDKit          3D

 45 49  0  0  0  0  0  0  0  0999 V2000
   -1.3221    2.6205   -0.9041 O   0  0  0  0  0  0  0  0  0  0  0  0
   -1.2728    1.4224   -0.6215 C   0  0  0  0  0  0  0  0  0  0  0  0
    0.0590    0.8312   -0.3278 C   0  0  0  0  0  0  0  0  0  0  0  0
    1.3023    1.4305   -0.6479 C   0  0  0  0  0  0  0  0  0  0  0  0
    2.2693    0.5819   -0.1699 C   0  0  0  0  0  0  0  0  0  0  0  0
    3.6305    0.6545   -0.2108 N   0  0  0  0  0  0  0  0  0  0  0  0
    4.3108   -0.3169    0.3399 C   0  0  0  0  0  0  0  0  0  0  0  0
    5.7689   -0.2186    0.2833 C   0  0  0  0  0  0  0  0  0  0  0  0
    6.5088    0.7900   -0.3167 C   0  0  0  0  0  0  0  0  0  0  0  0
    7.9154    0.5974   -0.2010 C   0  0  0  0  0  0  0  0  0  0  0  0
    8.2174   -0.5549    0.4856 C   0  0  0  0  0  0  0  0  0  0  0  0
    6.8123   -1.3878    0.9818 S   0  0  0  0  0  0  0  0  0  0  0  0
    3.6492   -1.4941    1.0030 C   0  0  0  0  0  0  0  0  0  0  0  0
    2.3017   -1.5169    1.0174 C   0  0  0  0  0  0  0  0  0  0  0  0
    1.5002   -2.6039    1.6238 C   0  0  0  0  0  0  0  0  0  0  0  0
    0.7347   -2.1776    2.6584 F   0  0  0  0  0  0  0  0  0  0  0  0
    0.6824   -3.2151    0.7297 F   0  0  0  0  0  0  0  0  0  0  0  0
    2.2972   -3.5872    2.1289 F   0  0  0  0  0  0  0  0  0  0  0  0
    1.5921   -0.4772    0.4322 N   0  0  0  0  0  0  0  0  0  0  0  0
    0.2514   -0.3184    0.3446 N   0  0  0  0  0  0  0  0  0  0  0  0
   -2.4128    0.5858   -0.5791 N   0  0  0  0  0  0  0  0  0  0  0  0
   -2.2870   -0.8554   -0.8275 C   0  0  0  0  0  0  0  0  0  0  0  0
   -3.4523   -1.4215   -1.6194 C   0  0  0  0  0  0  0  0  0  0  0  0
   -4.7352   -1.1931   -0.8498 C   0  0  0  0  0  0  0  0  0  0  0  0
   -4.8641    0.2495   -0.4418 C   0  0  0  0  0  0  0  0  0  0  0  0
   -6.1539    0.7307   -0.1460 C   0  0  0  0  0  0  0  0  0  0  0  0
   -6.3463    2.0451    0.2635 C   0  0  0  0  0  0  0  0  0  0  0  0
   -5.2499    2.8852    0.3945 C   0  0  0  0  0  0  0  0  0  0  0  0
   -3.9628    2.4122    0.1146 C   0  0  0  0  0  0  0  0  0  0  0  0
   -3.7385    1.0944   -0.3161 C   0  0  0  0  0  0  0  0  0  0  0  0
    1.4641    2.3675   -1.1624 H   0  0  0  0  0  0  0  0  0  0  0  0
    6.0516    1.6355   -0.8201 H   0  0  0  0  0  0  0  0  0  0  0  0
    8.6639    1.2703   -0.6015 H   0  0  0  0  0  0  0  0  0  0  0  0
    9.1976   -0.9479    0.7205 H   0  0  0  0  0  0  0  0  0  0  0  0
    4.2428   -2.2835    1.4438 H   0  0  0  0  0  0  0  0  0  0  0  0
   -2.1979   -1.3593    0.1425 H   0  0  0  0  0  0  0  0  0  0  0  0
   -1.3812   -1.0546   -1.4093 H   0  0  0  0  0  0  0  0  0  0  0  0
   -3.3069   -2.4926   -1.7982 H   0  0  0  0  0  0  0  0  0  0  0  0
   -3.5078   -0.9308   -2.5998 H   0  0  0  0  0  0  0  0  0  0  0  0
   -4.7534   -1.8165    0.0526 H   0  0  0  0  0  0  0  0  0  0  0  0
   -5.5835   -1.4902   -1.4781 H   0  0  0  0  0  0  0  0  0  0  0  0
   -7.0168    0.0740   -0.2364 H   0  0  0  0  0  0  0  0  0  0  0  0
   -7.3454    2.4097    0.4852 H   0  0  0  0  0  0  0  0  0  0  0  0
   -5.3853    3.9128    0.7217 H   0  0  0  0  0  0  0  0  0  0  0  0
   -3.1482    3.1129    0.2671 H   0  0  0  0  0  0  0  0  0  0  0  0
  1  2  2  0
  2  3  1  0
  3  4  1  0
  4  5  2  0
  5  6  1  0
  6  7  2  0
  7  8  1  0
  8  9  2  0
  9 10  1  0
 10 11  2  0
 11 12  1  0
  7 13  1  0
 13 14  2  0
 14 15  1  0
 15 16  1  0
 15 17  1  0
 15 18  1  0
 14 19  1  0
 19 20  1  0
  2 21  1  0
 21 22  1  0
 22 23  1  0
 23 24  1  0
 24 25  1  0
 25 26  2  0
 26 27  1  0
 27 28  2  0
 28 29  1  0
 29 30  2  0
 20  3  2  0
 30 21  1  0
 19  5  1  0
 30 25  1  0
 12  8  1  0
  4 31  1  0
  9 32  1  0
 10 33  1  0
 11 34  1  0
 13 35  1  0
 22 36  1  0
 22 37  1  0
 23 38  1  0
 23 39  1  0
 24 40  1  0
 24 41  1  0
 26 42  1  0
 27 43  1  0
 28 44  1  0
 29 45  1  0
M  END
$$$$
