
     RDKit          3D

 43 45  0  0  0  0  0  0  0  0999 V2000
    3.5294    2.4650    1.6343 C   0  0  0  0  0  0  0  0  0  0  0  0
    3.6646    1.1318    0.9616 C   0  0  0  0  0  0  0  0  0  0  0  0
    4.3801    0.1025    1.5773 C   0  0  0  0  0  0  0  0  0  0  0  0
    4.4743   -1.1499    0.9709 C   0  0  0  0  0  0  0  0  0  0  0  0
    3.8472   -1.3970   -0.2581 C   0  0  0  0  0  0  0  0  0  0  0  0
    3.9605   -2.7587   -0.8920 C   0  0  0  0  0  0  0  0  0  0  0  0
    3.1138   -0.3698   -0.8799 C   0  0  0  0  0  0  0  0  0  0  0  0
    2.5226   -0.7137   -2.0699 O   0  0  0  0  0  0  0  0  0  0  0  0
    1.7946    0.2744   -2.8023 C   0  0  0  0  0  0  0  0  0  0  0  0
    0.4046    0.3064   -2.2972 C   0  0  0  0  0  0  0  0  0  0  0  0
   -0.6019   -0.6213   -2.1993 C   0  0  0  0  0  0  0  0  0  0  0  0
   -1.6710    0.0664   -1.5638 C   0  0  0  0  0  0  0  0  0  0  0  0
   -2.9882   -0.5001   -1.2402 C   0  0  0  0  0  0  0  0  0  0  0  0
   -3.4357   -1.4204   -1.9278 O   0  0  0  0  0  0  0  0  0  0  0  0
   -3.7137   -0.0053   -0.1533 N   0  0  0  0  0  0  0  0  0  0  0  0
   -5.1090   -0.4089    0.0074 C   0  0  0  0  0  0  0  0  0  0  0  0
   -5.3718   -0.8193    1.4511 C   0  0  0  0  0  0  0  0  0  0  0  0
   -4.9848    0.2218    2.3839 N   0  0  0  0  0  0  0  0  0  0  0  0
   -3.8556    0.9769    2.1979 C   0  0  0  0  0  0  0  0  0  0  0  0
   -3.4209    1.6539    3.1296 O   0  0  0  0  0  0  0  0  0  0  0  0
   -3.2366    1.0183    0.7868 C   0  0  0  0  0  0  0  0  0  0  0  0
   -1.3381    1.3515   -1.3619 N   0  0  0  0  0  0  0  0  0  0  0  0
   -0.0372    1.4912   -1.8003 O   0  0  0  0  0  0  0  0  0  0  0  0
    3.0226    0.8827   -0.2605 C   0  0  0  0  0  0  0  0  0  0  0  0
    3.3499    3.2599    0.9020 H   0  0  0  0  0  0  0  0  0  0  0  0
    4.4488    2.7207    2.1712 H   0  0  0  0  0  0  0  0  0  0  0  0
    2.6947    2.4444    2.3447 H   0  0  0  0  0  0  0  0  0  0  0  0
    4.8604    0.2642    2.5407 H   0  0  0  0  0  0  0  0  0  0  0  0
    5.0357   -1.9374    1.4684 H   0  0  0  0  0  0  0  0  0  0  0  0
    4.4503   -2.6826   -1.8665 H   0  0  0  0  0  0  0  0  0  0  0  0
    2.9681   -3.2039   -1.0180 H   0  0  0  0  0  0  0  0  0  0  0  0
    4.5531   -3.4422   -0.2755 H   0  0  0  0  0  0  0  0  0  0  0  0
    1.7807   -0.0548   -3.8473 H   0  0  0  0  0  0  0  0  0  0  0  0
    2.2907    1.2497   -2.7991 H   0  0  0  0  0  0  0  0  0  0  0  0
   -0.5738   -1.6542   -2.5131 H   0  0  0  0  0  0  0  0  0  0  0  0
   -5.3765   -1.2273   -0.6652 H   0  0  0  0  0  0  0  0  0  0  0  0
   -5.7254    0.4564   -0.2633 H   0  0  0  0  0  0  0  0  0  0  0  0
   -4.7893   -1.7137    1.7059 H   0  0  0  0  0  0  0  0  0  0  0  0
   -6.4340   -1.0353    1.6070 H   0  0  0  0  0  0  0  0  0  0  0  0
   -5.2956    0.1771    3.3484 H   0  0  0  0  0  0  0  0  0  0  0  0
   -3.4767    1.9902    0.3499 H   0  0  0  0  0  0  0  0  0  0  0  0
   -2.1559    0.9193    0.9242 H   0  0  0  0  0  0  0  0  0  0  0  0
    2.4449    1.6909   -0.6972 H   0  0  0  0  0  0  0  0  0  0  0  0
  1  2  1  0
  2  3  2  0
  3  4  1  0
  4  5  2  0
  5  6  1  0
  5  7  1  0
  7  8  1  0
  8  9  1  0
  9 10  1  0
 10 11  2  0
 11 12  1  0
 12 13  1  0
 13 14  2  0
 13 15  1  0
 15 16  1  0
 16 17  1  0
 17 18  1  0
 18 19  1  0
 19 20  2  0
 19 21  1  0
 12 22  2  0
 22 23  1  0
  7 24  2  0
 24  2  1  0
 23 10  1  0
 21 15  1  0
  1 25  1  0
  1 26  1  0
  1 27  1  0
  3 28  1  0
  4 29  1  0
  6 30  1  0
  6 31  1  0
  6 32  1  0
  9 33  1  0
  9 34  1  0
 11 35  1  0
 16 36  1  0
 16 37  1  0
 17 38  1  0
 17 39  1  0
 18 40  1  0
 21 41  1  0
 21 42  1  0
 24 43  1  0
M  END
$$$$
