
     RDKit          3D

 47 48  0  0  0  0  0  0  0  0999 V2000
    1.2333    0.5238    2.7031 C   0  0  0  0  0  0  0  0  0  0  0  0
    1.8120    0.2539    1.4321 O   0  0  0  0  0  0  0  0  0  0  0  0
    1.8340    1.2762    0.5251 C   0  0  0  0  0  0  0  0  0  0  0  0
    1.6973    2.6281    0.8532 C   0  0  0  0  0  0  0  0  0  0  0  0
    1.7812    3.6107   -0.1404 C   0  0  0  0  0  0  0  0  0  0  0  0
    2.0179    3.2560   -1.4680 C   0  0  0  0  0  0  0  0  0  0  0  0
    2.1608    1.9135   -1.8094 C   0  0  0  0  0  0  0  0  0  0  0  0
    2.0513    0.9306   -0.8167 C   0  0  0  0  0  0  0  0  0  0  0  0
    2.1747   -0.4842   -1.2341 C   0  0  0  0  0  0  0  0  0  0  0  0
    3.2810   -0.8612   -1.6117 O   0  0  0  0  0  0  0  0  0  0  0  0
    1.0056   -1.2660   -1.2388 N   0  0  0  0  0  0  0  0  0  0  0  0
   -0.2401   -0.5903   -1.3489 N   0  0  0  0  0  0  0  0  0  0  0  0
   -1.0224   -0.3919   -0.2312 C   0  0  0  0  0  0  0  0  0  0  0  0
   -0.9277   -0.9987    0.8275 O   0  0  0  0  0  0  0  0  0  0  0  0
   -1.9317    0.6208   -0.5082 O   0  0  0  0  0  0  0  0  0  0  0  0
   -2.7198    1.0125    0.5777 C   0  0  0  0  0  0  0  0  0  0  0  0
   -2.5056    2.2821    1.1116 C   0  0  0  0  0  0  0  0  0  0  0  0
   -3.3064    2.7219    2.1645 C   0  0  0  0  0  0  0  0  0  0  0  0
   -4.3183    1.8979    2.6629 C   0  0  0  0  0  0  0  0  0  0  0  0
   -4.5355    0.6347    2.1070 C   0  0  0  0  0  0  0  0  0  0  0  0
   -3.7390    0.1893    1.0529 C   0  0  0  0  0  0  0  0  0  0  0  0
    0.9800   -2.6711   -1.7436 C   0  0  0  0  0  0  0  0  0  0  0  0
   -0.3887   -3.3597   -1.5171 C   0  0  0  0  0  0  0  0  0  0  0  0
    1.2806   -2.7008   -3.2545 C   0  0  0  0  0  0  0  0  0  0  0  0
    2.0236   -3.5287   -0.9950 C   0  0  0  0  0  0  0  0  0  0  0  0
    1.8979    1.1523    3.3042 H   0  0  0  0  0  0  0  0  0  0  0  0
    1.1131   -0.4302    3.2253 H   0  0  0  0  0  0  0  0  0  0  0  0
    0.2424    0.9802    2.6075 H   0  0  0  0  0  0  0  0  0  0  0  0
    1.5465    2.9502    1.8788 H   0  0  0  0  0  0  0  0  0  0  0  0
    1.6830    4.6601    0.1295 H   0  0  0  0  0  0  0  0  0  0  0  0
    2.1045    4.0257   -2.2311 H   0  0  0  0  0  0  0  0  0  0  0  0
    2.3644    1.6301   -2.8392 H   0  0  0  0  0  0  0  0  0  0  0  0
   -0.3307    0.0827   -2.1002 H   0  0  0  0  0  0  0  0  0  0  0  0
   -1.7228    2.9209    0.7149 H   0  0  0  0  0  0  0  0  0  0  0  0
   -3.1464    3.7063    2.5962 H   0  0  0  0  0  0  0  0  0  0  0  0
   -4.9413    2.2411    3.4852 H   0  0  0  0  0  0  0  0  0  0  0  0
   -5.3252   -0.0023    2.4970 H   0  0  0  0  0  0  0  0  0  0  0  0
   -3.9062   -0.7919    0.6194 H   0  0  0  0  0  0  0  0  0  0  0  0
   -0.6579   -3.3686   -0.4553 H   0  0  0  0  0  0  0  0  0  0  0  0
   -1.1949   -2.8620   -2.0674 H   0  0  0  0  0  0  0  0  0  0  0  0
   -0.3680   -4.4015   -1.8586 H   0  0  0  0  0  0  0  0  0  0  0  0
    0.5548   -2.0968   -3.8109 H   0  0  0  0  0  0  0  0  0  0  0  0
    2.2755   -2.3053   -3.4824 H   0  0  0  0  0  0  0  0  0  0  0  0
    1.2377   -3.7230   -3.6473 H   0  0  0  0  0  0  0  0  0  0  0  0
    1.8793   -3.4588    0.0894 H   0  0  0  0  0  0  0  0  0  0  0  0
    3.0512   -3.2232   -1.2107 H   0  0  0  0  0  0  0  0  0  0  0  0
    1.9452   -4.5851   -1.2774 H   0  0  0  0  0  0  0  0  0  0  0  0
  1  2  1  0
  2  3  1  0
  3  4  2  0
  4  5  1  0
  5  6  2  0
  6  7  1  0
  7  8  2  0
  8  9  1  0
  9 10  2  0
  9 11  1  0
 11 12  1  0
 12 13  1  0
 13 14  2  0
 13 15  1  0
 15 16  1  0
 16 17  2  0
 17 18  1  0
 18 19  2  0
 19 20  1  0
 20 21  2  0
 11 22  1  0
 22 23  1  0
 22 24  1  0
 22 25  1  0
  8  3  1  0
 21 16  1  0
  1 26  1  0
  1 27  1  0
  1 28  1  0
  4 29  1  0
  5 30  1  0
  6 31  1  0
  7 32  1  0
 12 33  1  0
 17 34  1  0
 18 35  1  0
 19 36  1  0
 20 37  1  0
 21 38  1  0
 23 39  1  0
 23 40  1  0
 23 41  1  0
 24 42  1  0
 24 43  1  0
 24 44  1  0
 25 45  1  0
 25 46  1  0
 25 47  1  0
M  END
$$$$
