
     RDKit          3D

 52 55  0  0  0  0  0  0  0  0999 V2000
    7.4712   -0.0448   -0.1710 C   0  0  0  0  0  0  0  0  0  0  0  0
    5.9601    0.0981   -0.2924 C   0  0  0  0  0  0  0  0  0  0  0  0
    5.2318   -1.2528   -0.4581 C   0  0  0  0  0  0  0  0  0  0  0  0
    5.3955   -2.1861    0.7509 C   0  0  0  0  0  0  0  0  0  0  0  0
    3.7987   -1.0563   -0.8417 N   0  0  0  0  0  0  0  0  0  0  0  0
    2.9536   -0.5301    0.1449 C   0  0  0  0  0  0  0  0  0  0  0  0
    3.3521   -0.1788    1.2560 O   0  0  0  0  0  0  0  0  0  0  0  0
    1.5105   -0.3895   -0.2019 C   0  0  0  0  0  0  0  0  0  0  0  0
    0.6874    0.0179    0.7868 C   0  0  0  0  0  0  0  0  0  0  0  0
   -0.7592    0.2341    0.7111 C   0  0  0  0  0  0  0  0  0  0  0  0
   -1.2631    1.5212    0.5249 C   0  0  0  0  0  0  0  0  0  0  0  0
   -2.6495    1.7482    0.4926 C   0  0  0  0  0  0  0  0  0  0  0  0
   -3.5562    0.6764    0.6206 C   0  0  0  0  0  0  0  0  0  0  0  0
   -3.0334   -0.6212    0.7920 C   0  0  0  0  0  0  0  0  0  0  0  0
   -1.6458   -0.8331    0.8537 C   0  0  0  0  0  0  0  0  0  0  0  0
   -3.9607   -1.8003    0.9370 C   0  0  0  0  0  0  0  0  0  0  0  0
   -5.3075   -1.5154    0.2887 C   0  0  0  0  0  0  0  0  0  0  0  0
   -5.8602   -0.2008    0.8160 C   0  0  0  0  0  0  0  0  0  0  0  0
   -4.9275    0.8945    0.5841 N   0  0  0  0  0  0  0  0  0  0  0  0
   -5.4529    2.2056    0.2280 C   0  0  0  0  0  0  0  0  0  0  0  0
   -4.5772    3.3113    0.7958 C   0  0  0  0  0  0  0  0  0  0  0  0
   -3.1544    3.1525    0.2796 C   0  0  0  0  0  0  0  0  0  0  0  0
    1.0569   -0.6818   -1.5717 C   0  0  0  0  0  0  0  0  0  0  0  0
   -0.0938   -0.5955   -1.9786 O   0  0  0  0  0  0  0  0  0  0  0  0
    2.0499   -1.0776   -2.4185 N   0  0  0  0  0  0  0  0  0  0  0  0
    3.3733   -1.2895   -2.1488 C   0  0  0  0  0  0  0  0  0  0  0  0
    4.2917   -1.8081   -3.4556 S   0  0  0  0  0  0  0  0  0  0  0  0
    7.9400    0.9441   -0.1400 H   0  0  0  0  0  0  0  0  0  0  0  0
    7.7509   -0.5729    0.7452 H   0  0  0  0  0  0  0  0  0  0  0  0
    7.8855   -0.5881   -1.0261 H   0  0  0  0  0  0  0  0  0  0  0  0
    5.5902    0.6399    0.5845 H   0  0  0  0  0  0  0  0  0  0  0  0
    5.7426    0.7313   -1.1618 H   0  0  0  0  0  0  0  0  0  0  0  0
    5.7400   -1.7776   -1.2706 H   0  0  0  0  0  0  0  0  0  0  0  0
    6.4292   -2.5397    0.8280 H   0  0  0  0  0  0  0  0  0  0  0  0
    4.7538   -3.0680    0.6486 H   0  0  0  0  0  0  0  0  0  0  0  0
    5.1528   -1.6973    1.6982 H   0  0  0  0  0  0  0  0  0  0  0  0
    1.0843    0.2303    1.7796 H   0  0  0  0  0  0  0  0  0  0  0  0
   -0.5805    2.3599    0.4101 H   0  0  0  0  0  0  0  0  0  0  0  0
   -1.2641   -1.8404    1.0005 H   0  0  0  0  0  0  0  0  0  0  0  0
   -3.5224   -2.6886    0.4671 H   0  0  0  0  0  0  0  0  0  0  0  0
   -4.0913   -2.0150    2.0046 H   0  0  0  0  0  0  0  0  0  0  0  0
   -6.0061   -2.3327    0.4989 H   0  0  0  0  0  0  0  0  0  0  0  0
   -5.1922   -1.4572   -0.8016 H   0  0  0  0  0  0  0  0  0  0  0  0
   -6.8180    0.0023    0.3221 H   0  0  0  0  0  0  0  0  0  0  0  0
   -6.0636   -0.2769    1.8912 H   0  0  0  0  0  0  0  0  0  0  0  0
   -5.5159    2.2877   -0.8640 H   0  0  0  0  0  0  0  0  0  0  0  0
   -6.4700    2.3263    0.6198 H   0  0  0  0  0  0  0  0  0  0  0  0
   -4.5833    3.2611    1.8925 H   0  0  0  0  0  0  0  0  0  0  0  0
   -4.9719    4.2932    0.5126 H   0  0  0  0  0  0  0  0  0  0  0  0
   -2.5076    3.8709    0.7970 H   0  0  0  0  0  0  0  0  0  0  0  0
   -3.1155    3.3782   -0.7930 H   0  0  0  0  0  0  0  0  0  0  0  0
    1.7414   -1.2689   -3.3638 H   0  0  0  0  0  0  0  0  0  0  0  0
  1  2  1  0
  2  3  1  0
  3  4  1  0
  3  5  1  0
  5  6  1  0
  6  7  2  0
  6  8  1  0
  8  9  2  3
  9 10  1  0
 10 11  2  0
 11 12  1  0
 12 13  2  0
 13 14  1  0
 14 15  2  0
 14 16  1  0
 16 17  1  0
 17 18  1  0
 18 19  1  0
 19 20  1  0
 20 21  1  0
 21 22  1  0
  8 23  1  0
 23 24  2  0
 23 25  1  0
 25 26  1  0
 26 27  2  0
 26  5  1  0
 15 10  1  0
 22 12  1  0
 19 13  1  0
  1 28  1  0
  1 29  1  0
  1 30  1  0
  2 31  1  0
  2 32  1  0
  3 33  1  0
  4 34  1  0
  4 35  1  0
  4 36  1  0
  9 37  1  0
 11 38  1  0
 15 39  1  0
 16 40  1  0
 16 41  1  0
 17 42  1  0
 17 43  1  0
 18 44  1  0
 18 45  1  0
 20 46  1  0
 20 47  1  0
 21 48  1  0
 21 49  1  0
 22 50  1  0
 22 51  1  0
 25 52  1  0
M  END
$$$$
