
     RDKit          3D

 39 40  0  0  0  0  0  0  0  0999 V2000
    1.7913   -1.3279    4.1649 C   0  0  0  0  0  0  0  0  0  0  0  0
    0.9521   -1.9470    3.0517 C   0  0  0  0  0  0  0  0  0  0  0  0
    0.7025   -0.9996    1.8615 C   0  0  0  0  0  0  0  0  0  0  0  0
    2.2760   -0.7104    0.9540 S   0  0  0  0  0  0  0  0  0  0  0  0
    2.0581    0.9152    0.4171 C   0  0  0  0  0  0  0  0  0  0  0  0
    0.9582    1.6279    0.4999 N   0  0  0  0  0  0  0  0  0  0  0  0
    1.2178    2.8640   -0.0537 N   0  0  0  0  0  0  0  0  0  0  0  0
    2.4691    2.8634   -0.4546 C   0  0  0  0  0  0  0  0  0  0  0  0
    3.0382    1.6542   -0.1779 N   0  0  0  0  0  0  0  0  0  0  0  0
    4.3946    1.2741   -0.4654 C   0  0  0  0  0  0  0  0  0  0  0  0
   -0.3193   -1.6160    0.8908 C   0  0  0  0  0  0  0  0  0  0  0  0
   -0.5756   -2.8189    0.9156 O   0  0  0  0  0  0  0  0  0  0  0  0
   -0.8931   -0.6904    0.0404 N   0  0  0  0  0  0  0  0  0  0  0  0
   -1.9048   -0.8961   -0.9260 C   0  0  0  0  0  0  0  0  0  0  0  0
   -2.5400   -2.1224   -1.1357 C   0  0  0  0  0  0  0  0  0  0  0  0
   -3.5473   -2.2398   -2.0964 C   0  0  0  0  0  0  0  0  0  0  0  0
   -3.9240   -1.1353   -2.8563 C   0  0  0  0  0  0  0  0  0  0  0  0
   -3.2944    0.0940   -2.6599 C   0  0  0  0  0  0  0  0  0  0  0  0
   -2.2915    0.2226   -1.6943 C   0  0  0  0  0  0  0  0  0  0  0  0
   -1.6142    1.3870   -1.4190 O   0  0  0  0  0  0  0  0  0  0  0  0
   -2.0898    2.5817   -2.0221 C   0  0  0  0  0  0  0  0  0  0  0  0
    1.8701   -2.0292    5.0042 H   0  0  0  0  0  0  0  0  0  0  0  0
    1.3358   -0.4051    4.5363 H   0  0  0  0  0  0  0  0  0  0  0  0
    2.8077   -1.1003    3.8313 H   0  0  0  0  0  0  0  0  0  0  0  0
   -0.0155   -2.2368    3.4872 H   0  0  0  0  0  0  0  0  0  0  0  0
    1.4206   -2.8813    2.7187 H   0  0  0  0  0  0  0  0  0  0  0  0
    0.2928   -0.0602    2.2569 H   0  0  0  0  0  0  0  0  0  0  0  0
    2.9866    3.6862   -0.9328 H   0  0  0  0  0  0  0  0  0  0  0  0
    4.3842    0.4743   -1.2140 H   0  0  0  0  0  0  0  0  0  0  0  0
    4.8728    0.9364    0.4587 H   0  0  0  0  0  0  0  0  0  0  0  0
    4.9410    2.1373   -0.8598 H   0  0  0  0  0  0  0  0  0  0  0  0
   -0.5363    0.2679    0.0629 H   0  0  0  0  0  0  0  0  0  0  0  0
   -2.2768   -3.0087   -0.5634 H   0  0  0  0  0  0  0  0  0  0  0  0
   -4.0432   -3.1969   -2.2448 H   0  0  0  0  0  0  0  0  0  0  0  0
   -4.7081   -1.2340   -3.6025 H   0  0  0  0  0  0  0  0  0  0  0  0
   -3.6084    0.9303   -3.2741 H   0  0  0  0  0  0  0  0  0  0  0  0
   -1.5122    3.4173   -1.6147 H   0  0  0  0  0  0  0  0  0  0  0  0
   -3.1436    2.7602   -1.7789 H   0  0  0  0  0  0  0  0  0  0  0  0
   -1.9313    2.5624   -3.1058 H   0  0  0  0  0  0  0  0  0  0  0  0
  1  2  1  0
  2  3  1  0
  3  4  1  0
  4  5  1  0
  5  6  2  0
  6  7  1  0
  7  8  2  0
  8  9  1  0
  9 10  1  0
  3 11  1  0
 11 12  2  0
 11 13  1  0
 13 14  1  0
 14 15  2  0
 15 16  1  0
 16 17  2  0
 17 18  1  0
 18 19  2  0
 19 20  1  0
 20 21  1  0
  9  5  1  0
 19 14  1  0
  1 22  1  0
  1 23  1  0
  1 24  1  0
  2 25  1  0
  2 26  1  0
  3 27  1  0
  8 28  1  0
 10 29  1  0
 10 30  1  0
 10 31  1  0
 13 32  1  0
 15 33  1  0
 16 34  1  0
 17 35  1  0
 18 36  1  0
 21 37  1  0
 21 38  1  0
 21 39  1  0
M  END
$$$$
