
     RDKit          3D

 61 63  0  0  0  0  0  0  0  0999 V2000
    1.1925   -3.0405   -3.2663 C   0  0  0  0  0  0  0  0  0  0  0  0
    0.3694   -1.8239   -3.6567 C   0  0  0  0  0  0  0  0  0  0  0  0
    0.6044   -0.7330   -2.7580 O   0  0  0  0  0  0  0  0  0  0  0  0
   -0.1112   -0.7668   -1.5853 C   0  0  0  0  0  0  0  0  0  0  0  0
   -0.9137   -1.6475   -1.3105 O   0  0  0  0  0  0  0  0  0  0  0  0
    0.0945    0.4331   -0.7691 C   0  0  0  0  0  0  0  0  0  0  0  0
   -0.9365    1.0750    0.0278 C   0  0  0  0  0  0  0  0  0  0  0  0
   -2.2968    0.6188    0.2837 C   0  0  0  0  0  0  0  0  0  0  0  0
   -2.5131   -0.5186    1.0651 C   0  0  0  0  0  0  0  0  0  0  0  0
   -3.8148   -0.9543    1.3322 C   0  0  0  0  0  0  0  0  0  0  0  0
   -4.9288   -0.2656    0.8263 C   0  0  0  0  0  0  0  0  0  0  0  0
   -6.2963   -0.7405    1.0942 C   0  0  0  0  0  0  0  0  0  0  0  0
   -7.2042   -0.9583    0.0448 C   0  0  0  0  0  0  0  0  0  0  0  0
   -8.4988   -1.4230    0.2935 C   0  0  0  0  0  0  0  0  0  0  0  0
   -8.9094   -1.6769    1.6008 C   0  0  0  0  0  0  0  0  0  0  0  0
   -8.0274   -1.4623    2.6562 C   0  0  0  0  0  0  0  0  0  0  0  0
   -6.7320   -0.9983    2.4046 C   0  0  0  0  0  0  0  0  0  0  0  0
   -4.6960    0.8791    0.0455 C   0  0  0  0  0  0  0  0  0  0  0  0
   -3.3949    1.3195   -0.2250 C   0  0  0  0  0  0  0  0  0  0  0  0
   -0.5213    2.2871    0.5403 C   0  0  0  0  0  0  0  0  0  0  0  0
    1.0811    2.6538    0.1000 S   0  0  0  0  0  0  0  0  0  0  0  0
    1.2760    1.1481   -0.6664 C   0  0  0  0  0  0  0  0  0  0  0  0
    2.5794    0.9348   -1.0681 N   0  0  0  0  0  0  0  0  0  0  0  0
    3.1174   -0.3279   -1.1892 C   0  0  0  0  0  0  0  0  0  0  0  0
    2.5823   -1.3651   -0.8080 O   0  0  0  0  0  0  0  0  0  0  0  0
    4.4806   -0.3452   -1.8839 C   0  0  0  0  0  0  0  0  0  0  0  0
    5.5404    0.3642   -1.1534 N   0  0  0  0  0  0  0  0  0  0  0  0
    5.8548   -0.2336    0.1520 C   0  0  0  0  0  0  0  0  0  0  0  0
    5.1433    0.4748    1.3349 C   0  0  0  0  0  0  0  0  0  0  0  0
    5.0200    1.9468    1.1711 N   0  0  0  0  0  0  0  0  0  0  0  0
    6.3363    2.5964    1.2010 C   0  0  0  0  0  0  0  0  0  0  0  0
    4.2127    2.4844    2.2760 C   0  0  0  0  0  0  0  0  0  0  0  0
    0.8936   -3.4133   -2.2814 H   0  0  0  0  0  0  0  0  0  0  0  0
    1.0617   -3.8446   -3.9946 H   0  0  0  0  0  0  0  0  0  0  0  0
    2.2544   -2.7883   -3.2085 H   0  0  0  0  0  0  0  0  0  0  0  0
    0.6665   -1.4818   -4.6553 H   0  0  0  0  0  0  0  0  0  0  0  0
   -0.6962   -2.0692   -3.7070 H   0  0  0  0  0  0  0  0  0  0  0  0
   -1.6730   -1.0872    1.4585 H   0  0  0  0  0  0  0  0  0  0  0  0
   -3.9495   -1.8570    1.9261 H   0  0  0  0  0  0  0  0  0  0  0  0
   -6.9002   -0.7789   -0.9841 H   0  0  0  0  0  0  0  0  0  0  0  0
   -9.1826   -1.5926   -0.5337 H   0  0  0  0  0  0  0  0  0  0  0  0
   -9.9167   -2.0382    1.7926 H   0  0  0  0  0  0  0  0  0  0  0  0
   -8.3423   -1.6526    3.6796 H   0  0  0  0  0  0  0  0  0  0  0  0
   -6.0636   -0.8256    3.2469 H   0  0  0  0  0  0  0  0  0  0  0  0
   -5.5346    1.4440   -0.3564 H   0  0  0  0  0  0  0  0  0  0  0  0
   -3.2530    2.2071   -0.8382 H   0  0  0  0  0  0  0  0  0  0  0  0
   -1.0889    2.9823    1.1437 H   0  0  0  0  0  0  0  0  0  0  0  0
    3.2296    1.6980   -0.9163 H   0  0  0  0  0  0  0  0  0  0  0  0
    4.7742   -1.3868   -2.0703 H   0  0  0  0  0  0  0  0  0  0  0  0
    4.3577    0.1200   -2.8698 H   0  0  0  0  0  0  0  0  0  0  0  0
    5.2855    1.3395   -0.9898 H   0  0  0  0  0  0  0  0  0  0  0  0
    5.6481   -1.3106    0.1777 H   0  0  0  0  0  0  0  0  0  0  0  0
    6.9334   -0.1282    0.2982 H   0  0  0  0  0  0  0  0  0  0  0  0
    5.6554    0.2242    2.2732 H   0  0  0  0  0  0  0  0  0  0  0  0
    4.1278    0.0588    1.4042 H   0  0  0  0  0  0  0  0  0  0  0  0
    6.2210    3.6851    1.1068 H   0  0  0  0  0  0  0  0  0  0  0  0
    6.8789    2.3821    2.1293 H   0  0  0  0  0  0  0  0  0  0  0  0
    6.9623    2.2862    0.3580 H   0  0  0  0  0  0  0  0  0  0  0  0
    3.2496    1.9755    2.3417 H   0  0  0  0  0  0  0  0  0  0  0  0
    4.7125    2.3751    3.2461 H   0  0  0  0  0  0  0  0  0  0  0  0
    3.9989    3.5429    2.1104 H   0  0  0  0  0  0  0  0  0  0  0  0
  1  2  1  0
  2  3  1  0
  3  4  1  0
  4  5  2  0
  4  6  1  0
  6  7  1  0
  7  8  1  0
  8  9  2  0
  9 10  1  0
 10 11  2  0
 11 12  1  0
 12 13  2  0
 13 14  1  0
 14 15  2  0
 15 16  1  0
 16 17  2  0
 11 18  1  0
 18 19  2  0
  7 20  2  0
 20 21  1  0
 21 22  1  0
 22 23  1  0
 23 24  1  0
 24 25  2  0
 24 26  1  0
 26 27  1  0
 27 28  1  0
 28 29  1  0
 29 30  1  0
 30 31  1  0
 30 32  1  0
 22  6  2  0
 19  8  1  0
 17 12  1  0
  1 33  1  0
  1 34  1  0
  1 35  1  0
  2 36  1  0
  2 37  1  0
  9 38  1  0
 10 39  1  0
 13 40  1  0
 14 41  1  0
 15 42  1  0
 16 43  1  0
 17 44  1  0
 18 45  1  0
 19 46  1  0
 20 47  1  0
 23 48  1  0
 26 49  1  0
 26 50  1  0
 27 51  1  0
 28 52  1  0
 28 53  1  0
 29 54  1  0
 29 55  1  0
 31 56  1  0
 31 57  1  0
 31 58  1  0
 32 59  1  0
 32 60  1  0
 32 61  1  0
M  END
$$$$
