
     RDKit          3D

 47 50  0  0  0  0  0  0  0  0999 V2000
    3.3468   -1.5417   -1.0545 C   0  0  0  0  0  0  0  0  0  0  0  0
    2.2871   -1.3912   -0.0839 N   0  0  0  0  0  0  0  0  0  0  0  0
    2.1906   -0.4146    0.8891 C   0  0  0  0  0  0  0  0  0  0  0  0
    3.1242    0.6830    1.0959 C   0  0  0  0  0  0  0  0  0  0  0  0
    3.2483    1.7026    0.1424 C   0  0  0  0  0  0  0  0  0  0  0  0
    4.1467    2.7516    0.3464 C   0  0  0  0  0  0  0  0  0  0  0  0
    4.9188    2.7922    1.5070 C   0  0  0  0  0  0  0  0  0  0  0  0
    4.7943    1.7848    2.4645 C   0  0  0  0  0  0  0  0  0  0  0  0
    3.8969    0.7343    2.2616 C   0  0  0  0  0  0  0  0  0  0  0  0
    1.0395   -0.7407    1.5838 C   0  0  0  0  0  0  0  0  0  0  0  0
    0.4225   -1.8402    1.0509 N   0  0  0  0  0  0  0  0  0  0  0  0
    1.1851   -2.1971    0.0433 C   0  0  0  0  0  0  0  0  0  0  0  0
    0.8153   -3.4843   -1.0579 S   0  0  0  0  0  0  0  0  0  0  0  0
   -1.0015   -3.3161   -1.0909 C   0  0  0  0  0  0  0  0  0  0  0  0
   -1.3987   -1.9389   -1.6352 C   0  0  0  0  0  0  0  0  0  0  0  0
   -0.9224   -1.5498   -2.7084 O   0  0  0  0  0  0  0  0  0  0  0  0
   -2.3127   -1.1931   -0.8718 N   0  0  0  0  0  0  0  0  0  0  0  0
   -3.2329   -1.8676    0.0474 C   0  0  0  0  0  0  0  0  0  0  0  0
   -4.5874   -1.1885    0.1261 C   0  0  0  0  0  0  0  0  0  0  0  0
   -4.4026    0.2305    0.6215 C   0  0  0  0  0  0  0  0  0  0  0  0
   -3.3524    0.9490   -0.1833 C   0  0  0  0  0  0  0  0  0  0  0  0
   -3.3655    2.3582   -0.1675 C   0  0  0  0  0  0  0  0  0  0  0  0
   -2.4026    3.0878   -0.8579 C   0  0  0  0  0  0  0  0  0  0  0  0
   -1.4082    2.4154   -1.5555 C   0  0  0  0  0  0  0  0  0  0  0  0
   -1.3804    1.0155   -1.5671 C   0  0  0  0  0  0  0  0  0  0  0  0
   -2.3498    0.2512   -0.8949 C   0  0  0  0  0  0  0  0  0  0  0  0
    4.2132   -0.9405   -0.7688 H   0  0  0  0  0  0  0  0  0  0  0  0
    3.6559   -2.5894   -1.0898 H   0  0  0  0  0  0  0  0  0  0  0  0
    2.9706   -1.2135   -2.0278 H   0  0  0  0  0  0  0  0  0  0  0  0
    2.6390    1.6900   -0.7583 H   0  0  0  0  0  0  0  0  0  0  0  0
    4.2403    3.5403   -0.3982 H   0  0  0  0  0  0  0  0  0  0  0  0
    5.6172    3.6092    1.6663 H   0  0  0  0  0  0  0  0  0  0  0  0
    5.3945    1.8172    3.3703 H   0  0  0  0  0  0  0  0  0  0  0  0
    3.8124   -0.0484    3.0123 H   0  0  0  0  0  0  0  0  0  0  0  0
    0.6161   -0.2149    2.4303 H   0  0  0  0  0  0  0  0  0  0  0  0
   -1.4247   -4.0783   -1.7518 H   0  0  0  0  0  0  0  0  0  0  0  0
   -1.3591   -3.5053   -0.0782 H   0  0  0  0  0  0  0  0  0  0  0  0
   -2.7541   -1.9119    1.0335 H   0  0  0  0  0  0  0  0  0  0  0  0
   -3.4003   -2.8952   -0.2940 H   0  0  0  0  0  0  0  0  0  0  0  0
   -5.2544   -1.7386    0.7987 H   0  0  0  0  0  0  0  0  0  0  0  0
   -5.0567   -1.1811   -0.8674 H   0  0  0  0  0  0  0  0  0  0  0  0
   -4.0944    0.2264    1.6746 H   0  0  0  0  0  0  0  0  0  0  0  0
   -5.3630    0.7556    0.5559 H   0  0  0  0  0  0  0  0  0  0  0  0
   -4.1329    2.8914    0.3896 H   0  0  0  0  0  0  0  0  0  0  0  0
   -2.4213    4.1735   -0.8434 H   0  0  0  0  0  0  0  0  0  0  0  0
   -0.6386    2.9694   -2.0863 H   0  0  0  0  0  0  0  0  0  0  0  0
   -0.5584    0.5519   -2.1014 H   0  0  0  0  0  0  0  0  0  0  0  0
  1  2  1  0
  2  3  1  0
  3  4  1  0
  4  5  2  0
  5  6  1  0
  6  7  2  0
  7  8  1  0
  8  9  2  0
  3 10  2  0
 10 11  1  0
 11 12  2  0
 12 13  1  0
 13 14  1  0
 14 15  1  0
 15 16  2  0
 15 17  1  0
 17 18  1  0
 18 19  1  0
 19 20  1  0
 20 21  1  0
 21 22  2  0
 22 23  1  0
 23 24  2  0
 24 25  1  0
 25 26  2  0
 12  2  1  0
 26 17  1  0
  9  4  1  0
 26 21  1  0
  1 27  1  0
  1 28  1  0
  1 29  1  0
  5 30  1  0
  6 31  1  0
  7 32  1  0
  8 33  1  0
  9 34  1  0
 10 35  1  0
 14 36  1  0
 14 37  1  0
 18 38  1  0
 18 39  1  0
 19 40  1  0
 19 41  1  0
 20 42  1  0
 20 43  1  0
 22 44  1  0
 23 45  1  0
 24 46  1  0
 25 47  1  0
M  END
$$$$
