
     RDKit          3D

 52 55  0  0  0  0  0  0  0  0999 V2000
   -1.7546   -0.1895   -2.6387 O   0  0  0  0  0  0  0  0  0  0  0  0
   -0.8879   -0.1571   -1.7666 C   0  0  0  0  0  0  0  0  0  0  0  0
   -0.1935   -1.3006   -1.3865 N   0  0  0  0  0  0  0  0  0  0  0  0
   -0.6573   -2.6156   -1.7664 C   0  0  0  0  0  0  0  0  0  0  0  0
   -1.8274   -3.0974   -0.9108 C   0  0  0  0  0  0  0  0  0  0  0  0
   -1.7837   -4.6219   -1.0001 C   0  0  0  0  0  0  0  0  0  0  0  0
   -0.4141   -4.9817   -1.5753 C   0  0  0  0  0  0  0  0  0  0  0  0
    0.3945   -3.6935   -1.5375 C   0  0  0  0  0  0  0  0  0  0  0  0
   -0.3368    1.1568   -1.1434 C   0  0  0  0  0  0  0  0  0  0  0  0
   -1.2618    2.3714   -1.1507 C   0  0  0  0  0  0  0  0  0  0  0  0
   -0.7066    3.6595   -1.1945 C   0  0  0  0  0  0  0  0  0  0  0  0
   -1.5496    4.7606   -1.1768 C   0  0  0  0  0  0  0  0  0  0  0  0
   -2.8931    4.6758   -1.1152 N   0  0  0  0  0  0  0  0  0  0  0  0
   -3.4149    3.4317   -1.0682 C   0  0  0  0  0  0  0  0  0  0  0  0
   -2.6550    2.2715   -1.0807 C   0  0  0  0  0  0  0  0  0  0  0  0
    0.2832    0.9085    0.1869 N   0  0  0  0  0  0  0  0  0  0  0  0
   -0.5612    0.4516    1.2243 C   0  0  0  0  0  0  0  0  0  0  0  0
   -1.7831    0.3995    1.0830 O   0  0  0  0  0  0  0  0  0  0  0  0
    0.0510   -0.1003    2.4254 C   0  0  0  0  0  0  0  0  0  0  0  0
   -0.4787   -0.3056    3.6871 C   0  0  0  0  0  0  0  0  0  0  0  0
    0.5311   -0.9249    4.4615 C   0  0  0  0  0  0  0  0  0  0  0  0
    1.6074   -1.0878    3.6232 C   0  0  0  0  0  0  0  0  0  0  0  0
    1.3224   -0.6112    2.3849 O   0  0  0  0  0  0  0  0  0  0  0  0
    1.5649    1.5050    0.4198 C   0  0  0  0  0  0  0  0  0  0  0  0
    1.7975    2.3084    1.5453 C   0  0  0  0  0  0  0  0  0  0  0  0
    3.0416    2.9125    1.7453 C   0  0  0  0  0  0  0  0  0  0  0  0
    4.0666    2.7240    0.8223 C   0  0  0  0  0  0  0  0  0  0  0  0
    3.8488    1.9326   -0.3022 C   0  0  0  0  0  0  0  0  0  0  0  0
    2.6048    1.3291   -0.5044 C   0  0  0  0  0  0  0  0  0  0  0  0
    0.4030   -1.2246   -0.5699 H   0  0  0  0  0  0  0  0  0  0  0  0
   -0.9547   -2.5992   -2.8227 H   0  0  0  0  0  0  0  0  0  0  0  0
   -2.7850   -2.6925   -1.2540 H   0  0  0  0  0  0  0  0  0  0  0  0
   -1.7005   -2.7866    0.1343 H   0  0  0  0  0  0  0  0  0  0  0  0
   -2.5802   -5.0016   -1.6494 H   0  0  0  0  0  0  0  0  0  0  0  0
   -1.9283   -5.0680   -0.0102 H   0  0  0  0  0  0  0  0  0  0  0  0
    0.0702   -5.7874   -1.0153 H   0  0  0  0  0  0  0  0  0  0  0  0
   -0.5284   -5.3209   -2.6118 H   0  0  0  0  0  0  0  0  0  0  0  0
    1.1836   -3.6750   -2.2955 H   0  0  0  0  0  0  0  0  0  0  0  0
    0.8716   -3.5771   -0.5562 H   0  0  0  0  0  0  0  0  0  0  0  0
    0.4583    1.4109   -1.8584 H   0  0  0  0  0  0  0  0  0  0  0  0
    0.3673    3.8120   -1.2408 H   0  0  0  0  0  0  0  0  0  0  0  0
   -1.1512    5.7704   -1.2117 H   0  0  0  0  0  0  0  0  0  0  0  0
   -4.4988    3.3844   -1.0152 H   0  0  0  0  0  0  0  0  0  0  0  0
   -3.1570    1.3097   -1.0279 H   0  0  0  0  0  0  0  0  0  0  0  0
   -1.4794   -0.0350    3.9974 H   0  0  0  0  0  0  0  0  0  0  0  0
    0.4772   -1.2260    5.4985 H   0  0  0  0  0  0  0  0  0  0  0  0
    2.5953   -1.5101    3.7453 H   0  0  0  0  0  0  0  0  0  0  0  0
    1.0106    2.5059    2.2687 H   0  0  0  0  0  0  0  0  0  0  0  0
    3.2061    3.5356    2.6210 H   0  0  0  0  0  0  0  0  0  0  0  0
    5.0346    3.1931    0.9800 H   0  0  0  0  0  0  0  0  0  0  0  0
    4.6502    1.7786   -1.0206 H   0  0  0  0  0  0  0  0  0  0  0  0
    2.4810    0.6919   -1.3765 H   0  0  0  0  0  0  0  0  0  0  0  0
  1  2  2  0
  2  3  1  0
  3  4  1  0
  4  5  1  0
  5  6  1  0
  6  7  1  0
  7  8  1  0
  2  9  1  0
  9 10  1  0
 10 11  2  0
 11 12  1  0
 12 13  2  0
 13 14  1  0
 14 15  2  0
  9 16  1  0
 16 17  1  0
 17 18  2  0
 17 19  1  0
 19 20  2  0
 20 21  1  0
 21 22  2  0
 22 23  1  0
 16 24  1  0
 24 25  2  0
 25 26  1  0
 26 27  2  0
 27 28  1  0
 28 29  2  0
  8  4  1  0
 15 10  1  0
 23 19  1  0
 29 24  1  0
  3 30  1  0
  4 31  1  0
  5 32  1  0
  5 33  1  0
  6 34  1  0
  6 35  1  0
  7 36  1  0
  7 37  1  0
  8 38  1  0
  8 39  1  0
  9 40  1  0
 11 41  1  0
 12 42  1  0
 14 43  1  0
 15 44  1  0
 20 45  1  0
 21 46  1  0
 22 47  1  0
 25 48  1  0
 26 49  1  0
 27 50  1  0
 28 51  1  0
 29 52  1  0
M  END
$$$$
