
     RDKit          3D

 45 47  0  0  0  0  0  0  0  0999 V2000
    2.1741    0.6966   -4.1095 C   0  0  0  0  0  0  0  0  0  0  0  0
    2.0413    1.1506   -2.7685 O   0  0  0  0  0  0  0  0  0  0  0  0
    3.1324    0.9719   -1.9504 C   0  0  0  0  0  0  0  0  0  0  0  0
    4.4406    0.7900   -2.4091 C   0  0  0  0  0  0  0  0  0  0  0  0
    5.4861    0.6423   -1.4968 C   0  0  0  0  0  0  0  0  0  0  0  0
    5.2290    0.6827   -0.1288 C   0  0  0  0  0  0  0  0  0  0  0  0
    3.9257    0.8731    0.3372 C   0  0  0  0  0  0  0  0  0  0  0  0
    2.8697    1.0184   -0.5645 C   0  0  0  0  0  0  0  0  0  0  0  0
    1.5239    1.2109   -0.1760 N   0  0  0  0  0  0  0  0  0  0  0  0
    0.9949    1.2381    1.1013 C   0  0  0  0  0  0  0  0  0  0  0  0
    1.6291    1.0748    2.1412 O   0  0  0  0  0  0  0  0  0  0  0  0
   -0.5168    1.5272    1.1171 C   0  0  0  0  0  0  0  0  0  0  0  0
   -0.9767    2.0628    2.4768 C   0  0  0  0  0  0  0  0  0  0  0  0
   -1.2609    0.8027    3.2749 C   0  0  0  0  0  0  0  0  0  0  0  0
   -1.8153   -0.1755    2.2482 C   0  0  0  0  0  0  0  0  0  0  0  0
   -1.4155    0.3557    0.9216 N   0  0  0  0  0  0  0  0  0  0  0  0
   -1.0374   -0.7388   -0.2974 S   0  0  0  0  0  6  0  0  0  0  0  0
   -0.7621    0.0320   -1.4924 O   0  0  0  0  0  0  0  0  0  0  0  0
   -0.0842   -1.6915    0.2238 O   0  0  0  0  0  0  0  0  0  0  0  0
   -2.5858   -1.5736   -0.5456 C   0  0  0  0  0  0  0  0  0  0  0  0
   -2.7433   -2.8985   -0.1272 C   0  0  0  0  0  0  0  0  0  0  0  0
   -3.9640   -3.5433   -0.3381 C   0  0  0  0  0  0  0  0  0  0  0  0
   -5.0091   -2.8649   -0.9680 C   0  0  0  0  0  0  0  0  0  0  0  0
   -6.5115   -3.6631   -1.2239 Cl  0  0  0  0  0  0  0  0  0  0  0  0
   -4.8458   -1.5456   -1.3942 C   0  0  0  0  0  0  0  0  0  0  0  0
   -3.6282   -0.8950   -1.1864 C   0  0  0  0  0  0  0  0  0  0  0  0
    2.5362   -0.3362   -4.1511 H   0  0  0  0  0  0  0  0  0  0  0  0
    2.8222    1.3660   -4.6840 H   0  0  0  0  0  0  0  0  0  0  0  0
    1.1813    0.7201   -4.5693 H   0  0  0  0  0  0  0  0  0  0  0  0
    4.6775    0.7717   -3.4672 H   0  0  0  0  0  0  0  0  0  0  0  0
    6.5031    0.4996   -1.8531 H   0  0  0  0  0  0  0  0  0  0  0  0
    6.0429    0.5675    0.5828 H   0  0  0  0  0  0  0  0  0  0  0  0
    3.7681    0.8991    1.4101 H   0  0  0  0  0  0  0  0  0  0  0  0
    0.8785    1.2425   -0.9687 H   0  0  0  0  0  0  0  0  0  0  0  0
   -0.7330    2.2842    0.3535 H   0  0  0  0  0  0  0  0  0  0  0  0
   -0.2441    2.7097    2.9687 H   0  0  0  0  0  0  0  0  0  0  0  0
   -1.9054    2.6348    2.3561 H   0  0  0  0  0  0  0  0  0  0  0  0
   -1.9599    0.9778    4.0983 H   0  0  0  0  0  0  0  0  0  0  0  0
   -0.3373    0.4045    3.7098 H   0  0  0  0  0  0  0  0  0  0  0  0
   -2.9092   -0.2014    2.2952 H   0  0  0  0  0  0  0  0  0  0  0  0
   -1.4337   -1.1829    2.4360 H   0  0  0  0  0  0  0  0  0  0  0  0
   -1.9280   -3.4325    0.3570 H   0  0  0  0  0  0  0  0  0  0  0  0
   -4.0932   -4.5732   -0.0141 H   0  0  0  0  0  0  0  0  0  0  0  0
   -5.6600   -1.0227   -1.8899 H   0  0  0  0  0  0  0  0  0  0  0  0
   -3.4961    0.1314   -1.5224 H   0  0  0  0  0  0  0  0  0  0  0  0
  1  2  1  0
  2  3  1  0
  3  4  2  0
  4  5  1  0
  5  6  2  0
  6  7  1  0
  7  8  2  0
  8  9  1  0
  9 10  1  0
 10 11  2  0
 10 12  1  0
 12 13  1  0
 13 14  1  0
 14 15  1  0
 15 16  1  0
 16 17  1  0
 17 18  2  0
 17 19  2  0
 17 20  1  0
 20 21  2  0
 21 22  1  0
 22 23  2  0
 23 24  1  0
 23 25  1  0
 25 26  2  0
  8  3  1  0
 16 12  1  0
 26 20  1  0
  1 27  1  0
  1 28  1  0
  1 29  1  0
  4 30  1  0
  5 31  1  0
  6 32  1  0
  7 33  1  0
  9 34  1  0
 12 35  1  0
 13 36  1  0
 13 37  1  0
 14 38  1  0
 14 39  1  0
 15 40  1  0
 15 41  1  0
 21 42  1  0
 22 43  1  0
 25 44  1  0
 26 45  1  0
M  END
$$$$
