
     RDKit          3D

 47 50  0  0  0  0  0  0  0  0999 V2000
    0.9582    7.2693   -3.1254 C   0  0  0  0  0  0  0  0  0  0  0  0
    1.0572    5.7732   -3.0436 C   0  0  0  0  0  0  0  0  0  0  0  0
    2.2109    5.1173   -3.4861 C   0  0  0  0  0  0  0  0  0  0  0  0
    2.3432    3.7273   -3.3950 C   0  0  0  0  0  0  0  0  0  0  0  0
    1.2823    3.0099   -2.8332 C   0  0  0  0  0  0  0  0  0  0  0  0
    1.1431    1.6534   -2.6211 N   0  0  0  0  0  0  0  0  0  0  0  0
   -0.0653    1.4040   -2.0376 C   0  0  0  0  0  0  0  0  0  0  0  0
   -0.6200    0.1460   -1.6401 C   0  0  0  0  0  0  0  0  0  0  0  0
   -0.0193   -0.9202   -1.7563 O   0  0  0  0  0  0  0  0  0  0  0  0
   -1.8999    0.2611   -1.0707 N   0  0  0  0  0  0  0  0  0  0  0  0
   -2.6269   -0.9424   -0.6785 C   0  0  0  0  0  0  0  0  0  0  0  0
   -2.2087   -1.4815    0.6908 C   0  0  0  0  0  0  0  0  0  0  0  0
   -3.0352   -1.8350    1.5315 O   0  0  0  0  0  0  0  0  0  0  0  0
   -0.8535   -1.6822    0.8634 N   0  0  0  0  0  0  0  0  0  0  0  0
   -0.3167   -2.2946    2.0625 C   0  0  0  0  0  0  0  0  0  0  0  0
   -0.4709   -3.8172    2.0557 C   0  0  0  0  0  0  0  0  0  0  0  0
    0.1299   -4.4456    3.2889 C   0  0  0  0  0  0  0  0  0  0  0  0
   -0.6055   -4.4989    4.4820 C   0  0  0  0  0  0  0  0  0  0  0  0
   -0.0482   -5.0624    5.6315 C   0  0  0  0  0  0  0  0  0  0  0  0
    1.2472   -5.5723    5.5932 C   0  0  0  0  0  0  0  0  0  0  0  0
    1.9359   -6.2659    7.0093 Cl  0  0  0  0  0  0  0  0  0  0  0  0
    1.9907   -5.5223    4.4159 C   0  0  0  0  0  0  0  0  0  0  0  0
    1.4341   -4.9579    3.2660 C   0  0  0  0  0  0  0  0  0  0  0  0
   -2.5812    1.4803   -0.8909 N   0  0  0  0  0  0  0  0  0  0  0  0
   -2.0198    2.5953   -1.2629 C   0  0  0  0  0  0  0  0  0  0  0  0
   -0.7172    2.5993   -1.8662 C   0  0  0  0  0  0  0  0  0  0  0  0
    0.1180    3.6303   -2.3657 C   0  0  0  0  0  0  0  0  0  0  0  0
    0.0102    5.0321   -2.4687 C   0  0  0  0  0  0  0  0  0  0  0  0
    1.2983    7.7183   -2.1871 H   0  0  0  0  0  0  0  0  0  0  0  0
    1.5701    7.6596   -3.9455 H   0  0  0  0  0  0  0  0  0  0  0  0
   -0.0746    7.5801   -3.3150 H   0  0  0  0  0  0  0  0  0  0  0  0
    3.0312    5.6916   -3.9144 H   0  0  0  0  0  0  0  0  0  0  0  0
    3.2426    3.2321   -3.7476 H   0  0  0  0  0  0  0  0  0  0  0  0
    1.8296    0.9492   -2.8597 H   0  0  0  0  0  0  0  0  0  0  0  0
   -2.4559   -1.7291   -1.4215 H   0  0  0  0  0  0  0  0  0  0  0  0
   -3.6982   -0.7156   -0.6565 H   0  0  0  0  0  0  0  0  0  0  0  0
   -0.2541   -1.6263    0.0414 H   0  0  0  0  0  0  0  0  0  0  0  0
   -0.8241   -1.8595    2.9315 H   0  0  0  0  0  0  0  0  0  0  0  0
    0.7406   -2.0127    2.1179 H   0  0  0  0  0  0  0  0  0  0  0  0
    0.0014   -4.2364    1.1580 H   0  0  0  0  0  0  0  0  0  0  0  0
   -1.5291   -4.0991    1.9862 H   0  0  0  0  0  0  0  0  0  0  0  0
   -1.6184   -4.1003    4.5205 H   0  0  0  0  0  0  0  0  0  0  0  0
   -0.6286   -5.0988    6.5493 H   0  0  0  0  0  0  0  0  0  0  0  0
    3.0016   -5.9190    4.3866 H   0  0  0  0  0  0  0  0  0  0  0  0
    2.0243   -4.9225    2.3528 H   0  0  0  0  0  0  0  0  0  0  0  0
   -2.5487    3.5506   -1.1197 H   0  0  0  0  0  0  0  0  0  0  0  0
   -0.8808    5.5379   -2.1062 H   0  0  0  0  0  0  0  0  0  0  0  0
  1  2  1  0
  2  3  2  0
  3  4  1  0
  4  5  2  0
  5  6  1  0
  6  7  1  0
  7  8  1  0
  8  9  2  0
  8 10  1  0
 10 11  1  0
 11 12  1  0
 12 13  2  0
 12 14  1  0
 14 15  1  0
 15 16  1  0
 16 17  1  0
 17 18  2  0
 18 19  1  0
 19 20  2  0
 20 21  1  0
 20 22  1  0
 22 23  2  0
 10 24  1  0
 24 25  2  0
 25 26  1  0
 26 27  1  0
 27 28  2  0
 28  2  1  0
 27  5  1  0
 26  7  2  0
 23 17  1  0
  1 29  1  0
  1 30  1  0
  1 31  1  0
  3 32  1  0
  4 33  1  0
  6 34  1  0
 11 35  1  0
 11 36  1  0
 14 37  1  0
 15 38  1  0
 15 39  1  0
 16 40  1  0
 16 41  1  0
 18 42  1  0
 19 43  1  0
 22 44  1  0
 23 45  1  0
 25 46  1  0
 28 47  1  0
M  END
$$$$
