
     RDKit          3D

 63 67  0  0  0  0  0  0  0  0999 V2000
   -1.9147   -5.6203    0.6492 C   0  0  0  0  0  0  0  0  0  0  0  0
   -2.1052   -4.2655    1.0361 O   0  0  0  0  0  0  0  0  0  0  0  0
   -3.0171   -3.5402    0.3186 C   0  0  0  0  0  0  0  0  0  0  0  0
   -3.7951   -4.0158   -0.7372 C   0  0  0  0  0  0  0  0  0  0  0  0
   -4.6917   -3.1637   -1.3870 C   0  0  0  0  0  0  0  0  0  0  0  0
   -4.8140   -1.8332   -0.9848 C   0  0  0  0  0  0  0  0  0  0  0  0
   -4.0417   -1.3415    0.0744 C   0  0  0  0  0  0  0  0  0  0  0  0
   -4.1484    0.0613    0.4939 C   0  0  0  0  0  0  0  0  0  0  0  0
   -5.6298    0.6038    1.1564 S   0  0  0  0  0  0  0  0  0  0  0  0
   -5.0392    2.1956    1.4123 C   0  0  0  0  0  0  0  0  0  0  0  0
   -5.7473    3.2790    1.9639 C   0  0  0  0  0  0  0  0  0  0  0  0
   -5.1024    4.5119    2.0900 C   0  0  0  0  0  0  0  0  0  0  0  0
   -3.7856    4.6806    1.6791 C   0  0  0  0  0  0  0  0  0  0  0  0
   -3.2882    5.9426    1.8583 O   0  0  0  0  0  0  0  0  0  0  0  0
   -1.9541    6.1765    1.4245 C   0  0  0  0  0  0  0  0  0  0  0  0
   -3.0909    3.5964    1.1353 C   0  0  0  0  0  0  0  0  0  0  0  0
   -3.7135    2.3236    0.9965 C   0  0  0  0  0  0  0  0  0  0  0  0
   -3.2030    1.0753    0.4709 C   0  0  0  0  0  0  0  0  0  0  0  0
   -1.8555    0.8584   -0.0444 C   0  0  0  0  0  0  0  0  0  0  0  0
   -0.7666    0.8376    0.8337 C   0  0  0  0  0  0  0  0  0  0  0  0
    0.5294    0.6287    0.3488 C   0  0  0  0  0  0  0  0  0  0  0  0
    0.7447    0.4419   -1.0172 C   0  0  0  0  0  0  0  0  0  0  0  0
    1.9541    0.2271   -1.6184 O   0  0  0  0  0  0  0  0  0  0  0  0
    3.0815    0.0350   -0.7574 C   0  0  0  0  0  0  0  0  0  0  0  0
    4.3030   -0.2748   -1.6378 C   0  0  0  0  0  0  0  0  0  0  0  0
    5.5681   -0.4040   -0.8903 N   0  0  0  0  0  0  0  0  0  0  0  0
    6.7083   -0.4551   -1.8351 C   0  0  0  0  0  0  0  0  0  0  0  0
    8.0425   -0.6562   -1.1003 C   0  0  0  0  0  0  0  0  0  0  0  0
    8.0258   -1.8594   -0.3218 O   0  0  0  0  0  0  0  0  0  0  0  0
    6.9599   -1.8067    0.6342 C   0  0  0  0  0  0  0  0  0  0  0  0
    5.5972   -1.6268   -0.0567 C   0  0  0  0  0  0  0  0  0  0  0  0
   -0.3435    0.4761   -1.8930 C   0  0  0  0  0  0  0  0  0  0  0  0
   -1.6390    0.6822   -1.4133 C   0  0  0  0  0  0  0  0  0  0  0  0
   -3.1463   -2.2065    0.7186 C   0  0  0  0  0  0  0  0  0  0  0  0
   -2.8335   -6.2012    0.7811 H   0  0  0  0  0  0  0  0  0  0  0  0
   -1.1518   -6.0509    1.3049 H   0  0  0  0  0  0  0  0  0  0  0  0
   -1.5464   -5.6896   -0.3798 H   0  0  0  0  0  0  0  0  0  0  0  0
   -3.7294   -5.0430   -1.0795 H   0  0  0  0  0  0  0  0  0  0  0  0
   -5.2956   -3.5373   -2.2101 H   0  0  0  0  0  0  0  0  0  0  0  0
   -5.5112   -1.1815   -1.5067 H   0  0  0  0  0  0  0  0  0  0  0  0
   -6.7782    3.1633    2.2858 H   0  0  0  0  0  0  0  0  0  0  0  0
   -5.6440    5.3544    2.5146 H   0  0  0  0  0  0  0  0  0  0  0  0
   -1.7180    7.2267    1.6219 H   0  0  0  0  0  0  0  0  0  0  0  0
   -1.8538    6.0099    0.3467 H   0  0  0  0  0  0  0  0  0  0  0  0
   -1.2430    5.5638    1.9885 H   0  0  0  0  0  0  0  0  0  0  0  0
   -2.0636    3.6951    0.8022 H   0  0  0  0  0  0  0  0  0  0  0  0
   -0.9206    0.9750    1.9018 H   0  0  0  0  0  0  0  0  0  0  0  0
    1.3444    0.6187    1.0643 H   0  0  0  0  0  0  0  0  0  0  0  0
    2.8845   -0.8025   -0.0791 H   0  0  0  0  0  0  0  0  0  0  0  0
    3.2713    0.9502   -0.1837 H   0  0  0  0  0  0  0  0  0  0  0  0
    4.1027   -1.1711   -2.2400 H   0  0  0  0  0  0  0  0  0  0  0  0
    4.3934    0.5485   -2.3593 H   0  0  0  0  0  0  0  0  0  0  0  0
    6.5667   -1.2807   -2.5452 H   0  0  0  0  0  0  0  0  0  0  0  0
    6.7611    0.4788   -2.4065 H   0  0  0  0  0  0  0  0  0  0  0  0
    8.2706    0.1952   -0.4477 H   0  0  0  0  0  0  0  0  0  0  0  0
    8.8559   -0.7445   -1.8275 H   0  0  0  0  0  0  0  0  0  0  0  0
    7.1531   -0.9965    1.3476 H   0  0  0  0  0  0  0  0  0  0  0  0
    6.9695   -2.7488    1.1916 H   0  0  0  0  0  0  0  0  0  0  0  0
    5.3971   -2.5081   -0.6800 H   0  0  0  0  0  0  0  0  0  0  0  0
    4.8284   -1.5782    0.7211 H   0  0  0  0  0  0  0  0  0  0  0  0
   -0.1823    0.3346   -2.9588 H   0  0  0  0  0  0  0  0  0  0  0  0
   -2.4711    0.7002   -2.1127 H   0  0  0  0  0  0  0  0  0  0  0  0
   -2.5380   -1.8441    1.5444 H   0  0  0  0  0  0  0  0  0  0  0  0
  1  2  1  0
  2  3  1  0
  3  4  2  0
  4  5  1  0
  5  6  2  0
  6  7  1  0
  7  8  1  0
  8  9  1  0
  9 10  1  0
 10 11  2  0
 11 12  1  0
 12 13  2  0
 13 14  1  0
 14 15  1  0
 13 16  1  0
 16 17  2  0
 17 18  1  0
 18 19  1  0
 19 20  2  0
 20 21  1  0
 21 22  2  0
 22 23  1  0
 23 24  1  0
 24 25  1  0
 25 26  1  0
 26 27  1  0
 27 28  1  0
 28 29  1  0
 29 30  1  0
 30 31  1  0
 22 32  1  0
 32 33  2  0
  7 34  2  0
 34  3  1  0
 18  8  2  0
 33 19  1  0
 17 10  1  0
 31 26  1  0
  1 35  1  0
  1 36  1  0
  1 37  1  0
  4 38  1  0
  5 39  1  0
  6 40  1  0
 11 41  1  0
 12 42  1  0
 15 43  1  0
 15 44  1  0
 15 45  1  0
 16 46  1  0
 20 47  1  0
 21 48  1  0
 24 49  1  0
 24 50  1  0
 25 51  1  0
 25 52  1  0
 27 53  1  0
 27 54  1  0
 28 55  1  0
 28 56  1  0
 30 57  1  0
 30 58  1  0
 31 59  1  0
 31 60  1  0
 32 61  1  0
 33 62  1  0
 34 63  1  0
M  END
$$$$
