
     RDKit          3D

 37 38  0  0  0  0  0  0  0  0999 V2000
   -5.1028   -0.6449   -0.8805 C   0  0  0  0  0  0  0  0  0  0  0  0
   -4.4728    0.6255   -1.2314 N   0  0  0  0  0  0  0  0  0  0  0  0
   -4.3070    1.5022   -0.0561 C   0  0  0  0  0  0  0  0  0  0  0  0
   -3.2292    1.0501    0.9453 C   0  0  0  0  0  0  0  0  0  0  0  0
   -1.9463    0.7166    0.3161 N   0  0  0  0  0  0  0  0  0  0  0  0
   -0.8219    0.7872    1.1286 C   0  0  0  0  0  0  0  0  0  0  0  0
   -0.8319    1.3285    2.2333 O   0  0  0  0  0  0  0  0  0  0  0  0
    0.4350    0.1705    0.6223 C   0  0  0  0  0  0  0  0  0  0  0  0
    1.6115    0.5560    1.1425 C   0  0  0  0  0  0  0  0  0  0  0  0
    2.9067   -0.0157    0.7548 C   0  0  0  0  0  0  0  0  0  0  0  0
    3.2191   -0.3227   -0.5775 C   0  0  0  0  0  0  0  0  0  0  0  0
    4.4740   -0.8411   -0.9145 C   0  0  0  0  0  0  0  0  0  0  0  0
    5.4293   -1.0449    0.0888 C   0  0  0  0  0  0  0  0  0  0  0  0
    6.7472   -1.5896   -0.2601 N   0  0  0  0  0  4  0  0  0  0  0  0
    6.9582   -1.8700   -1.4489 O   0  0  0  0  0  0  0  0  0  0  0  0
    7.5705   -1.7387    0.6540 O   0  0  0  0  0  1  0  0  0  0  0  0
    5.1381   -0.7282    1.4206 C   0  0  0  0  0  0  0  0  0  0  0  0
    3.8804   -0.2098    1.7453 C   0  0  0  0  0  0  0  0  0  0  0  0
   -2.0317   -0.0448   -0.9367 C   0  0  0  0  0  0  0  0  0  0  0  0
   -3.1606    0.4338   -1.8719 C   0  0  0  0  0  0  0  0  0  0  0  0
   -4.5188   -1.2391   -0.1705 H   0  0  0  0  0  0  0  0  0  0  0  0
   -5.2608   -1.2507   -1.7797 H   0  0  0  0  0  0  0  0  0  0  0  0
   -6.0930   -0.4710   -0.4448 H   0  0  0  0  0  0  0  0  0  0  0  0
   -5.2656    1.6249    0.4628 H   0  0  0  0  0  0  0  0  0  0  0  0
   -4.0403    2.5026   -0.4222 H   0  0  0  0  0  0  0  0  0  0  0  0
   -3.0880    1.8397    1.6920 H   0  0  0  0  0  0  0  0  0  0  0  0
   -3.5612    0.1554    1.4856 H   0  0  0  0  0  0  0  0  0  0  0  0
    0.3749   -0.6204   -0.1094 H   0  0  0  0  0  0  0  0  0  0  0  0
    1.6410    1.3183    1.9203 H   0  0  0  0  0  0  0  0  0  0  0  0
    2.4955   -0.1488   -1.3711 H   0  0  0  0  0  0  0  0  0  0  0  0
    4.6896   -1.0715   -1.9559 H   0  0  0  0  0  0  0  0  0  0  0  0
    5.8705   -0.8749    2.2119 H   0  0  0  0  0  0  0  0  0  0  0  0
    3.6631    0.0348    2.7844 H   0  0  0  0  0  0  0  0  0  0  0  0
   -1.0877    0.0335   -1.4839 H   0  0  0  0  0  0  0  0  0  0  0  0
   -2.1751   -1.0973   -0.6660 H   0  0  0  0  0  0  0  0  0  0  0  0
   -3.2496   -0.2529   -2.7227 H   0  0  0  0  0  0  0  0  0  0  0  0
   -2.8603    1.3976   -2.3047 H   0  0  0  0  0  0  0  0  0  0  0  0
  1  2  1  0
  2  3  1  0
  3  4  1  0
  4  5  1  0
  5  6  1  0
  6  7  2  0
  6  8  1  0
  8  9  2  3
  9 10  1  0
 10 11  2  0
 11 12  1  0
 12 13  2  0
 13 14  1  0
 14 15  2  0
 14 16  1  0
 13 17  1  0
 17 18  2  0
  5 19  1  0
 19 20  1  0
 20  2  1  0
 18 10  1  0
  1 21  1  0
  1 22  1  0
  1 23  1  0
  3 24  1  0
  3 25  1  0
  4 26  1  0
  4 27  1  0
  8 28  1  0
  9 29  1  0
 11 30  1  0
 12 31  1  0
 17 32  1  0
 18 33  1  0
 19 34  1  0
 19 35  1  0
 20 36  1  0
 20 37  1  0
M  CHG  2  14   1  16  -1
M  END
$$$$
