
     RDKit          3D

 73 75  0  0  0  0  0  0  0  0999 V2000
    6.9692   -3.8643   -2.8813 C   0  0  0  0  0  0  0  0  0  0  0  0
    6.8921   -4.6167   -1.5619 C   0  0  0  0  0  0  0  0  0  0  0  0
    6.8673   -3.7102   -0.3276 C   0  0  0  0  0  0  0  0  0  0  0  0
    5.4697   -3.3343    0.1763 C   0  0  0  0  0  0  0  0  0  0  0  0
    4.6116   -2.4605   -0.7404 C   0  0  0  0  0  0  0  0  0  0  0  0
    5.2425   -1.1010   -1.0522 C   0  0  0  0  0  0  0  0  0  0  0  0
    4.3563   -0.2053   -1.9267 C   0  0  0  0  0  0  0  0  0  0  0  0
    3.0844    0.2639   -1.2157 C   0  0  0  0  0  0  0  0  0  0  0  0
    2.2998    1.2648   -2.0710 C   0  0  0  0  0  0  0  0  0  0  0  0
    0.9372    1.6320   -1.4670 C   0  0  0  0  0  0  0  0  0  0  0  0
    1.0678    2.4109   -0.1551 C   0  0  0  0  0  0  0  0  0  0  0  0
   -0.2939    2.8090    0.4782 N   0  0  0  0  0  4  0  0  0  0  0  0
    0.0316    3.6042    1.7486 C   0  0  0  0  0  0  0  0  0  0  0  0
   -1.0769    3.7139   -0.4723 C   0  0  0  0  0  0  0  0  0  0  0  0
   -1.1008    1.5336    0.8209 C   0  0  0  0  0  0  0  0  0  0  0  0
   -2.3431    1.7835    1.6941 C   0  0  0  0  0  0  0  0  0  0  0  0
   -3.1702    0.5263    1.8108 C   0  0  0  0  0  0  0  0  0  0  0  0
   -4.4921    0.3579    1.5733 C   0  0  0  0  0  0  0  0  0  0  0  0
   -5.0071   -1.0404    1.5215 C   0  0  0  0  0  0  0  0  0  0  0  0
   -4.7250   -1.9833    2.5216 C   0  0  0  0  0  0  0  0  0  0  0  0
   -5.2146   -3.2871    2.4225 C   0  0  0  0  0  0  0  0  0  0  0  0
   -6.0006   -3.6584    1.3339 C   0  0  0  0  0  0  0  0  0  0  0  0
   -6.3183   -2.7218    0.3481 C   0  0  0  0  0  0  0  0  0  0  0  0
   -5.8336   -1.4114    0.4391 C   0  0  0  0  0  0  0  0  0  0  0  0
   -6.2725   -0.2476   -0.8551 S   0  0  0  0  0  0  0  0  0  0  0  0
   -6.2442    1.2906    0.0610 C   0  0  0  0  0  0  0  0  0  0  0  0
   -7.1061    2.3232   -0.3344 C   0  0  0  0  0  0  0  0  0  0  0  0
   -7.1336    3.5271    0.3747 C   0  0  0  0  0  0  0  0  0  0  0  0
   -6.3117    3.6909    1.4881 C   0  0  0  0  0  0  0  0  0  0  0  0
   -6.3359    5.1725    2.3617 Cl  0  0  0  0  0  0  0  0  0  0  0  0
   -5.4544    2.6690    1.8964 C   0  0  0  0  0  0  0  0  0  0  0  0
   -5.3855    1.4735    1.1648 C   0  0  0  0  0  0  0  0  0  0  0  0
    6.0631   -3.2864   -3.0794 H   0  0  0  0  0  0  0  0  0  0  0  0
    7.0933   -4.5741   -3.7059 H   0  0  0  0  0  0  0  0  0  0  0  0
    7.8243   -3.1817   -2.8957 H   0  0  0  0  0  0  0  0  0  0  0  0
    7.7870   -5.2501   -1.4981 H   0  0  0  0  0  0  0  0  0  0  0  0
    6.0309   -5.2944   -1.5668 H   0  0  0  0  0  0  0  0  0  0  0  0
    7.3501   -4.2628    0.4915 H   0  0  0  0  0  0  0  0  0  0  0  0
    7.4818   -2.8160   -0.4837 H   0  0  0  0  0  0  0  0  0  0  0  0
    5.5850   -2.8168    1.1382 H   0  0  0  0  0  0  0  0  0  0  0  0
    4.9133   -4.2547    0.3928 H   0  0  0  0  0  0  0  0  0  0  0  0
    3.6506   -2.3111   -0.2347 H   0  0  0  0  0  0  0  0  0  0  0  0
    4.3828   -2.9968   -1.6670 H   0  0  0  0  0  0  0  0  0  0  0  0
    6.1900   -1.2494   -1.5798 H   0  0  0  0  0  0  0  0  0  0  0  0
    5.4836   -0.5785   -0.1187 H   0  0  0  0  0  0  0  0  0  0  0  0
    4.9432    0.6734   -2.2240 H   0  0  0  0  0  0  0  0  0  0  0  0
    4.0922   -0.7354   -2.8483 H   0  0  0  0  0  0  0  0  0  0  0  0
    2.4424   -0.5949   -0.9930 H   0  0  0  0  0  0  0  0  0  0  0  0
    3.3586    0.7232   -0.2623 H   0  0  0  0  0  0  0  0  0  0  0  0
    2.1252    0.8288   -3.0627 H   0  0  0  0  0  0  0  0  0  0  0  0
    2.8944    2.1730   -2.2253 H   0  0  0  0  0  0  0  0  0  0  0  0
    0.3983    2.2320   -2.2082 H   0  0  0  0  0  0  0  0  0  0  0  0
    0.3647    0.7098   -1.3226 H   0  0  0  0  0  0  0  0  0  0  0  0
    1.5943    1.8231    0.6044 H   0  0  0  0  0  0  0  0  0  0  0  0
    1.6251    3.3412   -0.3216 H   0  0  0  0  0  0  0  0  0  0  0  0
    0.6964    4.4306    1.4786 H   0  0  0  0  0  0  0  0  0  0  0  0
   -0.8958    4.0025    2.1683 H   0  0  0  0  0  0  0  0  0  0  0  0
    0.5211    2.9321    2.4597 H   0  0  0  0  0  0  0  0  0  0  0  0
   -0.4028    4.4917   -0.8417 H   0  0  0  0  0  0  0  0  0  0  0  0
   -1.9038    4.1717    0.0759 H   0  0  0  0  0  0  0  0  0  0  0  0
   -1.4664    3.1118   -1.2976 H   0  0  0  0  0  0  0  0  0  0  0  0
   -1.4013    1.0826   -0.1308 H   0  0  0  0  0  0  0  0  0  0  0  0
   -0.4111    0.8512    1.3315 H   0  0  0  0  0  0  0  0  0  0  0  0
   -2.9215    2.6007    1.2606 H   0  0  0  0  0  0  0  0  0  0  0  0
   -2.0433    2.0846    2.7050 H   0  0  0  0  0  0  0  0  0  0  0  0
   -2.5817   -0.3565    2.0703 H   0  0  0  0  0  0  0  0  0  0  0  0
   -4.1262   -1.7150    3.3891 H   0  0  0  0  0  0  0  0  0  0  0  0
   -4.9880   -4.0154    3.1984 H   0  0  0  0  0  0  0  0  0  0  0  0
   -6.3826   -4.6739    1.2590 H   0  0  0  0  0  0  0  0  0  0  0  0
   -6.9471   -3.0239   -0.4884 H   0  0  0  0  0  0  0  0  0  0  0  0
   -7.7658    2.1954   -1.1914 H   0  0  0  0  0  0  0  0  0  0  0  0
   -7.8100    4.3218    0.0638 H   0  0  0  0  0  0  0  0  0  0  0  0
   -4.8539    2.8020    2.7929 H   0  0  0  0  0  0  0  0  0  0  0  0
  1  2  1  0
  2  3  1  0
  3  4  1  0
  4  5  1  0
  5  6  1  0
  6  7  1  0
  7  8  1  0
  8  9  1  0
  9 10  1  0
 10 11  1  0
 11 12  1  0
 12 13  1  0
 12 14  1  0
 12 15  1  0
 15 16  1  0
 16 17  1  0
 17 18  2  3
 18 19  1  0
 19 20  2  0
 20 21  1  0
 21 22  2  0
 22 23  1  0
 23 24  2  0
 24 25  1  0
 25 26  1  0
 26 27  2  0
 27 28  1  0
 28 29  2  0
 29 30  1  0
 29 31  1  0
 31 32  2  0
 32 18  1  0
 24 19  1  0
 32 26  1  0
  1 33  1  0
  1 34  1  0
  1 35  1  0
  2 36  1  0
  2 37  1  0
  3 38  1  0
  3 39  1  0
  4 40  1  0
  4 41  1  0
  5 42  1  0
  5 43  1  0
  6 44  1  0
  6 45  1  0
  7 46  1  0
  7 47  1  0
  8 48  1  0
  8 49  1  0
  9 50  1  0
  9 51  1  0
 10 52  1  0
 10 53  1  0
 11 54  1  0
 11 55  1  0
 13 56  1  0
 13 57  1  0
 13 58  1  0
 14 59  1  0
 14 60  1  0
 14 61  1  0
 15 62  1  0
 15 63  1  0
 16 64  1  0
 16 65  1  0
 17 66  1  0
 20 67  1  0
 21 68  1  0
 22 69  1  0
 23 70  1  0
 27 71  1  0
 28 72  1  0
 31 73  1  0
M  CHG  1  12   1
M  END
$$$$
