
     RDKit          3D

 24 25  0  0  0  0  0  0  0  0999 V2000
    2.2026    1.3116   -2.8822 C   0  0  0  0  0  0  0  0  0  0  0  0
    1.9423    1.1293   -1.4761 N   0  0  0  0  0  0  0  0  0  0  0  0
    2.8183    1.5980   -0.5602 N   0  0  0  0  0  0  0  0  0  0  0  0
    2.2114    1.2278    0.5810 C   0  0  0  0  0  0  0  0  0  0  0  0
    2.7947    1.5222    1.8829 N   0  0  0  0  0  4  0  0  0  0  0  0
    3.8771    2.1294    1.9131 O   0  0  0  0  0  0  0  0  0  0  0  0
    2.1642    1.1425    2.8820 O   0  0  0  0  0  1  0  0  0  0  0  0
    1.0191    0.5617    0.4351 N   0  0  0  0  0  0  0  0  0  0  0  0
    0.8779    0.5158   -0.8701 C   0  0  0  0  0  0  0  0  0  0  0  0
   -0.4258   -0.1937   -1.7635 S   0  0  0  0  0  0  0  0  0  0  0  0
   -1.4243   -0.7899   -0.4130 C   0  0  0  0  0  0  0  0  0  0  0  0
   -1.2392   -2.0861    0.0826 C   0  0  0  0  0  0  0  0  0  0  0  0
   -2.0352   -2.5607    1.1289 C   0  0  0  0  0  0  0  0  0  0  0  0
   -3.0210   -1.7415    1.6755 C   0  0  0  0  0  0  0  0  0  0  0  0
   -4.0035   -2.3271    2.9603 Cl  0  0  0  0  0  0  0  0  0  0  0  0
   -3.2191   -0.4526    1.1842 C   0  0  0  0  0  0  0  0  0  0  0  0
   -2.4231    0.0218    0.1379 C   0  0  0  0  0  0  0  0  0  0  0  0
    3.1477    1.8459   -3.0112 H   0  0  0  0  0  0  0  0  0  0  0  0
    1.3887    1.8983   -3.3149 H   0  0  0  0  0  0  0  0  0  0  0  0
    2.2704    0.3289   -3.3551 H   0  0  0  0  0  0  0  0  0  0  0  0
   -0.4716   -2.7336   -0.3342 H   0  0  0  0  0  0  0  0  0  0  0  0
   -1.8793   -3.5655    1.5123 H   0  0  0  0  0  0  0  0  0  0  0  0
   -3.9869    0.1872    1.6109 H   0  0  0  0  0  0  0  0  0  0  0  0
   -2.5854    1.0300   -0.2354 H   0  0  0  0  0  0  0  0  0  0  0  0
  1  2  1  0
  2  3  1  0
  3  4  2  0
  4  5  1  0
  5  6  2  0
  5  7  1  0
  4  8  1  0
  8  9  2  0
  9 10  1  0
 10 11  1  0
 11 12  2  0
 12 13  1  0
 13 14  2  0
 14 15  1  0
 14 16  1  0
 16 17  2  0
  9  2  1  0
 17 11  1  0
  1 18  1  0
  1 19  1  0
  1 20  1  0
 12 21  1  0
 13 22  1  0
 16 23  1  0
 17 24  1  0
M  CHG  2   5   1   7  -1
M  END
$$$$
