
     RDKit          3D

 47 48  0  0  0  0  0  0  0  0999 V2000
    5.0030   -1.8366    2.1177 C   0  0  0  0  0  0  0  0  0  0  0  0
    4.8024   -1.1435    0.8026 C   0  0  0  0  0  0  0  0  0  0  0  0
    3.6557   -1.3911    0.0406 C   0  0  0  0  0  0  0  0  0  0  0  0
    3.4785   -0.7688   -1.1977 C   0  0  0  0  0  0  0  0  0  0  0  0
    4.4473    0.1090   -1.7019 C   0  0  0  0  0  0  0  0  0  0  0  0
    4.2505    0.7794   -3.0397 C   0  0  0  0  0  0  0  0  0  0  0  0
    4.0286    2.5758   -2.9346 S   0  0  0  0  0  0  0  0  0  0  0  0
    2.4510    2.6881   -2.2199 C   0  0  0  0  0  0  0  0  0  0  0  0
    1.9803    3.7833   -1.6569 N   0  0  0  0  0  0  0  0  0  0  0  0
    0.7061    3.4923   -1.2161 N   0  0  0  0  0  0  0  0  0  0  0  0
    0.4788    2.2415   -1.5544 C   0  0  0  0  0  0  0  0  0  0  0  0
   -0.7144    1.3935   -1.3374 C   0  0  0  0  0  0  0  0  0  0  0  0
   -1.8390    2.1619   -0.6416 C   0  0  0  0  0  0  0  0  0  0  0  0
   -3.0435    1.3710   -0.4861 N   0  0  0  0  0  0  0  0  0  0  0  0
   -3.1555    0.3838    0.4459 C   0  0  0  0  0  0  0  0  0  0  0  0
   -2.2403   -0.0186    1.1466 O   0  0  0  0  0  0  0  0  0  0  0  0
   -4.4342   -0.0545    0.4605 O   0  0  0  0  0  0  0  0  0  0  0  0
   -4.8538   -1.0790    1.3996 C   0  0  0  0  0  0  0  0  0  0  0  0
   -4.1114   -2.3996    1.1591 C   0  0  0  0  0  0  0  0  0  0  0  0
   -6.3471   -1.2943    1.1025 C   0  0  0  0  0  0  0  0  0  0  0  0
   -4.7075   -0.5940    2.8476 C   0  0  0  0  0  0  0  0  0  0  0  0
    1.5328    1.6684   -2.2120 O   0  0  0  0  0  0  0  0  0  0  0  0
    5.6046    0.3388   -0.9442 C   0  0  0  0  0  0  0  0  0  0  0  0
    5.7815   -0.2839    0.2942 C   0  0  0  0  0  0  0  0  0  0  0  0
    5.5052   -2.7963    1.9609 H   0  0  0  0  0  0  0  0  0  0  0  0
    5.6091   -1.2262    2.7947 H   0  0  0  0  0  0  0  0  0  0  0  0
    4.0438   -2.0162    2.6146 H   0  0  0  0  0  0  0  0  0  0  0  0
    2.8879   -2.0695    0.4087 H   0  0  0  0  0  0  0  0  0  0  0  0
    2.5732   -0.9770   -1.7638 H   0  0  0  0  0  0  0  0  0  0  0  0
    3.4075    0.3357   -3.5811 H   0  0  0  0  0  0  0  0  0  0  0  0
    5.1368    0.5845   -3.6547 H   0  0  0  0  0  0  0  0  0  0  0  0
   -0.4263    0.5170   -0.7442 H   0  0  0  0  0  0  0  0  0  0  0  0
   -1.0698    1.0174   -2.3050 H   0  0  0  0  0  0  0  0  0  0  0  0
   -2.1182    3.0496   -1.2216 H   0  0  0  0  0  0  0  0  0  0  0  0
   -1.5198    2.4988    0.3532 H   0  0  0  0  0  0  0  0  0  0  0  0
   -3.9126    1.6743   -0.9048 H   0  0  0  0  0  0  0  0  0  0  0  0
   -4.1611   -2.6875    0.1021 H   0  0  0  0  0  0  0  0  0  0  0  0
   -3.0493   -2.3262    1.4110 H   0  0  0  0  0  0  0  0  0  0  0  0
   -4.5353   -3.2105    1.7613 H   0  0  0  0  0  0  0  0  0  0  0  0
   -6.7852   -2.0544    1.7577 H   0  0  0  0  0  0  0  0  0  0  0  0
   -6.4959   -1.6075    0.0618 H   0  0  0  0  0  0  0  0  0  0  0  0
   -6.9102   -0.3623    1.2304 H   0  0  0  0  0  0  0  0  0  0  0  0
   -5.1859   -1.2845    3.5520 H   0  0  0  0  0  0  0  0  0  0  0  0
   -5.1598    0.3972    2.9718 H   0  0  0  0  0  0  0  0  0  0  0  0
   -3.6563   -0.5000    3.1423 H   0  0  0  0  0  0  0  0  0  0  0  0
    6.3779    1.0086   -1.3127 H   0  0  0  0  0  0  0  0  0  0  0  0
    6.6899   -0.0881    0.8616 H   0  0  0  0  0  0  0  0  0  0  0  0
  1  2  1  0
  2  3  2  0
  3  4  1  0
  4  5  2  0
  5  6  1  0
  6  7  1  0
  7  8  1  0
  8  9  2  0
  9 10  1  0
 10 11  2  0
 11 12  1  0
 12 13  1  0
 13 14  1  0
 14 15  1  0
 15 16  2  0
 15 17  1  0
 17 18  1  0
 18 19  1  0
 18 20  1  0
 18 21  1  0
 11 22  1  0
  5 23  1  0
 23 24  2  0
 24  2  1  0
 22  8  1  0
  1 25  1  0
  1 26  1  0
  1 27  1  0
  3 28  1  0
  4 29  1  0
  6 30  1  0
  6 31  1  0
 12 32  1  0
 12 33  1  0
 13 34  1  0
 13 35  1  0
 14 36  1  0
 19 37  1  0
 19 38  1  0
 19 39  1  0
 20 40  1  0
 20 41  1  0
 20 42  1  0
 21 43  1  0
 21 44  1  0
 21 45  1  0
 23 46  1  0
 24 47  1  0
M  END
$$$$
