
     RDKit          3D

 61 63  0  0  0  0  0  0  0  0999 V2000
   -4.3689    1.3514    2.3121 C   0  0  0  0  0  0  0  0  0  0  0  0
   -3.1392    1.0675    1.4648 C   0  0  0  0  0  0  0  0  0  0  0  0
   -3.1372    1.8984    0.1798 C   0  0  0  0  0  0  0  0  0  0  0  0
   -1.9302    1.5900   -0.7026 C   0  0  0  0  0  0  0  0  0  0  0  0
   -0.6887    2.0286   -0.0942 N   0  0  0  0  0  0  0  0  0  0  0  0
    0.5101    1.4157   -0.4014 C   0  0  0  0  0  0  0  0  0  0  0  0
    0.5870    0.4150   -1.1117 O   0  0  0  0  0  0  0  0  0  0  0  0
    1.7435    2.0564    0.2443 C   0  0  0  0  0  0  0  0  0  0  0  0
    2.1343    3.3692   -0.4574 C   0  0  0  0  0  0  0  0  0  0  0  0
    2.5534    3.2286   -1.9039 C   0  0  0  0  0  0  0  0  0  0  0  0
    1.6111    3.3232   -2.9369 C   0  0  0  0  0  0  0  0  0  0  0  0
    2.0037    3.1710   -4.2675 C   0  0  0  0  0  0  0  0  0  0  0  0
    3.3393    2.9246   -4.5791 C   0  0  0  0  0  0  0  0  0  0  0  0
    4.2847    2.8311   -3.5608 C   0  0  0  0  0  0  0  0  0  0  0  0
    3.8949    2.9830   -2.2299 C   0  0  0  0  0  0  0  0  0  0  0  0
    2.8812    1.1074    0.2367 N   0  0  0  0  0  0  0  0  0  0  0  0
    3.1186    0.1155    1.5663 S   0  0  0  0  0  6  0  0  0  0  0  0
    4.2656   -0.7152    1.2815 O   0  0  0  0  0  0  0  0  0  0  0  0
    3.0616    0.9515    2.7465 O   0  0  0  0  0  0  0  0  0  0  0  0
    1.6885   -0.9338    1.5786 C   0  0  0  0  0  0  0  0  0  0  0  0
    0.6621   -0.7116    2.4960 C   0  0  0  0  0  0  0  0  0  0  0  0
   -0.4612   -1.5456    2.4922 C   0  0  0  0  0  0  0  0  0  0  0  0
   -0.5702   -2.6094    1.5799 C   0  0  0  0  0  0  0  0  0  0  0  0
    0.4800   -2.8246    0.6870 C   0  0  0  0  0  0  0  0  0  0  0  0
    1.6163   -2.0022    0.6862 C   0  0  0  0  0  0  0  0  0  0  0  0
    0.3943   -3.9383   -0.2695 C   0  0  0  0  0  0  0  0  0  0  0  0
    1.3620   -4.1918   -0.9827 O   0  0  0  0  0  0  0  0  0  0  0  0
   -0.7937   -4.6515   -0.2894 N   0  0  0  0  0  0  0  0  0  0  0  0
   -0.9104   -5.7379   -1.2444 C   0  0  0  0  0  0  0  0  0  0  0  0
   -1.8281   -4.5002    0.6254 C   0  0  0  0  0  0  0  0  0  0  0  0
   -2.8071   -5.2507    0.6184 O   0  0  0  0  0  0  0  0  0  0  0  0
   -1.7014   -3.4680    1.5516 N   0  0  0  0  0  0  0  0  0  0  0  0
   -2.7743   -3.2800    2.5198 C   0  0  0  0  0  0  0  0  0  0  0  0
   -4.3484    0.7443    3.2225 H   0  0  0  0  0  0  0  0  0  0  0  0
   -4.4074    2.4051    2.6068 H   0  0  0  0  0  0  0  0  0  0  0  0
   -5.2867    1.1127    1.7650 H   0  0  0  0  0  0  0  0  0  0  0  0
   -2.2428    1.2836    2.0573 H   0  0  0  0  0  0  0  0  0  0  0  0
   -3.1147    0.0006    1.2146 H   0  0  0  0  0  0  0  0  0  0  0  0
   -4.0502    1.6855   -0.3892 H   0  0  0  0  0  0  0  0  0  0  0  0
   -3.1534    2.9666    0.4300 H   0  0  0  0  0  0  0  0  0  0  0  0
   -2.0195    2.1245   -1.6552 H   0  0  0  0  0  0  0  0  0  0  0  0
   -1.8802    0.5183   -0.9267 H   0  0  0  0  0  0  0  0  0  0  0  0
   -0.6726    2.9510    0.3233 H   0  0  0  0  0  0  0  0  0  0  0  0
    1.4847    2.3090    1.2800 H   0  0  0  0  0  0  0  0  0  0  0  0
    1.3017    4.0830   -0.4045 H   0  0  0  0  0  0  0  0  0  0  0  0
    2.9569    3.8412    0.0974 H   0  0  0  0  0  0  0  0  0  0  0  0
    0.5626    3.5098   -2.7186 H   0  0  0  0  0  0  0  0  0  0  0  0
    1.2662    3.2394   -5.0629 H   0  0  0  0  0  0  0  0  0  0  0  0
    3.6429    2.8019   -5.6154 H   0  0  0  0  0  0  0  0  0  0  0  0
    5.3265    2.6357   -3.8021 H   0  0  0  0  0  0  0  0  0  0  0  0
    4.6459    2.9009   -1.4460 H   0  0  0  0  0  0  0  0  0  0  0  0
    2.9957    0.6131   -0.6547 H   0  0  0  0  0  0  0  0  0  0  0  0
    0.7233    0.1023    3.2158 H   0  0  0  0  0  0  0  0  0  0  0  0
   -1.2415   -1.3356    3.2183 H   0  0  0  0  0  0  0  0  0  0  0  0
    2.4251   -2.1876   -0.0191 H   0  0  0  0  0  0  0  0  0  0  0  0
   -1.9336   -5.7971   -1.6297 H   0  0  0  0  0  0  0  0  0  0  0  0
   -0.6740   -6.6759   -0.7304 H   0  0  0  0  0  0  0  0  0  0  0  0
   -0.2264   -5.6114   -2.0889 H   0  0  0  0  0  0  0  0  0  0  0  0
   -2.3700   -3.3690    3.5335 H   0  0  0  0  0  0  0  0  0  0  0  0
   -3.5668   -4.0264    2.4134 H   0  0  0  0  0  0  0  0  0  0  0  0
   -3.2248   -2.2931    2.3742 H   0  0  0  0  0  0  0  0  0  0  0  0
  1  2  1  0
  2  3  1  0
  3  4  1  0
  4  5  1  0
  5  6  1  0
  6  7  2  0
  6  8  1  0
  8  9  1  0
  9 10  1  0
 10 11  2  0
 11 12  1  0
 12 13  2  0
 13 14  1  0
 14 15  2  0
  8 16  1  0
 16 17  1  0
 17 18  2  0
 17 19  2  0
 17 20  1  0
 20 21  2  0
 21 22  1  0
 22 23  2  0
 23 24  1  0
 24 25  2  0
 24 26  1  0
 26 27  2  0
 26 28  1  0
 28 29  1  0
 28 30  1  0
 30 31  2  0
 30 32  1  0
 32 33  1  0
 15 10  1  0
 25 20  1  0
 32 23  1  0
  1 34  1  0
  1 35  1  0
  1 36  1  0
  2 37  1  0
  2 38  1  0
  3 39  1  0
  3 40  1  0
  4 41  1  0
  4 42  1  0
  5 43  1  0
  8 44  1  0
  9 45  1  0
  9 46  1  0
 11 47  1  0
 12 48  1  0
 13 49  1  0
 14 50  1  0
 15 51  1  0
 16 52  1  0
 21 53  1  0
 22 54  1  0
 25 55  1  0
 29 56  1  0
 29 57  1  0
 29 58  1  0
 33 59  1  0
 33 60  1  0
 33 61  1  0
M  END
$$$$
