
     RDKit          3D

 45 47  0  0  0  0  0  0  0  0999 V2000
    6.9054    0.0842   -1.2482 C   0  0  0  0  0  0  0  0  0  0  0  0
    6.3205    0.9786   -0.3025 O   0  0  0  0  0  0  0  0  0  0  0  0
    4.9636    0.8052   -0.1922 C   0  0  0  0  0  0  0  0  0  0  0  0
    4.1902    1.9337   -0.4646 C   0  0  0  0  0  0  0  0  0  0  0  0
    2.8004    1.8695   -0.3664 C   0  0  0  0  0  0  0  0  0  0  0  0
    2.1730    0.6845    0.0286 C   0  0  0  0  0  0  0  0  0  0  0  0
    0.7635    0.6901    0.0894 N   0  0  0  0  0  0  0  0  0  0  0  0
   -0.0530   -0.2518    0.6777 C   0  0  0  0  0  0  0  0  0  0  0  0
    0.3394   -1.1821    1.3769 O   0  0  0  0  0  0  0  0  0  0  0  0
   -1.4122   -0.0498    0.4364 N   0  0  0  0  0  0  0  0  0  0  0  0
   -1.9527    0.7831   -0.6429 C   0  0  0  0  0  0  0  0  0  0  0  0
   -3.2609    0.2251   -1.1827 C   0  0  0  0  0  0  0  0  0  0  0  0
   -4.3103    0.1214   -0.0737 C   0  0  0  0  0  0  0  0  0  0  0  0
   -3.7120   -0.1738    1.3045 C   0  0  0  0  0  0  0  0  0  0  0  0
   -2.3679   -0.8733    1.1765 C   0  0  0  0  0  0  0  0  0  0  0  0
   -5.0306    1.3681   -0.0053 O   0  0  0  0  0  0  0  0  0  0  0  0
   -6.4076    0.9937    0.0084 C   0  0  0  0  0  0  0  0  0  0  0  0
   -6.4271   -0.2627   -0.8132 C   0  0  0  0  0  0  0  0  0  0  0  0
   -5.2327   -0.9317   -0.4142 O   0  0  0  0  0  0  0  0  0  0  0  0
    2.9567   -0.4386    0.3169 C   0  0  0  0  0  0  0  0  0  0  0  0
    4.3555   -0.3860    0.2296 C   0  0  0  0  0  0  0  0  0  0  0  0
    5.1847   -1.4329    0.5368 O   0  0  0  0  0  0  0  0  0  0  0  0
    4.6112   -2.5324    1.2342 C   0  0  0  0  0  0  0  0  0  0  0  0
    7.8257    0.5469   -1.6161 H   0  0  0  0  0  0  0  0  0  0  0  0
    6.2537   -0.0944   -2.1106 H   0  0  0  0  0  0  0  0  0  0  0  0
    7.1830   -0.8612   -0.7728 H   0  0  0  0  0  0  0  0  0  0  0  0
    4.6745    2.8613   -0.7588 H   0  0  0  0  0  0  0  0  0  0  0  0
    2.2233    2.7624   -0.5877 H   0  0  0  0  0  0  0  0  0  0  0  0
    0.3164    1.5692   -0.1150 H   0  0  0  0  0  0  0  0  0  0  0  0
   -2.0971    1.7909   -0.2372 H   0  0  0  0  0  0  0  0  0  0  0  0
   -1.2261    0.8491   -1.4591 H   0  0  0  0  0  0  0  0  0  0  0  0
   -3.6239    0.8648   -1.9963 H   0  0  0  0  0  0  0  0  0  0  0  0
   -3.0768   -0.7650   -1.6179 H   0  0  0  0  0  0  0  0  0  0  0  0
   -3.5727    0.7628    1.8600 H   0  0  0  0  0  0  0  0  0  0  0  0
   -4.3937   -0.7953    1.8960 H   0  0  0  0  0  0  0  0  0  0  0  0
   -2.4675   -1.8295    0.6481 H   0  0  0  0  0  0  0  0  0  0  0  0
   -1.9694   -1.0895    2.1738 H   0  0  0  0  0  0  0  0  0  0  0  0
   -6.6994    0.8039    1.0461 H   0  0  0  0  0  0  0  0  0  0  0  0
   -7.0295    1.7915   -0.4040 H   0  0  0  0  0  0  0  0  0  0  0  0
   -6.3521   -0.0428   -1.8843 H   0  0  0  0  0  0  0  0  0  0  0  0
   -7.3030   -0.8898   -0.6317 H   0  0  0  0  0  0  0  0  0  0  0  0
    2.4702   -1.3633    0.6005 H   0  0  0  0  0  0  0  0  0  0  0  0
    4.1120   -2.2102    2.1531 H   0  0  0  0  0  0  0  0  0  0  0  0
    3.9304   -3.0924    0.5866 H   0  0  0  0  0  0  0  0  0  0  0  0
    5.4246   -3.2065    1.5176 H   0  0  0  0  0  0  0  0  0  0  0  0
  1  2  1  0
  2  3  1  0
  3  4  2  0
  4  5  1  0
  5  6  2  0
  6  7  1  0
  7  8  1  0
  8  9  2  0
  8 10  1  0
 10 11  1  0
 11 12  1  0
 12 13  1  0
 13 14  1  0
 14 15  1  0
 13 16  1  0
 16 17  1  0
 17 18  1  0
 18 19  1  0
  6 20  1  0
 20 21  2  0
 21 22  1  0
 22 23  1  0
 21  3  1  0
 15 10  1  0
 19 13  1  0
  1 24  1  0
  1 25  1  0
  1 26  1  0
  4 27  1  0
  5 28  1  0
  7 29  1  0
 11 30  1  0
 11 31  1  0
 12 32  1  0
 12 33  1  0
 14 34  1  0
 14 35  1  0
 15 36  1  0
 15 37  1  0
 17 38  1  0
 17 39  1  0
 18 40  1  0
 18 41  1  0
 20 42  1  0
 23 43  1  0
 23 44  1  0
 23 45  1  0
M  END
$$$$
