
     RDKit          3D

 45 47  0  0  0  0  0  0  0  0999 V2000
   -5.2710    0.5698    2.3380 C   0  0  0  0  0  0  0  0  0  0  0  0
   -5.3752    0.2024    0.8645 C   0  0  0  0  0  0  0  0  0  0  0  0
   -4.2545    0.7622    0.0986 N   0  0  0  0  0  0  0  0  0  0  0  0
   -4.4746    2.0969   -0.4736 C   0  0  0  0  0  0  0  0  0  0  0  0
   -5.0104    1.9991   -1.8949 C   0  0  0  0  0  0  0  0  0  0  0  0
   -3.0454    0.0893   -0.0455 C   0  0  0  0  0  0  0  0  0  0  0  0
   -2.0154    0.5610   -0.8773 C   0  0  0  0  0  0  0  0  0  0  0  0
   -0.7921   -0.1133   -1.0297 C   0  0  0  0  0  0  0  0  0  0  0  0
   -0.5410   -1.2920   -0.3354 C   0  0  0  0  0  0  0  0  0  0  0  0
    0.6974   -2.0588   -0.4964 C   0  0  0  0  0  0  0  0  0  0  0  0
    1.9545   -1.6088   -0.3866 C   0  0  0  0  0  0  0  0  0  0  0  0
    3.1102   -2.5322   -0.5640 C   0  0  0  0  0  0  0  0  0  0  0  0
    3.0956   -3.7164   -0.8262 O   0  0  0  0  0  0  0  0  0  0  0  0
    4.3057   -1.7096   -0.3524 C   0  0  0  0  0  0  0  0  0  0  0  0
    5.6304   -2.1027   -0.4088 C   0  0  0  0  0  0  0  0  0  0  0  0
    6.6045   -1.1267   -0.1673 C   0  0  0  0  0  0  0  0  0  0  0  0
    6.2422    0.2108    0.1235 C   0  0  0  0  0  0  0  0  0  0  0  0
    7.3319    1.1876    0.3682 C   0  0  0  0  0  0  0  0  0  0  0  0
    8.5230    0.9427    0.3437 O   0  0  0  0  0  0  0  0  0  0  0  0
    6.8704    2.4212    0.6303 O   0  0  0  0  0  0  0  0  0  0  0  0
    4.8912    0.5854    0.1754 C   0  0  0  0  0  0  0  0  0  0  0  0
    3.9445   -0.3959   -0.0668 C   0  0  0  0  0  0  0  0  0  0  0  0
    2.4828   -0.2531   -0.0700 C   0  0  0  0  0  0  0  0  0  0  0  0
    1.8884    0.7805    0.1443 O   0  0  0  0  0  0  0  0  0  0  0  0
   -1.5486   -1.7961    0.4841 C   0  0  0  0  0  0  0  0  0  0  0  0
   -2.7686   -1.1142    0.6247 C   0  0  0  0  0  0  0  0  0  0  0  0
   -5.2676    1.6564    2.4734 H   0  0  0  0  0  0  0  0  0  0  0  0
   -6.1241    0.1626    2.8896 H   0  0  0  0  0  0  0  0  0  0  0  0
   -4.3559    0.1771    2.7911 H   0  0  0  0  0  0  0  0  0  0  0  0
   -5.4553   -0.8827    0.7355 H   0  0  0  0  0  0  0  0  0  0  0  0
   -6.3214    0.5999    0.4753 H   0  0  0  0  0  0  0  0  0  0  0  0
   -3.5689    2.7127   -0.4366 H   0  0  0  0  0  0  0  0  0  0  0  0
   -5.2077    2.6429    0.1340 H   0  0  0  0  0  0  0  0  0  0  0  0
   -5.9569    1.4490   -1.9210 H   0  0  0  0  0  0  0  0  0  0  0  0
   -4.3098    1.4837   -2.5587 H   0  0  0  0  0  0  0  0  0  0  0  0
   -5.1888    2.9997   -2.3009 H   0  0  0  0  0  0  0  0  0  0  0  0
   -2.1333    1.4748   -1.4510 H   0  0  0  0  0  0  0  0  0  0  0  0
   -0.0471    0.3098   -1.6988 H   0  0  0  0  0  0  0  0  0  0  0  0
    0.5376   -3.1167   -0.7070 H   0  0  0  0  0  0  0  0  0  0  0  0
    5.9030   -3.1303   -0.6320 H   0  0  0  0  0  0  0  0  0  0  0  0
    7.6579   -1.4058   -0.2045 H   0  0  0  0  0  0  0  0  0  0  0  0
    7.6787    2.9586    0.7712 H   0  0  0  0  0  0  0  0  0  0  0  0
    4.5828    1.6034    0.3967 H   0  0  0  0  0  0  0  0  0  0  0  0
   -1.4032   -2.7233    1.0336 H   0  0  0  0  0  0  0  0  0  0  0  0
   -3.4960   -1.5612    1.2946 H   0  0  0  0  0  0  0  0  0  0  0  0
  1  2  1  0
  2  3  1  0
  3  4  1  0
  4  5  1  0
  3  6  1  0
  6  7  2  0
  7  8  1  0
  8  9  2  0
  9 10  1  0
 10 11  2  3
 11 12  1  0
 12 13  2  0
 12 14  1  0
 14 15  2  0
 15 16  1  0
 16 17  2  0
 17 18  1  0
 18 19  2  0
 18 20  1  0
 17 21  1  0
 21 22  2  0
 22 23  1  0
 23 24  2  0
  9 25  1  0
 25 26  2  0
 26  6  1  0
 23 11  1  0
 22 14  1  0
  1 27  1  0
  1 28  1  0
  1 29  1  0
  2 30  1  0
  2 31  1  0
  4 32  1  0
  4 33  1  0
  5 34  1  0
  5 35  1  0
  5 36  1  0
  7 37  1  0
  8 38  1  0
 10 39  1  0
 15 40  1  0
 16 41  1  0
 20 42  1  0
 21 43  1  0
 25 44  1  0
 26 45  1  0
M  END
$$$$
