
     RDKit          3D

 57 61  0  0  0  0  0  0  0  0999 V2000
    5.8037   -0.4628    3.7981 C   0  0  0  0  0  0  0  0  0  0  0  0
    5.4614   -0.3093    2.3458 C   0  0  0  0  0  0  0  0  0  0  0  0
    4.3358    0.4242    1.9555 C   0  0  0  0  0  0  0  0  0  0  0  0
    3.9993    0.5409    0.6049 C   0  0  0  0  0  0  0  0  0  0  0  0
    4.7809   -0.0788   -0.3798 C   0  0  0  0  0  0  0  0  0  0  0  0
    4.4134    0.0394   -1.8375 C   0  0  0  0  0  0  0  0  0  0  0  0
    3.7205   -1.1412   -2.3091 N   0  0  0  0  0  0  0  0  0  0  0  0
    4.3737   -2.0985   -3.0152 N   0  0  0  0  0  0  0  0  0  0  0  0
    3.4882   -3.0424   -3.3357 N   0  0  0  0  0  0  0  0  0  0  0  0
    2.2841   -2.6522   -2.8373 C   0  0  0  0  0  0  0  0  0  0  0  0
    0.9940   -3.2828   -2.8880 C   0  0  0  0  0  0  0  0  0  0  0  0
    0.7344   -4.3543   -3.4239 O   0  0  0  0  0  0  0  0  0  0  0  0
    0.0197   -2.5311   -2.2417 N   0  0  0  0  0  0  0  0  0  0  0  0
    0.2580   -1.3104   -1.6120 C   0  0  0  0  0  0  0  0  0  0  0  0
   -0.9728   -0.6729   -0.9817 C   0  0  0  0  0  0  0  0  0  0  0  0
   -0.6080    0.4354    0.0142 C   0  0  0  0  0  0  0  0  0  0  0  0
   -1.8577    1.0995    0.5821 C   0  0  0  0  0  0  0  0  0  0  0  0
   -2.6755    1.6244   -0.5353 N   0  0  0  0  0  0  0  0  0  0  0  0
   -3.8145    2.8337   -0.1484 S   0  0  0  0  0  6  0  0  0  0  0  0
   -4.4633    3.2516   -1.3728 O   0  0  0  0  0  0  0  0  0  0  0  0
   -3.1776    3.7935    0.7277 O   0  0  0  0  0  0  0  0  0  0  0  0
   -5.0254    1.9515    0.8198 C   0  0  0  0  0  0  0  0  0  0  0  0
   -4.8874    1.8918    2.2124 C   0  0  0  0  0  0  0  0  0  0  0  0
   -5.8493    1.2206    2.9682 C   0  0  0  0  0  0  0  0  0  0  0  0
   -6.9393    0.6347    2.3306 C   0  0  0  0  0  0  0  0  0  0  0  0
   -7.8596   -0.0092    3.0596 F   0  0  0  0  0  0  0  0  0  0  0  0
   -7.0934    0.7126    0.9491 C   0  0  0  0  0  0  0  0  0  0  0  0
   -6.1364    1.3815    0.1853 C   0  0  0  0  0  0  0  0  0  0  0  0
   -3.1158    0.5740   -1.4794 C   0  0  0  0  0  0  0  0  0  0  0  0
   -1.8915   -0.1152   -2.0774 C   0  0  0  0  0  0  0  0  0  0  0  0
    1.4234   -0.7262   -1.5755 N   0  0  0  0  0  0  0  0  0  0  0  0
    2.3941   -1.4442   -2.1923 C   0  0  0  0  0  0  0  0  0  0  0  0
    5.8951   -0.8317    0.0153 C   0  0  0  0  0  0  0  0  0  0  0  0
    6.2294   -0.9483    1.3663 C   0  0  0  0  0  0  0  0  0  0  0  0
    5.4924    0.4188    4.3682 H   0  0  0  0  0  0  0  0  0  0  0  0
    6.8847   -0.5725    3.9350 H   0  0  0  0  0  0  0  0  0  0  0  0
    5.3032   -1.3449    4.2093 H   0  0  0  0  0  0  0  0  0  0  0  0
    3.7121    0.9101    2.7024 H   0  0  0  0  0  0  0  0  0  0  0  0
    3.1161    1.1134    0.3276 H   0  0  0  0  0  0  0  0  0  0  0  0
    5.3110    0.1824   -2.4508 H   0  0  0  0  0  0  0  0  0  0  0  0
    3.7632    0.9035   -2.0166 H   0  0  0  0  0  0  0  0  0  0  0  0
   -0.8993   -2.9476   -2.2460 H   0  0  0  0  0  0  0  0  0  0  0  0
   -1.5122   -1.4646   -0.4435 H   0  0  0  0  0  0  0  0  0  0  0  0
    0.0091    1.1990   -0.4777 H   0  0  0  0  0  0  0  0  0  0  0  0
   -0.0060    0.0222    0.8325 H   0  0  0  0  0  0  0  0  0  0  0  0
   -1.5447    1.9096    1.2481 H   0  0  0  0  0  0  0  0  0  0  0  0
   -2.4373    0.3770    1.1674 H   0  0  0  0  0  0  0  0  0  0  0  0
   -4.0458    2.3688    2.7106 H   0  0  0  0  0  0  0  0  0  0  0  0
   -5.7640    1.1591    4.0492 H   0  0  0  0  0  0  0  0  0  0  0  0
   -7.9631    0.2615    0.4807 H   0  0  0  0  0  0  0  0  0  0  0  0
   -6.2660    1.4624   -0.8919 H   0  0  0  0  0  0  0  0  0  0  0  0
   -3.7435   -0.1594   -0.9609 H   0  0  0  0  0  0  0  0  0  0  0  0
   -3.6990    1.0076   -2.2978 H   0  0  0  0  0  0  0  0  0  0  0  0
   -2.2205   -0.9170   -2.7490 H   0  0  0  0  0  0  0  0  0  0  0  0
   -1.3333    0.5998   -2.6966 H   0  0  0  0  0  0  0  0  0  0  0  0
    6.5066   -1.3421   -0.7275 H   0  0  0  0  0  0  0  0  0  0  0  0
    7.0943   -1.5448    1.6489 H   0  0  0  0  0  0  0  0  0  0  0  0
  1  2  1  0
  2  3  2  0
  3  4  1  0
  4  5  2  0
  5  6  1  0
  6  7  1  0
  7  8  1  0
  8  9  2  0
  9 10  1  0
 10 11  1  0
 11 12  2  0
 11 13  1  0
 13 14  1  0
 14 15  1  0
 15 16  1  0
 16 17  1  0
 17 18  1  0
 18 19  1  0
 19 20  2  0
 19 21  2  0
 19 22  1  0
 22 23  2  0
 23 24  1  0
 24 25  2  0
 25 26  1  0
 25 27  1  0
 27 28  2  0
 18 29  1  0
 29 30  1  0
 14 31  2  0
 31 32  1  0
  5 33  1  0
 33 34  2  0
 34  2  1  0
 32  7  1  0
 32 10  2  0
 30 15  1  0
 28 22  1  0
  1 35  1  0
  1 36  1  0
  1 37  1  0
  3 38  1  0
  4 39  1  0
  6 40  1  0
  6 41  1  0
 13 42  1  0
 15 43  1  0
 16 44  1  0
 16 45  1  0
 17 46  1  0
 17 47  1  0
 23 48  1  0
 24 49  1  0
 27 50  1  0
 28 51  1  0
 29 52  1  0
 29 53  1  0
 30 54  1  0
 30 55  1  0
 33 56  1  0
 34 57  1  0
M  END
$$$$
