
     RDKit          3D

 45 48  0  0  0  0  0  0  0  0999 V2000
    0.0941   -3.4725   -6.4854 O   0  0  0  0  0  0  0  0  0  0  0  0
    0.5034   -2.7460   -5.5983 C   0  0  0  0  0  0  0  0  0  0  0  0
    1.7997   -2.4153   -5.4999 O   0  0  0  0  0  0  0  0  0  0  0  0
   -0.3435   -2.1630   -4.5505 C   0  0  0  0  0  0  0  0  0  0  0  0
    0.1123   -1.3256   -3.6047 C   0  0  0  0  0  0  0  0  0  0  0  0
   -0.6819   -0.7347   -2.5780 C   0  0  0  0  0  0  0  0  0  0  0  0
   -2.0116   -0.3956   -2.7060 C   0  0  0  0  0  0  0  0  0  0  0  0
   -2.3969    0.1993   -1.5248 N   0  0  0  0  0  0  0  0  0  0  0  0
   -3.6771    0.7210   -1.1823 C   0  0  0  0  0  0  0  0  0  0  0  0
   -3.8688    1.2981    0.0833 C   0  0  0  0  0  0  0  0  0  0  0  0
   -5.1154    1.8157    0.4415 C   0  0  0  0  0  0  0  0  0  0  0  0
   -6.1778    1.7615   -0.4576 C   0  0  0  0  0  0  0  0  0  0  0  0
   -5.9965    1.1900   -1.7159 C   0  0  0  0  0  0  0  0  0  0  0  0
   -4.7512    0.6695   -2.0821 C   0  0  0  0  0  0  0  0  0  0  0  0
   -1.3693    0.2545   -0.6467 N   0  0  0  0  0  0  0  0  0  0  0  0
   -0.3341   -0.3250   -1.2669 C   0  0  0  0  0  0  0  0  0  0  0  0
    1.0303   -0.4779   -0.4966 C   0  0  0  0  0  0  0  0  0  0  0  0
    2.1861   -1.1099   -0.9099 C   0  0  0  0  0  0  0  0  0  0  0  0
    3.1294   -0.9790    0.1428 C   0  0  0  0  0  0  0  0  0  0  0  0
    2.5024   -0.2794    1.1525 C   0  0  0  0  0  0  0  0  0  0  0  0
    2.8950    0.1819    2.4826 C   0  0  0  0  0  0  0  0  0  0  0  0
    4.1862   -0.0700    2.9746 C   0  0  0  0  0  0  0  0  0  0  0  0
    4.5719    0.3678    4.2475 C   0  0  0  0  0  0  0  0  0  0  0  0
    3.6583    1.0675    5.0439 C   0  0  0  0  0  0  0  0  0  0  0  0
    4.0582    1.5286    6.3791 N   0  0  0  0  0  4  0  0  0  0  0  0
    5.2120    1.2747    6.7544 O   0  0  0  0  0  0  0  0  0  0  0  0
    3.2200    2.1443    7.0529 O   0  0  0  0  0  1  0  0  0  0  0  0
    2.3674    1.3299    4.5751 C   0  0  0  0  0  0  0  0  0  0  0  0
    1.9950    0.8866    3.3009 C   0  0  0  0  0  0  0  0  0  0  0  0
    1.2294    0.0182    0.7646 O   0  0  0  0  0  0  0  0  0  0  0  0
    2.2146   -2.8753   -6.2599 H   0  0  0  0  0  0  0  0  0  0  0  0
   -1.3821   -2.4703   -4.5963 H   0  0  0  0  0  0  0  0  0  0  0  0
    1.1647   -1.0543   -3.6181 H   0  0  0  0  0  0  0  0  0  0  0  0
   -2.6931   -0.5062   -3.5347 H   0  0  0  0  0  0  0  0  0  0  0  0
   -3.0537    1.3521    0.8035 H   0  0  0  0  0  0  0  0  0  0  0  0
   -5.2541    2.2608    1.4236 H   0  0  0  0  0  0  0  0  0  0  0  0
   -7.1476    2.1648   -0.1772 H   0  0  0  0  0  0  0  0  0  0  0  0
   -6.8284    1.1493   -2.4151 H   0  0  0  0  0  0  0  0  0  0  0  0
   -4.6590    0.2344   -3.0717 H   0  0  0  0  0  0  0  0  0  0  0  0
    2.3508   -1.6243   -1.8434 H   0  0  0  0  0  0  0  0  0  0  0  0
    4.1406   -1.3596    0.1565 H   0  0  0  0  0  0  0  0  0  0  0  0
    4.9123   -0.6120    2.3725 H   0  0  0  0  0  0  0  0  0  0  0  0
    5.5803    0.1552    4.5971 H   0  0  0  0  0  0  0  0  0  0  0  0
    1.6420    1.8720    5.1782 H   0  0  0  0  0  0  0  0  0  0  0  0
    0.9853    1.0982    2.9489 H   0  0  0  0  0  0  0  0  0  0  0  0
  1  2  2  0
  2  3  1  0
  2  4  1  0
  4  5  2  3
  5  6  1  0
  6  7  2  0
  7  8  1  0
  8  9  1  0
  9 10  2  0
 10 11  1  0
 11 12  2  0
 12 13  1  0
 13 14  2  0
  8 15  1  0
 15 16  2  0
 16 17  1  0
 17 18  2  0
 18 19  1  0
 19 20  2  0
 20 21  1  0
 21 22  2  0
 22 23  1  0
 23 24  2  0
 24 25  1  0
 25 26  2  0
 25 27  1  0
 24 28  1  0
 28 29  2  0
 20 30  1  0
 16  6  1  0
 30 17  1  0
 14  9  1  0
 29 21  1  0
  3 31  1  0
  4 32  1  0
  5 33  1  0
  7 34  1  0
 10 35  1  0
 11 36  1  0
 12 37  1  0
 13 38  1  0
 14 39  1  0
 18 40  1  0
 19 41  1  0
 22 42  1  0
 23 43  1  0
 28 44  1  0
 29 45  1  0
M  CHG  2  25   1  27  -1
M  END
$$$$
