
     RDKit          3D

 40 42  0  0  0  0  0  0  0  0999 V2000
    0.6279   -4.3140    0.7225 C   0  0  0  0  0  0  0  0  0  0  0  0
    0.0122   -3.0527    0.4597 O   0  0  0  0  0  0  0  0  0  0  0  0
    0.8911   -2.0287    0.2672 C   0  0  0  0  0  0  0  0  0  0  0  0
    2.1109   -2.1602    0.3127 O   0  0  0  0  0  0  0  0  0  0  0  0
    0.2394   -0.7380    0.0159 C   0  0  0  0  0  0  0  0  0  0  0  0
    0.9708    0.4427   -0.0856 C   0  0  0  0  0  0  0  0  0  0  0  0
    2.3492    0.5629    0.0041 N   0  0  0  0  0  0  0  0  0  0  0  0
    3.1215    1.7074   -0.0874 C   0  0  0  0  0  0  0  0  0  0  0  0
    2.7131    2.8497   -0.2665 O   0  0  0  0  0  0  0  0  0  0  0  0
    4.5407    1.4250    0.0546 C   0  0  0  0  0  0  0  0  0  0  0  0
    5.6418    2.2607    0.0272 C   0  0  0  0  0  0  0  0  0  0  0  0
    6.7810    1.4428    0.2182 C   0  0  0  0  0  0  0  0  0  0  0  0
    6.3111    0.1580    0.3508 C   0  0  0  0  0  0  0  0  0  0  0  0
    4.9571    0.1329    0.2540 O   0  0  0  0  0  0  0  0  0  0  0  0
   -0.0128    1.8035   -0.3305 S   0  0  0  0  0  0  0  0  0  0  0  0
   -1.4309    0.8766   -0.3172 C   0  0  0  0  0  0  0  0  0  0  0  0
   -1.1751   -0.4723   -0.1565 C   0  0  0  0  0  0  0  0  0  0  0  0
   -2.3177   -1.4473   -0.1441 C   0  0  0  0  0  0  0  0  0  0  0  0
   -3.5755   -0.8361   -0.7816 C   0  0  0  0  0  0  0  0  0  0  0  0
   -3.8441    0.5265   -0.3010 N   0  0  0  0  0  0  0  0  0  0  0  0
   -5.1681    0.8935   -0.0925 C   0  0  0  0  0  0  0  0  0  0  0  0
   -5.4374    2.3371    0.2536 C   0  0  0  0  0  0  0  0  0  0  0  0
   -6.1013    0.0938   -0.1656 O   0  0  0  0  0  0  0  0  0  0  0  0
   -2.7740    1.5176   -0.4855 C   0  0  0  0  0  0  0  0  0  0  0  0
    1.2193   -4.2679    1.6423 H   0  0  0  0  0  0  0  0  0  0  0  0
   -0.1644   -5.0554    0.8577 H   0  0  0  0  0  0  0  0  0  0  0  0
    1.2489   -4.6218   -0.1245 H   0  0  0  0  0  0  0  0  0  0  0  0
    2.8656   -0.3063    0.1506 H   0  0  0  0  0  0  0  0  0  0  0  0
    5.6098    3.3328   -0.1149 H   0  0  0  0  0  0  0  0  0  0  0  0
    7.8165    1.7513    0.2546 H   0  0  0  0  0  0  0  0  0  0  0  0
    6.7860   -0.8004    0.5108 H   0  0  0  0  0  0  0  0  0  0  0  0
   -2.5304   -1.7196    0.8968 H   0  0  0  0  0  0  0  0  0  0  0  0
   -2.0634   -2.3598   -0.6925 H   0  0  0  0  0  0  0  0  0  0  0  0
   -4.4274   -1.4973   -0.5913 H   0  0  0  0  0  0  0  0  0  0  0  0
   -3.4577   -0.7692   -1.8710 H   0  0  0  0  0  0  0  0  0  0  0  0
   -4.9500    2.5950    1.1973 H   0  0  0  0  0  0  0  0  0  0  0  0
   -6.5151    2.4844    0.3751 H   0  0  0  0  0  0  0  0  0  0  0  0
   -5.0951    2.9935   -0.5505 H   0  0  0  0  0  0  0  0  0  0  0  0
   -2.8948    2.3320    0.2349 H   0  0  0  0  0  0  0  0  0  0  0  0
   -2.8786    1.9273   -1.4970 H   0  0  0  0  0  0  0  0  0  0  0  0
  1  2  1  0
  2  3  1  0
  3  4  2  0
  3  5  1  0
  5  6  2  0
  6  7  1  0
  7  8  1  0
  8  9  2  0
  8 10  1  0
 10 11  2  0
 11 12  1  0
 12 13  2  0
 13 14  1  0
  6 15  1  0
 15 16  1  0
 16 17  2  0
 17 18  1  0
 18 19  1  0
 19 20  1  0
 20 21  1  0
 21 22  1  0
 21 23  2  0
 20 24  1  0
 17  5  1  0
 14 10  1  0
 24 16  1  0
  1 25  1  0
  1 26  1  0
  1 27  1  0
  7 28  1  0
 11 29  1  0
 12 30  1  0
 13 31  1  0
 18 32  1  0
 18 33  1  0
 19 34  1  0
 19 35  1  0
 22 36  1  0
 22 37  1  0
 22 38  1  0
 24 39  1  0
 24 40  1  0
M  END
$$$$
