
     RDKit          3D

 46 50  0  0  0  0  0  0  0  0999 V2000
    6.0137    3.2563   -0.0098 C   0  0  0  0  0  0  0  0  0  0  0  0
    5.4770    2.3053   -0.9203 O   0  0  0  0  0  0  0  0  0  0  0  0
    4.2497    1.7836   -0.6193 C   0  0  0  0  0  0  0  0  0  0  0  0
    3.7773    0.8380   -1.5317 C   0  0  0  0  0  0  0  0  0  0  0  0
    2.5361    0.2235   -1.3450 C   0  0  0  0  0  0  0  0  0  0  0  0
    1.7472    0.5480   -0.2378 C   0  0  0  0  0  0  0  0  0  0  0  0
    0.4482   -0.0833   -0.0430 C   0  0  0  0  0  0  0  0  0  0  0  0
   -0.7056    0.6541    0.1091 N   0  0  0  0  0  0  0  0  0  0  0  0
   -1.7846   -0.1926    0.1919 C   0  0  0  0  0  0  0  0  0  0  0  0
   -3.1795    0.2385    0.3469 C   0  0  0  0  0  0  0  0  0  0  0  0
   -4.1842   -0.7486    0.5012 C   0  0  0  0  0  0  0  0  0  0  0  0
   -5.5329   -0.4069    0.6546 C   0  0  0  0  0  0  0  0  0  0  0  0
   -5.8541    0.9302    0.6497 C   0  0  0  0  0  0  0  0  0  0  0  0
   -4.8924    1.9000    0.4999 C   0  0  0  0  0  0  0  0  0  0  0  0
   -3.5544    1.5918    0.3468 C   0  0  0  0  0  0  0  0  0  0  0  0
   -5.4153    3.1562    0.5214 O   0  0  0  0  0  0  0  0  0  0  0  0
   -6.8177    2.8629    0.6995 C   0  0  0  0  0  0  0  0  0  0  0  0
   -7.1018    1.4515    0.7843 O   0  0  0  0  0  0  0  0  0  0  0  0
   -1.3676   -1.4415    0.1089 N   0  0  0  0  0  0  0  0  0  0  0  0
    0.0046   -1.3961   -0.0225 C   0  0  0  0  0  0  0  0  0  0  0  0
    0.8004   -2.6082   -0.1403 C   0  0  0  0  0  0  0  0  0  0  0  0
    0.2739   -3.7056   -0.8361 C   0  0  0  0  0  0  0  0  0  0  0  0
    1.0086   -4.8864   -0.9676 C   0  0  0  0  0  0  0  0  0  0  0  0
    2.2755   -4.9850   -0.3963 C   0  0  0  0  0  0  0  0  0  0  0  0
    2.8040   -3.9075    0.3120 C   0  0  0  0  0  0  0  0  0  0  0  0
    2.0681   -2.7264    0.4443 C   0  0  0  0  0  0  0  0  0  0  0  0
    2.2214    1.4979    0.6750 C   0  0  0  0  0  0  0  0  0  0  0  0
    3.4663    2.1118    0.4867 C   0  0  0  0  0  0  0  0  0  0  0  0
    6.9932    3.5651   -0.3875 H   0  0  0  0  0  0  0  0  0  0  0  0
    6.1630    2.8142    0.9809 H   0  0  0  0  0  0  0  0  0  0  0  0
    5.3820    4.1490    0.0462 H   0  0  0  0  0  0  0  0  0  0  0  0
    4.3814    0.5743   -2.3967 H   0  0  0  0  0  0  0  0  0  0  0  0
    2.1933   -0.5091   -2.0729 H   0  0  0  0  0  0  0  0  0  0  0  0
   -0.7477    1.6611    0.1163 H   0  0  0  0  0  0  0  0  0  0  0  0
   -3.9039   -1.8023    0.5020 H   0  0  0  0  0  0  0  0  0  0  0  0
   -6.2946   -1.1689    0.7724 H   0  0  0  0  0  0  0  0  0  0  0  0
   -2.8422    2.3983    0.2278 H   0  0  0  0  0  0  0  0  0  0  0  0
   -7.1621    3.3462    1.6210 H   0  0  0  0  0  0  0  0  0  0  0  0
   -7.3735    3.2827   -0.1469 H   0  0  0  0  0  0  0  0  0  0  0  0
   -0.7178   -3.6404   -1.2798 H   0  0  0  0  0  0  0  0  0  0  0  0
    0.5880   -5.7273   -1.5123 H   0  0  0  0  0  0  0  0  0  0  0  0
    2.8472   -5.9038   -0.4963 H   0  0  0  0  0  0  0  0  0  0  0  0
    3.7875   -3.9857    0.7678 H   0  0  0  0  0  0  0  0  0  0  0  0
    2.4934   -1.9079    1.0189 H   0  0  0  0  0  0  0  0  0  0  0  0
    1.6366    1.7567    1.5549 H   0  0  0  0  0  0  0  0  0  0  0  0
    3.7942    2.8361    1.2247 H   0  0  0  0  0  0  0  0  0  0  0  0
  1  2  1  0
  2  3  1  0
  3  4  2  0
  4  5  1  0
  5  6  2  0
  6  7  1  0
  7  8  1  0
  8  9  1  0
  9 10  1  0
 10 11  2  0
 11 12  1  0
 12 13  2  0
 13 14  1  0
 14 15  2  0
 14 16  1  0
 16 17  1  0
 17 18  1  0
  9 19  2  0
 19 20  1  0
 20 21  1  0
 21 22  2  0
 22 23  1  0
 23 24  2  0
 24 25  1  0
 25 26  2  0
  6 27  1  0
 27 28  2  0
 28  3  1  0
 20  7  2  0
 26 21  1  0
 15 10  1  0
 18 13  1  0
  1 29  1  0
  1 30  1  0
  1 31  1  0
  4 32  1  0
  5 33  1  0
  8 34  1  0
 11 35  1  0
 12 36  1  0
 15 37  1  0
 17 38  1  0
 17 39  1  0
 22 40  1  0
 23 41  1  0
 24 42  1  0
 25 43  1  0
 26 44  1  0
 27 45  1  0
 28 46  1  0
M  END
$$$$
