
     RDKit          3D

 38 39  0  0  0  0  0  0  0  0999 V2000
   -3.2793    1.5120    2.5354 O   0  0  0  0  0  0  0  0  0  0  0  0
   -2.8371    0.4403    2.1290 C   0  0  0  0  0  0  0  0  0  0  0  0
   -1.6454   -0.2275    2.8225 C   0  0  0  0  0  0  0  0  0  0  0  0
   -0.4156   -0.0815    2.1125 O   0  0  0  0  0  0  0  0  0  0  0  0
   -0.2289   -0.9615    1.1033 C   0  0  0  0  0  0  0  0  0  0  0  0
   -1.0271   -1.8220    0.7607 O   0  0  0  0  0  0  0  0  0  0  0  0
    1.0671   -0.7720    0.4235 C   0  0  0  0  0  0  0  0  0  0  0  0
    1.9594    0.1758    0.7508 C   0  0  0  0  0  0  0  0  0  0  0  0
    3.2398    0.3642    0.0550 C   0  0  0  0  0  0  0  0  0  0  0  0
    3.7172    1.6659   -0.1384 C   0  0  0  0  0  0  0  0  0  0  0  0
    4.9430    1.8892   -0.7680 C   0  0  0  0  0  0  0  0  0  0  0  0
    5.7113    0.8107   -1.2036 C   0  0  0  0  0  0  0  0  0  0  0  0
    5.2596   -0.5030   -1.0149 C   0  0  0  0  0  0  0  0  0  0  0  0
    6.0988   -1.6777   -1.4533 C   0  0  0  0  0  0  0  0  0  0  0  0
    5.3510   -2.7232   -1.9056 F   0  0  0  0  0  0  0  0  0  0  0  0
    6.9632   -1.3764   -2.4622 F   0  0  0  0  0  0  0  0  0  0  0  0
    6.8621   -2.1742   -0.4412 F   0  0  0  0  0  0  0  0  0  0  0  0
    4.0264   -0.7146   -0.3723 C   0  0  0  0  0  0  0  0  0  0  0  0
   -3.3222   -0.2823    1.0641 N   0  0  0  0  0  0  0  0  0  0  0  0
   -4.3978    0.0169    0.2296 C   0  0  0  0  0  0  0  0  0  0  0  0
   -5.2201    1.1273    0.3802 C   0  0  0  0  0  0  0  0  0  0  0  0
   -6.2721    1.3209   -0.5191 C   0  0  0  0  0  0  0  0  0  0  0  0
   -6.4715    0.4017   -1.5383 C   0  0  0  0  0  0  0  0  0  0  0  0
   -7.7497    0.5998   -2.6640 Cl  0  0  0  0  0  0  0  0  0  0  0  0
   -5.6090   -0.6772   -1.6175 C   0  0  0  0  0  0  0  0  0  0  0  0
   -4.5814   -0.8874   -0.7572 N   0  0  0  0  0  0  0  0  0  0  0  0
   -1.5149    0.2524    3.7990 H   0  0  0  0  0  0  0  0  0  0  0  0
   -1.8701   -1.2817    3.0283 H   0  0  0  0  0  0  0  0  0  0  0  0
    1.2372   -1.4658   -0.3930 H   0  0  0  0  0  0  0  0  0  0  0  0
    1.7557    0.8827    1.5526 H   0  0  0  0  0  0  0  0  0  0  0  0
    3.1340    2.5229    0.1934 H   0  0  0  0  0  0  0  0  0  0  0  0
    5.2988    2.9061   -0.9166 H   0  0  0  0  0  0  0  0  0  0  0  0
    6.6677    0.9988   -1.6899 H   0  0  0  0  0  0  0  0  0  0  0  0
    3.6922   -1.7375   -0.2010 H   0  0  0  0  0  0  0  0  0  0  0  0
   -2.8297   -1.1289    0.7804 H   0  0  0  0  0  0  0  0  0  0  0  0
   -5.0747    1.8509    1.1737 H   0  0  0  0  0  0  0  0  0  0  0  0
   -6.9218    2.1848   -0.4126 H   0  0  0  0  0  0  0  0  0  0  0  0
   -5.7159   -1.4290   -2.3940 H   0  0  0  0  0  0  0  0  0  0  0  0
  1  2  2  0
  2  3  1  0
  3  4  1  0
  4  5  1  0
  5  6  2  0
  5  7  1  0
  7  8  2  3
  8  9  1  0
  9 10  2  0
 10 11  1  0
 11 12  2  0
 12 13  1  0
 13 14  1  0
 14 15  1  0
 14 16  1  0
 14 17  1  0
 13 18  2  0
  2 19  1  0
 19 20  1  0
 20 21  2  0
 21 22  1  0
 22 23  2  0
 23 24  1  0
 23 25  1  0
 25 26  2  0
 18  9  1  0
 26 20  1  0
  3 27  1  0
  3 28  1  0
  7 29  1  0
  8 30  1  0
 10 31  1  0
 11 32  1  0
 12 33  1  0
 18 34  1  0
 19 35  1  0
 21 36  1  0
 22 37  1  0
 25 38  1  0
M  END
$$$$
