
     RDKit          3D

 56 59  0  0  0  0  0  0  0  0999 V2000
    3.5376   -5.1920    1.0567 C   0  0  0  0  0  0  0  0  0  0  0  0
    3.4500   -3.8247    1.4426 O   0  0  0  0  0  0  0  0  0  0  0  0
    3.0557   -2.9376    0.4811 C   0  0  0  0  0  0  0  0  0  0  0  0
    2.6435   -3.2543   -0.8119 C   0  0  0  0  0  0  0  0  0  0  0  0
    2.2604   -2.2367   -1.6951 C   0  0  0  0  0  0  0  0  0  0  0  0
    2.2741   -0.8951   -1.2979 C   0  0  0  0  0  0  0  0  0  0  0  0
    1.8924    0.0689   -2.2724 N   0  0  0  0  0  0  0  0  0  0  0  0
    1.5783    1.6911   -1.9635 S   0  0  0  0  0  6  0  0  0  0  0  0
    2.7618    2.2246   -1.3241 O   0  0  0  0  0  0  0  0  0  0  0  0
    1.0911    2.2278   -3.2172 O   0  0  0  0  0  0  0  0  0  0  0  0
    0.1967    1.6843   -0.8351 C   0  0  0  0  0  0  0  0  0  0  0  0
   -0.6977    0.5964   -0.8872 C   0  0  0  0  0  0  0  0  0  0  0  0
   -1.7614    0.5064    0.0056 C   0  0  0  0  0  0  0  0  0  0  0  0
   -2.6780   -0.5649    0.0417 N   0  0  0  0  0  0  0  0  0  0  0  0
   -2.6919   -1.6918   -0.7566 C   0  0  0  0  0  0  0  0  0  0  0  0
   -1.8942   -1.9556   -1.6504 O   0  0  0  0  0  0  0  0  0  0  0  0
   -3.7394   -2.7035   -0.4625 C   0  0  0  0  0  0  0  0  0  0  0  0
   -3.4135   -4.0523   -0.6665 C   0  0  0  0  0  0  0  0  0  0  0  0
   -4.3512   -5.0478   -0.4013 C   0  0  0  0  0  0  0  0  0  0  0  0
   -5.5968   -4.6655    0.0611 C   0  0  0  0  0  0  0  0  0  0  0  0
   -5.9545   -3.3800    0.2594 N   0  0  0  0  0  0  0  0  0  0  0  0
   -5.0260   -2.4301   -0.0180 C   0  0  0  0  0  0  0  0  0  0  0  0
   -5.6540   -0.8441    0.2310 Cl  0  0  0  0  0  0  0  0  0  0  0  0
   -1.9423    1.5306    0.9361 C   0  0  0  0  0  0  0  0  0  0  0  0
   -1.0746    2.6275    0.9651 C   0  0  0  0  0  0  0  0  0  0  0  0
    0.0099    2.7318    0.0793 C   0  0  0  0  0  0  0  0  0  0  0  0
    0.8176    3.8604    0.0789 N   0  0  0  0  0  0  0  0  0  0  0  0
    0.2210    5.0959   -0.4526 C   0  0  0  0  0  0  0  0  0  0  0  0
    0.6067    6.1777    0.5546 C   0  0  0  0  0  0  0  0  0  0  0  0
    1.8899    5.6414    1.1669 C   0  0  0  0  0  0  0  0  0  0  0  0
    1.5838    4.1537    1.2960 C   0  0  0  0  0  0  0  0  0  0  0  0
    2.7045   -0.5827   -0.0099 C   0  0  0  0  0  0  0  0  0  0  0  0
    3.0802   -1.5991    0.8751 C   0  0  0  0  0  0  0  0  0  0  0  0
    4.2395   -5.3281    0.2260 H   0  0  0  0  0  0  0  0  0  0  0  0
    2.5493   -5.5932    0.8091 H   0  0  0  0  0  0  0  0  0  0  0  0
    3.9221   -5.7582    1.9115 H   0  0  0  0  0  0  0  0  0  0  0  0
    2.6058   -4.2787   -1.1691 H   0  0  0  0  0  0  0  0  0  0  0  0
    1.9432   -2.5122   -2.6987 H   0  0  0  0  0  0  0  0  0  0  0  0
    1.5491   -0.2429   -3.1822 H   0  0  0  0  0  0  0  0  0  0  0  0
   -0.5466   -0.1694   -1.6373 H   0  0  0  0  0  0  0  0  0  0  0  0
   -3.3997   -0.4873    0.7471 H   0  0  0  0  0  0  0  0  0  0  0  0
   -2.4257   -4.3286   -1.0302 H   0  0  0  0  0  0  0  0  0  0  0  0
   -4.1138   -6.0959   -0.5528 H   0  0  0  0  0  0  0  0  0  0  0  0
   -6.3626   -5.4029    0.2880 H   0  0  0  0  0  0  0  0  0  0  0  0
   -2.7658    1.5046    1.6455 H   0  0  0  0  0  0  0  0  0  0  0  0
   -1.2643    3.4211    1.6844 H   0  0  0  0  0  0  0  0  0  0  0  0
   -0.8666    5.0481   -0.5779 H   0  0  0  0  0  0  0  0  0  0  0  0
    0.6684    5.3067   -1.4307 H   0  0  0  0  0  0  0  0  0  0  0  0
    0.7308    7.1595    0.0906 H   0  0  0  0  0  0  0  0  0  0  0  0
   -0.1677    6.2597    1.3273 H   0  0  0  0  0  0  0  0  0  0  0  0
    2.1296    6.1066    2.1269 H   0  0  0  0  0  0  0  0  0  0  0  0
    2.7316    5.8000    0.4816 H   0  0  0  0  0  0  0  0  0  0  0  0
    0.9986    3.9770    2.2071 H   0  0  0  0  0  0  0  0  0  0  0  0
    2.4999    3.5553    1.3460 H   0  0  0  0  0  0  0  0  0  0  0  0
    2.7621    0.4399    0.3447 H   0  0  0  0  0  0  0  0  0  0  0  0
    3.4032   -1.3418    1.8799 H   0  0  0  0  0  0  0  0  0  0  0  0
  1  2  1  0
  2  3  1  0
  3  4  2  0
  4  5  1  0
  5  6  2  0
  6  7  1  0
  7  8  1  0
  8  9  2  0
  8 10  2  0
  8 11  1  0
 11 12  2  0
 12 13  1  0
 13 14  1  0
 14 15  1  0
 15 16  2  0
 15 17  1  0
 17 18  2  0
 18 19  1  0
 19 20  2  0
 20 21  1  0
 21 22  2  0
 22 23  1  0
 13 24  2  0
 24 25  1  0
 25 26  2  0
 26 27  1  0
 27 28  1  0
 28 29  1  0
 29 30  1  0
 30 31  1  0
  6 32  1  0
 32 33  2  0
 33  3  1  0
 26 11  1  0
 31 27  1  0
 22 17  1  0
  1 34  1  0
  1 35  1  0
  1 36  1  0
  4 37  1  0
  5 38  1  0
  7 39  1  0
 12 40  1  0
 14 41  1  0
 18 42  1  0
 19 43  1  0
 20 44  1  0
 24 45  1  0
 25 46  1  0
 28 47  1  0
 28 48  1  0
 29 49  1  0
 29 50  1  0
 30 51  1  0
 30 52  1  0
 31 53  1  0
 31 54  1  0
 32 55  1  0
 33 56  1  0
M  END
$$$$
