
     RDKit          3D

 46 49  0  0  0  0  0  0  0  0999 V2000
    3.2897   -4.9788   -1.3389 O   0  0  0  0  0  0  0  0  0  0  0  0
    4.1149   -4.3488   -0.6619 N   0  0  0  0  0  4  0  0  0  0  0  0
    4.9863   -4.8723    0.0476 O   0  0  0  0  0  1  0  0  0  0  0  0
    4.0610   -2.8825   -0.7072 C   0  0  0  0  0  0  0  0  0  0  0  0
    5.0494   -2.1334   -0.0563 C   0  0  0  0  0  0  0  0  0  0  0  0
    4.9938   -0.7405   -0.1003 C   0  0  0  0  0  0  0  0  0  0  0  0
    3.9604   -0.1018   -0.7894 C   0  0  0  0  0  0  0  0  0  0  0  0
    2.9687   -0.8455   -1.4489 C   0  0  0  0  0  0  0  0  0  0  0  0
    1.8410   -0.1390   -2.1706 C   0  0  0  0  0  0  0  0  0  0  0  0
    0.7282    0.2764   -1.2599 C   0  0  0  0  0  0  0  0  0  0  0  0
   -0.4304   -0.8791   -0.6384 S   0  0  0  0  0  0  0  0  0  0  0  0
   -1.2856    0.4045    0.2943 C   0  0  0  0  0  0  0  0  0  0  0  0
   -2.3238    0.1886    1.0439 N   0  0  0  0  0  0  0  0  0  0  0  0
   -2.8551   -1.0978    1.1881 C   0  0  0  0  0  0  0  0  0  0  0  0
   -2.3986   -1.9433    2.2031 C   0  0  0  0  0  0  0  0  0  0  0  0
   -2.9474   -3.2173    2.3624 C   0  0  0  0  0  0  0  0  0  0  0  0
   -3.9681   -3.6465    1.5149 C   0  0  0  0  0  0  0  0  0  0  0  0
   -4.4446   -2.8003    0.5143 C   0  0  0  0  0  0  0  0  0  0  0  0
   -3.8935   -1.5271    0.3573 C   0  0  0  0  0  0  0  0  0  0  0  0
   -0.6443    1.6282    0.0399 N   0  0  0  0  0  0  0  0  0  0  0  0
   -1.1935    2.8655    0.4852 C   0  0  0  0  0  0  0  0  0  0  0  0
   -1.6194    3.0335    1.8127 C   0  0  0  0  0  0  0  0  0  0  0  0
   -2.1421    4.2518    2.2558 C   0  0  0  0  0  0  0  0  0  0  0  0
   -2.2535    5.3251    1.3765 C   0  0  0  0  0  0  0  0  0  0  0  0
   -1.8492    5.1797    0.0528 C   0  0  0  0  0  0  0  0  0  0  0  0
   -1.3268    3.9608   -0.3884 C   0  0  0  0  0  0  0  0  0  0  0  0
    0.4614    1.5152   -0.8102 C   0  0  0  0  0  0  0  0  0  0  0  0
    1.2841    2.5792   -1.0952 O   0  0  0  0  0  0  0  0  0  0  0  0
    3.0214   -2.2468   -1.4011 C   0  0  0  0  0  0  0  0  0  0  0  0
    5.8606   -2.6154    0.4852 H   0  0  0  0  0  0  0  0  0  0  0  0
    5.7549   -0.1497    0.4046 H   0  0  0  0  0  0  0  0  0  0  0  0
    3.9287    0.9870   -0.8086 H   0  0  0  0  0  0  0  0  0  0  0  0
    1.4488   -0.7841   -2.9679 H   0  0  0  0  0  0  0  0  0  0  0  0
    2.2564    0.7302   -2.6974 H   0  0  0  0  0  0  0  0  0  0  0  0
   -1.6106   -1.6071    2.8705 H   0  0  0  0  0  0  0  0  0  0  0  0
   -2.5807   -3.8717    3.1486 H   0  0  0  0  0  0  0  0  0  0  0  0
   -4.3965   -4.6378    1.6383 H   0  0  0  0  0  0  0  0  0  0  0  0
   -5.2468   -3.1286   -0.1410 H   0  0  0  0  0  0  0  0  0  0  0  0
   -4.2727   -0.8643   -0.4152 H   0  0  0  0  0  0  0  0  0  0  0  0
   -1.5426    2.2123    2.5228 H   0  0  0  0  0  0  0  0  0  0  0  0
   -2.4676    4.3563    3.2879 H   0  0  0  0  0  0  0  0  0  0  0  0
   -2.6670    6.2698    1.7206 H   0  0  0  0  0  0  0  0  0  0  0  0
   -1.9526    6.0101   -0.6414 H   0  0  0  0  0  0  0  0  0  0  0  0
   -1.0512    3.8646   -1.4371 H   0  0  0  0  0  0  0  0  0  0  0  0
    1.1065    3.2516   -0.4139 H   0  0  0  0  0  0  0  0  0  0  0  0
    2.2479   -2.8308   -1.8978 H   0  0  0  0  0  0  0  0  0  0  0  0
  1  2  2  0
  2  3  1  0
  2  4  1  0
  4  5  2  0
  5  6  1  0
  6  7  2  0
  7  8  1  0
  8  9  1  0
  9 10  1  0
 10 11  1  0
 11 12  1  0
 12 13  2  3
 13 14  1  0
 14 15  2  0
 15 16  1  0
 16 17  2  0
 17 18  1  0
 18 19  2  0
 12 20  1  0
 20 21  1  0
 21 22  2  0
 22 23  1  0
 23 24  2  0
 24 25  1  0
 25 26  2  0
 20 27  1  0
 27 28  1  0
  8 29  2  0
 29  4  1  0
 27 10  2  0
 19 14  1  0
 26 21  1  0
  5 30  1  0
  6 31  1  0
  7 32  1  0
  9 33  1  0
  9 34  1  0
 15 35  1  0
 16 36  1  0
 17 37  1  0
 18 38  1  0
 19 39  1  0
 22 40  1  0
 23 41  1  0
 24 42  1  0
 25 43  1  0
 26 44  1  0
 28 45  1  0
 29 46  1  0
M  CHG  2   2   1   3  -1
M  END
$$$$
