
     RDKit          3D

 70 72  0  0  0  0  0  0  0  0999 V2000
   10.0538   -0.7380   -0.3281 C   0  0  0  0  0  0  0  0  0  0  0  0
    9.2207    0.4914   -0.6556 C   0  0  0  0  0  0  0  0  0  0  0  0
    7.7879    0.4227   -0.1201 C   0  0  0  0  0  0  0  0  0  0  0  0
    6.9408   -0.6577   -0.7979 C   0  0  0  0  0  0  0  0  0  0  0  0
    5.5057   -0.7281   -0.2653 C   0  0  0  0  0  0  0  0  0  0  0  0
    4.6667    0.5057   -0.6062 C   0  0  0  0  0  0  0  0  0  0  0  0
    3.2121    0.3257   -0.1627 C   0  0  0  0  0  0  0  0  0  0  0  0
    2.3729    1.5600   -0.5017 C   0  0  0  0  0  0  0  0  0  0  0  0
    0.8821    1.3902   -0.1815 C   0  0  0  0  0  0  0  0  0  0  0  0
    0.6166    1.2545    1.3199 C   0  0  0  0  0  0  0  0  0  0  0  0
   -0.8925    1.2159    1.6892 N   0  0  0  0  0  4  0  0  0  0  0  0
   -1.5635    2.5362    1.3058 C   0  0  0  0  0  0  0  0  0  0  0  0
   -0.9624    1.0660    3.2149 C   0  0  0  0  0  0  0  0  0  0  0  0
   -1.5753    0.0156    0.9904 C   0  0  0  0  0  0  0  0  0  0  0  0
   -3.0016   -0.2693    1.4821 C   0  0  0  0  0  0  0  0  0  0  0  0
   -3.6895   -1.3072    0.6299 C   0  0  0  0  0  0  0  0  0  0  0  0
   -4.7405   -1.1490   -0.2088 C   0  0  0  0  0  0  0  0  0  0  0  0
   -5.3999   -2.3798   -0.7274 C   0  0  0  0  0  0  0  0  0  0  0  0
   -4.6740   -3.4277   -1.3146 C   0  0  0  0  0  0  0  0  0  0  0  0
   -5.3321   -4.5648   -1.7876 C   0  0  0  0  0  0  0  0  0  0  0  0
   -6.7179   -4.6633   -1.6855 C   0  0  0  0  0  0  0  0  0  0  0  0
   -7.4535   -3.6206   -1.1208 C   0  0  0  0  0  0  0  0  0  0  0  0
   -6.8051   -2.4724   -0.6509 C   0  0  0  0  0  0  0  0  0  0  0  0
   -7.8053   -1.1541    0.0469 S   0  0  0  0  0  0  0  0  0  0  0  0
   -6.7854    0.2722   -0.3206 C   0  0  0  0  0  0  0  0  0  0  0  0
   -7.4112    1.5116   -0.5100 C   0  0  0  0  0  0  0  0  0  0  0  0
   -6.6585    2.6386   -0.8482 C   0  0  0  0  0  0  0  0  0  0  0  0
   -5.2835    2.5193   -1.0228 C   0  0  0  0  0  0  0  0  0  0  0  0
   -4.3411    3.8960   -1.4419 Cl  0  0  0  0  0  0  0  0  0  0  0  0
   -4.6496    1.2908   -0.8438 C   0  0  0  0  0  0  0  0  0  0  0  0
   -5.3858    0.1685   -0.4413 C   0  0  0  0  0  0  0  0  0  0  0  0
   11.0889   -0.5860   -0.6502 H   0  0  0  0  0  0  0  0  0  0  0  0
    9.6766   -1.6280   -0.8399 H   0  0  0  0  0  0  0  0  0  0  0  0
   10.0598   -0.9335    0.7488 H   0  0  0  0  0  0  0  0  0  0  0  0
    9.2069    0.6456   -1.7407 H   0  0  0  0  0  0  0  0  0  0  0  0
    9.7121    1.3686   -0.2178 H   0  0  0  0  0  0  0  0  0  0  0  0
    7.3278    1.4040   -0.2794 H   0  0  0  0  0  0  0  0  0  0  0  0
    7.8077    0.2531    0.9631 H   0  0  0  0  0  0  0  0  0  0  0  0
    6.9227   -0.4903   -1.8816 H   0  0  0  0  0  0  0  0  0  0  0  0
    7.4021   -1.6385   -0.6362 H   0  0  0  0  0  0  0  0  0  0  0  0
    5.0261   -1.6152   -0.6976 H   0  0  0  0  0  0  0  0  0  0  0  0
    5.5231   -0.8772    0.8212 H   0  0  0  0  0  0  0  0  0  0  0  0
    5.0822    1.3918   -0.1143 H   0  0  0  0  0  0  0  0  0  0  0  0
    4.7010    0.6861   -1.6873 H   0  0  0  0  0  0  0  0  0  0  0  0
    3.1887    0.1390    0.9167 H   0  0  0  0  0  0  0  0  0  0  0  0
    2.7842   -0.5555   -0.6555 H   0  0  0  0  0  0  0  0  0  0  0  0
    2.4691    1.7742   -1.5735 H   0  0  0  0  0  0  0  0  0  0  0  0
    2.7664    2.4343    0.0309 H   0  0  0  0  0  0  0  0  0  0  0  0
    0.5074    0.5149   -0.7226 H   0  0  0  0  0  0  0  0  0  0  0  0
    0.3611    2.2652   -0.5830 H   0  0  0  0  0  0  0  0  0  0  0  0
    1.0502    0.3275    1.7114 H   0  0  0  0  0  0  0  0  0  0  0  0
    1.0534    2.1004    1.8642 H   0  0  0  0  0  0  0  0  0  0  0  0
   -0.9469    3.3581    1.6810 H   0  0  0  0  0  0  0  0  0  0  0  0
   -1.6552    2.5844    0.2185 H   0  0  0  0  0  0  0  0  0  0  0  0
   -2.5542    2.5775    1.7655 H   0  0  0  0  0  0  0  0  0  0  0  0
   -0.5495    0.0893    3.4834 H   0  0  0  0  0  0  0  0  0  0  0  0
   -0.3754    1.8711    3.6677 H   0  0  0  0  0  0  0  0  0  0  0  0
   -2.0044    1.1489    3.5346 H   0  0  0  0  0  0  0  0  0  0  0  0
   -0.9344   -0.8576    1.1637 H   0  0  0  0  0  0  0  0  0  0  0  0
   -1.5811    0.2361   -0.0821 H   0  0  0  0  0  0  0  0  0  0  0  0
   -2.9657   -0.6676    2.5035 H   0  0  0  0  0  0  0  0  0  0  0  0
   -3.5939    0.6458    1.5445 H   0  0  0  0  0  0  0  0  0  0  0  0
   -3.3292   -2.3211    0.8178 H   0  0  0  0  0  0  0  0  0  0  0  0
   -3.5944   -3.3678   -1.4212 H   0  0  0  0  0  0  0  0  0  0  0  0
   -4.7649   -5.3747   -2.2411 H   0  0  0  0  0  0  0  0  0  0  0  0
   -7.2299   -5.5496   -2.0540 H   0  0  0  0  0  0  0  0  0  0  0  0
   -8.5361   -3.7095   -1.0583 H   0  0  0  0  0  0  0  0  0  0  0  0
   -8.4912    1.6049   -0.4077 H   0  0  0  0  0  0  0  0  0  0  0  0
   -7.1564    3.5946   -0.9930 H   0  0  0  0  0  0  0  0  0  0  0  0
   -3.5859    1.2079   -1.0357 H   0  0  0  0  0  0  0  0  0  0  0  0
  1  2  1  0
  2  3  1  0
  3  4  1  0
  4  5  1  0
  5  6  1  0
  6  7  1  0
  7  8  1  0
  8  9  1  0
  9 10  1  0
 10 11  1  0
 11 12  1  0
 11 13  1  0
 11 14  1  0
 14 15  1  0
 15 16  1  0
 16 17  2  3
 17 18  1  0
 18 19  2  0
 19 20  1  0
 20 21  2  0
 21 22  1  0
 22 23  2  0
 23 24  1  0
 24 25  1  0
 25 26  2  0
 26 27  1  0
 27 28  2  0
 28 29  1  0
 28 30  1  0
 30 31  2  0
 31 17  1  0
 23 18  1  0
 31 25  1  0
  1 32  1  0
  1 33  1  0
  1 34  1  0
  2 35  1  0
  2 36  1  0
  3 37  1  0
  3 38  1  0
  4 39  1  0
  4 40  1  0
  5 41  1  0
  5 42  1  0
  6 43  1  0
  6 44  1  0
  7 45  1  0
  7 46  1  0
  8 47  1  0
  8 48  1  0
  9 49  1  0
  9 50  1  0
 10 51  1  0
 10 52  1  0
 12 53  1  0
 12 54  1  0
 12 55  1  0
 13 56  1  0
 13 57  1  0
 13 58  1  0
 14 59  1  0
 14 60  1  0
 15 61  1  0
 15 62  1  0
 16 63  1  0
 19 64  1  0
 20 65  1  0
 21 66  1  0
 22 67  1  0
 26 68  1  0
 27 69  1  0
 30 70  1  0
M  CHG  1  11   1
M  END
$$$$
