
     RDKit          3D

 52 55  0  0  0  0  0  0  0  0999 V2000
    8.3568   -0.7569    0.5732 C   0  0  0  0  0  0  0  0  0  0  0  0
    7.5414   -1.7810   -0.1936 C   0  0  0  0  0  0  0  0  0  0  0  0
    6.1653   -1.3796   -0.2452 O   0  0  0  0  0  0  0  0  0  0  0  0
    5.3861   -1.7537    0.8125 C   0  0  0  0  0  0  0  0  0  0  0  0
    5.8073   -2.3925    1.7703 O   0  0  0  0  0  0  0  0  0  0  0  0
    4.0081   -1.2937    0.6533 C   0  0  0  0  0  0  0  0  0  0  0  0
    3.4777   -0.6021   -0.8261 S   0  0  0  0  0  0  0  0  0  0  0  0
    1.8883   -0.4112   -0.2682 C   0  0  0  0  0  0  0  0  0  0  0  0
    0.9346    0.1153   -1.0659 N   0  0  0  0  0  0  0  0  0  0  0  0
   -0.2596    0.1944   -0.5533 C   0  0  0  0  0  0  0  0  0  0  0  0
   -1.4082    0.7515   -1.3693 C   0  0  0  0  0  0  0  0  0  0  0  0
   -1.1137    1.2796   -2.9940 S   0  0  0  0  0  0  0  0  0  0  0  0
   -1.3895   -0.2654   -3.9045 C   0  0  0  0  0  0  0  0  0  0  0  0
   -0.1911   -1.1726   -3.8319 C   0  0  0  0  0  0  0  0  0  0  0  0
    0.7937   -1.1363   -4.5515 O   0  0  0  0  0  0  0  0  0  0  0  0
   -0.2854   -2.0913   -2.8465 O   0  0  0  0  0  0  0  0  0  0  0  0
   -2.6282    0.8558   -0.8239 C   0  0  0  0  0  0  0  0  0  0  0  0
   -2.8728    0.4323    0.5318 C   0  0  0  0  0  0  0  0  0  0  0  0
   -4.2186    0.4902    1.1713 C   0  0  0  0  0  0  0  0  0  0  0  0
   -4.6504   -0.4610    1.8214 O   0  0  0  0  0  0  0  0  0  0  0  0
   -5.0776    1.6885    0.9894 C   0  0  0  0  0  0  0  0  0  0  0  0
   -4.5294    2.9625    0.7794 C   0  0  0  0  0  0  0  0  0  0  0  0
   -5.3677    4.0661    0.5982 C   0  0  0  0  0  0  0  0  0  0  0  0
   -6.7527    3.9079    0.6369 C   0  0  0  0  0  0  0  0  0  0  0  0
   -7.3051    2.6497    0.8721 C   0  0  0  0  0  0  0  0  0  0  0  0
   -6.4716    1.5497    1.0608 C   0  0  0  0  0  0  0  0  0  0  0  0
   -7.0920    0.3551    1.3132 O   0  0  0  0  0  0  0  0  0  0  0  0
   -1.8768   -0.1054    1.2495 C   0  0  0  0  0  0  0  0  0  0  0  0
   -0.5783   -0.2258    0.7535 N   0  0  0  0  0  0  0  0  0  0  0  0
    0.4028   -0.7777    1.6012 C   0  0  0  0  0  0  0  0  0  0  0  0
    0.1715   -1.1692    2.7437 O   0  0  0  0  0  0  0  0  0  0  0  0
    1.7348   -0.8583    1.0194 C   0  0  0  0  0  0  0  0  0  0  0  0
    2.9716   -1.3475    1.5876 C   0  0  0  0  0  0  0  0  0  0  0  0
    3.1127   -1.8655    2.9886 C   0  0  0  0  0  0  0  0  0  0  0  0
    9.4176   -1.0229    0.5676 H   0  0  0  0  0  0  0  0  0  0  0  0
    8.2393    0.2375    0.1302 H   0  0  0  0  0  0  0  0  0  0  0  0
    8.0203   -0.6842    1.6122 H   0  0  0  0  0  0  0  0  0  0  0  0
    7.8974   -1.8343   -1.2276 H   0  0  0  0  0  0  0  0  0  0  0  0
    7.6493   -2.7840    0.2348 H   0  0  0  0  0  0  0  0  0  0  0  0
   -2.2831   -0.7882   -3.5474 H   0  0  0  0  0  0  0  0  0  0  0  0
   -1.5662   -0.0311   -4.9595 H   0  0  0  0  0  0  0  0  0  0  0  0
    0.5950   -2.5262   -2.8656 H   0  0  0  0  0  0  0  0  0  0  0  0
   -3.4635    1.2443   -1.4007 H   0  0  0  0  0  0  0  0  0  0  0  0
   -3.4549    3.1249    0.7677 H   0  0  0  0  0  0  0  0  0  0  0  0
   -4.9412    5.0533    0.4327 H   0  0  0  0  0  0  0  0  0  0  0  0
   -7.4044    4.7673    0.4969 H   0  0  0  0  0  0  0  0  0  0  0  0
   -8.3842    2.5262    0.9195 H   0  0  0  0  0  0  0  0  0  0  0  0
   -6.4138   -0.2794    1.6364 H   0  0  0  0  0  0  0  0  0  0  0  0
   -2.0458   -0.4646    2.2646 H   0  0  0  0  0  0  0  0  0  0  0  0
    4.1038   -1.6504    3.3983 H   0  0  0  0  0  0  0  0  0  0  0  0
    2.4003   -1.3926    3.6693 H   0  0  0  0  0  0  0  0  0  0  0  0
    2.9504   -2.9475    3.0079 H   0  0  0  0  0  0  0  0  0  0  0  0
  1  2  1  0
  2  3  1  0
  3  4  1  0
  4  5  2  0
  4  6  1  0
  6  7  1  0
  7  8  1  0
  8  9  1  0
  9 10  2  0
 10 11  1  0
 11 12  1  0
 12 13  1  0
 13 14  1  0
 14 15  2  0
 14 16  1  0
 11 17  2  0
 17 18  1  0
 18 19  1  0
 19 20  2  0
 19 21  1  0
 21 22  2  0
 22 23  1  0
 23 24  2  0
 24 25  1  0
 25 26  2  0
 26 27  1  0
 18 28  2  0
 28 29  1  0
 29 30  1  0
 30 31  2  0
 30 32  1  0
 32 33  1  0
 33 34  1  0
 33  6  2  0
 32  8  2  0
 29 10  1  0
 26 21  1  0
  1 35  1  0
  1 36  1  0
  1 37  1  0
  2 38  1  0
  2 39  1  0
 13 40  1  0
 13 41  1  0
 16 42  1  0
 17 43  1  0
 22 44  1  0
 23 45  1  0
 24 46  1  0
 25 47  1  0
 27 48  1  0
 28 49  1  0
 34 50  1  0
 34 51  1  0
 34 52  1  0
M  END
$$$$
