
     RDKit          3D

 32 34  0  0  0  0  0  0  0  0999 V2000
    3.7400    3.4584    1.8909 O   0  0  0  0  0  0  0  0  0  0  0  0
    3.9278    2.6240    0.9948 N   0  0  0  0  0  4  0  0  0  0  0  0
    4.8396    2.6801    0.1588 O   0  0  0  0  0  1  0  0  0  0  0  0
    3.0055    1.4831    0.9206 C   0  0  0  0  0  0  0  0  0  0  0  0
    2.0046    1.3376    1.8938 C   0  0  0  0  0  0  0  0  0  0  0  0
    1.1200    0.2571    1.8236 C   0  0  0  0  0  0  0  0  0  0  0  0
    1.2242   -0.6716    0.7799 C   0  0  0  0  0  0  0  0  0  0  0  0
    0.3441   -1.7263    0.7172 O   0  0  0  0  0  0  0  0  0  0  0  0
   -0.9909   -1.3996    0.5296 C   0  0  0  0  0  0  0  0  0  0  0  0
   -1.8805   -2.0130    1.4211 C   0  0  0  0  0  0  0  0  0  0  0  0
   -3.2443   -1.7776    1.3092 C   0  0  0  0  0  0  0  0  0  0  0  0
   -3.7147   -0.9465    0.2961 C   0  0  0  0  0  0  0  0  0  0  0  0
   -2.8247   -0.3538   -0.6182 C   0  0  0  0  0  0  0  0  0  0  0  0
   -3.2992    0.4617   -1.6550 C   0  0  0  0  0  0  0  0  0  0  0  0
   -2.4107    1.0211   -2.5635 C   0  0  0  0  0  0  0  0  0  0  0  0
   -1.0687    0.7493   -2.4025 C   0  0  0  0  0  0  0  0  0  0  0  0
   -0.5739   -0.0200   -1.4086 N   0  0  0  0  0  0  0  0  0  0  0  0
   -1.4330   -0.5758   -0.5196 C   0  0  0  0  0  0  0  0  0  0  0  0
    2.2458   -0.5295   -0.1668 C   0  0  0  0  0  0  0  0  0  0  0  0
    2.3918   -1.4930   -1.2484 N   0  0  0  0  0  4  0  0  0  0  0  0
    2.3330   -2.6964   -0.9614 O   0  0  0  0  0  0  0  0  0  0  0  0
    2.6436   -1.0407   -2.3755 O   0  0  0  0  0  1  0  0  0  0  0  0
    3.1387    0.5507   -0.1155 C   0  0  0  0  0  0  0  0  0  0  0  0
    1.8984    2.0542    2.7069 H   0  0  0  0  0  0  0  0  0  0  0  0
    0.3458    0.1474    2.5800 H   0  0  0  0  0  0  0  0  0  0  0  0
   -1.5025   -2.6713    2.1992 H   0  0  0  0  0  0  0  0  0  0  0  0
   -3.9398   -2.2455    2.0014 H   0  0  0  0  0  0  0  0  0  0  0  0
   -4.7860   -0.7733    0.2129 H   0  0  0  0  0  0  0  0  0  0  0  0
   -4.3633    0.6563   -1.7661 H   0  0  0  0  0  0  0  0  0  0  0  0
   -2.7581    1.6460   -3.3783 H   0  0  0  0  0  0  0  0  0  0  0  0
   -0.3280    1.1512   -3.0887 H   0  0  0  0  0  0  0  0  0  0  0  0
    3.9153    0.6557   -0.8714 H   0  0  0  0  0  0  0  0  0  0  0  0
  1  2  2  0
  2  3  1  0
  2  4  1  0
  4  5  2  0
  5  6  1  0
  6  7  2  0
  7  8  1  0
  8  9  1  0
  9 10  2  0
 10 11  1  0
 11 12  2  0
 12 13  1  0
 13 14  2  0
 14 15  1  0
 15 16  2  0
 16 17  1  0
 17 18  2  0
  7 19  1  0
 19 20  1  0
 20 21  2  0
 20 22  1  0
 19 23  2  0
 23  4  1  0
 18  9  1  0
 18 13  1  0
  5 24  1  0
  6 25  1  0
 10 26  1  0
 11 27  1  0
 12 28  1  0
 14 29  1  0
 15 30  1  0
 16 31  1  0
 23 32  1  0
M  CHG  4   2   1   3  -1  20   1  22  -1
M  END
$$$$
