
     RDKit          3D

 50 52  0  0  0  0  0  0  0  0999 V2000
   -2.4423   -1.0126   -1.6890 O   0  0  0  0  0  0  0  0  0  0  0  0
   -3.4582   -0.8722   -1.0127 C   0  0  0  0  0  0  0  0  0  0  0  0
   -3.5126   -1.1745    0.4871 C   0  0  0  0  0  0  0  0  0  0  0  0
   -2.2183   -1.2199    1.0844 O   0  0  0  0  0  0  0  0  0  0  0  0
   -1.6610    0.0008    1.2778 C   0  0  0  0  0  0  0  0  0  0  0  0
   -2.2134    1.0742    1.0953 O   0  0  0  0  0  0  0  0  0  0  0  0
   -0.2624   -0.1304    1.7681 C   0  0  0  0  0  0  0  0  0  0  0  0
    0.3982   -1.3665    1.8321 C   0  0  0  0  0  0  0  0  0  0  0  0
    1.7183   -1.4364    2.2865 C   0  0  0  0  0  0  0  0  0  0  0  0
    2.3849   -0.2653    2.6596 C   0  0  0  0  0  0  0  0  0  0  0  0
    4.0639   -0.3539    3.2566 S   0  0  0  0  0  6  0  0  0  0  0  0
    4.2809    0.8042    4.0982 O   0  0  0  0  0  0  0  0  0  0  0  0
    4.2726   -1.6951    3.7604 O   0  0  0  0  0  0  0  0  0  0  0  0
    4.9821   -0.1643    1.8426 N   0  0  0  0  0  0  0  0  0  0  0  0
    5.0400   -1.2963    0.8871 C   0  0  0  0  0  0  0  0  0  0  0  0
    4.5742   -0.8737   -0.5000 C   0  0  0  0  0  0  0  0  0  0  0  0
    5.4230    0.2657   -1.0607 C   0  0  0  0  0  0  0  0  0  0  0  0
    5.9614    1.1882    0.0320 C   0  0  0  0  0  0  0  0  0  0  0  0
    5.0556    1.1942    1.2575 C   0  0  0  0  0  0  0  0  0  0  0  0
    1.7277    0.9682    2.6256 C   0  0  0  0  0  0  0  0  0  0  0  0
    0.4088    1.0342    2.1700 C   0  0  0  0  0  0  0  0  0  0  0  0
   -4.6547   -0.4452   -1.5407 N   0  0  0  0  0  0  0  0  0  0  0  0
   -4.7979   -0.2172   -2.9588 C   0  0  0  0  0  0  0  0  0  0  0  0
   -6.0872    0.4730   -3.2011 C   0  0  0  0  0  0  0  0  0  0  0  0
   -6.4227    1.6771   -3.7848 C   0  0  0  0  0  0  0  0  0  0  0  0
   -7.8324    1.7800   -3.7083 C   0  0  0  0  0  0  0  0  0  0  0  0
   -8.2678    0.6347   -3.0852 C   0  0  0  0  0  0  0  0  0  0  0  0
   -7.2168   -0.1659   -2.7712 O   0  0  0  0  0  0  0  0  0  0  0  0
   -3.9602   -2.1671    0.6045 H   0  0  0  0  0  0  0  0  0  0  0  0
   -4.1594   -0.4581    1.0073 H   0  0  0  0  0  0  0  0  0  0  0  0
   -0.1026   -2.2833    1.5291 H   0  0  0  0  0  0  0  0  0  0  0  0
    2.2149   -2.4027    2.3468 H   0  0  0  0  0  0  0  0  0  0  0  0
    4.4322   -2.1401    1.2254 H   0  0  0  0  0  0  0  0  0  0  0  0
    6.0759   -1.6544    0.8486 H   0  0  0  0  0  0  0  0  0  0  0  0
    4.6025   -1.7268   -1.1873 H   0  0  0  0  0  0  0  0  0  0  0  0
    3.5271   -0.5491   -0.4471 H   0  0  0  0  0  0  0  0  0  0  0  0
    6.2676   -0.1399   -1.6304 H   0  0  0  0  0  0  0  0  0  0  0  0
    4.8188    0.8403   -1.7730 H   0  0  0  0  0  0  0  0  0  0  0  0
    6.0740    2.2035   -0.3654 H   0  0  0  0  0  0  0  0  0  0  0  0
    6.9645    0.8518    0.3247 H   0  0  0  0  0  0  0  0  0  0  0  0
    4.0581    1.5471    0.9774 H   0  0  0  0  0  0  0  0  0  0  0  0
    5.4728    1.8854    1.9973 H   0  0  0  0  0  0  0  0  0  0  0  0
    2.2309    1.8768    2.9495 H   0  0  0  0  0  0  0  0  0  0  0  0
   -0.0970    1.9982    2.1333 H   0  0  0  0  0  0  0  0  0  0  0  0
   -5.5059   -0.5196   -0.9973 H   0  0  0  0  0  0  0  0  0  0  0  0
   -3.9518    0.3788   -3.3170 H   0  0  0  0  0  0  0  0  0  0  0  0
   -4.7767   -1.1871   -3.4665 H   0  0  0  0  0  0  0  0  0  0  0  0
   -5.7320    2.3933   -4.2086 H   0  0  0  0  0  0  0  0  0  0  0  0
   -8.4553    2.5892   -4.0630 H   0  0  0  0  0  0  0  0  0  0  0  0
   -9.2422    0.2588   -2.8056 H   0  0  0  0  0  0  0  0  0  0  0  0
  1  2  2  0
  2  3  1  0
  3  4  1  0
  4  5  1  0
  5  6  2  0
  5  7  1  0
  7  8  2  0
  8  9  1  0
  9 10  2  0
 10 11  1  0
 11 12  2  0
 11 13  2  0
 11 14  1  0
 14 15  1  0
 15 16  1  0
 16 17  1  0
 17 18  1  0
 18 19  1  0
 10 20  1  0
 20 21  2  0
  2 22  1  0
 22 23  1  0
 23 24  1  0
 24 25  2  0
 25 26  1  0
 26 27  2  0
 27 28  1  0
 21  7  1  0
 28 24  1  0
 19 14  1  0
  3 29  1  0
  3 30  1  0
  8 31  1  0
  9 32  1  0
 15 33  1  0
 15 34  1  0
 16 35  1  0
 16 36  1  0
 17 37  1  0
 17 38  1  0
 18 39  1  0
 18 40  1  0
 19 41  1  0
 19 42  1  0
 20 43  1  0
 21 44  1  0
 22 45  1  0
 23 46  1  0
 23 47  1  0
 25 48  1  0
 26 49  1  0
 27 50  1  0
M  END
$$$$
