
     RDKit          3D

 39 41  0  0  0  0  0  0  0  0999 V2000
   -3.8097   -2.3581    1.1003 C   0  0  0  0  0  0  0  0  0  0  0  0
   -3.6004   -2.5883   -0.3868 C   0  0  0  0  0  0  0  0  0  0  0  0
   -1.9326   -3.2361   -0.7440 S   0  0  0  0  0  0  0  0  0  0  0  0
   -0.9291   -1.7618   -0.5987 C   0  0  0  0  0  0  0  0  0  0  0  0
    0.4425   -1.9003   -0.6173 C   0  0  0  0  0  0  0  0  0  0  0  0
    1.2019   -0.7546   -0.5086 C   0  0  0  0  0  0  0  0  0  0  0  0
    2.5756   -0.7910   -0.5278 N   0  0  0  0  0  0  0  0  0  0  0  0
    3.3717   -1.9691   -0.2051 C   0  0  0  0  0  0  0  0  0  0  0  0
    4.7048   -1.3986    0.2806 C   0  0  0  0  0  0  0  0  0  0  0  0
    4.7862   -0.0450   -0.4068 C   0  0  0  0  0  0  0  0  0  0  0  0
    3.3404    0.4395   -0.3626 C   0  0  0  0  0  0  0  0  0  0  0  0
    0.6032    0.4447   -0.4113 N   0  0  0  0  0  0  0  0  0  0  0  0
   -0.7410    0.4959   -0.4062 C   0  0  0  0  0  0  0  0  0  0  0  0
   -1.3788    1.8249   -0.2894 C   0  0  0  0  0  0  0  0  0  0  0  0
   -2.7824    1.9681   -0.2550 C   0  0  0  0  0  0  0  0  0  0  0  0
   -3.3865    3.2248   -0.1434 C   0  0  0  0  0  0  0  0  0  0  0  0
   -2.5934    4.3602   -0.0644 C   0  0  0  0  0  0  0  0  0  0  0  0
   -3.1703    5.5641    0.0426 F   0  0  0  0  0  0  0  0  0  0  0  0
   -1.2099    4.2633   -0.0952 C   0  0  0  0  0  0  0  0  0  0  0  0
   -0.6095    3.0049   -0.2068 C   0  0  0  0  0  0  0  0  0  0  0  0
   -1.5413   -0.5758   -0.4946 N   0  0  0  0  0  0  0  0  0  0  0  0
   -3.6676   -3.2820    1.6712 H   0  0  0  0  0  0  0  0  0  0  0  0
   -3.1328   -1.5971    1.5004 H   0  0  0  0  0  0  0  0  0  0  0  0
   -4.8335   -2.0138    1.2808 H   0  0  0  0  0  0  0  0  0  0  0  0
   -4.3174   -3.3413   -0.7310 H   0  0  0  0  0  0  0  0  0  0  0  0
   -3.7991   -1.6788   -0.9622 H   0  0  0  0  0  0  0  0  0  0  0  0
    0.8976   -2.8749   -0.7267 H   0  0  0  0  0  0  0  0  0  0  0  0
    2.9239   -2.5899    0.5788 H   0  0  0  0  0  0  0  0  0  0  0  0
    3.5154   -2.5765   -1.1054 H   0  0  0  0  0  0  0  0  0  0  0  0
    5.5501   -2.0499    0.0414 H   0  0  0  0  0  0  0  0  0  0  0  0
    4.6774   -1.2617    1.3685 H   0  0  0  0  0  0  0  0  0  0  0  0
    5.4753    0.6440    0.0892 H   0  0  0  0  0  0  0  0  0  0  0  0
    5.1117   -0.1721   -1.4464 H   0  0  0  0  0  0  0  0  0  0  0  0
    3.1264    0.9025    0.6085 H   0  0  0  0  0  0  0  0  0  0  0  0
    3.1457    1.1636   -1.1609 H   0  0  0  0  0  0  0  0  0  0  0  0
   -3.4209    1.0880   -0.3164 H   0  0  0  0  0  0  0  0  0  0  0  0
   -4.4672    3.3193   -0.1185 H   0  0  0  0  0  0  0  0  0  0  0  0
   -0.6046    5.1617   -0.0331 H   0  0  0  0  0  0  0  0  0  0  0  0
    0.4781    2.9469   -0.2305 H   0  0  0  0  0  0  0  0  0  0  0  0
  1  2  1  0
  2  3  1  0
  3  4  1  0
  4  5  2  0
  5  6  1  0
  6  7  1  0
  7  8  1  0
  8  9  1  0
  9 10  1  0
 10 11  1  0
  6 12  2  0
 12 13  1  0
 13 14  1  0
 14 15  2  0
 15 16  1  0
 16 17  2  0
 17 18  1  0
 17 19  1  0
 19 20  2  0
 13 21  2  0
 21  4  1  0
 11  7  1  0
 20 14  1  0
  1 22  1  0
  1 23  1  0
  1 24  1  0
  2 25  1  0
  2 26  1  0
  5 27  1  0
  8 28  1  0
  8 29  1  0
  9 30  1  0
  9 31  1  0
 10 32  1  0
 10 33  1  0
 11 34  1  0
 11 35  1  0
 15 36  1  0
 16 37  1  0
 19 38  1  0
 20 39  1  0
M  END
$$$$
