
     RDKit          3D

 46 48  0  0  0  0  0  0  0  0999 V2000
   -3.7624    1.2947   -3.1512 C   0  0  0  0  0  0  0  0  0  0  0  0
   -3.9046    0.8849   -1.7070 C   0  0  0  0  0  0  0  0  0  0  0  0
   -5.1419    0.5703   -1.2617 C   0  0  0  0  0  0  0  0  0  0  0  0
   -5.5146    0.1367    0.0900 C   0  0  0  0  0  0  0  0  0  0  0  0
   -5.1653   -1.1369    0.5542 C   0  0  0  0  0  0  0  0  0  0  0  0
   -5.5297   -1.5401    1.8403 C   0  0  0  0  0  0  0  0  0  0  0  0
   -6.2482   -0.6749    2.6654 C   0  0  0  0  0  0  0  0  0  0  0  0
   -6.6051    0.5925    2.2055 C   0  0  0  0  0  0  0  0  0  0  0  0
   -6.2416    0.9977    0.9193 C   0  0  0  0  0  0  0  0  0  0  0  0
   -2.7338    0.8857   -0.8234 C   0  0  0  0  0  0  0  0  0  0  0  0
   -1.4177    0.9760   -1.0730 C   0  0  0  0  0  0  0  0  0  0  0  0
   -0.5774    1.0957   -2.5738 S   0  0  0  0  0  0  0  0  0  0  0  0
    1.0124    1.0976   -1.8212 C   0  0  0  0  0  0  0  0  0  0  0  0
    2.4361    1.2153   -2.6775 S   0  0  0  0  0  0  0  0  0  0  0  0
    0.8466    1.0183   -0.4578 N   0  0  0  0  0  0  0  0  0  0  0  0
    2.0144    0.8930    0.5076 N   0  0  0  0  0  0  0  0  0  0  0  0
    2.3895   -0.7347    0.8862 S   0  0  0  0  0  6  0  0  0  0  0  0
    1.7465   -1.5884   -0.0913 O   0  0  0  0  0  0  0  0  0  0  0  0
    2.1582   -0.8900    2.3052 O   0  0  0  0  0  0  0  0  0  0  0  0
    4.1403   -0.7627    0.6106 C   0  0  0  0  0  0  0  0  0  0  0  0
    4.9994   -0.3032    1.6126 C   0  0  0  0  0  0  0  0  0  0  0  0
    6.3796   -0.3425    1.4067 C   0  0  0  0  0  0  0  0  0  0  0  0
    6.9045   -0.8379    0.2052 C   0  0  0  0  0  0  0  0  0  0  0  0
    8.3895   -0.9078   -0.0034 C   0  0  0  0  0  0  0  0  0  0  0  0
    6.0311   -1.3239   -0.7774 C   0  0  0  0  0  0  0  0  0  0  0  0
    4.6500   -1.2902   -0.5777 C   0  0  0  0  0  0  0  0  0  0  0  0
   -0.4365    0.9534    0.0533 C   0  0  0  0  0  0  0  0  0  0  0  0
   -0.7189    0.9165    1.2433 O   0  0  0  0  0  0  0  0  0  0  0  0
   -4.7346    1.3990   -3.6475 H   0  0  0  0  0  0  0  0  0  0  0  0
   -3.2686    2.2683   -3.2362 H   0  0  0  0  0  0  0  0  0  0  0  0
   -3.2031    0.5431   -3.7170 H   0  0  0  0  0  0  0  0  0  0  0  0
   -5.9925    0.6156   -1.9409 H   0  0  0  0  0  0  0  0  0  0  0  0
   -4.6054   -1.8200   -0.0809 H   0  0  0  0  0  0  0  0  0  0  0  0
   -5.2515   -2.5283    2.1983 H   0  0  0  0  0  0  0  0  0  0  0  0
   -6.5300   -0.9892    3.6672 H   0  0  0  0  0  0  0  0  0  0  0  0
   -7.1657    1.2660    2.8492 H   0  0  0  0  0  0  0  0  0  0  0  0
   -6.5233    1.9892    0.5730 H   0  0  0  0  0  0  0  0  0  0  0  0
   -2.9956    0.7931    0.2346 H   0  0  0  0  0  0  0  0  0  0  0  0
    1.7955    1.3520    1.4014 H   0  0  0  0  0  0  0  0  0  0  0  0
    4.6082    0.0785    2.5532 H   0  0  0  0  0  0  0  0  0  0  0  0
    7.0455    0.0127    2.1906 H   0  0  0  0  0  0  0  0  0  0  0  0
    8.6402   -0.7663   -1.0599 H   0  0  0  0  0  0  0  0  0  0  0  0
    8.9018   -0.1213    0.5606 H   0  0  0  0  0  0  0  0  0  0  0  0
    8.7677   -1.8810    0.3244 H   0  0  0  0  0  0  0  0  0  0  0  0
    6.4235   -1.7332   -1.7064 H   0  0  0  0  0  0  0  0  0  0  0  0
    3.9876   -1.6733   -1.3509 H   0  0  0  0  0  0  0  0  0  0  0  0
  1  2  1  0
  2  3  2  3
  3  4  1  0
  4  5  2  0
  5  6  1  0
  6  7  2  0
  7  8  1  0
  8  9  2  0
  2 10  1  0
 10 11  2  3
 11 12  1  0
 12 13  1  0
 13 14  2  0
 13 15  1  0
 15 16  1  0
 16 17  1  0
 17 18  2  0
 17 19  2  0
 17 20  1  0
 20 21  2  0
 21 22  1  0
 22 23  2  0
 23 24  1  0
 23 25  1  0
 25 26  2  0
 15 27  1  0
 27 28  2  0
  9  4  1  0
 27 11  1  0
 26 20  1  0
  1 29  1  0
  1 30  1  0
  1 31  1  0
  3 32  1  0
  5 33  1  0
  6 34  1  0
  7 35  1  0
  8 36  1  0
  9 37  1  0
 10 38  1  0
 16 39  1  0
 21 40  1  0
 22 41  1  0
 24 42  1  0
 24 43  1  0
 24 44  1  0
 25 45  1  0
 26 46  1  0
M  END
$$$$
