
     RDKit          3D

 30 31  0  0  0  0  0  0  0  0999 V2000
    0.9002    1.1782    1.0454 O   0  0  0  0  0  0  0  0  0  0  0  0
    0.8098    0.3496    0.1454 C   0  0  0  0  0  0  0  0  0  0  0  0
   -0.4850    0.0185   -0.6037 C   0  0  0  0  0  0  0  0  0  0  0  0
   -1.5728    0.7883   -0.1174 O   0  0  0  0  0  0  0  0  0  0  0  0
   -2.8035    0.6016   -0.6885 C   0  0  0  0  0  0  0  0  0  0  0  0
   -3.0681   -0.2970   -1.7283 C   0  0  0  0  0  0  0  0  0  0  0  0
   -4.3624   -0.4164   -2.2471 C   0  0  0  0  0  0  0  0  0  0  0  0
   -5.3968    0.3602   -1.7304 C   0  0  0  0  0  0  0  0  0  0  0  0
   -6.9836    0.2051   -2.3755 Cl  0  0  0  0  0  0  0  0  0  0  0  0
   -5.1539    1.2584   -0.6977 C   0  0  0  0  0  0  0  0  0  0  0  0
   -3.8615    1.3772   -0.1802 C   0  0  0  0  0  0  0  0  0  0  0  0
   -3.6112    2.5087    1.1043 Cl  0  0  0  0  0  0  0  0  0  0  0  0
    1.8977   -0.3897   -0.2813 N   0  0  0  0  0  0  0  0  0  0  0  0
    3.2331   -0.1016    0.2249 C   0  0  0  0  0  0  0  0  0  0  0  0
    3.4424   -0.5604    1.6659 C   0  0  0  0  0  0  0  0  0  0  0  0
    4.9398   -0.5568    1.9166 C   0  0  0  0  0  0  0  0  0  0  0  0
    5.6482   -1.3140    0.4269 S   0  0  0  0  0  0  0  0  0  0  0  0
    4.2759   -0.8643   -0.5773 C   0  0  0  0  0  0  0  0  0  0  0  0
    4.1876   -1.1405   -1.7657 O   0  0  0  0  0  0  0  0  0  0  0  0
   -0.3123    0.2380   -1.6642 H   0  0  0  0  0  0  0  0  0  0  0  0
   -0.6822   -1.0501   -0.4557 H   0  0  0  0  0  0  0  0  0  0  0  0
   -2.2940   -0.9217   -2.1618 H   0  0  0  0  0  0  0  0  0  0  0  0
   -4.5556   -1.1182   -3.0553 H   0  0  0  0  0  0  0  0  0  0  0  0
   -5.9619    1.8634   -0.2959 H   0  0  0  0  0  0  0  0  0  0  0  0
    1.8474   -0.8501   -1.1863 H   0  0  0  0  0  0  0  0  0  0  0  0
    3.4302    0.9719    0.1173 H   0  0  0  0  0  0  0  0  0  0  0  0
    3.0352   -1.5699    1.8158 H   0  0  0  0  0  0  0  0  0  0  0  0
    2.9298    0.0939    2.3789 H   0  0  0  0  0  0  0  0  0  0  0  0
    5.3208    0.4644    2.0166 H   0  0  0  0  0  0  0  0  0  0  0  0
    5.2065   -1.1266    2.8106 H   0  0  0  0  0  0  0  0  0  0  0  0
  1  2  2  0
  2  3  1  0
  3  4  1  0
  4  5  1  0
  5  6  2  0
  6  7  1  0
  7  8  2  0
  8  9  1  0
  8 10  1  0
 10 11  2  0
 11 12  1  0
  2 13  1  0
 13 14  1  0
 14 15  1  0
 15 16  1  0
 16 17  1  0
 17 18  1  0
 18 19  2  0
 11  5  1  0
 18 14  1  0
  3 20  1  0
  3 21  1  0
  6 22  1  0
  7 23  1  0
 10 24  1  0
 13 25  1  0
 14 26  1  0
 15 27  1  0
 15 28  1  0
 16 29  1  0
 16 30  1  0
M  END
$$$$
