
     RDKit          3D

 48 50  0  0  0  0  0  0  0  0999 V2000
    0.3665   -2.1470    3.4828 C   0  0  0  0  0  0  0  0  0  0  0  0
    0.3519   -0.6669    3.1318 C   0  0  0  0  0  0  0  0  0  0  0  0
    1.3501   -0.3415    2.0637 C   0  0  0  0  0  0  0  0  0  0  0  0
    1.1441   -0.0212    0.7880 C   0  0  0  0  0  0  0  0  0  0  0  0
   -0.1551    0.0617    0.1253 C   0  0  0  0  0  0  0  0  0  0  0  0
   -0.7424   -1.0934   -0.4096 C   0  0  0  0  0  0  0  0  0  0  0  0
   -1.9946   -1.0326   -1.0239 C   0  0  0  0  0  0  0  0  0  0  0  0
   -2.6457   -2.1026   -1.5810 O   0  0  0  0  0  0  0  0  0  0  0  0
   -1.9167   -3.3148   -1.7154 C   0  0  0  0  0  0  0  0  0  0  0  0
   -2.6678    0.2001   -1.0689 C   0  0  0  0  0  0  0  0  0  0  0  0
   -3.8844    0.2802   -1.7113 O   0  0  0  0  0  0  0  0  0  0  0  0
   -4.9394    0.0500   -0.7792 C   0  0  0  0  0  0  0  0  0  0  0  0
   -2.0915    1.3681   -0.5411 C   0  0  0  0  0  0  0  0  0  0  0  0
   -2.8320    2.5164   -0.6520 O   0  0  0  0  0  0  0  0  0  0  0  0
   -2.1940    3.7407   -0.3159 C   0  0  0  0  0  0  0  0  0  0  0  0
   -0.8389    1.2840    0.0699 C   0  0  0  0  0  0  0  0  0  0  0  0
    2.4501    0.2294    0.1134 C   0  0  0  0  0  0  0  0  0  0  0  0
    2.6598    1.6502   -0.4335 C   0  0  0  0  0  0  0  0  0  0  0  0
    3.6363    1.4620   -1.5881 C   0  0  0  0  0  0  0  0  0  0  0  0
    3.1770    0.1586   -2.2175 C   0  0  0  0  0  0  0  0  0  0  0  0
    2.8124   -0.7349   -1.0329 C   0  0  0  0  0  0  0  0  0  0  0  0
    3.3751   -0.0061    1.3123 C   0  0  0  0  0  0  0  0  0  0  0  0
    4.5964    0.0941    1.2844 O   0  0  0  0  0  0  0  0  0  0  0  0
    2.6873   -0.3479    2.4520 O   0  0  0  0  0  0  0  0  0  0  0  0
   -0.3695   -2.3563    4.2657 H   0  0  0  0  0  0  0  0  0  0  0  0
    0.1177   -2.7625    2.6116 H   0  0  0  0  0  0  0  0  0  0  0  0
    1.3489   -2.4597    3.8522 H   0  0  0  0  0  0  0  0  0  0  0  0
   -0.6611   -0.3834    2.8255 H   0  0  0  0  0  0  0  0  0  0  0  0
    0.5789   -0.0759    4.0270 H   0  0  0  0  0  0  0  0  0  0  0  0
   -0.2053   -2.0332   -0.3291 H   0  0  0  0  0  0  0  0  0  0  0  0
   -1.0004   -3.1666   -2.2967 H   0  0  0  0  0  0  0  0  0  0  0  0
   -1.6976   -3.7504   -0.7352 H   0  0  0  0  0  0  0  0  0  0  0  0
   -2.5458   -4.0247   -2.2610 H   0  0  0  0  0  0  0  0  0  0  0  0
   -4.8761   -0.9528   -0.3428 H   0  0  0  0  0  0  0  0  0  0  0  0
   -4.9464    0.8073    0.0124 H   0  0  0  0  0  0  0  0  0  0  0  0
   -5.8866    0.1218   -1.3220 H   0  0  0  0  0  0  0  0  0  0  0  0
   -1.2798    3.8881   -0.9007 H   0  0  0  0  0  0  0  0  0  0  0  0
   -1.9895    3.7930    0.7583 H   0  0  0  0  0  0  0  0  0  0  0  0
   -2.8819    4.5551   -0.5629 H   0  0  0  0  0  0  0  0  0  0  0  0
   -0.3771    2.1578    0.5185 H   0  0  0  0  0  0  0  0  0  0  0  0
    3.0589    2.3499    0.3089 H   0  0  0  0  0  0  0  0  0  0  0  0
    1.7309    2.0762   -0.8274 H   0  0  0  0  0  0  0  0  0  0  0  0
    3.6070    2.2966   -2.2944 H   0  0  0  0  0  0  0  0  0  0  0  0
    4.6620    1.3659   -1.2142 H   0  0  0  0  0  0  0  0  0  0  0  0
    3.9455   -0.2907   -2.8532 H   0  0  0  0  0  0  0  0  0  0  0  0
    2.2881    0.3347   -2.8354 H   0  0  0  0  0  0  0  0  0  0  0  0
    2.0014   -1.4135   -1.3139 H   0  0  0  0  0  0  0  0  0  0  0  0
    3.6733   -1.3632   -0.7736 H   0  0  0  0  0  0  0  0  0  0  0  0
  1  2  1  0
  2  3  1  0
  3  4  2  0
  4  5  1  0
  5  6  2  0
  6  7  1  0
  7  8  1  0
  8  9  1  0
  7 10  2  0
 10 11  1  0
 11 12  1  0
 10 13  1  0
 13 14  1  0
 14 15  1  0
 13 16  2  0
  4 17  1  0
 17 18  1  0
 18 19  1  0
 19 20  1  0
 20 21  1  0
 17 22  1  0
 22 23  2  0
 22 24  1  0
 24  3  1  0
 16  5  1  0
 21 17  1  0
  1 25  1  0
  1 26  1  0
  1 27  1  0
  2 28  1  0
  2 29  1  0
  6 30  1  0
  9 31  1  0
  9 32  1  0
  9 33  1  0
 12 34  1  0
 12 35  1  0
 12 36  1  0
 15 37  1  0
 15 38  1  0
 15 39  1  0
 16 40  1  0
 18 41  1  0
 18 42  1  0
 19 43  1  0
 19 44  1  0
 20 45  1  0
 20 46  1  0
 21 47  1  0
 21 48  1  0
M  END
$$$$
