
     RDKit          3D

 34 35  0  0  0  0  0  0  0  0999 V2000
   -1.3535    1.4545    2.1240 O   0  0  0  0  0  0  0  0  0  0  0  0
   -0.8158    0.3646    1.9442 C   0  0  0  0  0  0  0  0  0  0  0  0
    0.5090    0.0075    2.6234 C   0  0  0  0  0  0  0  0  0  0  0  0
    1.6492    0.5041    1.9183 O   0  0  0  0  0  0  0  0  0  0  0  0
    1.9421   -0.1651    0.7795 C   0  0  0  0  0  0  0  0  0  0  0  0
    1.3232   -1.1294    0.3550 O   0  0  0  0  0  0  0  0  0  0  0  0
    3.1073    0.4280    0.0904 C   0  0  0  0  0  0  0  0  0  0  0  0
    3.5261   -0.1045   -1.1332 C   0  0  0  0  0  0  0  0  0  0  0  0
    4.6263    0.4521   -1.7848 C   0  0  0  0  0  0  0  0  0  0  0  0
    5.2658    1.5223   -1.1820 C   0  0  0  0  0  0  0  0  0  0  0  0
    6.6270    2.2619   -1.9144 Cl  0  0  0  0  0  0  0  0  0  0  0  0
    4.8934    2.0637   -0.0036 N   0  0  0  0  0  0  0  0  0  0  0  0
    3.8180    1.5054    0.6065 C   0  0  0  0  0  0  0  0  0  0  0  0
   -1.2769   -0.6218    1.0770 N   0  0  0  0  0  0  0  0  0  0  0  0
   -2.5172   -0.5048    0.3924 C   0  0  0  0  0  0  0  0  0  0  0  0
   -3.7207   -0.2232    1.0791 C   0  0  0  0  0  0  0  0  0  0  0  0
   -3.8352   -0.2071    2.8105 Cl  0  0  0  0  0  0  0  0  0  0  0  0
   -4.9259   -0.0828    0.3823 C   0  0  0  0  0  0  0  0  0  0  0  0
   -4.9614   -0.2470   -0.9973 C   0  0  0  0  0  0  0  0  0  0  0  0
   -3.7941   -0.5753   -1.6813 C   0  0  0  0  0  0  0  0  0  0  0  0
   -2.5660   -0.7198   -1.0020 C   0  0  0  0  0  0  0  0  0  0  0  0
   -1.3337   -1.0573   -1.8002 C   0  0  0  0  0  0  0  0  0  0  0  0
   -1.5771   -1.2733   -3.1243 F   0  0  0  0  0  0  0  0  0  0  0  0
   -0.3900   -0.0761   -1.7572 F   0  0  0  0  0  0  0  0  0  0  0  0
   -0.7237   -2.1895   -1.3530 F   0  0  0  0  0  0  0  0  0  0  0  0
    0.5071    0.4645    3.6190 H   0  0  0  0  0  0  0  0  0  0  0  0
    0.5879   -1.0754    2.7802 H   0  0  0  0  0  0  0  0  0  0  0  0
    3.0002   -0.9452   -1.5813 H   0  0  0  0  0  0  0  0  0  0  0  0
    4.9690    0.0579   -2.7350 H   0  0  0  0  0  0  0  0  0  0  0  0
    3.5496    1.9747    1.5497 H   0  0  0  0  0  0  0  0  0  0  0  0
   -0.5182   -1.1417    0.6265 H   0  0  0  0  0  0  0  0  0  0  0  0
   -5.8472    0.1327    0.9190 H   0  0  0  0  0  0  0  0  0  0  0  0
   -5.9005   -0.1389   -1.5354 H   0  0  0  0  0  0  0  0  0  0  0  0
   -3.8440   -0.7155   -2.7616 H   0  0  0  0  0  0  0  0  0  0  0  0
  1  2  2  0
  2  3  1  0
  3  4  1  0
  4  5  1  0
  5  6  2  0
  5  7  1  0
  7  8  2  0
  8  9  1  0
  9 10  2  0
 10 11  1  0
 10 12  1  0
 12 13  2  0
  2 14  1  0
 14 15  1  0
 15 16  2  0
 16 17  1  0
 16 18  1  0
 18 19  2  0
 19 20  1  0
 20 21  2  0
 21 22  1  0
 22 23  1  0
 22 24  1  0
 22 25  1  0
 13  7  1  0
 21 15  1  0
  3 26  1  0
  3 27  1  0
  8 28  1  0
  9 29  1  0
 13 30  1  0
 14 31  1  0
 18 32  1  0
 19 33  1  0
 20 34  1  0
M  END
$$$$
