
     RDKit          3D

 54 59  0  0  0  0  0  0  0  0999 V2000
    4.8148   -1.7500    2.2642 C   0  0  0  0  0  0  0  0  0  0  0  0
    5.6251   -1.3528    1.0607 C   0  0  0  0  0  0  0  0  0  0  0  0
    6.9234   -1.8595    0.8984 C   0  0  0  0  0  0  0  0  0  0  0  0
    7.6886   -1.5030   -0.2102 C   0  0  0  0  0  0  0  0  0  0  0  0
    7.1632   -0.6379   -1.1650 C   0  0  0  0  0  0  0  0  0  0  0  0
    5.8715   -0.1263   -1.0151 C   0  0  0  0  0  0  0  0  0  0  0  0
    5.0951   -0.4781    0.0938 C   0  0  0  0  0  0  0  0  0  0  0  0
    3.8217   -0.0342    0.3356 O   0  0  0  0  0  0  0  0  0  0  0  0
    3.2316    0.8467   -0.6250 C   0  0  0  0  0  0  0  0  0  0  0  0
    1.8402    1.2236   -0.2229 C   0  0  0  0  0  0  0  0  0  0  0  0
    0.7348    0.5219   -0.6552 N   0  0  0  0  0  0  0  0  0  0  0  0
   -0.2754    1.1435   -0.0834 C   0  0  0  0  0  0  0  0  0  0  0  0
   -1.6971    0.9506   -0.0700 C   0  0  0  0  0  0  0  0  0  0  0  0
   -2.3986    1.8160    0.7256 C   0  0  0  0  0  0  0  0  0  0  0  0
   -1.8395    2.8570    1.4654 N   0  0  0  0  0  0  0  0  0  0  0  0
   -0.5528    3.0180    1.4200 C   0  0  0  0  0  0  0  0  0  0  0  0
    0.2231    2.1739    0.6597 N   0  0  0  0  0  0  0  0  0  0  0  0
    1.5620    2.2728    0.5683 N   0  0  0  0  0  0  0  0  0  0  0  0
   -3.8732    1.6534    0.8681 C   0  0  0  0  0  0  0  0  0  0  0  0
   -4.5757    2.2631    1.9209 C   0  0  0  0  0  0  0  0  0  0  0  0
   -5.9598    2.1198    2.0437 C   0  0  0  0  0  0  0  0  0  0  0  0
   -6.6658    1.3697    1.1092 C   0  0  0  0  0  0  0  0  0  0  0  0
   -5.9879    0.7619    0.0550 C   0  0  0  0  0  0  0  0  0  0  0  0
   -4.5954    0.8924   -0.0614 C   0  0  0  0  0  0  0  0  0  0  0  0
   -3.8680    0.2703   -1.2185 C   0  0  0  0  0  0  0  0  0  0  0  0
   -2.4233   -0.1703   -0.8477 C   0  0  0  0  0  0  0  0  0  0  0  0
   -2.4202   -1.4821   -0.0309 C   0  0  0  0  0  0  0  0  0  0  0  0
   -2.6724   -2.6038   -1.0398 C   0  0  0  0  0  0  0  0  0  0  0  0
   -2.3043   -2.0417   -2.4114 C   0  0  0  0  0  0  0  0  0  0  0  0
   -1.7312   -0.6503   -2.1477 C   0  0  0  0  0  0  0  0  0  0  0  0
    4.5545   -0.8656    2.8548 H   0  0  0  0  0  0  0  0  0  0  0  0
    3.8990   -2.2625    1.9524 H   0  0  0  0  0  0  0  0  0  0  0  0
    5.3710   -2.4319    2.9161 H   0  0  0  0  0  0  0  0  0  0  0  0
    7.3454   -2.5365    1.6377 H   0  0  0  0  0  0  0  0  0  0  0  0
    8.6933   -1.9003   -0.3278 H   0  0  0  0  0  0  0  0  0  0  0  0
    7.7599   -0.3594   -2.0299 H   0  0  0  0  0  0  0  0  0  0  0  0
    5.5063    0.5444   -1.7852 H   0  0  0  0  0  0  0  0  0  0  0  0
    3.8322    1.7609   -0.7113 H   0  0  0  0  0  0  0  0  0  0  0  0
    3.1834    0.3514   -1.6026 H   0  0  0  0  0  0  0  0  0  0  0  0
   -0.0584    3.8235    1.9846 H   0  0  0  0  0  0  0  0  0  0  0  0
   -4.0457    2.8599    2.6605 H   0  0  0  0  0  0  0  0  0  0  0  0
   -6.4826    2.5997    2.8666 H   0  0  0  0  0  0  0  0  0  0  0  0
   -7.7435    1.2627    1.1985 H   0  0  0  0  0  0  0  0  0  0  0  0
   -6.5501    0.1863   -0.6767 H   0  0  0  0  0  0  0  0  0  0  0  0
   -3.8358    1.0165   -2.0243 H   0  0  0  0  0  0  0  0  0  0  0  0
   -4.4530   -0.5761   -1.5968 H   0  0  0  0  0  0  0  0  0  0  0  0
   -3.1651   -1.4952    0.7718 H   0  0  0  0  0  0  0  0  0  0  0  0
   -1.4405   -1.6440    0.4381 H   0  0  0  0  0  0  0  0  0  0  0  0
   -3.7250   -2.9081   -1.0276 H   0  0  0  0  0  0  0  0  0  0  0  0
   -2.0760   -3.4889   -0.7949 H   0  0  0  0  0  0  0  0  0  0  0  0
   -3.1958   -1.9786   -3.0457 H   0  0  0  0  0  0  0  0  0  0  0  0
   -1.5828   -2.6801   -2.9315 H   0  0  0  0  0  0  0  0  0  0  0  0
   -1.8940    0.0242   -2.9951 H   0  0  0  0  0  0  0  0  0  0  0  0
   -0.6514   -0.7666   -2.0307 H   0  0  0  0  0  0  0  0  0  0  0  0
  1  2  1  0
  2  3  2  0
  3  4  1  0
  4  5  2  0
  5  6  1  0
  6  7  2  0
  7  8  1  0
  8  9  1  0
  9 10  1  0
 10 11  1  0
 11 12  2  0
 12 13  1  0
 13 14  2  0
 14 15  1  0
 15 16  2  0
 16 17  1  0
 17 18  1  0
 14 19  1  0
 19 20  2  0
 20 21  1  0
 21 22  2  0
 22 23  1  0
 23 24  2  0
 24 25  1  0
 25 26  1  0
 26 27  1  0
 27 28  1  0
 28 29  1  0
 29 30  1  0
  7  2  1  0
 18 10  2  0
 24 19  1  0
 30 26  1  0
 17 12  1  0
 26 13  1  0
  1 31  1  0
  1 32  1  0
  1 33  1  0
  3 34  1  0
  4 35  1  0
  5 36  1  0
  6 37  1  0
  9 38  1  0
  9 39  1  0
 16 40  1  0
 20 41  1  0
 21 42  1  0
 22 43  1  0
 23 44  1  0
 25 45  1  0
 25 46  1  0
 27 47  1  0
 27 48  1  0
 28 49  1  0
 28 50  1  0
 29 51  1  0
 29 52  1  0
 30 53  1  0
 30 54  1  0
M  END
$$$$
