
     RDKit          3D

 42 44  0  0  0  0  0  0  0  0999 V2000
   -5.1501    2.4114    2.5302 N   0  0  0  0  0  0  0  0  0  0  0  0
   -5.2831    1.5346    1.7813 C   0  0  0  0  0  0  0  0  0  0  0  0
   -5.5021    0.4343    0.8329 C   0  0  0  0  0  0  0  0  0  0  0  0
   -4.4982    0.4736   -0.3276 C   0  0  0  0  0  0  0  0  0  0  0  0
   -3.1258    0.1177    0.0649 N   0  0  0  0  0  0  0  0  0  0  0  0
   -2.9319   -1.3261    0.3123 C   0  0  0  0  0  0  0  0  0  0  0  0
   -2.1240   -2.0824   -0.7624 C   0  0  0  0  0  0  0  0  0  0  0  0
   -0.8168   -1.4628   -1.0363 N   0  0  0  0  0  0  0  0  0  0  0  0
    0.2490   -2.1709   -1.6140 C   0  0  0  0  0  0  0  0  0  0  0  0
    0.0969   -3.7084   -2.2952 S   0  0  0  0  0  0  0  0  0  0  0  0
    1.5783   -1.5758   -1.6416 C   0  0  0  0  0  0  0  0  0  0  0  0
    2.6459   -1.6823   -2.5191 C   0  0  0  0  0  0  0  0  0  0  0  0
    3.6956   -0.8839   -2.0016 C   0  0  0  0  0  0  0  0  0  0  0  0
    3.2317   -0.3344   -0.8248 C   0  0  0  0  0  0  0  0  0  0  0  0
    3.7968    0.5598    0.1830 C   0  0  0  0  0  0  0  0  0  0  0  0
    5.0622    1.1352   -0.0032 C   0  0  0  0  0  0  0  0  0  0  0  0
    5.6101    1.9924    0.9574 C   0  0  0  0  0  0  0  0  0  0  0  0
    4.9006    2.2883    2.1225 C   0  0  0  0  0  0  0  0  0  0  0  0
    5.6368    3.3539    3.2648 Cl  0  0  0  0  0  0  0  0  0  0  0  0
    3.6391    1.7225    2.3245 C   0  0  0  0  0  0  0  0  0  0  0  0
    2.7000    2.0385    3.7405 Cl  0  0  0  0  0  0  0  0  0  0  0  0
    3.0946    0.8653    1.3601 C   0  0  0  0  0  0  0  0  0  0  0  0
    1.9519   -0.7551   -0.6070 O   0  0  0  0  0  0  0  0  0  0  0  0
   -0.7569   -0.0128   -0.7841 C   0  0  0  0  0  0  0  0  0  0  0  0
   -2.1428    0.6485   -0.9005 C   0  0  0  0  0  0  0  0  0  0  0  0
   -6.5132    0.5263    0.4181 H   0  0  0  0  0  0  0  0  0  0  0  0
   -5.4707   -0.5260    1.3579 H   0  0  0  0  0  0  0  0  0  0  0  0
   -4.8395   -0.1943   -1.1293 H   0  0  0  0  0  0  0  0  0  0  0  0
   -4.5099    1.4900   -0.7451 H   0  0  0  0  0  0  0  0  0  0  0  0
   -3.8839   -1.8466    0.4664 H   0  0  0  0  0  0  0  0  0  0  0  0
   -2.3883   -1.4102    1.2622 H   0  0  0  0  0  0  0  0  0  0  0  0
   -1.9809   -3.1160   -0.4313 H   0  0  0  0  0  0  0  0  0  0  0  0
   -2.6826   -2.1017   -1.7062 H   0  0  0  0  0  0  0  0  0  0  0  0
    2.6648   -2.2679   -3.4286 H   0  0  0  0  0  0  0  0  0  0  0  0
    4.6741   -0.7409   -2.4375 H   0  0  0  0  0  0  0  0  0  0  0  0
    5.6414    0.9270   -0.9003 H   0  0  0  0  0  0  0  0  0  0  0  0
    6.5933    2.4259    0.7881 H   0  0  0  0  0  0  0  0  0  0  0  0
    2.1126    0.4294    1.5358 H   0  0  0  0  0  0  0  0  0  0  0  0
   -0.0799    0.4621   -1.5015 H   0  0  0  0  0  0  0  0  0  0  0  0
   -0.3537    0.1318    0.2251 H   0  0  0  0  0  0  0  0  0  0  0  0
   -2.0366    1.7277   -0.7406 H   0  0  0  0  0  0  0  0  0  0  0  0
   -2.5046    0.5024   -1.9276 H   0  0  0  0  0  0  0  0  0  0  0  0
  1  2  3  0
  2  3  1  0
  3  4  1  0
  4  5  1  0
  5  6  1  0
  6  7  1  0
  7  8  1  0
  8  9  1  0
  9 10  2  0
  9 11  1  0
 11 12  2  0
 12 13  1  0
 13 14  2  0
 14 15  1  0
 15 16  2  0
 16 17  1  0
 17 18  2  0
 18 19  1  0
 18 20  1  0
 20 21  1  0
 20 22  2  0
 14 23  1  0
  8 24  1  0
 24 25  1  0
 25  5  1  0
 23 11  1  0
 22 15  1  0
  3 26  1  0
  3 27  1  0
  4 28  1  0
  4 29  1  0
  6 30  1  0
  6 31  1  0
  7 32  1  0
  7 33  1  0
 12 34  1  0
 13 35  1  0
 16 36  1  0
 17 37  1  0
 22 38  1  0
 24 39  1  0
 24 40  1  0
 25 41  1  0
 25 42  1  0
M  END
$$$$
