
     RDKit          3D

 45 47  0  0  0  0  0  0  0  0999 V2000
    1.7348   -0.9916   -1.6216 O   0  0  0  0  0  0  0  0  0  0  0  0
    1.6248   -0.7208   -0.4375 C   0  0  0  0  0  0  0  0  0  0  0  0
    2.5765   -0.9093    0.5328 N   0  0  0  0  0  0  0  0  0  0  0  0
    3.9142   -1.2950    0.1561 C   0  0  0  0  0  0  0  0  0  0  0  0
    4.7189   -1.4859    1.3843 C   0  0  0  0  0  0  0  0  0  0  0  0
    5.3837   -0.6145    2.2235 C   0  0  0  0  0  0  0  0  0  0  0  0
    5.9653   -1.4070    3.2421 C   0  0  0  0  0  0  0  0  0  0  0  0
    5.6181   -2.7074    2.9612 C   0  0  0  0  0  0  0  0  0  0  0  0
    4.8600   -2.7653    1.8364 O   0  0  0  0  0  0  0  0  0  0  0  0
    0.3216   -0.1114    0.0801 C   0  0  0  0  0  0  0  0  0  0  0  0
   -0.7979   -1.0927    0.1645 C   0  0  0  0  0  0  0  0  0  0  0  0
   -2.0083   -0.7350    0.6205 C   0  0  0  0  0  0  0  0  0  0  0  0
   -3.1770   -1.6735    0.7156 C   0  0  0  0  0  0  0  0  0  0  0  0
   -4.3436   -1.2208   -0.1285 C   0  0  0  0  0  0  0  0  0  0  0  0
   -5.4065   -0.5084    0.4450 C   0  0  0  0  0  0  0  0  0  0  0  0
   -6.4754   -0.0766   -0.3422 C   0  0  0  0  0  0  0  0  0  0  0  0
   -6.4902   -0.3469   -1.7092 C   0  0  0  0  0  0  0  0  0  0  0  0
   -5.4355   -1.0471   -2.2916 C   0  0  0  0  0  0  0  0  0  0  0  0
   -4.3660   -1.4805   -1.5065 C   0  0  0  0  0  0  0  0  0  0  0  0
    0.1934    1.1378    0.4133 N   0  0  0  0  0  0  0  0  0  0  0  0
    1.2905    1.9463    0.2757 C   0  0  0  0  0  0  0  0  0  0  0  0
    2.3012    1.8304    0.9618 O   0  0  0  0  0  0  0  0  0  0  0  0
    1.1110    2.9648   -0.7390 C   0  0  0  0  0  0  0  0  0  0  0  0
    1.9500    3.9879   -1.1451 C   0  0  0  0  0  0  0  0  0  0  0  0
    1.2793    4.6816   -2.1821 C   0  0  0  0  0  0  0  0  0  0  0  0
    0.0730    4.0432   -2.3514 C   0  0  0  0  0  0  0  0  0  0  0  0
   -1.2616    4.5318   -3.6151 Br  0  0  0  0  0  0  0  0  0  0  0  0
   -0.0386    3.0032   -1.4853 O   0  0  0  0  0  0  0  0  0  0  0  0
    2.4706   -0.3605    1.3819 H   0  0  0  0  0  0  0  0  0  0  0  0
    3.8667   -2.2098   -0.4443 H   0  0  0  0  0  0  0  0  0  0  0  0
    4.3395   -0.5016   -0.4683 H   0  0  0  0  0  0  0  0  0  0  0  0
    5.4354    0.4603    2.1115 H   0  0  0  0  0  0  0  0  0  0  0  0
    6.5622   -1.0733    4.0791 H   0  0  0  0  0  0  0  0  0  0  0  0
    5.8185   -3.6567    3.4383 H   0  0  0  0  0  0  0  0  0  0  0  0
   -0.5890   -2.1023   -0.1745 H   0  0  0  0  0  0  0  0  0  0  0  0
   -2.1897    0.2893    0.9433 H   0  0  0  0  0  0  0  0  0  0  0  0
   -3.4853   -1.7461    1.7661 H   0  0  0  0  0  0  0  0  0  0  0  0
   -2.8959   -2.6920    0.4184 H   0  0  0  0  0  0  0  0  0  0  0  0
   -5.4068   -0.2824    1.5088 H   0  0  0  0  0  0  0  0  0  0  0  0
   -7.2949    0.4754    0.1108 H   0  0  0  0  0  0  0  0  0  0  0  0
   -7.3209   -0.0071   -2.3219 H   0  0  0  0  0  0  0  0  0  0  0  0
   -5.4424   -1.2514   -3.3589 H   0  0  0  0  0  0  0  0  0  0  0  0
   -3.5452   -2.0173   -1.9770 H   0  0  0  0  0  0  0  0  0  0  0  0
    2.9284    4.1989   -0.7344 H   0  0  0  0  0  0  0  0  0  0  0  0
    1.6332    5.5392   -2.7370 H   0  0  0  0  0  0  0  0  0  0  0  0
  1  2  2  0
  2  3  1  0
  3  4  1  0
  4  5  1  0
  5  6  2  0
  6  7  1  0
  7  8  2  0
  8  9  1  0
  2 10  1  0
 10 11  1  0
 11 12  2  3
 12 13  1  0
 13 14  1  0
 14 15  2  0
 15 16  1  0
 16 17  2  0
 17 18  1  0
 18 19  2  0
 10 20  2  3
 20 21  1  0
 21 22  2  0
 21 23  1  0
 23 24  2  0
 24 25  1  0
 25 26  2  0
 26 27  1  0
 26 28  1  0
  9  5  1  0
 19 14  1  0
 28 23  1  0
  3 29  1  0
  4 30  1  0
  4 31  1  0
  6 32  1  0
  7 33  1  0
  8 34  1  0
 11 35  1  0
 12 36  1  0
 13 37  1  0
 13 38  1  0
 15 39  1  0
 16 40  1  0
 17 41  1  0
 18 42  1  0
 19 43  1  0
 24 44  1  0
 25 45  1  0
M  END
$$$$
