
     RDKit          3D

 52 54  0  0  0  0  0  0  0  0999 V2000
   -5.7899    0.2312    2.0002 C   0  0  0  0  0  0  0  0  0  0  0  0
   -6.3046   -0.9884    1.2359 C   0  0  0  0  0  0  0  0  0  0  0  0
   -7.8042   -1.1614    1.4956 C   0  0  0  0  0  0  0  0  0  0  0  0
   -6.0497   -0.9098   -0.2838 C   0  0  0  0  0  0  0  0  0  0  0  0
   -4.5712   -0.8645   -0.6775 C   0  0  0  0  0  0  0  0  0  0  0  0
   -4.0697    0.4548   -0.4725 O   0  0  0  0  0  0  0  0  0  0  0  0
   -2.7520    0.6777   -0.7603 C   0  0  0  0  0  0  0  0  0  0  0  0
   -2.3188    1.9859   -0.5197 C   0  0  0  0  0  0  0  0  0  0  0  0
   -0.9955    2.3554   -0.7680 C   0  0  0  0  0  0  0  0  0  0  0  0
   -0.0928    1.4038   -1.2451 C   0  0  0  0  0  0  0  0  0  0  0  0
    1.3030    1.8154   -1.5174 C   0  0  0  0  0  0  0  0  0  0  0  0
    1.4828    2.7882   -2.2459 O   0  0  0  0  0  0  0  0  0  0  0  0
    2.3403    1.0904   -0.9416 N   0  0  0  0  0  0  0  0  0  0  0  0
    3.7156    1.4612   -1.2834 C   0  0  0  0  0  0  0  0  0  0  0  0
    4.7293    0.3251   -1.0572 C   0  0  0  0  0  0  0  0  0  0  0  0
    4.6073   -0.2583    0.2818 N   0  0  0  0  0  0  0  0  0  0  0  0
    5.7586   -0.6357    0.9397 C   0  0  0  0  0  0  0  0  0  0  0  0
    6.8831   -0.8190    0.2262 N   0  0  0  0  0  0  0  0  0  0  0  0
    7.9911   -1.2064    0.8860 C   0  0  0  0  0  0  0  0  0  0  0  0
    8.0305   -1.4229    2.2379 C   0  0  0  0  0  0  0  0  0  0  0  0
    6.8431   -1.2167    2.8888 C   0  0  0  0  0  0  0  0  0  0  0  0
    5.7114   -0.8305    2.2695 N   0  0  0  0  0  0  0  0  0  0  0  0
    3.4285    0.0645    1.0807 C   0  0  0  0  0  0  0  0  0  0  0  0
    2.1790    0.1582    0.1850 C   0  0  0  0  0  0  0  0  0  0  0  0
   -0.5225    0.1004   -1.5130 C   0  0  0  0  0  0  0  0  0  0  0  0
   -1.8507   -0.2629   -1.2639 C   0  0  0  0  0  0  0  0  0  0  0  0
   -4.6971    0.2768    1.9857 H   0  0  0  0  0  0  0  0  0  0  0  0
   -6.0921    0.1872    3.0523 H   0  0  0  0  0  0  0  0  0  0  0  0
   -6.1814    1.1616    1.5756 H   0  0  0  0  0  0  0  0  0  0  0  0
   -5.7942   -1.8768    1.6295 H   0  0  0  0  0  0  0  0  0  0  0  0
   -8.1862   -2.0568    0.9938 H   0  0  0  0  0  0  0  0  0  0  0  0
   -8.0043   -1.2711    2.5668 H   0  0  0  0  0  0  0  0  0  0  0  0
   -8.3725   -0.2989    1.1309 H   0  0  0  0  0  0  0  0  0  0  0  0
   -6.4936   -1.7984   -0.7504 H   0  0  0  0  0  0  0  0  0  0  0  0
   -6.5657   -0.0331   -0.6951 H   0  0  0  0  0  0  0  0  0  0  0  0
   -4.4928   -1.1152   -1.7424 H   0  0  0  0  0  0  0  0  0  0  0  0
   -4.0057   -1.5938   -0.0853 H   0  0  0  0  0  0  0  0  0  0  0  0
   -3.0220    2.7250   -0.1425 H   0  0  0  0  0  0  0  0  0  0  0  0
   -0.6724    3.3787   -0.5928 H   0  0  0  0  0  0  0  0  0  0  0  0
    3.9750    2.3221   -0.6544 H   0  0  0  0  0  0  0  0  0  0  0  0
    3.7599    1.7951   -2.3262 H   0  0  0  0  0  0  0  0  0  0  0  0
    5.7274    0.7374   -1.2482 H   0  0  0  0  0  0  0  0  0  0  0  0
    4.5526   -0.4691   -1.7926 H   0  0  0  0  0  0  0  0  0  0  0  0
    8.8731   -1.3412    0.2674 H   0  0  0  0  0  0  0  0  0  0  0  0
    8.9285   -1.7339    2.7508 H   0  0  0  0  0  0  0  0  0  0  0  0
    6.7566   -1.3600    3.9615 H   0  0  0  0  0  0  0  0  0  0  0  0
    3.2371   -0.7055    1.8380 H   0  0  0  0  0  0  0  0  0  0  0  0
    3.5825    1.0202    1.5977 H   0  0  0  0  0  0  0  0  0  0  0  0
    1.3164    0.4519    0.7916 H   0  0  0  0  0  0  0  0  0  0  0  0
    1.9733   -0.8265   -0.2507 H   0  0  0  0  0  0  0  0  0  0  0  0
    0.1663   -0.6295   -1.9305 H   0  0  0  0  0  0  0  0  0  0  0  0
   -2.1505   -1.2821   -1.4839 H   0  0  0  0  0  0  0  0  0  0  0  0
  1  2  1  0
  2  3  1  0
  2  4  1  0
  4  5  1  0
  5  6  1  0
  6  7  1  0
  7  8  2  0
  8  9  1  0
  9 10  2  0
 10 11  1  0
 11 12  2  0
 11 13  1  0
 13 14  1  0
 14 15  1  0
 15 16  1  0
 16 17  1  0
 17 18  2  0
 18 19  1  0
 19 20  2  0
 20 21  1  0
 21 22  2  0
 16 23  1  0
 23 24  1  0
 10 25  1  0
 25 26  2  0
 26  7  1  0
 24 13  1  0
 22 17  1  0
  1 27  1  0
  1 28  1  0
  1 29  1  0
  2 30  1  0
  3 31  1  0
  3 32  1  0
  3 33  1  0
  4 34  1  0
  4 35  1  0
  5 36  1  0
  5 37  1  0
  8 38  1  0
  9 39  1  0
 14 40  1  0
 14 41  1  0
 15 42  1  0
 15 43  1  0
 19 44  1  0
 20 45  1  0
 21 46  1  0
 23 47  1  0
 23 48  1  0
 24 49  1  0
 24 50  1  0
 25 51  1  0
 26 52  1  0
M  END
$$$$
