
     RDKit          3D

 32 33  0  0  0  0  0  0  0  0999 V2000
   -0.4583    1.4622    1.2830 C   0  0  0  0  0  0  0  0  0  0  0  0
   -0.0704    0.2903    0.3781 C   0  0  0  0  0  0  0  0  0  0  0  0
   -0.9398   -0.9585    0.6150 C   0  0  0  0  0  0  0  0  0  0  0  0
   -2.3692   -0.7849    0.1680 C   0  0  0  0  0  0  0  0  0  0  0  0
   -2.7008   -0.8484   -1.1929 C   0  0  0  0  0  0  0  0  0  0  0  0
   -4.0206   -0.6641   -1.6070 C   0  0  0  0  0  0  0  0  0  0  0  0
   -5.0196   -0.4172   -0.6680 C   0  0  0  0  0  0  0  0  0  0  0  0
   -4.7015   -0.3582    0.6870 C   0  0  0  0  0  0  0  0  0  0  0  0
   -3.3830   -0.5422    1.1051 C   0  0  0  0  0  0  0  0  0  0  0  0
    1.3401   -0.0420    0.5590 N   0  0  0  0  0  4  0  0  0  0  0  0
    2.2617    0.0480   -0.4458 C   0  0  0  0  0  0  0  0  0  0  0  0
    3.4729   -0.2893    0.1295 C   0  0  0  0  0  0  0  0  0  0  0  0
    4.7316   -0.3483   -0.3661 N   0  0  0  0  0  0  0  0  0  0  0  0
    5.0104    0.4864   -1.3202 C   0  0  0  0  0  0  0  0  0  0  0  0
    6.2250    0.4973   -1.8974 N   0  0  0  0  0  0  0  0  0  0  0  0
    4.3979    1.3971   -1.8881 O   0  0  0  0  0  1  0  0  0  0  0  0
    3.1991   -0.6187    1.4525 O   0  0  0  0  0  0  0  0  0  0  0  0
    1.8305   -0.4441    1.7107 N   0  0  0  0  0  0  0  0  0  0  0  0
   -1.4685    1.8200    1.0627 H   0  0  0  0  0  0  0  0  0  0  0  0
    0.2317    2.3007    1.1387 H   0  0  0  0  0  0  0  0  0  0  0  0
   -0.4177    1.1801    2.3404 H   0  0  0  0  0  0  0  0  0  0  0  0
   -0.1990    0.6228   -0.6611 H   0  0  0  0  0  0  0  0  0  0  0  0
   -0.5120   -1.8127    0.0728 H   0  0  0  0  0  0  0  0  0  0  0  0
   -0.9105   -1.2465    1.6740 H   0  0  0  0  0  0  0  0  0  0  0  0
   -1.9426   -1.0510   -1.9468 H   0  0  0  0  0  0  0  0  0  0  0  0
   -4.2731   -0.7180   -2.6636 H   0  0  0  0  0  0  0  0  0  0  0  0
   -6.0480   -0.2769   -0.9921 H   0  0  0  0  0  0  0  0  0  0  0  0
   -5.4844   -0.1722    1.4187 H   0  0  0  0  0  0  0  0  0  0  0  0
   -3.1614   -0.4961    2.1696 H   0  0  0  0  0  0  0  0  0  0  0  0
    2.0612    0.3508   -1.4618 H   0  0  0  0  0  0  0  0  0  0  0  0
    6.3561    1.3913   -2.3536 H   0  0  0  0  0  0  0  0  0  0  0  0
    6.9622    0.2424   -1.2591 H   0  0  0  0  0  0  0  0  0  0  0  0
  1  2  1  0
  2  3  1  0
  3  4  1  0
  4  5  2  0
  5  6  1  0
  6  7  2  0
  7  8  1  0
  8  9  2  0
  2 10  1  0
 10 11  1  0
 11 12  2  0
 12 13  1  0
 13 14  2  3
 14 15  1  0
 14 16  1  0
 12 17  1  0
 17 18  1  0
  9  4  1  0
 18 10  2  0
  1 19  1  0
  1 20  1  0
  1 21  1  0
  2 22  1  0
  3 23  1  0
  3 24  1  0
  5 25  1  0
  6 26  1  0
  7 27  1  0
  8 28  1  0
  9 29  1  0
 11 30  1  0
 15 31  1  0
 15 32  1  0
M  CHG  2  10   1  16  -1
M  END
$$$$
