
     RDKit          3D

 48 50  0  0  0  0  0  0  0  0999 V2000
   -2.1372   -1.5085   -2.4429 O   0  0  0  0  0  0  0  0  0  0  0  0
   -1.2116   -0.8437   -1.9839 C   0  0  0  0  0  0  0  0  0  0  0  0
    0.1072   -1.4229   -1.5187 C   0  0  0  0  0  0  0  0  0  0  0  0
    0.1786   -2.9355   -1.7259 C   0  0  0  0  0  0  0  0  0  0  0  0
    1.5510   -3.5270   -1.3858 C   0  0  0  0  0  0  0  0  0  0  0  0
    1.8634   -3.4837    0.0450 N   0  0  0  0  0  0  0  0  0  0  0  0
    2.5664   -2.3965    0.5421 C   0  0  0  0  0  0  0  0  0  0  0  0
    2.9313   -1.4342   -0.1191 O   0  0  0  0  0  0  0  0  0  0  0  0
    2.7821   -2.5437    2.0093 C   0  0  0  0  0  0  0  0  0  0  0  0
    3.4304   -1.7043    2.8287 C   0  0  0  0  0  0  0  0  0  0  0  0
    4.0825   -0.4550    2.4168 C   0  0  0  0  0  0  0  0  0  0  0  0
    3.3806    0.7464    2.5934 C   0  0  0  0  0  0  0  0  0  0  0  0
    3.9525    1.9632    2.2150 C   0  0  0  0  0  0  0  0  0  0  0  0
    5.2300    1.9925    1.6590 C   0  0  0  0  0  0  0  0  0  0  0  0
    5.9396    0.8046    1.4807 C   0  0  0  0  0  0  0  0  0  0  0  0
    5.3706   -0.4153    1.8574 C   0  0  0  0  0  0  0  0  0  0  0  0
    6.3057   -1.8524    1.6244 Cl  0  0  0  0  0  0  0  0  0  0  0  0
    2.0497   -4.0018    2.5630 S   0  0  0  0  0  0  0  0  0  0  0  0
    1.4892   -4.4489    0.9575 C   0  0  0  0  0  0  0  0  0  0  0  0
    0.6354   -5.8557    0.6836 S   0  0  0  0  0  0  0  0  0  0  0  0
   -1.2744    0.5299   -1.8407 N   0  0  0  0  0  0  0  0  0  0  0  0
   -2.5357    1.1240   -1.9887 N   0  0  0  0  0  0  0  0  0  0  0  0
   -2.8629    2.1578   -1.1352 C   0  0  0  0  0  0  0  0  0  0  0  0
   -2.0417    2.6690   -0.3766 O   0  0  0  0  0  0  0  0  0  0  0  0
   -4.2666    2.6527   -1.1800 C   0  0  0  0  0  0  0  0  0  0  0  0
   -5.3374    1.8491   -1.5962 C   0  0  0  0  0  0  0  0  0  0  0  0
   -6.6369    2.3683   -1.6123 C   0  0  0  0  0  0  0  0  0  0  0  0
   -6.8682    3.6825   -1.2076 C   0  0  0  0  0  0  0  0  0  0  0  0
   -8.4677    4.3140   -1.2293 Cl  0  0  0  0  0  0  0  0  0  0  0  0
   -5.8126    4.4842   -0.7790 C   0  0  0  0  0  0  0  0  0  0  0  0
   -4.5139    3.9684   -0.7609 C   0  0  0  0  0  0  0  0  0  0  0  0
    0.2154   -1.1805   -0.4560 H   0  0  0  0  0  0  0  0  0  0  0  0
    0.9115   -0.9287   -2.0757 H   0  0  0  0  0  0  0  0  0  0  0  0
   -0.6057   -3.4226   -1.1347 H   0  0  0  0  0  0  0  0  0  0  0  0
   -0.0387   -3.1620   -2.7775 H   0  0  0  0  0  0  0  0  0  0  0  0
    2.3307   -2.9935   -1.9425 H   0  0  0  0  0  0  0  0  0  0  0  0
    1.5853   -4.5678   -1.7249 H   0  0  0  0  0  0  0  0  0  0  0  0
    3.5180   -1.9241    3.8905 H   0  0  0  0  0  0  0  0  0  0  0  0
    2.3801    0.7448    3.0210 H   0  0  0  0  0  0  0  0  0  0  0  0
    3.3976    2.8888    2.3504 H   0  0  0  0  0  0  0  0  0  0  0  0
    5.6726    2.9400    1.3615 H   0  0  0  0  0  0  0  0  0  0  0  0
    6.9349    0.8353    1.0450 H   0  0  0  0  0  0  0  0  0  0  0  0
   -0.6392    1.0188   -1.2080 H   0  0  0  0  0  0  0  0  0  0  0  0
   -3.1983    0.6175   -2.5703 H   0  0  0  0  0  0  0  0  0  0  0  0
   -5.1946    0.8119   -1.8856 H   0  0  0  0  0  0  0  0  0  0  0  0
   -7.4646    1.7400   -1.9331 H   0  0  0  0  0  0  0  0  0  0  0  0
   -5.9911    5.5066   -0.4559 H   0  0  0  0  0  0  0  0  0  0  0  0
   -3.6930    4.5979   -0.4208 H   0  0  0  0  0  0  0  0  0  0  0  0
  1  2  2  0
  2  3  1  0
  3  4  1  0
  4  5  1  0
  5  6  1  0
  6  7  1  0
  7  8  2  0
  7  9  1  0
  9 10  2  3
 10 11  1  0
 11 12  2  0
 12 13  1  0
 13 14  2  0
 14 15  1  0
 15 16  2  0
 16 17  1  0
  9 18  1  0
 18 19  1  0
 19 20  2  0
  2 21  1  0
 21 22  1  0
 22 23  1  0
 23 24  2  0
 23 25  1  0
 25 26  2  0
 26 27  1  0
 27 28  2  0
 28 29  1  0
 28 30  1  0
 30 31  2  0
 19  6  1  0
 31 25  1  0
 16 11  1  0
  3 32  1  0
  3 33  1  0
  4 34  1  0
  4 35  1  0
  5 36  1  0
  5 37  1  0
 10 38  1  0
 12 39  1  0
 13 40  1  0
 14 41  1  0
 15 42  1  0
 21 43  1  0
 22 44  1  0
 26 45  1  0
 27 46  1  0
 30 47  1  0
 31 48  1  0
M  END
$$$$
