
     RDKit          3D

 52 53  0  0  0  0  0  0  0  0999 V2000
    6.3283    4.4499    2.4295 C   0  0  0  0  0  0  0  0  0  0  0  0
    5.7113    3.1697    2.5012 O   0  0  0  0  0  0  0  0  0  0  0  0
    4.9878    2.7661    1.4100 C   0  0  0  0  0  0  0  0  0  0  0  0
    4.7230    3.5370    0.2776 C   0  0  0  0  0  0  0  0  0  0  0  0
    3.9753    3.0002   -0.7709 C   0  0  0  0  0  0  0  0  0  0  0  0
    3.4880    1.6953   -0.6873 C   0  0  0  0  0  0  0  0  0  0  0  0
    3.7390    0.9135    0.4456 C   0  0  0  0  0  0  0  0  0  0  0  0
    3.2165   -0.3928    0.4458 N   0  0  0  0  0  0  0  0  0  0  0  0
    3.2459   -1.3252    1.4674 C   0  0  0  0  0  0  0  0  0  0  0  0
    3.7020   -1.1688    2.5962 O   0  0  0  0  0  0  0  0  0  0  0  0
    2.5732   -2.6464    1.0713 C   0  0  0  0  0  0  0  0  0  0  0  0
    1.1104   -2.5386    1.0688 N   0  0  0  0  0  0  0  0  0  0  0  0
    0.4781   -2.4836    2.3825 C   0  0  0  0  0  0  0  0  0  0  0  0
    0.5317   -2.0133   -0.0805 C   0  0  0  0  0  0  0  0  0  0  0  0
    1.2131   -1.6645   -1.0461 O   0  0  0  0  0  0  0  0  0  0  0  0
   -0.9453   -1.8542   -0.0955 C   0  0  0  0  0  0  0  0  0  0  0  0
   -1.5195   -1.0548   -1.0094 C   0  0  0  0  0  0  0  0  0  0  0  0
   -2.9769   -0.8642   -1.1253 C   0  0  0  0  0  0  0  0  0  0  0  0
   -3.7476   -0.6141    0.0226 C   0  0  0  0  0  0  0  0  0  0  0  0
   -5.1247   -0.3944   -0.0625 C   0  0  0  0  0  0  0  0  0  0  0  0
   -5.7429   -0.1670    1.1350 O   0  0  0  0  0  0  0  0  0  0  0  0
   -7.1340    0.1324    1.0955 C   0  0  0  0  0  0  0  0  0  0  0  0
   -5.7404   -0.4198   -1.3106 C   0  0  0  0  0  0  0  0  0  0  0  0
   -4.9851   -0.6554   -2.4665 C   0  0  0  0  0  0  0  0  0  0  0  0
   -3.6054   -0.8757   -2.3871 C   0  0  0  0  0  0  0  0  0  0  0  0
   -2.7953   -1.1106   -3.4717 O   0  0  0  0  0  0  0  0  0  0  0  0
   -3.4173   -1.2558   -4.7419 C   0  0  0  0  0  0  0  0  0  0  0  0
    4.4897    1.4583    1.4891 C   0  0  0  0  0  0  0  0  0  0  0  0
    5.5766    5.2472    2.3841 H   0  0  0  0  0  0  0  0  0  0  0  0
    7.0204    4.5103    1.5825 H   0  0  0  0  0  0  0  0  0  0  0  0
    6.9114    4.5918    3.3458 H   0  0  0  0  0  0  0  0  0  0  0  0
    5.0828    4.5553    0.1803 H   0  0  0  0  0  0  0  0  0  0  0  0
    3.7719    3.5979   -1.6561 H   0  0  0  0  0  0  0  0  0  0  0  0
    2.9081    1.2981   -1.5171 H   0  0  0  0  0  0  0  0  0  0  0  0
    2.6828   -0.6674   -0.3819 H   0  0  0  0  0  0  0  0  0  0  0  0
    2.8750   -3.4313    1.7741 H   0  0  0  0  0  0  0  0  0  0  0  0
    2.9359   -2.9505    0.0819 H   0  0  0  0  0  0  0  0  0  0  0  0
   -0.5398   -2.8747    2.3470 H   0  0  0  0  0  0  0  0  0  0  0  0
    1.0446   -3.0894    3.0958 H   0  0  0  0  0  0  0  0  0  0  0  0
    0.4529   -1.4428    2.7180 H   0  0  0  0  0  0  0  0  0  0  0  0
   -1.5426   -2.4300    0.5963 H   0  0  0  0  0  0  0  0  0  0  0  0
   -0.9182   -0.5295   -1.7495 H   0  0  0  0  0  0  0  0  0  0  0  0
   -3.2759   -0.5705    1.0019 H   0  0  0  0  0  0  0  0  0  0  0  0
   -7.4676    0.3127    2.1217 H   0  0  0  0  0  0  0  0  0  0  0  0
   -7.7079   -0.7134    0.7046 H   0  0  0  0  0  0  0  0  0  0  0  0
   -7.3259    1.0423    0.5176 H   0  0  0  0  0  0  0  0  0  0  0  0
   -6.8073   -0.2554   -1.4259 H   0  0  0  0  0  0  0  0  0  0  0  0
   -5.5083   -0.6559   -3.4171 H   0  0  0  0  0  0  0  0  0  0  0  0
   -3.8881   -0.3186   -5.0581 H   0  0  0  0  0  0  0  0  0  0  0  0
   -2.6376   -1.4983   -5.4709 H   0  0  0  0  0  0  0  0  0  0  0  0
   -4.1375   -2.0815   -4.7392 H   0  0  0  0  0  0  0  0  0  0  0  0
    4.7151    0.8829    2.3814 H   0  0  0  0  0  0  0  0  0  0  0  0
  1  2  1  0
  2  3  1  0
  3  4  2  0
  4  5  1  0
  5  6  2  0
  6  7  1  0
  7  8  1  0
  8  9  1  0
  9 10  2  0
  9 11  1  0
 11 12  1  0
 12 13  1  0
 12 14  1  0
 14 15  2  0
 14 16  1  0
 16 17  2  3
 17 18  1  0
 18 19  2  0
 19 20  1  0
 20 21  1  0
 21 22  1  0
 20 23  2  0
 23 24  1  0
 24 25  2  0
 25 26  1  0
 26 27  1  0
  7 28  2  0
 28  3  1  0
 25 18  1  0
  1 29  1  0
  1 30  1  0
  1 31  1  0
  4 32  1  0
  5 33  1  0
  6 34  1  0
  8 35  1  0
 11 36  1  0
 11 37  1  0
 13 38  1  0
 13 39  1  0
 13 40  1  0
 16 41  1  0
 17 42  1  0
 19 43  1  0
 22 44  1  0
 22 45  1  0
 22 46  1  0
 23 47  1  0
 24 48  1  0
 27 49  1  0
 27 50  1  0
 27 51  1  0
 28 52  1  0
M  END
$$$$
