
     RDKit          3D

 46 48  0  0  0  0  0  0  0  0999 V2000
   -6.7478    0.2567    1.9119 C   0  0  0  0  0  0  0  0  0  0  0  0
   -5.8684   -0.7357    1.1640 C   0  0  0  0  0  0  0  0  0  0  0  0
   -5.6295   -0.2800   -0.2739 C   0  0  0  0  0  0  0  0  0  0  0  0
   -4.6583   -1.4927   -1.2264 S   0  0  0  0  0  0  0  0  0  0  0  0
   -3.0298   -1.1123   -0.6087 C   0  0  0  0  0  0  0  0  0  0  0  0
   -2.6680   -1.8163    0.4921 N   0  0  0  0  0  0  0  0  0  0  0  0
   -1.4342   -1.6194    1.0318 C   0  0  0  0  0  0  0  0  0  0  0  0
   -1.1140   -2.5032    2.2032 C   0  0  0  0  0  0  0  0  0  0  0  0
   -0.5376   -0.6796    0.5164 C   0  0  0  0  0  0  0  0  0  0  0  0
    0.7805   -0.4083    1.0677 C   0  0  0  0  0  0  0  0  0  0  0  0
    1.0372   -0.1377    2.3924 C   0  0  0  0  0  0  0  0  0  0  0  0
    2.7054    0.1696    2.6130 S   0  0  0  0  0  0  0  0  0  0  0  0
    2.9860   -0.0420    0.9058 C   0  0  0  0  0  0  0  0  0  0  0  0
    4.3075    0.1178    0.3628 C   0  0  0  0  0  0  0  0  0  0  0  0
    5.4358   -0.3178    1.1291 C   0  0  0  0  0  0  0  0  0  0  0  0
    6.3557   -0.6689    1.7443 N   0  0  0  0  0  0  0  0  0  0  0  0
    4.4923    0.6572   -0.8665 C   0  0  0  0  0  0  0  0  0  0  0  0
    3.4153    1.1739   -1.7975 C   0  0  0  0  0  0  0  0  0  0  0  0
    4.1692    1.5938   -3.0551 C   0  0  0  0  0  0  0  0  0  0  0  0
    5.5519    1.9648   -2.5516 C   0  0  0  0  0  0  0  0  0  0  0  0
    5.8445    0.9007   -1.5049 C   0  0  0  0  0  0  0  0  0  0  0  0
    1.8811   -0.3216    0.2340 N   0  0  0  0  0  0  0  0  0  0  0  0
   -0.9270    0.0248   -0.6313 C   0  0  0  0  0  0  0  0  0  0  0  0
   -2.1819   -0.1904   -1.2097 C   0  0  0  0  0  0  0  0  0  0  0  0
   -2.5492    0.5465   -2.3785 C   0  0  0  0  0  0  0  0  0  0  0  0
   -2.8218    1.1778   -3.3132 N   0  0  0  0  0  0  0  0  0  0  0  0
   -6.2819    1.2467    1.9422 H   0  0  0  0  0  0  0  0  0  0  0  0
   -7.7269    0.3526    1.4321 H   0  0  0  0  0  0  0  0  0  0  0  0
   -6.9055   -0.0758    2.9431 H   0  0  0  0  0  0  0  0  0  0  0  0
   -6.3549   -1.7185    1.1789 H   0  0  0  0  0  0  0  0  0  0  0  0
   -4.9208   -0.8295    1.7040 H   0  0  0  0  0  0  0  0  0  0  0  0
   -5.1327    0.6965   -0.2979 H   0  0  0  0  0  0  0  0  0  0  0  0
   -6.5905   -0.1658   -0.7870 H   0  0  0  0  0  0  0  0  0  0  0  0
   -1.1524   -1.9322    3.1350 H   0  0  0  0  0  0  0  0  0  0  0  0
   -1.8453   -3.3154    2.2837 H   0  0  0  0  0  0  0  0  0  0  0  0
   -0.1287   -2.9653    2.0890 H   0  0  0  0  0  0  0  0  0  0  0  0
    0.3547   -0.0932    3.2283 H   0  0  0  0  0  0  0  0  0  0  0  0
    2.9179    2.0423   -1.3514 H   0  0  0  0  0  0  0  0  0  0  0  0
    2.6696    0.4159   -2.0530 H   0  0  0  0  0  0  0  0  0  0  0  0
    3.6769    2.4235   -3.5734 H   0  0  0  0  0  0  0  0  0  0  0  0
    4.2357    0.7515   -3.7555 H   0  0  0  0  0  0  0  0  0  0  0  0
    5.5340    2.9608   -2.0908 H   0  0  0  0  0  0  0  0  0  0  0  0
    6.2979    1.9719   -3.3518 H   0  0  0  0  0  0  0  0  0  0  0  0
    6.1930   -0.0180   -1.9909 H   0  0  0  0  0  0  0  0  0  0  0  0
    6.6063    1.2498   -0.8021 H   0  0  0  0  0  0  0  0  0  0  0  0
   -0.2412    0.7444   -1.0778 H   0  0  0  0  0  0  0  0  0  0  0  0
  1  2  1  0
  2  3  1  0
  3  4  1  0
  4  5  1  0
  5  6  2  0
  6  7  1  0
  7  8  1  0
  7  9  2  0
  9 10  1  0
 10 11  2  0
 11 12  1  0
 12 13  1  0
 13 14  1  0
 14 15  1  0
 15 16  3  0
 14 17  2  3
 17 18  1  0
 18 19  1  0
 19 20  1  0
 20 21  1  0
 13 22  2  0
  9 23  1  0
 23 24  2  0
 24 25  1  0
 25 26  3  0
 24  5  1  0
 22 10  1  0
 21 17  1  0
  1 27  1  0
  1 28  1  0
  1 29  1  0
  2 30  1  0
  2 31  1  0
  3 32  1  0
  3 33  1  0
  8 34  1  0
  8 35  1  0
  8 36  1  0
 11 37  1  0
 18 38  1  0
 18 39  1  0
 19 40  1  0
 19 41  1  0
 20 42  1  0
 20 43  1  0
 21 44  1  0
 21 45  1  0
 23 46  1  0
M  END
$$$$
