
     RDKit          3D

 58 62  0  0  0  0  0  0  0  0999 V2000
   -3.1348   -2.9905    2.3811 C   0  0  0  0  0  0  0  0  0  0  0  0
   -3.5093   -3.0260    0.8995 C   0  0  0  0  0  0  0  0  0  0  0  0
   -5.0313   -3.1695    0.6820 C   0  0  0  0  0  0  0  0  0  0  0  0
   -5.4511   -1.7530    0.4683 C   0  0  0  0  0  0  0  0  0  0  0  0
   -6.7379   -1.2389    0.4574 C   0  0  0  0  0  0  0  0  0  0  0  0
   -6.9026    0.1236    0.2062 C   0  0  0  0  0  0  0  0  0  0  0  0
   -5.7892    0.9469   -0.0248 C   0  0  0  0  0  0  0  0  0  0  0  0
   -4.4967    0.4148   -0.0185 C   0  0  0  0  0  0  0  0  0  0  0  0
   -4.3479   -0.9412    0.2102 C   0  0  0  0  0  0  0  0  0  0  0  0
   -3.1211   -1.6919    0.2803 N   0  0  0  0  0  0  0  0  0  0  0  0
   -2.2873   -1.9079   -1.2074 S   0  0  0  0  0  6  0  0  0  0  0  0
   -1.0814   -2.6626   -0.9306 O   0  0  0  0  0  0  0  0  0  0  0  0
   -3.2307   -2.3791   -2.2015 O   0  0  0  0  0  0  0  0  0  0  0  0
   -1.7524   -0.2817   -1.6640 C   0  0  0  0  0  0  0  0  0  0  0  0
   -2.2687    0.3331   -2.8100 C   0  0  0  0  0  0  0  0  0  0  0  0
   -1.8261    1.6073   -3.1648 C   0  0  0  0  0  0  0  0  0  0  0  0
   -0.8578    2.2488   -2.3896 C   0  0  0  0  0  0  0  0  0  0  0  0
   -0.3183    1.6099   -1.2655 C   0  0  0  0  0  0  0  0  0  0  0  0
    0.6978    2.3279   -0.4637 C   0  0  0  0  0  0  0  0  0  0  0  0
    0.4347    3.4760   -0.1132 O   0  0  0  0  0  0  0  0  0  0  0  0
    1.8903    1.6883   -0.1480 N   0  0  0  0  0  0  0  0  0  0  0  0
    2.8507    2.4046    0.6973 C   0  0  0  0  0  0  0  0  0  0  0  0
    3.8836    1.4770    1.3577 C   0  0  0  0  0  0  0  0  0  0  0  0
    4.5752    0.6510    0.3630 N   0  0  0  0  0  0  0  0  0  0  0  0
    5.9561    0.6320    0.3672 C   0  0  0  0  0  0  0  0  0  0  0  0
    6.5967    0.1735   -0.7225 N   0  0  0  0  0  0  0  0  0  0  0  0
    7.9423    0.1509   -0.6990 C   0  0  0  0  0  0  0  0  0  0  0  0
    8.6874    0.5698    0.3706 C   0  0  0  0  0  0  0  0  0  0  0  0
    7.9579    1.0160    1.4408 C   0  0  0  0  0  0  0  0  0  0  0  0
    6.6137    1.0513    1.4616 N   0  0  0  0  0  0  0  0  0  0  0  0
    3.9177    0.4257   -0.9263 C   0  0  0  0  0  0  0  0  0  0  0  0
    2.3850    0.4550   -0.7843 C   0  0  0  0  0  0  0  0  0  0  0  0
   -0.7777    0.3480   -0.8841 C   0  0  0  0  0  0  0  0  0  0  0  0
   -3.4045   -3.9314    2.8708 H   0  0  0  0  0  0  0  0  0  0  0  0
   -2.0560   -2.8421    2.5005 H   0  0  0  0  0  0  0  0  0  0  0  0
   -3.6393   -2.1757    2.9100 H   0  0  0  0  0  0  0  0  0  0  0  0
   -2.9844   -3.8702    0.4396 H   0  0  0  0  0  0  0  0  0  0  0  0
   -5.5355   -3.6382    1.5308 H   0  0  0  0  0  0  0  0  0  0  0  0
   -5.2344   -3.7432   -0.2272 H   0  0  0  0  0  0  0  0  0  0  0  0
   -7.5998   -1.8746    0.6420 H   0  0  0  0  0  0  0  0  0  0  0  0
   -7.9014    0.5541    0.1964 H   0  0  0  0  0  0  0  0  0  0  0  0
   -5.9336    2.0109   -0.1997 H   0  0  0  0  0  0  0  0  0  0  0  0
   -3.6474    1.0723   -0.1566 H   0  0  0  0  0  0  0  0  0  0  0  0
   -3.0196   -0.1659   -3.4197 H   0  0  0  0  0  0  0  0  0  0  0  0
   -2.2350    2.1024   -4.0432 H   0  0  0  0  0  0  0  0  0  0  0  0
   -0.5201    3.2476   -2.6613 H   0  0  0  0  0  0  0  0  0  0  0  0
    3.3609    3.1278    0.0509 H   0  0  0  0  0  0  0  0  0  0  0  0
    2.3115    2.9719    1.4628 H   0  0  0  0  0  0  0  0  0  0  0  0
    4.5585    2.0993    1.9547 H   0  0  0  0  0  0  0  0  0  0  0  0
    3.3702    0.8024    2.0534 H   0  0  0  0  0  0  0  0  0  0  0  0
    8.4123   -0.2281   -1.6001 H   0  0  0  0  0  0  0  0  0  0  0  0
    9.7660    0.5492    0.3708 H   0  0  0  0  0  0  0  0  0  0  0  0
    8.4422    1.3692    2.3456 H   0  0  0  0  0  0  0  0  0  0  0  0
    4.2027   -0.5488   -1.3411 H   0  0  0  0  0  0  0  0  0  0  0  0
    4.2212    1.2033   -1.6394 H   0  0  0  0  0  0  0  0  0  0  0  0
    1.9290    0.3304   -1.7708 H   0  0  0  0  0  0  0  0  0  0  0  0
    2.0629   -0.3766   -0.1477 H   0  0  0  0  0  0  0  0  0  0  0  0
   -0.3931   -0.1351    0.0107 H   0  0  0  0  0  0  0  0  0  0  0  0
  1  2  1  0
  2  3  1  0
  3  4  1  0
  4  5  2  0
  5  6  1  0
  6  7  2  0
  7  8  1  0
  8  9  2  0
  9 10  1  0
 10 11  1  0
 11 12  2  0
 11 13  2  0
 11 14  1  0
 14 15  2  0
 15 16  1  0
 16 17  2  0
 17 18  1  0
 18 19  1  0
 19 20  2  0
 19 21  1  0
 21 22  1  0
 22 23  1  0
 23 24  1  0
 24 25  1  0
 25 26  2  0
 26 27  1  0
 27 28  2  0
 28 29  1  0
 29 30  2  0
 24 31  1  0
 31 32  1  0
 18 33  2  0
 10  2  1  0
 33 14  1  0
  9  4  1  0
 32 21  1  0
 30 25  1  0
  1 34  1  0
  1 35  1  0
  1 36  1  0
  2 37  1  0
  3 38  1  0
  3 39  1  0
  5 40  1  0
  6 41  1  0
  7 42  1  0
  8 43  1  0
 15 44  1  0
 16 45  1  0
 17 46  1  0
 22 47  1  0
 22 48  1  0
 23 49  1  0
 23 50  1  0
 27 51  1  0
 28 52  1  0
 29 53  1  0
 31 54  1  0
 31 55  1  0
 32 56  1  0
 32 57  1  0
 33 58  1  0
M  END
$$$$
