
     RDKit          3D

 70 73  0  0  0  0  0  0  0  0999 V2000
   -3.7110    1.2625    1.7194 C   0  0  0  0  0  0  0  0  0  0  0  0
   -2.4129    0.7894    1.3756 O   0  0  0  0  0  0  0  0  0  0  0  0
   -1.6660    1.5463    0.5101 C   0  0  0  0  0  0  0  0  0  0  0  0
   -1.9091    2.9126    0.2868 C   0  0  0  0  0  0  0  0  0  0  0  0
   -1.1165    3.6593   -0.5947 C   0  0  0  0  0  0  0  0  0  0  0  0
   -1.2969    4.9948   -0.8593 O   0  0  0  0  0  0  0  0  0  0  0  0
   -2.3233    5.6792   -0.1527 C   0  0  0  0  0  0  0  0  0  0  0  0
   -0.0621    3.0286   -1.2700 C   0  0  0  0  0  0  0  0  0  0  0  0
    0.8043    3.7379   -2.2113 C   0  0  0  0  0  0  0  0  0  0  0  0
    1.7937    3.0991   -2.8408 C   0  0  0  0  0  0  0  0  0  0  0  0
    2.0605    1.6713   -2.6273 C   0  0  0  0  0  0  0  0  0  0  0  0
    2.9605    1.1011   -3.2348 O   0  0  0  0  0  0  0  0  0  0  0  0
    1.2367    1.0218   -1.7219 O   0  0  0  0  0  0  0  0  0  0  0  0
    0.1772    1.6702   -1.0330 C   0  0  0  0  0  0  0  0  0  0  0  0
   -0.5943    0.9007   -0.1361 C   0  0  0  0  0  0  0  0  0  0  0  0
   -0.2578   -0.5793    0.0816 C   0  0  0  0  0  0  0  0  0  0  0  0
    0.0086   -0.9803    1.5585 C   0  0  0  0  0  0  0  0  0  0  0  0
    1.0812   -0.1292    2.2637 C   0  0  0  0  0  0  0  0  0  0  0  0
    2.3770   -0.0726    1.5744 N   0  0  0  0  0  0  0  0  0  0  0  0
    3.0237   -1.3876    1.4714 C   0  0  0  0  0  0  0  0  0  0  0  0
    4.4801   -1.2672    1.0312 C   0  0  0  0  0  0  0  0  0  0  0  0
    5.3132   -0.4772    2.0395 C   0  0  0  0  0  0  0  0  0  0  0  0
    4.4539    0.4525    2.9084 C   0  0  0  0  0  0  0  0  0  0  0  0
    5.2935    1.5974    3.4718 C   0  0  0  0  0  0  0  0  0  0  0  0
    3.2509    0.9821    2.1152 C   0  0  0  0  0  0  0  0  0  0  0  0
   -1.2371   -1.5004   -0.6505 C   0  0  0  0  0  0  0  0  0  0  0  0
   -1.0349   -1.7748   -2.0083 C   0  0  0  0  0  0  0  0  0  0  0  0
   -1.9132   -2.6051   -2.7212 C   0  0  0  0  0  0  0  0  0  0  0  0
   -3.0313   -3.2084   -2.1220 C   0  0  0  0  0  0  0  0  0  0  0  0
   -3.9148   -4.0236   -2.8427 N   0  0  0  0  0  0  0  0  0  0  0  0
   -4.8838   -4.8355   -2.1087 C   0  0  0  0  0  0  0  0  0  0  0  0
   -3.4639   -4.5827   -4.1174 C   0  0  0  0  0  0  0  0  0  0  0  0
   -3.2309   -2.8988   -0.7655 C   0  0  0  0  0  0  0  0  0  0  0  0
   -2.3567   -2.0702   -0.0416 C   0  0  0  0  0  0  0  0  0  0  0  0
   -3.6438    2.1003    2.4218 H   0  0  0  0  0  0  0  0  0  0  0  0
   -4.2930    1.5319    0.8305 H   0  0  0  0  0  0  0  0  0  0  0  0
   -4.2394    0.4487    2.2258 H   0  0  0  0  0  0  0  0  0  0  0  0
   -2.7197    3.3961    0.8165 H   0  0  0  0  0  0  0  0  0  0  0  0
   -2.1434    5.6547    0.9274 H   0  0  0  0  0  0  0  0  0  0  0  0
   -3.3102    5.2745   -0.4008 H   0  0  0  0  0  0  0  0  0  0  0  0
   -2.3042    6.7267   -0.4684 H   0  0  0  0  0  0  0  0  0  0  0  0
    0.6274    4.7934   -2.3900 H   0  0  0  0  0  0  0  0  0  0  0  0
    2.4435    3.6022   -3.5456 H   0  0  0  0  0  0  0  0  0  0  0  0
    0.7052   -0.7822   -0.4038 H   0  0  0  0  0  0  0  0  0  0  0  0
    0.3034   -2.0377    1.5913 H   0  0  0  0  0  0  0  0  0  0  0  0
   -0.9027   -0.9224    2.1629 H   0  0  0  0  0  0  0  0  0  0  0  0
    1.2171   -0.5037    3.2870 H   0  0  0  0  0  0  0  0  0  0  0  0
    0.6775    0.8861    2.3633 H   0  0  0  0  0  0  0  0  0  0  0  0
    2.9839   -1.9208    2.4301 H   0  0  0  0  0  0  0  0  0  0  0  0
    2.4949   -2.0038    0.7362 H   0  0  0  0  0  0  0  0  0  0  0  0
    4.9170   -2.2629    0.8916 H   0  0  0  0  0  0  0  0  0  0  0  0
    4.5237   -0.7713    0.0525 H   0  0  0  0  0  0  0  0  0  0  0  0
    5.8511   -1.1727    2.6974 H   0  0  0  0  0  0  0  0  0  0  0  0
    6.0839    0.0839    1.4955 H   0  0  0  0  0  0  0  0  0  0  0  0
    4.0742   -0.1247    3.7628 H   0  0  0  0  0  0  0  0  0  0  0  0
    6.1240    1.2102    4.0746 H   0  0  0  0  0  0  0  0  0  0  0  0
    4.6857    2.2442    4.1153 H   0  0  0  0  0  0  0  0  0  0  0  0
    5.7140    2.2162    2.6708 H   0  0  0  0  0  0  0  0  0  0  0  0
    3.6155    1.5705    1.2637 H   0  0  0  0  0  0  0  0  0  0  0  0
    2.6886    1.6892    2.7360 H   0  0  0  0  0  0  0  0  0  0  0  0
   -0.1850   -1.3417   -2.5342 H   0  0  0  0  0  0  0  0  0  0  0  0
   -1.6882   -2.7571   -3.7719 H   0  0  0  0  0  0  0  0  0  0  0  0
   -5.5169   -5.4109   -2.7941 H   0  0  0  0  0  0  0  0  0  0  0  0
   -4.3800   -5.5472   -1.4446 H   0  0  0  0  0  0  0  0  0  0  0  0
   -5.5690   -4.2095   -1.5272 H   0  0  0  0  0  0  0  0  0  0  0  0
   -3.2724   -3.7937   -4.8531 H   0  0  0  0  0  0  0  0  0  0  0  0
   -2.5609   -5.1898   -3.9844 H   0  0  0  0  0  0  0  0  0  0  0  0
   -4.2315   -5.2260   -4.5616 H   0  0  0  0  0  0  0  0  0  0  0  0
   -4.0859   -3.2917   -0.2238 H   0  0  0  0  0  0  0  0  0  0  0  0
   -2.5829   -1.8733    1.0030 H   0  0  0  0  0  0  0  0  0  0  0  0
  1  2  1  0
  2  3  1  0
  3  4  2  0
  4  5  1  0
  5  6  1  0
  6  7  1  0
  5  8  2  0
  8  9  1  0
  9 10  2  0
 10 11  1  0
 11 12  2  0
 11 13  1  0
 13 14  1  0
 14 15  2  0
 15 16  1  0
 16 17  1  0
 17 18  1  0
 18 19  1  0
 19 20  1  0
 20 21  1  0
 21 22  1  0
 22 23  1  0
 23 24  1  0
 23 25  1  0
 16 26  1  0
 26 27  2  0
 27 28  1  0
 28 29  2  0
 29 30  1  0
 30 31  1  0
 30 32  1  0
 29 33  1  0
 33 34  2  0
 15  3  1  0
 25 19  1  0
 34 26  1  0
 14  8  1  0
  1 35  1  0
  1 36  1  0
  1 37  1  0
  4 38  1  0
  7 39  1  0
  7 40  1  0
  7 41  1  0
  9 42  1  0
 10 43  1  0
 16 44  1  0
 17 45  1  0
 17 46  1  0
 18 47  1  0
 18 48  1  0
 20 49  1  0
 20 50  1  0
 21 51  1  0
 21 52  1  0
 22 53  1  0
 22 54  1  0
 23 55  1  0
 24 56  1  0
 24 57  1  0
 24 58  1  0
 25 59  1  0
 25 60  1  0
 27 61  1  0
 28 62  1  0
 31 63  1  0
 31 64  1  0
 31 65  1  0
 32 66  1  0
 32 67  1  0
 32 68  1  0
 33 69  1  0
 34 70  1  0
M  END
$$$$
