
     RDKit          3D

 57 60  0  0  0  0  0  0  0  0999 V2000
   -0.4825    3.2338   -0.1506 O   0  0  0  0  0  0  0  0  0  0  0  0
   -0.9785    2.2231    0.3338 C   0  0  0  0  0  0  0  0  0  0  0  0
   -0.2641    0.8861    0.4189 C   0  0  0  0  0  0  0  0  0  0  0  0
    1.1219    0.9300   -0.2225 C   0  0  0  0  0  0  0  0  0  0  0  0
    1.8156   -0.4347   -0.2695 C   0  0  0  0  0  0  0  0  0  0  0  0
    2.1967   -0.9694    1.1142 C   0  0  0  0  0  0  0  0  0  0  0  0
    2.8922   -2.3374    1.0624 C   0  0  0  0  0  0  0  0  0  0  0  0
    4.2012   -2.2949    0.4190 N   0  0  0  0  0  0  0  0  0  0  0  0
    5.2719   -1.8299    1.1674 C   0  0  0  0  0  0  0  0  0  0  0  0
    5.1889   -1.4646    2.3395 O   0  0  0  0  0  0  0  0  0  0  0  0
    6.4861   -1.7850    0.5443 N   0  0  0  0  0  0  0  0  0  0  0  0
    6.6977   -2.1731   -0.7746 C   0  0  0  0  0  0  0  0  0  0  0  0
    7.9741   -2.0882   -1.3313 C   0  0  0  0  0  0  0  0  0  0  0  0
    8.1764   -2.4795   -2.6570 C   0  0  0  0  0  0  0  0  0  0  0  0
    7.1078   -2.9528   -3.4208 C   0  0  0  0  0  0  0  0  0  0  0  0
    5.8325   -3.0368   -2.8601 C   0  0  0  0  0  0  0  0  0  0  0  0
    5.6326   -2.6447   -1.5324 C   0  0  0  0  0  0  0  0  0  0  0  0
    4.2982   -2.7183   -0.9065 C   0  0  0  0  0  0  0  0  0  0  0  0
    3.3512   -3.1385   -1.5683 O   0  0  0  0  0  0  0  0  0  0  0  0
   -2.2451    2.1831    0.8802 N   0  0  0  0  0  0  0  0  0  0  0  0
   -3.1463    3.3147    0.7464 C   0  0  0  0  0  0  0  0  0  0  0  0
   -4.3034    3.2714    1.7472 C   0  0  0  0  0  0  0  0  0  0  0  0
   -5.1950    2.0771    1.5783 C   0  0  0  0  0  0  0  0  0  0  0  0
   -5.2508    0.9749    2.4103 C   0  0  0  0  0  0  0  0  0  0  0  0
   -6.1902    0.1099    1.9181 N   0  0  0  0  0  0  0  0  0  0  0  0
   -6.7519    0.6201    0.7717 C   0  0  0  0  0  0  0  0  0  0  0  0
   -7.7406    0.0844   -0.0625 C   0  0  0  0  0  0  0  0  0  0  0  0
   -8.1293    0.8379   -1.1736 C   0  0  0  0  0  0  0  0  0  0  0  0
   -7.5526    2.0777   -1.4360 C   0  0  0  0  0  0  0  0  0  0  0  0
   -6.5660    2.5989   -0.5907 C   0  0  0  0  0  0  0  0  0  0  0  0
   -6.1527    1.8578    0.5357 C   0  0  0  0  0  0  0  0  0  0  0  0
   -0.8827    0.1343   -0.0852 H   0  0  0  0  0  0  0  0  0  0  0  0
   -0.1879    0.6176    1.4781 H   0  0  0  0  0  0  0  0  0  0  0  0
    1.7562    1.6507    0.3086 H   0  0  0  0  0  0  0  0  0  0  0  0
    1.0289    1.3012   -1.2512 H   0  0  0  0  0  0  0  0  0  0  0  0
    1.1710   -1.1577   -0.7837 H   0  0  0  0  0  0  0  0  0  0  0  0
    2.7206   -0.3246   -0.8782 H   0  0  0  0  0  0  0  0  0  0  0  0
    2.8387   -0.2395    1.6215 H   0  0  0  0  0  0  0  0  0  0  0  0
    1.2946   -1.0804    1.7261 H   0  0  0  0  0  0  0  0  0  0  0  0
    3.0268   -2.6992    2.0893 H   0  0  0  0  0  0  0  0  0  0  0  0
    2.2435   -3.0626    0.5577 H   0  0  0  0  0  0  0  0  0  0  0  0
    7.2502   -1.4391    1.1101 H   0  0  0  0  0  0  0  0  0  0  0  0
    8.8157   -1.7212   -0.7502 H   0  0  0  0  0  0  0  0  0  0  0  0
    9.1693   -2.4147   -3.0970 H   0  0  0  0  0  0  0  0  0  0  0  0
    7.2677   -3.2558   -4.4532 H   0  0  0  0  0  0  0  0  0  0  0  0
    5.0001   -3.4048   -3.4562 H   0  0  0  0  0  0  0  0  0  0  0  0
   -2.6768    1.2721    0.9842 H   0  0  0  0  0  0  0  0  0  0  0  0
   -2.5738    4.2382    0.8905 H   0  0  0  0  0  0  0  0  0  0  0  0
   -3.5133    3.3144   -0.2862 H   0  0  0  0  0  0  0  0  0  0  0  0
   -3.9006    3.2818    2.7682 H   0  0  0  0  0  0  0  0  0  0  0  0
   -4.9058    4.1816    1.6387 H   0  0  0  0  0  0  0  0  0  0  0  0
   -4.7068    0.7385    3.3155 H   0  0  0  0  0  0  0  0  0  0  0  0
   -6.4448   -0.7750    2.3344 H   0  0  0  0  0  0  0  0  0  0  0  0
   -8.1945   -0.8800    0.1406 H   0  0  0  0  0  0  0  0  0  0  0  0
   -8.8952    0.4500   -1.8416 H   0  0  0  0  0  0  0  0  0  0  0  0
   -7.8706    2.6487   -2.3049 H   0  0  0  0  0  0  0  0  0  0  0  0
   -6.1266    3.5681   -0.8066 H   0  0  0  0  0  0  0  0  0  0  0  0
  1  2  2  0
  2  3  1  0
  3  4  1  0
  4  5  1  0
  5  6  1  0
  6  7  1  0
  7  8  1  0
  8  9  1  0
  9 10  2  0
  9 11  1  0
 11 12  1  0
 12 13  2  0
 13 14  1  0
 14 15  2  0
 15 16  1  0
 16 17  2  0
 17 18  1  0
 18 19  2  0
  2 20  1  0
 20 21  1  0
 21 22  1  0
 22 23  1  0
 23 24  2  0
 24 25  1  0
 25 26  1  0
 26 27  2  0
 27 28  1  0
 28 29  2  0
 29 30  1  0
 30 31  2  0
 18  8  1  0
 31 23  1  0
 17 12  1  0
 31 26  1  0
  3 32  1  0
  3 33  1  0
  4 34  1  0
  4 35  1  0
  5 36  1  0
  5 37  1  0
  6 38  1  0
  6 39  1  0
  7 40  1  0
  7 41  1  0
 11 42  1  0
 13 43  1  0
 14 44  1  0
 15 45  1  0
 16 46  1  0
 20 47  1  0
 21 48  1  0
 21 49  1  0
 22 50  1  0
 22 51  1  0
 24 52  1  0
 25 53  1  0
 27 54  1  0
 28 55  1  0
 29 56  1  0
 30 57  1  0
M  END
$$$$
