
     RDKit          3D

 50 53  0  0  0  0  0  0  0  0999 V2000
   -4.6019   -4.6177    0.7100 C   0  0  0  0  0  0  0  0  0  0  0  0
   -3.9169   -3.5945    1.4205 O   0  0  0  0  0  0  0  0  0  0  0  0
   -3.1375   -2.7452    0.6851 C   0  0  0  0  0  0  0  0  0  0  0  0
   -3.0021   -2.7485   -0.7023 C   0  0  0  0  0  0  0  0  0  0  0  0
   -2.1674   -1.8167   -1.3317 C   0  0  0  0  0  0  0  0  0  0  0  0
   -1.4490   -0.8695   -0.5843 C   0  0  0  0  0  0  0  0  0  0  0  0
   -0.5718    0.1457   -1.3022 C   0  0  0  0  0  0  0  0  0  0  0  0
   -1.3023    1.4796   -1.4688 C   0  0  0  0  0  0  0  0  0  0  0  0
   -0.5092    2.3427   -0.5267 C   0  0  0  0  0  0  0  0  0  0  0  0
   -0.9268    3.7252   -0.1952 C   0  0  0  0  0  0  0  0  0  0  0  0
   -2.0430    4.3171   -0.7969 C   0  0  0  0  0  0  0  0  0  0  0  0
   -2.4090    5.6231   -0.4599 C   0  0  0  0  0  0  0  0  0  0  0  0
   -1.6640    6.3408    0.4750 C   0  0  0  0  0  0  0  0  0  0  0  0
   -0.5505    5.7565    1.0757 C   0  0  0  0  0  0  0  0  0  0  0  0
   -0.1817    4.4521    0.7419 C   0  0  0  0  0  0  0  0  0  0  0  0
    0.5720    1.7959   -0.0587 N   0  0  0  0  0  0  0  0  0  0  0  0
    0.6260    0.5215   -0.5472 N   0  0  0  0  0  0  0  0  0  0  0  0
    1.7521   -0.2735   -0.3427 C   0  0  0  0  0  0  0  0  0  0  0  0
    2.8347    0.2003    0.4235 C   0  0  0  0  0  0  0  0  0  0  0  0
    3.9814   -0.5692    0.6469 C   0  0  0  0  0  0  0  0  0  0  0  0
    4.0661   -1.8412    0.0881 C   0  0  0  0  0  0  0  0  0  0  0  0
    5.5139   -2.8261    0.3513 S   0  0  0  0  0  6  0  0  0  0  0  0
    6.4786   -2.3502   -0.9470 N   0  0  0  0  0  0  0  0  0  0  0  0
    5.1714   -4.2151    0.1591 O   0  0  0  0  0  0  0  0  0  0  0  0
    6.1910   -2.3475    1.5345 O   0  0  0  0  0  0  0  0  0  0  0  0
    3.0102   -2.3523   -0.6639 C   0  0  0  0  0  0  0  0  0  0  0  0
    1.8687   -1.5688   -0.8749 C   0  0  0  0  0  0  0  0  0  0  0  0
   -1.6004   -0.8704    0.8096 C   0  0  0  0  0  0  0  0  0  0  0  0
   -2.4346   -1.8009    1.4342 C   0  0  0  0  0  0  0  0  0  0  0  0
   -5.3336   -4.1923    0.0152 H   0  0  0  0  0  0  0  0  0  0  0  0
   -5.1489   -5.2229    1.4395 H   0  0  0  0  0  0  0  0  0  0  0  0
   -3.8993   -5.2774    0.1901 H   0  0  0  0  0  0  0  0  0  0  0  0
   -3.5327   -3.4609   -1.3251 H   0  0  0  0  0  0  0  0  0  0  0  0
   -2.0833   -1.8409   -2.4163 H   0  0  0  0  0  0  0  0  0  0  0  0
   -0.2916   -0.2379   -2.2917 H   0  0  0  0  0  0  0  0  0  0  0  0
   -2.3627    1.4467   -1.2045 H   0  0  0  0  0  0  0  0  0  0  0  0
   -1.1818    1.8681   -2.4857 H   0  0  0  0  0  0  0  0  0  0  0  0
   -2.6419    3.7868   -1.5307 H   0  0  0  0  0  0  0  0  0  0  0  0
   -3.2769    6.0824   -0.9272 H   0  0  0  0  0  0  0  0  0  0  0  0
   -1.9510    7.3566    0.7359 H   0  0  0  0  0  0  0  0  0  0  0  0
    0.0317    6.3143    1.8049 H   0  0  0  0  0  0  0  0  0  0  0  0
    0.6890    4.0067    1.2191 H   0  0  0  0  0  0  0  0  0  0  0  0
    2.7811    1.1933    0.8669 H   0  0  0  0  0  0  0  0  0  0  0  0
    4.7864   -0.1661    1.2565 H   0  0  0  0  0  0  0  0  0  0  0  0
    5.9793   -1.7706   -1.6210 H   0  0  0  0  0  0  0  0  0  0  0  0
    7.3073   -1.8785   -0.5808 H   0  0  0  0  0  0  0  0  0  0  0  0
    3.0589   -3.3550   -1.0838 H   0  0  0  0  0  0  0  0  0  0  0  0
    1.0641   -2.0036   -1.4606 H   0  0  0  0  0  0  0  0  0  0  0  0
   -1.0604   -0.1513    1.4241 H   0  0  0  0  0  0  0  0  0  0  0  0
   -2.5319   -1.7906    2.5173 H   0  0  0  0  0  0  0  0  0  0  0  0
  1  2  1  0
  2  3  1  0
  3  4  2  0
  4  5  1  0
  5  6  2  0
  6  7  1  0
  7  8  1  0
  8  9  1  0
  9 10  1  0
 10 11  2  0
 11 12  1  0
 12 13  2  0
 13 14  1  0
 14 15  2  0
  9 16  2  0
 16 17  1  0
 17 18  1  0
 18 19  2  0
 19 20  1  0
 20 21  2  0
 21 22  1  0
 22 23  1  0
 22 24  2  0
 22 25  2  0
 21 26  1  0
 26 27  2  0
  6 28  1  0
 28 29  2  0
 29  3  1  0
 17  7  1  0
 27 18  1  0
 15 10  1  0
  1 30  1  0
  1 31  1  0
  1 32  1  0
  4 33  1  0
  5 34  1  0
  7 35  1  0
  8 36  1  0
  8 37  1  0
 11 38  1  0
 12 39  1  0
 13 40  1  0
 14 41  1  0
 15 42  1  0
 19 43  1  0
 20 44  1  0
 23 45  1  0
 23 46  1  0
 26 47  1  0
 27 48  1  0
 28 49  1  0
 29 50  1  0
M  END
$$$$
