
     RDKit          3D

 56 61  0  0  0  0  0  0  0  0999 V2000
    3.8092   -3.4591    2.3718 C   0  0  0  0  0  0  0  0  0  0  0  0
    2.8678   -2.4494    2.0320 O   0  0  0  0  0  0  0  0  0  0  0  0
    2.9654   -1.9056    0.7812 C   0  0  0  0  0  0  0  0  0  0  0  0
    3.9284   -2.2183   -0.1762 C   0  0  0  0  0  0  0  0  0  0  0  0
    3.9114   -1.5839   -1.4200 C   0  0  0  0  0  0  0  0  0  0  0  0
    2.9336   -0.6326   -1.7127 C   0  0  0  0  0  0  0  0  0  0  0  0
    1.9530   -0.2975   -0.7634 C   0  0  0  0  0  0  0  0  0  0  0  0
    0.8870    0.7453   -1.0972 C   0  0  0  0  0  0  0  0  0  0  0  0
   -0.3517   -0.0463   -1.3313 C   0  0  0  0  0  0  0  0  0  0  0  0
   -0.7710   -0.9578   -2.3150 C   0  0  0  0  0  0  0  0  0  0  0  0
   -0.0287   -1.4598   -3.4964 C   0  0  0  0  0  0  0  0  0  0  0  0
   -2.0158   -1.3855   -2.0837 N   0  0  0  0  0  0  0  0  0  0  0  0
   -2.4168   -0.7550   -0.9348 N   0  0  0  0  0  0  0  0  0  0  0  0
   -3.7162   -1.0240   -0.4002 C   0  0  0  0  0  0  0  0  0  0  0  0
   -4.1762   -0.4207    0.7792 C   0  0  0  0  0  0  0  0  0  0  0  0
   -5.4547   -0.7096    1.2740 C   0  0  0  0  0  0  0  0  0  0  0  0
   -6.2801   -1.6075    0.5879 C   0  0  0  0  0  0  0  0  0  0  0  0
   -7.6198   -1.9099    1.1058 N   0  0  0  0  0  4  0  0  0  0  0  0
   -7.9760   -1.3485    2.1518 O   0  0  0  0  0  0  0  0  0  0  0  0
   -8.3190   -2.7094    0.4662 O   0  0  0  0  0  1  0  0  0  0  0  0
   -5.8361   -2.2195   -0.5888 C   0  0  0  0  0  0  0  0  0  0  0  0
   -4.5584   -1.9268   -1.0773 C   0  0  0  0  0  0  0  0  0  0  0  0
   -1.4184    0.0989   -0.4750 C   0  0  0  0  0  0  0  0  0  0  0  0
   -1.4728    0.9244    0.5996 N   0  0  0  0  0  0  0  0  0  0  0  0
   -0.4287    1.6963    0.7752 C   0  0  0  0  0  0  0  0  0  0  0  0
   -0.5369    2.6396    1.9978 C   0  0  0  0  0  0  0  0  0  0  0  0
   -1.4818    2.5942    2.7735 O   0  0  0  0  0  0  0  0  0  0  0  0
    0.4876    3.5342    2.1546 N   0  0  0  0  0  0  0  0  0  0  0  0
    1.5889    3.6162    1.2987 C   0  0  0  0  0  0  0  0  0  0  0  0
    2.5453    4.6025    1.5692 C   0  0  0  0  0  0  0  0  0  0  0  0
    3.6589    4.7347    0.7478 C   0  0  0  0  0  0  0  0  0  0  0  0
    3.8113    3.8841   -0.3396 C   0  0  0  0  0  0  0  0  0  0  0  0
    2.8531    2.8974   -0.6052 C   0  0  0  0  0  0  0  0  0  0  0  0
    1.7195    2.7292    0.2082 C   0  0  0  0  0  0  0  0  0  0  0  0
    0.7342    1.7464   -0.0179 N   0  0  0  0  0  0  0  0  0  0  0  0
    1.9875   -0.9514    0.4835 C   0  0  0  0  0  0  0  0  0  0  0  0
    3.7220   -4.3222    1.7035 H   0  0  0  0  0  0  0  0  0  0  0  0
    4.8295   -3.0617    2.3740 H   0  0  0  0  0  0  0  0  0  0  0  0
    3.5826   -3.7997    3.3867 H   0  0  0  0  0  0  0  0  0  0  0  0
    4.7054   -2.9513    0.0131 H   0  0  0  0  0  0  0  0  0  0  0  0
    4.6650   -1.8349   -2.1628 H   0  0  0  0  0  0  0  0  0  0  0  0
    2.9450   -0.1562   -2.6908 H   0  0  0  0  0  0  0  0  0  0  0  0
    1.1255    1.2597   -2.0374 H   0  0  0  0  0  0  0  0  0  0  0  0
    0.5849   -0.6674   -3.9362 H   0  0  0  0  0  0  0  0  0  0  0  0
   -0.7122   -1.8188   -4.2732 H   0  0  0  0  0  0  0  0  0  0  0  0
    0.6259   -2.2886   -3.2093 H   0  0  0  0  0  0  0  0  0  0  0  0
   -3.5699    0.2792    1.3477 H   0  0  0  0  0  0  0  0  0  0  0  0
   -5.7831   -0.2252    2.1919 H   0  0  0  0  0  0  0  0  0  0  0  0
   -6.4624   -2.9212   -1.1356 H   0  0  0  0  0  0  0  0  0  0  0  0
   -4.2306   -2.4148   -1.9947 H   0  0  0  0  0  0  0  0  0  0  0  0
    0.4018    4.1560    2.9466 H   0  0  0  0  0  0  0  0  0  0  0  0
    2.4308    5.2732    2.4167 H   0  0  0  0  0  0  0  0  0  0  0  0
    4.4041    5.4987    0.9543 H   0  0  0  0  0  0  0  0  0  0  0  0
    4.6798    3.9832   -0.9872 H   0  0  0  0  0  0  0  0  0  0  0  0
    3.0338    2.2716   -1.4722 H   0  0  0  0  0  0  0  0  0  0  0  0
    1.2392   -0.7249    1.2416 H   0  0  0  0  0  0  0  0  0  0  0  0
  1  2  1  0
  2  3  1  0
  3  4  2  0
  4  5  1  0
  5  6  2  0
  6  7  1  0
  7  8  1  0
  8  9  1  0
  9 10  1  0
 10 11  1  0
 10 12  2  0
 12 13  1  0
 13 14  1  0
 14 15  2  0
 15 16  1  0
 16 17  2  0
 17 18  1  0
 18 19  2  0
 18 20  1  0
 17 21  1  0
 21 22  2  0
 13 23  1  0
 23 24  1  0
 24 25  2  0
 25 26  1  0
 26 27  2  0
 26 28  1  0
 28 29  1  0
 29 30  2  0
 30 31  1  0
 31 32  2  0
 32 33  1  0
 33 34  2  0
 34 35  1  0
  7 36  2  0
 36  3  1  0
 35  8  1  0
 23  9  2  0
 35 25  1  0
 22 14  1  0
 34 29  1  0
  1 37  1  0
  1 38  1  0
  1 39  1  0
  4 40  1  0
  5 41  1  0
  6 42  1  0
  8 43  1  0
 11 44  1  0
 11 45  1  0
 11 46  1  0
 15 47  1  0
 16 48  1  0
 21 49  1  0
 22 50  1  0
 28 51  1  0
 30 52  1  0
 31 53  1  0
 32 54  1  0
 33 55  1  0
 36 56  1  0
M  CHG  2  18   1  20  -1
M  END
$$$$
