
     RDKit          3D

 49 52  0  0  0  0  0  0  0  0999 V2000
    6.9384    0.7380    1.0556 C   0  0  0  0  0  0  0  0  0  0  0  0
    6.0127   -0.4049    1.4431 C   0  0  0  0  0  0  0  0  0  0  0  0
    4.7353   -0.3869    0.6441 C   0  0  0  0  0  0  0  0  0  0  0  0
    3.6221    0.3328    1.0926 C   0  0  0  0  0  0  0  0  0  0  0  0
    2.4376    0.3644    0.3431 C   0  0  0  0  0  0  0  0  0  0  0  0
    2.3350   -0.3212   -0.8746 C   0  0  0  0  0  0  0  0  0  0  0  0
    1.1203   -0.3331   -1.7125 C   0  0  0  0  0  0  0  0  0  0  0  0
   -0.1185    0.4050   -1.2333 C   0  0  0  0  0  0  0  0  0  0  0  0
   -1.3404    0.1529   -2.0195 N   0  0  0  0  0  0  0  0  0  0  0  0
   -2.0035   -1.1015   -1.6162 C   0  0  0  0  0  0  0  0  0  0  0  0
   -2.8945   -1.0011   -0.4069 C   0  0  0  0  0  0  0  0  0  0  0  0
   -3.3074    0.1672    0.1209 C   0  0  0  0  0  0  0  0  0  0  0  0
   -4.1742    0.2170    1.3169 C   0  0  0  0  0  0  0  0  0  0  0  0
   -3.9325    1.1447    2.3402 C   0  0  0  0  0  0  0  0  0  0  0  0
   -4.7607    1.2037    3.4650 C   0  0  0  0  0  0  0  0  0  0  0  0
   -5.8464    0.3393    3.5793 C   0  0  0  0  0  0  0  0  0  0  0  0
   -6.1057   -0.5830    2.5691 C   0  0  0  0  0  0  0  0  0  0  0  0
   -5.2766   -0.6420    1.4454 C   0  0  0  0  0  0  0  0  0  0  0  0
   -2.8838    1.4717   -0.5116 C   0  0  0  0  0  0  0  0  0  0  0  0
   -2.2989    1.2682   -1.9211 C   0  0  0  0  0  0  0  0  0  0  0  0
    1.1793   -0.9973   -2.8793 C   0  0  0  0  0  0  0  0  0  0  0  0
    2.3604   -1.7297   -3.3530 C   0  0  0  0  0  0  0  0  0  0  0  0
    2.3450   -2.3205   -4.4269 O   0  0  0  0  0  0  0  0  0  0  0  0
    3.4699   -1.7242   -2.5294 O   0  0  0  0  0  0  0  0  0  0  0  0
    3.4619   -1.0213   -1.3102 C   0  0  0  0  0  0  0  0  0  0  0  0
    4.6493   -1.0632   -0.5748 C   0  0  0  0  0  0  0  0  0  0  0  0
    7.8562    0.6999    1.6508 H   0  0  0  0  0  0  0  0  0  0  0  0
    7.2174    0.6821   -0.0021 H   0  0  0  0  0  0  0  0  0  0  0  0
    6.4631    1.7098    1.2266 H   0  0  0  0  0  0  0  0  0  0  0  0
    6.5257   -1.3633    1.2971 H   0  0  0  0  0  0  0  0  0  0  0  0
    5.7791   -0.3462    2.5132 H   0  0  0  0  0  0  0  0  0  0  0  0
    3.6679    0.8791    2.0331 H   0  0  0  0  0  0  0  0  0  0  0  0
    1.6087    0.9431    0.7411 H   0  0  0  0  0  0  0  0  0  0  0  0
    0.1289    1.4743   -1.2897 H   0  0  0  0  0  0  0  0  0  0  0  0
   -0.3039    0.1777   -0.1762 H   0  0  0  0  0  0  0  0  0  0  0  0
   -2.6187   -1.4496   -2.4557 H   0  0  0  0  0  0  0  0  0  0  0  0
   -1.2638   -1.8932   -1.4472 H   0  0  0  0  0  0  0  0  0  0  0  0
   -3.1921   -1.9491    0.0339 H   0  0  0  0  0  0  0  0  0  0  0  0
   -3.0869    1.8250    2.2842 H   0  0  0  0  0  0  0  0  0  0  0  0
   -4.5554    1.9246    4.2521 H   0  0  0  0  0  0  0  0  0  0  0  0
   -6.4907    0.3856    4.4533 H   0  0  0  0  0  0  0  0  0  0  0  0
   -6.9558   -1.2552    2.6509 H   0  0  0  0  0  0  0  0  0  0  0  0
   -5.5118   -1.3588    0.6621 H   0  0  0  0  0  0  0  0  0  0  0  0
   -3.7421    2.1503   -0.5899 H   0  0  0  0  0  0  0  0  0  0  0  0
   -2.1350    1.9605    0.1235 H   0  0  0  0  0  0  0  0  0  0  0  0
   -3.1194    1.0833   -2.6282 H   0  0  0  0  0  0  0  0  0  0  0  0
   -1.8308    2.1998   -2.2631 H   0  0  0  0  0  0  0  0  0  0  0  0
    0.3362   -1.0339   -3.5603 H   0  0  0  0  0  0  0  0  0  0  0  0
    5.4992   -1.6208   -0.9606 H   0  0  0  0  0  0  0  0  0  0  0  0
  1  2  1  0
  2  3  1  0
  3  4  2  0
  4  5  1  0
  5  6  2  0
  6  7  1  0
  7  8  1  0
  8  9  1  0
  9 10  1  0
 10 11  1  0
 11 12  2  0
 12 13  1  0
 13 14  2  0
 14 15  1  0
 15 16  2  0
 16 17  1  0
 17 18  2  0
 12 19  1  0
 19 20  1  0
  7 21  2  0
 21 22  1  0
 22 23  2  0
 22 24  1  0
 24 25  1  0
 25 26  2  0
 26  3  1  0
 25  6  1  0
 20  9  1  0
 18 13  1  0
  1 27  1  0
  1 28  1  0
  1 29  1  0
  2 30  1  0
  2 31  1  0
  4 32  1  0
  5 33  1  0
  8 34  1  0
  8 35  1  0
 10 36  1  0
 10 37  1  0
 11 38  1  0
 14 39  1  0
 15 40  1  0
 16 41  1  0
 17 42  1  0
 18 43  1  0
 19 44  1  0
 19 45  1  0
 20 46  1  0
 20 47  1  0
 21 48  1  0
 26 49  1  0
M  END
$$$$
