
     RDKit          3D

 56 60  0  0  0  0  0  0  0  0999 V2000
   -5.5350   -2.1766    3.3889 C   0  0  0  0  0  0  0  0  0  0  0  0
   -4.9866   -1.7138    2.0710 C   0  0  0  0  0  0  0  0  0  0  0  0
   -4.8338   -0.3452    1.8093 C   0  0  0  0  0  0  0  0  0  0  0  0
   -4.3550    0.0893    0.5722 C   0  0  0  0  0  0  0  0  0  0  0  0
   -4.0266   -0.8517   -0.4089 C   0  0  0  0  0  0  0  0  0  0  0  0
   -3.4566   -0.2829   -2.0002 S   0  0  0  0  0  6  0  0  0  0  0  0
   -3.4410   -1.4163   -2.9099 O   0  0  0  0  0  0  0  0  0  0  0  0
   -4.3160    0.8493   -2.3206 O   0  0  0  0  0  0  0  0  0  0  0  0
   -1.8459    0.2754   -1.7107 C   0  0  0  0  0  0  0  0  0  0  0  0
   -1.5132    1.5370   -2.0287 C   0  0  0  0  0  0  0  0  0  0  0  0
   -0.1743    2.0634   -1.8189 C   0  0  0  0  0  0  0  0  0  0  0  0
    0.1093    3.4933   -2.1325 C   0  0  0  0  0  0  0  0  0  0  0  0
   -0.7941    4.2201   -2.5505 O   0  0  0  0  0  0  0  0  0  0  0  0
    1.4087    3.9159   -1.9176 N   0  0  0  0  0  0  0  0  0  0  0  0
    1.7546    5.2350   -2.1924 C   0  0  0  0  0  0  0  0  0  0  0  0
    2.9966    5.6935   -1.9946 C   0  0  0  0  0  0  0  0  0  0  0  0
    4.0120    4.8120   -1.4841 C   0  0  0  0  0  0  0  0  0  0  0  0
    3.7225    3.5356   -1.2053 C   0  0  0  0  0  0  0  0  0  0  0  0
    2.3403    3.0221   -1.4252 C   0  0  0  0  0  0  0  0  0  0  0  0
    2.0896    1.7835   -1.1459 N   0  0  0  0  0  0  0  0  0  0  0  0
    0.8232    1.2814   -1.3470 C   0  0  0  0  0  0  0  0  0  0  0  0
    0.5418   -0.0803   -1.0483 N   0  0  0  0  0  0  0  0  0  0  0  0
    1.6521   -0.9291   -0.5719 C   0  0  0  0  0  0  0  0  0  0  0  0
    1.7448   -0.8857    0.9571 C   0  0  0  0  0  0  0  0  0  0  0  0
    2.8244   -1.8025    1.4753 C   0  0  0  0  0  0  0  0  0  0  0  0
    2.5106   -3.0960    1.9129 C   0  0  0  0  0  0  0  0  0  0  0  0
    3.5161   -3.9492    2.3697 C   0  0  0  0  0  0  0  0  0  0  0  0
    4.8416   -3.5192    2.3904 C   0  0  0  0  0  0  0  0  0  0  0  0
    5.1639   -2.2354    1.9547 C   0  0  0  0  0  0  0  0  0  0  0  0
    4.1606   -1.3801    1.4976 C   0  0  0  0  0  0  0  0  0  0  0  0
   -0.7648   -0.5913   -1.1532 C   0  0  0  0  0  0  0  0  0  0  0  0
   -1.1077   -1.7853   -0.7791 N   0  0  0  0  0  0  0  0  0  0  0  0
   -4.2057   -2.2161   -0.1737 C   0  0  0  0  0  0  0  0  0  0  0  0
   -4.6833   -2.6433    1.0665 C   0  0  0  0  0  0  0  0  0  0  0  0
   -6.6267   -2.2344    3.3403 H   0  0  0  0  0  0  0  0  0  0  0  0
   -5.1390   -3.1632    3.6517 H   0  0  0  0  0  0  0  0  0  0  0  0
   -5.2519   -1.4889    4.1927 H   0  0  0  0  0  0  0  0  0  0  0  0
   -5.0957    0.3902    2.5672 H   0  0  0  0  0  0  0  0  0  0  0  0
   -4.2582    1.1547    0.3778 H   0  0  0  0  0  0  0  0  0  0  0  0
   -2.2457    2.2178   -2.4600 H   0  0  0  0  0  0  0  0  0  0  0  0
    0.9706    5.8831   -2.5772 H   0  0  0  0  0  0  0  0  0  0  0  0
    3.2572    6.7244   -2.2126 H   0  0  0  0  0  0  0  0  0  0  0  0
    5.0120    5.2059   -1.3325 H   0  0  0  0  0  0  0  0  0  0  0  0
    4.4585    2.8407   -0.8209 H   0  0  0  0  0  0  0  0  0  0  0  0
    2.6045   -0.6138   -1.0183 H   0  0  0  0  0  0  0  0  0  0  0  0
    1.5296   -1.9590   -0.9295 H   0  0  0  0  0  0  0  0  0  0  0  0
    1.9444    0.1373    1.3009 H   0  0  0  0  0  0  0  0  0  0  0  0
    0.7831   -1.1612    1.4082 H   0  0  0  0  0  0  0  0  0  0  0  0
    1.4815   -3.4489    1.9056 H   0  0  0  0  0  0  0  0  0  0  0  0
    3.2652   -4.9505    2.7107 H   0  0  0  0  0  0  0  0  0  0  0  0
    5.6234   -4.1848    2.7472 H   0  0  0  0  0  0  0  0  0  0  0  0
    6.1978   -1.9004    1.9715 H   0  0  0  0  0  0  0  0  0  0  0  0
    4.4272   -0.3810    1.1595 H   0  0  0  0  0  0  0  0  0  0  0  0
   -0.3277   -2.3186   -0.4014 H   0  0  0  0  0  0  0  0  0  0  0  0
   -3.9656   -2.9479   -0.9419 H   0  0  0  0  0  0  0  0  0  0  0  0
   -4.8180   -3.7083    1.2434 H   0  0  0  0  0  0  0  0  0  0  0  0
  1  2  1  0
  2  3  2  0
  3  4  1  0
  4  5  2  0
  5  6  1  0
  6  7  2  0
  6  8  2  0
  6  9  1  0
  9 10  2  0
 10 11  1  0
 11 12  1  0
 12 13  2  0
 12 14  1  0
 14 15  1  0
 15 16  2  0
 16 17  1  0
 17 18  2  0
 18 19  1  0
 19 20  2  0
 20 21  1  0
 21 22  1  0
 22 23  1  0
 23 24  1  0
 24 25  1  0
 25 26  2  0
 26 27  1  0
 27 28  2  0
 28 29  1  0
 29 30  2  0
 22 31  1  0
 31 32  2  3
  5 33  1  0
 33 34  2  0
 34  2  1  0
 31  9  1  0
 21 11  2  0
 30 25  1  0
 19 14  1  0
  1 35  1  0
  1 36  1  0
  1 37  1  0
  3 38  1  0
  4 39  1  0
 10 40  1  0
 15 41  1  0
 16 42  1  0
 17 43  1  0
 18 44  1  0
 23 45  1  0
 23 46  1  0
 24 47  1  0
 24 48  1  0
 26 49  1  0
 27 50  1  0
 28 51  1  0
 29 52  1  0
 30 53  1  0
 32 54  1  0
 33 55  1  0
 34 56  1  0
M  END
$$$$
