
     RDKit          3D

 46 47  0  0  0  0  0  0  0  0999 V2000
   -1.5046   -0.9138    4.9315 C   0  0  0  0  0  0  0  0  0  0  0  0
    0.2942   -0.8692    4.7293 S   0  0  0  0  0  0  0  0  0  0  0  0
    0.3982   -0.4319    2.9581 C   0  0  0  0  0  0  0  0  0  0  0  0
   -0.0708    0.9970    2.6799 C   0  0  0  0  0  0  0  0  0  0  0  0
    0.0242    1.4105    1.1989 C   0  0  0  0  0  0  0  0  0  0  0  0
   -0.6279    0.4345    0.3248 N   0  0  0  0  0  0  0  0  0  0  0  0
   -1.9854    0.4420    0.1144 C   0  0  0  0  0  0  0  0  0  0  0  0
   -2.7667    1.2138    0.6498 O   0  0  0  0  0  0  0  0  0  0  0  0
   -2.4645   -0.5887   -0.8234 C   0  0  0  0  0  0  0  0  0  0  0  0
   -2.3705   -1.9324   -0.4348 C   0  0  0  0  0  0  0  0  0  0  0  0
   -2.8201   -2.9349   -1.2942 C   0  0  0  0  0  0  0  0  0  0  0  0
   -3.3607   -2.5974   -2.5351 C   0  0  0  0  0  0  0  0  0  0  0  0
   -3.4516   -1.2573   -2.9212 C   0  0  0  0  0  0  0  0  0  0  0  0
   -3.0037   -0.2463   -2.0661 C   0  0  0  0  0  0  0  0  0  0  0  0
   -3.0910    1.3850   -2.6232 Cl  0  0  0  0  0  0  0  0  0  0  0  0
    1.4771    1.6420    0.7162 C   0  0  0  0  0  0  0  0  0  0  0  0
    2.4363    1.3932    1.4501 O   0  0  0  0  0  0  0  0  0  0  0  0
    1.6634    2.1247   -0.5797 N   0  0  0  0  0  0  0  0  0  0  0  0
    0.5865    2.5018   -1.4895 C   0  0  0  0  0  0  0  0  0  0  0  0
    3.0089    2.0587   -1.1474 C   0  0  0  0  0  0  0  0  0  0  0  0
    3.1965    0.7336   -1.8301 C   0  0  0  0  0  0  0  0  0  0  0  0
    3.4964   -0.4864   -1.2528 C   0  0  0  0  0  0  0  0  0  0  0  0
    3.5994   -1.5325   -2.2134 C   0  0  0  0  0  0  0  0  0  0  0  0
    3.3819   -1.0774   -3.4942 C   0  0  0  0  0  0  0  0  0  0  0  0
    3.0595    0.6012   -3.5338 S   0  0  0  0  0  0  0  0  0  0  0  0
   -1.9623   -1.5498    4.1695 H   0  0  0  0  0  0  0  0  0  0  0  0
   -1.7405   -1.3294    5.9150 H   0  0  0  0  0  0  0  0  0  0  0  0
   -1.9263    0.0925    4.8789 H   0  0  0  0  0  0  0  0  0  0  0  0
    1.4427   -0.5628    2.6623 H   0  0  0  0  0  0  0  0  0  0  0  0
   -0.1886   -1.1643    2.3949 H   0  0  0  0  0  0  0  0  0  0  0  0
    0.5075    1.7044    3.2880 H   0  0  0  0  0  0  0  0  0  0  0  0
   -1.1186    1.1000    2.9862 H   0  0  0  0  0  0  0  0  0  0  0  0
   -0.5004    2.3700    1.1129 H   0  0  0  0  0  0  0  0  0  0  0  0
   -0.0402   -0.2119   -0.1913 H   0  0  0  0  0  0  0  0  0  0  0  0
   -1.9655   -2.1982    0.5389 H   0  0  0  0  0  0  0  0  0  0  0  0
   -2.7568   -3.9789   -0.9948 H   0  0  0  0  0  0  0  0  0  0  0  0
   -3.7144   -3.3790   -3.2044 H   0  0  0  0  0  0  0  0  0  0  0  0
   -3.8710   -1.0087   -3.8935 H   0  0  0  0  0  0  0  0  0  0  0  0
    0.9306    3.3046   -2.1484 H   0  0  0  0  0  0  0  0  0  0  0  0
    0.3044    1.6329   -2.0898 H   0  0  0  0  0  0  0  0  0  0  0  0
   -0.2872    2.8684   -0.9489 H   0  0  0  0  0  0  0  0  0  0  0  0
    3.7605    2.1670   -0.3568 H   0  0  0  0  0  0  0  0  0  0  0  0
    3.1509    2.9026   -1.8321 H   0  0  0  0  0  0  0  0  0  0  0  0
    3.6378   -0.6161   -0.1849 H   0  0  0  0  0  0  0  0  0  0  0  0
    3.8289   -2.5645   -1.9772 H   0  0  0  0  0  0  0  0  0  0  0  0
    3.4034   -1.6482   -4.4125 H   0  0  0  0  0  0  0  0  0  0  0  0
  1  2  1  0
  2  3  1  0
  3  4  1  0
  4  5  1  0
  5  6  1  0
  6  7  1  0
  7  8  2  0
  7  9  1  0
  9 10  2  0
 10 11  1  0
 11 12  2  0
 12 13  1  0
 13 14  2  0
 14 15  1  0
  5 16  1  0
 16 17  2  0
 16 18  1  0
 18 19  1  0
 18 20  1  0
 20 21  1  0
 21 22  2  0
 22 23  1  0
 23 24  2  0
 24 25  1  0
 14  9  1  0
 25 21  1  0
  1 26  1  0
  1 27  1  0
  1 28  1  0
  3 29  1  0
  3 30  1  0
  4 31  1  0
  4 32  1  0
  5 33  1  0
  6 34  1  0
 10 35  1  0
 11 36  1  0
 12 37  1  0
 13 38  1  0
 19 39  1  0
 19 40  1  0
 19 41  1  0
 20 42  1  0
 20 43  1  0
 22 44  1  0
 23 45  1  0
 24 46  1  0
M  END
$$$$
