
     RDKit          3D

 45 47  0  0  0  0  0  0  0  0999 V2000
    4.9316   -1.9189    0.3922 O   0  0  0  0  0  0  0  0  0  0  0  0
    3.8602   -1.3271    0.4619 C   0  0  0  0  0  0  0  0  0  0  0  0
    3.6196   -0.1394    1.3933 C   0  0  0  0  0  0  0  0  0  0  0  0
    2.2680    0.4035    1.3450 N   0  0  0  0  0  0  0  0  0  0  0  0
    1.2785   -0.1468    2.1341 C   0  0  0  0  0  0  0  0  0  0  0  0
    1.4959   -1.0123    2.9739 O   0  0  0  0  0  0  0  0  0  0  0  0
   -0.1103    0.3259    1.8783 C   0  0  0  0  0  0  0  0  0  0  0  0
   -1.1732   -0.5235    2.2002 C   0  0  0  0  0  0  0  0  0  0  0  0
   -2.4927   -0.1190    1.9725 C   0  0  0  0  0  0  0  0  0  0  0  0
   -2.7797    1.1432    1.4275 C   0  0  0  0  0  0  0  0  0  0  0  0
   -4.1690    1.5692    1.1908 C   0  0  0  0  0  0  0  0  0  0  0  0
   -4.5799    2.0317   -0.0708 C   0  0  0  0  0  0  0  0  0  0  0  0
   -5.8987    2.4362   -0.2960 C   0  0  0  0  0  0  0  0  0  0  0  0
   -6.8296    2.3859    0.7382 C   0  0  0  0  0  0  0  0  0  0  0  0
   -6.4435    1.9314    1.9964 C   0  0  0  0  0  0  0  0  0  0  0  0
   -5.1247    1.5263    2.2197 C   0  0  0  0  0  0  0  0  0  0  0  0
   -1.7014    1.9917    1.1240 C   0  0  0  0  0  0  0  0  0  0  0  0
   -0.3785    1.5927    1.3494 C   0  0  0  0  0  0  0  0  0  0  0  0
    2.7665   -1.5992   -0.3031 O   0  0  0  0  0  0  0  0  0  0  0  0
    2.9028   -2.6815   -1.2291 C   0  0  0  0  0  0  0  0  0  0  0  0
    3.1813   -2.1173   -2.5988 C   0  0  0  0  0  0  0  0  0  0  0  0
    4.5000   -1.9983   -3.0615 C   0  0  0  0  0  0  0  0  0  0  0  0
    4.7619   -1.4513   -4.3196 C   0  0  0  0  0  0  0  0  0  0  0  0
    3.7068   -1.0142   -5.1173 C   0  0  0  0  0  0  0  0  0  0  0  0
    4.0288   -0.3373   -6.6660 Cl  0  0  0  0  0  0  0  0  0  0  0  0
    2.3922   -1.1161   -4.6668 C   0  0  0  0  0  0  0  0  0  0  0  0
    2.1300   -1.6625   -3.4083 C   0  0  0  0  0  0  0  0  0  0  0  0
    3.8538   -0.4490    2.4163 H   0  0  0  0  0  0  0  0  0  0  0  0
    4.2903    0.6682    1.0856 H   0  0  0  0  0  0  0  0  0  0  0  0
    1.9870    0.8367    0.4753 H   0  0  0  0  0  0  0  0  0  0  0  0
   -0.9791   -1.5062    2.6261 H   0  0  0  0  0  0  0  0  0  0  0  0
   -3.3011   -0.8053    2.2187 H   0  0  0  0  0  0  0  0  0  0  0  0
   -3.8726    2.0688   -0.8967 H   0  0  0  0  0  0  0  0  0  0  0  0
   -6.1978    2.7875   -1.2801 H   0  0  0  0  0  0  0  0  0  0  0  0
   -7.8553    2.7005    0.5640 H   0  0  0  0  0  0  0  0  0  0  0  0
   -7.1667    1.8936    2.8069 H   0  0  0  0  0  0  0  0  0  0  0  0
   -4.8426    1.1854    3.2141 H   0  0  0  0  0  0  0  0  0  0  0  0
   -1.8898    2.9880    0.7268 H   0  0  0  0  0  0  0  0  0  0  0  0
    0.4222    2.2945    1.1349 H   0  0  0  0  0  0  0  0  0  0  0  0
    1.9527   -3.2282   -1.2399 H   0  0  0  0  0  0  0  0  0  0  0  0
    3.6662   -3.4097   -0.9295 H   0  0  0  0  0  0  0  0  0  0  0  0
    5.3314   -2.3283   -2.4397 H   0  0  0  0  0  0  0  0  0  0  0  0
    5.7880   -1.3674   -4.6673 H   0  0  0  0  0  0  0  0  0  0  0  0
    1.5696   -0.7713   -5.2875 H   0  0  0  0  0  0  0  0  0  0  0  0
    1.1009   -1.7307   -3.0611 H   0  0  0  0  0  0  0  0  0  0  0  0
  1  2  2  0
  2  3  1  0
  3  4  1  0
  4  5  1  0
  5  6  2  0
  5  7  1  0
  7  8  2  0
  8  9  1  0
  9 10  2  0
 10 11  1  0
 11 12  2  0
 12 13  1  0
 13 14  2  0
 14 15  1  0
 15 16  2  0
 10 17  1  0
 17 18  2  0
  2 19  1  0
 19 20  1  0
 20 21  1  0
 21 22  2  0
 22 23  1  0
 23 24  2  0
 24 25  1  0
 24 26  1  0
 26 27  2  0
 18  7  1  0
 27 21  1  0
 16 11  1  0
  3 28  1  0
  3 29  1  0
  4 30  1  0
  8 31  1  0
  9 32  1  0
 12 33  1  0
 13 34  1  0
 14 35  1  0
 15 36  1  0
 16 37  1  0
 17 38  1  0
 18 39  1  0
 20 40  1  0
 20 41  1  0
 22 42  1  0
 23 43  1  0
 26 44  1  0
 27 45  1  0
M  END
$$$$
