
     RDKit          3D

 53 57  0  0  0  0  0  0  0  0999 V2000
    8.3515    0.2812    0.6169 C   0  0  0  0  0  0  0  0  0  0  0  0
    7.4987   -0.2062   -0.4113 O   0  0  0  0  0  0  0  0  0  0  0  0
    6.1560   -0.0208   -0.2383 C   0  0  0  0  0  0  0  0  0  0  0  0
    5.3579   -0.5170   -1.2665 C   0  0  0  0  0  0  0  0  0  0  0  0
    3.9633   -0.3948   -1.2186 C   0  0  0  0  0  0  0  0  0  0  0  0
    3.3345    0.2311   -0.1304 C   0  0  0  0  0  0  0  0  0  0  0  0
    1.9009    0.3530   -0.0896 N   0  0  0  0  0  0  0  0  0  0  0  0
    1.0595    0.0910   -1.1563 C   0  0  0  0  0  0  0  0  0  0  0  0
   -0.2513    0.3009   -0.7822 C   0  0  0  0  0  0  0  0  0  0  0  0
   -1.3244    0.1825   -1.7502 C   0  0  0  0  0  0  0  0  0  0  0  0
   -1.9897    1.3280   -2.2011 C   0  0  0  0  0  0  0  0  0  0  0  0
   -2.9930    1.2221   -3.1669 C   0  0  0  0  0  0  0  0  0  0  0  0
   -3.3383   -0.0277   -3.6811 C   0  0  0  0  0  0  0  0  0  0  0  0
   -2.6799   -1.1729   -3.2336 C   0  0  0  0  0  0  0  0  0  0  0  0
   -1.6716   -1.0690   -2.2731 C   0  0  0  0  0  0  0  0  0  0  0  0
   -0.2487    0.6955    0.5860 C   0  0  0  0  0  0  0  0  0  0  0  0
   -1.2118    1.0289    1.5644 C   0  0  0  0  0  0  0  0  0  0  0  0
   -2.6168    0.9658    1.4256 N   0  0  0  0  0  0  0  0  0  0  0  0
   -3.1850   -0.1827    0.8230 N   0  0  0  0  0  0  0  0  0  0  0  0
   -4.5433    0.1504    0.3503 C   0  0  0  0  0  0  0  0  0  0  0  0
   -5.3565   -1.1261    0.1111 C   0  0  0  0  0  0  0  0  0  0  0  0
   -5.5861   -1.8748    1.3148 O   0  0  0  0  0  0  0  0  0  0  0  0
   -4.5897   -1.6443    2.3199 C   0  0  0  0  0  0  0  0  0  0  0  0
   -3.2014   -1.3461    1.7376 C   0  0  0  0  0  0  0  0  0  0  0  0
   -0.7857    1.4372    2.7844 N   0  0  0  0  0  0  0  0  0  0  0  0
    0.5296    1.4588    3.0304 C   0  0  0  0  0  0  0  0  0  0  0  0
    1.5206    1.1220    2.2039 N   0  0  0  0  0  0  0  0  0  0  0  0
    1.0921    0.7548    0.9785 C   0  0  0  0  0  0  0  0  0  0  0  0
    4.1461    0.7264    0.8984 C   0  0  0  0  0  0  0  0  0  0  0  0
    5.5436    0.6021    0.8446 C   0  0  0  0  0  0  0  0  0  0  0  0
    9.3832    0.0542    0.3312 H   0  0  0  0  0  0  0  0  0  0  0  0
    8.2658    1.3681    0.7187 H   0  0  0  0  0  0  0  0  0  0  0  0
    8.1511   -0.2227    1.5683 H   0  0  0  0  0  0  0  0  0  0  0  0
    5.8240   -1.0103   -2.1165 H   0  0  0  0  0  0  0  0  0  0  0  0
    3.4081   -0.8253   -2.0456 H   0  0  0  0  0  0  0  0  0  0  0  0
    1.4436   -0.1823   -2.1281 H   0  0  0  0  0  0  0  0  0  0  0  0
   -1.7297    2.3058   -1.8032 H   0  0  0  0  0  0  0  0  0  0  0  0
   -3.5055    2.1150   -3.5145 H   0  0  0  0  0  0  0  0  0  0  0  0
   -4.1203   -0.1090   -4.4316 H   0  0  0  0  0  0  0  0  0  0  0  0
   -2.9490   -2.1470   -3.6332 H   0  0  0  0  0  0  0  0  0  0  0  0
   -1.1644   -1.9668   -1.9294 H   0  0  0  0  0  0  0  0  0  0  0  0
   -2.9905    1.2208    2.3419 H   0  0  0  0  0  0  0  0  0  0  0  0
   -4.4808    0.7287   -0.5761 H   0  0  0  0  0  0  0  0  0  0  0  0
   -5.0707    0.7673    1.0908 H   0  0  0  0  0  0  0  0  0  0  0  0
   -4.8539   -1.7832   -0.6083 H   0  0  0  0  0  0  0  0  0  0  0  0
   -6.3364   -0.8759   -0.3082 H   0  0  0  0  0  0  0  0  0  0  0  0
   -4.9293   -0.8191    2.9570 H   0  0  0  0  0  0  0  0  0  0  0  0
   -4.5479   -2.5401    2.9480 H   0  0  0  0  0  0  0  0  0  0  0  0
   -2.8873   -2.2132    1.1429 H   0  0  0  0  0  0  0  0  0  0  0  0
   -2.4718   -1.2489    2.5501 H   0  0  0  0  0  0  0  0  0  0  0  0
    0.8239    1.7839    4.0235 H   0  0  0  0  0  0  0  0  0  0  0  0
    3.7385    1.2409    1.7617 H   0  0  0  0  0  0  0  0  0  0  0  0
    6.1183    1.0098    1.6699 H   0  0  0  0  0  0  0  0  0  0  0  0
  1  2  1  0
  2  3  1  0
  3  4  2  0
  4  5  1  0
  5  6  2  0
  6  7  1  0
  7  8  1  0
  8  9  2  0
  9 10  1  0
 10 11  2  0
 11 12  1  0
 12 13  2  0
 13 14  1  0
 14 15  2  0
  9 16  1  0
 16 17  2  0
 17 18  1  0
 18 19  1  0
 19 20  1  0
 20 21  1  0
 21 22  1  0
 22 23  1  0
 23 24  1  0
 17 25  1  0
 25 26  2  0
 26 27  1  0
 27 28  2  0
  6 29  1  0
 29 30  2  0
 30  3  1  0
 28  7  1  0
 15 10  1  0
 28 16  1  0
 24 19  1  0
  1 31  1  0
  1 32  1  0
  1 33  1  0
  4 34  1  0
  5 35  1  0
  8 36  1  0
 11 37  1  0
 12 38  1  0
 13 39  1  0
 14 40  1  0
 15 41  1  0
 18 42  1  0
 20 43  1  0
 20 44  1  0
 21 45  1  0
 21 46  1  0
 23 47  1  0
 23 48  1  0
 24 49  1  0
 24 50  1  0
 26 51  1  0
 29 52  1  0
 30 53  1  0
M  END
$$$$
