
     RDKit          3D

 34 35  0  0  0  0  0  0  0  0999 V2000
   -0.4998   -1.7942   -1.2396 C   0  0  0  0  0  0  0  0  0  0  0  0
   -0.8578   -0.7237   -0.2293 C   0  0  0  0  0  0  0  0  0  0  0  0
    0.0283    0.0203    0.3873 N   0  0  0  0  0  0  0  0  0  0  0  0
    1.3444   -0.1719    0.0602 N   0  0  0  0  0  0  0  0  0  0  0  0
    1.8617    0.6570   -1.0441 C   0  0  0  0  0  0  0  0  0  0  0  0
    2.8260    1.7273   -0.5491 C   0  0  0  0  0  0  0  0  0  0  0  0
    4.0264    1.1067    0.1723 C   0  0  0  0  0  0  0  0  0  0  0  0
    3.6975   -0.2358    0.8325 C   0  0  0  0  0  0  0  0  0  0  0  0
    2.2288   -0.3112    1.2273 C   0  0  0  0  0  0  0  0  0  0  0  0
   -2.3000   -0.5013    0.0907 C   0  0  0  0  0  0  0  0  0  0  0  0
   -2.7177    0.7261    0.4504 C   0  0  0  0  0  0  0  0  0  0  0  0
   -1.9121    1.8250    0.6157 O   0  0  0  0  0  0  0  0  0  0  0  0
   -4.0273    0.9939    0.6987 N   0  0  0  0  0  0  0  0  0  0  0  0
   -5.0264    0.0728    0.6016 C   0  0  0  0  0  0  0  0  0  0  0  0
   -6.1969    0.3392    0.8482 O   0  0  0  0  0  0  0  0  0  0  0  0
   -4.6313   -1.1756    0.2161 N   0  0  0  0  0  0  0  0  0  0  0  0
   -3.3345   -1.5650    0.0126 C   0  0  0  0  0  0  0  0  0  0  0  0
   -3.0555   -2.7405   -0.2017 O   0  0  0  0  0  0  0  0  0  0  0  0
   -1.3520   -2.0406   -1.8775 H   0  0  0  0  0  0  0  0  0  0  0  0
   -0.1687   -2.6915   -0.7097 H   0  0  0  0  0  0  0  0  0  0  0  0
    0.2980   -1.4563   -1.9047 H   0  0  0  0  0  0  0  0  0  0  0  0
    2.3765   -0.0213   -1.7344 H   0  0  0  0  0  0  0  0  0  0  0  0
    1.0234    1.1076   -1.5870 H   0  0  0  0  0  0  0  0  0  0  0  0
    2.2982    2.3962    0.1427 H   0  0  0  0  0  0  0  0  0  0  0  0
    3.1745    2.3455   -1.3837 H   0  0  0  0  0  0  0  0  0  0  0  0
    4.3899    1.8151    0.9265 H   0  0  0  0  0  0  0  0  0  0  0  0
    4.8522    0.9599   -0.5342 H   0  0  0  0  0  0  0  0  0  0  0  0
    3.9249   -1.0466    0.1286 H   0  0  0  0  0  0  0  0  0  0  0  0
    4.3391   -0.3865    1.7076 H   0  0  0  0  0  0  0  0  0  0  0  0
    2.0017   -1.2723    1.7007 H   0  0  0  0  0  0  0  0  0  0  0  0
    1.9913    0.4889    1.9395 H   0  0  0  0  0  0  0  0  0  0  0  0
   -0.9784    1.5088    0.6028 H   0  0  0  0  0  0  0  0  0  0  0  0
   -4.2813    1.9330    0.9785 H   0  0  0  0  0  0  0  0  0  0  0  0
   -5.3432   -1.8891    0.1837 H   0  0  0  0  0  0  0  0  0  0  0  0
  1  2  1  0
  2  3  2  3
  3  4  1  0
  4  5  1  0
  5  6  1  0
  6  7  1  0
  7  8  1  0
  8  9  1  0
  2 10  1  0
 10 11  2  0
 11 12  1  0
 11 13  1  0
 13 14  1  0
 14 15  2  0
 14 16  1  0
 16 17  1  0
 17 18  2  0
  9  4  1  0
 17 10  1  0
  1 19  1  0
  1 20  1  0
  1 21  1  0
  5 22  1  0
  5 23  1  0
  6 24  1  0
  6 25  1  0
  7 26  1  0
  7 27  1  0
  8 28  1  0
  8 29  1  0
  9 30  1  0
  9 31  1  0
 12 32  1  0
 13 33  1  0
 16 34  1  0
M  END
$$$$
