
     RDKit          3D

 48 48  0  0  0  0  0  0  0  0999 V2000
   -7.3319   -0.5403   -0.4674 C   0  0  0  0  0  0  0  0  0  0  0  0
   -6.7339   -1.2895    0.7134 C   0  0  0  0  0  0  0  0  0  0  0  0
   -5.6676   -0.4913    1.4668 C   0  0  0  0  0  0  0  0  0  0  0  0
   -4.4155   -0.2118    0.6309 C   0  0  0  0  0  0  0  0  0  0  0  0
   -3.3398    0.4874    1.4669 C   0  0  0  0  0  0  0  0  0  0  0  0
   -2.1100    0.9059    0.6541 C   0  0  0  0  0  0  0  0  0  0  0  0
   -1.2950   -0.2806    0.1325 C   0  0  0  0  0  0  0  0  0  0  0  0
   -0.0675    0.1386   -0.6825 C   0  0  0  0  0  0  0  0  0  0  0  0
    0.9959    0.8604    0.1438 C   0  0  0  0  0  0  0  0  0  0  0  0
    2.2604    1.1264   -0.6556 C   0  0  0  0  0  0  0  0  0  0  0  0
    2.3631    0.8866   -1.8548 O   0  0  0  0  0  0  0  0  0  0  0  0
    3.2676    1.6740    0.1487 N   0  0  0  0  0  0  0  0  0  0  0  0
    4.3995    2.1942   -0.4262 N   0  0  0  0  0  0  0  0  0  0  0  0
    5.2025    1.3917   -1.0672 C   0  0  0  0  0  0  0  0  0  0  0  0
    6.3329    2.0269   -1.8457 C   0  0  0  0  0  0  0  0  0  0  0  0
    5.1542   -0.0879   -1.0683 C   0  0  0  0  0  0  0  0  0  0  0  0
    5.1817   -0.8006    0.1300 C   0  0  0  0  0  0  0  0  0  0  0  0
    5.1819   -2.1923    0.0889 C   0  0  0  0  0  0  0  0  0  0  0  0
    5.1660   -2.8146   -1.1510 C   0  0  0  0  0  0  0  0  0  0  0  0
    5.1466   -2.1499   -2.3278 N   0  0  0  0  0  0  0  0  0  0  0  0
    5.1300   -0.7958   -2.2613 C   0  0  0  0  0  0  0  0  0  0  0  0
   -6.5904   -0.3737   -1.2541 H   0  0  0  0  0  0  0  0  0  0  0  0
   -7.7315    0.4300   -0.1559 H   0  0  0  0  0  0  0  0  0  0  0  0
   -8.1518   -1.1201   -0.9034 H   0  0  0  0  0  0  0  0  0  0  0  0
   -7.5410   -1.5369    1.4134 H   0  0  0  0  0  0  0  0  0  0  0  0
   -6.3130   -2.2404    0.3668 H   0  0  0  0  0  0  0  0  0  0  0  0
   -6.0974    0.4548    1.8179 H   0  0  0  0  0  0  0  0  0  0  0  0
   -5.3823   -1.0599    2.3606 H   0  0  0  0  0  0  0  0  0  0  0  0
   -4.0300   -1.1586    0.2372 H   0  0  0  0  0  0  0  0  0  0  0  0
   -4.6711    0.4208   -0.2265 H   0  0  0  0  0  0  0  0  0  0  0  0
   -3.7715    1.3891    1.9193 H   0  0  0  0  0  0  0  0  0  0  0  0
   -3.0302   -0.1634    2.2938 H   0  0  0  0  0  0  0  0  0  0  0  0
   -2.4214    1.5404   -0.1844 H   0  0  0  0  0  0  0  0  0  0  0  0
   -1.4805    1.5247    1.3034 H   0  0  0  0  0  0  0  0  0  0  0  0
   -0.9804   -0.9122    0.9720 H   0  0  0  0  0  0  0  0  0  0  0  0
   -1.9240   -0.9026   -0.5140 H   0  0  0  0  0  0  0  0  0  0  0  0
    0.3731   -0.7643   -1.1244 H   0  0  0  0  0  0  0  0  0  0  0  0
   -0.3795    0.7717   -1.5225 H   0  0  0  0  0  0  0  0  0  0  0  0
    0.6162    1.8261    0.4942 H   0  0  0  0  0  0  0  0  0  0  0  0
    1.2630    0.2544    1.0174 H   0  0  0  0  0  0  0  0  0  0  0  0
    2.9271    2.2447    0.9176 H   0  0  0  0  0  0  0  0  0  0  0  0
    6.8172    2.7887   -1.2271 H   0  0  0  0  0  0  0  0  0  0  0  0
    5.9256    2.5037   -2.7420 H   0  0  0  0  0  0  0  0  0  0  0  0
    7.0869    1.2924   -2.1406 H   0  0  0  0  0  0  0  0  0  0  0  0
    5.2107   -0.2796    1.0822 H   0  0  0  0  0  0  0  0  0  0  0  0
    5.2010   -2.7793    1.0004 H   0  0  0  0  0  0  0  0  0  0  0  0
    5.1691   -3.8981   -1.2334 H   0  0  0  0  0  0  0  0  0  0  0  0
    5.0848   -0.2896   -3.2211 H   0  0  0  0  0  0  0  0  0  0  0  0
  1  2  1  0
  2  3  1  0
  3  4  1  0
  4  5  1  0
  5  6  1  0
  6  7  1  0
  7  8  1  0
  8  9  1  0
  9 10  1  0
 10 11  2  0
 10 12  1  0
 12 13  1  0
 13 14  2  3
 14 15  1  0
 14 16  1  0
 16 17  2  0
 17 18  1  0
 18 19  2  0
 19 20  1  0
 20 21  2  0
 21 16  1  0
  1 22  1  0
  1 23  1  0
  1 24  1  0
  2 25  1  0
  2 26  1  0
  3 27  1  0
  3 28  1  0
  4 29  1  0
  4 30  1  0
  5 31  1  0
  5 32  1  0
  6 33  1  0
  6 34  1  0
  7 35  1  0
  7 36  1  0
  8 37  1  0
  8 38  1  0
  9 39  1  0
  9 40  1  0
 12 41  1  0
 15 42  1  0
 15 43  1  0
 15 44  1  0
 17 45  1  0
 18 46  1  0
 19 47  1  0
 21 48  1  0
M  END
$$$$
