
     RDKit          3D

 55 57  0  0  0  0  0  0  0  0999 V2000
   -3.0212    1.6536    4.6122 C   0  0  0  0  0  0  0  0  0  0  0  0
   -2.3206    0.4368    3.9973 C   0  0  0  0  0  0  0  0  0  0  0  0
   -3.3254   -0.7191    3.9136 C   0  0  0  0  0  0  0  0  0  0  0  0
   -1.7110    0.7635    2.6151 C   0  0  0  0  0  0  0  0  0  0  0  0
   -0.7157    1.8440    2.7575 N   0  0  0  0  0  0  0  0  0  0  0  0
   -0.8725    3.2793    1.9275 S   0  0  0  0  0  6  0  0  0  0  0  0
    0.3048    4.0613    2.2302 O   0  0  0  0  0  0  0  0  0  0  0  0
   -2.2038    3.7863    2.1776 O   0  0  0  0  0  0  0  0  0  0  0  0
   -0.7858    2.7945    0.2231 C   0  0  0  0  0  0  0  0  0  0  0  0
   -1.9614    2.6898   -0.5294 C   0  0  0  0  0  0  0  0  0  0  0  0
   -1.8867    2.3612   -1.8831 C   0  0  0  0  0  0  0  0  0  0  0  0
   -0.6436    2.1571   -2.4796 C   0  0  0  0  0  0  0  0  0  0  0  0
    0.5288    2.2553   -1.7189 C   0  0  0  0  0  0  0  0  0  0  0  0
    0.4631    2.5927   -0.3688 C   0  0  0  0  0  0  0  0  0  0  0  0
    1.7798    2.0388   -2.2414 O   0  0  0  0  0  0  0  0  0  0  0  0
    1.6979    1.3389   -3.4880 C   0  0  0  0  0  0  0  0  0  0  0  0
    0.6585    1.9812   -4.3895 C   0  0  0  0  0  0  0  0  0  0  0  0
   -0.6510    1.8636   -3.8197 O   0  0  0  0  0  0  0  0  0  0  0  0
   -0.9511   -0.4512    2.0764 C   0  0  0  0  0  0  0  0  0  0  0  0
    0.1623   -0.7913    2.4636 O   0  0  0  0  0  0  0  0  0  0  0  0
   -1.6926   -1.1243    1.1526 O   0  0  0  0  0  0  0  0  0  0  0  0
   -1.0386   -2.2730    0.6141 C   0  0  0  0  0  0  0  0  0  0  0  0
    0.2016   -1.9598   -0.2351 C   0  0  0  0  0  0  0  0  0  0  0  0
    0.3948   -0.8385   -0.6918 O   0  0  0  0  0  0  0  0  0  0  0  0
    1.0124   -3.0666   -0.4221 N   0  0  0  0  0  0  0  0  0  0  0  0
    2.2767   -3.1174   -1.0636 C   0  0  0  0  0  0  0  0  0  0  0  0
    2.9657   -1.9682   -1.4675 C   0  0  0  0  0  0  0  0  0  0  0  0
    4.2164   -2.0662   -2.0849 C   0  0  0  0  0  0  0  0  0  0  0  0
    4.7974   -3.3139   -2.2998 C   0  0  0  0  0  0  0  0  0  0  0  0
    4.1306   -4.4711   -1.8950 C   0  0  0  0  0  0  0  0  0  0  0  0
    4.9147   -5.9843   -2.1883 Cl  0  0  0  0  0  0  0  0  0  0  0  0
    2.8744   -4.3793   -1.2766 C   0  0  0  0  0  0  0  0  0  0  0  0
    2.0259   -5.8112   -0.7648 Cl  0  0  0  0  0  0  0  0  0  0  0  0
   -3.8152    2.0267    3.9569 H   0  0  0  0  0  0  0  0  0  0  0  0
   -3.4734    1.3940    5.5751 H   0  0  0  0  0  0  0  0  0  0  0  0
   -2.3150    2.4707    4.7976 H   0  0  0  0  0  0  0  0  0  0  0  0
   -1.5189    0.1323    4.6833 H   0  0  0  0  0  0  0  0  0  0  0  0
   -4.1252   -0.4972    3.2001 H   0  0  0  0  0  0  0  0  0  0  0  0
   -3.7860   -0.9060    4.8890 H   0  0  0  0  0  0  0  0  0  0  0  0
   -2.8380   -1.6499    3.6061 H   0  0  0  0  0  0  0  0  0  0  0  0
   -2.4973    1.0461    1.9086 H   0  0  0  0  0  0  0  0  0  0  0  0
    0.2296    1.5963    3.0608 H   0  0  0  0  0  0  0  0  0  0  0  0
   -2.9320    2.8779   -0.0768 H   0  0  0  0  0  0  0  0  0  0  0  0
   -2.7921    2.2846   -2.4785 H   0  0  0  0  0  0  0  0  0  0  0  0
    1.3783    2.6860    0.2082 H   0  0  0  0  0  0  0  0  0  0  0  0
    2.6864    1.3802   -3.9575 H   0  0  0  0  0  0  0  0  0  0  0  0
    1.4590    0.2870   -3.2878 H   0  0  0  0  0  0  0  0  0  0  0  0
    0.6412    1.4815   -5.3627 H   0  0  0  0  0  0  0  0  0  0  0  0
    0.8718    3.0447   -4.5542 H   0  0  0  0  0  0  0  0  0  0  0  0
   -0.7861   -2.9661    1.4248 H   0  0  0  0  0  0  0  0  0  0  0  0
   -1.7580   -2.7775   -0.0392 H   0  0  0  0  0  0  0  0  0  0  0  0
    0.6651   -3.9653   -0.1018 H   0  0  0  0  0  0  0  0  0  0  0  0
    2.5668   -0.9711   -1.2938 H   0  0  0  0  0  0  0  0  0  0  0  0
    4.7406   -1.1615   -2.3856 H   0  0  0  0  0  0  0  0  0  0  0  0
    5.7731   -3.3762   -2.7765 H   0  0  0  0  0  0  0  0  0  0  0  0
  1  2  1  0
  2  3  1  0
  2  4  1  0
  4  5  1  0
  5  6  1  0
  6  7  2  0
  6  8  2  0
  6  9  1  0
  9 10  2  0
 10 11  1  0
 11 12  2  0
 12 13  1  0
 13 14  2  0
 13 15  1  0
 15 16  1  0
 16 17  1  0
 17 18  1  0
  4 19  1  0
 19 20  2  0
 19 21  1  0
 21 22  1  0
 22 23  1  0
 23 24  2  0
 23 25  1  0
 25 26  1  0
 26 27  2  0
 27 28  1  0
 28 29  2  0
 29 30  1  0
 30 31  1  0
 30 32  2  0
 32 33  1  0
 14  9  1  0
 32 26  1  0
 18 12  1  0
  1 34  1  0
  1 35  1  0
  1 36  1  0
  2 37  1  0
  3 38  1  0
  3 39  1  0
  3 40  1  0
  4 41  1  0
  5 42  1  0
 10 43  1  0
 11 44  1  0
 14 45  1  0
 16 46  1  0
 16 47  1  0
 17 48  1  0
 17 49  1  0
 22 50  1  0
 22 51  1  0
 25 52  1  0
 27 53  1  0
 28 54  1  0
 29 55  1  0
M  END
$$$$
