
     RDKit          3D

 42 44  0  0  0  0  0  0  0  0999 V2000
   -3.8905    0.0450    3.7600 N   0  0  0  0  0  0  0  0  0  0  0  0
   -4.4614   -0.0241    2.7517 C   0  0  0  0  0  0  0  0  0  0  0  0
   -5.1817   -0.1008    1.4770 C   0  0  0  0  0  0  0  0  0  0  0  0
   -4.4045    0.5404    0.3170 C   0  0  0  0  0  0  0  0  0  0  0  0
   -3.4314   -0.3619   -0.3181 N   0  0  0  0  0  0  0  0  0  0  0  0
   -3.0975    0.0531   -1.6877 C   0  0  0  0  0  0  0  0  0  0  0  0
   -2.1355   -0.9525   -2.3453 C   0  0  0  0  0  0  0  0  0  0  0  0
   -0.8837   -1.1393   -1.5961 N   0  0  0  0  0  0  0  0  0  0  0  0
    0.2187   -1.8072   -2.1532 C   0  0  0  0  0  0  0  0  0  0  0  0
    0.1427   -2.7523   -3.5502 S   0  0  0  0  0  0  0  0  0  0  0  0
    1.5253   -1.6891   -1.5239 C   0  0  0  0  0  0  0  0  0  0  0  0
    2.5862   -2.5670   -1.3727 C   0  0  0  0  0  0  0  0  0  0  0  0
    3.6130   -1.8682   -0.6909 C   0  0  0  0  0  0  0  0  0  0  0  0
    3.1425   -0.5910   -0.4677 C   0  0  0  0  0  0  0  0  0  0  0  0
    3.6848    0.6067    0.1696 C   0  0  0  0  0  0  0  0  0  0  0  0
    4.9293    0.5713    0.8149 C   0  0  0  0  0  0  0  0  0  0  0  0
    5.4530    1.7148    1.4286 C   0  0  0  0  0  0  0  0  0  0  0  0
    4.7394    2.9144    1.4065 C   0  0  0  0  0  0  0  0  0  0  0  0
    5.4444    4.2859    2.1837 Cl  0  0  0  0  0  0  0  0  0  0  0  0
    3.4983    2.9670    0.7669 C   0  0  0  0  0  0  0  0  0  0  0  0
    2.5539    4.4130    0.6958 Cl  0  0  0  0  0  0  0  0  0  0  0  0
    2.9787    1.8204    0.1539 C   0  0  0  0  0  0  0  0  0  0  0  0
    1.8806   -0.4819   -0.9763 O   0  0  0  0  0  0  0  0  0  0  0  0
   -0.8596   -0.5382   -0.2567 C   0  0  0  0  0  0  0  0  0  0  0  0
   -2.2155   -0.5945    0.4890 C   0  0  0  0  0  0  0  0  0  0  0  0
   -5.4341   -1.1412    1.2410 H   0  0  0  0  0  0  0  0  0  0  0  0
   -6.1353    0.4297    1.5897 H   0  0  0  0  0  0  0  0  0  0  0  0
   -3.9327    1.4851    0.6175 H   0  0  0  0  0  0  0  0  0  0  0  0
   -5.1612    0.8014   -0.4353 H   0  0  0  0  0  0  0  0  0  0  0  0
   -2.6511    1.0561   -1.6891 H   0  0  0  0  0  0  0  0  0  0  0  0
   -4.0079    0.0973   -2.2972 H   0  0  0  0  0  0  0  0  0  0  0  0
   -1.8948   -0.6082   -3.3573 H   0  0  0  0  0  0  0  0  0  0  0  0
   -2.6224   -1.9323   -2.4268 H   0  0  0  0  0  0  0  0  0  0  0  0
    2.6135   -3.5937   -1.7130 H   0  0  0  0  0  0  0  0  0  0  0  0
    4.5811   -2.2566   -0.4081 H   0  0  0  0  0  0  0  0  0  0  0  0
    5.5103   -0.3477    0.8527 H   0  0  0  0  0  0  0  0  0  0  0  0
    6.4202    1.6600    1.9232 H   0  0  0  0  0  0  0  0  0  0  0  0
    2.0129    1.8799   -0.3444 H   0  0  0  0  0  0  0  0  0  0  0  0
   -0.5625    0.5093   -0.3905 H   0  0  0  0  0  0  0  0  0  0  0  0
   -0.1079   -1.0267    0.3707 H   0  0  0  0  0  0  0  0  0  0  0  0
   -2.3193   -1.5918    0.9338 H   0  0  0  0  0  0  0  0  0  0  0  0
   -2.1384    0.1156    1.3202 H   0  0  0  0  0  0  0  0  0  0  0  0
  1  2  3  0
  2  3  1  0
  3  4  1  0
  4  5  1  0
  5  6  1  0
  6  7  1  0
  7  8  1  0
  8  9  1  0
  9 10  2  0
  9 11  1  0
 11 12  2  0
 12 13  1  0
 13 14  2  0
 14 15  1  0
 15 16  2  0
 16 17  1  0
 17 18  2  0
 18 19  1  0
 18 20  1  0
 20 21  1  0
 20 22  2  0
 14 23  1  0
  8 24  1  0
 24 25  1  0
 25  5  1  0
 23 11  1  0
 22 15  1  0
  3 26  1  0
  3 27  1  0
  4 28  1  0
  4 29  1  0
  6 30  1  0
  6 31  1  0
  7 32  1  0
  7 33  1  0
 12 34  1  0
 13 35  1  0
 16 36  1  0
 17 37  1  0
 22 38  1  0
 24 39  1  0
 24 40  1  0
 25 41  1  0
 25 42  1  0
M  END
$$$$
