
     RDKit          3D

 43 45  0  0  0  0  0  0  0  0999 V2000
    7.1537   -0.9753   -1.8999 C   0  0  0  0  0  0  0  0  0  0  0  0
    5.7965   -1.1866   -1.5305 O   0  0  0  0  0  0  0  0  0  0  0  0
    5.1866   -0.1868   -0.8227 C   0  0  0  0  0  0  0  0  0  0  0  0
    5.7595    1.0315   -0.4656 C   0  0  0  0  0  0  0  0  0  0  0  0
    5.0103    1.9678    0.2489 C   0  0  0  0  0  0  0  0  0  0  0  0
    3.6917    1.6880    0.6182 C   0  0  0  0  0  0  0  0  0  0  0  0
    3.1138    0.4621    0.2927 C   0  0  0  0  0  0  0  0  0  0  0  0
    1.7790    0.1119    0.5937 N   0  0  0  0  0  0  0  0  0  0  0  0
    0.9107    0.5673    1.5777 C   0  0  0  0  0  0  0  0  0  0  0  0
    1.3810    1.3022    3.0158 S   0  0  0  0  0  0  0  0  0  0  0  0
   -0.4338    0.2815    1.2669 N   0  0  0  0  0  0  0  0  0  0  0  0
   -1.5148    0.3775    2.2728 C   0  0  0  0  0  0  0  0  0  0  0  0
   -2.8015   -0.3449    1.8374 C   0  0  0  0  0  0  0  0  0  0  0  0
   -3.3019    0.2114    0.5705 N   0  0  0  0  0  0  0  0  0  0  0  0
   -4.5002   -0.3257    0.1079 C   0  0  0  0  0  0  0  0  0  0  0  0
   -5.1700    0.2459   -0.9763 C   0  0  0  0  0  0  0  0  0  0  0  0
   -6.3785   -0.2919   -1.4191 C   0  0  0  0  0  0  0  0  0  0  0  0
   -6.9085   -1.3914   -0.7651 C   0  0  0  0  0  0  0  0  0  0  0  0
   -6.2047   -1.8968    0.3100 C   0  0  0  0  0  0  0  0  0  0  0  0
   -5.0323   -1.3881    0.7524 N   0  0  0  0  0  0  0  0  0  0  0  0
   -2.2888    0.6235   -0.4138 C   0  0  0  0  0  0  0  0  0  0  0  0
   -0.8983    0.0277   -0.1114 C   0  0  0  0  0  0  0  0  0  0  0  0
    3.8653   -0.4588   -0.4494 C   0  0  0  0  0  0  0  0  0  0  0  0
    7.4974   -1.8669   -2.4331 H   0  0  0  0  0  0  0  0  0  0  0  0
    7.7893   -0.8495   -1.0173 H   0  0  0  0  0  0  0  0  0  0  0  0
    7.2480   -0.1231   -2.5809 H   0  0  0  0  0  0  0  0  0  0  0  0
    6.7786    1.2888   -0.7328 H   0  0  0  0  0  0  0  0  0  0  0  0
    5.4502    2.9262    0.5146 H   0  0  0  0  0  0  0  0  0  0  0  0
    3.1326    2.4630    1.1317 H   0  0  0  0  0  0  0  0  0  0  0  0
    1.4635   -0.7481    0.1648 H   0  0  0  0  0  0  0  0  0  0  0  0
   -1.1671   -0.0476    3.2201 H   0  0  0  0  0  0  0  0  0  0  0  0
   -1.7206    1.4441    2.4265 H   0  0  0  0  0  0  0  0  0  0  0  0
   -2.5886   -1.4164    1.7259 H   0  0  0  0  0  0  0  0  0  0  0  0
   -3.5517   -0.2215    2.6282 H   0  0  0  0  0  0  0  0  0  0  0  0
   -4.7739    1.1284   -1.4668 H   0  0  0  0  0  0  0  0  0  0  0  0
   -6.9009    0.1553   -2.2594 H   0  0  0  0  0  0  0  0  0  0  0  0
   -7.8466   -1.8357   -1.0758 H   0  0  0  0  0  0  0  0  0  0  0  0
   -6.5739   -2.7519    0.8684 H   0  0  0  0  0  0  0  0  0  0  0  0
   -2.2234    1.7180   -0.3909 H   0  0  0  0  0  0  0  0  0  0  0  0
   -2.5565    0.3323   -1.4365 H   0  0  0  0  0  0  0  0  0  0  0  0
   -0.1818    0.4301   -0.8349 H   0  0  0  0  0  0  0  0  0  0  0  0
   -0.9264   -1.0617   -0.2354 H   0  0  0  0  0  0  0  0  0  0  0  0
    3.4371   -1.4157   -0.7368 H   0  0  0  0  0  0  0  0  0  0  0  0
  1  2  1  0
  2  3  1  0
  3  4  2  0
  4  5  1  0
  5  6  2  0
  6  7  1  0
  7  8  1  0
  8  9  1  0
  9 10  2  0
  9 11  1  0
 11 12  1  0
 12 13  1  0
 13 14  1  0
 14 15  1  0
 15 16  2  0
 16 17  1  0
 17 18  2  0
 18 19  1  0
 19 20  2  0
 14 21  1  0
 21 22  1  0
  7 23  2  0
 23  3  1  0
 22 11  1  0
 20 15  1  0
  1 24  1  0
  1 25  1  0
  1 26  1  0
  4 27  1  0
  5 28  1  0
  6 29  1  0
  8 30  1  0
 12 31  1  0
 12 32  1  0
 13 33  1  0
 13 34  1  0
 16 35  1  0
 17 36  1  0
 18 37  1  0
 19 38  1  0
 21 39  1  0
 21 40  1  0
 22 41  1  0
 22 42  1  0
 23 43  1  0
M  END
$$$$
