
     RDKit          3D

 56 61  0  0  0  0  0  0  0  0999 V2000
    0.0576    3.3016    1.2554 C   0  0  0  0  0  0  0  0  0  0  0  0
    0.8334    2.1090    0.8378 C   0  0  0  0  0  0  0  0  0  0  0  0
    2.1199    2.2400    0.5012 N   0  0  0  0  0  0  0  0  0  0  0  0
    2.5479    0.9803    0.1724 N   0  0  0  0  0  0  0  0  0  0  0  0
    3.9002    0.7833   -0.2505 C   0  0  0  0  0  0  0  0  0  0  0  0
    4.3916   -0.4798   -0.6107 C   0  0  0  0  0  0  0  0  0  0  0  0
    5.7223   -0.6346   -1.0210 C   0  0  0  0  0  0  0  0  0  0  0  0
    6.5687    0.4787   -1.0733 C   0  0  0  0  0  0  0  0  0  0  0  0
    7.9630    0.3165   -1.5028 N   0  0  0  0  0  4  0  0  0  0  0  0
    8.6790    1.3281   -1.5321 O   0  0  0  0  0  0  0  0  0  0  0  0
    8.3444   -0.8216   -1.8112 O   0  0  0  0  0  1  0  0  0  0  0  0
    6.0940    1.7457   -0.7190 C   0  0  0  0  0  0  0  0  0  0  0  0
    4.7643    1.8934   -0.3103 C   0  0  0  0  0  0  0  0  0  0  0  0
    1.5156    0.0600    0.3308 C   0  0  0  0  0  0  0  0  0  0  0  0
    0.4087    0.7744    0.7265 C   0  0  0  0  0  0  0  0  0  0  0  0
   -0.8713    0.0586    0.9799 C   0  0  0  0  0  0  0  0  0  0  0  0
   -1.8181    0.5747   -0.1058 C   0  0  0  0  0  0  0  0  0  0  0  0
   -2.8327    1.4923    0.2211 C   0  0  0  0  0  0  0  0  0  0  0  0
   -3.7123    1.9774   -0.7546 C   0  0  0  0  0  0  0  0  0  0  0  0
   -3.5909    1.5587   -2.0789 C   0  0  0  0  0  0  0  0  0  0  0  0
   -4.3883    1.9446   -3.1189 O   0  0  0  0  0  0  0  0  0  0  0  0
   -5.1304    3.1378   -2.9343 C   0  0  0  0  0  0  0  0  0  0  0  0
   -6.1640    2.8955   -2.0902 F   0  0  0  0  0  0  0  0  0  0  0  0
   -5.6779    3.4648   -4.1321 F   0  0  0  0  0  0  0  0  0  0  0  0
   -2.5957    0.6397   -2.4135 C   0  0  0  0  0  0  0  0  0  0  0  0
   -1.7140    0.1567   -1.4434 C   0  0  0  0  0  0  0  0  0  0  0  0
   -0.7260   -1.4130    0.9309 N   0  0  0  0  0  0  0  0  0  0  0  0
    0.4875   -1.9458    0.4543 C   0  0  0  0  0  0  0  0  0  0  0  0
    1.5745   -1.2824    0.1461 N   0  0  0  0  0  0  0  0  0  0  0  0
    0.6017   -3.4767    0.2567 C   0  0  0  0  0  0  0  0  0  0  0  0
    1.5941   -3.9962   -0.2347 O   0  0  0  0  0  0  0  0  0  0  0  0
   -0.4757   -4.2141    0.6686 N   0  0  0  0  0  0  0  0  0  0  0  0
   -1.6350   -3.6606    1.2182 C   0  0  0  0  0  0  0  0  0  0  0  0
   -2.6461   -4.5433    1.6171 C   0  0  0  0  0  0  0  0  0  0  0  0
   -3.8206   -4.0493    2.1727 C   0  0  0  0  0  0  0  0  0  0  0  0
   -3.9794   -2.6783    2.3292 C   0  0  0  0  0  0  0  0  0  0  0  0
   -2.9660   -1.7987    1.9275 C   0  0  0  0  0  0  0  0  0  0  0  0
   -1.7690   -2.2617    1.3549 C   0  0  0  0  0  0  0  0  0  0  0  0
    0.7145    4.0907    1.6363 H   0  0  0  0  0  0  0  0  0  0  0  0
   -0.6496    3.0472    2.0511 H   0  0  0  0  0  0  0  0  0  0  0  0
   -0.5037    3.7055    0.4071 H   0  0  0  0  0  0  0  0  0  0  0  0
    3.7719   -1.3720   -0.5886 H   0  0  0  0  0  0  0  0  0  0  0  0
    6.0745   -1.6278   -1.2941 H   0  0  0  0  0  0  0  0  0  0  0  0
    6.7364    2.6231   -0.7539 H   0  0  0  0  0  0  0  0  0  0  0  0
    4.4141    2.8888   -0.0388 H   0  0  0  0  0  0  0  0  0  0  0  0
   -1.2200    0.3576    1.9770 H   0  0  0  0  0  0  0  0  0  0  0  0
   -2.9562    1.8352    1.2470 H   0  0  0  0  0  0  0  0  0  0  0  0
   -4.4947    2.6610   -0.4377 H   0  0  0  0  0  0  0  0  0  0  0  0
   -4.5246    3.9790   -2.5797 H   0  0  0  0  0  0  0  0  0  0  0  0
   -2.4987    0.2966   -3.4417 H   0  0  0  0  0  0  0  0  0  0  0  0
   -0.9431   -0.5501   -1.7459 H   0  0  0  0  0  0  0  0  0  0  0  0
   -0.3868   -5.2141    0.5518 H   0  0  0  0  0  0  0  0  0  0  0  0
   -2.5279   -5.6174    1.4996 H   0  0  0  0  0  0  0  0  0  0  0  0
   -4.6088   -4.7308    2.4828 H   0  0  0  0  0  0  0  0  0  0  0  0
   -4.8962   -2.2857    2.7639 H   0  0  0  0  0  0  0  0  0  0  0  0
   -3.1563   -0.7425    2.0830 H   0  0  0  0  0  0  0  0  0  0  0  0
  1  2  1  0
  2  3  2  0
  3  4  1  0
  4  5  1  0
  5  6  2  0
  6  7  1  0
  7  8  2  0
  8  9  1  0
  9 10  2  0
  9 11  1  0
  8 12  1  0
 12 13  2  0
  4 14  1  0
 14 15  2  0
 15 16  1  0
 16 17  1  0
 17 18  2  0
 18 19  1  0
 19 20  2  0
 20 21  1  0
 21 22  1  0
 22 23  1  0
 22 24  1  0
 20 25  1  0
 25 26  2  0
 16 27  1  0
 27 28  1  0
 28 29  2  0
 28 30  1  0
 30 31  2  0
 30 32  1  0
 32 33  1  0
 33 34  2  0
 34 35  1  0
 35 36  2  0
 36 37  1  0
 37 38  2  0
 15  2  1  0
 26 17  1  0
 38 27  1  0
 13  5  1  0
 29 14  1  0
 38 33  1  0
  1 39  1  0
  1 40  1  0
  1 41  1  0
  6 42  1  0
  7 43  1  0
 12 44  1  0
 13 45  1  0
 16 46  1  0
 18 47  1  0
 19 48  1  0
 22 49  1  0
 25 50  1  0
 26 51  1  0
 32 52  1  0
 34 53  1  0
 35 54  1  0
 36 55  1  0
 37 56  1  0
M  CHG  2   9   1  11  -1
M  END
$$$$
