
     RDKit          3D

 42 44  0  0  0  0  0  0  0  0999 V2000
   -3.8270   -2.2579   -0.4883 C   0  0  0  0  0  0  0  0  0  0  0  0
   -4.7926   -1.1048   -0.4880 C   0  0  0  0  0  0  0  0  0  0  0  0
   -6.1722   -1.3536   -0.4279 C   0  0  0  0  0  0  0  0  0  0  0  0
   -7.0832   -0.2982   -0.4257 C   0  0  0  0  0  0  0  0  0  0  0  0
   -6.6241    1.0136   -0.4872 C   0  0  0  0  0  0  0  0  0  0  0  0
   -5.2529    1.2762   -0.5456 C   0  0  0  0  0  0  0  0  0  0  0  0
   -4.3311    0.2235   -0.5420 C   0  0  0  0  0  0  0  0  0  0  0  0
   -2.9708    0.3774   -0.6057 O   0  0  0  0  0  0  0  0  0  0  0  0
   -2.4558    1.6894   -0.3940 C   0  0  0  0  0  0  0  0  0  0  0  0
   -0.9281    1.6577   -0.3520 C   0  0  0  0  0  0  0  0  0  0  0  0
   -0.2620    2.5773    0.1194 O   0  0  0  0  0  0  0  0  0  0  0  0
   -0.3636    0.5322   -0.9123 N   0  0  0  0  0  0  0  0  0  0  0  0
    1.0673    0.2989   -0.8935 C   0  0  0  0  0  0  0  0  0  0  0  0
    1.5605   -0.1477    0.4823 C   0  0  0  0  0  0  0  0  0  0  0  0
    3.0442   -0.2476    0.5136 C   0  0  0  0  0  0  0  0  0  0  0  0
    3.7759   -1.2543    0.0836 N   0  0  0  0  0  0  0  0  0  0  0  0
    5.0788   -0.8946    0.3305 C   0  0  0  0  0  0  0  0  0  0  0  0
    6.2672   -1.5954    0.0771 C   0  0  0  0  0  0  0  0  0  0  0  0
    7.4851   -1.0031    0.4357 C   0  0  0  0  0  0  0  0  0  0  0  0
    7.5185    0.2605    1.0330 C   0  0  0  0  0  0  0  0  0  0  0  0
    6.3428    0.9764    1.2891 C   0  0  0  0  0  0  0  0  0  0  0  0
    5.1436    0.3620    0.9216 C   0  0  0  0  0  0  0  0  0  0  0  0
    3.8343    0.7559    1.0202 N   0  0  0  0  0  0  0  0  0  0  0  0
   -3.1455   -2.1818    0.3651 H   0  0  0  0  0  0  0  0  0  0  0  0
   -4.3471   -3.2186   -0.4110 H   0  0  0  0  0  0  0  0  0  0  0  0
   -3.2472   -2.2661   -1.4174 H   0  0  0  0  0  0  0  0  0  0  0  0
   -6.5456   -2.3745   -0.3814 H   0  0  0  0  0  0  0  0  0  0  0  0
   -8.1503   -0.5010   -0.3789 H   0  0  0  0  0  0  0  0  0  0  0  0
   -7.3347    1.8365   -0.4915 H   0  0  0  0  0  0  0  0  0  0  0  0
   -4.9414    2.3137   -0.6016 H   0  0  0  0  0  0  0  0  0  0  0  0
   -2.7420    2.3540   -1.2164 H   0  0  0  0  0  0  0  0  0  0  0  0
   -2.7990    2.0776    0.5719 H   0  0  0  0  0  0  0  0  0  0  0  0
   -0.9936   -0.2377   -1.1237 H   0  0  0  0  0  0  0  0  0  0  0  0
    1.2831   -0.4623   -1.6508 H   0  0  0  0  0  0  0  0  0  0  0  0
    1.5673    1.2246   -1.2021 H   0  0  0  0  0  0  0  0  0  0  0  0
    1.1244   -1.1232    0.7313 H   0  0  0  0  0  0  0  0  0  0  0  0
    1.2194    0.5457    1.2604 H   0  0  0  0  0  0  0  0  0  0  0  0
    6.2326   -2.5758   -0.3855 H   0  0  0  0  0  0  0  0  0  0  0  0
    8.4138   -1.5371    0.2477 H   0  0  0  0  0  0  0  0  0  0  0  0
    8.4781    0.6966    1.3053 H   0  0  0  0  0  0  0  0  0  0  0  0
    6.3694    1.9565    1.7533 H   0  0  0  0  0  0  0  0  0  0  0  0
    3.5035    1.6292    1.4063 H   0  0  0  0  0  0  0  0  0  0  0  0
  1  2  1  0
  2  3  2  0
  3  4  1  0
  4  5  2  0
  5  6  1  0
  6  7  2  0
  7  8  1  0
  8  9  1  0
  9 10  1  0
 10 11  2  0
 10 12  1  0
 12 13  1  0
 13 14  1  0
 14 15  1  0
 15 16  2  0
 16 17  1  0
 17 18  2  0
 18 19  1  0
 19 20  2  0
 20 21  1  0
 21 22  2  0
 22 23  1  0
  7  2  1  0
 23 15  1  0
 22 17  1  0
  1 24  1  0
  1 25  1  0
  1 26  1  0
  3 27  1  0
  4 28  1  0
  5 29  1  0
  6 30  1  0
  9 31  1  0
  9 32  1  0
 12 33  1  0
 13 34  1  0
 13 35  1  0
 14 36  1  0
 14 37  1  0
 18 38  1  0
 19 39  1  0
 20 40  1  0
 21 41  1  0
 23 42  1  0
M  END
$$$$
