
     RDKit          3D

 52 54  0  0  0  0  0  0  0  0999 V2000
    2.1911    2.3241    0.1605 C   0  0  0  0  0  0  0  0  0  0  0  0
    1.4264    1.3306    1.0300 C   0  0  0  0  0  0  0  0  0  0  0  0
    0.6706    0.3180    0.2640 N   0  0  0  0  0  0  0  0  0  0  0  0
    1.5420   -0.7781   -0.2187 C   0  0  0  0  0  0  0  0  0  0  0  0
    2.4043   -0.4471   -1.4190 C   0  0  0  0  0  0  0  0  0  0  0  0
    3.7553   -0.8279   -1.4366 C   0  0  0  0  0  0  0  0  0  0  0  0
    4.5540   -0.5665   -2.5515 C   0  0  0  0  0  0  0  0  0  0  0  0
    4.0112    0.0694   -3.6659 C   0  0  0  0  0  0  0  0  0  0  0  0
    2.6690    0.4416   -3.6678 C   0  0  0  0  0  0  0  0  0  0  0  0
    1.8691    0.1798   -2.5540 C   0  0  0  0  0  0  0  0  0  0  0  0
   -0.4965   -0.2393    1.0176 C   0  0  0  0  0  0  0  0  0  0  0  0
   -0.1460   -1.0750    2.2570 C   0  0  0  0  0  0  0  0  0  0  0  0
   -0.1912   -2.4773    2.1882 C   0  0  0  0  0  0  0  0  0  0  0  0
    0.1432   -3.2225    3.3097 C   0  0  0  0  0  0  0  0  0  0  0  0
    0.5168   -2.6807    4.4850 N   0  0  0  0  0  0  0  0  0  0  0  0
    0.5505   -1.3336    4.5442 C   0  0  0  0  0  0  0  0  0  0  0  0
    0.2381   -0.5045    3.4771 C   0  0  0  0  0  0  0  0  0  0  0  0
   -1.5779    0.7914    1.2666 C   0  0  0  0  0  0  0  0  0  0  0  0
   -1.6464    1.6054    2.3092 N   0  0  0  0  0  0  0  0  0  0  0  0
   -2.7756    2.3505    2.1653 N   0  0  0  0  0  0  0  0  0  0  0  0
   -3.4156    2.0201    1.0611 N   0  0  0  0  0  0  0  0  0  0  0  0
   -2.6740    1.0586    0.4663 N   0  0  0  0  0  0  0  0  0  0  0  0
   -3.1603    0.4602   -0.7860 C   0  0  0  0  0  0  0  0  0  0  0  0
   -4.3274    1.2894   -1.3909 C   0  0  0  0  0  0  0  0  0  0  0  0
   -3.7062   -0.9546   -0.5148 C   0  0  0  0  0  0  0  0  0  0  0  0
   -2.0650    0.4161   -1.8668 C   0  0  0  0  0  0  0  0  0  0  0  0
    2.5349    3.1630    0.7762 H   0  0  0  0  0  0  0  0  0  0  0  0
    3.0803    1.8809   -0.2921 H   0  0  0  0  0  0  0  0  0  0  0  0
    1.5537    2.7351   -0.6296 H   0  0  0  0  0  0  0  0  0  0  0  0
    0.7447    1.9486    1.6217 H   0  0  0  0  0  0  0  0  0  0  0  0
    2.1168    0.8645    1.7437 H   0  0  0  0  0  0  0  0  0  0  0  0
    0.9277   -1.6259   -0.5522 H   0  0  0  0  0  0  0  0  0  0  0  0
    2.1670   -1.1577    0.6000 H   0  0  0  0  0  0  0  0  0  0  0  0
    4.1978   -1.3279   -0.5778 H   0  0  0  0  0  0  0  0  0  0  0  0
    5.6009   -0.8588   -2.5501 H   0  0  0  0  0  0  0  0  0  0  0  0
    4.6338    0.2745   -4.5325 H   0  0  0  0  0  0  0  0  0  0  0  0
    2.2447    0.9390   -4.5359 H   0  0  0  0  0  0  0  0  0  0  0  0
    0.8269    0.4838   -2.5693 H   0  0  0  0  0  0  0  0  0  0  0  0
   -0.9626   -0.9570    0.3367 H   0  0  0  0  0  0  0  0  0  0  0  0
   -0.4785   -2.9940    1.2782 H   0  0  0  0  0  0  0  0  0  0  0  0
    0.1189   -4.3083    3.2889 H   0  0  0  0  0  0  0  0  0  0  0  0
    0.8448   -0.9188    5.5038 H   0  0  0  0  0  0  0  0  0  0  0  0
    0.2876    0.5709    3.6149 H   0  0  0  0  0  0  0  0  0  0  0  0
   -4.6804    0.8507   -2.3319 H   0  0  0  0  0  0  0  0  0  0  0  0
   -4.0159    2.3194   -1.6036 H   0  0  0  0  0  0  0  0  0  0  0  0
   -5.1899    1.3311   -0.7153 H   0  0  0  0  0  0  0  0  0  0  0  0
   -4.5074   -0.9304    0.2332 H   0  0  0  0  0  0  0  0  0  0  0  0
   -2.9370   -1.6347   -0.1389 H   0  0  0  0  0  0  0  0  0  0  0  0
   -4.1151   -1.4015   -1.4281 H   0  0  0  0  0  0  0  0  0  0  0  0
   -1.3113   -0.3475   -1.6657 H   0  0  0  0  0  0  0  0  0  0  0  0
   -1.5565    1.3826   -1.9554 H   0  0  0  0  0  0  0  0  0  0  0  0
   -2.4857    0.1701   -2.8490 H   0  0  0  0  0  0  0  0  0  0  0  0
  1  2  1  0
  2  3  1  0
  3  4  1  0
  4  5  1  0
  5  6  2  0
  6  7  1  0
  7  8  2  0
  8  9  1  0
  9 10  2  0
  3 11  1  0
 11 12  1  0
 12 13  2  0
 13 14  1  0
 14 15  2  0
 15 16  1  0
 16 17  2  0
 11 18  1  0
 18 19  2  0
 19 20  1  0
 20 21  2  0
 21 22  1  0
 22 23  1  0
 23 24  1  0
 23 25  1  0
 23 26  1  0
 10  5  1  0
 17 12  1  0
 22 18  1  0
  1 27  1  0
  1 28  1  0
  1 29  1  0
  2 30  1  0
  2 31  1  0
  4 32  1  0
  4 33  1  0
  6 34  1  0
  7 35  1  0
  8 36  1  0
  9 37  1  0
 10 38  1  0
 11 39  1  0
 13 40  1  0
 14 41  1  0
 16 42  1  0
 17 43  1  0
 24 44  1  0
 24 45  1  0
 24 46  1  0
 25 47  1  0
 25 48  1  0
 25 49  1  0
 26 50  1  0
 26 51  1  0
 26 52  1  0
M  END
$$$$
