
     RDKit          3D

 48 49  0  0  0  0  0  0  0  0999 V2000
   -4.9473   -2.6565   -2.8958 C   0  0  0  0  0  0  0  0  0  0  0  0
   -4.0953   -1.7630   -2.0447 C   0  0  0  0  0  0  0  0  0  0  0  0
   -3.1493   -2.3077   -1.1690 C   0  0  0  0  0  0  0  0  0  0  0  0
   -2.3348   -1.4753   -0.3980 C   0  0  0  0  0  0  0  0  0  0  0  0
   -2.4459   -0.0831   -0.4972 C   0  0  0  0  0  0  0  0  0  0  0  0
   -1.5421    0.8185    0.3143 C   0  0  0  0  0  0  0  0  0  0  0  0
   -0.3149    1.2878   -0.4866 C   0  0  0  0  0  0  0  0  0  0  0  0
    0.6357    0.2319   -0.8528 N   0  0  0  0  0  0  0  0  0  0  0  0
    1.2666   -0.5750    0.0649 C   0  0  0  0  0  0  0  0  0  0  0  0
    1.1287   -0.4456    1.2761 O   0  0  0  0  0  0  0  0  0  0  0  0
    2.1915   -1.6032   -0.4817 C   0  0  0  0  0  0  0  0  0  0  0  0
    1.9902   -2.1882   -1.7383 C   0  0  0  0  0  0  0  0  0  0  0  0
    2.8861   -3.1506   -2.2102 C   0  0  0  0  0  0  0  0  0  0  0  0
    3.9757   -3.5352   -1.4287 C   0  0  0  0  0  0  0  0  0  0  0  0
    4.1691   -2.9681   -0.1700 C   0  0  0  0  0  0  0  0  0  0  0  0
    3.2763   -2.0070    0.3061 C   0  0  0  0  0  0  0  0  0  0  0  0
    0.4311    2.4562    0.1876 C   0  0  0  0  0  0  0  0  0  0  0  0
    0.8082    3.4342   -0.4561 O   0  0  0  0  0  0  0  0  0  0  0  0
    0.7231    2.2841    1.5216 N   0  0  0  0  0  0  0  0  0  0  0  0
    1.5926    3.2103    2.2435 C   0  0  0  0  0  0  0  0  0  0  0  0
    0.9214    4.5602    2.4784 C   0  0  0  0  0  0  0  0  0  0  0  0
    1.9777    2.6009    3.5913 C   0  0  0  0  0  0  0  0  0  0  0  0
    1.3835    1.7197    4.1920 O   0  0  0  0  0  0  0  0  0  0  0  0
    3.0875    3.1540    4.1262 O   0  0  0  0  0  0  0  0  0  0  0  0
   -3.3838    0.4616   -1.3831 C   0  0  0  0  0  0  0  0  0  0  0  0
   -4.1982   -0.3719   -2.1530 C   0  0  0  0  0  0  0  0  0  0  0  0
   -5.9211   -2.1956   -3.0911 H   0  0  0  0  0  0  0  0  0  0  0  0
   -5.1357   -3.6118   -2.3945 H   0  0  0  0  0  0  0  0  0  0  0  0
   -4.4490   -2.8504   -3.8503 H   0  0  0  0  0  0  0  0  0  0  0  0
   -3.0418   -3.3865   -1.0775 H   0  0  0  0  0  0  0  0  0  0  0  0
   -1.6101   -1.9206    0.2807 H   0  0  0  0  0  0  0  0  0  0  0  0
   -2.1254    1.6898    0.6450 H   0  0  0  0  0  0  0  0  0  0  0  0
   -1.2558    0.3015    1.2382 H   0  0  0  0  0  0  0  0  0  0  0  0
   -0.6719    1.6892   -1.4473 H   0  0  0  0  0  0  0  0  0  0  0  0
    0.9317    0.2068   -1.8192 H   0  0  0  0  0  0  0  0  0  0  0  0
    1.1297   -1.9296   -2.3485 H   0  0  0  0  0  0  0  0  0  0  0  0
    2.7303   -3.6092   -3.1846 H   0  0  0  0  0  0  0  0  0  0  0  0
    4.6701   -4.2864   -1.7968 H   0  0  0  0  0  0  0  0  0  0  0  0
    5.0123   -3.2757    0.4435 H   0  0  0  0  0  0  0  0  0  0  0  0
    3.4290   -1.5713    1.2919 H   0  0  0  0  0  0  0  0  0  0  0  0
    0.7354    1.3119    1.8470 H   0  0  0  0  0  0  0  0  0  0  0  0
    2.5058    3.3266    1.6462 H   0  0  0  0  0  0  0  0  0  0  0  0
    1.5707    5.2274    3.0541 H   0  0  0  0  0  0  0  0  0  0  0  0
   -0.0158    4.4432    3.0381 H   0  0  0  0  0  0  0  0  0  0  0  0
    0.6836    5.0612    1.5355 H   0  0  0  0  0  0  0  0  0  0  0  0
    3.1991    2.6776    4.9759 H   0  0  0  0  0  0  0  0  0  0  0  0
   -3.4876    1.5402   -1.4814 H   0  0  0  0  0  0  0  0  0  0  0  0
   -4.9171    0.0726   -2.8370 H   0  0  0  0  0  0  0  0  0  0  0  0
  1  2  1  0
  2  3  2  0
  3  4  1  0
  4  5  2  0
  5  6  1  0
  6  7  1  0
  7  8  1  0
  8  9  1  0
  9 10  2  0
  9 11  1  0
 11 12  2  0
 12 13  1  0
 13 14  2  0
 14 15  1  0
 15 16  2  0
  7 17  1  0
 17 18  2  0
 17 19  1  0
 19 20  1  0
 20 21  1  0
 20 22  1  0
 22 23  2  0
 22 24  1  0
  5 25  1  0
 25 26  2  0
 26  2  1  0
 16 11  1  0
  1 27  1  0
  1 28  1  0
  1 29  1  0
  3 30  1  0
  4 31  1  0
  6 32  1  0
  6 33  1  0
  7 34  1  0
  8 35  1  0
 12 36  1  0
 13 37  1  0
 14 38  1  0
 15 39  1  0
 16 40  1  0
 19 41  1  0
 20 42  1  0
 21 43  1  0
 21 44  1  0
 21 45  1  0
 24 46  1  0
 25 47  1  0
 26 48  1  0
M  END
$$$$
