
     RDKit          3D

 30 31  0  0  0  0  0  0  0  0999 V2000
   -4.8063    0.6573   -0.4149 C   0  0  0  0  0  0  0  0  0  0  0  0
   -4.0533    0.6367    0.9020 C   0  0  0  0  0  0  0  0  0  0  0  0
   -2.6391    0.6548    0.6631 O   0  0  0  0  0  0  0  0  0  0  0  0
   -2.0502   -0.5616    0.4684 C   0  0  0  0  0  0  0  0  0  0  0  0
   -2.6558   -1.6271    0.4851 O   0  0  0  0  0  0  0  0  0  0  0  0
   -0.6268   -0.3999    0.2405 C   0  0  0  0  0  0  0  0  0  0  0  0
    0.1025   -1.5494    0.0404 O   0  0  0  0  0  0  0  0  0  0  0  0
    1.3833   -1.1767   -0.1461 C   0  0  0  0  0  0  0  0  0  0  0  0
    1.5279    0.1872   -0.0823 C   0  0  0  0  0  0  0  0  0  0  0  0
    0.2239    0.7094    0.1730 C   0  0  0  0  0  0  0  0  0  0  0  0
   -0.1523    2.1398    0.3320 C   0  0  0  0  0  0  0  0  0  0  0  0
    2.8421    0.7846   -0.2603 C   0  0  0  0  0  0  0  0  0  0  0  0
    3.0345    1.9951   -0.1863 O   0  0  0  0  0  0  0  0  0  0  0  0
    3.9751   -0.1802   -0.6243 C   0  0  0  0  0  0  0  0  0  0  0  0
    3.7871   -1.5834   -0.0208 C   0  0  0  0  0  0  0  0  0  0  0  0
    2.4244   -2.2005   -0.3785 C   0  0  0  0  0  0  0  0  0  0  0  0
   -5.8854    0.7049   -0.2440 H   0  0  0  0  0  0  0  0  0  0  0  0
   -4.5855   -0.2356   -1.0082 H   0  0  0  0  0  0  0  0  0  0  0  0
   -4.5052    1.5214   -1.0162 H   0  0  0  0  0  0  0  0  0  0  0  0
   -4.2915    1.5388    1.4750 H   0  0  0  0  0  0  0  0  0  0  0  0
   -4.3446   -0.2210    1.5191 H   0  0  0  0  0  0  0  0  0  0  0  0
    0.7039    2.8085    0.2157 H   0  0  0  0  0  0  0  0  0  0  0  0
   -0.8951    2.4258   -0.4197 H   0  0  0  0  0  0  0  0  0  0  0  0
   -0.5739    2.3155    1.3270 H   0  0  0  0  0  0  0  0  0  0  0  0
    4.9183    0.2445   -0.2636 H   0  0  0  0  0  0  0  0  0  0  0  0
    4.0227   -0.2426   -1.7175 H   0  0  0  0  0  0  0  0  0  0  0  0
    3.8680   -1.5078    1.0720 H   0  0  0  0  0  0  0  0  0  0  0  0
    4.5927   -2.2460   -0.3563 H   0  0  0  0  0  0  0  0  0  0  0  0
    2.2445   -3.0930    0.2294 H   0  0  0  0  0  0  0  0  0  0  0  0
    2.4143   -2.4994   -1.4325 H   0  0  0  0  0  0  0  0  0  0  0  0
  1  2  1  0
  2  3  1  0
  3  4  1  0
  4  5  2  0
  4  6  1  0
  6  7  1  0
  7  8  1  0
  8  9  2  0
  9 10  1  0
 10 11  1  0
  9 12  1  0
 12 13  2  0
 12 14  1  0
 14 15  1  0
 15 16  1  0
 10  6  2  0
 16  8  1  0
  1 17  1  0
  1 18  1  0
  1 19  1  0
  2 20  1  0
  2 21  1  0
 11 22  1  0
 11 23  1  0
 11 24  1  0
 14 25  1  0
 14 26  1  0
 15 27  1  0
 15 28  1  0
 16 29  1  0
 16 30  1  0
M  END
$$$$
