
     RDKit          3D

 30 30  0  0  0  0  0  0  0  0999 V2000
    3.7592    1.5565    0.6772 C   0  0  0  0  0  0  0  0  0  0  0  0
    3.3054    1.1521    2.0099 N   0  0  0  0  0  0  0  0  0  0  0  0
    4.3120    1.3311    3.0576 C   0  0  0  0  0  0  0  0  0  0  0  0
    1.9449    1.0118    2.3369 C   0  0  0  0  0  0  0  0  0  0  0  0
    1.3138    0.8550    3.8899 S   0  0  0  0  0  0  0  0  0  0  0  0
    0.8076    1.0118    0.9839 S   0  0  0  0  0  0  0  0  0  0  0  0
    0.7578   -0.7851    0.6999 C   0  0  0  0  0  0  0  0  0  0  0  0
   -0.0820   -1.1179   -0.5236 C   0  0  0  0  0  0  0  0  0  0  0  0
    0.3688   -1.8335   -1.4142 O   0  0  0  0  0  0  0  0  0  0  0  0
   -1.3612   -0.5947   -0.4702 N   0  0  0  0  0  0  0  0  0  0  0  0
   -2.4127   -0.7455   -1.4028 C   0  0  0  0  0  0  0  0  0  0  0  0
   -2.3223   -1.5612   -2.5341 C   0  0  0  0  0  0  0  0  0  0  0  0
   -3.4012   -1.6701   -3.4196 C   0  0  0  0  0  0  0  0  0  0  0  0
   -4.5777   -0.9652   -3.1785 C   0  0  0  0  0  0  0  0  0  0  0  0
   -5.8976   -1.1056   -4.2722 Cl  0  0  0  0  0  0  0  0  0  0  0  0
   -4.6920   -0.1498   -2.0582 C   0  0  0  0  0  0  0  0  0  0  0  0
   -3.6139   -0.0434   -1.1768 C   0  0  0  0  0  0  0  0  0  0  0  0
   -3.7965    0.9817    0.2080 Cl  0  0  0  0  0  0  0  0  0  0  0  0
    4.8265    1.3428    0.5643 H   0  0  0  0  0  0  0  0  0  0  0  0
    3.5878    2.6307    0.5605 H   0  0  0  0  0  0  0  0  0  0  0  0
    3.2353    1.0120   -0.1110 H   0  0  0  0  0  0  0  0  0  0  0  0
    4.3804    2.3965    3.2977 H   0  0  0  0  0  0  0  0  0  0  0  0
    5.2819    0.9727    2.6992 H   0  0  0  0  0  0  0  0  0  0  0  0
    4.0704    0.7694    3.9621 H   0  0  0  0  0  0  0  0  0  0  0  0
    0.3310   -1.3025    1.5648 H   0  0  0  0  0  0  0  0  0  0  0  0
    1.7749   -1.1550    0.5356 H   0  0  0  0  0  0  0  0  0  0  0  0
   -1.5524    0.0474    0.2969 H   0  0  0  0  0  0  0  0  0  0  0  0
   -1.4260   -2.1312   -2.7595 H   0  0  0  0  0  0  0  0  0  0  0  0
   -3.3108   -2.3094   -4.2949 H   0  0  0  0  0  0  0  0  0  0  0  0
   -5.6112    0.3985   -1.8718 H   0  0  0  0  0  0  0  0  0  0  0  0
  1  2  1  0
  2  3  1  0
  2  4  1  0
  4  5  2  0
  4  6  1  0
  6  7  1  0
  7  8  1  0
  8  9  2  0
  8 10  1  0
 10 11  1  0
 11 12  2  0
 12 13  1  0
 13 14  2  0
 14 15  1  0
 14 16  1  0
 16 17  2  0
 17 18  1  0
 17 11  1  0
  1 19  1  0
  1 20  1  0
  1 21  1  0
  3 22  1  0
  3 23  1  0
  3 24  1  0
  7 25  1  0
  7 26  1  0
 10 27  1  0
 12 28  1  0
 13 29  1  0
 16 30  1  0
M  END
$$$$
