
     RDKit          3D

 53 56  0  0  0  0  0  0  0  0999 V2000
   -2.9269    6.1447   -1.1080 C   0  0  0  0  0  0  0  0  0  0  0  0
   -2.7640    5.1490   -0.1060 O   0  0  0  0  0  0  0  0  0  0  0  0
   -2.1687    3.9787   -0.4872 C   0  0  0  0  0  0  0  0  0  0  0  0
   -1.9724    3.0599    0.5445 C   0  0  0  0  0  0  0  0  0  0  0  0
   -1.3772    1.8209    0.2944 C   0  0  0  0  0  0  0  0  0  0  0  0
   -0.9616    1.4768   -0.9997 C   0  0  0  0  0  0  0  0  0  0  0  0
   -0.3453    0.1230   -1.3195 C   0  0  0  0  0  0  0  0  0  0  0  0
   -1.4362   -0.9317   -1.5263 C   0  0  0  0  0  0  0  0  0  0  0  0
   -1.2059   -1.7885   -0.3143 C   0  0  0  0  0  0  0  0  0  0  0  0
   -2.1135   -2.8981    0.0298 C   0  0  0  0  0  0  0  0  0  0  0  0
   -3.4946   -2.6533    0.0109 C   0  0  0  0  0  0  0  0  0  0  0  0
   -4.3914   -3.6609    0.3648 C   0  0  0  0  0  0  0  0  0  0  0  0
   -3.9159   -4.9122    0.7432 C   0  0  0  0  0  0  0  0  0  0  0  0
   -2.5424   -5.1597    0.7639 C   0  0  0  0  0  0  0  0  0  0  0  0
   -1.6178   -4.1606    0.4007 C   0  0  0  0  0  0  0  0  0  0  0  0
   -0.1423   -4.4843    0.4002 C   0  0  0  0  0  0  0  0  0  0  0  0
    0.0862   -5.8341    0.4299 F   0  0  0  0  0  0  0  0  0  0  0  0
    0.5067   -4.0551   -0.7178 F   0  0  0  0  0  0  0  0  0  0  0  0
    0.5290   -3.9935    1.4751 F   0  0  0  0  0  0  0  0  0  0  0  0
   -0.1412   -1.5168    0.3700 N   0  0  0  0  0  0  0  0  0  0  0  0
    0.4452   -0.4331   -0.2173 N   0  0  0  0  0  0  0  0  0  0  0  0
    1.7311   -0.0391    0.1488 C   0  0  0  0  0  0  0  0  0  0  0  0
    2.3983    1.0308   -0.4714 C   0  0  0  0  0  0  0  0  0  0  0  0
    3.6940    1.4074   -0.0960 C   0  0  0  0  0  0  0  0  0  0  0  0
    4.3485    0.7071    0.9156 C   0  0  0  0  0  0  0  0  0  0  0  0
    5.9914    1.1727    1.3839 S   0  0  0  0  0  6  0  0  0  0  0  0
    6.9147    0.1836    0.3781 N   0  0  0  0  0  0  0  0  0  0  0  0
    6.2170    2.5410    0.9838 O   0  0  0  0  0  0  0  0  0  0  0  0
    6.2419    0.7032    2.7270 O   0  0  0  0  0  0  0  0  0  0  0  0
    3.7124   -0.3441    1.5694 C   0  0  0  0  0  0  0  0  0  0  0  0
    2.4192   -0.7080    1.1801 C   0  0  0  0  0  0  0  0  0  0  0  0
   -1.1696    2.4039   -2.0336 C   0  0  0  0  0  0  0  0  0  0  0  0
   -1.7647    3.6455   -1.7789 C   0  0  0  0  0  0  0  0  0  0  0  0
   -3.5987    5.7994   -1.9008 H   0  0  0  0  0  0  0  0  0  0  0  0
   -1.9600    6.4570   -1.5161 H   0  0  0  0  0  0  0  0  0  0  0  0
   -3.3879    7.0193   -0.6388 H   0  0  0  0  0  0  0  0  0  0  0  0
   -2.2807    3.3115    1.5565 H   0  0  0  0  0  0  0  0  0  0  0  0
   -1.2308    1.1302    1.1240 H   0  0  0  0  0  0  0  0  0  0  0  0
    0.2648    0.1956   -2.2291 H   0  0  0  0  0  0  0  0  0  0  0  0
   -2.4492   -0.5272   -1.5788 H   0  0  0  0  0  0  0  0  0  0  0  0
   -1.2355   -1.5358   -2.4178 H   0  0  0  0  0  0  0  0  0  0  0  0
   -3.8889   -1.6734   -0.2464 H   0  0  0  0  0  0  0  0  0  0  0  0
   -5.4613   -3.4650    0.3586 H   0  0  0  0  0  0  0  0  0  0  0  0
   -4.6140   -5.6971    1.0268 H   0  0  0  0  0  0  0  0  0  0  0  0
   -2.1918   -6.1481    1.0620 H   0  0  0  0  0  0  0  0  0  0  0  0
    1.9169    1.6058   -1.2569 H   0  0  0  0  0  0  0  0  0  0  0  0
    4.1752    2.2468   -0.5939 H   0  0  0  0  0  0  0  0  0  0  0  0
    6.3563   -0.2958   -0.3275 H   0  0  0  0  0  0  0  0  0  0  0  0
    7.4357   -0.4749    0.9599 H   0  0  0  0  0  0  0  0  0  0  0  0
    4.1999   -0.8846    2.3771 H   0  0  0  0  0  0  0  0  0  0  0  0
    1.9347   -1.5343    1.6991 H   0  0  0  0  0  0  0  0  0  0  0  0
   -0.8682    2.1688   -3.0525 H   0  0  0  0  0  0  0  0  0  0  0  0
   -1.9005    4.3267   -2.6123 H   0  0  0  0  0  0  0  0  0  0  0  0
  1  2  1  0
  2  3  1  0
  3  4  2  0
  4  5  1  0
  5  6  2  0
  6  7  1  0
  7  8  1  0
  8  9  1  0
  9 10  1  0
 10 11  2  0
 11 12  1  0
 12 13  2  0
 13 14  1  0
 14 15  2  0
 15 16  1  0
 16 17  1  0
 16 18  1  0
 16 19  1  0
  9 20  2  0
 20 21  1  0
 21 22  1  0
 22 23  2  0
 23 24  1  0
 24 25  2  0
 25 26  1  0
 26 27  1  0
 26 28  2  0
 26 29  2  0
 25 30  1  0
 30 31  2  0
  6 32  1  0
 32 33  2  0
 33  3  1  0
 21  7  1  0
 31 22  1  0
 15 10  1  0
  1 34  1  0
  1 35  1  0
  1 36  1  0
  4 37  1  0
  5 38  1  0
  7 39  1  0
  8 40  1  0
  8 41  1  0
 11 42  1  0
 12 43  1  0
 13 44  1  0
 14 45  1  0
 23 46  1  0
 24 47  1  0
 27 48  1  0
 27 49  1  0
 30 50  1  0
 31 51  1  0
 32 52  1  0
 33 53  1  0
M  END
$$$$
