
     RDKit          3D

 45 47  0  0  0  0  0  0  0  0999 V2000
    4.3613    1.4926   -3.7502 O   0  0  0  0  0  0  0  0  0  0  0  0
    3.3613    1.6928   -3.0706 C   0  0  0  0  0  0  0  0  0  0  0  0
    2.1922    2.5811   -3.5049 C   0  0  0  0  0  0  0  0  0  0  0  0
    1.0504    2.4830   -2.5995 N   0  0  0  0  0  0  0  0  0  0  0  0
    0.1746    1.4225   -2.7503 C   0  0  0  0  0  0  0  0  0  0  0  0
    0.1441    0.7123   -3.7468 O   0  0  0  0  0  0  0  0  0  0  0  0
   -0.6817    1.1108   -1.5736 C   0  0  0  0  0  0  0  0  0  0  0  0
   -1.0891    2.0961   -0.6705 C   0  0  0  0  0  0  0  0  0  0  0  0
   -1.8385    1.7420    0.4566 C   0  0  0  0  0  0  0  0  0  0  0  0
   -2.1996    0.4057    0.7030 C   0  0  0  0  0  0  0  0  0  0  0  0
   -2.9556    0.0365    1.9116 C   0  0  0  0  0  0  0  0  0  0  0  0
   -2.5191    0.4420    3.1838 C   0  0  0  0  0  0  0  0  0  0  0  0
   -3.2321    0.0989    4.3360 C   0  0  0  0  0  0  0  0  0  0  0  0
   -4.3967   -0.6557    4.2343 C   0  0  0  0  0  0  0  0  0  0  0  0
   -4.8462   -1.0715    2.9841 C   0  0  0  0  0  0  0  0  0  0  0  0
   -4.1305   -0.7294    1.8326 C   0  0  0  0  0  0  0  0  0  0  0  0
   -1.8094   -0.5650   -0.2328 C   0  0  0  0  0  0  0  0  0  0  0  0
   -1.0618   -0.2173   -1.3622 C   0  0  0  0  0  0  0  0  0  0  0  0
    3.1624    1.2104   -1.8122 O   0  0  0  0  0  0  0  0  0  0  0  0
    4.0370    0.1685   -1.3740 C   0  0  0  0  0  0  0  0  0  0  0  0
    3.1481   -0.9786   -0.9647 C   0  0  0  0  0  0  0  0  0  0  0  0
    2.5017   -0.9739    0.2855 C   0  0  0  0  0  0  0  0  0  0  0  0
    1.6218   -2.0040    0.6323 C   0  0  0  0  0  0  0  0  0  0  0  0
    1.3802   -3.0407   -0.2695 C   0  0  0  0  0  0  0  0  0  0  0  0
    0.2768   -4.2949    0.1471 Cl  0  0  0  0  0  0  0  0  0  0  0  0
    2.0109   -3.0569   -1.5147 C   0  0  0  0  0  0  0  0  0  0  0  0
    2.8887   -2.0253   -1.8639 C   0  0  0  0  0  0  0  0  0  0  0  0
    1.8892    2.2961   -4.5167 H   0  0  0  0  0  0  0  0  0  0  0  0
    2.5286    3.6226   -3.4858 H   0  0  0  0  0  0  0  0  0  0  0  0
    1.2275    2.7834   -1.6502 H   0  0  0  0  0  0  0  0  0  0  0  0
   -0.8484    3.1416   -0.8346 H   0  0  0  0  0  0  0  0  0  0  0  0
   -2.1517    2.5247    1.1451 H   0  0  0  0  0  0  0  0  0  0  0  0
   -1.6057    1.0226    3.2893 H   0  0  0  0  0  0  0  0  0  0  0  0
   -2.8749    0.4205    5.3103 H   0  0  0  0  0  0  0  0  0  0  0  0
   -4.9534   -0.9189    5.1291 H   0  0  0  0  0  0  0  0  0  0  0  0
   -5.7561   -1.6595    2.9012 H   0  0  0  0  0  0  0  0  0  0  0  0
   -4.5073   -1.0571    0.8646 H   0  0  0  0  0  0  0  0  0  0  0  0
   -2.0644   -1.6122   -0.0784 H   0  0  0  0  0  0  0  0  0  0  0  0
   -0.7547   -0.9926   -2.0614 H   0  0  0  0  0  0  0  0  0  0  0  0
    4.7552   -0.1533   -2.1355 H   0  0  0  0  0  0  0  0  0  0  0  0
    4.6096    0.5335   -0.5099 H   0  0  0  0  0  0  0  0  0  0  0  0
    2.6630   -0.1573    0.9860 H   0  0  0  0  0  0  0  0  0  0  0  0
    1.1131   -1.9838    1.5934 H   0  0  0  0  0  0  0  0  0  0  0  0
    1.8207   -3.8566   -2.2189 H   0  0  0  0  0  0  0  0  0  0  0  0
    3.3583   -2.0356   -2.8473 H   0  0  0  0  0  0  0  0  0  0  0  0
  1  2  2  0
  2  3  1  0
  3  4  1  0
  4  5  1  0
  5  6  2  0
  5  7  1  0
  7  8  2  0
  8  9  1  0
  9 10  2  0
 10 11  1  0
 11 12  2  0
 12 13  1  0
 13 14  2  0
 14 15  1  0
 15 16  2  0
 10 17  1  0
 17 18  2  0
  2 19  1  0
 19 20  1  0
 20 21  1  0
 21 22  2  0
 22 23  1  0
 23 24  2  0
 24 25  1  0
 24 26  1  0
 26 27  2  0
 18  7  1  0
 27 21  1  0
 16 11  1  0
  3 28  1  0
  3 29  1  0
  4 30  1  0
  8 31  1  0
  9 32  1  0
 12 33  1  0
 13 34  1  0
 14 35  1  0
 15 36  1  0
 16 37  1  0
 17 38  1  0
 18 39  1  0
 20 40  1  0
 20 41  1  0
 22 42  1  0
 23 43  1  0
 26 44  1  0
 27 45  1  0
M  END
$$$$
