
     RDKit          3D

 34 35  0  0  0  0  0  0  0  0999 V2000
   -2.1529   -2.8065   -1.3713 O   0  0  0  0  0  0  0  0  0  0  0  0
   -1.4271   -1.8085   -1.2451 N   0  0  0  0  0  4  0  0  0  0  0  0
   -0.2544   -1.7296   -1.6386 O   0  0  0  0  0  1  0  0  0  0  0  0
   -2.0238   -0.6242   -0.6341 C   0  0  0  0  0  0  0  0  0  0  0  0
   -3.3328   -0.2939   -1.0390 C   0  0  0  0  0  0  0  0  0  0  0  0
   -3.9832    0.8109   -0.4795 C   0  0  0  0  0  0  0  0  0  0  0  0
   -5.3755    1.1932   -0.9194 C   0  0  0  0  0  0  0  0  0  0  0  0
   -6.1402    0.1180   -1.2541 F   0  0  0  0  0  0  0  0  0  0  0  0
   -5.3636    2.0016   -2.0138 F   0  0  0  0  0  0  0  0  0  0  0  0
   -6.0737    1.8648    0.0373 F   0  0  0  0  0  0  0  0  0  0  0  0
   -3.2993    1.5660    0.4794 C   0  0  0  0  0  0  0  0  0  0  0  0
   -1.9975    1.2224    0.8778 C   0  0  0  0  0  0  0  0  0  0  0  0
   -1.3056    0.1379    0.3137 C   0  0  0  0  0  0  0  0  0  0  0  0
   -0.0423   -0.2577    0.7825 N   0  0  0  0  0  0  0  0  0  0  0  0
    0.8101    0.6886    1.5138 C   0  0  0  0  0  0  0  0  0  0  0  0
    2.1496    0.0400    1.8951 C   0  0  0  0  0  0  0  0  0  0  0  0
    3.0709   -0.2641    0.7365 C   0  0  0  0  0  0  0  0  0  0  0  0
    4.3419   -0.7774    0.9883 C   0  0  0  0  0  0  0  0  0  0  0  0
    5.1699   -1.0872   -0.0874 C   0  0  0  0  0  0  0  0  0  0  0  0
    4.7091   -0.8853   -1.3820 C   0  0  0  0  0  0  0  0  0  0  0  0
    3.4344   -0.3743   -1.5472 C   0  0  0  0  0  0  0  0  0  0  0  0
    2.6148   -0.0550   -0.5213 N   0  0  0  0  0  0  0  0  0  0  0  0
   -3.8465   -0.9027   -1.7837 H   0  0  0  0  0  0  0  0  0  0  0  0
   -3.7800    2.4293    0.9405 H   0  0  0  0  0  0  0  0  0  0  0  0
   -1.5392    1.8359    1.6491 H   0  0  0  0  0  0  0  0  0  0  0  0
    0.5127   -0.6737    0.0146 H   0  0  0  0  0  0  0  0  0  0  0  0
    0.3156    0.9795    2.4478 H   0  0  0  0  0  0  0  0  0  0  0  0
    0.9791    1.5924    0.9156 H   0  0  0  0  0  0  0  0  0  0  0  0
    2.6766    0.7211    2.5750 H   0  0  0  0  0  0  0  0  0  0  0  0
    1.9600   -0.8934    2.4399 H   0  0  0  0  0  0  0  0  0  0  0  0
    4.6834   -0.9445    2.0047 H   0  0  0  0  0  0  0  0  0  0  0  0
    6.1633   -1.4918    0.0841 H   0  0  0  0  0  0  0  0  0  0  0  0
    5.3247   -1.1255   -2.2412 H   0  0  0  0  0  0  0  0  0  0  0  0
    3.0214   -0.2064   -2.5379 H   0  0  0  0  0  0  0  0  0  0  0  0
  1  2  2  0
  2  3  1  0
  2  4  1  0
  4  5  2  0
  5  6  1  0
  6  7  1  0
  7  8  1  0
  7  9  1  0
  7 10  1  0
  6 11  2  0
 11 12  1  0
 12 13  2  0
 13 14  1  0
 14 15  1  0
 15 16  1  0
 16 17  1  0
 17 18  2  0
 18 19  1  0
 19 20  2  0
 20 21  1  0
 21 22  2  0
 13  4  1  0
 22 17  1  0
  5 23  1  0
 11 24  1  0
 12 25  1  0
 14 26  1  0
 15 27  1  0
 15 28  1  0
 16 29  1  0
 16 30  1  0
 18 31  1  0
 19 32  1  0
 20 33  1  0
 21 34  1  0
M  CHG  2   2   1   3  -1
M  END
$$$$
