
     RDKit          3D

 58 61  0  0  0  0  0  0  0  0999 V2000
    1.0155   -3.5493   -0.7819 S   0  0  0  0  0  0  0  0  0  0  0  0
    0.8403   -1.8977   -0.5809 C   0  0  0  0  0  0  0  0  0  0  0  0
    1.9767   -1.1941   -0.2930 N   0  0  0  0  0  0  0  0  0  0  0  0
    2.0424    0.0616    0.4464 C   0  0  0  0  0  0  0  0  0  0  0  0
    3.2274    0.1210    1.4118 C   0  0  0  0  0  0  0  0  0  0  0  0
    4.5720    0.2413    0.6822 C   0  0  0  0  0  0  0  0  0  0  0  0
    5.6894    0.3534    1.6284 N   0  0  0  0  0  0  0  0  0  0  0  0
    6.9627   -0.0515    0.9923 C   0  0  0  0  0  0  0  0  0  0  0  0
    8.1789    0.5026    1.7488 C   0  0  0  0  0  0  0  0  0  0  0  0
    8.2363    1.9337    1.7257 O   0  0  0  0  0  0  0  0  0  0  0  0
    6.9444    2.5445    1.6134 C   0  0  0  0  0  0  0  0  0  0  0  0
    5.8173    1.6996    2.2284 C   0  0  0  0  0  0  0  0  0  0  0  0
   -0.3432   -1.1902   -0.6612 N   0  0  0  0  0  0  0  0  0  0  0  0
   -0.4234    0.0016   -1.5308 C   0  0  0  0  0  0  0  0  0  0  0  0
   -1.1461   -0.3186   -2.8622 C   0  0  0  0  0  0  0  0  0  0  0  0
   -2.4760   -0.9097   -2.6068 N   0  0  0  0  0  0  0  0  0  0  0  0
   -3.5350   -0.0822   -2.3388 C   0  0  0  0  0  0  0  0  0  0  0  0
   -4.4567   -0.3522   -1.4386 N   0  0  0  0  0  0  0  0  0  0  0  0
   -5.4190    0.6450   -1.3652 C   0  0  0  0  0  0  0  0  0  0  0  0
   -6.5252    0.5517   -0.4104 C   0  0  0  0  0  0  0  0  0  0  0  0
   -6.7501   -0.6576    0.2651 C   0  0  0  0  0  0  0  0  0  0  0  0
   -7.7874   -0.7825    1.1929 C   0  0  0  0  0  0  0  0  0  0  0  0
   -8.6164    0.3031    1.4616 C   0  0  0  0  0  0  0  0  0  0  0  0
   -8.4107    1.5103    0.8003 C   0  0  0  0  0  0  0  0  0  0  0  0
   -7.3719    1.6352   -0.1283 C   0  0  0  0  0  0  0  0  0  0  0  0
   -5.2236    1.6822   -2.2520 C   0  0  0  0  0  0  0  0  0  0  0  0
   -3.8222    1.3986   -3.1891 S   0  0  0  0  0  0  0  0  0  0  0  0
   -2.3783   -2.1366   -1.7789 C   0  0  0  0  0  0  0  0  0  0  0  0
   -1.6635   -1.8276   -0.4474 C   0  0  0  0  0  0  0  0  0  0  0  0
    2.7933   -1.7908   -0.2556 H   0  0  0  0  0  0  0  0  0  0  0  0
    1.1153    0.1846    1.0167 H   0  0  0  0  0  0  0  0  0  0  0  0
    2.1108    0.8773   -0.2806 H   0  0  0  0  0  0  0  0  0  0  0  0
    3.0779    0.9818    2.0724 H   0  0  0  0  0  0  0  0  0  0  0  0
    3.2306   -0.7729    2.0473 H   0  0  0  0  0  0  0  0  0  0  0  0
    4.7041   -0.6667    0.0804 H   0  0  0  0  0  0  0  0  0  0  0  0
    4.5627    1.0874   -0.0168 H   0  0  0  0  0  0  0  0  0  0  0  0
    7.0162   -1.1450    0.9674 H   0  0  0  0  0  0  0  0  0  0  0  0
    7.0039    0.3145   -0.0425 H   0  0  0  0  0  0  0  0  0  0  0  0
    9.1044    0.1299    1.2999 H   0  0  0  0  0  0  0  0  0  0  0  0
    8.1727    0.1757    2.7946 H   0  0  0  0  0  0  0  0  0  0  0  0
    6.9982    3.5187    2.1086 H   0  0  0  0  0  0  0  0  0  0  0  0
    6.7472    2.7329    0.5511 H   0  0  0  0  0  0  0  0  0  0  0  0
    6.0405    1.5507    3.2927 H   0  0  0  0  0  0  0  0  0  0  0  0
    4.8795    2.2617    2.1863 H   0  0  0  0  0  0  0  0  0  0  0  0
    0.5703    0.3824   -1.7750 H   0  0  0  0  0  0  0  0  0  0  0  0
   -0.9658    0.7736   -0.9724 H   0  0  0  0  0  0  0  0  0  0  0  0
   -1.1942    0.5777   -3.4899 H   0  0  0  0  0  0  0  0  0  0  0  0
   -0.5492   -1.0494   -3.4267 H   0  0  0  0  0  0  0  0  0  0  0  0
   -6.1133   -1.5186    0.0709 H   0  0  0  0  0  0  0  0  0  0  0  0
   -7.9421   -1.7264    1.7059 H   0  0  0  0  0  0  0  0  0  0  0  0
   -9.4177    0.2094    2.1888 H   0  0  0  0  0  0  0  0  0  0  0  0
   -9.0557    2.3606    1.0089 H   0  0  0  0  0  0  0  0  0  0  0  0
   -7.2373    2.5964   -0.6122 H   0  0  0  0  0  0  0  0  0  0  0  0
   -5.8167    2.5675   -2.4174 H   0  0  0  0  0  0  0  0  0  0  0  0
   -1.8074   -2.8838   -2.3422 H   0  0  0  0  0  0  0  0  0  0  0  0
   -3.3620   -2.5835   -1.5917 H   0  0  0  0  0  0  0  0  0  0  0  0
   -2.2557   -1.1172    0.1439 H   0  0  0  0  0  0  0  0  0  0  0  0
   -1.5649   -2.7358    0.1557 H   0  0  0  0  0  0  0  0  0  0  0  0
  1  2  2  0
  2  3  1  0
  3  4  1  0
  4  5  1  0
  5  6  1  0
  6  7  1  0
  7  8  1  0
  8  9  1  0
  9 10  1  0
 10 11  1  0
 11 12  1  0
  2 13  1  0
 13 14  1  0
 14 15  1  0
 15 16  1  0
 16 17  1  0
 17 18  2  0
 18 19  1  0
 19 20  1  0
 20 21  2  0
 21 22  1  0
 22 23  2  0
 23 24  1  0
 24 25  2  0
 19 26  2  0
 26 27  1  0
 16 28  1  0
 28 29  1  0
 12  7  1  0
 29 13  1  0
 27 17  1  0
 25 20  1  0
  3 30  1  0
  4 31  1  0
  4 32  1  0
  5 33  1  0
  5 34  1  0
  6 35  1  0
  6 36  1  0
  8 37  1  0
  8 38  1  0
  9 39  1  0
  9 40  1  0
 11 41  1  0
 11 42  1  0
 12 43  1  0
 12 44  1  0
 14 45  1  0
 14 46  1  0
 15 47  1  0
 15 48  1  0
 21 49  1  0
 22 50  1  0
 23 51  1  0
 24 52  1  0
 25 53  1  0
 26 54  1  0
 28 55  1  0
 28 56  1  0
 29 57  1  0
 29 58  1  0
M  END
$$$$
