
     RDKit          3D

 51 54  0  0  0  0  0  0  0  0999 V2000
    1.4257    0.4522   -3.2851 O   0  0  0  0  0  0  0  0  0  0  0  0
    1.5579    0.2826   -2.0724 C   0  0  0  0  0  0  0  0  0  0  0  0
    2.8615    0.2992   -1.4248 C   0  0  0  0  0  0  0  0  0  0  0  0
    3.2713    0.9618   -0.2805 C   0  0  0  0  0  0  0  0  0  0  0  0
    4.6460    0.7267    0.0257 C   0  0  0  0  0  0  0  0  0  0  0  0
    5.2330   -0.0984   -0.9131 C   0  0  0  0  0  0  0  0  0  0  0  0
    4.1568   -0.5623   -2.1447 S   0  0  0  0  0  0  0  0  0  0  0  0
    6.6705   -0.5189   -0.9150 C   0  0  0  0  0  0  0  0  0  0  0  0
    7.3162   -0.2373    0.4514 C   0  0  0  0  0  0  0  0  0  0  0  0
    6.9252    1.1448    0.9957 C   0  0  0  0  0  0  0  0  0  0  0  0
    5.4067    1.2647    1.1994 C   0  0  0  0  0  0  0  0  0  0  0  0
    0.4320    0.0881   -1.2645 N   0  0  0  0  0  0  0  0  0  0  0  0
    0.4694   -0.4705    0.0926 C   0  0  0  0  0  0  0  0  0  0  0  0
   -0.7736   -1.3115    0.4127 C   0  0  0  0  0  0  0  0  0  0  0  0
   -2.0380   -0.5162    0.2610 N   0  0  0  0  0  0  0  0  0  0  0  0
   -3.4325   -1.5117    0.2724 S   0  0  0  0  0  6  0  0  0  0  0  0
   -3.3306   -2.4094    1.4002 O   0  0  0  0  0  0  0  0  0  0  0  0
   -3.5807   -1.9850   -1.0845 O   0  0  0  0  0  0  0  0  0  0  0  0
   -4.7604   -0.3790    0.6382 C   0  0  0  0  0  0  0  0  0  0  0  0
   -4.4811    0.7066    1.4850 C   0  0  0  0  0  0  0  0  0  0  0  0
   -5.4680    1.6486    1.7674 C   0  0  0  0  0  0  0  0  0  0  0  0
   -6.7353    1.5109    1.2115 C   0  0  0  0  0  0  0  0  0  0  0  0
   -7.0225    0.4213    0.3866 C   0  0  0  0  0  0  0  0  0  0  0  0
   -6.0460   -0.5527    0.0952 C   0  0  0  0  0  0  0  0  0  0  0  0
   -6.4281   -1.7327   -0.7679 C   0  0  0  0  0  0  0  0  0  0  0  0
   -7.7828   -1.9035   -0.8365 F   0  0  0  0  0  0  0  0  0  0  0  0
   -5.9502   -2.9182   -0.3102 F   0  0  0  0  0  0  0  0  0  0  0  0
   -6.0248   -1.5944   -2.0573 F   0  0  0  0  0  0  0  0  0  0  0  0
   -1.9825    0.4902   -0.8581 C   0  0  0  0  0  0  0  0  0  0  0  0
   -0.8908    0.1759   -1.8852 C   0  0  0  0  0  0  0  0  0  0  0  0
    2.6174    1.5957    0.3056 H   0  0  0  0  0  0  0  0  0  0  0  0
    7.2043    0.0442   -1.6908 H   0  0  0  0  0  0  0  0  0  0  0  0
    6.7691   -1.5846   -1.1511 H   0  0  0  0  0  0  0  0  0  0  0  0
    8.4059   -0.3103    0.3619 H   0  0  0  0  0  0  0  0  0  0  0  0
    7.0027   -1.0056    1.1700 H   0  0  0  0  0  0  0  0  0  0  0  0
    7.2638    1.9159    0.2918 H   0  0  0  0  0  0  0  0  0  0  0  0
    7.4372    1.3317    1.9463 H   0  0  0  0  0  0  0  0  0  0  0  0
    5.1423    2.3132    1.3765 H   0  0  0  0  0  0  0  0  0  0  0  0
    5.1146    0.6978    2.0917 H   0  0  0  0  0  0  0  0  0  0  0  0
    1.3637   -1.0875    0.2228 H   0  0  0  0  0  0  0  0  0  0  0  0
    0.5269    0.3778    0.7841 H   0  0  0  0  0  0  0  0  0  0  0  0
   -0.7052   -1.6657    1.4472 H   0  0  0  0  0  0  0  0  0  0  0  0
   -0.8015   -2.1828   -0.2532 H   0  0  0  0  0  0  0  0  0  0  0  0
   -3.4968    0.8219    1.9347 H   0  0  0  0  0  0  0  0  0  0  0  0
   -5.2495    2.4886    2.4227 H   0  0  0  0  0  0  0  0  0  0  0  0
   -7.5080    2.2453    1.4296 H   0  0  0  0  0  0  0  0  0  0  0  0
   -8.0291    0.3267   -0.0228 H   0  0  0  0  0  0  0  0  0  0  0  0
   -2.9479    0.5764   -1.3669 H   0  0  0  0  0  0  0  0  0  0  0  0
   -1.7860    1.4655   -0.3956 H   0  0  0  0  0  0  0  0  0  0  0  0
   -1.0865   -0.7851   -2.3759 H   0  0  0  0  0  0  0  0  0  0  0  0
   -0.8819    0.9489   -2.6616 H   0  0  0  0  0  0  0  0  0  0  0  0
  1  2  2  0
  2  3  1  0
  3  4  2  0
  4  5  1  0
  5  6  2  0
  6  7  1  0
  6  8  1  0
  8  9  1  0
  9 10  1  0
 10 11  1  0
  2 12  1  0
 12 13  1  0
 13 14  1  0
 14 15  1  0
 15 16  1  0
 16 17  2  0
 16 18  2  0
 16 19  1  0
 19 20  2  0
 20 21  1  0
 21 22  2  0
 22 23  1  0
 23 24  2  0
 24 25  1  0
 25 26  1  0
 25 27  1  0
 25 28  1  0
 15 29  1  0
 29 30  1  0
  7  3  1  0
 30 12  1  0
 11  5  1  0
 24 19  1  0
  4 31  1  0
  8 32  1  0
  8 33  1  0
  9 34  1  0
  9 35  1  0
 10 36  1  0
 10 37  1  0
 11 38  1  0
 11 39  1  0
 13 40  1  0
 13 41  1  0
 14 42  1  0
 14 43  1  0
 20 44  1  0
 21 45  1  0
 22 46  1  0
 23 47  1  0
 29 48  1  0
 29 49  1  0
 30 50  1  0
 30 51  1  0
M  END
$$$$
