
     RDKit          3D

 46 47  0  0  0  0  0  0  0  0999 V2000
    8.2998   -0.0646   -0.0664 O   0  0  0  0  0  0  0  0  0  0  0  0
    7.1581   -0.3155    0.2746 C   0  0  0  0  0  0  0  0  0  0  0  0
    6.2471   -0.6757   -0.6513 O   0  0  0  0  0  0  0  0  0  0  0  0
    6.6083   -0.1776    1.6662 C   0  0  0  0  0  0  0  0  0  0  0  0
    5.5417   -1.2115    2.0058 C   0  0  0  0  0  0  0  0  0  0  0  0
    4.1488   -0.6216    1.8774 C   0  0  0  0  0  0  0  0  0  0  0  0
    3.4971   -0.3481    2.8797 O   0  0  0  0  0  0  0  0  0  0  0  0
    3.7619   -0.4409    0.5637 N   0  0  0  0  0  0  0  0  0  0  0  0
    2.5610    0.1188    0.0857 C   0  0  0  0  0  0  0  0  0  0  0  0
    1.5475    0.6128    0.9109 C   0  0  0  0  0  0  0  0  0  0  0  0
    0.3910    1.1721    0.3594 C   0  0  0  0  0  0  0  0  0  0  0  0
    0.2441    1.2280   -1.0277 C   0  0  0  0  0  0  0  0  0  0  0  0
   -1.2247    1.9449   -1.7165 S   0  0  0  0  0  6  0  0  0  0  0  0
   -1.3833    3.2528   -1.1231 O   0  0  0  0  0  0  0  0  0  0  0  0
   -1.2144    1.7460   -3.1492 O   0  0  0  0  0  0  0  0  0  0  0  0
   -2.4248    0.9720   -1.0672 N   0  0  0  0  0  0  0  0  0  0  0  0
   -2.7659   -0.2831   -1.7507 C   0  0  0  0  0  0  0  0  0  0  0  0
   -3.4463   -1.2519   -0.7769 C   0  0  0  0  0  0  0  0  0  0  0  0
   -4.7663   -0.7418   -0.2457 C   0  0  0  0  0  0  0  0  0  0  0  0
   -5.9235   -0.7943   -1.0351 C   0  0  0  0  0  0  0  0  0  0  0  0
   -7.1357   -0.3041   -0.5462 C   0  0  0  0  0  0  0  0  0  0  0  0
   -7.2021    0.2438    0.7336 C   0  0  0  0  0  0  0  0  0  0  0  0
   -6.0578    0.3001    1.5265 C   0  0  0  0  0  0  0  0  0  0  0  0
   -4.8459   -0.1908    1.0400 C   0  0  0  0  0  0  0  0  0  0  0  0
    1.2433    0.7358   -1.8659 C   0  0  0  0  0  0  0  0  0  0  0  0
    2.3991    0.1856   -1.3062 C   0  0  0  0  0  0  0  0  0  0  0  0
    6.7751   -0.6557   -1.4826 H   0  0  0  0  0  0  0  0  0  0  0  0
    6.2470    0.8488    1.7930 H   0  0  0  0  0  0  0  0  0  0  0  0
    7.4559   -0.3257    2.3471 H   0  0  0  0  0  0  0  0  0  0  0  0
    5.6584   -1.5234    3.0513 H   0  0  0  0  0  0  0  0  0  0  0  0
    5.6146   -2.1205    1.3980 H   0  0  0  0  0  0  0  0  0  0  0  0
    4.4443   -0.7098   -0.1433 H   0  0  0  0  0  0  0  0  0  0  0  0
    1.6310    0.5893    1.9924 H   0  0  0  0  0  0  0  0  0  0  0  0
   -0.3825    1.5656    1.0154 H   0  0  0  0  0  0  0  0  0  0  0  0
   -3.1928    1.5096   -0.6613 H   0  0  0  0  0  0  0  0  0  0  0  0
   -3.4276   -0.0607   -2.5965 H   0  0  0  0  0  0  0  0  0  0  0  0
   -1.8579   -0.7624   -2.1346 H   0  0  0  0  0  0  0  0  0  0  0  0
   -3.6199   -2.2112   -1.2809 H   0  0  0  0  0  0  0  0  0  0  0  0
   -2.7725   -1.4695    0.0627 H   0  0  0  0  0  0  0  0  0  0  0  0
   -5.8921   -1.2201   -2.0361 H   0  0  0  0  0  0  0  0  0  0  0  0
   -8.0286   -0.3499   -1.1629 H   0  0  0  0  0  0  0  0  0  0  0  0
   -8.1464    0.6237    1.1153 H   0  0  0  0  0  0  0  0  0  0  0  0
   -6.1097    0.7256    2.5263 H   0  0  0  0  0  0  0  0  0  0  0  0
   -3.9623   -0.1392    1.6720 H   0  0  0  0  0  0  0  0  0  0  0  0
    1.1362    0.7825   -2.9464 H   0  0  0  0  0  0  0  0  0  0  0  0
    3.1720   -0.1882   -1.9737 H   0  0  0  0  0  0  0  0  0  0  0  0
  1  2  2  0
  2  3  1  0
  2  4  1  0
  4  5  1  0
  5  6  1  0
  6  7  2  0
  6  8  1  0
  8  9  1  0
  9 10  2  0
 10 11  1  0
 11 12  2  0
 12 13  1  0
 13 14  2  0
 13 15  2  0
 13 16  1  0
 16 17  1  0
 17 18  1  0
 18 19  1  0
 19 20  2  0
 20 21  1  0
 21 22  2  0
 22 23  1  0
 23 24  2  0
 12 25  1  0
 25 26  2  0
 26  9  1  0
 24 19  1  0
  3 27  1  0
  4 28  1  0
  4 29  1  0
  5 30  1  0
  5 31  1  0
  8 32  1  0
 10 33  1  0
 11 34  1  0
 16 35  1  0
 17 36  1  0
 17 37  1  0
 18 38  1  0
 18 39  1  0
 20 40  1  0
 21 41  1  0
 22 42  1  0
 23 43  1  0
 24 44  1  0
 25 45  1  0
 26 46  1  0
M  END
$$$$
