
     RDKit          3D

 48 48  0  0  0  0  0  0  0  0999 V2000
    3.2318   -1.9966   -0.1480 C   0  0  0  0  0  0  0  0  0  0  0  0
    3.6569   -0.9174    0.8517 C   0  0  0  0  0  0  0  0  0  0  0  0
    2.6718   -0.8076    2.0336 C   0  0  0  0  0  0  0  0  0  0  0  0
    1.3232   -0.4262    1.6581 N   0  0  0  0  0  0  0  0  0  0  0  0
    0.3199   -1.3586    1.4856 C   0  0  0  0  0  0  0  0  0  0  0  0
    0.4715   -2.5623    1.6577 O   0  0  0  0  0  0  0  0  0  0  0  0
   -0.9949   -0.8313    1.0294 C   0  0  0  0  0  0  0  0  0  0  0  0
   -1.8081   -1.6548    0.2502 C   0  0  0  0  0  0  0  0  0  0  0  0
   -3.0494   -1.1948   -0.2009 C   0  0  0  0  0  0  0  0  0  0  0  0
   -3.5189    0.0942    0.1206 C   0  0  0  0  0  0  0  0  0  0  0  0
   -4.8920    0.5640   -0.3933 C   0  0  0  0  0  0  0  0  0  0  0  0
   -5.2603    2.0028    0.0343 C   0  0  0  0  0  0  0  0  0  0  0  0
   -5.9957   -0.3702    0.1479 C   0  0  0  0  0  0  0  0  0  0  0  0
   -4.9088    0.5296   -1.9369 C   0  0  0  0  0  0  0  0  0  0  0  0
   -2.6920    0.8995    0.9226 C   0  0  0  0  0  0  0  0  0  0  0  0
   -1.4463    0.4443    1.3758 C   0  0  0  0  0  0  0  0  0  0  0  0
    3.8571    0.4561    0.1698 C   0  0  0  0  0  0  0  0  0  0  0  0
    4.8442    0.4673   -0.9258 N   0  0  0  0  0  0  0  0  0  0  0  0
    4.7817    1.7400   -1.6494 C   0  0  0  0  0  0  0  0  0  0  0  0
    6.2084    0.2395   -0.4457 C   0  0  0  0  0  0  0  0  0  0  0  0
    3.0432   -2.9465    0.3630 H   0  0  0  0  0  0  0  0  0  0  0  0
    4.0173   -2.1770   -0.8892 H   0  0  0  0  0  0  0  0  0  0  0  0
    2.3234   -1.7115   -0.6884 H   0  0  0  0  0  0  0  0  0  0  0  0
    4.6113   -1.2340    1.2904 H   0  0  0  0  0  0  0  0  0  0  0  0
    2.6400   -1.7596    2.5760 H   0  0  0  0  0  0  0  0  0  0  0  0
    3.0244   -0.0465    2.7388 H   0  0  0  0  0  0  0  0  0  0  0  0
    1.1628    0.5260    1.3616 H   0  0  0  0  0  0  0  0  0  0  0  0
   -1.4776   -2.6580   -0.0124 H   0  0  0  0  0  0  0  0  0  0  0  0
   -3.6499   -1.8681   -0.8096 H   0  0  0  0  0  0  0  0  0  0  0  0
   -5.3109    2.0994    1.1251 H   0  0  0  0  0  0  0  0  0  0  0  0
   -4.5339    2.7334   -0.3403 H   0  0  0  0  0  0  0  0  0  0  0  0
   -6.2417    2.2930   -0.3597 H   0  0  0  0  0  0  0  0  0  0  0  0
   -6.9889   -0.0374   -0.1757 H   0  0  0  0  0  0  0  0  0  0  0  0
   -5.8739   -1.4013   -0.2015 H   0  0  0  0  0  0  0  0  0  0  0  0
   -5.9917   -0.3917    1.2441 H   0  0  0  0  0  0  0  0  0  0  0  0
   -4.7667   -0.4827   -2.3309 H   0  0  0  0  0  0  0  0  0  0  0  0
   -5.8649    0.8945   -2.3301 H   0  0  0  0  0  0  0  0  0  0  0  0
   -4.1142    1.1596   -2.3541 H   0  0  0  0  0  0  0  0  0  0  0  0
   -2.9977    1.8977    1.2250 H   0  0  0  0  0  0  0  0  0  0  0  0
   -0.8594    1.0901    2.0224 H   0  0  0  0  0  0  0  0  0  0  0  0
    2.8875    0.7678   -0.2404 H   0  0  0  0  0  0  0  0  0  0  0  0
    4.1295    1.2040    0.9268 H   0  0  0  0  0  0  0  0  0  0  0  0
    5.0229    2.5934   -1.0052 H   0  0  0  0  0  0  0  0  0  0  0  0
    5.4779    1.7377   -2.4957 H   0  0  0  0  0  0  0  0  0  0  0  0
    3.7823    1.8961   -2.0707 H   0  0  0  0  0  0  0  0  0  0  0  0
    6.9214    0.2867   -1.2770 H   0  0  0  0  0  0  0  0  0  0  0  0
    6.5104    0.9780    0.3056 H   0  0  0  0  0  0  0  0  0  0  0  0
    6.3174   -0.7606   -0.0155 H   0  0  0  0  0  0  0  0  0  0  0  0
  1  2  1  0
  2  3  1  0
  3  4  1  0
  4  5  1  0
  5  6  2  0
  5  7  1  0
  7  8  2  0
  8  9  1  0
  9 10  2  0
 10 11  1  0
 11 12  1  0
 11 13  1  0
 11 14  1  0
 10 15  1  0
 15 16  2  0
  2 17  1  0
 17 18  1  0
 18 19  1  0
 18 20  1  0
 16  7  1  0
  1 21  1  0
  1 22  1  0
  1 23  1  0
  2 24  1  0
  3 25  1  0
  3 26  1  0
  4 27  1  0
  8 28  1  0
  9 29  1  0
 12 30  1  0
 12 31  1  0
 12 32  1  0
 13 33  1  0
 13 34  1  0
 13 35  1  0
 14 36  1  0
 14 37  1  0
 14 38  1  0
 15 39  1  0
 16 40  1  0
 17 41  1  0
 17 42  1  0
 19 43  1  0
 19 44  1  0
 19 45  1  0
 20 46  1  0
 20 47  1  0
 20 48  1  0
M  END
$$$$
