
     RDKit          3D

 55 57  0  0  0  0  0  0  0  0999 V2000
   -3.3275   -2.6416    2.8449 C   0  0  0  0  0  0  0  0  0  0  0  0
   -2.2267   -1.8184    2.1872 C   0  0  0  0  0  0  0  0  0  0  0  0
   -2.6843   -0.6182    1.3072 C   0  0  0  0  0  0  0  0  0  0  0  0
   -3.5355   -1.1211    0.1285 C   0  0  0  0  0  0  0  0  0  0  0  0
   -3.4965    0.3749    2.1569 C   0  0  0  0  0  0  0  0  0  0  0  0
   -1.4549    0.0241    0.7990 N   0  0  0  0  0  0  0  0  0  0  0  0
   -1.4017    1.1261   -0.0471 C   0  0  0  0  0  0  0  0  0  0  0  0
   -2.3954    1.7947   -0.3248 O   0  0  0  0  0  0  0  0  0  0  0  0
    0.0412    1.5377   -0.4644 C   0  0  0  0  0  0  0  0  0  0  0  0
    0.1684    2.3801   -1.7261 C   0  0  0  0  0  0  0  0  0  0  0  0
   -0.6952    2.2617   -2.8260 C   0  0  0  0  0  0  0  0  0  0  0  0
   -0.5218    3.0555   -3.9646 C   0  0  0  0  0  0  0  0  0  0  0  0
    0.5181    3.9806   -4.0249 C   0  0  0  0  0  0  0  0  0  0  0  0
    1.3856    4.1115   -2.9447 C   0  0  0  0  0  0  0  0  0  0  0  0
    1.2059    3.3168   -1.8145 C   0  0  0  0  0  0  0  0  0  0  0  0
    2.0527    3.4754   -0.7868 F   0  0  0  0  0  0  0  0  0  0  0  0
    0.9484    0.3652   -0.4279 N   0  0  0  0  0  0  0  0  0  0  0  0
    0.7096   -0.6850   -1.3381 C   0  0  0  0  0  0  0  0  0  0  0  0
    0.0523   -0.5512   -2.3680 O   0  0  0  0  0  0  0  0  0  0  0  0
    1.1378   -2.0418   -0.9288 C   0  0  0  0  0  0  0  0  0  0  0  0
    1.4184   -3.1323   -1.7953 C   0  0  0  0  0  0  0  0  0  0  0  0
    1.7274   -4.1853   -0.9705 C   0  0  0  0  0  0  0  0  0  0  0  0
    1.5999   -3.7133    0.3004 N   0  0  0  0  0  0  0  0  0  0  0  0
    1.2075   -2.4308    0.3614 N   0  0  0  0  0  0  0  0  0  0  0  0
    2.1493    0.4579    0.3527 C   0  0  0  0  0  0  0  0  0  0  0  0
    3.3700   -0.0156   -0.1530 C   0  0  0  0  0  0  0  0  0  0  0  0
    4.5467    0.0904    0.5943 C   0  0  0  0  0  0  0  0  0  0  0  0
    4.5209    0.6719    1.8581 C   0  0  0  0  0  0  0  0  0  0  0  0
    3.3194    1.1483    2.3743 C   0  0  0  0  0  0  0  0  0  0  0  0
    2.1424    1.0446    1.6264 C   0  0  0  0  0  0  0  0  0  0  0  0
   -3.9966   -3.0900    2.1057 H   0  0  0  0  0  0  0  0  0  0  0  0
   -3.9218   -2.0433    3.5406 H   0  0  0  0  0  0  0  0  0  0  0  0
   -2.8808   -3.4601    3.4196 H   0  0  0  0  0  0  0  0  0  0  0  0
   -1.6174   -2.4986    1.5769 H   0  0  0  0  0  0  0  0  0  0  0  0
   -1.5584   -1.4500    2.9776 H   0  0  0  0  0  0  0  0  0  0  0  0
   -4.4589   -1.6003    0.4688 H   0  0  0  0  0  0  0  0  0  0  0  0
   -3.8310   -0.3046   -0.5385 H   0  0  0  0  0  0  0  0  0  0  0  0
   -2.9778   -1.8458   -0.4758 H   0  0  0  0  0  0  0  0  0  0  0  0
   -2.9033    0.7432    3.0016 H   0  0  0  0  0  0  0  0  0  0  0  0
   -3.8157    1.2481    1.5801 H   0  0  0  0  0  0  0  0  0  0  0  0
   -4.4081   -0.0821    2.5548 H   0  0  0  0  0  0  0  0  0  0  0  0
   -0.5875   -0.4973    0.9105 H   0  0  0  0  0  0  0  0  0  0  0  0
    0.3088    2.2210    0.3520 H   0  0  0  0  0  0  0  0  0  0  0  0
   -1.5128    1.5420   -2.8137 H   0  0  0  0  0  0  0  0  0  0  0  0
   -1.2029    2.9448   -4.8052 H   0  0  0  0  0  0  0  0  0  0  0  0
    0.6500    4.5959   -4.9107 H   0  0  0  0  0  0  0  0  0  0  0  0
    2.2005    4.8275   -2.9717 H   0  0  0  0  0  0  0  0  0  0  0  0
    1.3949   -3.1286   -2.8766 H   0  0  0  0  0  0  0  0  0  0  0  0
    2.0126   -5.2081   -1.1713 H   0  0  0  0  0  0  0  0  0  0  0  0
    1.7500   -4.2124    1.1716 H   0  0  0  0  0  0  0  0  0  0  0  0
    3.4374   -0.4426   -1.1499 H   0  0  0  0  0  0  0  0  0  0  0  0
    5.4841   -0.2740    0.1823 H   0  0  0  0  0  0  0  0  0  0  0  0
    5.4357    0.7563    2.4388 H   0  0  0  0  0  0  0  0  0  0  0  0
    3.2943    1.5988    3.3634 H   0  0  0  0  0  0  0  0  0  0  0  0
    1.2222    1.3974    2.0833 H   0  0  0  0  0  0  0  0  0  0  0  0
  1  2  1  0
  2  3  1  0
  3  4  1  0
  3  5  1  0
  3  6  1  0
  6  7  1  0
  7  8  2  0
  7  9  1  0
  9 10  1  0
 10 11  2  0
 11 12  1  0
 12 13  2  0
 13 14  1  0
 14 15  2  0
 15 16  1  0
  9 17  1  0
 17 18  1  0
 18 19  2  0
 18 20  1  0
 20 21  1  0
 21 22  2  0
 22 23  1  0
 23 24  1  0
 17 25  1  0
 25 26  2  0
 26 27  1  0
 27 28  2  0
 28 29  1  0
 29 30  2  0
 15 10  1  0
 24 20  2  0
 30 25  1  0
  1 31  1  0
  1 32  1  0
  1 33  1  0
  2 34  1  0
  2 35  1  0
  4 36  1  0
  4 37  1  0
  4 38  1  0
  5 39  1  0
  5 40  1  0
  5 41  1  0
  6 42  1  0
  9 43  1  0
 11 44  1  0
 12 45  1  0
 13 46  1  0
 14 47  1  0
 21 48  1  0
 22 49  1  0
 23 50  1  0
 26 51  1  0
 27 52  1  0
 28 53  1  0
 29 54  1  0
 30 55  1  0
M  END
$$$$
