
     RDKit          3D

 49 52  0  0  0  0  0  0  0  0999 V2000
    0.3017    0.0773    3.7735 C   0  0  0  0  0  0  0  0  0  0  0  0
    0.3707    0.3512    2.2719 C   0  0  0  0  0  0  0  0  0  0  0  0
    1.7273    0.1430    1.7913 N   0  0  0  0  0  0  0  0  0  0  0  0
    2.2240    0.8483    0.7267 C   0  0  0  0  0  0  0  0  0  0  0  0
    1.6578    1.8031    0.2090 O   0  0  0  0  0  0  0  0  0  0  0  0
    3.5191    0.3229    0.2377 C   0  0  0  0  0  0  0  0  0  0  0  0
    4.0997    0.8890   -0.8296 C   0  0  0  0  0  0  0  0  0  0  0  0
    5.3436    0.4098   -1.3217 C   0  0  0  0  0  0  0  0  0  0  0  0
    6.0802    0.8694   -2.4078 C   0  0  0  0  0  0  0  0  0  0  0  0
    7.2500    0.0800   -2.5094 C   0  0  0  0  0  0  0  0  0  0  0  0
    7.1786   -0.8260   -1.4834 C   0  0  0  0  0  0  0  0  0  0  0  0
    6.0449   -0.6396   -0.7659 O   0  0  0  0  0  0  0  0  0  0  0  0
   -0.5100   -0.5998    1.5042 C   0  0  0  0  0  0  0  0  0  0  0  0
   -0.5814   -1.8963    1.7524 N   0  0  0  0  0  0  0  0  0  0  0  0
   -1.4045   -2.4215    0.7970 C   0  0  0  0  0  0  0  0  0  0  0  0
   -1.7985   -3.7552    0.6097 C   0  0  0  0  0  0  0  0  0  0  0  0
   -2.6299   -4.0702   -0.4691 C   0  0  0  0  0  0  0  0  0  0  0  0
   -3.0552   -3.0753   -1.3472 C   0  0  0  0  0  0  0  0  0  0  0  0
   -2.6729   -1.7394   -1.1723 C   0  0  0  0  0  0  0  0  0  0  0  0
   -1.8509   -1.4358   -0.0778 C   0  0  0  0  0  0  0  0  0  0  0  0
   -1.2972   -0.2655    0.4113 N   0  0  0  0  0  0  0  0  0  0  0  0
   -1.4217    1.0589   -0.2006 C   0  0  0  0  0  0  0  0  0  0  0  0
   -2.8500    1.5397   -0.3647 C   0  0  0  0  0  0  0  0  0  0  0  0
   -3.3805    1.8451   -1.6351 C   0  0  0  0  0  0  0  0  0  0  0  0
   -2.4499    1.7160   -3.0896 Cl  0  0  0  0  0  0  0  0  0  0  0  0
   -4.7028    2.2833   -1.7870 C   0  0  0  0  0  0  0  0  0  0  0  0
   -5.5221    2.4462   -0.6763 C   0  0  0  0  0  0  0  0  0  0  0  0
   -5.0122    2.1879    0.5905 C   0  0  0  0  0  0  0  0  0  0  0  0
   -3.6903    1.7511    0.7477 C   0  0  0  0  0  0  0  0  0  0  0  0
   -3.1455    1.5404    2.3754 Cl  0  0  0  0  0  0  0  0  0  0  0  0
   -0.7201    0.1951    4.1496 H   0  0  0  0  0  0  0  0  0  0  0  0
    0.9482    0.7728    4.3202 H   0  0  0  0  0  0  0  0  0  0  0  0
    0.6350   -0.9377    4.0197 H   0  0  0  0  0  0  0  0  0  0  0  0
    0.0894    1.3946    2.1150 H   0  0  0  0  0  0  0  0  0  0  0  0
    2.1221   -0.7662    1.9966 H   0  0  0  0  0  0  0  0  0  0  0  0
    3.9709   -0.5099    0.7624 H   0  0  0  0  0  0  0  0  0  0  0  0
    3.6309    1.7259   -1.3405 H   0  0  0  0  0  0  0  0  0  0  0  0
    5.7949    1.6889   -3.0537 H   0  0  0  0  0  0  0  0  0  0  0  0
    8.0431    0.1621   -3.2387 H   0  0  0  0  0  0  0  0  0  0  0  0
    7.8195   -1.6280   -1.1447 H   0  0  0  0  0  0  0  0  0  0  0  0
   -1.4515   -4.5223    1.2927 H   0  0  0  0  0  0  0  0  0  0  0  0
   -2.9391   -5.1006   -0.6254 H   0  0  0  0  0  0  0  0  0  0  0  0
   -3.6950   -3.3403   -2.1866 H   0  0  0  0  0  0  0  0  0  0  0  0
   -3.0104   -0.9866   -1.8726 H   0  0  0  0  0  0  0  0  0  0  0  0
   -0.8932    1.8001    0.3994 H   0  0  0  0  0  0  0  0  0  0  0  0
   -0.8729    0.9846   -1.1434 H   0  0  0  0  0  0  0  0  0  0  0  0
   -5.0983    2.5050   -2.7763 H   0  0  0  0  0  0  0  0  0  0  0  0
   -6.5476    2.7870   -0.7956 H   0  0  0  0  0  0  0  0  0  0  0  0
   -5.6480    2.3375    1.4610 H   0  0  0  0  0  0  0  0  0  0  0  0
  1  2  1  0
  2  3  1  0
  3  4  1  0
  4  5  2  0
  4  6  1  0
  6  7  2  3
  7  8  1  0
  8  9  2  0
  9 10  1  0
 10 11  2  0
 11 12  1  0
  2 13  1  0
 13 14  2  0
 14 15  1  0
 15 16  2  0
 16 17  1  0
 17 18  2  0
 18 19  1  0
 19 20  2  0
 20 21  1  0
 21 22  1  0
 22 23  1  0
 23 24  2  0
 24 25  1  0
 24 26  1  0
 26 27  2  0
 27 28  1  0
 28 29  2  0
 29 30  1  0
 12  8  1  0
 21 13  1  0
 29 23  1  0
 20 15  1  0
  1 31  1  0
  1 32  1  0
  1 33  1  0
  2 34  1  0
  3 35  1  0
  6 36  1  0
  7 37  1  0
  9 38  1  0
 10 39  1  0
 11 40  1  0
 16 41  1  0
 17 42  1  0
 18 43  1  0
 19 44  1  0
 22 45  1  0
 22 46  1  0
 26 47  1  0
 27 48  1  0
 28 49  1  0
M  END
$$$$
