
     RDKit          3D

 56 58  0  0  0  0  0  0  0  0999 V2000
   -9.0319    1.2484   -0.4695 C   0  0  0  0  0  0  0  0  0  0  0  0
   -8.1116    0.1700   -0.5374 O   0  0  0  0  0  0  0  0  0  0  0  0
   -6.8433    0.3832   -0.0533 C   0  0  0  0  0  0  0  0  0  0  0  0
   -6.3411    1.6331    0.3258 C   0  0  0  0  0  0  0  0  0  0  0  0
   -5.0288    1.7597    0.7873 C   0  0  0  0  0  0  0  0  0  0  0  0
   -4.2006    0.6382    0.8821 C   0  0  0  0  0  0  0  0  0  0  0  0
   -2.7656    0.7716    1.3301 C   0  0  0  0  0  0  0  0  0  0  0  0
   -1.8370    0.9980    0.1347 C   0  0  0  0  0  0  0  0  0  0  0  0
   -0.4346    1.0263    0.5006 N   0  0  0  0  0  0  0  0  0  0  0  0
    0.2660   -0.1388    0.6988 C   0  0  0  0  0  0  0  0  0  0  0  0
   -0.2369   -1.2553    0.6742 O   0  0  0  0  0  0  0  0  0  0  0  0
    1.7128    0.0450    0.9880 C   0  0  0  0  0  0  0  0  0  0  0  0
    2.4509    0.9185    0.2782 C   0  0  0  0  0  0  0  0  0  0  0  0
    3.9436    1.0042    0.3956 C   0  0  0  0  0  0  0  0  0  0  0  0
    4.4592   -0.3144    0.8400 N   0  0  0  0  0  0  0  0  0  0  0  0
    6.1634   -0.4392    0.8233 S   0  0  0  0  0  6  0  0  0  0  0  0
    6.6756    0.7494    1.4747 O   0  0  0  0  0  0  0  0  0  0  0  0
    6.5335   -1.7650    1.2696 O   0  0  0  0  0  0  0  0  0  0  0  0
    6.5555   -0.3592   -0.9062 C   0  0  0  0  0  0  0  0  0  0  0  0
    7.5574    0.5028   -1.3593 C   0  0  0  0  0  0  0  0  0  0  0  0
    7.8518    0.5442   -2.7229 C   0  0  0  0  0  0  0  0  0  0  0  0
    7.1439   -0.2658   -3.6087 C   0  0  0  0  0  0  0  0  0  0  0  0
    7.4293   -0.2163   -4.9157 F   0  0  0  0  0  0  0  0  0  0  0  0
    6.1453   -1.1237   -3.1597 C   0  0  0  0  0  0  0  0  0  0  0  0
    5.8475   -1.1763   -1.7994 C   0  0  0  0  0  0  0  0  0  0  0  0
    3.8497   -0.7151    2.1380 C   0  0  0  0  0  0  0  0  0  0  0  0
    2.3306   -0.9013    1.9785 C   0  0  0  0  0  0  0  0  0  0  0  0
   -4.6999   -0.6150    0.4969 C   0  0  0  0  0  0  0  0  0  0  0  0
   -6.0128   -0.7523    0.0300 C   0  0  0  0  0  0  0  0  0  0  0  0
   -6.5766   -1.9430   -0.3580 O   0  0  0  0  0  0  0  0  0  0  0  0
   -5.7382   -3.0900   -0.3868 C   0  0  0  0  0  0  0  0  0  0  0  0
   -9.2046    1.5480    0.5681 H   0  0  0  0  0  0  0  0  0  0  0  0
   -9.9848    0.9022   -0.8815 H   0  0  0  0  0  0  0  0  0  0  0  0
   -8.7027    2.0955   -1.0773 H   0  0  0  0  0  0  0  0  0  0  0  0
   -6.9444    2.5331    0.2602 H   0  0  0  0  0  0  0  0  0  0  0  0
   -4.6602    2.7424    1.0674 H   0  0  0  0  0  0  0  0  0  0  0  0
   -2.6726    1.6010    2.0433 H   0  0  0  0  0  0  0  0  0  0  0  0
   -2.4740   -0.1276    1.8878 H   0  0  0  0  0  0  0  0  0  0  0  0
   -1.9757    0.2076   -0.6130 H   0  0  0  0  0  0  0  0  0  0  0  0
   -2.0616    1.9540   -0.3541 H   0  0  0  0  0  0  0  0  0  0  0  0
   -0.0215    1.8998    0.7911 H   0  0  0  0  0  0  0  0  0  0  0  0
    1.9955    1.5492   -0.4807 H   0  0  0  0  0  0  0  0  0  0  0  0
    4.3508    1.2520   -0.5908 H   0  0  0  0  0  0  0  0  0  0  0  0
    4.2126    1.8035    1.0977 H   0  0  0  0  0  0  0  0  0  0  0  0
    8.1138    1.1268   -0.6652 H   0  0  0  0  0  0  0  0  0  0  0  0
    8.6296    1.1990   -3.1033 H   0  0  0  0  0  0  0  0  0  0  0  0
    5.6044   -1.7393   -3.8661 H   0  0  0  0  0  0  0  0  0  0  0  0
    5.0690   -1.8448   -1.4375 H   0  0  0  0  0  0  0  0  0  0  0  0
    4.0661    0.0466    2.9044 H   0  0  0  0  0  0  0  0  0  0  0  0
    4.2757   -1.6691    2.4843 H   0  0  0  0  0  0  0  0  0  0  0  0
    1.8639   -0.7631    2.9661 H   0  0  0  0  0  0  0  0  0  0  0  0
    2.1231   -1.9376    1.6671 H   0  0  0  0  0  0  0  0  0  0  0  0
   -4.0368   -1.4741    0.5712 H   0  0  0  0  0  0  0  0  0  0  0  0
   -4.9082   -2.9540   -1.0855 H   0  0  0  0  0  0  0  0  0  0  0  0
   -5.3759   -3.3412    0.6150 H   0  0  0  0  0  0  0  0  0  0  0  0
   -6.3385   -3.9320   -0.7389 H   0  0  0  0  0  0  0  0  0  0  0  0
  1  2  1  0
  2  3  1  0
  3  4  2  0
  4  5  1  0
  5  6  2  0
  6  7  1  0
  7  8  1  0
  8  9  1  0
  9 10  1  0
 10 11  2  0
 10 12  1  0
 12 13  2  0
 13 14  1  0
 14 15  1  0
 15 16  1  0
 16 17  2  0
 16 18  2  0
 16 19  1  0
 19 20  2  0
 20 21  1  0
 21 22  2  0
 22 23  1  0
 22 24  1  0
 24 25  2  0
 15 26  1  0
 26 27  1  0
  6 28  1  0
 28 29  2  0
 29 30  1  0
 30 31  1  0
 29  3  1  0
 27 12  1  0
 25 19  1  0
  1 32  1  0
  1 33  1  0
  1 34  1  0
  4 35  1  0
  5 36  1  0
  7 37  1  0
  7 38  1  0
  8 39  1  0
  8 40  1  0
  9 41  1  0
 13 42  1  0
 14 43  1  0
 14 44  1  0
 20 45  1  0
 21 46  1  0
 24 47  1  0
 25 48  1  0
 26 49  1  0
 26 50  1  0
 27 51  1  0
 27 52  1  0
 28 53  1  0
 31 54  1  0
 31 55  1  0
 31 56  1  0
M  END
$$$$
