
     RDKit          3D

 39 42  0  0  0  0  0  0  0  0999 V2000
    8.3723   -0.9412   -1.8446 C   0  0  0  0  0  0  0  0  0  0  0  0
    6.9635   -0.8822   -1.6176 O   0  0  0  0  0  0  0  0  0  0  0  0
    6.5853    0.0961   -0.7569 C   0  0  0  0  0  0  0  0  0  0  0  0
    7.3333    0.8857   -0.2017 O   0  0  0  0  0  0  0  0  0  0  0  0
    5.1087    0.0905   -0.5687 C   0  0  0  0  0  0  0  0  0  0  0  0
    4.2685   -0.8123   -1.2322 C   0  0  0  0  0  0  0  0  0  0  0  0
    2.8868   -0.7745   -1.0199 C   0  0  0  0  0  0  0  0  0  0  0  0
    2.3238    0.1676   -0.1464 C   0  0  0  0  0  0  0  0  0  0  0  0
    0.8325    0.1975    0.0925 C   0  0  0  0  0  0  0  0  0  0  0  0
    0.3600   -0.9154    1.4471 S   0  0  0  0  0  0  0  0  0  0  0  0
   -1.4111   -0.7647    1.3496 C   0  0  0  0  0  0  0  0  0  0  0  0
   -2.1242   -1.8016    1.8689 N   0  0  0  0  0  0  0  0  0  0  0  0
   -3.4603   -1.7959    1.8603 N   0  0  0  0  0  0  0  0  0  0  0  0
   -4.0496   -0.7039    1.3167 C   0  0  0  0  0  0  0  0  0  0  0  0
   -3.2683    0.3179    0.8089 C   0  0  0  0  0  0  0  0  0  0  0  0
   -1.9251    0.3544    0.7899 N   0  0  0  0  0  0  0  0  0  0  0  0
   -4.1064    1.2843    0.3309 N   0  0  0  0  0  0  0  0  0  0  0  0
   -5.4211    0.9080    0.5148 C   0  0  0  0  0  0  0  0  0  0  0  0
   -6.6064    1.5743    0.1828 C   0  0  0  0  0  0  0  0  0  0  0  0
   -7.8133    0.9408    0.4953 C   0  0  0  0  0  0  0  0  0  0  0  0
   -7.8339   -0.3076    1.1145 C   0  0  0  0  0  0  0  0  0  0  0  0
   -6.6413   -0.9624    1.4411 C   0  0  0  0  0  0  0  0  0  0  0  0
   -5.4111   -0.3465    1.1371 C   0  0  0  0  0  0  0  0  0  0  0  0
    3.1699    1.0634    0.5226 C   0  0  0  0  0  0  0  0  0  0  0  0
    4.5508    1.0273    0.3105 C   0  0  0  0  0  0  0  0  0  0  0  0
    8.5685   -1.7583   -2.5443 H   0  0  0  0  0  0  0  0  0  0  0  0
    8.7279   -0.0083   -2.2931 H   0  0  0  0  0  0  0  0  0  0  0  0
    8.9030   -1.1504   -0.9104 H   0  0  0  0  0  0  0  0  0  0  0  0
    4.6738   -1.5551   -1.9150 H   0  0  0  0  0  0  0  0  0  0  0  0
    2.2521   -1.4916   -1.5375 H   0  0  0  0  0  0  0  0  0  0  0  0
    0.5255    1.2235    0.3263 H   0  0  0  0  0  0  0  0  0  0  0  0
    0.3138   -0.0936   -0.8286 H   0  0  0  0  0  0  0  0  0  0  0  0
   -3.7974    2.1463   -0.0927 H   0  0  0  0  0  0  0  0  0  0  0  0
   -6.5997    2.5472   -0.2990 H   0  0  0  0  0  0  0  0  0  0  0  0
   -8.7533    1.4318    0.2509 H   0  0  0  0  0  0  0  0  0  0  0  0
   -8.7856   -0.7797    1.3479 H   0  0  0  0  0  0  0  0  0  0  0  0
   -6.6628   -1.9357    1.9246 H   0  0  0  0  0  0  0  0  0  0  0  0
    2.7603    1.7930    1.2187 H   0  0  0  0  0  0  0  0  0  0  0  0
    5.1908    1.7314    0.8395 H   0  0  0  0  0  0  0  0  0  0  0  0
  1  2  1  0
  2  3  1  0
  3  4  2  0
  3  5  1  0
  5  6  2  0
  6  7  1  0
  7  8  2  0
  8  9  1  0
  9 10  1  0
 10 11  1  0
 11 12  2  0
 12 13  1  0
 13 14  2  0
 14 15  1  0
 15 16  2  0
 15 17  1  0
 17 18  1  0
 18 19  2  0
 19 20  1  0
 20 21  2  0
 21 22  1  0
 22 23  2  0
  8 24  1  0
 24 25  2  0
 25  5  1  0
 16 11  1  0
 23 18  1  0
 23 14  1  0
  1 26  1  0
  1 27  1  0
  1 28  1  0
  6 29  1  0
  7 30  1  0
  9 31  1  0
  9 32  1  0
 17 33  1  0
 19 34  1  0
 20 35  1  0
 21 36  1  0
 22 37  1  0
 24 38  1  0
 25 39  1  0
M  END
$$$$
