
     RDKit          3D

 35 38  0  0  0  0  0  0  0  0999 V2000
   -2.2772   -0.9816   -1.1037 O   0  0  0  0  0  0  0  0  0  0  0  0
   -1.2508   -0.2153   -0.3052 P   0  0  0  0  0  5  0  0  0  0  0  0
   -0.8413    1.3005   -0.7949 N   0  0  0  0  0  0  0  0  0  0  0  0
   -1.7241    2.3163   -0.7063 C   0  0  0  0  0  0  0  0  0  0  0  0
   -1.4983    3.4603   -1.3209 N   0  0  0  0  0  0  0  0  0  0  0  0
   -2.5400    4.3436   -1.1209 C   0  0  0  0  0  0  0  0  0  0  0  0
   -3.5537    3.8848   -0.3163 C   0  0  0  0  0  0  0  0  0  0  0  0
   -3.1944    2.2927    0.1998 S   0  0  0  0  0  0  0  0  0  0  0  0
   -1.3593   -0.4480    1.4593 C   0  0  0  0  0  0  0  0  0  0  0  0
   -0.7555    0.4410    2.3648 C   0  0  0  0  0  0  0  0  0  0  0  0
   -0.8839    0.2499    3.7426 C   0  0  0  0  0  0  0  0  0  0  0  0
   -1.6331   -0.8171    4.2294 C   0  0  0  0  0  0  0  0  0  0  0  0
   -2.2390   -1.7092    3.3450 C   0  0  0  0  0  0  0  0  0  0  0  0
   -2.0973   -1.5281    1.9696 C   0  0  0  0  0  0  0  0  0  0  0  0
    0.4022   -0.7548   -0.7536 C   0  0  0  0  0  0  0  0  0  0  0  0
    0.8229   -0.6685   -2.0078 N   0  0  0  0  0  0  0  0  0  0  0  0
    2.1181   -1.1456   -2.1069 C   0  0  0  0  0  0  0  0  0  0  0  0
    2.8793   -1.2296   -3.2924 C   0  0  0  0  0  0  0  0  0  0  0  0
    4.1907   -1.7114   -3.2395 C   0  0  0  0  0  0  0  0  0  0  0  0
    4.7481   -2.1135   -2.0297 C   0  0  0  0  0  0  0  0  0  0  0  0
    4.0114   -2.0460   -0.8438 C   0  0  0  0  0  0  0  0  0  0  0  0
    2.6943   -1.5615   -0.9050 C   0  0  0  0  0  0  0  0  0  0  0  0
    1.5462   -1.3780    0.3645 S   0  0  0  0  0  0  0  0  0  0  0  0
   -0.2904    1.3545   -1.6465 H   0  0  0  0  0  0  0  0  0  0  0  0
   -2.5099    5.3136   -1.6003 H   0  0  0  0  0  0  0  0  0  0  0  0
   -4.4672    4.3875   -0.0288 H   0  0  0  0  0  0  0  0  0  0  0  0
   -0.1741    1.2864    2.0012 H   0  0  0  0  0  0  0  0  0  0  0  0
   -0.4090    0.9422    4.4344 H   0  0  0  0  0  0  0  0  0  0  0  0
   -1.7379   -0.9572    5.3010 H   0  0  0  0  0  0  0  0  0  0  0  0
   -2.8279   -2.5389    3.7236 H   0  0  0  0  0  0  0  0  0  0  0  0
   -2.5839   -2.2253    1.2868 H   0  0  0  0  0  0  0  0  0  0  0  0
    2.4408   -0.9144   -4.2363 H   0  0  0  0  0  0  0  0  0  0  0  0
    4.7752   -1.7725   -4.1527 H   0  0  0  0  0  0  0  0  0  0  0  0
    5.7671   -2.4951   -2.0095 H   0  0  0  0  0  0  0  0  0  0  0  0
    4.4519   -2.3616    0.0989 H   0  0  0  0  0  0  0  0  0  0  0  0
  1  2  2  0
  2  3  1  0
  3  4  1  0
  4  5  2  0
  5  6  1  0
  6  7  2  0
  7  8  1  0
  2  9  1  0
  9 10  2  0
 10 11  1  0
 11 12  2  0
 12 13  1  0
 13 14  2  0
  2 15  1  0
 15 16  2  0
 16 17  1  0
 17 18  2  0
 18 19  1  0
 19 20  2  0
 20 21  1  0
 21 22  2  0
 22 23  1  0
  8  4  1  0
 14  9  1  0
 23 15  1  0
 22 17  1  0
  3 24  1  0
  6 25  1  0
  7 26  1  0
 10 27  1  0
 11 28  1  0
 12 29  1  0
 13 30  1  0
 14 31  1  0
 18 32  1  0
 19 33  1  0
 20 34  1  0
 21 35  1  0
M  END
$$$$
