
     RDKit          3D

 56 59  0  0  0  0  0  0  0  0999 V2000
   -2.9070   -0.7087    1.6228 C   0  0  0  0  0  0  0  0  0  0  0  0
   -2.5899    0.2070    0.5809 O   0  0  0  0  0  0  0  0  0  0  0  0
   -2.5422   -0.2799   -0.6994 C   0  0  0  0  0  0  0  0  0  0  0  0
   -2.8457   -1.5966   -1.0594 C   0  0  0  0  0  0  0  0  0  0  0  0
   -2.7472   -2.0134   -2.3924 C   0  0  0  0  0  0  0  0  0  0  0  0
   -2.3472   -1.1139   -3.3830 C   0  0  0  0  0  0  0  0  0  0  0  0
   -2.2280   -1.5120   -4.8153 C   0  0  0  0  0  0  0  0  0  0  0  0
   -2.1970   -2.9773   -5.1626 C   0  0  0  0  0  0  0  0  0  0  0  0
   -2.1710   -0.6478   -5.6876 O   0  0  0  0  0  0  0  0  0  0  0  0
   -2.0549    0.2078   -3.0297 C   0  0  0  0  0  0  0  0  0  0  0  0
   -2.1443    0.6367   -1.6922 C   0  0  0  0  0  0  0  0  0  0  0  0
   -1.7655    2.0587   -1.3511 C   0  0  0  0  0  0  0  0  0  0  0  0
    0.0262    2.3670   -1.2945 S   0  0  0  0  0  0  0  0  0  0  0  0
    0.4985    1.1178   -0.1638 C   0  0  0  0  0  0  0  0  0  0  0  0
    0.8644   -0.0019   -0.6979 N   0  0  0  0  0  0  0  0  0  0  0  0
    1.1975   -1.0674    0.1347 C   0  0  0  0  0  0  0  0  0  0  0  0
    1.5796   -2.2801   -0.4434 C   0  0  0  0  0  0  0  0  0  0  0  0
    1.8976   -3.3829    0.3599 C   0  0  0  0  0  0  0  0  0  0  0  0
    2.2835   -4.6484   -0.3084 C   0  0  0  0  0  0  0  0  0  0  0  0
    2.2895   -4.8498   -1.5081 O   0  0  0  0  0  0  0  0  0  0  0  0
    2.6427   -5.6066    0.5634 O   0  0  0  0  0  0  0  0  0  0  0  0
    1.8331   -3.2684    1.7547 C   0  0  0  0  0  0  0  0  0  0  0  0
    1.4468   -2.0593    2.3362 C   0  0  0  0  0  0  0  0  0  0  0  0
    1.1291   -0.9681    1.5188 C   0  0  0  0  0  0  0  0  0  0  0  0
    0.7007    0.3193    2.0913 C   0  0  0  0  0  0  0  0  0  0  0  0
    0.5652    0.3977    3.3112 O   0  0  0  0  0  0  0  0  0  0  0  0
    0.4514    1.3593    1.1988 N   0  0  0  0  0  0  0  0  0  0  0  0
    0.1345    2.6608    1.7945 C   0  0  0  0  0  0  0  0  0  0  0  0
    1.3660    3.5216    1.9978 C   0  0  0  0  0  0  0  0  0  0  0  0
    2.2459    3.2668    3.0612 C   0  0  0  0  0  0  0  0  0  0  0  0
    3.3869    4.0497    3.2464 C   0  0  0  0  0  0  0  0  0  0  0  0
    3.6629    5.0981    2.3725 C   0  0  0  0  0  0  0  0  0  0  0  0
    2.7968    5.3661    1.3153 C   0  0  0  0  0  0  0  0  0  0  0  0
    1.6546    4.5844    1.1294 C   0  0  0  0  0  0  0  0  0  0  0  0
   -3.9269   -1.0908    1.5123 H   0  0  0  0  0  0  0  0  0  0  0  0
   -2.8550   -0.1649    2.5710 H   0  0  0  0  0  0  0  0  0  0  0  0
   -2.1793   -1.5255    1.6680 H   0  0  0  0  0  0  0  0  0  0  0  0
   -3.1606   -2.3312   -0.3249 H   0  0  0  0  0  0  0  0  0  0  0  0
   -2.9952   -3.0438   -2.6301 H   0  0  0  0  0  0  0  0  0  0  0  0
   -3.2028   -3.3990   -5.0928 H   0  0  0  0  0  0  0  0  0  0  0  0
   -1.5051   -3.5146   -4.5085 H   0  0  0  0  0  0  0  0  0  0  0  0
   -1.8364   -3.0942   -6.1893 H   0  0  0  0  0  0  0  0  0  0  0  0
   -1.7331    0.9089   -3.8000 H   0  0  0  0  0  0  0  0  0  0  0  0
   -2.2131    2.3757   -0.4039 H   0  0  0  0  0  0  0  0  0  0  0  0
   -2.1928    2.7278   -2.1076 H   0  0  0  0  0  0  0  0  0  0  0  0
    1.6237   -2.3577   -1.5284 H   0  0  0  0  0  0  0  0  0  0  0  0
    2.8823   -6.3669   -0.0078 H   0  0  0  0  0  0  0  0  0  0  0  0
    2.0779   -4.1129    2.3952 H   0  0  0  0  0  0  0  0  0  0  0  0
    1.3939   -1.9701    3.4193 H   0  0  0  0  0  0  0  0  0  0  0  0
   -0.6008    3.1987    1.1893 H   0  0  0  0  0  0  0  0  0  0  0  0
   -0.3541    2.5203    2.7671 H   0  0  0  0  0  0  0  0  0  0  0  0
    2.0470    2.4559    3.7596 H   0  0  0  0  0  0  0  0  0  0  0  0
    4.0597    3.8395    4.0738 H   0  0  0  0  0  0  0  0  0  0  0  0
    4.5521    5.7063    2.5154 H   0  0  0  0  0  0  0  0  0  0  0  0
    3.0108    6.1842    0.6322 H   0  0  0  0  0  0  0  0  0  0  0  0
    0.9941    4.8179    0.2977 H   0  0  0  0  0  0  0  0  0  0  0  0
  1  2  1  0
  2  3  1  0
  3  4  2  0
  4  5  1  0
  5  6  2  0
  6  7  1  0
  7  8  1  0
  7  9  2  0
  6 10  1  0
 10 11  2  0
 11 12  1  0
 12 13  1  0
 13 14  1  0
 14 15  2  0
 15 16  1  0
 16 17  2  0
 17 18  1  0
 18 19  1  0
 19 20  2  0
 19 21  1  0
 18 22  2  0
 22 23  1  0
 23 24  2  0
 24 25  1  0
 25 26  2  0
 25 27  1  0
 27 28  1  0
 28 29  1  0
 29 30  2  0
 30 31  1  0
 31 32  2  0
 32 33  1  0
 33 34  2  0
 11  3  1  0
 27 14  1  0
 34 29  1  0
 24 16  1  0
  1 35  1  0
  1 36  1  0
  1 37  1  0
  4 38  1  0
  5 39  1  0
  8 40  1  0
  8 41  1  0
  8 42  1  0
 10 43  1  0
 12 44  1  0
 12 45  1  0
 17 46  1  0
 21 47  1  0
 22 48  1  0
 23 49  1  0
 28 50  1  0
 28 51  1  0
 30 52  1  0
 31 53  1  0
 32 54  1  0
 33 55  1  0
 34 56  1  0
M  END
$$$$
