
     RDKit          3D

 58 62  0  0  0  0  0  0  0  0999 V2000
   -3.8163   -4.0577   -0.4103 C   0  0  0  0  0  0  0  0  0  0  0  0
   -4.0989   -3.0778    0.7287 C   0  0  0  0  0  0  0  0  0  0  0  0
   -5.6108   -2.8365    0.9297 C   0  0  0  0  0  0  0  0  0  0  0  0
   -5.8270   -1.5651    0.1757 C   0  0  0  0  0  0  0  0  0  0  0  0
   -7.0332   -0.9831   -0.1800 C   0  0  0  0  0  0  0  0  0  0  0  0
   -7.0031    0.2303   -0.8709 C   0  0  0  0  0  0  0  0  0  0  0  0
   -5.7796    0.8364   -1.1962 C   0  0  0  0  0  0  0  0  0  0  0  0
   -4.5702    0.2413   -0.8277 C   0  0  0  0  0  0  0  0  0  0  0  0
   -4.6129   -0.9481   -0.1224 C   0  0  0  0  0  0  0  0  0  0  0  0
   -3.5011   -1.7316    0.3497 N   0  0  0  0  0  0  0  0  0  0  0  0
   -2.5992   -1.0488    1.6444 S   0  0  0  0  0  6  0  0  0  0  0  0
   -1.5370   -1.9778    1.9810 O   0  0  0  0  0  0  0  0  0  0  0  0
   -3.5245   -0.6004    2.6660 O   0  0  0  0  0  0  0  0  0  0  0  0
   -1.8095    0.3737    0.9371 C   0  0  0  0  0  0  0  0  0  0  0  0
   -2.2048    1.6620    1.3215 C   0  0  0  0  0  0  0  0  0  0  0  0
   -1.5854    2.7753    0.7487 C   0  0  0  0  0  0  0  0  0  0  0  0
   -0.5663    2.6000   -0.1886 C   0  0  0  0  0  0  0  0  0  0  0  0
   -0.1546    1.3067   -0.5309 C   0  0  0  0  0  0  0  0  0  0  0  0
    0.9250    1.1415   -1.5190 C   0  0  0  0  0  0  0  0  0  0  0  0
    0.6525    1.3516   -2.6982 O   0  0  0  0  0  0  0  0  0  0  0  0
    2.1791    0.7642   -1.0636 N   0  0  0  0  0  0  0  0  0  0  0  0
    2.5751    0.6618    0.3506 C   0  0  0  0  0  0  0  0  0  0  0  0
    4.0252    1.1254    0.5823 C   0  0  0  0  0  0  0  0  0  0  0  0
    4.9634    0.3817   -0.2620 N   0  0  0  0  0  0  0  0  0  0  0  0
    6.2916    0.7630   -0.1904 C   0  0  0  0  0  0  0  0  0  0  0  0
    6.6713    1.6022    0.7914 N   0  0  0  0  0  0  0  0  0  0  0  0
    7.9716    1.9490    0.8592 C   0  0  0  0  0  0  0  0  0  0  0  0
    8.9234    1.4906   -0.0118 C   0  0  0  0  0  0  0  0  0  0  0  0
    8.4560    0.6366   -0.9763 C   0  0  0  0  0  0  0  0  0  0  0  0
    7.1649    0.2652   -1.0817 N   0  0  0  0  0  0  0  0  0  0  0  0
    4.4596   -0.1938   -1.5150 C   0  0  0  0  0  0  0  0  0  0  0  0
    3.2497    0.5926   -2.0514 C   0  0  0  0  0  0  0  0  0  0  0  0
   -0.7721    0.1832    0.0203 C   0  0  0  0  0  0  0  0  0  0  0  0
   -4.2281   -3.7054   -1.3640 H   0  0  0  0  0  0  0  0  0  0  0  0
   -4.2516   -5.0398   -0.1932 H   0  0  0  0  0  0  0  0  0  0  0  0
   -2.7368   -4.1852   -0.5466 H   0  0  0  0  0  0  0  0  0  0  0  0
   -3.6605   -3.4898    1.6443 H   0  0  0  0  0  0  0  0  0  0  0  0
   -6.2218   -3.6601    0.5442 H   0  0  0  0  0  0  0  0  0  0  0  0
   -5.8384   -2.6740    1.9897 H   0  0  0  0  0  0  0  0  0  0  0  0
   -7.9801   -1.4528    0.0692 H   0  0  0  0  0  0  0  0  0  0  0  0
   -7.9342    0.7091   -1.1639 H   0  0  0  0  0  0  0  0  0  0  0  0
   -5.7725    1.7755   -1.7474 H   0  0  0  0  0  0  0  0  0  0  0  0
   -3.6347    0.7016   -1.1233 H   0  0  0  0  0  0  0  0  0  0  0  0
   -3.0040    1.8043    2.0476 H   0  0  0  0  0  0  0  0  0  0  0  0
   -1.9017    3.7784    1.0275 H   0  0  0  0  0  0  0  0  0  0  0  0
   -0.0897    3.4645   -0.6478 H   0  0  0  0  0  0  0  0  0  0  0  0
    2.4679   -0.3938    0.6316 H   0  0  0  0  0  0  0  0  0  0  0  0
    1.9037    1.2474    0.9846 H   0  0  0  0  0  0  0  0  0  0  0  0
    4.2706    0.9844    1.6426 H   0  0  0  0  0  0  0  0  0  0  0  0
    4.0860    2.1989    0.3532 H   0  0  0  0  0  0  0  0  0  0  0  0
    8.2276    2.6292    1.6663 H   0  0  0  0  0  0  0  0  0  0  0  0
    9.9628    1.7783    0.0567 H   0  0  0  0  0  0  0  0  0  0  0  0
    9.1220    0.2083   -1.7188 H   0  0  0  0  0  0  0  0  0  0  0  0
    5.2113   -0.2414   -2.3118 H   0  0  0  0  0  0  0  0  0  0  0  0
    4.1526   -1.2281   -1.3083 H   0  0  0  0  0  0  0  0  0  0  0  0
    3.5648    1.5999   -2.3539 H   0  0  0  0  0  0  0  0  0  0  0  0
    2.8434    0.0947   -2.9400 H   0  0  0  0  0  0  0  0  0  0  0  0
   -0.4606   -0.8179   -0.2702 H   0  0  0  0  0  0  0  0  0  0  0  0
  1  2  1  0
  2  3  1  0
  3  4  1  0
  4  5  2  0
  5  6  1  0
  6  7  2  0
  7  8  1  0
  8  9  2  0
  9 10  1  0
 10 11  1  0
 11 12  2  0
 11 13  2  0
 11 14  1  0
 14 15  2  0
 15 16  1  0
 16 17  2  0
 17 18  1  0
 18 19  1  0
 19 20  2  0
 19 21  1  0
 21 22  1  0
 22 23  1  0
 23 24  1  0
 24 25  1  0
 25 26  2  0
 26 27  1  0
 27 28  2  0
 28 29  1  0
 29 30  2  0
 24 31  1  0
 31 32  1  0
 18 33  2  0
 10  2  1  0
 33 14  1  0
  9  4  1  0
 32 21  1  0
 30 25  1  0
  1 34  1  0
  1 35  1  0
  1 36  1  0
  2 37  1  0
  3 38  1  0
  3 39  1  0
  5 40  1  0
  6 41  1  0
  7 42  1  0
  8 43  1  0
 15 44  1  0
 16 45  1  0
 17 46  1  0
 22 47  1  0
 22 48  1  0
 23 49  1  0
 23 50  1  0
 27 51  1  0
 28 52  1  0
 29 53  1  0
 31 54  1  0
 31 55  1  0
 32 56  1  0
 32 57  1  0
 33 58  1  0
M  END
$$$$
