
     RDKit          3D

 54 56  0  0  0  0  0  0  0  0999 V2000
    6.8885    1.6579   -0.9086 C   0  0  0  0  0  0  0  0  0  0  0  0
    5.7488    1.8268    0.0942 C   0  0  0  0  0  0  0  0  0  0  0  0
    5.1521    0.5482    0.5022 N   0  0  0  0  0  0  0  0  0  0  0  0
    4.1681    0.7396    1.5958 C   0  0  0  0  0  0  0  0  0  0  0  0
    2.6878    0.6986    1.1560 C   0  0  0  0  0  0  0  0  0  0  0  0
    2.3816   -0.5996    0.5357 N   0  0  0  0  0  0  0  0  0  0  0  0
    1.0546   -0.8351    0.1991 C   0  0  0  0  0  0  0  0  0  0  0  0
    0.6389   -2.0654   -0.2654 C   0  0  0  0  0  0  0  0  0  0  0  0
   -0.7006   -2.2219   -0.5507 C   0  0  0  0  0  0  0  0  0  0  0  0
   -1.2589   -3.7998   -1.1766 S   0  0  0  0  0  0  0  0  0  0  0  0
   -2.9526   -3.8780   -0.4592 C   0  0  0  0  0  0  0  0  0  0  0  0
   -3.9711   -3.3951   -1.4920 C   0  0  0  0  0  0  0  0  0  0  0  0
   -3.2291   -5.3270   -0.0508 C   0  0  0  0  0  0  0  0  0  0  0  0
   -1.5997   -1.2401   -0.4109 N   0  0  0  0  0  0  0  0  0  0  0  0
   -1.1282   -0.0763    0.0607 C   0  0  0  0  0  0  0  0  0  0  0  0
   -2.0863    1.0349    0.2452 C   0  0  0  0  0  0  0  0  0  0  0  0
   -3.4230    0.9394   -0.1870 C   0  0  0  0  0  0  0  0  0  0  0  0
   -4.3340    1.9937   -0.0172 C   0  0  0  0  0  0  0  0  0  0  0  0
   -3.9291    3.1776    0.5926 C   0  0  0  0  0  0  0  0  0  0  0  0
   -4.7095    4.2786    0.8136 O   0  0  0  0  0  0  0  0  0  0  0  0
   -6.0397    4.2386    0.3052 C   0  0  0  0  0  0  0  0  0  0  0  0
   -2.6116    3.2928    1.0355 C   0  0  0  0  0  0  0  0  0  0  0  0
   -1.7045    2.2399    0.8633 C   0  0  0  0  0  0  0  0  0  0  0  0
    0.1610    0.1517    0.3780 N   0  0  0  0  0  0  0  0  0  0  0  0
    3.4694   -1.2119   -0.2486 C   0  0  0  0  0  0  0  0  0  0  0  0
    4.5429   -0.1686   -0.6413 C   0  0  0  0  0  0  0  0  0  0  0  0
    6.5288    1.2951   -1.8796 H   0  0  0  0  0  0  0  0  0  0  0  0
    7.3840    2.6194   -1.0770 H   0  0  0  0  0  0  0  0  0  0  0  0
    7.6399    0.9530   -0.5281 H   0  0  0  0  0  0  0  0  0  0  0  0
    4.9887    2.5009   -0.3139 H   0  0  0  0  0  0  0  0  0  0  0  0
    6.1731    2.3189    0.9785 H   0  0  0  0  0  0  0  0  0  0  0  0
    4.3323   -0.0743    2.3160 H   0  0  0  0  0  0  0  0  0  0  0  0
    4.3581    1.6657    2.1516 H   0  0  0  0  0  0  0  0  0  0  0  0
    2.0597    0.8515    2.0446 H   0  0  0  0  0  0  0  0  0  0  0  0
    2.4918    1.5204    0.4515 H   0  0  0  0  0  0  0  0  0  0  0  0
    1.3264   -2.8926   -0.3741 H   0  0  0  0  0  0  0  0  0  0  0  0
   -3.0203   -3.2540    0.4449 H   0  0  0  0  0  0  0  0  0  0  0  0
   -4.9869   -3.4547   -1.0759 H   0  0  0  0  0  0  0  0  0  0  0  0
   -3.7983   -2.3502   -1.7760 H   0  0  0  0  0  0  0  0  0  0  0  0
   -3.9536   -4.0031   -2.4045 H   0  0  0  0  0  0  0  0  0  0  0  0
   -2.4968   -5.6812    0.6907 H   0  0  0  0  0  0  0  0  0  0  0  0
   -4.2158   -5.4151    0.4143 H   0  0  0  0  0  0  0  0  0  0  0  0
   -3.1966   -6.0108   -0.9121 H   0  0  0  0  0  0  0  0  0  0  0  0
   -3.7706    0.0283   -0.6717 H   0  0  0  0  0  0  0  0  0  0  0  0
   -5.3483    1.8499   -0.3740 H   0  0  0  0  0  0  0  0  0  0  0  0
   -6.6307    3.4689    0.8148 H   0  0  0  0  0  0  0  0  0  0  0  0
   -6.5078    5.2070    0.5103 H   0  0  0  0  0  0  0  0  0  0  0  0
   -6.0461    4.0906   -0.7818 H   0  0  0  0  0  0  0  0  0  0  0  0
   -2.2828    4.2102    1.5170 H   0  0  0  0  0  0  0  0  0  0  0  0
   -0.6839    2.3693    1.2217 H   0  0  0  0  0  0  0  0  0  0  0  0
    3.1020   -1.6658   -1.1750 H   0  0  0  0  0  0  0  0  0  0  0  0
    3.9292   -2.0072    0.3489 H   0  0  0  0  0  0  0  0  0  0  0  0
    5.3356   -0.6858   -1.1985 H   0  0  0  0  0  0  0  0  0  0  0  0
    4.0731    0.5461   -1.3315 H   0  0  0  0  0  0  0  0  0  0  0  0
  1  2  1  0
  2  3  1  0
  3  4  1  0
  4  5  1  0
  5  6  1  0
  6  7  1  0
  7  8  2  0
  8  9  1  0
  9 10  1  0
 10 11  1  0
 11 12  1  0
 11 13  1  0
  9 14  2  0
 14 15  1  0
 15 16  1  0
 16 17  2  0
 17 18  1  0
 18 19  2  0
 19 20  1  0
 20 21  1  0
 19 22  1  0
 22 23  2  0
 15 24  2  0
  6 25  1  0
 25 26  1  0
 26  3  1  0
 24  7  1  0
 23 16  1  0
  1 27  1  0
  1 28  1  0
  1 29  1  0
  2 30  1  0
  2 31  1  0
  4 32  1  0
  4 33  1  0
  5 34  1  0
  5 35  1  0
  8 36  1  0
 11 37  1  0
 12 38  1  0
 12 39  1  0
 12 40  1  0
 13 41  1  0
 13 42  1  0
 13 43  1  0
 17 44  1  0
 18 45  1  0
 21 46  1  0
 21 47  1  0
 21 48  1  0
 22 49  1  0
 23 50  1  0
 25 51  1  0
 25 52  1  0
 26 53  1  0
 26 54  1  0
M  END
$$$$
