
     RDKit          3D

 57 59  0  0  0  0  0  0  0  0999 V2000
   -2.4250   -3.1239    0.1237 C   0  0  0  0  0  0  0  0  0  0  0  0
   -2.7996   -2.3792    1.3960 C   0  0  0  0  0  0  0  0  0  0  0  0
   -3.1067   -0.9619    1.1454 N   0  0  0  0  0  0  0  0  0  0  0  0
   -2.0154   -0.0886    1.1903 C   0  0  0  0  0  0  0  0  0  0  0  0
   -0.8759   -0.5032    1.4410 O   0  0  0  0  0  0  0  0  0  0  0  0
   -2.2205    1.4169    0.9681 C   0  0  0  0  0  0  0  0  0  0  0  0
   -1.0011    2.0559    0.5782 O   0  0  0  0  0  0  0  0  0  0  0  0
   -0.6091    1.7319   -0.6773 C   0  0  0  0  0  0  0  0  0  0  0  0
   -1.2353    1.0787   -1.4942 O   0  0  0  0  0  0  0  0  0  0  0  0
    0.7851    2.1582   -0.8654 C   0  0  0  0  0  0  0  0  0  0  0  0
    1.7153    1.1566   -1.1734 C   0  0  0  0  0  0  0  0  0  0  0  0
    3.0721    1.4806   -1.3198 C   0  0  0  0  0  0  0  0  0  0  0  0
    4.2116    0.1733   -1.6920 S   0  0  0  0  0  6  0  0  0  0  0  0
    3.4687   -1.0689   -1.7195 O   0  0  0  0  0  0  0  0  0  0  0  0
    4.9861    0.5833   -2.8413 O   0  0  0  0  0  0  0  0  0  0  0  0
    5.2092    0.1329   -0.3188 N   0  0  0  0  0  0  0  0  0  0  0  0
    4.5903   -0.3195    0.9675 C   0  0  0  0  0  0  0  0  0  0  0  0
    4.6008   -1.8481    1.1057 C   0  0  0  0  0  0  0  0  0  0  0  0
    5.9210   -2.3823    0.9345 O   0  0  0  0  0  0  0  0  0  0  0  0
    6.4375   -2.0405   -0.3605 C   0  0  0  0  0  0  0  0  0  0  0  0
    6.5403   -0.5216   -0.5149 C   0  0  0  0  0  0  0  0  0  0  0  0
    3.4943    2.8051   -1.1797 C   0  0  0  0  0  0  0  0  0  0  0  0
    5.1372    3.3169   -1.3081 Cl  0  0  0  0  0  0  0  0  0  0  0  0
    2.5501    3.8033   -0.8983 C   0  0  0  0  0  0  0  0  0  0  0  0
    1.1970    3.4859   -0.7425 C   0  0  0  0  0  0  0  0  0  0  0  0
    0.0961    4.7801   -0.4386 Cl  0  0  0  0  0  0  0  0  0  0  0  0
   -4.4710   -0.6783    0.6564 C   0  0  0  0  0  0  0  0  0  0  0  0
   -5.2503    0.3729    1.4583 C   0  0  0  0  0  0  0  0  0  0  0  0
   -6.5940    0.4977    0.7518 C   0  0  0  0  0  0  0  0  0  0  0  0
   -6.2191    0.3790   -0.9911 S   0  0  0  0  0  6  0  0  0  0  0  0
   -6.0936    1.7215   -1.5182 O   0  0  0  0  0  0  0  0  0  0  0  0
   -7.0986   -0.6092   -1.5786 O   0  0  0  0  0  0  0  0  0  0  0  0
   -4.5846   -0.3253   -0.8276 C   0  0  0  0  0  0  0  0  0  0  0  0
   -2.1657   -4.1617    0.3551 H   0  0  0  0  0  0  0  0  0  0  0  0
   -1.5665   -2.6579   -0.3706 H   0  0  0  0  0  0  0  0  0  0  0  0
   -3.2563   -3.1346   -0.5878 H   0  0  0  0  0  0  0  0  0  0  0  0
   -1.9738   -2.4575    2.1127 H   0  0  0  0  0  0  0  0  0  0  0  0
   -3.6640   -2.8498    1.8785 H   0  0  0  0  0  0  0  0  0  0  0  0
   -2.5152    1.8506    1.9291 H   0  0  0  0  0  0  0  0  0  0  0  0
   -2.9930    1.6534    0.2388 H   0  0  0  0  0  0  0  0  0  0  0  0
    1.3727    0.1267   -1.2802 H   0  0  0  0  0  0  0  0  0  0  0  0
    3.5740    0.0704    1.0739 H   0  0  0  0  0  0  0  0  0  0  0  0
    5.1838    0.1233    1.7773 H   0  0  0  0  0  0  0  0  0  0  0  0
    4.2637   -2.1243    2.1100 H   0  0  0  0  0  0  0  0  0  0  0  0
    3.9254   -2.3339    0.3950 H   0  0  0  0  0  0  0  0  0  0  0  0
    7.4329   -2.4880   -0.4447 H   0  0  0  0  0  0  0  0  0  0  0  0
    5.8045   -2.4896   -1.1339 H   0  0  0  0  0  0  0  0  0  0  0  0
    6.9713   -0.2550   -1.4844 H   0  0  0  0  0  0  0  0  0  0  0  0
    7.2135   -0.1166    0.2510 H   0  0  0  0  0  0  0  0  0  0  0  0
    2.8737    4.8386   -0.8000 H   0  0  0  0  0  0  0  0  0  0  0  0
   -5.0382   -1.6119    0.7884 H   0  0  0  0  0  0  0  0  0  0  0  0
   -4.7589    1.3474    1.4595 H   0  0  0  0  0  0  0  0  0  0  0  0
   -5.3780    0.0737    2.5038 H   0  0  0  0  0  0  0  0  0  0  0  0
   -7.2537   -0.3357    1.0109 H   0  0  0  0  0  0  0  0  0  0  0  0
   -7.0927    1.4465    0.9598 H   0  0  0  0  0  0  0  0  0  0  0  0
   -3.8618    0.4148   -1.1679 H   0  0  0  0  0  0  0  0  0  0  0  0
   -4.5105   -1.2091   -1.4661 H   0  0  0  0  0  0  0  0  0  0  0  0
  1  2  1  0
  2  3  1  0
  3  4  1  0
  4  5  2  0
  4  6  1  0
  6  7  1  0
  7  8  1  0
  8  9  2  0
  8 10  1  0
 10 11  2  0
 11 12  1  0
 12 13  1  0
 13 14  2  0
 13 15  2  0
 13 16  1  0
 16 17  1  0
 17 18  1  0
 18 19  1  0
 19 20  1  0
 20 21  1  0
 12 22  2  0
 22 23  1  0
 22 24  1  0
 24 25  2  0
 25 26  1  0
  3 27  1  0
 27 28  1  0
 28 29  1  0
 29 30  1  0
 30 31  2  0
 30 32  2  0
 30 33  1  0
 25 10  1  0
 33 27  1  0
 21 16  1  0
  1 34  1  0
  1 35  1  0
  1 36  1  0
  2 37  1  0
  2 38  1  0
  6 39  1  0
  6 40  1  0
 11 41  1  0
 17 42  1  0
 17 43  1  0
 18 44  1  0
 18 45  1  0
 20 46  1  0
 20 47  1  0
 21 48  1  0
 21 49  1  0
 24 50  1  0
 27 51  1  0
 28 52  1  0
 28 53  1  0
 29 54  1  0
 29 55  1  0
 33 56  1  0
 33 57  1  0
M  END
$$$$
