
     RDKit          3D

 55 58  0  0  0  0  0  0  0  0999 V2000
   -8.9232   -1.7721    0.9874 C   0  0  0  0  0  0  0  0  0  0  0  0
   -7.5499   -2.3695    1.2706 C   0  0  0  0  0  0  0  0  0  0  0  0
   -7.5177   -3.0186    2.6489 C   0  0  0  0  0  0  0  0  0  0  0  0
   -6.5592   -1.3245    1.2710 O   0  0  0  0  0  0  0  0  0  0  0  0
   -6.0641   -0.9722    0.0580 C   0  0  0  0  0  0  0  0  0  0  0  0
   -6.3858   -1.4566   -1.0152 O   0  0  0  0  0  0  0  0  0  0  0  0
   -5.0486    0.1067    0.2016 C   0  0  0  0  0  0  0  0  0  0  0  0
   -4.7175    0.6693    1.4412 C   0  0  0  0  0  0  0  0  0  0  0  0
   -3.7535    1.6793    1.5211 C   0  0  0  0  0  0  0  0  0  0  0  0
   -3.1139    2.1465    0.3649 C   0  0  0  0  0  0  0  0  0  0  0  0
   -2.0551    3.2160    0.4534 C   0  0  0  0  0  0  0  0  0  0  0  0
   -0.8064    2.6145    0.8153 O   0  0  0  0  0  0  0  0  0  0  0  0
    0.0328    2.3428   -0.2125 C   0  0  0  0  0  0  0  0  0  0  0  0
   -0.1627    2.5994   -1.3896 O   0  0  0  0  0  0  0  0  0  0  0  0
    1.2622    1.6650    0.2839 C   0  0  0  0  0  0  0  0  0  0  0  0
    1.4470    1.3414    1.6342 C   0  0  0  0  0  0  0  0  0  0  0  0
    2.6132    0.6965    2.0460 C   0  0  0  0  0  0  0  0  0  0  0  0
    3.5992    0.3691    1.1121 C   0  0  0  0  0  0  0  0  0  0  0  0
    3.4360    0.6828   -0.2461 C   0  0  0  0  0  0  0  0  0  0  0  0
    4.4502    0.3480   -1.2381 C   0  0  0  0  0  0  0  0  0  0  0  0
    4.5135    0.6454   -2.5196 N   0  0  0  0  0  0  0  0  0  0  0  0
    5.6752    0.0744   -2.9985 N   0  0  0  0  0  0  0  0  0  0  0  0
    6.2415   -0.5370   -1.9777 C   0  0  0  0  0  0  0  0  0  0  0  0
    7.4761   -1.3087   -1.9138 C   0  0  0  0  0  0  0  0  0  0  0  0
    8.2383   -1.4955   -3.0777 C   0  0  0  0  0  0  0  0  0  0  0  0
    9.4247   -2.2330   -3.0466 C   0  0  0  0  0  0  0  0  0  0  0  0
    9.8653   -2.7927   -1.8499 C   0  0  0  0  0  0  0  0  0  0  0  0
    9.1216   -2.6167   -0.6846 C   0  0  0  0  0  0  0  0  0  0  0  0
    7.9341   -1.8799   -0.7161 C   0  0  0  0  0  0  0  0  0  0  0  0
    5.5184   -0.4026   -0.8199 O   0  0  0  0  0  0  0  0  0  0  0  0
    2.2594    1.3355   -0.6472 C   0  0  0  0  0  0  0  0  0  0  0  0
   -3.4395    1.5737   -0.8717 C   0  0  0  0  0  0  0  0  0  0  0  0
   -4.4026    0.5647   -0.9536 C   0  0  0  0  0  0  0  0  0  0  0  0
   -9.1635   -0.9827    1.7078 H   0  0  0  0  0  0  0  0  0  0  0  0
   -9.7044   -2.5373    1.0310 H   0  0  0  0  0  0  0  0  0  0  0  0
   -8.9504   -1.3089   -0.0044 H   0  0  0  0  0  0  0  0  0  0  0  0
   -7.3025   -3.1325    0.5223 H   0  0  0  0  0  0  0  0  0  0  0  0
   -7.7243   -2.2840    3.4352 H   0  0  0  0  0  0  0  0  0  0  0  0
   -6.5219   -3.4261    2.8542 H   0  0  0  0  0  0  0  0  0  0  0  0
   -8.2485   -3.8295    2.7244 H   0  0  0  0  0  0  0  0  0  0  0  0
   -5.1988    0.3300    2.3552 H   0  0  0  0  0  0  0  0  0  0  0  0
   -3.5011    2.0975    2.4937 H   0  0  0  0  0  0  0  0  0  0  0  0
   -2.3171    3.9301    1.2428 H   0  0  0  0  0  0  0  0  0  0  0  0
   -1.9931    3.8011   -0.4724 H   0  0  0  0  0  0  0  0  0  0  0  0
    0.6899    1.5815    2.3769 H   0  0  0  0  0  0  0  0  0  0  0  0
    2.7544    0.4464    3.0953 H   0  0  0  0  0  0  0  0  0  0  0  0
    4.4996   -0.1346    1.4596 H   0  0  0  0  0  0  0  0  0  0  0  0
    7.9090   -1.0648   -4.0227 H   0  0  0  0  0  0  0  0  0  0  0  0
   10.0027   -2.3690   -3.9578 H   0  0  0  0  0  0  0  0  0  0  0  0
   10.7886   -3.3661   -1.8257 H   0  0  0  0  0  0  0  0  0  0  0  0
    9.4658   -3.0524    0.2498 H   0  0  0  0  0  0  0  0  0  0  0  0
    7.3720   -1.7571    0.2072 H   0  0  0  0  0  0  0  0  0  0  0  0
    2.1140    1.5857   -1.6992 H   0  0  0  0  0  0  0  0  0  0  0  0
   -2.9377    1.9058   -1.7799 H   0  0  0  0  0  0  0  0  0  0  0  0
   -4.6419    0.1341   -1.9244 H   0  0  0  0  0  0  0  0  0  0  0  0
  1  2  1  0
  2  3  1  0
  2  4  1  0
  4  5  1  0
  5  6  2  0
  5  7  1  0
  7  8  2  0
  8  9  1  0
  9 10  2  0
 10 11  1  0
 11 12  1  0
 12 13  1  0
 13 14  2  0
 13 15  1  0
 15 16  2  0
 16 17  1  0
 17 18  2  0
 18 19  1  0
 19 20  1  0
 20 21  2  0
 21 22  1  0
 22 23  2  0
 23 24  1  0
 24 25  2  0
 25 26  1  0
 26 27  2  0
 27 28  1  0
 28 29  2  0
 23 30  1  0
 19 31  2  0
 10 32  1  0
 32 33  2  0
 33  7  1  0
 31 15  1  0
 30 20  1  0
 29 24  1  0
  1 34  1  0
  1 35  1  0
  1 36  1  0
  2 37  1  0
  3 38  1  0
  3 39  1  0
  3 40  1  0
  8 41  1  0
  9 42  1  0
 11 43  1  0
 11 44  1  0
 16 45  1  0
 17 46  1  0
 18 47  1  0
 25 48  1  0
 26 49  1  0
 27 50  1  0
 28 51  1  0
 29 52  1  0
 31 53  1  0
 32 54  1  0
 33 55  1  0
M  END
$$$$
