
     RDKit          3D

 51 53  0  0  0  0  0  0  0  0999 V2000
    3.7281    1.4509    0.5861 O   0  0  0  0  0  0  0  0  0  0  0  0
    4.2641    1.3675   -0.5101 C   0  0  0  0  0  0  0  0  0  0  0  0
    3.6488    1.4714   -1.7339 N   0  0  0  0  0  0  0  0  0  0  0  0
    2.2200    1.6038   -1.8717 C   0  0  0  0  0  0  0  0  0  0  0  0
    1.5842    0.2645   -1.9690 C   0  0  0  0  0  0  0  0  0  0  0  0
    2.0150   -0.9944   -2.3385 C   0  0  0  0  0  0  0  0  0  0  0  0
    0.8995   -1.8571   -2.1982 C   0  0  0  0  0  0  0  0  0  0  0  0
   -0.1557   -1.0755   -1.7702 C   0  0  0  0  0  0  0  0  0  0  0  0
   -1.5187   -1.4091   -1.4577 C   0  0  0  0  0  0  0  0  0  0  0  0
   -2.3913   -0.5009   -1.1548 N   0  0  0  0  0  0  0  0  0  0  0  0
   -3.6430   -0.9554   -0.8622 N   0  0  0  0  0  0  0  0  0  0  0  0
   -4.6538   -0.0732   -0.5306 C   0  0  0  0  0  0  0  0  0  0  0  0
   -4.6246    1.1495   -0.4923 O   0  0  0  0  0  0  0  0  0  0  0  0
   -5.9601   -0.8030   -0.1714 C   0  0  0  0  0  0  0  0  0  0  0  0
   -5.9775   -2.0261   -0.2173 O   0  0  0  0  0  0  0  0  0  0  0  0
   -6.9669    0.0727    0.1677 N   0  0  0  0  0  0  0  0  0  0  0  0
   -8.2860   -0.2163    0.5708 C   0  0  0  0  0  0  0  0  0  0  0  0
   -8.7689   -1.5222    0.6963 C   0  0  0  0  0  0  0  0  0  0  0  0
  -10.0863   -1.7593    1.1034 C   0  0  0  0  0  0  0  0  0  0  0  0
  -10.9366   -0.6954    1.3912 C   0  0  0  0  0  0  0  0  0  0  0  0
  -10.4715    0.6127    1.2741 C   0  0  0  0  0  0  0  0  0  0  0  0
   -9.1554    0.8503    0.8658 C   0  0  0  0  0  0  0  0  0  0  0  0
   -8.5902    2.6613    0.7211 Br  0  0  0  0  0  0  0  0  0  0  0  0
    0.2608    0.2182   -1.6417 O   0  0  0  0  0  0  0  0  0  0  0  0
    5.7819    1.1000   -0.5978 C   0  0  0  0  0  0  0  0  0  0  0  0
    6.3016    1.0229   -1.7022 O   0  0  0  0  0  0  0  0  0  0  0  0
    6.3464    0.9660    0.6514 N   0  0  0  0  0  0  0  0  0  0  0  0
    7.6895    0.7124    0.9720 C   0  0  0  0  0  0  0  0  0  0  0  0
    8.7047    0.5954    0.0210 C   0  0  0  0  0  0  0  0  0  0  0  0
   10.0195    0.3374    0.4210 C   0  0  0  0  0  0  0  0  0  0  0  0
   10.3280    0.1955    1.7726 C   0  0  0  0  0  0  0  0  0  0  0  0
    9.3216    0.3137    2.7277 C   0  0  0  0  0  0  0  0  0  0  0  0
    8.0083    0.5726    2.3285 C   0  0  0  0  0  0  0  0  0  0  0  0
    4.2270    1.3123   -2.5531 H   0  0  0  0  0  0  0  0  0  0  0  0
    2.0279    2.1764   -2.7841 H   0  0  0  0  0  0  0  0  0  0  0  0
    1.8195    2.1586   -1.0167 H   0  0  0  0  0  0  0  0  0  0  0  0
    3.0155   -1.2598   -2.6552 H   0  0  0  0  0  0  0  0  0  0  0  0
    0.8707   -2.9213   -2.3893 H   0  0  0  0  0  0  0  0  0  0  0  0
   -1.7872   -2.4799   -1.4938 H   0  0  0  0  0  0  0  0  0  0  0  0
   -3.8547   -1.9505   -0.8333 H   0  0  0  0  0  0  0  0  0  0  0  0
   -6.7073    1.0601    0.1192 H   0  0  0  0  0  0  0  0  0  0  0  0
   -8.1449   -2.3850    0.4844 H   0  0  0  0  0  0  0  0  0  0  0  0
  -10.4454   -2.7808    1.1948 H   0  0  0  0  0  0  0  0  0  0  0  0
  -11.9599   -0.8845    1.7067 H   0  0  0  0  0  0  0  0  0  0  0  0
  -11.1401    1.4405    1.5018 H   0  0  0  0  0  0  0  0  0  0  0  0
    5.6851    1.0545    1.4211 H   0  0  0  0  0  0  0  0  0  0  0  0
    8.5073    0.7031   -1.0416 H   0  0  0  0  0  0  0  0  0  0  0  0
   10.8032    0.2491   -0.3277 H   0  0  0  0  0  0  0  0  0  0  0  0
   11.3510   -0.0064    2.0800 H   0  0  0  0  0  0  0  0  0  0  0  0
    9.5571    0.2034    3.7836 H   0  0  0  0  0  0  0  0  0  0  0  0
    7.2395    0.6595    3.0925 H   0  0  0  0  0  0  0  0  0  0  0  0
  1  2  2  0
  2  3  1  0
  3  4  1  0
  4  5  1  0
  5  6  2  0
  6  7  1  0
  7  8  2  0
  8  9  1  0
  9 10  2  3
 10 11  1  0
 11 12  1  0
 12 13  2  0
 12 14  1  0
 14 15  2  0
 14 16  1  0
 16 17  1  0
 17 18  2  0
 18 19  1  0
 19 20  2  0
 20 21  1  0
 21 22  2  0
 22 23  1  0
  8 24  1  0
  2 25  1  0
 25 26  2  0
 25 27  1  0
 27 28  1  0
 28 29  2  0
 29 30  1  0
 30 31  2  0
 31 32  1  0
 32 33  2  0
 24  5  1  0
 33 28  1  0
 22 17  1  0
  3 34  1  0
  4 35  1  0
  4 36  1  0
  6 37  1  0
  7 38  1  0
  9 39  1  0
 11 40  1  0
 16 41  1  0
 18 42  1  0
 19 43  1  0
 20 44  1  0
 21 45  1  0
 27 46  1  0
 29 47  1  0
 30 48  1  0
 31 49  1  0
 32 50  1  0
 33 51  1  0
M  END
$$$$
