
     RDKit          3D

 42 43  0  0  0  0  0  0  0  0999 V2000
   -3.8047   -0.1176    4.9158 C   0  0  0  0  0  0  0  0  0  0  0  0
   -4.2404   -0.4277    3.4815 C   0  0  0  0  0  0  0  0  0  0  0  0
   -5.1670   -1.6456    3.4443 C   0  0  0  0  0  0  0  0  0  0  0  0
   -3.0460   -0.6071    2.5618 C   0  0  0  0  0  0  0  0  0  0  0  0
   -2.1100   -1.6303    2.7599 C   0  0  0  0  0  0  0  0  0  0  0  0
   -1.0198   -1.7730    1.8976 C   0  0  0  0  0  0  0  0  0  0  0  0
   -0.8400   -0.9011    0.8233 C   0  0  0  0  0  0  0  0  0  0  0  0
    0.2665   -1.1553    0.0627 O   0  0  0  0  0  0  0  0  0  0  0  0
    0.5125   -0.2905   -1.0346 C   0  0  0  0  0  0  0  0  0  0  0  0
    1.7832   -0.6920   -1.7909 C   0  0  0  0  0  0  0  0  0  0  0  0
    2.4527   -1.6881   -1.5358 O   0  0  0  0  0  0  0  0  0  0  0  0
    2.1058    0.1852   -2.8161 N   0  0  0  0  0  0  0  0  0  0  0  0
    3.3322    0.0221   -3.5827 C   0  0  0  0  0  0  0  0  0  0  0  0
    3.2922    0.8295   -4.8767 C   0  0  0  0  0  0  0  0  0  0  0  0
    3.7052    2.2445   -4.4750 C   0  0  0  0  0  0  0  0  0  0  0  0
    4.4569    2.1126   -3.1504 C   0  0  0  0  0  0  0  0  0  0  0  0
    4.5383    0.6171   -2.8594 C   0  0  0  0  0  0  0  0  0  0  0  0
   -1.7659    0.1199    0.6165 C   0  0  0  0  0  0  0  0  0  0  0  0
   -2.8593    0.2647    1.4795 C   0  0  0  0  0  0  0  0  0  0  0  0
   -3.1512    0.7615    4.9450 H   0  0  0  0  0  0  0  0  0  0  0  0
   -3.2603   -0.9533    5.3687 H   0  0  0  0  0  0  0  0  0  0  0  0
   -4.6760    0.0916    5.5458 H   0  0  0  0  0  0  0  0  0  0  0  0
   -4.8254    0.4327    3.1299 H   0  0  0  0  0  0  0  0  0  0  0  0
   -4.6785   -2.5444    3.8361 H   0  0  0  0  0  0  0  0  0  0  0  0
   -6.0637   -1.4653    4.0470 H   0  0  0  0  0  0  0  0  0  0  0  0
   -5.4895   -1.8608    2.4194 H   0  0  0  0  0  0  0  0  0  0  0  0
   -2.2172   -2.3288    3.5863 H   0  0  0  0  0  0  0  0  0  0  0  0
   -0.3025   -2.5734    2.0652 H   0  0  0  0  0  0  0  0  0  0  0  0
    0.6541    0.7371   -0.6780 H   0  0  0  0  0  0  0  0  0  0  0  0
   -0.3174   -0.3405   -1.7499 H   0  0  0  0  0  0  0  0  0  0  0  0
    1.6404    1.0830   -2.8451 H   0  0  0  0  0  0  0  0  0  0  0  0
    3.4761   -1.0453   -3.7818 H   0  0  0  0  0  0  0  0  0  0  0  0
    2.3144    0.8130   -5.3684 H   0  0  0  0  0  0  0  0  0  0  0  0
    4.0299    0.4285   -5.5828 H   0  0  0  0  0  0  0  0  0  0  0  0
    2.8229    2.8809   -4.3419 H   0  0  0  0  0  0  0  0  0  0  0  0
    4.3271    2.7068   -5.2486 H   0  0  0  0  0  0  0  0  0  0  0  0
    5.4515    2.5672   -3.1975 H   0  0  0  0  0  0  0  0  0  0  0  0
    3.9000    2.6240   -2.3565 H   0  0  0  0  0  0  0  0  0  0  0  0
    4.5520    0.4117   -1.7846 H   0  0  0  0  0  0  0  0  0  0  0  0
    5.4628    0.2148   -3.2917 H   0  0  0  0  0  0  0  0  0  0  0  0
   -1.6735    0.8219   -0.2045 H   0  0  0  0  0  0  0  0  0  0  0  0
   -3.5684    1.0695    1.2962 H   0  0  0  0  0  0  0  0  0  0  0  0
  1  2  1  0
  2  3  1  0
  2  4  1  0
  4  5  2  0
  5  6  1  0
  6  7  2  0
  7  8  1  0
  8  9  1  0
  9 10  1  0
 10 11  2  0
 10 12  1  0
 12 13  1  0
 13 14  1  0
 14 15  1  0
 15 16  1  0
 16 17  1  0
  7 18  1  0
 18 19  2  0
 19  4  1  0
 17 13  1  0
  1 20  1  0
  1 21  1  0
  1 22  1  0
  2 23  1  0
  3 24  1  0
  3 25  1  0
  3 26  1  0
  5 27  1  0
  6 28  1  0
  9 29  1  0
  9 30  1  0
 12 31  1  0
 13 32  1  0
 14 33  1  0
 14 34  1  0
 15 35  1  0
 15 36  1  0
 16 37  1  0
 16 38  1  0
 17 39  1  0
 17 40  1  0
 18 41  1  0
 19 42  1  0
M  END
$$$$
