
     RDKit          3D

 33 36  0  0  0  0  0  0  0  0999 V2000
    5.9438   -0.8560   -1.4053 C   0  0  0  0  0  0  0  0  0  0  0  0
    5.4674    0.1866   -0.4761 C   0  0  0  0  0  0  0  0  0  0  0  0
    6.0919    1.1722    0.2471 C   0  0  0  0  0  0  0  0  0  0  0  0
    5.0646    1.8444    0.9507 C   0  0  0  0  0  0  0  0  0  0  0  0
    3.8514    1.2424    0.6296 C   0  0  0  0  0  0  0  0  0  0  0  0
    2.5553    1.5898    1.1040 C   0  0  0  0  0  0  0  0  0  0  0  0
    1.4091    0.9782    0.7735 C   0  0  0  0  0  0  0  0  0  0  0  0
    1.1414   -0.3835   -0.2986 S   0  0  0  0  0  0  0  0  0  0  0  0
   -0.5395   -0.3052    0.0201 C   0  0  0  0  0  0  0  0  0  0  0  0
   -1.5921   -0.9641   -0.3687 N   0  0  0  0  0  0  0  0  0  0  0  0
   -2.6069   -0.3225    0.3375 C   0  0  0  0  0  0  0  0  0  0  0  0
   -4.0005   -0.7203    0.1826 C   0  0  0  0  0  0  0  0  0  0  0  0
   -4.4601   -0.9933   -1.1196 C   0  0  0  0  0  0  0  0  0  0  0  0
   -5.7863   -1.3633   -1.3535 C   0  0  0  0  0  0  0  0  0  0  0  0
   -6.6730   -1.4725   -0.2875 C   0  0  0  0  0  0  0  0  0  0  0  0
   -6.2314   -1.2219    1.0117 C   0  0  0  0  0  0  0  0  0  0  0  0
   -4.9002   -0.8515    1.2523 C   0  0  0  0  0  0  0  0  0  0  0  0
   -4.4058   -0.6212    3.0758 Br  0  0  0  0  0  0  0  0  0  0  0  0
   -2.1931    0.7225    1.0864 N   0  0  0  0  0  0  0  0  0  0  0  0
   -0.8683    0.6822    0.8728 N   0  0  0  0  0  0  0  0  0  0  0  0
    0.1337    1.4843    1.3729 C   0  0  0  0  0  0  0  0  0  0  0  0
   -0.0469    2.4094    2.1442 O   0  0  0  0  0  0  0  0  0  0  0  0
    4.1289    0.2238   -0.2520 O   0  0  0  0  0  0  0  0  0  0  0  0
    7.0307   -0.8096   -1.5240 H   0  0  0  0  0  0  0  0  0  0  0  0
    5.4871   -0.7276   -2.3914 H   0  0  0  0  0  0  0  0  0  0  0  0
    5.6838   -1.8507   -1.0304 H   0  0  0  0  0  0  0  0  0  0  0  0
    7.1523    1.3812    0.2665 H   0  0  0  0  0  0  0  0  0  0  0  0
    5.1893    2.6819    1.6242 H   0  0  0  0  0  0  0  0  0  0  0  0
    2.5144    2.4300    1.7963 H   0  0  0  0  0  0  0  0  0  0  0  0
   -3.7788   -0.9128   -1.9657 H   0  0  0  0  0  0  0  0  0  0  0  0
   -6.1232   -1.5655   -2.3673 H   0  0  0  0  0  0  0  0  0  0  0  0
   -7.7063   -1.7608   -0.4647 H   0  0  0  0  0  0  0  0  0  0  0  0
   -6.9327   -1.3265    1.8366 H   0  0  0  0  0  0  0  0  0  0  0  0
  1  2  1  0
  2  3  2  0
  3  4  1  0
  4  5  2  0
  5  6  1  0
  6  7  2  3
  7  8  1  0
  8  9  1  0
  9 10  2  0
 10 11  1  0
 11 12  1  0
 12 13  2  0
 13 14  1  0
 14 15  2  0
 15 16  1  0
 16 17  2  0
 17 18  1  0
 11 19  2  0
 19 20  1  0
 20 21  1  0
 21 22  2  0
  5 23  1  0
 23  2  1  0
 21  7  1  0
 20  9  1  0
 17 12  1  0
  1 24  1  0
  1 25  1  0
  1 26  1  0
  3 27  1  0
  4 28  1  0
  6 29  1  0
 13 30  1  0
 14 31  1  0
 15 32  1  0
 16 33  1  0
M  END
$$$$
