
     RDKit          3D

 54 58  0  0  0  0  0  0  0  0999 V2000
   -8.5953   -0.1290    2.3783 O   0  0  0  0  0  0  0  0  0  0  0  0
   -7.5579   -0.2817    2.9963 C   0  0  0  0  0  0  0  0  0  0  0  0
   -7.5627   -0.5794    4.3074 O   0  0  0  0  0  0  0  0  0  0  0  0
   -6.1901   -0.1750    2.4350 C   0  0  0  0  0  0  0  0  0  0  0  0
   -5.0471   -0.3586    3.2138 C   0  0  0  0  0  0  0  0  0  0  0  0
   -3.7746   -0.2484    2.6350 C   0  0  0  0  0  0  0  0  0  0  0  0
   -3.6096    0.0391    1.2702 C   0  0  0  0  0  0  0  0  0  0  0  0
   -2.3045    0.1434    0.6920 N   0  0  0  0  0  0  0  0  0  0  0  0
   -1.1754    0.5343    1.4569 C   0  0  0  0  0  0  0  0  0  0  0  0
   -1.0600    0.8157    2.6372 O   0  0  0  0  0  0  0  0  0  0  0  0
   -0.0559    0.5910    0.4570 C   0  0  0  0  0  0  0  0  0  0  0  0
    1.1828    0.9286    0.8364 C   0  0  0  0  0  0  0  0  0  0  0  0
    2.3101    1.0181   -0.0238 C   0  0  0  0  0  0  0  0  0  0  0  0
    2.4349    1.4175   -1.3487 C   0  0  0  0  0  0  0  0  0  0  0  0
    3.8033    1.3351   -1.7055 C   0  0  0  0  0  0  0  0  0  0  0  0
    4.4740    0.9062   -0.5822 C   0  0  0  0  0  0  0  0  0  0  0  0
    5.8730    0.6246   -0.2655 C   0  0  0  0  0  0  0  0  0  0  0  0
    6.2564    0.1974    1.0176 C   0  0  0  0  0  0  0  0  0  0  0  0
    7.5957   -0.0725    1.3224 C   0  0  0  0  0  0  0  0  0  0  0  0
    8.5714    0.0850    0.3332 C   0  0  0  0  0  0  0  0  0  0  0  0
    9.9785   -0.1960    0.6436 N   0  0  0  0  0  4  0  0  0  0  0  0
   10.2528   -0.5684    1.7933 O   0  0  0  0  0  0  0  0  0  0  0  0
   10.8096   -0.0445   -0.2634 O   0  0  0  0  0  1  0  0  0  0  0  0
    8.2141    0.5091   -0.9516 C   0  0  0  0  0  0  0  0  0  0  0  0
    6.8706    0.7758   -1.2429 C   0  0  0  0  0  0  0  0  0  0  0  0
    3.5780    0.7287    0.4297 O   0  0  0  0  0  0  0  0  0  0  0  0
   -0.6065    0.2007   -0.8106 C   0  0  0  0  0  0  0  0  0  0  0  0
   -1.9147   -0.0478   -0.6372 C   0  0  0  0  0  0  0  0  0  0  0  0
   -2.7323   -0.6033   -1.7172 C   0  0  0  0  0  0  0  0  0  0  0  0
   -2.9725    0.1387   -2.8828 C   0  0  0  0  0  0  0  0  0  0  0  0
   -3.7396   -0.4000   -3.9178 C   0  0  0  0  0  0  0  0  0  0  0  0
   -4.2652   -1.6856   -3.8005 C   0  0  0  0  0  0  0  0  0  0  0  0
   -4.0227   -2.4361   -2.6514 C   0  0  0  0  0  0  0  0  0  0  0  0
   -3.2560   -1.8998   -1.6153 C   0  0  0  0  0  0  0  0  0  0  0  0
   -4.7717    0.2333    0.5085 C   0  0  0  0  0  0  0  0  0  0  0  0
   -6.0473    0.1245    1.0793 C   0  0  0  0  0  0  0  0  0  0  0  0
   -8.5146   -0.6149    4.5378 H   0  0  0  0  0  0  0  0  0  0  0  0
   -5.1257   -0.5905    4.2734 H   0  0  0  0  0  0  0  0  0  0  0  0
   -2.9182   -0.4242    3.2820 H   0  0  0  0  0  0  0  0  0  0  0  0
    1.3765    1.1245    1.8895 H   0  0  0  0  0  0  0  0  0  0  0  0
    1.6302    1.7526   -1.9877 H   0  0  0  0  0  0  0  0  0  0  0  0
    4.2390    1.5748   -2.6647 H   0  0  0  0  0  0  0  0  0  0  0  0
    5.5086    0.0700    1.7995 H   0  0  0  0  0  0  0  0  0  0  0  0
    7.8530   -0.4010    2.3273 H   0  0  0  0  0  0  0  0  0  0  0  0
    8.9605    0.6370   -1.7332 H   0  0  0  0  0  0  0  0  0  0  0  0
    6.6159    1.1042   -2.2483 H   0  0  0  0  0  0  0  0  0  0  0  0
   -0.0524    0.0597   -1.7242 H   0  0  0  0  0  0  0  0  0  0  0  0
   -2.5732    1.1452   -2.9887 H   0  0  0  0  0  0  0  0  0  0  0  0
   -3.9277    0.1832   -4.8159 H   0  0  0  0  0  0  0  0  0  0  0  0
   -4.8632   -2.1044   -4.6063 H   0  0  0  0  0  0  0  0  0  0  0  0
   -4.4304   -3.4400   -2.5611 H   0  0  0  0  0  0  0  0  0  0  0  0
   -3.0730   -2.4987   -0.7253 H   0  0  0  0  0  0  0  0  0  0  0  0
   -4.7230    0.5162   -0.5380 H   0  0  0  0  0  0  0  0  0  0  0  0
   -6.9258    0.2857    0.4569 H   0  0  0  0  0  0  0  0  0  0  0  0
  1  2  2  0
  2  3  1  0
  2  4  1  0
  4  5  2  0
  5  6  1  0
  6  7  2  0
  7  8  1  0
  8  9  1  0
  9 10  2  0
  9 11  1  0
 11 12  2  3
 12 13  1  0
 13 14  2  0
 14 15  1  0
 15 16  2  0
 16 17  1  0
 17 18  2  0
 18 19  1  0
 19 20  2  0
 20 21  1  0
 21 22  2  0
 21 23  1  0
 20 24  1  0
 24 25  2  0
 16 26  1  0
 11 27  1  0
 27 28  2  0
 28 29  1  0
 29 30  2  0
 30 31  1  0
 31 32  2  0
 32 33  1  0
 33 34  2  0
  7 35  1  0
 35 36  2  0
 36  4  1  0
 28  8  1  0
 34 29  1  0
 26 13  1  0
 25 17  1  0
  3 37  1  0
  5 38  1  0
  6 39  1  0
 12 40  1  0
 14 41  1  0
 15 42  1  0
 18 43  1  0
 19 44  1  0
 24 45  1  0
 25 46  1  0
 27 47  1  0
 30 48  1  0
 31 49  1  0
 32 50  1  0
 33 51  1  0
 34 52  1  0
 35 53  1  0
 36 54  1  0
M  CHG  2  21   1  23  -1
M  END
$$$$
