
     RDKit          3D

 42 45  0  0  0  0  0  0  0  0999 V2000
    5.9414   -1.8658   -2.0853 O   0  0  0  0  0  0  0  0  0  0  0  0
    5.8595   -2.0943   -0.8914 C   0  0  0  0  0  0  0  0  0  0  0  0
    6.0652   -3.3365   -0.4130 O   0  0  0  0  0  0  0  0  0  0  0  0
    5.5612   -1.1128    0.2093 C   0  0  0  0  0  0  0  0  0  0  0  0
    5.0910    0.2280   -0.3509 C   0  0  0  0  0  0  0  0  0  0  0  0
    4.8627    1.2916    0.7290 C   0  0  0  0  0  0  0  0  0  0  0  0
    3.7689    0.9655    1.6492 N   0  0  0  0  0  0  0  0  0  0  0  0
    2.4637    1.1141    1.1976 C   0  0  0  0  0  0  0  0  0  0  0  0
    2.1611    1.4920    0.0754 O   0  0  0  0  0  0  0  0  0  0  0  0
    1.4891    0.7441    2.2650 C   0  0  0  0  0  0  0  0  0  0  0  0
    0.1491    0.7183    2.2459 C   0  0  0  0  0  0  0  0  0  0  0  0
   -0.6998    1.0880    1.1694 C   0  0  0  0  0  0  0  0  0  0  0  0
   -0.6512    2.1323    0.2592 C   0  0  0  0  0  0  0  0  0  0  0  0
   -1.7881    2.0347   -0.5795 C   0  0  0  0  0  0  0  0  0  0  0  0
   -2.5239    0.9474   -0.1452 C   0  0  0  0  0  0  0  0  0  0  0  0
   -3.7657    0.4084   -0.6393 C   0  0  0  0  0  0  0  0  0  0  0  0
   -4.3458   -0.6308   -0.0770 N   0  0  0  0  0  0  0  0  0  0  0  0
   -5.5176   -0.9419   -0.7438 C   0  0  0  0  0  0  0  0  0  0  0  0
   -6.3979   -1.9944   -0.4210 C   0  0  0  0  0  0  0  0  0  0  0  0
   -7.5526   -2.1952   -1.1844 C   0  0  0  0  0  0  0  0  0  0  0  0
   -7.8385   -1.3621   -2.2614 C   0  0  0  0  0  0  0  0  0  0  0  0
   -6.9814   -0.3108   -2.6022 C   0  0  0  0  0  0  0  0  0  0  0  0
   -5.8247   -0.1190   -1.8282 C   0  0  0  0  0  0  0  0  0  0  0  0
   -4.5915    1.0693   -1.9924 S   0  0  0  0  0  0  0  0  0  0  0  0
   -1.8638    0.3972    0.9238 O   0  0  0  0  0  0  0  0  0  0  0  0
    2.3616    0.2536    3.6800 S   0  0  0  0  0  0  0  0  0  0  0  0
    3.9313    0.5396    2.9497 C   0  0  0  0  0  0  0  0  0  0  0  0
    5.3490    0.3006    3.7955 S   0  0  0  0  0  0  0  0  0  0  0  0
    6.2548   -3.8736   -1.2111 H   0  0  0  0  0  0  0  0  0  0  0  0
    6.4754   -0.9791    0.7968 H   0  0  0  0  0  0  0  0  0  0  0  0
    4.7809   -1.5445    0.8450 H   0  0  0  0  0  0  0  0  0  0  0  0
    5.8430    0.6110   -1.0525 H   0  0  0  0  0  0  0  0  0  0  0  0
    4.1763    0.0757   -0.9365 H   0  0  0  0  0  0  0  0  0  0  0  0
    5.7925    1.4708    1.2762 H   0  0  0  0  0  0  0  0  0  0  0  0
    4.6060    2.2363    0.2333 H   0  0  0  0  0  0  0  0  0  0  0  0
   -0.3805    0.3401    3.1185 H   0  0  0  0  0  0  0  0  0  0  0  0
    0.1208    2.8875    0.1991 H   0  0  0  0  0  0  0  0  0  0  0  0
   -2.0371    2.6922   -1.4008 H   0  0  0  0  0  0  0  0  0  0  0  0
   -6.1697   -2.6416    0.4202 H   0  0  0  0  0  0  0  0  0  0  0  0
   -8.2286   -3.0087   -0.9316 H   0  0  0  0  0  0  0  0  0  0  0  0
   -8.7401   -1.5294   -2.8472 H   0  0  0  0  0  0  0  0  0  0  0  0
   -7.2058    0.3382   -3.4431 H   0  0  0  0  0  0  0  0  0  0  0  0
  1  2  2  0
  2  3  1  0
  2  4  1  0
  4  5  1  0
  5  6  1  0
  6  7  1  0
  7  8  1  0
  8  9  2  0
  8 10  1  0
 10 11  2  3
 11 12  1  0
 12 13  2  0
 13 14  1  0
 14 15  2  0
 15 16  1  0
 16 17  2  0
 17 18  1  0
 18 19  2  0
 19 20  1  0
 20 21  2  0
 21 22  1  0
 22 23  2  0
 23 24  1  0
 15 25  1  0
 10 26  1  0
 26 27  1  0
 27 28  2  0
 27  7  1  0
 25 12  1  0
 24 16  1  0
 23 18  1  0
  3 29  1  0
  4 30  1  0
  4 31  1  0
  5 32  1  0
  5 33  1  0
  6 34  1  0
  6 35  1  0
 11 36  1  0
 13 37  1  0
 14 38  1  0
 19 39  1  0
 20 40  1  0
 21 41  1  0
 22 42  1  0
M  END
$$$$
