
     RDKit          3D

 59 62  0  0  0  0  0  0  0  0999 V2000
    4.0327    0.2661   -4.8520 C   0  0  0  0  0  0  0  0  0  0  0  0
    4.7473    0.8370   -3.7569 O   0  0  0  0  0  0  0  0  0  0  0  0
    4.3856    0.2871   -2.5535 C   0  0  0  0  0  0  0  0  0  0  0  0
    3.0664    0.3320   -2.0985 C   0  0  0  0  0  0  0  0  0  0  0  0
    2.7286   -0.2088   -0.8513 C   0  0  0  0  0  0  0  0  0  0  0  0
    1.3693   -0.1331   -0.4688 N   0  0  0  0  0  0  0  0  0  0  0  0
    0.7884   -0.6551    0.6735 C   0  0  0  0  0  0  0  0  0  0  0  0
    1.3404   -1.3104    1.5477 O   0  0  0  0  0  0  0  0  0  0  0  0
   -0.6653   -0.4043    0.8019 C   0  0  0  0  0  0  0  0  0  0  0  0
   -1.2482    0.8157    0.4332 C   0  0  0  0  0  0  0  0  0  0  0  0
   -2.6289    0.9880    0.5588 C   0  0  0  0  0  0  0  0  0  0  0  0
   -3.2921    2.2496    0.1681 C   0  0  0  0  0  0  0  0  0  0  0  0
   -2.7240    3.5069    0.4436 C   0  0  0  0  0  0  0  0  0  0  0  0
   -3.3610    4.6906    0.0570 C   0  0  0  0  0  0  0  0  0  0  0  0
   -4.5809    4.6414   -0.6104 C   0  0  0  0  0  0  0  0  0  0  0  0
   -5.1691    3.4106   -0.8866 C   0  0  0  0  0  0  0  0  0  0  0  0
   -4.5317    2.2292   -0.4967 C   0  0  0  0  0  0  0  0  0  0  0  0
   -3.4635    0.0250    1.0192 N   0  0  0  0  0  0  0  0  0  0  0  0
   -2.8565   -1.1174    1.3929 C   0  0  0  0  0  0  0  0  0  0  0  0
   -1.5020   -1.3991    1.3240 C   0  0  0  0  0  0  0  0  0  0  0  0
   -1.3907   -2.7123    1.8274 C   0  0  0  0  0  0  0  0  0  0  0  0
   -2.5695   -3.2355    2.1791 N   0  0  0  0  0  0  0  0  0  0  0  0
   -3.4505   -2.2403    1.9144 N   0  0  0  0  0  0  0  0  0  0  0  0
   -4.8666   -2.4504    2.1912 C   0  0  0  0  0  0  0  0  0  0  0  0
   -5.7171   -2.3768    0.9230 C   0  0  0  0  0  0  0  0  0  0  0  0
   -5.3835   -1.5047    3.2743 C   0  0  0  0  0  0  0  0  0  0  0  0
    3.7321   -0.7788   -0.0577 C   0  0  0  0  0  0  0  0  0  0  0  0
    5.0625   -0.8177   -0.4964 C   0  0  0  0  0  0  0  0  0  0  0  0
    6.1057   -1.3575    0.2127 O   0  0  0  0  0  0  0  0  0  0  0  0
    5.7860   -2.0791    1.3958 C   0  0  0  0  0  0  0  0  0  0  0  0
    5.3844   -0.2582   -1.7414 C   0  0  0  0  0  0  0  0  0  0  0  0
    6.6737   -0.3233   -2.2154 O   0  0  0  0  0  0  0  0  0  0  0  0
    7.3999    0.8317   -1.7970 C   0  0  0  0  0  0  0  0  0  0  0  0
    3.9215   -0.8203   -4.7520 H   0  0  0  0  0  0  0  0  0  0  0  0
    3.0530    0.7442   -4.9590 H   0  0  0  0  0  0  0  0  0  0  0  0
    4.6047    0.4639   -5.7638 H   0  0  0  0  0  0  0  0  0  0  0  0
    2.3094    0.8034   -2.7170 H   0  0  0  0  0  0  0  0  0  0  0  0
    0.7507    0.2855   -1.1519 H   0  0  0  0  0  0  0  0  0  0  0  0
   -0.6323    1.6265    0.0584 H   0  0  0  0  0  0  0  0  0  0  0  0
   -1.7850    3.5833    0.9883 H   0  0  0  0  0  0  0  0  0  0  0  0
   -2.9076    5.6518    0.2875 H   0  0  0  0  0  0  0  0  0  0  0  0
   -5.0784    5.5614   -0.9072 H   0  0  0  0  0  0  0  0  0  0  0  0
   -6.1257    3.3662   -1.4003 H   0  0  0  0  0  0  0  0  0  0  0  0
   -5.0116    1.2768   -0.7185 H   0  0  0  0  0  0  0  0  0  0  0  0
   -0.4945   -3.3090    1.9486 H   0  0  0  0  0  0  0  0  0  0  0  0
   -4.9490   -3.4738    2.5807 H   0  0  0  0  0  0  0  0  0  0  0  0
   -5.3287   -3.0538    0.1528 H   0  0  0  0  0  0  0  0  0  0  0  0
   -5.7366   -1.3668    0.5002 H   0  0  0  0  0  0  0  0  0  0  0  0
   -6.7516   -2.6670    1.1372 H   0  0  0  0  0  0  0  0  0  0  0  0
   -5.3811   -0.4616    2.9407 H   0  0  0  0  0  0  0  0  0  0  0  0
   -4.7646   -1.5672    4.1764 H   0  0  0  0  0  0  0  0  0  0  0  0
   -6.4108   -1.7634    3.5520 H   0  0  0  0  0  0  0  0  0  0  0  0
    3.4799   -1.1884    0.9116 H   0  0  0  0  0  0  0  0  0  0  0  0
    5.3915   -1.4112    2.1679 H   0  0  0  0  0  0  0  0  0  0  0  0
    6.7123   -2.5173    1.7793 H   0  0  0  0  0  0  0  0  0  0  0  0
    5.0928   -2.9003    1.1870 H   0  0  0  0  0  0  0  0  0  0  0  0
    6.9497    1.7504   -2.1895 H   0  0  0  0  0  0  0  0  0  0  0  0
    7.4771    0.8840   -0.7053 H   0  0  0  0  0  0  0  0  0  0  0  0
    8.4132    0.7543   -2.2031 H   0  0  0  0  0  0  0  0  0  0  0  0
  1  2  1  0
  2  3  1  0
  3  4  2  0
  4  5  1  0
  5  6  1  0
  6  7  1  0
  7  8  2  0
  7  9  1  0
  9 10  2  0
 10 11  1  0
 11 12  1  0
 12 13  2  0
 13 14  1  0
 14 15  2  0
 15 16  1  0
 16 17  2  0
 11 18  2  0
 18 19  1  0
 19 20  2  0
 20 21  1  0
 21 22  2  0
 22 23  1  0
 23 24  1  0
 24 25  1  0
 24 26  1  0
  5 27  2  0
 27 28  1  0
 28 29  1  0
 29 30  1  0
 28 31  2  0
 31 32  1  0
 32 33  1  0
 31  3  1  0
 20  9  1  0
 17 12  1  0
 23 19  1  0
  1 34  1  0
  1 35  1  0
  1 36  1  0
  4 37  1  0
  6 38  1  0
 10 39  1  0
 13 40  1  0
 14 41  1  0
 15 42  1  0
 16 43  1  0
 17 44  1  0
 21 45  1  0
 24 46  1  0
 25 47  1  0
 25 48  1  0
 25 49  1  0
 26 50  1  0
 26 51  1  0
 26 52  1  0
 27 53  1  0
 30 54  1  0
 30 55  1  0
 30 56  1  0
 33 57  1  0
 33 58  1  0
 33 59  1  0
M  END
$$$$
