
     RDKit          3D

 46 48  0  0  0  0  0  0  0  0999 V2000
   -3.9500    3.4696    0.4949 C   0  0  0  0  0  0  0  0  0  0  0  0
   -3.6309    2.0105    0.2893 C   0  0  0  0  0  0  0  0  0  0  0  0
   -4.6364    1.1205    0.4472 C   0  0  0  0  0  0  0  0  0  0  0  0
   -4.5524   -0.3359    0.2975 C   0  0  0  0  0  0  0  0  0  0  0  0
   -4.7209   -0.9254   -0.9597 C   0  0  0  0  0  0  0  0  0  0  0  0
   -4.6308   -2.3112   -1.1017 C   0  0  0  0  0  0  0  0  0  0  0  0
   -4.3722   -3.1112    0.0109 C   0  0  0  0  0  0  0  0  0  0  0  0
   -4.2044   -2.5277    1.2664 C   0  0  0  0  0  0  0  0  0  0  0  0
   -4.2946   -1.1421    1.4110 C   0  0  0  0  0  0  0  0  0  0  0  0
   -2.2659    1.5914   -0.0479 C   0  0  0  0  0  0  0  0  0  0  0  0
   -1.1479    2.2842   -0.3176 C   0  0  0  0  0  0  0  0  0  0  0  0
   -0.8806    3.9852   -0.3916 S   0  0  0  0  0  0  0  0  0  0  0  0
    0.8252    3.8237   -0.7951 C   0  0  0  0  0  0  0  0  0  0  0  0
    1.8356    5.1200   -1.0548 S   0  0  0  0  0  0  0  0  0  0  0  0
    1.1229    2.4832   -0.8787 N   0  0  0  0  0  0  0  0  0  0  0  0
    2.5304    1.9602   -1.0936 N   0  0  0  0  0  0  0  0  0  0  0  0
    3.3996    1.7691    0.3728 S   0  0  0  0  0  6  0  0  0  0  0  0
    4.5540    2.6379    0.3212 O   0  0  0  0  0  0  0  0  0  0  0  0
    2.4545    1.8290    1.4691 O   0  0  0  0  0  0  0  0  0  0  0  0
    3.9645    0.0937    0.2184 C   0  0  0  0  0  0  0  0  0  0  0  0
    5.2410   -0.1617   -0.2879 C   0  0  0  0  0  0  0  0  0  0  0  0
    5.6809   -1.4810   -0.4076 C   0  0  0  0  0  0  0  0  0  0  0  0
    4.8578   -2.5431   -0.0101 C   0  0  0  0  0  0  0  0  0  0  0  0
    5.3166   -3.9645   -0.1590 C   0  0  0  0  0  0  0  0  0  0  0  0
    3.5797   -2.2698    0.4970 C   0  0  0  0  0  0  0  0  0  0  0  0
    3.1332   -0.9536    0.6209 C   0  0  0  0  0  0  0  0  0  0  0  0
    0.1222    1.5627   -0.6288 C   0  0  0  0  0  0  0  0  0  0  0  0
    0.2606    0.3466   -0.6784 O   0  0  0  0  0  0  0  0  0  0  0  0
   -4.9908    3.6249    0.8033 H   0  0  0  0  0  0  0  0  0  0  0  0
   -3.8155    4.0335   -0.4334 H   0  0  0  0  0  0  0  0  0  0  0  0
   -3.3278    3.8982    1.2871 H   0  0  0  0  0  0  0  0  0  0  0  0
   -5.6364    1.4632    0.7092 H   0  0  0  0  0  0  0  0  0  0  0  0
   -4.9202   -0.3097   -1.8335 H   0  0  0  0  0  0  0  0  0  0  0  0
   -4.7618   -2.7666   -2.0797 H   0  0  0  0  0  0  0  0  0  0  0  0
   -4.3014   -4.1902   -0.1003 H   0  0  0  0  0  0  0  0  0  0  0  0
   -4.0022   -3.1518    2.1333 H   0  0  0  0  0  0  0  0  0  0  0  0
   -4.1587   -0.6967    2.3936 H   0  0  0  0  0  0  0  0  0  0  0  0
   -2.1479    0.5049   -0.0809 H   0  0  0  0  0  0  0  0  0  0  0  0
    2.5275    1.0847   -1.6279 H   0  0  0  0  0  0  0  0  0  0  0  0
    5.8977    0.6528   -0.5881 H   0  0  0  0  0  0  0  0  0  0  0  0
    6.6744   -1.6757   -0.8074 H   0  0  0  0  0  0  0  0  0  0  0  0
    4.8470   -4.4191   -1.0370 H   0  0  0  0  0  0  0  0  0  0  0  0
    5.0541   -4.5469    0.7307 H   0  0  0  0  0  0  0  0  0  0  0  0
    6.4039   -4.0213   -0.2775 H   0  0  0  0  0  0  0  0  0  0  0  0
    2.9254   -3.0845    0.8019 H   0  0  0  0  0  0  0  0  0  0  0  0
    2.1412   -0.7599    1.0240 H   0  0  0  0  0  0  0  0  0  0  0  0
  1  2  1  0
  2  3  2  3
  3  4  1  0
  4  5  2  0
  5  6  1  0
  6  7  2  0
  7  8  1  0
  8  9  2  0
  2 10  1  0
 10 11  2  3
 11 12  1  0
 12 13  1  0
 13 14  2  0
 13 15  1  0
 15 16  1  0
 16 17  1  0
 17 18  2  0
 17 19  2  0
 17 20  1  0
 20 21  2  0
 21 22  1  0
 22 23  2  0
 23 24  1  0
 23 25  1  0
 25 26  2  0
 15 27  1  0
 27 28  2  0
  9  4  1  0
 27 11  1  0
 26 20  1  0
  1 29  1  0
  1 30  1  0
  1 31  1  0
  3 32  1  0
  5 33  1  0
  6 34  1  0
  7 35  1  0
  8 36  1  0
  9 37  1  0
 10 38  1  0
 16 39  1  0
 21 40  1  0
 22 41  1  0
 24 42  1  0
 24 43  1  0
 24 44  1  0
 25 45  1  0
 26 46  1  0
M  END
$$$$
