
     RDKit          3D

 49 51  0  0  0  0  0  0  0  0999 V2000
    0.9297    1.3753   -3.7004 N   0  0  0  0  0  0  0  0  0  0  0  0
    1.6928    1.2483   -2.6001 C   0  0  0  0  0  0  0  0  0  0  0  0
    2.9911    1.2330   -2.6439 N   0  0  0  0  0  0  0  0  0  0  0  0
    3.4066    1.1326   -1.2126 C   0  0  0  0  0  0  0  0  0  0  0  0
    2.1203    0.9567   -0.3682 C   0  0  0  0  0  0  0  0  0  0  0  0
    2.0458   -0.4225    0.3051 C   0  0  0  0  0  0  0  0  0  0  0  0
    3.0516   -0.6019    1.4191 C   0  0  0  0  0  0  0  0  0  0  0  0
    2.9142    0.1034    2.6240 C   0  0  0  0  0  0  0  0  0  0  0  0
    3.8492   -0.0580    3.6472 C   0  0  0  0  0  0  0  0  0  0  0  0
    4.9187   -0.9269    3.4731 C   0  0  0  0  0  0  0  0  0  0  0  0
    5.8085   -1.0523    4.4982 O   0  0  0  0  0  0  0  0  0  0  0  0
    5.0694   -1.6423    2.2904 C   0  0  0  0  0  0  0  0  0  0  0  0
    4.1347   -1.4798    1.2651 C   0  0  0  0  0  0  0  0  0  0  0  0
    1.0954    1.1270   -1.3926 N   0  0  0  0  0  0  0  0  0  0  0  0
   -0.3177    1.1021   -1.0773 C   0  0  0  0  0  0  0  0  0  0  0  0
   -0.9734   -0.2142   -1.5150 C   0  0  0  0  0  0  0  0  0  0  0  0
   -2.4410   -0.2537   -1.1565 C   0  0  0  0  0  0  0  0  0  0  0  0
   -2.8521   -0.6986    0.1075 C   0  0  0  0  0  0  0  0  0  0  0  0
   -4.2118   -0.7318    0.4536 C   0  0  0  0  0  0  0  0  0  0  0  0
   -4.6549   -1.2037    1.8193 C   0  0  0  0  0  0  0  0  0  0  0  0
   -5.7213   -2.0483    1.7622 F   0  0  0  0  0  0  0  0  0  0  0  0
   -3.6849   -1.8715    2.5039 F   0  0  0  0  0  0  0  0  0  0  0  0
   -5.0353   -0.1708    2.6206 F   0  0  0  0  0  0  0  0  0  0  0  0
   -5.1625   -0.2942   -0.4835 C   0  0  0  0  0  0  0  0  0  0  0  0
   -4.7713    0.1669   -1.7508 C   0  0  0  0  0  0  0  0  0  0  0  0
   -5.8025    0.6093   -2.7635 C   0  0  0  0  0  0  0  0  0  0  0  0
   -6.2029   -0.4091   -3.5723 F   0  0  0  0  0  0  0  0  0  0  0  0
   -6.9350    1.1026   -2.1895 F   0  0  0  0  0  0  0  0  0  0  0  0
   -5.3477    1.5914   -3.5907 F   0  0  0  0  0  0  0  0  0  0  0  0
   -3.4062    0.1759   -2.0773 C   0  0  0  0  0  0  0  0  0  0  0  0
    0.2224    2.0912   -3.6074 H   0  0  0  0  0  0  0  0  0  0  0  0
    1.5231    1.5747   -4.5005 H   0  0  0  0  0  0  0  0  0  0  0  0
    3.9239    2.0572   -0.9330 H   0  0  0  0  0  0  0  0  0  0  0  0
    4.1120    0.3037   -1.1031 H   0  0  0  0  0  0  0  0  0  0  0  0
    2.0477    1.7615    0.3734 H   0  0  0  0  0  0  0  0  0  0  0  0
    2.1630   -1.2166   -0.4439 H   0  0  0  0  0  0  0  0  0  0  0  0
    1.0502   -0.5782    0.7400 H   0  0  0  0  0  0  0  0  0  0  0  0
    2.0790    0.7824    2.7776 H   0  0  0  0  0  0  0  0  0  0  0  0
    3.7431    0.4911    4.5783 H   0  0  0  0  0  0  0  0  0  0  0  0
    6.4980   -1.6833    4.2340 H   0  0  0  0  0  0  0  0  0  0  0  0
    5.9001   -2.3252    2.1472 H   0  0  0  0  0  0  0  0  0  0  0  0
    4.2606   -2.0412    0.3417 H   0  0  0  0  0  0  0  0  0  0  0  0
   -0.4598    1.2486    0.0008 H   0  0  0  0  0  0  0  0  0  0  0  0
   -0.8176    1.9524   -1.5573 H   0  0  0  0  0  0  0  0  0  0  0  0
   -0.8620   -0.3651   -2.5957 H   0  0  0  0  0  0  0  0  0  0  0  0
   -0.4683   -1.0707   -1.0518 H   0  0  0  0  0  0  0  0  0  0  0  0
   -2.1061   -1.0328    0.8297 H   0  0  0  0  0  0  0  0  0  0  0  0
   -6.2223   -0.3153   -0.2217 H   0  0  0  0  0  0  0  0  0  0  0  0
   -3.0948    0.5209   -3.0643 H   0  0  0  0  0  0  0  0  0  0  0  0
  1  2  1  0
  2  3  2  0
  3  4  1  0
  4  5  1  0
  5  6  1  0
  6  7  1  0
  7  8  2  0
  8  9  1  0
  9 10  2  0
 10 11  1  0
 10 12  1  0
 12 13  2  0
  5 14  1  0
 14 15  1  0
 15 16  1  0
 16 17  1  0
 17 18  2  0
 18 19  1  0
 19 20  1  0
 20 21  1  0
 20 22  1  0
 20 23  1  0
 19 24  2  0
 24 25  1  0
 25 26  1  0
 26 27  1  0
 26 28  1  0
 26 29  1  0
 25 30  2  0
 14  2  1  0
 30 17  1  0
 13  7  1  0
  1 31  1  0
  1 32  1  0
  4 33  1  0
  4 34  1  0
  5 35  1  0
  6 36  1  0
  6 37  1  0
  8 38  1  0
  9 39  1  0
 11 40  1  0
 12 41  1  0
 13 42  1  0
 15 43  1  0
 15 44  1  0
 16 45  1  0
 16 46  1  0
 18 47  1  0
 24 48  1  0
 30 49  1  0
M  END
$$$$
