
     RDKit          3D

 48 50  0  0  0  0  0  0  0  0999 V2000
    2.6388    0.3514    1.9593 C   0  0  0  0  0  0  0  0  0  0  0  0
    1.3731    0.4528    1.5255 C   0  0  0  0  0  0  0  0  0  0  0  0
    0.3018    1.2243    2.1580 C   0  0  0  0  0  0  0  0  0  0  0  0
    0.2596    1.9651    3.4268 C   0  0  0  0  0  0  0  0  0  0  0  0
   -0.6559    2.7345    3.7040 O   0  0  0  0  0  0  0  0  0  0  0  0
    1.2938    1.6633    4.2450 O   0  0  0  0  0  0  0  0  0  0  0  0
    1.2661    2.3410    5.5021 C   0  0  0  0  0  0  0  0  0  0  0  0
   -0.7826    1.1778    1.3591 C   0  0  0  0  0  0  0  0  0  0  0  0
   -1.9997    1.7693    1.5526 O   0  0  0  0  0  0  0  0  0  0  0  0
   -0.5125    0.3447    0.1875 C   0  0  0  0  0  0  0  0  0  0  0  0
   -1.3710    0.0200   -0.7987 C   0  0  0  0  0  0  0  0  0  0  0  0
   -2.7584    0.4633   -0.9490 C   0  0  0  0  0  0  0  0  0  0  0  0
   -3.8055   -0.3469   -0.4934 C   0  0  0  0  0  0  0  0  0  0  0  0
   -5.1321    0.0623   -0.6503 C   0  0  0  0  0  0  0  0  0  0  0  0
   -5.4033    1.2809   -1.2659 C   0  0  0  0  0  0  0  0  0  0  0  0
   -6.6835    1.7183   -1.4395 O   0  0  0  0  0  0  0  0  0  0  0  0
   -4.3732    2.0940   -1.7245 C   0  0  0  0  0  0  0  0  0  0  0  0
   -3.0477    1.6857   -1.5662 C   0  0  0  0  0  0  0  0  0  0  0  0
    0.8209   -0.0831    0.3460 N   0  0  0  0  0  0  0  0  0  0  0  0
    1.5345   -0.8770   -0.5912 C   0  0  0  0  0  0  0  0  0  0  0  0
    2.0814   -2.1126   -0.2123 C   0  0  0  0  0  0  0  0  0  0  0  0
    2.7865   -2.9060   -1.1272 C   0  0  0  0  0  0  0  0  0  0  0  0
    3.3929   -4.2068   -0.6913 C   0  0  0  0  0  0  0  0  0  0  0  0
    2.9641   -2.4425   -2.4362 C   0  0  0  0  0  0  0  0  0  0  0  0
    2.4165   -1.2204   -2.8441 C   0  0  0  0  0  0  0  0  0  0  0  0
    2.6335   -0.7164   -4.2402 C   0  0  0  0  0  0  0  0  0  0  0  0
    1.7144   -0.4429   -1.9137 C   0  0  0  0  0  0  0  0  0  0  0  0
    2.9986    0.8289    2.8614 H   0  0  0  0  0  0  0  0  0  0  0  0
    3.3826   -0.2053    1.3991 H   0  0  0  0  0  0  0  0  0  0  0  0
    1.3157    3.4243    5.3548 H   0  0  0  0  0  0  0  0  0  0  0  0
    2.1443    2.0292    6.0742 H   0  0  0  0  0  0  0  0  0  0  0  0
    0.3694    2.0658    6.0661 H   0  0  0  0  0  0  0  0  0  0  0  0
   -1.9442    2.3221    2.3597 H   0  0  0  0  0  0  0  0  0  0  0  0
   -1.0543   -0.6532   -1.5905 H   0  0  0  0  0  0  0  0  0  0  0  0
   -3.5908   -1.2959   -0.0084 H   0  0  0  0  0  0  0  0  0  0  0  0
   -5.9299   -0.5768   -0.2873 H   0  0  0  0  0  0  0  0  0  0  0  0
   -7.2854    1.0678   -1.0432 H   0  0  0  0  0  0  0  0  0  0  0  0
   -4.5994    3.0442   -2.1986 H   0  0  0  0  0  0  0  0  0  0  0  0
   -2.2447    2.3279   -1.9180 H   0  0  0  0  0  0  0  0  0  0  0  0
    1.9422   -2.4628    0.8083 H   0  0  0  0  0  0  0  0  0  0  0  0
    3.4623   -4.9071   -1.5305 H   0  0  0  0  0  0  0  0  0  0  0  0
    2.7787   -4.6846    0.0794 H   0  0  0  0  0  0  0  0  0  0  0  0
    4.3964   -4.0357   -0.2896 H   0  0  0  0  0  0  0  0  0  0  0  0
    3.5323   -3.0408   -3.1463 H   0  0  0  0  0  0  0  0  0  0  0  0
    2.7396   -1.5480   -4.9446 H   0  0  0  0  0  0  0  0  0  0  0  0
    1.7811   -0.1155   -4.5742 H   0  0  0  0  0  0  0  0  0  0  0  0
    3.5383   -0.1021   -4.2798 H   0  0  0  0  0  0  0  0  0  0  0  0
    1.3144    0.5235   -2.2140 H   0  0  0  0  0  0  0  0  0  0  0  0
  1  2  2  0
  2  3  1  0
  3  4  1  0
  4  5  2  0
  4  6  1  0
  6  7  1  0
  3  8  2  0
  8  9  1  0
  8 10  1  0
 10 11  2  3
 11 12  1  0
 12 13  2  0
 13 14  1  0
 14 15  2  0
 15 16  1  0
 15 17  1  0
 17 18  2  0
 10 19  1  0
 19 20  1  0
 20 21  2  0
 21 22  1  0
 22 23  1  0
 22 24  2  0
 24 25  1  0
 25 26  1  0
 25 27  2  0
 19  2  1  0
 27 20  1  0
 18 12  1  0
  1 28  1  0
  1 29  1  0
  7 30  1  0
  7 31  1  0
  7 32  1  0
  9 33  1  0
 11 34  1  0
 13 35  1  0
 14 36  1  0
 16 37  1  0
 17 38  1  0
 18 39  1  0
 21 40  1  0
 23 41  1  0
 23 42  1  0
 23 43  1  0
 24 44  1  0
 26 45  1  0
 26 46  1  0
 26 47  1  0
 27 48  1  0
M  END
$$$$
