
     RDKit          3D

 44 45  0  0  0  0  0  0  0  0999 V2000
   -1.0384   -1.0495   -2.0652 C   0  0  0  0  0  0  0  0  0  0  0  0
   -1.4766    0.1959   -1.5176 O   0  0  0  0  0  0  0  0  0  0  0  0
   -2.3826   -0.0106   -0.5107 C   0  0  0  0  0  0  0  0  0  0  0  0
   -3.7097   -0.2780   -0.8612 C   0  0  0  0  0  0  0  0  0  0  0  0
   -4.6873   -0.4099    0.1291 C   0  0  0  0  0  0  0  0  0  0  0  0
   -6.0097   -0.6811   -0.1178 O   0  0  0  0  0  0  0  0  0  0  0  0
   -6.4127   -0.8483   -1.4702 C   0  0  0  0  0  0  0  0  0  0  0  0
   -4.3328   -0.2503    1.4852 C   0  0  0  0  0  0  0  0  0  0  0  0
   -5.3539   -0.3932    2.3908 O   0  0  0  0  0  0  0  0  0  0  0  0
   -5.0519   -0.2694    3.7725 C   0  0  0  0  0  0  0  0  0  0  0  0
   -3.0077    0.0429    1.8284 C   0  0  0  0  0  0  0  0  0  0  0  0
   -2.0297    0.1608    0.8313 C   0  0  0  0  0  0  0  0  0  0  0  0
   -0.6531    0.4751    1.2741 C   0  0  0  0  0  0  0  0  0  0  0  0
    0.3936    0.2049    0.5604 N   0  0  0  0  0  0  0  0  0  0  0  0
    1.5995    0.5637    1.0745 N   0  0  0  0  0  0  0  0  0  0  0  0
    2.7387    0.2689    0.3361 C   0  0  0  0  0  0  0  0  0  0  0  0
    2.7641   -0.3777   -0.7096 O   0  0  0  0  0  0  0  0  0  0  0  0
    4.0107    0.8188    0.9383 C   0  0  0  0  0  0  0  0  0  0  0  0
    5.1357    0.6666   -0.0133 N   0  0  0  0  0  4  0  0  0  0  0  0
    5.3839    1.6409   -0.9203 C   0  0  0  0  0  0  0  0  0  0  0  0
    6.4273    1.5130   -1.8298 C   0  0  0  0  0  0  0  0  0  0  0  0
    7.2089    0.3657   -1.8133 C   0  0  0  0  0  0  0  0  0  0  0  0
    6.9266   -0.6371   -0.8955 C   0  0  0  0  0  0  0  0  0  0  0  0
    5.8739   -0.4689   -0.0035 C   0  0  0  0  0  0  0  0  0  0  0  0
   -1.8230   -1.4968   -2.6842 H   0  0  0  0  0  0  0  0  0  0  0  0
   -0.7263   -1.7515   -1.2835 H   0  0  0  0  0  0  0  0  0  0  0  0
   -0.1744   -0.8481   -2.7054 H   0  0  0  0  0  0  0  0  0  0  0  0
   -3.9547   -0.3603   -1.9146 H   0  0  0  0  0  0  0  0  0  0  0  0
   -6.2561    0.0706   -2.0446 H   0  0  0  0  0  0  0  0  0  0  0  0
   -7.4853   -1.0648   -1.4753 H   0  0  0  0  0  0  0  0  0  0  0  0
   -5.8996   -1.6976   -1.9331 H   0  0  0  0  0  0  0  0  0  0  0  0
   -4.3352   -1.0339    4.0897 H   0  0  0  0  0  0  0  0  0  0  0  0
   -4.6878    0.7360    4.0074 H   0  0  0  0  0  0  0  0  0  0  0  0
   -5.9777   -0.4277    4.3338 H   0  0  0  0  0  0  0  0  0  0  0  0
   -2.7220    0.1733    2.8662 H   0  0  0  0  0  0  0  0  0  0  0  0
   -0.5585    0.9337    2.2753 H   0  0  0  0  0  0  0  0  0  0  0  0
    1.6130    1.0968    1.9388 H   0  0  0  0  0  0  0  0  0  0  0  0
    4.2592    0.2769    1.8563 H   0  0  0  0  0  0  0  0  0  0  0  0
    3.9020    1.8836    1.1684 H   0  0  0  0  0  0  0  0  0  0  0  0
    4.7384    2.5147   -0.9170 H   0  0  0  0  0  0  0  0  0  0  0  0
    6.6226    2.2985   -2.5568 H   0  0  0  0  0  0  0  0  0  0  0  0
    8.0249    0.2459   -2.5249 H   0  0  0  0  0  0  0  0  0  0  0  0
    7.5158   -1.5516   -0.8845 H   0  0  0  0  0  0  0  0  0  0  0  0
    5.6081   -1.2409    0.7130 H   0  0  0  0  0  0  0  0  0  0  0  0
  1  2  1  0
  2  3  1  0
  3  4  2  0
  4  5  1  0
  5  6  1  0
  6  7  1  0
  5  8  2  0
  8  9  1  0
  9 10  1  0
  8 11  1  0
 11 12  2  0
 12 13  1  0
 13 14  2  3
 14 15  1  0
 15 16  1  0
 16 17  2  0
 16 18  1  0
 18 19  1  0
 19 20  2  0
 20 21  1  0
 21 22  2  0
 22 23  1  0
 23 24  2  0
 12  3  1  0
 24 19  1  0
  1 25  1  0
  1 26  1  0
  1 27  1  0
  4 28  1  0
  7 29  1  0
  7 30  1  0
  7 31  1  0
 10 32  1  0
 10 33  1  0
 10 34  1  0
 11 35  1  0
 13 36  1  0
 15 37  1  0
 18 38  1  0
 18 39  1  0
 20 40  1  0
 21 41  1  0
 22 42  1  0
 23 43  1  0
 24 44  1  0
M  CHG  1  19   1
M  END
$$$$
