
     RDKit          3D

 57 60  0  0  0  0  0  0  0  0999 V2000
    8.5936   -4.6344   -0.3689 C   0  0  0  0  0  0  0  0  0  0  0  0
    7.2260   -4.7942   -0.0156 O   0  0  0  0  0  0  0  0  0  0  0  0
    6.4543   -3.6648    0.0006 C   0  0  0  0  0  0  0  0  0  0  0  0
    6.8759   -2.3775   -0.3277 C   0  0  0  0  0  0  0  0  0  0  0  0
    5.9775   -1.3051   -0.2700 C   0  0  0  0  0  0  0  0  0  0  0  0
    4.6470   -1.5051    0.1219 C   0  0  0  0  0  0  0  0  0  0  0  0
    3.6808   -0.3476    0.1766 C   0  0  0  0  0  0  0  0  0  0  0  0
    2.6995   -0.3284   -0.9731 C   0  0  0  0  0  0  0  0  0  0  0  0
    2.0662   -1.2884   -1.3942 O   0  0  0  0  0  0  0  0  0  0  0  0
    2.5426    0.9339   -1.4605 O   0  0  0  0  0  0  0  0  0  0  0  0
    1.6878    1.0467   -2.6016 C   0  0  0  0  0  0  0  0  0  0  0  0
    0.2007    1.1486   -2.2581 C   0  0  0  0  0  0  0  0  0  0  0  0
   -0.4650    2.1435   -2.5505 O   0  0  0  0  0  0  0  0  0  0  0  0
   -0.3463    0.0034   -1.7137 N   0  0  0  0  0  0  0  0  0  0  0  0
   -1.2931    0.0491   -0.7254 C   0  0  0  0  0  0  0  0  0  0  0  0
   -1.1929   -0.6926    0.2458 O   0  0  0  0  0  0  0  0  0  0  0  0
   -2.2880    0.9637   -0.9148 N   0  0  0  0  0  0  0  0  0  0  0  0
   -3.3526    1.2769    0.0405 C   0  0  0  0  0  0  0  0  0  0  0  0
   -2.7811    1.8959    1.3392 C   0  0  0  0  0  0  0  0  0  0  0  0
   -3.9196    2.2671    2.3064 C   0  0  0  0  0  0  0  0  0  0  0  0
   -4.7266    1.0030    2.6483 C   0  0  0  0  0  0  0  0  0  0  0  0
   -5.3315    0.3997    1.3693 C   0  0  0  0  0  0  0  0  0  0  0  0
   -6.2501    1.4351    0.7024 C   0  0  0  0  0  0  0  0  0  0  0  0
   -5.4456    2.6962    0.3493 C   0  0  0  0  0  0  0  0  0  0  0  0
   -4.8467    3.2923    1.6329 C   0  0  0  0  0  0  0  0  0  0  0  0
   -4.3055    2.3168   -0.6100 C   0  0  0  0  0  0  0  0  0  0  0  0
   -4.1958    0.0271    0.3997 C   0  0  0  0  0  0  0  0  0  0  0  0
    4.2303   -2.8009    0.4468 C   0  0  0  0  0  0  0  0  0  0  0  0
    5.1281   -3.8690    0.3838 C   0  0  0  0  0  0  0  0  0  0  0  0
    8.6957   -4.2684   -1.3958 H   0  0  0  0  0  0  0  0  0  0  0  0
    9.0710   -5.6184   -0.3188 H   0  0  0  0  0  0  0  0  0  0  0  0
    9.1115   -3.9770    0.3386 H   0  0  0  0  0  0  0  0  0  0  0  0
    7.8956   -2.1713   -0.6366 H   0  0  0  0  0  0  0  0  0  0  0  0
    6.3324   -0.3105   -0.5333 H   0  0  0  0  0  0  0  0  0  0  0  0
    3.1111   -0.3728    1.1138 H   0  0  0  0  0  0  0  0  0  0  0  0
    4.2435    0.5942    0.1843 H   0  0  0  0  0  0  0  0  0  0  0  0
    1.9740    1.9685   -3.1196 H   0  0  0  0  0  0  0  0  0  0  0  0
    1.8500    0.2263   -3.3119 H   0  0  0  0  0  0  0  0  0  0  0  0
    0.3210   -0.7393   -1.5108 H   0  0  0  0  0  0  0  0  0  0  0  0
   -2.0906    1.6547   -1.6371 H   0  0  0  0  0  0  0  0  0  0  0  0
   -2.0973    1.1969    1.8358 H   0  0  0  0  0  0  0  0  0  0  0  0
   -2.1894    2.7902    1.1001 H   0  0  0  0  0  0  0  0  0  0  0  0
   -3.4996    2.6964    3.2230 H   0  0  0  0  0  0  0  0  0  0  0  0
   -4.0791    0.2672    3.1408 H   0  0  0  0  0  0  0  0  0  0  0  0
   -5.5257    1.2500    3.3586 H   0  0  0  0  0  0  0  0  0  0  0  0
   -5.9079   -0.4975    1.6230 H   0  0  0  0  0  0  0  0  0  0  0  0
   -7.0764    1.6923    1.3770 H   0  0  0  0  0  0  0  0  0  0  0  0
   -6.6994    1.0085   -0.2036 H   0  0  0  0  0  0  0  0  0  0  0  0
   -6.1030    3.4308   -0.1293 H   0  0  0  0  0  0  0  0  0  0  0  0
   -4.2873    4.2062    1.3961 H   0  0  0  0  0  0  0  0  0  0  0  0
   -5.6498    3.5810    2.3223 H   0  0  0  0  0  0  0  0  0  0  0  0
   -3.7456    3.2192   -0.8912 H   0  0  0  0  0  0  0  0  0  0  0  0
   -4.7235    1.9140   -1.5423 H   0  0  0  0  0  0  0  0  0  0  0  0
   -3.5762   -0.7483    0.8643 H   0  0  0  0  0  0  0  0  0  0  0  0
   -4.6140   -0.4197   -0.5119 H   0  0  0  0  0  0  0  0  0  0  0  0
    3.2004   -2.9934    0.7432 H   0  0  0  0  0  0  0  0  0  0  0  0
    4.7886   -4.8709    0.6333 H   0  0  0  0  0  0  0  0  0  0  0  0
  1  2  1  0
  2  3  1  0
  3  4  2  0
  4  5  1  0
  5  6  2  0
  6  7  1  0
  7  8  1  0
  8  9  2  0
  8 10  1  0
 10 11  1  0
 11 12  1  0
 12 13  2  0
 12 14  1  0
 14 15  1  0
 15 16  2  0
 15 17  1  0
 17 18  1  0
 18 19  1  0
 19 20  1  0
 20 21  1  0
 21 22  1  0
 22 23  1  0
 23 24  1  0
 24 25  1  0
 24 26  1  0
 22 27  1  0
  6 28  1  0
 28 29  2  0
 29  3  1  0
 26 18  1  0
 27 18  1  0
 25 20  1  0
  1 30  1  0
  1 31  1  0
  1 32  1  0
  4 33  1  0
  5 34  1  0
  7 35  1  0
  7 36  1  0
 11 37  1  0
 11 38  1  0
 14 39  1  0
 17 40  1  0
 19 41  1  0
 19 42  1  0
 20 43  1  0
 21 44  1  0
 21 45  1  0
 22 46  1  0
 23 47  1  0
 23 48  1  0
 24 49  1  0
 25 50  1  0
 25 51  1  0
 26 52  1  0
 26 53  1  0
 27 54  1  0
 27 55  1  0
 28 56  1  0
 29 57  1  0
M  END
$$$$
