
     RDKit          3D

 80 84  0  0  0  0  0  0  0  0999 V2000
    0.6347    2.8127   -2.1195 C   0  0  0  0  0  0  0  0  0  0  0  0
   -0.0037    1.5599   -1.8516 O   0  0  0  0  0  0  0  0  0  0  0  0
    0.8027    0.7186   -1.1295 C   0  0  0  0  0  0  0  0  0  0  0  0
    2.0083    0.2753   -1.6838 C   0  0  0  0  0  0  0  0  0  0  0  0
    2.8480   -0.5971   -0.9804 C   0  0  0  0  0  0  0  0  0  0  0  0
    4.0130   -1.0777   -1.5185 O   0  0  0  0  0  0  0  0  0  0  0  0
    4.6660   -0.2691   -2.4907 C   0  0  0  0  0  0  0  0  0  0  0  0
    2.4701   -1.0613    0.2951 C   0  0  0  0  0  0  0  0  0  0  0  0
    3.3038   -1.9545    1.1378 C   0  0  0  0  0  0  0  0  0  0  0  0
    4.6762   -2.4267    0.8563 C   0  0  0  0  0  0  0  0  0  0  0  0
    4.8917   -3.6876    0.2859 C   0  0  0  0  0  0  0  0  0  0  0  0
    6.1912   -4.1392    0.0482 C   0  0  0  0  0  0  0  0  0  0  0  0
    7.2813   -3.3367    0.3833 C   0  0  0  0  0  0  0  0  0  0  0  0
    7.0755   -2.0794    0.9499 C   0  0  0  0  0  0  0  0  0  0  0  0
    5.7772   -1.6246    1.1883 C   0  0  0  0  0  0  0  0  0  0  0  0
    2.8196   -2.3697    2.3194 C   0  0  0  0  0  0  0  0  0  0  0  0
    1.5056   -1.9864    2.8335 C   0  0  0  0  0  0  0  0  0  0  0  0
    1.0964   -2.4132    3.9063 O   0  0  0  0  0  0  0  0  0  0  0  0
    0.7743   -1.1135    2.0552 O   0  0  0  0  0  0  0  0  0  0  0  0
    1.2276   -0.6377    0.8000 C   0  0  0  0  0  0  0  0  0  0  0  0
    0.3659    0.2466    0.1142 C   0  0  0  0  0  0  0  0  0  0  0  0
   -0.9773    0.6659    0.7243 C   0  0  0  0  0  0  0  0  0  0  0  0
   -2.1901    0.1960   -0.1237 C   0  0  0  0  0  0  0  0  0  0  0  0
   -2.2468   -1.3338   -0.2758 C   0  0  0  0  0  0  0  0  0  0  0  0
   -3.4805   -1.8008   -0.9416 N   0  0  0  0  0  0  0  0  0  0  0  0
   -3.4987   -1.4413   -2.3694 C   0  0  0  0  0  0  0  0  0  0  0  0
   -4.7858   -1.9126   -3.0489 C   0  0  0  0  0  0  0  0  0  0  0  0
   -4.9875   -3.4128   -2.8801 C   0  0  0  0  0  0  0  0  0  0  0  0
   -4.9061   -3.7960   -1.4000 C   0  0  0  0  0  0  0  0  0  0  0  0
   -5.0048   -5.3107   -1.2300 C   0  0  0  0  0  0  0  0  0  0  0  0
   -3.6078   -3.2610   -0.7746 C   0  0  0  0  0  0  0  0  0  0  0  0
   -0.9889    2.1478    1.1095 C   0  0  0  0  0  0  0  0  0  0  0  0
   -0.1717    2.5889    2.1568 C   0  0  0  0  0  0  0  0  0  0  0  0
   -0.1393    3.9403    2.5343 C   0  0  0  0  0  0  0  0  0  0  0  0
   -0.9257    4.9177    1.9034 C   0  0  0  0  0  0  0  0  0  0  0  0
   -0.8728    6.2689    2.2733 N   0  0  0  0  0  0  0  0  0  0  0  0
   -0.3542    6.6058    3.5985 C   0  0  0  0  0  0  0  0  0  0  0  0
   -1.8853    7.1841    1.7478 C   0  0  0  0  0  0  0  0  0  0  0  0
   -1.7304    4.4569    0.8484 C   0  0  0  0  0  0  0  0  0  0  0  0
   -1.7692    3.1065    0.4605 C   0  0  0  0  0  0  0  0  0  0  0  0
    1.1583    3.2024   -1.2383 H   0  0  0  0  0  0  0  0  0  0  0  0
   -0.1431    3.5304   -2.3952 H   0  0  0  0  0  0  0  0  0  0  0  0
    1.3226    2.7215   -2.9677 H   0  0  0  0  0  0  0  0  0  0  0  0
    2.2589    0.5962   -2.6886 H   0  0  0  0  0  0  0  0  0  0  0  0
    4.1505   -0.3235   -3.4534 H   0  0  0  0  0  0  0  0  0  0  0  0
    4.7617    0.7665   -2.1511 H   0  0  0  0  0  0  0  0  0  0  0  0
    5.6741   -0.6677   -2.6335 H   0  0  0  0  0  0  0  0  0  0  0  0
    4.0490   -4.3190    0.0151 H   0  0  0  0  0  0  0  0  0  0  0  0
    6.3526   -5.1170   -0.3973 H   0  0  0  0  0  0  0  0  0  0  0  0
    8.2922   -3.6916    0.1994 H   0  0  0  0  0  0  0  0  0  0  0  0
    7.9263   -1.4547    1.2113 H   0  0  0  0  0  0  0  0  0  0  0  0
    5.6281   -0.6430    1.6300 H   0  0  0  0  0  0  0  0  0  0  0  0
    3.3847   -3.0153    2.9849 H   0  0  0  0  0  0  0  0  0  0  0  0
   -1.1126    0.1497    1.6844 H   0  0  0  0  0  0  0  0  0  0  0  0
   -2.1749    0.6689   -1.1096 H   0  0  0  0  0  0  0  0  0  0  0  0
   -3.1151    0.5288    0.3668 H   0  0  0  0  0  0  0  0  0  0  0  0
   -1.3662   -1.7051   -0.8140 H   0  0  0  0  0  0  0  0  0  0  0  0
   -2.2075   -1.7621    0.7342 H   0  0  0  0  0  0  0  0  0  0  0  0
   -2.6312   -1.8696   -2.8896 H   0  0  0  0  0  0  0  0  0  0  0  0
   -3.4498   -0.3545   -2.4952 H   0  0  0  0  0  0  0  0  0  0  0  0
   -5.6449   -1.3781   -2.6233 H   0  0  0  0  0  0  0  0  0  0  0  0
   -4.7514   -1.6629   -4.1158 H   0  0  0  0  0  0  0  0  0  0  0  0
   -5.9584   -3.7045   -3.2970 H   0  0  0  0  0  0  0  0  0  0  0  0
   -4.2198   -3.9491   -3.4518 H   0  0  0  0  0  0  0  0  0  0  0  0
   -5.7573   -3.3420   -0.8756 H   0  0  0  0  0  0  0  0  0  0  0  0
   -4.1730   -5.8226   -1.7254 H   0  0  0  0  0  0  0  0  0  0  0  0
   -5.9386   -5.6892   -1.6590 H   0  0  0  0  0  0  0  0  0  0  0  0
   -4.9871   -5.5830   -0.1692 H   0  0  0  0  0  0  0  0  0  0  0  0
   -2.7412   -3.7741   -1.2127 H   0  0  0  0  0  0  0  0  0  0  0  0
   -3.6207   -3.5041    0.2956 H   0  0  0  0  0  0  0  0  0  0  0  0
    0.4572    1.8832    2.6960 H   0  0  0  0  0  0  0  0  0  0  0  0
    0.5333    4.2018    3.3449 H   0  0  0  0  0  0  0  0  0  0  0  0
   -0.9310    6.1088    4.3863 H   0  0  0  0  0  0  0  0  0  0  0  0
    0.7038    6.3382    3.6919 H   0  0  0  0  0  0  0  0  0  0  0  0
   -0.4083    7.6850    3.7823 H   0  0  0  0  0  0  0  0  0  0  0  0
   -2.8889    6.8940    2.0770 H   0  0  0  0  0  0  0  0  0  0  0  0
   -1.8545    7.2276    0.6540 H   0  0  0  0  0  0  0  0  0  0  0  0
   -1.7062    8.2084    2.0909 H   0  0  0  0  0  0  0  0  0  0  0  0
   -2.3601    5.1396    0.2869 H   0  0  0  0  0  0  0  0  0  0  0  0
   -2.4143    2.8329   -0.3707 H   0  0  0  0  0  0  0  0  0  0  0  0
  1  2  1  0
  2  3  1  0
  3  4  2  0
  4  5  1  0
  5  6  1  0
  6  7  1  0
  5  8  2  0
  8  9  1  0
  9 10  1  0
 10 11  2  0
 11 12  1  0
 12 13  2  0
 13 14  1  0
 14 15  2  0
  9 16  2  0
 16 17  1  0
 17 18  2  0
 17 19  1  0
 19 20  1  0
 20 21  2  0
 21 22  1  0
 22 23  1  0
 23 24  1  0
 24 25  1  0
 25 26  1  0
 26 27  1  0
 27 28  1  0
 28 29  1  0
 29 30  1  0
 29 31  1  0
 22 32  1  0
 32 33  2  0
 33 34  1  0
 34 35  2  0
 35 36  1  0
 36 37  1  0
 36 38  1  0
 35 39  1  0
 39 40  2  0
 21  3  1  0
 31 25  1  0
 40 32  1  0
 20  8  1  0
 15 10  1  0
  1 41  1  0
  1 42  1  0
  1 43  1  0
  4 44  1  0
  7 45  1  0
  7 46  1  0
  7 47  1  0
 11 48  1  0
 12 49  1  0
 13 50  1  0
 14 51  1  0
 15 52  1  0
 16 53  1  0
 22 54  1  0
 23 55  1  0
 23 56  1  0
 24 57  1  0
 24 58  1  0
 26 59  1  0
 26 60  1  0
 27 61  1  0
 27 62  1  0
 28 63  1  0
 28 64  1  0
 29 65  1  0
 30 66  1  0
 30 67  1  0
 30 68  1  0
 31 69  1  0
 31 70  1  0
 33 71  1  0
 34 72  1  0
 37 73  1  0
 37 74  1  0
 37 75  1  0
 38 76  1  0
 38 77  1  0
 38 78  1  0
 39 79  1  0
 40 80  1  0
M  END
$$$$
