
     RDKit          3D

 50 51  0  0  0  0  0  0  0  0999 V2000
    4.4238    3.1633    0.4584 C   0  0  0  0  0  0  0  0  0  0  0  0
    4.0803    1.7762    0.0024 C   0  0  0  0  0  0  0  0  0  0  0  0
    2.7875    1.4783   -0.4428 C   0  0  0  0  0  0  0  0  0  0  0  0
    2.4723    0.1956   -0.8962 C   0  0  0  0  0  0  0  0  0  0  0  0
    3.4444   -0.8083   -0.9083 C   0  0  0  0  0  0  0  0  0  0  0  0
    3.1103   -2.1545   -1.3701 C   0  0  0  0  0  0  0  0  0  0  0  0
    3.3855   -2.5670   -2.6142 C   0  0  0  0  0  0  0  0  0  0  0  0
    2.8825   -4.2022   -2.8774 S   0  0  0  0  0  0  0  0  0  0  0  0
    2.2587   -4.3293   -1.2196 C   0  0  0  0  0  0  0  0  0  0  0  0
    1.5275   -5.7038   -0.6258 S   0  0  0  0  0  0  0  0  0  0  0  0
    2.4929   -3.1124   -0.5720 N   0  0  0  0  0  0  0  0  0  0  0  0
    2.0858   -2.8422    0.8148 C   0  0  0  0  0  0  0  0  0  0  0  0
    0.6333   -2.4077    0.9961 C   0  0  0  0  0  0  0  0  0  0  0  0
    0.1463   -2.1514    2.0930 O   0  0  0  0  0  0  0  0  0  0  0  0
   -0.0621   -2.3816   -0.1740 O   0  0  0  0  0  0  0  0  0  0  0  0
   -1.4328   -2.0184   -0.0321 C   0  0  0  0  0  0  0  0  0  0  0  0
   -1.6539   -0.5214    0.2050 C   0  0  0  0  0  0  0  0  0  0  0  0
   -0.8321    0.3327   -0.1171 O   0  0  0  0  0  0  0  0  0  0  0  0
   -2.8682   -0.2217    0.7918 N   0  0  0  0  0  0  0  0  0  0  0  0
   -3.2974    1.1547    1.0265 C   0  0  0  0  0  0  0  0  0  0  0  0
   -4.2353    1.1934    2.2331 C   0  0  0  0  0  0  0  0  0  0  0  0
   -3.8909    1.7747   -0.2660 C   0  0  0  0  0  0  0  0  0  0  0  0
   -5.2016    1.1175   -0.7089 C   0  0  0  0  0  0  0  0  0  0  0  0
   -4.0883    3.2870   -0.1292 C   0  0  0  0  0  0  0  0  0  0  0  0
    4.7442   -0.5077   -0.4848 C   0  0  0  0  0  0  0  0  0  0  0  0
    5.0604    0.7776   -0.0368 C   0  0  0  0  0  0  0  0  0  0  0  0
    4.7568    3.7651   -0.3927 H   0  0  0  0  0  0  0  0  0  0  0  0
    5.2201    3.1413    1.2098 H   0  0  0  0  0  0  0  0  0  0  0  0
    3.5570    3.6491    0.9185 H   0  0  0  0  0  0  0  0  0  0  0  0
    2.0091    2.2393   -0.4363 H   0  0  0  0  0  0  0  0  0  0  0  0
    1.4585   -0.0092   -1.2348 H   0  0  0  0  0  0  0  0  0  0  0  0
    3.8600   -1.9735   -3.3844 H   0  0  0  0  0  0  0  0  0  0  0  0
    2.7311   -2.0742    1.2516 H   0  0  0  0  0  0  0  0  0  0  0  0
    2.2246   -3.7559    1.4019 H   0  0  0  0  0  0  0  0  0  0  0  0
   -1.9335   -2.2727   -0.9728 H   0  0  0  0  0  0  0  0  0  0  0  0
   -1.9079   -2.6126    0.7579 H   0  0  0  0  0  0  0  0  0  0  0  0
   -3.5435   -0.9630    0.9283 H   0  0  0  0  0  0  0  0  0  0  0  0
   -2.3977    1.7263    1.2896 H   0  0  0  0  0  0  0  0  0  0  0  0
   -5.1317    0.5857    2.0721 H   0  0  0  0  0  0  0  0  0  0  0  0
   -4.5461    2.2146    2.4708 H   0  0  0  0  0  0  0  0  0  0  0  0
   -3.7309    0.7882    3.1180 H   0  0  0  0  0  0  0  0  0  0  0  0
   -3.1657    1.6213   -1.0766 H   0  0  0  0  0  0  0  0  0  0  0  0
   -5.5233    1.5215   -1.6752 H   0  0  0  0  0  0  0  0  0  0  0  0
   -6.0093    1.2983    0.0074 H   0  0  0  0  0  0  0  0  0  0  0  0
   -5.0841    0.0359   -0.8285 H   0  0  0  0  0  0  0  0  0  0  0  0
   -4.8670    3.5327    0.5996 H   0  0  0  0  0  0  0  0  0  0  0  0
   -3.1593    3.7751    0.1833 H   0  0  0  0  0  0  0  0  0  0  0  0
   -4.3852    3.7232   -1.0893 H   0  0  0  0  0  0  0  0  0  0  0  0
    5.5184   -1.2717   -0.4964 H   0  0  0  0  0  0  0  0  0  0  0  0
    6.0766    0.9938    0.2859 H   0  0  0  0  0  0  0  0  0  0  0  0
  1  2  1  0
  2  3  2  0
  3  4  1  0
  4  5  2  0
  5  6  1  0
  6  7  2  0
  7  8  1  0
  8  9  1  0
  9 10  2  0
  9 11  1  0
 11 12  1  0
 12 13  1  0
 13 14  2  0
 13 15  1  0
 15 16  1  0
 16 17  1  0
 17 18  2  0
 17 19  1  0
 19 20  1  0
 20 21  1  0
 20 22  1  0
 22 23  1  0
 22 24  1  0
  5 25  1  0
 25 26  2  0
 26  2  1  0
 11  6  1  0
  1 27  1  0
  1 28  1  0
  1 29  1  0
  3 30  1  0
  4 31  1  0
  7 32  1  0
 12 33  1  0
 12 34  1  0
 16 35  1  0
 16 36  1  0
 19 37  1  0
 20 38  1  0
 21 39  1  0
 21 40  1  0
 21 41  1  0
 22 42  1  0
 23 43  1  0
 23 44  1  0
 23 45  1  0
 24 46  1  0
 24 47  1  0
 24 48  1  0
 25 49  1  0
 26 50  1  0
M  END
$$$$
