
     RDKit          3D

 52 55  0  0  0  0  0  0  0  0999 V2000
    0.1801   -1.7192    2.1246 O   0  0  0  0  0  0  0  0  0  0  0  0
    0.0617   -0.9825    1.1445 C   0  0  0  0  0  0  0  0  0  0  0  0
   -0.8505   -1.2555    0.1407 N   0  0  0  0  0  0  0  0  0  0  0  0
   -1.6446   -2.4744    0.1247 C   0  0  0  0  0  0  0  0  0  0  0  0
   -0.8482   -3.6584   -0.4422 C   0  0  0  0  0  0  0  0  0  0  0  0
   -1.3743   -3.8931   -1.8621 C   0  0  0  0  0  0  0  0  0  0  0  0
   -2.2742   -2.7078   -2.1728 C   0  0  0  0  0  0  0  0  0  0  0  0
   -2.8411   -2.3287   -0.8131 C   0  0  0  0  0  0  0  0  0  0  0  0
    0.9063    0.3181    0.9604 C   0  0  0  0  0  0  0  0  0  0  0  0
    0.9611    1.2708    2.1666 C   0  0  0  0  0  0  0  0  0  0  0  0
    1.8312    2.3736    2.1261 C   0  0  0  0  0  0  0  0  0  0  0  0
    1.8964    3.2271    3.2176 C   0  0  0  0  0  0  0  0  0  0  0  0
    1.1747    3.0596    4.3433 N   0  0  0  0  0  0  0  0  0  0  0  0
    0.3501    1.9925    4.3763 C   0  0  0  0  0  0  0  0  0  0  0  0
    0.2097    1.0867    3.3336 C   0  0  0  0  0  0  0  0  0  0  0  0
    0.6502    1.0093   -0.3488 N   0  0  0  0  0  0  0  0  0  0  0  0
    1.4516    0.7366   -1.4978 C   0  0  0  0  0  0  0  0  0  0  0  0
    1.3414    1.3706   -2.5482 O   0  0  0  0  0  0  0  0  0  0  0  0
    2.4249   -0.3500   -1.4698 C   0  0  0  0  0  0  0  0  0  0  0  0
    3.6030   -0.5030   -2.1832 C   0  0  0  0  0  0  0  0  0  0  0  0
    4.1460   -1.7602   -1.8250 C   0  0  0  0  0  0  0  0  0  0  0  0
    3.2540   -2.3186   -0.9428 C   0  0  0  0  0  0  0  0  0  0  0  0
    2.1994   -1.4876   -0.7452 O   0  0  0  0  0  0  0  0  0  0  0  0
   -0.4026    2.0155   -0.3985 C   0  0  0  0  0  0  0  0  0  0  0  0
   -1.5391    1.9274    0.4253 C   0  0  0  0  0  0  0  0  0  0  0  0
   -2.5510    2.8950    0.3925 C   0  0  0  0  0  0  0  0  0  0  0  0
   -2.4513    3.9816   -0.4662 C   0  0  0  0  0  0  0  0  0  0  0  0
   -1.3375    4.0995   -1.2867 C   0  0  0  0  0  0  0  0  0  0  0  0
   -0.3271    3.1300   -1.2494 C   0  0  0  0  0  0  0  0  0  0  0  0
   -0.7792   -0.7133   -0.7136 H   0  0  0  0  0  0  0  0  0  0  0  0
   -1.9702   -2.6767    1.1513 H   0  0  0  0  0  0  0  0  0  0  0  0
    0.2341   -3.4746   -0.4504 H   0  0  0  0  0  0  0  0  0  0  0  0
   -1.0184   -4.5606    0.1635 H   0  0  0  0  0  0  0  0  0  0  0  0
   -0.5625   -3.9947   -2.5928 H   0  0  0  0  0  0  0  0  0  0  0  0
   -1.9588   -4.8202   -1.8869 H   0  0  0  0  0  0  0  0  0  0  0  0
   -1.6831   -1.8800   -2.5870 H   0  0  0  0  0  0  0  0  0  0  0  0
   -3.0583   -2.9606   -2.8938 H   0  0  0  0  0  0  0  0  0  0  0  0
   -3.2755   -1.3219   -0.8126 H   0  0  0  0  0  0  0  0  0  0  0  0
   -3.6251   -3.0424   -0.5321 H   0  0  0  0  0  0  0  0  0  0  0  0
    1.9382   -0.0486    0.9438 H   0  0  0  0  0  0  0  0  0  0  0  0
    2.4482    2.5754    1.2559 H   0  0  0  0  0  0  0  0  0  0  0  0
    2.5544    4.0918    3.2138 H   0  0  0  0  0  0  0  0  0  0  0  0
   -0.2158    1.8737    5.2963 H   0  0  0  0  0  0  0  0  0  0  0  0
   -0.4769    0.2556    3.4592 H   0  0  0  0  0  0  0  0  0  0  0  0
    4.0115    0.2172   -2.8802 H   0  0  0  0  0  0  0  0  0  0  0  0
    5.0676   -2.2071   -2.1736 H   0  0  0  0  0  0  0  0  0  0  0  0
    3.2189   -3.2550   -0.4019 H   0  0  0  0  0  0  0  0  0  0  0  0
   -1.6947    1.0962    1.1048 H   0  0  0  0  0  0  0  0  0  0  0  0
   -3.4174    2.7937    1.0416 H   0  0  0  0  0  0  0  0  0  0  0  0
   -3.2333    4.7350   -0.4921 H   0  0  0  0  0  0  0  0  0  0  0  0
   -1.2413    4.9517   -1.9555 H   0  0  0  0  0  0  0  0  0  0  0  0
    0.5370    3.3104   -1.8823 H   0  0  0  0  0  0  0  0  0  0  0  0
  1  2  2  0
  2  3  1  0
  3  4  1  0
  4  5  1  0
  5  6  1  0
  6  7  1  0
  7  8  1  0
  2  9  1  0
  9 10  1  0
 10 11  2  0
 11 12  1  0
 12 13  2  0
 13 14  1  0
 14 15  2  0
  9 16  1  0
 16 17  1  0
 17 18  2  0
 17 19  1  0
 19 20  2  0
 20 21  1  0
 21 22  2  0
 22 23  1  0
 16 24  1  0
 24 25  2  0
 25 26  1  0
 26 27  2  0
 27 28  1  0
 28 29  2  0
  8  4  1  0
 15 10  1  0
 23 19  1  0
 29 24  1  0
  3 30  1  0
  4 31  1  0
  5 32  1  0
  5 33  1  0
  6 34  1  0
  6 35  1  0
  7 36  1  0
  7 37  1  0
  8 38  1  0
  8 39  1  0
  9 40  1  0
 11 41  1  0
 12 42  1  0
 14 43  1  0
 15 44  1  0
 20 45  1  0
 21 46  1  0
 22 47  1  0
 25 48  1  0
 26 49  1  0
 27 50  1  0
 28 51  1  0
 29 52  1  0
M  END
$$$$
