
     RDKit          3D

 42 44  0  0  0  0  0  0  0  0999 V2000
   -2.8482    0.4285    2.2038 O   0  0  0  0  0  0  0  0  0  0  0  0
   -2.4613    0.0031    1.1129 C   0  0  0  0  0  0  0  0  0  0  0  0
   -2.9861   -1.3350    0.5410 C   0  0  0  0  0  0  0  0  0  0  0  0
   -3.8954   -1.0929   -0.6629 C   0  0  0  0  0  0  0  0  0  0  0  0
   -5.0437   -2.0468   -0.4409 C   0  0  0  0  0  0  0  0  0  0  0  0
   -5.1189   -2.0976    1.0641 C   0  0  0  0  0  0  0  0  0  0  0  0
   -3.7582   -2.0791    1.4997 O   0  0  0  0  0  0  0  0  0  0  0  0
   -1.5681    0.7376    0.3299 N   0  0  0  0  0  0  0  0  0  0  0  0
   -0.6802    0.1453   -0.6760 C   0  0  0  0  0  0  0  0  0  0  0  0
    0.7082   -0.1357   -0.0681 C   0  0  0  0  0  0  0  0  0  0  0  0
    1.2816    1.1297    0.5084 N   0  0  0  0  0  0  0  0  0  0  0  0
    2.8842    0.9853    1.0917 S   0  0  0  0  0  6  0  0  0  0  0  0
    3.3028    2.2792    1.5854 O   0  0  0  0  0  0  0  0  0  0  0  0
    2.9320   -0.1955    1.9276 O   0  0  0  0  0  0  0  0  0  0  0  0
    3.8059    0.6663   -0.3914 C   0  0  0  0  0  0  0  0  0  0  0  0
    3.8650    1.6572   -1.3764 C   0  0  0  0  0  0  0  0  0  0  0  0
    4.5822    1.4164   -2.5475 C   0  0  0  0  0  0  0  0  0  0  0  0
    5.2368    0.1960   -2.7264 C   0  0  0  0  0  0  0  0  0  0  0  0
    5.1808   -0.7863   -1.7351 C   0  0  0  0  0  0  0  0  0  0  0  0
    4.4657   -0.5538   -0.5604 C   0  0  0  0  0  0  0  0  0  0  0  0
    0.3480    1.7240    1.5351 C   0  0  0  0  0  0  0  0  0  0  0  0
   -1.0281    1.9779    0.8981 C   0  0  0  0  0  0  0  0  0  0  0  0
   -2.1368   -1.9771    0.2905 H   0  0  0  0  0  0  0  0  0  0  0  0
   -3.3864   -1.2716   -1.6148 H   0  0  0  0  0  0  0  0  0  0  0  0
   -4.2644   -0.0601   -0.6821 H   0  0  0  0  0  0  0  0  0  0  0  0
   -5.9773   -1.7241   -0.9087 H   0  0  0  0  0  0  0  0  0  0  0  0
   -4.7798   -3.0346   -0.8366 H   0  0  0  0  0  0  0  0  0  0  0  0
   -5.6148   -2.9992    1.4335 H   0  0  0  0  0  0  0  0  0  0  0  0
   -5.6278   -1.2183    1.4743 H   0  0  0  0  0  0  0  0  0  0  0  0
   -0.5912    0.8687   -1.4955 H   0  0  0  0  0  0  0  0  0  0  0  0
   -1.0939   -0.7725   -1.0949 H   0  0  0  0  0  0  0  0  0  0  0  0
    1.3587   -0.5188   -0.8593 H   0  0  0  0  0  0  0  0  0  0  0  0
    0.6212   -0.8936    0.7192 H   0  0  0  0  0  0  0  0  0  0  0  0
    3.3617    2.6106   -1.2308 H   0  0  0  0  0  0  0  0  0  0  0  0
    4.6385    2.1814   -3.3183 H   0  0  0  0  0  0  0  0  0  0  0  0
    5.8007    0.0130   -3.6384 H   0  0  0  0  0  0  0  0  0  0  0  0
    5.7017   -1.7305   -1.8768 H   0  0  0  0  0  0  0  0  0  0  0  0
    4.4330   -1.3190    0.2120 H   0  0  0  0  0  0  0  0  0  0  0  0
    0.2546    1.0371    2.3844 H   0  0  0  0  0  0  0  0  0  0  0  0
    0.7472    2.6793    1.8904 H   0  0  0  0  0  0  0  0  0  0  0  0
   -0.9365    2.6986    0.0764 H   0  0  0  0  0  0  0  0  0  0  0  0
   -1.7137    2.4069    1.6357 H   0  0  0  0  0  0  0  0  0  0  0  0
  1  2  2  0
  2  3  1  0
  3  4  1  0
  4  5  1  0
  5  6  1  0
  6  7  1  0
  2  8  1  0
  8  9  1  0
  9 10  1  0
 10 11  1  0
 11 12  1  0
 12 13  2  0
 12 14  2  0
 12 15  1  0
 15 16  2  0
 16 17  1  0
 17 18  2  0
 18 19  1  0
 19 20  2  0
 11 21  1  0
 21 22  1  0
  7  3  1  0
 22  8  1  0
 20 15  1  0
  3 23  1  0
  4 24  1  0
  4 25  1  0
  5 26  1  0
  5 27  1  0
  6 28  1  0
  6 29  1  0
  9 30  1  0
  9 31  1  0
 10 32  1  0
 10 33  1  0
 16 34  1  0
 17 35  1  0
 18 36  1  0
 19 37  1  0
 20 38  1  0
 21 39  1  0
 21 40  1  0
 22 41  1  0
 22 42  1  0
M  END
$$$$
