
     RDKit          3D

 49 52  0  0  0  0  0  0  0  0999 V2000
   -0.4939    5.4181   -1.3781 C   0  0  0  0  0  0  0  0  0  0  0  0
   -0.6954    4.1299   -0.6357 C   0  0  0  0  0  0  0  0  0  0  0  0
   -1.0976    4.1414    0.7037 C   0  0  0  0  0  0  0  0  0  0  0  0
   -1.2567    2.9456    1.4023 C   0  0  0  0  0  0  0  0  0  0  0  0
   -1.0037    1.7276    0.7722 C   0  0  0  0  0  0  0  0  0  0  0  0
   -0.5765    1.6882   -0.5639 C   0  0  0  0  0  0  0  0  0  0  0  0
   -0.3106    0.3760   -1.2872 C   0  0  0  0  0  0  0  0  0  0  0  0
   -1.6158   -0.2527   -1.7783 C   0  0  0  0  0  0  0  0  0  0  0  0
   -1.6846   -1.4657   -0.8924 C   0  0  0  0  0  0  0  0  0  0  0  0
   -2.8706   -2.3542   -0.8765 C   0  0  0  0  0  0  0  0  0  0  0  0
   -3.9641   -2.1312   -1.7209 C   0  0  0  0  0  0  0  0  0  0  0  0
   -5.0666   -2.9891   -1.6791 C   0  0  0  0  0  0  0  0  0  0  0  0
   -5.0811   -4.0696   -0.7979 C   0  0  0  0  0  0  0  0  0  0  0  0
   -3.9939   -4.2971    0.0438 C   0  0  0  0  0  0  0  0  0  0  0  0
   -2.8907   -3.4423    0.0052 C   0  0  0  0  0  0  0  0  0  0  0  0
   -0.6240   -1.6849   -0.1756 N   0  0  0  0  0  0  0  0  0  0  0  0
    0.2494   -0.6636   -0.4197 N   0  0  0  0  0  0  0  0  0  0  0  0
    1.5638   -0.7250    0.0400 C   0  0  0  0  0  0  0  0  0  0  0  0
    2.0067   -1.8231    0.8023 C   0  0  0  0  0  0  0  0  0  0  0  0
    3.3159   -1.9124    1.2859 C   0  0  0  0  0  0  0  0  0  0  0  0
    4.2123   -0.8811    1.0184 C   0  0  0  0  0  0  0  0  0  0  0  0
    5.8657   -0.9811    1.6436 S   0  0  0  0  0  6  0  0  0  0  0  0
    5.6605   -0.4232    3.2206 N   0  0  0  0  0  0  0  0  0  0  0  0
    6.2511   -2.3703    1.7077 O   0  0  0  0  0  0  0  0  0  0  0  0
    6.6715    0.0201    0.9826 O   0  0  0  0  0  0  0  0  0  0  0  0
    3.8175    0.2163    0.2567 C   0  0  0  0  0  0  0  0  0  0  0  0
    2.5031    0.2873   -0.2219 C   0  0  0  0  0  0  0  0  0  0  0  0
   -0.4285    2.9024   -1.2581 C   0  0  0  0  0  0  0  0  0  0  0  0
    0.5391    5.7596   -1.2606 H   0  0  0  0  0  0  0  0  0  0  0  0
   -0.7063    5.2909   -2.4448 H   0  0  0  0  0  0  0  0  0  0  0  0
   -1.1685    6.1952   -1.0037 H   0  0  0  0  0  0  0  0  0  0  0  0
   -1.2912    5.0832    1.2123 H   0  0  0  0  0  0  0  0  0  0  0  0
   -1.5749    2.9607    2.4415 H   0  0  0  0  0  0  0  0  0  0  0  0
   -1.1304    0.8040    1.3355 H   0  0  0  0  0  0  0  0  0  0  0  0
    0.3506    0.5501   -2.1459 H   0  0  0  0  0  0  0  0  0  0  0  0
   -2.4935    0.3893   -1.6642 H   0  0  0  0  0  0  0  0  0  0  0  0
   -1.5257   -0.5812   -2.8193 H   0  0  0  0  0  0  0  0  0  0  0  0
   -3.9825   -1.3016   -2.4208 H   0  0  0  0  0  0  0  0  0  0  0  0
   -5.9159   -2.8154   -2.3357 H   0  0  0  0  0  0  0  0  0  0  0  0
   -5.9397   -4.7361   -0.7676 H   0  0  0  0  0  0  0  0  0  0  0  0
   -4.0024   -5.1399    0.7306 H   0  0  0  0  0  0  0  0  0  0  0  0
   -2.0478   -3.6312    0.6670 H   0  0  0  0  0  0  0  0  0  0  0  0
    1.3153   -2.6349    1.0224 H   0  0  0  0  0  0  0  0  0  0  0  0
    3.6189   -2.7841    1.8617 H   0  0  0  0  0  0  0  0  0  0  0  0
    4.6801   -0.3283    3.4847 H   0  0  0  0  0  0  0  0  0  0  0  0
    6.1699    0.4556    3.3261 H   0  0  0  0  0  0  0  0  0  0  0  0
    4.5139    1.0203    0.0293 H   0  0  0  0  0  0  0  0  0  0  0  0
    2.2285    1.1630   -0.8029 H   0  0  0  0  0  0  0  0  0  0  0  0
   -0.1006    2.8949   -2.2963 H   0  0  0  0  0  0  0  0  0  0  0  0
  1  2  1  0
  2  3  2  0
  3  4  1  0
  4  5  2  0
  5  6  1  0
  6  7  1  0
  7  8  1  0
  8  9  1  0
  9 10  1  0
 10 11  2  0
 11 12  1  0
 12 13  2  0
 13 14  1  0
 14 15  2  0
  9 16  2  0
 16 17  1  0
 17 18  1  0
 18 19  2  0
 19 20  1  0
 20 21  2  0
 21 22  1  0
 22 23  1  0
 22 24  2  0
 22 25  2  0
 21 26  1  0
 26 27  2  0
  6 28  2  0
 28  2  1  0
 17  7  1  0
 27 18  1  0
 15 10  1  0
  1 29  1  0
  1 30  1  0
  1 31  1  0
  3 32  1  0
  4 33  1  0
  5 34  1  0
  7 35  1  0
  8 36  1  0
  8 37  1  0
 11 38  1  0
 12 39  1  0
 13 40  1  0
 14 41  1  0
 15 42  1  0
 19 43  1  0
 20 44  1  0
 23 45  1  0
 23 46  1  0
 26 47  1  0
 27 48  1  0
 28 49  1  0
M  END
$$$$
