
     RDKit          3D

 51 53  0  0  0  0  0  0  0  0999 V2000
    5.1233   -2.1734   -0.7161 O   0  0  0  0  0  0  0  0  0  0  0  0
    4.7577   -1.0769   -1.1195 C   0  0  0  0  0  0  0  0  0  0  0  0
    3.8058   -0.8391   -2.0778 N   0  0  0  0  0  0  0  0  0  0  0  0
    3.0964   -1.9037   -2.7368 C   0  0  0  0  0  0  0  0  0  0  0  0
    1.7931   -1.3824   -3.2078 C   0  0  0  0  0  0  0  0  0  0  0  0
    1.3386   -0.8996   -4.4157 C   0  0  0  0  0  0  0  0  0  0  0  0
   -0.0158   -0.5330   -4.2144 C   0  0  0  0  0  0  0  0  0  0  0  0
   -0.3123   -0.8146   -2.8952 C   0  0  0  0  0  0  0  0  0  0  0  0
   -1.5249   -0.6410   -2.1369 C   0  0  0  0  0  0  0  0  0  0  0  0
   -1.5907   -1.0122   -0.8987 N   0  0  0  0  0  0  0  0  0  0  0  0
   -2.7458   -0.8569   -0.1798 N   0  0  0  0  0  0  0  0  0  0  0  0
   -4.0105   -0.5360   -0.6353 C   0  0  0  0  0  0  0  0  0  0  0  0
   -4.3789   -0.2775   -1.7733 O   0  0  0  0  0  0  0  0  0  0  0  0
   -5.0479   -0.5229    0.5061 C   0  0  0  0  0  0  0  0  0  0  0  0
   -4.6815   -0.8195    1.6344 O   0  0  0  0  0  0  0  0  0  0  0  0
   -6.2999   -0.1474    0.0686 N   0  0  0  0  0  0  0  0  0  0  0  0
   -7.4833   -0.0059    0.8199 C   0  0  0  0  0  0  0  0  0  0  0  0
   -7.5492   -0.2835    2.1894 C   0  0  0  0  0  0  0  0  0  0  0  0
   -8.7475   -0.1159    2.8928 C   0  0  0  0  0  0  0  0  0  0  0  0
   -9.8917    0.3398    2.2391 C   0  0  0  0  0  0  0  0  0  0  0  0
   -9.8450    0.6182    0.8747 C   0  0  0  0  0  0  0  0  0  0  0  0
   -8.6485    0.4401    0.1698 C   0  0  0  0  0  0  0  0  0  0  0  0
   -8.6561    0.8373   -1.6918 Br  0  0  0  0  0  0  0  0  0  0  0  0
    0.7935   -1.3323   -2.2829 O   0  0  0  0  0  0  0  0  0  0  0  0
    5.3744    0.2085   -0.5230 C   0  0  0  0  0  0  0  0  0  0  0  0
    5.1257    1.2833   -1.0524 O   0  0  0  0  0  0  0  0  0  0  0  0
    6.1569   -0.0690    0.5795 N   0  0  0  0  0  0  0  0  0  0  0  0
    6.8565    0.8410    1.3896 C   0  0  0  0  0  0  0  0  0  0  0  0
    7.6113    0.3090    2.4416 C   0  0  0  0  0  0  0  0  0  0  0  0
    8.3360    1.1464    3.2920 C   0  0  0  0  0  0  0  0  0  0  0  0
    8.3091    2.5253    3.1007 C   0  0  0  0  0  0  0  0  0  0  0  0
    7.5595    3.0640    2.0573 C   0  0  0  0  0  0  0  0  0  0  0  0
    6.8350    2.2258    1.2042 C   0  0  0  0  0  0  0  0  0  0  0  0
    3.6215    0.1305   -2.3190 H   0  0  0  0  0  0  0  0  0  0  0  0
    2.9608   -2.7463   -2.0510 H   0  0  0  0  0  0  0  0  0  0  0  0
    3.7103   -2.2429   -3.5766 H   0  0  0  0  0  0  0  0  0  0  0  0
    1.9139   -0.8175   -5.3276 H   0  0  0  0  0  0  0  0  0  0  0  0
   -0.6952   -0.1103   -4.9426 H   0  0  0  0  0  0  0  0  0  0  0  0
   -2.3527   -0.1685   -2.6842 H   0  0  0  0  0  0  0  0  0  0  0  0
   -2.6693   -1.1085    0.8073 H   0  0  0  0  0  0  0  0  0  0  0  0
   -6.3628    0.0665   -0.9270 H   0  0  0  0  0  0  0  0  0  0  0  0
   -6.6885   -0.6332    2.7445 H   0  0  0  0  0  0  0  0  0  0  0  0
   -8.7827   -0.3373    3.9568 H   0  0  0  0  0  0  0  0  0  0  0  0
  -10.8199    0.4833    2.7924 H   0  0  0  0  0  0  0  0  0  0  0  0
  -10.7414    0.9841    0.3716 H   0  0  0  0  0  0  0  0  0  0  0  0
    6.2299   -1.0591    0.8038 H   0  0  0  0  0  0  0  0  0  0  0  0
    7.6477   -0.7640    2.6122 H   0  0  0  0  0  0  0  0  0  0  0  0
    8.9217    0.7206    4.1032 H   0  0  0  0  0  0  0  0  0  0  0  0
    8.8698    3.1784    3.7622 H   0  0  0  0  0  0  0  0  0  0  0  0
    7.5333    4.1410    1.9054 H   0  0  0  0  0  0  0  0  0  0  0  0
    6.2605    2.6871    0.4066 H   0  0  0  0  0  0  0  0  0  0  0  0
  1  2  2  0
  2  3  1  0
  3  4  1  0
  4  5  1  0
  5  6  2  0
  6  7  1  0
  7  8  2  0
  8  9  1  0
  9 10  2  3
 10 11  1  0
 11 12  1  0
 12 13  2  0
 12 14  1  0
 14 15  2  0
 14 16  1  0
 16 17  1  0
 17 18  2  0
 18 19  1  0
 19 20  2  0
 20 21  1  0
 21 22  2  0
 22 23  1  0
  8 24  1  0
  2 25  1  0
 25 26  2  0
 25 27  1  0
 27 28  1  0
 28 29  2  0
 29 30  1  0
 30 31  2  0
 31 32  1  0
 32 33  2  0
 24  5  1  0
 33 28  1  0
 22 17  1  0
  3 34  1  0
  4 35  1  0
  4 36  1  0
  6 37  1  0
  7 38  1  0
  9 39  1  0
 11 40  1  0
 16 41  1  0
 18 42  1  0
 19 43  1  0
 20 44  1  0
 21 45  1  0
 27 46  1  0
 29 47  1  0
 30 48  1  0
 31 49  1  0
 32 50  1  0
 33 51  1  0
M  END
$$$$
