
     RDKit          3D

 59 62  0  0  0  0  0  0  0  0999 V2000
   -2.8927    3.4151   -2.5905 C   0  0  0  0  0  0  0  0  0  0  0  0
   -1.9127    2.2556   -2.5231 C   0  0  0  0  0  0  0  0  0  0  0  0
   -0.9692    2.3959   -1.3313 C   0  0  0  0  0  0  0  0  0  0  0  0
   -0.0237    1.2964   -1.2459 N   0  0  0  0  0  0  0  0  0  0  0  0
   -0.1649    0.1380   -0.4983 C   0  0  0  0  0  0  0  0  0  0  0  0
   -1.3198   -0.1728    0.3367 C   0  0  0  0  0  0  0  0  0  0  0  0
   -2.3841   -0.9150   -0.1943 C   0  0  0  0  0  0  0  0  0  0  0  0
   -3.5061   -1.1934    0.5868 C   0  0  0  0  0  0  0  0  0  0  0  0
   -4.6046   -1.8948    0.1601 O   0  0  0  0  0  0  0  0  0  0  0  0
   -4.6070   -2.3620   -1.1825 C   0  0  0  0  0  0  0  0  0  0  0  0
   -3.5361   -0.7341    1.9166 C   0  0  0  0  0  0  0  0  0  0  0  0
   -4.6647   -0.9550    2.6770 O   0  0  0  0  0  0  0  0  0  0  0  0
   -4.5246   -2.1735    3.4069 C   0  0  0  0  0  0  0  0  0  0  0  0
   -2.4725    0.0076    2.4637 C   0  0  0  0  0  0  0  0  0  0  0  0
   -2.6197    0.4154    3.7647 O   0  0  0  0  0  0  0  0  0  0  0  0
   -1.5643    1.1747    4.3406 C   0  0  0  0  0  0  0  0  0  0  0  0
   -1.3597    0.2737    1.6655 C   0  0  0  0  0  0  0  0  0  0  0  0
    0.8894   -0.6468   -0.6509 N   0  0  0  0  0  0  0  0  0  0  0  0
    1.7191    0.0257   -1.4922 C   0  0  0  0  0  0  0  0  0  0  0  0
    1.1836    1.2178   -1.8856 C   0  0  0  0  0  0  0  0  0  0  0  0
    1.8523    2.0969   -2.7803 C   0  0  0  0  0  0  0  0  0  0  0  0
    1.4155    3.1711   -3.1771 O   0  0  0  0  0  0  0  0  0  0  0  0
    3.0761    1.6095   -3.1797 N   0  0  0  0  0  0  0  0  0  0  0  0
    3.6661    0.4152   -2.8078 C   0  0  0  0  0  0  0  0  0  0  0  0
    4.7728    0.1323   -3.2681 O   0  0  0  0  0  0  0  0  0  0  0  0
    2.9543   -0.3999   -1.9349 N   0  0  0  0  0  0  0  0  0  0  0  0
    3.5401   -1.6480   -1.4691 C   0  0  0  0  0  0  0  0  0  0  0  0
    4.3254   -1.4729   -0.1882 C   0  0  0  0  0  0  0  0  0  0  0  0
    5.6853   -1.1324   -0.2245 C   0  0  0  0  0  0  0  0  0  0  0  0
    6.4034   -0.9565    0.9597 C   0  0  0  0  0  0  0  0  0  0  0  0
    5.7695   -1.1135    2.1910 C   0  0  0  0  0  0  0  0  0  0  0  0
    4.4160   -1.4417    2.2398 C   0  0  0  0  0  0  0  0  0  0  0  0
    3.6963   -1.6174    1.0568 C   0  0  0  0  0  0  0  0  0  0  0  0
   -2.3653    4.3694   -2.6903 H   0  0  0  0  0  0  0  0  0  0  0  0
   -3.5557    3.3015   -3.4541 H   0  0  0  0  0  0  0  0  0  0  0  0
   -3.5132    3.4571   -1.6894 H   0  0  0  0  0  0  0  0  0  0  0  0
   -2.4714    1.3148   -2.4549 H   0  0  0  0  0  0  0  0  0  0  0  0
   -1.3395    2.2125   -3.4568 H   0  0  0  0  0  0  0  0  0  0  0  0
   -0.3949    3.3270   -1.3874 H   0  0  0  0  0  0  0  0  0  0  0  0
   -1.5328    2.4381   -0.3934 H   0  0  0  0  0  0  0  0  0  0  0  0
   -2.3079   -1.2614   -1.2207 H   0  0  0  0  0  0  0  0  0  0  0  0
   -4.5588   -1.5278   -1.8909 H   0  0  0  0  0  0  0  0  0  0  0  0
   -5.5518   -2.8881   -1.3526 H   0  0  0  0  0  0  0  0  0  0  0  0
   -3.7939   -3.0761   -1.3531 H   0  0  0  0  0  0  0  0  0  0  0  0
   -5.4405   -2.3218    3.9865 H   0  0  0  0  0  0  0  0  0  0  0  0
   -4.4076   -3.0315    2.7353 H   0  0  0  0  0  0  0  0  0  0  0  0
   -3.6852   -2.1251    4.1098 H   0  0  0  0  0  0  0  0  0  0  0  0
   -0.6375    0.5916    4.3847 H   0  0  0  0  0  0  0  0  0  0  0  0
   -1.4156    2.1171    3.8020 H   0  0  0  0  0  0  0  0  0  0  0  0
   -1.8506    1.4217    5.3679 H   0  0  0  0  0  0  0  0  0  0  0  0
   -0.5076    0.8278    2.0481 H   0  0  0  0  0  0  0  0  0  0  0  0
    3.6072    2.1851   -3.8138 H   0  0  0  0  0  0  0  0  0  0  0  0
    4.2009   -2.0543   -2.2452 H   0  0  0  0  0  0  0  0  0  0  0  0
    2.7489   -2.3963   -1.3332 H   0  0  0  0  0  0  0  0  0  0  0  0
    6.1920   -0.9991   -1.1789 H   0  0  0  0  0  0  0  0  0  0  0  0
    7.4576   -0.6948    0.9200 H   0  0  0  0  0  0  0  0  0  0  0  0
    6.3297   -0.9771    3.1122 H   0  0  0  0  0  0  0  0  0  0  0  0
    3.9184   -1.5591    3.1986 H   0  0  0  0  0  0  0  0  0  0  0  0
    2.6365   -1.8622    1.1082 H   0  0  0  0  0  0  0  0  0  0  0  0
  1  2  1  0
  2  3  1  0
  3  4  1  0
  4  5  1  0
  5  6  1  0
  6  7  2  0
  7  8  1  0
  8  9  1  0
  9 10  1  0
  8 11  2  0
 11 12  1  0
 12 13  1  0
 11 14  1  0
 14 15  1  0
 15 16  1  0
 14 17  2  0
  5 18  2  0
 18 19  1  0
 19 20  2  0
 20 21  1  0
 21 22  2  0
 21 23  1  0
 23 24  1  0
 24 25  2  0
 24 26  1  0
 26 27  1  0
 27 28  1  0
 28 29  2  0
 29 30  1  0
 30 31  2  0
 31 32  1  0
 32 33  2  0
 20  4  1  0
 33 28  1  0
 17  6  1  0
 26 19  1  0
  1 34  1  0
  1 35  1  0
  1 36  1  0
  2 37  1  0
  2 38  1  0
  3 39  1  0
  3 40  1  0
  7 41  1  0
 10 42  1  0
 10 43  1  0
 10 44  1  0
 13 45  1  0
 13 46  1  0
 13 47  1  0
 16 48  1  0
 16 49  1  0
 16 50  1  0
 17 51  1  0
 23 52  1  0
 27 53  1  0
 27 54  1  0
 29 55  1  0
 30 56  1  0
 31 57  1  0
 32 58  1  0
 33 59  1  0
M  END
$$$$
