
     RDKit          3D

 44 46  0  0  0  0  0  0  0  0999 V2000
    5.8728    0.1905   -0.9703 C   0  0  0  0  0  0  0  0  0  0  0  0
    4.5339    0.7069   -0.4102 C   0  0  0  0  0  0  0  0  0  0  0  0
    3.6471    1.1028   -1.5998 C   0  0  0  0  0  0  0  0  0  0  0  0
    4.7988    1.9405    0.4661 C   0  0  0  0  0  0  0  0  0  0  0  0
    3.9384   -0.4032    0.4864 C   0  0  0  0  0  0  0  0  0  0  0  0
    4.6512   -0.9720    1.3257 O   0  0  0  0  0  0  0  0  0  0  0  0
    2.4731   -0.7798    0.3735 C   0  0  0  0  0  0  0  0  0  0  0  0
    1.4461    0.4251    1.2702 S   0  0  0  0  0  0  0  0  0  0  0  0
   -0.1947   -0.1480    0.8262 C   0  0  0  0  0  0  0  0  0  0  0  0
   -0.2535   -1.4117    0.3299 N   0  0  0  0  0  0  0  0  0  0  0  0
   -1.4693   -1.8683    0.0002 C   0  0  0  0  0  0  0  0  0  0  0  0
   -2.6441   -1.1465    0.1292 C   0  0  0  0  0  0  0  0  0  0  0  0
   -2.5946    0.1418    0.6470 C   0  0  0  0  0  0  0  0  0  0  0  0
   -3.8264    0.9170    0.7927 C   0  0  0  0  0  0  0  0  0  0  0  0
   -4.4224    1.7700   -0.1156 C   0  0  0  0  0  0  0  0  0  0  0  0
   -5.6248    2.3421    0.3940 C   0  0  0  0  0  0  0  0  0  0  0  0
   -5.9008    1.9099    1.6737 C   0  0  0  0  0  0  0  0  0  0  0  0
   -4.7233    0.8102    2.2490 S   0  0  0  0  0  0  0  0  0  0  0  0
   -1.3325    0.6614    1.0000 C   0  0  0  0  0  0  0  0  0  0  0  0
   -1.2165    1.9977    1.5091 C   0  0  0  0  0  0  0  0  0  0  0  0
   -1.1331    3.0878    1.9015 N   0  0  0  0  0  0  0  0  0  0  0  0
   -3.8215   -1.9688   -0.2922 C   0  0  0  0  0  0  0  0  0  0  0  0
   -3.1402   -3.0855   -1.0986 C   0  0  0  0  0  0  0  0  0  0  0  0
   -1.7359   -3.2566   -0.5083 C   0  0  0  0  0  0  0  0  0  0  0  0
    6.3560    0.9440   -1.6028 H   0  0  0  0  0  0  0  0  0  0  0  0
    6.5758   -0.0656   -0.1701 H   0  0  0  0  0  0  0  0  0  0  0  0
    5.7236   -0.7114   -1.5736 H   0  0  0  0  0  0  0  0  0  0  0  0
    4.1349    1.8645   -2.2193 H   0  0  0  0  0  0  0  0  0  0  0  0
    3.4378    0.2410   -2.2435 H   0  0  0  0  0  0  0  0  0  0  0  0
    2.6880    1.5214   -1.2748 H   0  0  0  0  0  0  0  0  0  0  0  0
    5.2672    2.7447   -0.1120 H   0  0  0  0  0  0  0  0  0  0  0  0
    5.4655    1.6953    1.3034 H   0  0  0  0  0  0  0  0  0  0  0  0
    3.8712    2.3356    0.8949 H   0  0  0  0  0  0  0  0  0  0  0  0
    2.3494   -1.7724    0.8257 H   0  0  0  0  0  0  0  0  0  0  0  0
    2.1865   -0.8638   -0.6795 H   0  0  0  0  0  0  0  0  0  0  0  0
   -4.0160    1.9806   -1.0997 H   0  0  0  0  0  0  0  0  0  0  0  0
   -6.2511    3.0417   -0.1471 H   0  0  0  0  0  0  0  0  0  0  0  0
   -6.7383    2.1868    2.2984 H   0  0  0  0  0  0  0  0  0  0  0  0
   -4.3333   -2.3735    0.5872 H   0  0  0  0  0  0  0  0  0  0  0  0
   -4.5281   -1.4132   -0.9150 H   0  0  0  0  0  0  0  0  0  0  0  0
   -3.7150   -4.0172   -1.0869 H   0  0  0  0  0  0  0  0  0  0  0  0
   -3.0542   -2.7704   -2.1487 H   0  0  0  0  0  0  0  0  0  0  0  0
   -1.7380   -3.9639    0.3274 H   0  0  0  0  0  0  0  0  0  0  0  0
   -1.0097   -3.5677   -1.2638 H   0  0  0  0  0  0  0  0  0  0  0  0
  1  2  1  0
  2  3  1  0
  2  4  1  0
  2  5  1  0
  5  6  2  0
  5  7  1  0
  7  8  1  0
  8  9  1  0
  9 10  2  0
 10 11  1  0
 11 12  2  0
 12 13  1  0
 13 14  1  0
 14 15  2  0
 15 16  1  0
 16 17  2  0
 17 18  1  0
 13 19  2  0
 19 20  1  0
 20 21  3  0
 12 22  1  0
 22 23  1  0
 23 24  1  0
 19  9  1  0
 24 11  1  0
 18 14  1  0
  1 25  1  0
  1 26  1  0
  1 27  1  0
  3 28  1  0
  3 29  1  0
  3 30  1  0
  4 31  1  0
  4 32  1  0
  4 33  1  0
  7 34  1  0
  7 35  1  0
 15 36  1  0
 16 37  1  0
 17 38  1  0
 22 39  1  0
 22 40  1  0
 23 41  1  0
 23 42  1  0
 24 43  1  0
 24 44  1  0
M  END
$$$$
