
     RDKit          3D

 30 31  0  0  0  0  0  0  0  0999 V2000
    4.9997   -1.2171   -0.0862 N   0  0  0  0  0  0  0  0  0  0  0  0
    4.2545   -1.3815    0.7874 C   0  0  0  0  0  0  0  0  0  0  0  0
    3.3268   -1.5514    1.9114 C   0  0  0  0  0  0  0  0  0  0  0  0
    2.6635   -0.2294    2.2717 C   0  0  0  0  0  0  0  0  0  0  0  0
    1.6974    0.1941    1.2751 N   0  0  0  0  0  0  0  0  0  0  0  0
    1.8317    1.2036    0.3763 C   0  0  0  0  0  0  0  0  0  0  0  0
    0.6652    1.2201   -0.3666 C   0  0  0  0  0  0  0  0  0  0  0  0
    0.4313    2.1302   -1.4629 C   0  0  0  0  0  0  0  0  0  0  0  0
   -0.6424    2.0422   -2.1765 N   0  0  0  0  0  0  0  0  0  0  0  0
   -0.6179    3.0300   -3.1691 O   0  0  0  0  0  0  0  0  0  0  0  0
   -0.1322    0.1736    0.1952 C   0  0  0  0  0  0  0  0  0  0  0  0
   -1.4820   -0.2642   -0.1534 C   0  0  0  0  0  0  0  0  0  0  0  0
   -2.5499    0.6426   -0.1774 C   0  0  0  0  0  0  0  0  0  0  0  0
   -3.8403    0.2077   -0.4945 C   0  0  0  0  0  0  0  0  0  0  0  0
   -4.0673   -1.1374   -0.7794 C   0  0  0  0  0  0  0  0  0  0  0  0
   -5.6558   -1.6717   -1.1693 Cl  0  0  0  0  0  0  0  0  0  0  0  0
   -3.0178   -2.0532   -0.7462 C   0  0  0  0  0  0  0  0  0  0  0  0
   -1.7282   -1.6173   -0.4294 C   0  0  0  0  0  0  0  0  0  0  0  0
    0.5321   -0.4562    1.1820 N   0  0  0  0  0  0  0  0  0  0  0  0
    2.5801   -2.3159    1.6685 H   0  0  0  0  0  0  0  0  0  0  0  0
    3.8867   -1.9155    2.7805 H   0  0  0  0  0  0  0  0  0  0  0  0
    3.3988    0.5750    2.3925 H   0  0  0  0  0  0  0  0  0  0  0  0
    2.1163   -0.3238    3.2172 H   0  0  0  0  0  0  0  0  0  0  0  0
    2.7291    1.8052    0.3180 H   0  0  0  0  0  0  0  0  0  0  0  0
    1.2055    2.8900   -1.6720 H   0  0  0  0  0  0  0  0  0  0  0  0
   -1.4364    2.8442   -3.6678 H   0  0  0  0  0  0  0  0  0  0  0  0
   -2.3849    1.6933    0.0490 H   0  0  0  0  0  0  0  0  0  0  0  0
   -4.6584    0.9221   -0.5158 H   0  0  0  0  0  0  0  0  0  0  0  0
   -3.1934   -3.1033   -0.9617 H   0  0  0  0  0  0  0  0  0  0  0  0
   -0.9120   -2.3359   -0.3965 H   0  0  0  0  0  0  0  0  0  0  0  0
  1  2  3  0
  2  3  1  0
  3  4  1  0
  4  5  1  0
  5  6  1  0
  6  7  2  0
  7  8  1  0
  8  9  2  3
  9 10  1  0
  7 11  1  0
 11 12  1  0
 12 13  2  0
 13 14  1  0
 14 15  2  0
 15 16  1  0
 15 17  1  0
 17 18  2  0
 11 19  2  0
 19  5  1  0
 18 12  1  0
  3 20  1  0
  3 21  1  0
  4 22  1  0
  4 23  1  0
  6 24  1  0
  8 25  1  0
 10 26  1  0
 13 27  1  0
 14 28  1  0
 17 29  1  0
 18 30  1  0
M  END
$$$$
