
     RDKit          3D

 53 56  0  0  0  0  0  0  0  0999 V2000
   -6.6323    0.4038   -0.4903 C   0  0  0  0  0  0  0  0  0  0  0  0
   -5.1810   -0.0377   -0.6076 C   0  0  0  0  0  0  0  0  0  0  0  0
   -4.2050    0.8201    0.2175 C   0  0  0  0  0  0  0  0  0  0  0  0
   -4.4329    0.7732    1.7489 C   0  0  0  0  0  0  0  0  0  0  0  0
   -4.1138   -0.5521    2.4083 C   0  0  0  0  0  0  0  0  0  0  0  0
   -2.8315   -0.7910    2.9249 C   0  0  0  0  0  0  0  0  0  0  0  0
   -2.5215   -2.0137    3.5221 C   0  0  0  0  0  0  0  0  0  0  0  0
   -3.4912   -3.0095    3.6137 C   0  0  0  0  0  0  0  0  0  0  0  0
   -4.7717   -2.7809    3.1136 C   0  0  0  0  0  0  0  0  0  0  0  0
   -5.0831   -1.5577    2.5164 C   0  0  0  0  0  0  0  0  0  0  0  0
   -2.8312    0.4564   -0.1327 N   0  0  0  0  0  0  0  0  0  0  0  0
   -1.7840    1.3397    0.0169 C   0  0  0  0  0  0  0  0  0  0  0  0
   -1.9347    2.5200    0.3119 O   0  0  0  0  0  0  0  0  0  0  0  0
   -0.4126    0.8023   -0.2121 C   0  0  0  0  0  0  0  0  0  0  0  0
   -0.0873   -0.5362    0.0261 C   0  0  0  0  0  0  0  0  0  0  0  0
    1.2172   -0.9982   -0.1934 C   0  0  0  0  0  0  0  0  0  0  0  0
    2.2124   -0.1093   -0.6471 C   0  0  0  0  0  0  0  0  0  0  0  0
    3.5309   -0.4321   -0.9011 N   0  0  0  0  0  0  0  0  0  0  0  0
    4.2148    0.6174   -1.3053 C   0  0  0  0  0  0  0  0  0  0  0  0
    5.5389    0.5618   -1.6227 N   0  0  0  0  0  0  0  0  0  0  0  0
    6.3000   -0.6591   -1.3285 C   0  0  0  0  0  0  0  0  0  0  0  0
    7.6943   -0.2922   -0.7951 C   0  0  0  0  0  0  0  0  0  0  0  0
    8.4739    0.5106   -1.6949 O   0  0  0  0  0  0  0  0  0  0  0  0
    7.6782    1.3087   -2.5822 C   0  0  0  0  0  0  0  0  0  0  0  0
    6.3281    1.7411   -1.9867 C   0  0  0  0  0  0  0  0  0  0  0  0
    3.2687    2.0658   -1.3977 S   0  0  0  0  0  0  0  0  0  0  0  0
    1.8735    1.2226   -0.8629 C   0  0  0  0  0  0  0  0  0  0  0  0
    0.5714    1.7040   -0.6480 C   0  0  0  0  0  0  0  0  0  0  0  0
   -7.2583   -0.1834   -1.1704 H   0  0  0  0  0  0  0  0  0  0  0  0
   -6.7435    1.4596   -0.7574 H   0  0  0  0  0  0  0  0  0  0  0  0
   -7.0213    0.2607    0.5213 H   0  0  0  0  0  0  0  0  0  0  0  0
   -5.0935   -1.0966   -0.3387 H   0  0  0  0  0  0  0  0  0  0  0  0
   -4.8949    0.0243   -1.6663 H   0  0  0  0  0  0  0  0  0  0  0  0
   -4.3442    1.8647   -0.0920 H   0  0  0  0  0  0  0  0  0  0  0  0
   -3.8123    1.5456    2.2239 H   0  0  0  0  0  0  0  0  0  0  0  0
   -5.4637    1.0574    1.9918 H   0  0  0  0  0  0  0  0  0  0  0  0
   -2.0674   -0.0175    2.8712 H   0  0  0  0  0  0  0  0  0  0  0  0
   -1.5258   -2.1846    3.9233 H   0  0  0  0  0  0  0  0  0  0  0  0
   -3.2524   -3.9600    4.0833 H   0  0  0  0  0  0  0  0  0  0  0  0
   -5.5315   -3.5544    3.1937 H   0  0  0  0  0  0  0  0  0  0  0  0
   -6.0905   -1.3962    2.1410 H   0  0  0  0  0  0  0  0  0  0  0  0
   -2.6487   -0.5208   -0.3101 H   0  0  0  0  0  0  0  0  0  0  0  0
   -0.8203   -1.2397    0.4103 H   0  0  0  0  0  0  0  0  0  0  0  0
    1.4757   -2.0368   -0.0094 H   0  0  0  0  0  0  0  0  0  0  0  0
    5.8032   -1.2922   -0.5838 H   0  0  0  0  0  0  0  0  0  0  0  0
    6.3956   -1.2392   -2.2540 H   0  0  0  0  0  0  0  0  0  0  0  0
    8.2687   -1.2001   -0.5847 H   0  0  0  0  0  0  0  0  0  0  0  0
    7.6053    0.2631    0.1462 H   0  0  0  0  0  0  0  0  0  0  0  0
    8.2697    2.1889   -2.8534 H   0  0  0  0  0  0  0  0  0  0  0  0
    7.5213    0.7287   -3.4999 H   0  0  0  0  0  0  0  0  0  0  0  0
    5.8080    2.3512   -2.7333 H   0  0  0  0  0  0  0  0  0  0  0  0
    6.5009    2.3490   -1.0899 H   0  0  0  0  0  0  0  0  0  0  0  0
    0.3312    2.7506   -0.8197 H   0  0  0  0  0  0  0  0  0  0  0  0
  1  2  1  0
  2  3  1  0
  3  4  1  0
  4  5  1  0
  5  6  2  0
  6  7  1  0
  7  8  2  0
  8  9  1  0
  9 10  2  0
  3 11  1  0
 11 12  1  0
 12 13  2  0
 12 14  1  0
 14 15  2  0
 15 16  1  0
 16 17  2  0
 17 18  1  0
 18 19  2  0
 19 20  1  0
 20 21  1  0
 21 22  1  0
 22 23  1  0
 23 24  1  0
 24 25  1  0
 19 26  1  0
 26 27  1  0
 27 28  2  0
 10  5  1  0
 28 14  1  0
 27 17  1  0
 25 20  1  0
  1 29  1  0
  1 30  1  0
  1 31  1  0
  2 32  1  0
  2 33  1  0
  3 34  1  0
  4 35  1  0
  4 36  1  0
  6 37  1  0
  7 38  1  0
  8 39  1  0
  9 40  1  0
 10 41  1  0
 11 42  1  0
 15 43  1  0
 16 44  1  0
 21 45  1  0
 21 46  1  0
 22 47  1  0
 22 48  1  0
 24 49  1  0
 24 50  1  0
 25 51  1  0
 25 52  1  0
 28 53  1  0
M  END
$$$$
