
     RDKit          3D

 45 47  0  0  0  0  0  0  0  0999 V2000
   -2.5633    1.9941    0.2322 O   0  0  0  0  0  0  0  0  0  0  0  0
   -2.2768    0.8990   -0.2454 C   0  0  0  0  0  0  0  0  0  0  0  0
   -1.0920    0.6893   -1.1935 C   0  0  0  0  0  0  0  0  0  0  0  0
   -0.1715    1.7768   -1.1752 O   0  0  0  0  0  0  0  0  0  0  0  0
    0.6043    1.8239   -0.0559 C   0  0  0  0  0  0  0  0  0  0  0  0
    0.5988    0.9796    0.8331 O   0  0  0  0  0  0  0  0  0  0  0  0
    1.4567    3.0686   -0.0242 C   0  0  0  0  0  0  0  0  0  0  0  0
    2.6132    3.1632   -1.4315 S   0  0  0  0  0  0  0  0  0  0  0  0
    3.4865    1.6122   -1.2879 C   0  0  0  0  0  0  0  0  0  0  0  0
    3.6583    0.8424   -2.4405 C   0  0  0  0  0  0  0  0  0  0  0  0
    4.3409   -0.3754   -2.3854 C   0  0  0  0  0  0  0  0  0  0  0  0
    4.8722   -0.8428   -1.1750 C   0  0  0  0  0  0  0  0  0  0  0  0
    5.5600   -2.0648   -1.1008 C   0  0  0  0  0  0  0  0  0  0  0  0
    6.0861   -2.5141    0.1113 C   0  0  0  0  0  0  0  0  0  0  0  0
    5.9319   -1.7479    1.2625 C   0  0  0  0  0  0  0  0  0  0  0  0
    5.2513   -0.5306    1.2047 C   0  0  0  0  0  0  0  0  0  0  0  0
    4.7151   -0.0637   -0.0065 C   0  0  0  0  0  0  0  0  0  0  0  0
    4.0283    1.1614   -0.0799 C   0  0  0  0  0  0  0  0  0  0  0  0
   -2.9992   -0.2513    0.0075 N   0  0  0  0  0  0  0  0  0  0  0  0
   -4.1911   -0.2261    0.8258 C   0  0  0  0  0  0  0  0  0  0  0  0
   -5.4246    0.2511    0.0618 C   0  0  0  0  0  0  0  0  0  0  0  0
   -6.6144   -0.3403    0.8166 C   0  0  0  0  0  0  0  0  0  0  0  0
   -6.0458   -1.4086    1.7499 C   0  0  0  0  0  0  0  0  0  0  0  0
   -4.6058   -1.6122    1.3033 C   0  0  0  0  0  0  0  0  0  0  0  0
   -1.4941    0.6203   -2.2099 H   0  0  0  0  0  0  0  0  0  0  0  0
   -0.5815   -0.2564   -0.9756 H   0  0  0  0  0  0  0  0  0  0  0  0
    2.0115    3.1021    0.9183 H   0  0  0  0  0  0  0  0  0  0  0  0
    0.7964    3.9417   -0.0386 H   0  0  0  0  0  0  0  0  0  0  0  0
    3.2611    1.1819   -3.3947 H   0  0  0  0  0  0  0  0  0  0  0  0
    4.4567   -0.9550   -3.2983 H   0  0  0  0  0  0  0  0  0  0  0  0
    5.6921   -2.6769   -1.9901 H   0  0  0  0  0  0  0  0  0  0  0  0
    6.6163   -3.4619    0.1553 H   0  0  0  0  0  0  0  0  0  0  0  0
    6.3402   -2.0965    2.2075 H   0  0  0  0  0  0  0  0  0  0  0  0
    5.1397    0.0519    2.1167 H   0  0  0  0  0  0  0  0  0  0  0  0
    3.9291    1.7636    0.8196 H   0  0  0  0  0  0  0  0  0  0  0  0
   -2.7772   -1.0956   -0.5041 H   0  0  0  0  0  0  0  0  0  0  0  0
   -4.0160    0.4303    1.6880 H   0  0  0  0  0  0  0  0  0  0  0  0
   -5.4167   -0.1289   -0.9677 H   0  0  0  0  0  0  0  0  0  0  0  0
   -5.4776    1.3430    0.0026 H   0  0  0  0  0  0  0  0  0  0  0  0
   -7.1380    0.4297    1.3937 H   0  0  0  0  0  0  0  0  0  0  0  0
   -7.3369   -0.7711    0.1150 H   0  0  0  0  0  0  0  0  0  0  0  0
   -6.0682   -1.0438    2.7836 H   0  0  0  0  0  0  0  0  0  0  0  0
   -6.6228   -2.3376    1.7145 H   0  0  0  0  0  0  0  0  0  0  0  0
   -4.5653   -2.3406    0.4836 H   0  0  0  0  0  0  0  0  0  0  0  0
   -3.9682   -1.9841    2.1112 H   0  0  0  0  0  0  0  0  0  0  0  0
  1  2  2  0
  2  3  1  0
  3  4  1  0
  4  5  1  0
  5  6  2  0
  5  7  1  0
  7  8  1  0
  8  9  1  0
  9 10  2  0
 10 11  1  0
 11 12  2  0
 12 13  1  0
 13 14  2  0
 14 15  1  0
 15 16  2  0
 16 17  1  0
 17 18  2  0
  2 19  1  0
 19 20  1  0
 20 21  1  0
 21 22  1  0
 22 23  1  0
 23 24  1  0
 18  9  1  0
 24 20  1  0
 17 12  1  0
  3 25  1  0
  3 26  1  0
  7 27  1  0
  7 28  1  0
 10 29  1  0
 11 30  1  0
 13 31  1  0
 14 32  1  0
 15 33  1  0
 16 34  1  0
 18 35  1  0
 19 36  1  0
 20 37  1  0
 21 38  1  0
 21 39  1  0
 22 40  1  0
 22 41  1  0
 23 42  1  0
 23 43  1  0
 24 44  1  0
 24 45  1  0
M  END
$$$$
