
     RDKit          3D

 28 29  0  0  0  0  0  0  0  0999 V2000
    4.4267    0.6871    1.7893 O   0  0  0  0  0  0  0  0  0  0  0  0
    4.3149   -0.0521    0.8291 C   0  0  0  0  0  0  0  0  0  0  0  0
    5.3917   -0.6108    0.2492 O   0  0  0  0  0  0  0  0  0  0  0  0
    3.0422   -0.4382    0.1746 C   0  0  0  0  0  0  0  0  0  0  0  0
    3.0061   -1.2910   -0.9320 C   0  0  0  0  0  0  0  0  0  0  0  0
    1.7823   -1.6183   -1.5123 C   0  0  0  0  0  0  0  0  0  0  0  0
    0.5959   -1.0937   -0.9905 C   0  0  0  0  0  0  0  0  0  0  0  0
    0.6079   -0.2439    0.1217 C   0  0  0  0  0  0  0  0  0  0  0  0
   -0.5548    0.3413    0.6559 N   0  0  0  0  0  0  0  0  0  0  0  0
   -1.8291    0.5950    0.1063 C   0  0  0  0  0  0  0  0  0  0  0  0
   -1.9833    0.8318   -1.2664 C   0  0  0  0  0  0  0  0  0  0  0  0
   -3.2513    1.0349   -1.7945 C   0  0  0  0  0  0  0  0  0  0  0  0
   -4.3816    1.0108   -1.0596 N   0  0  0  0  0  0  0  0  0  0  0  0
   -4.2374    0.7809    0.2660 C   0  0  0  0  0  0  0  0  0  0  0  0
   -3.0056    0.5759    0.8769 C   0  0  0  0  0  0  0  0  0  0  0  0
   -2.9896    0.3490    2.3122 N   0  0  0  0  0  4  0  0  0  0  0  0
   -1.9524    0.6324    2.9319 O   0  0  0  0  0  0  0  0  0  0  0  0
   -4.0178   -0.1030    2.8353 O   0  0  0  0  0  1  0  0  0  0  0  0
    1.8468    0.0812    0.6928 C   0  0  0  0  0  0  0  0  0  0  0  0
    6.1444   -0.2737    0.7793 H   0  0  0  0  0  0  0  0  0  0  0  0
    3.9215   -1.7056   -1.3470 H   0  0  0  0  0  0  0  0  0  0  0  0
    1.7488   -2.2875   -2.3687 H   0  0  0  0  0  0  0  0  0  0  0  0
   -0.3432   -1.3923   -1.4487 H   0  0  0  0  0  0  0  0  0  0  0  0
   -0.4846    0.5372    1.6591 H   0  0  0  0  0  0  0  0  0  0  0  0
   -1.1241    0.8930   -1.9269 H   0  0  0  0  0  0  0  0  0  0  0  0
   -3.3898    1.2313   -2.8547 H   0  0  0  0  0  0  0  0  0  0  0  0
   -5.1720    0.7732    0.8226 H   0  0  0  0  0  0  0  0  0  0  0  0
    1.8875    0.7551    1.5473 H   0  0  0  0  0  0  0  0  0  0  0  0
  1  2  2  0
  2  3  1  0
  2  4  1  0
  4  5  2  0
  5  6  1  0
  6  7  2  0
  7  8  1  0
  8  9  1  0
  9 10  1  0
 10 11  2  0
 11 12  1  0
 12 13  2  0
 13 14  1  0
 14 15  2  0
 15 16  1  0
 16 17  2  0
 16 18  1  0
  8 19  2  0
 19  4  1  0
 15 10  1  0
  3 20  1  0
  5 21  1  0
  6 22  1  0
  7 23  1  0
  9 24  1  0
 11 25  1  0
 12 26  1  0
 14 27  1  0
 19 28  1  0
M  CHG  2  16   1  18  -1
M  END
$$$$
