
     RDKit          3D

 58 62  0  0  0  0  0  0  0  0999 V2000
   -4.8256    3.8983   -2.6087 C   0  0  0  0  0  0  0  0  0  0  0  0
   -4.2305    2.6278   -2.8315 O   0  0  0  0  0  0  0  0  0  0  0  0
   -3.4465    2.1257   -1.8298 C   0  0  0  0  0  0  0  0  0  0  0  0
   -3.2599    2.6951   -0.5694 C   0  0  0  0  0  0  0  0  0  0  0  0
   -2.4293    2.0687    0.3683 C   0  0  0  0  0  0  0  0  0  0  0  0
   -1.7820    0.8661    0.0558 C   0  0  0  0  0  0  0  0  0  0  0  0
   -0.8762    0.2435    1.0661 C   0  0  0  0  0  0  0  0  0  0  0  0
   -0.2555    1.0138    1.8943 N   0  0  0  0  0  0  0  0  0  0  0  0
    0.7029    0.4112    2.8172 C   0  0  0  0  0  0  0  0  0  0  0  0
    1.9343   -0.0611    2.0436 C   0  0  0  0  0  0  0  0  0  0  0  0
    3.0007    0.5613    2.1153 O   0  0  0  0  0  0  0  0  0  0  0  0
    1.8257   -1.2445    1.3037 N   0  0  0  0  0  0  0  0  0  0  0  0
    3.0749   -1.7601    0.7368 C   0  0  0  0  0  0  0  0  0  0  0  0
    3.3333   -1.0562   -0.5956 C   0  0  0  0  0  0  0  0  0  0  0  0
    2.8588   -1.4535   -1.6598 O   0  0  0  0  0  0  0  0  0  0  0  0
    4.0835    0.1014   -0.4808 N   0  0  0  0  0  0  0  0  0  0  0  0
    4.1864    0.9959   -1.6079 C   0  0  0  0  0  0  0  0  0  0  0  0
    5.1138    2.0960   -1.2542 C   0  0  0  0  0  0  0  0  0  0  0  0
    6.4927    2.2158   -1.2349 C   0  0  0  0  0  0  0  0  0  0  0  0
    6.7703    3.5172   -0.7525 C   0  0  0  0  0  0  0  0  0  0  0  0
    5.5495    4.1100   -0.5229 C   0  0  0  0  0  0  0  0  0  0  0  0
    4.5384    3.2567   -0.8241 O   0  0  0  0  0  0  0  0  0  0  0  0
    0.5623   -1.8065    1.0881 C   0  0  0  0  0  0  0  0  0  0  0  0
    0.4732   -3.4880    0.8189 S   0  0  0  0  0  0  0  0  0  0  0  0
   -1.2158   -3.4836    0.9154 C   0  0  0  0  0  0  0  0  0  0  0  0
   -1.7383   -2.2110    1.0408 C   0  0  0  0  0  0  0  0  0  0  0  0
   -0.6910   -1.2093    1.0601 C   0  0  0  0  0  0  0  0  0  0  0  0
   -3.2201   -1.9887    1.2035 C   0  0  0  0  0  0  0  0  0  0  0  0
   -4.0447   -3.2389    0.8609 C   0  0  0  0  0  0  0  0  0  0  0  0
   -3.4163   -4.5180    1.4279 C   0  0  0  0  0  0  0  0  0  0  0  0
   -2.0130   -4.7488    0.8503 C   0  0  0  0  0  0  0  0  0  0  0  0
   -1.9525    0.3085   -1.2157 C   0  0  0  0  0  0  0  0  0  0  0  0
   -2.7902    0.9330   -2.1447 C   0  0  0  0  0  0  0  0  0  0  0  0
   -5.5084    3.8727   -1.7557 H   0  0  0  0  0  0  0  0  0  0  0  0
   -4.0642    4.6706   -2.4810 H   0  0  0  0  0  0  0  0  0  0  0  0
   -5.4110    4.1528   -3.4965 H   0  0  0  0  0  0  0  0  0  0  0  0
   -3.7381    3.6272   -0.2832 H   0  0  0  0  0  0  0  0  0  0  0  0
   -2.2855    2.5306    1.3432 H   0  0  0  0  0  0  0  0  0  0  0  0
    1.0287    1.1800    3.5262 H   0  0  0  0  0  0  0  0  0  0  0  0
    0.2764   -0.3962    3.4236 H   0  0  0  0  0  0  0  0  0  0  0  0
    3.9090   -1.5676    1.4250 H   0  0  0  0  0  0  0  0  0  0  0  0
    3.0582   -2.8419    0.5714 H   0  0  0  0  0  0  0  0  0  0  0  0
    4.0612    0.5453    0.4395 H   0  0  0  0  0  0  0  0  0  0  0  0
    3.1870    1.3779   -1.8300 H   0  0  0  0  0  0  0  0  0  0  0  0
    4.5401    0.4420   -2.4829 H   0  0  0  0  0  0  0  0  0  0  0  0
    7.2021    1.4514   -1.5157 H   0  0  0  0  0  0  0  0  0  0  0  0
    7.7337    3.9705   -0.5853 H   0  0  0  0  0  0  0  0  0  0  0  0
    5.2438    5.0817   -0.1513 H   0  0  0  0  0  0  0  0  0  0  0  0
   -3.5727   -1.1631    0.5812 H   0  0  0  0  0  0  0  0  0  0  0  0
   -3.4068   -1.7090    2.2476 H   0  0  0  0  0  0  0  0  0  0  0  0
   -5.0634   -3.1200    1.2458 H   0  0  0  0  0  0  0  0  0  0  0  0
   -4.1255   -3.3340   -0.2281 H   0  0  0  0  0  0  0  0  0  0  0  0
   -3.3603   -4.4404    2.5207 H   0  0  0  0  0  0  0  0  0  0  0  0
   -4.0501   -5.3824    1.1994 H   0  0  0  0  0  0  0  0  0  0  0  0
   -2.0971   -5.0669   -0.1963 H   0  0  0  0  0  0  0  0  0  0  0  0
   -1.5200   -5.5570    1.4030 H   0  0  0  0  0  0  0  0  0  0  0  0
   -1.4297   -0.5977   -1.5066 H   0  0  0  0  0  0  0  0  0  0  0  0
   -2.9207    0.4955   -3.1319 H   0  0  0  0  0  0  0  0  0  0  0  0
  1  2  1  0
  2  3  1  0
  3  4  2  0
  4  5  1  0
  5  6  2  0
  6  7  1  0
  7  8  2  0
  8  9  1  0
  9 10  1  0
 10 11  2  0
 10 12  1  0
 12 13  1  0
 13 14  1  0
 14 15  2  0
 14 16  1  0
 16 17  1  0
 17 18  1  0
 18 19  2  0
 19 20  1  0
 20 21  2  0
 21 22  1  0
 12 23  1  0
 23 24  1  0
 24 25  1  0
 25 26  2  0
 26 27  1  0
 26 28  1  0
 28 29  1  0
 29 30  1  0
 30 31  1  0
  6 32  1  0
 32 33  2  0
 33  3  1  0
 27  7  1  0
 22 18  1  0
 27 23  2  0
 31 25  1  0
  1 34  1  0
  1 35  1  0
  1 36  1  0
  4 37  1  0
  5 38  1  0
  9 39  1  0
  9 40  1  0
 13 41  1  0
 13 42  1  0
 16 43  1  0
 17 44  1  0
 17 45  1  0
 19 46  1  0
 20 47  1  0
 21 48  1  0
 28 49  1  0
 28 50  1  0
 29 51  1  0
 29 52  1  0
 30 53  1  0
 30 54  1  0
 31 55  1  0
 31 56  1  0
 32 57  1  0
 33 58  1  0
M  END
$$$$
