
     RDKit          3D

 69 71  0  0  0  0  0  0  0  0999 V2000
    8.4046    0.2345   -1.7066 C   0  0  0  0  0  0  0  0  0  0  0  0
    7.9239   -0.7248   -0.6284 C   0  0  0  0  0  0  0  0  0  0  0  0
    8.0015   -0.1426    0.7822 C   0  0  0  0  0  0  0  0  0  0  0  0
    7.1394    1.0950    1.0609 C   0  0  0  0  0  0  0  0  0  0  0  0
    5.6249    0.8556    1.0034 C   0  0  0  0  0  0  0  0  0  0  0  0
    5.0068    1.2222   -0.3491 C   0  0  0  0  0  0  0  0  0  0  0  0
    3.4969    0.9671   -0.4213 C   0  0  0  0  0  0  0  0  0  0  0  0
    2.6790    1.9243    0.4496 C   0  0  0  0  0  0  0  0  0  0  0  0
    1.1699    1.6900    0.3536 C   0  0  0  0  0  0  0  0  0  0  0  0
    0.5914    1.9765   -1.0303 C   0  0  0  0  0  0  0  0  0  0  0  0
   -0.8473    1.9367   -0.9793 O   0  0  0  0  0  0  0  0  0  0  0  0
   -1.4187    0.7051   -1.0812 C   0  0  0  0  0  0  0  0  0  0  0  0
   -0.8160   -0.3547   -1.2085 O   0  0  0  0  0  0  0  0  0  0  0  0
   -2.9339    0.8300   -0.9991 C   0  0  0  0  0  0  0  0  0  0  0  0
   -3.6174   -0.4905   -1.0157 N   0  0  0  0  0  0  0  0  0  0  0  0
   -3.3789   -1.5011   -0.1387 C   0  0  0  0  0  0  0  0  0  0  0  0
   -2.5056   -1.4746    1.1110 C   0  0  0  0  0  0  0  0  0  0  0  0
   -2.4577   -0.2035    1.7503 O   0  0  0  0  0  0  0  0  0  0  0  0
   -3.5265    0.1737    2.5169 C   0  0  0  0  0  0  0  0  0  0  0  0
   -3.3517    1.3865    3.1940 C   0  0  0  0  0  0  0  0  0  0  0  0
   -4.3737    1.9138    3.9896 C   0  0  0  0  0  0  0  0  0  0  0  0
   -5.5770    1.2266    4.1089 C   0  0  0  0  0  0  0  0  0  0  0  0
   -6.8454    1.8709    5.0751 Cl  0  0  0  0  0  0  0  0  0  0  0  0
   -5.7608    0.0163    3.4420 C   0  0  0  0  0  0  0  0  0  0  0  0
   -4.7363   -0.5122    2.6460 C   0  0  0  0  0  0  0  0  0  0  0  0
   -4.0947   -2.5696   -0.5682 N   0  0  0  0  0  4  0  0  0  0  0  0
   -4.0221   -3.9086    0.0144 C   0  0  0  0  0  0  0  0  0  0  0  0
   -4.9072   -2.2027   -1.6349 C   0  0  0  0  0  0  0  0  0  0  0  0
   -5.8671   -2.9160   -2.3495 C   0  0  0  0  0  0  0  0  0  0  0  0
   -6.5021   -2.2276   -3.3911 C   0  0  0  0  0  0  0  0  0  0  0  0
   -6.1827   -0.8919   -3.6953 C   0  0  0  0  0  0  0  0  0  0  0  0
   -5.2163   -0.1823   -2.9697 C   0  0  0  0  0  0  0  0  0  0  0  0
   -4.5928   -0.8738   -1.9313 C   0  0  0  0  0  0  0  0  0  0  0  0
    8.3931   -0.2598   -2.6848 H   0  0  0  0  0  0  0  0  0  0  0  0
    9.4279    0.5665   -1.5082 H   0  0  0  0  0  0  0  0  0  0  0  0
    7.7665    1.1203   -1.7756 H   0  0  0  0  0  0  0  0  0  0  0  0
    8.5548   -1.6227   -0.6644 H   0  0  0  0  0  0  0  0  0  0  0  0
    6.9060   -1.0596   -0.8486 H   0  0  0  0  0  0  0  0  0  0  0  0
    7.7323   -0.9275    1.4994 H   0  0  0  0  0  0  0  0  0  0  0  0
    9.0461    0.1165    0.9945 H   0  0  0  0  0  0  0  0  0  0  0  0
    7.4304    1.9307    0.4132 H   0  0  0  0  0  0  0  0  0  0  0  0
    7.3818    1.4145    2.0842 H   0  0  0  0  0  0  0  0  0  0  0  0
    5.1655    1.4854    1.7742 H   0  0  0  0  0  0  0  0  0  0  0  0
    5.3890   -0.1823    1.2648 H   0  0  0  0  0  0  0  0  0  0  0  0
    5.4783    0.6350   -1.1426 H   0  0  0  0  0  0  0  0  0  0  0  0
    5.2106    2.2769   -0.5757 H   0  0  0  0  0  0  0  0  0  0  0  0
    3.2812   -0.0705   -0.1383 H   0  0  0  0  0  0  0  0  0  0  0  0
    3.1954    1.0789   -1.4695 H   0  0  0  0  0  0  0  0  0  0  0  0
    2.9680    1.8053    1.4999 H   0  0  0  0  0  0  0  0  0  0  0  0
    2.9059    2.9613    0.1739 H   0  0  0  0  0  0  0  0  0  0  0  0
    0.6644    2.3322    1.0862 H   0  0  0  0  0  0  0  0  0  0  0  0
    0.9316    0.6625    0.6532 H   0  0  0  0  0  0  0  0  0  0  0  0
    0.9622    1.2832   -1.7929 H   0  0  0  0  0  0  0  0  0  0  0  0
    0.8655    2.9871   -1.3502 H   0  0  0  0  0  0  0  0  0  0  0  0
   -3.2251    1.3586   -0.0888 H   0  0  0  0  0  0  0  0  0  0  0  0
   -3.2607    1.4153   -1.8630 H   0  0  0  0  0  0  0  0  0  0  0  0
   -2.8418   -2.2617    1.7923 H   0  0  0  0  0  0  0  0  0  0  0  0
   -1.5036   -1.7373    0.7657 H   0  0  0  0  0  0  0  0  0  0  0  0
   -2.4115    1.9289    3.1116 H   0  0  0  0  0  0  0  0  0  0  0  0
   -4.2234    2.8554    4.5135 H   0  0  0  0  0  0  0  0  0  0  0  0
   -6.7027   -0.5193    3.5400 H   0  0  0  0  0  0  0  0  0  0  0  0
   -4.9352   -1.4554    2.1501 H   0  0  0  0  0  0  0  0  0  0  0  0
   -2.9855   -4.1360    0.2767 H   0  0  0  0  0  0  0  0  0  0  0  0
   -4.3642   -4.6608   -0.7007 H   0  0  0  0  0  0  0  0  0  0  0  0
   -4.6494   -3.9378    0.9097 H   0  0  0  0  0  0  0  0  0  0  0  0
   -6.1146   -3.9441   -2.1161 H   0  0  0  0  0  0  0  0  0  0  0  0
   -7.2637   -2.7384   -3.9815 H   0  0  0  0  0  0  0  0  0  0  0  0
   -6.7021   -0.3967   -4.5179 H   0  0  0  0  0  0  0  0  0  0  0  0
   -4.9794    0.8471   -3.2080 H   0  0  0  0  0  0  0  0  0  0  0  0
  1  2  1  0
  2  3  1  0
  3  4  1  0
  4  5  1  0
  5  6  1  0
  6  7  1  0
  7  8  1  0
  8  9  1  0
  9 10  1  0
 10 11  1  0
 11 12  1  0
 12 13  2  0
 12 14  1  0
 14 15  1  0
 15 16  1  0
 16 17  1  0
 17 18  1  0
 18 19  1  0
 19 20  2  0
 20 21  1  0
 21 22  2  0
 22 23  1  0
 22 24  1  0
 24 25  2  0
 16 26  2  0
 26 27  1  0
 26 28  1  0
 28 29  2  0
 29 30  1  0
 30 31  2  0
 31 32  1  0
 32 33  2  0
 33 15  1  0
 25 19  1  0
 33 28  1  0
  1 34  1  0
  1 35  1  0
  1 36  1  0
  2 37  1  0
  2 38  1  0
  3 39  1  0
  3 40  1  0
  4 41  1  0
  4 42  1  0
  5 43  1  0
  5 44  1  0
  6 45  1  0
  6 46  1  0
  7 47  1  0
  7 48  1  0
  8 49  1  0
  8 50  1  0
  9 51  1  0
  9 52  1  0
 10 53  1  0
 10 54  1  0
 14 55  1  0
 14 56  1  0
 17 57  1  0
 17 58  1  0
 20 59  1  0
 21 60  1  0
 24 61  1  0
 25 62  1  0
 27 63  1  0
 27 64  1  0
 27 65  1  0
 29 66  1  0
 30 67  1  0
 31 68  1  0
 32 69  1  0
M  CHG  1  26   1
M  END
$$$$
