
     RDKit          3D

 34 36  0  0  0  0  0  0  0  0999 V2000
    3.4798   -1.6938   -1.8528 C   0  0  0  0  0  0  0  0  0  0  0  0
    3.6740   -0.8717   -0.6139 C   0  0  0  0  0  0  0  0  0  0  0  0
    4.7349    0.0063   -0.5213 C   0  0  0  0  0  0  0  0  0  0  0  0
    4.8326    0.7182    0.6515 C   0  0  0  0  0  0  0  0  0  0  0  0
    3.9652    0.5948    1.6705 N   0  0  0  0  0  0  0  0  0  0  0  0
    2.9601   -0.2762    1.4896 C   0  0  0  0  0  0  0  0  0  0  0  0
    1.8095   -0.4941    2.8209 S   0  0  0  0  0  0  0  0  0  0  0  0
    0.3160    0.1473    2.1709 C   0  0  0  0  0  0  0  0  0  0  0  0
   -0.5034    1.0445    2.8804 C   0  0  0  0  0  0  0  0  0  0  0  0
   -1.5867    1.3417    2.0850 C   0  0  0  0  0  0  0  0  0  0  0  0
   -2.5244    2.2610    2.3184 O   0  0  0  0  0  0  0  0  0  0  0  0
   -1.5227    0.5433    0.9368 N   0  0  0  0  0  0  0  0  0  0  0  0
   -2.5363    0.4339   -0.0698 C   0  0  0  0  0  0  0  0  0  0  0  0
   -2.1960    0.1831   -1.4059 C   0  0  0  0  0  0  0  0  0  0  0  0
   -3.1926    0.0814   -2.3820 C   0  0  0  0  0  0  0  0  0  0  0  0
   -4.5313    0.2192   -2.0246 C   0  0  0  0  0  0  0  0  0  0  0  0
   -5.8758    0.0780   -3.3453 Br  0  0  0  0  0  0  0  0  0  0  0  0
   -4.8857    0.4536   -0.6985 C   0  0  0  0  0  0  0  0  0  0  0  0
   -3.8911    0.5584    0.2788 C   0  0  0  0  0  0  0  0  0  0  0  0
   -0.3020   -0.1403    0.9680 C   0  0  0  0  0  0  0  0  0  0  0  0
    0.0696   -0.9699   -0.0099 O   0  0  0  0  0  0  0  0  0  0  0  0
    2.7756   -1.0280    0.3825 N   0  0  0  0  0  0  0  0  0  0  0  0
    3.3339   -1.0421   -2.7199 H   0  0  0  0  0  0  0  0  0  0  0  0
    2.5995   -2.3378   -1.7587 H   0  0  0  0  0  0  0  0  0  0  0  0
    4.3522   -2.3320   -2.0242 H   0  0  0  0  0  0  0  0  0  0  0  0
    5.4540    0.1328   -1.3201 H   0  0  0  0  0  0  0  0  0  0  0  0
    5.6375    1.4301    0.8113 H   0  0  0  0  0  0  0  0  0  0  0  0
   -0.3094    1.4864    3.8491 H   0  0  0  0  0  0  0  0  0  0  0  0
   -2.9144    2.5347    1.4688 H   0  0  0  0  0  0  0  0  0  0  0  0
   -1.1597    0.0919   -1.7209 H   0  0  0  0  0  0  0  0  0  0  0  0
   -2.9101   -0.1054   -3.4149 H   0  0  0  0  0  0  0  0  0  0  0  0
   -5.9306    0.5396   -0.4111 H   0  0  0  0  0  0  0  0  0  0  0  0
   -4.2024    0.6820    1.3146 H   0  0  0  0  0  0  0  0  0  0  0  0
    0.9806   -1.2756    0.1967 H   0  0  0  0  0  0  0  0  0  0  0  0
  1  2  1  0
  2  3  2  0
  3  4  1  0
  4  5  2  0
  5  6  1  0
  6  7  1  0
  7  8  1  0
  8  9  1  0
  9 10  2  0
 10 11  1  0
 10 12  1  0
 12 13  1  0
 13 14  2  0
 14 15  1  0
 15 16  2  0
 16 17  1  0
 16 18  1  0
 18 19  2  0
 12 20  1  0
 20 21  1  0
  6 22  2  0
 22  2  1  0
 20  8  2  0
 19 13  1  0
  1 23  1  0
  1 24  1  0
  1 25  1  0
  3 26  1  0
  4 27  1  0
  9 28  1  0
 11 29  1  0
 14 30  1  0
 15 31  1  0
 18 32  1  0
 19 33  1  0
 21 34  1  0
M  END
$$$$
