
     RDKit          3D

 46 48  0  0  0  0  0  0  0  0999 V2000
   -1.5377   -0.3110   -3.5129 N   0  0  0  0  0  0  0  0  0  0  0  0
   -0.3987   -0.2029   -2.8043 C   0  0  0  0  0  0  0  0  0  0  0  0
    0.7645   -0.1561   -3.3834 N   0  0  0  0  0  0  0  0  0  0  0  0
    1.7212   -0.0255   -2.2543 C   0  0  0  0  0  0  0  0  0  0  0  0
    0.9210   -0.2939   -0.9633 C   0  0  0  0  0  0  0  0  0  0  0  0
    1.2432    0.7027    0.1538 C   0  0  0  0  0  0  0  0  0  0  0  0
    2.6414    0.5425    0.7034 C   0  0  0  0  0  0  0  0  0  0  0  0
    2.9498   -0.5285    1.5546 C   0  0  0  0  0  0  0  0  0  0  0  0
    4.2442   -0.6850    2.0516 C   0  0  0  0  0  0  0  0  0  0  0  0
    5.2319    0.2264    1.7004 C   0  0  0  0  0  0  0  0  0  0  0  0
    6.4826    0.0345    2.2079 O   0  0  0  0  0  0  0  0  0  0  0  0
    4.9470    1.2964    0.8593 C   0  0  0  0  0  0  0  0  0  0  0  0
    3.6512    1.4538    0.3621 C   0  0  0  0  0  0  0  0  0  0  0  0
   -0.4677   -0.1593   -1.4395 N   0  0  0  0  0  0  0  0  0  0  0  0
   -1.4945   -0.8867   -0.6827 C   0  0  0  0  0  0  0  0  0  0  0  0
   -2.7397   -0.0128   -0.4115 C   0  0  0  0  0  0  0  0  0  0  0  0
   -3.9287   -0.8757    0.0496 C   0  0  0  0  0  0  0  0  0  0  0  0
   -3.7768   -1.3892    1.4794 C   0  0  0  0  0  0  0  0  0  0  0  0
   -3.5350   -0.2460    2.4592 C   0  0  0  0  0  0  0  0  0  0  0  0
   -2.3446    0.6117    2.0436 C   0  0  0  0  0  0  0  0  0  0  0  0
   -2.4795    1.1123    0.6058 C   0  0  0  0  0  0  0  0  0  0  0  0
   -2.2267    0.3747   -3.2378 H   0  0  0  0  0  0  0  0  0  0  0  0
   -1.3280   -0.2133   -4.5015 H   0  0  0  0  0  0  0  0  0  0  0  0
    2.5346   -0.7500   -2.3665 H   0  0  0  0  0  0  0  0  0  0  0  0
    2.1513    0.9815   -2.2829 H   0  0  0  0  0  0  0  0  0  0  0  0
    1.1034   -1.3281   -0.6416 H   0  0  0  0  0  0  0  0  0  0  0  0
    1.0893    1.7323   -0.1952 H   0  0  0  0  0  0  0  0  0  0  0  0
    0.5422    0.5744    0.9861 H   0  0  0  0  0  0  0  0  0  0  0  0
    2.1849   -1.2473    1.8399 H   0  0  0  0  0  0  0  0  0  0  0  0
    4.4816   -1.5148    2.7112 H   0  0  0  0  0  0  0  0  0  0  0  0
    7.0624    0.7389    1.8753 H   0  0  0  0  0  0  0  0  0  0  0  0
    5.7128    2.0134    0.5807 H   0  0  0  0  0  0  0  0  0  0  0  0
    3.4357    2.2935   -0.2957 H   0  0  0  0  0  0  0  0  0  0  0  0
   -1.7783   -1.7899   -1.2380 H   0  0  0  0  0  0  0  0  0  0  0  0
   -1.0786   -1.2440    0.2663 H   0  0  0  0  0  0  0  0  0  0  0  0
   -3.0410    0.4675   -1.3485 H   0  0  0  0  0  0  0  0  0  0  0  0
   -4.8444   -0.2729   -0.0104 H   0  0  0  0  0  0  0  0  0  0  0  0
   -4.0725   -1.7216   -0.6331 H   0  0  0  0  0  0  0  0  0  0  0  0
   -2.9480   -2.1047    1.5345 H   0  0  0  0  0  0  0  0  0  0  0  0
   -4.6826   -1.9336    1.7701 H   0  0  0  0  0  0  0  0  0  0  0  0
   -3.3664   -0.6498    3.4639 H   0  0  0  0  0  0  0  0  0  0  0  0
   -4.4332    0.3814    2.5150 H   0  0  0  0  0  0  0  0  0  0  0  0
   -1.4233    0.0304    2.1571 H   0  0  0  0  0  0  0  0  0  0  0  0
   -2.2583    1.4691    2.7210 H   0  0  0  0  0  0  0  0  0  0  0  0
   -3.3212    1.8166    0.5651 H   0  0  0  0  0  0  0  0  0  0  0  0
   -1.5909    1.6884    0.3268 H   0  0  0  0  0  0  0  0  0  0  0  0
  1  2  1  0
  2  3  2  0
  3  4  1  0
  4  5  1  0
  5  6  1  0
  6  7  1  0
  7  8  2  0
  8  9  1  0
  9 10  2  0
 10 11  1  0
 10 12  1  0
 12 13  2  0
  5 14  1  0
 14 15  1  0
 15 16  1  0
 16 17  1  0
 17 18  1  0
 18 19  1  0
 19 20  1  0
 20 21  1  0
 14  2  1  0
 21 16  1  0
 13  7  1  0
  1 22  1  0
  1 23  1  0
  4 24  1  0
  4 25  1  0
  5 26  1  0
  6 27  1  0
  6 28  1  0
  8 29  1  0
  9 30  1  0
 11 31  1  0
 12 32  1  0
 13 33  1  0
 15 34  1  0
 15 35  1  0
 16 36  1  0
 17 37  1  0
 17 38  1  0
 18 39  1  0
 18 40  1  0
 19 41  1  0
 19 42  1  0
 20 43  1  0
 20 44  1  0
 21 45  1  0
 21 46  1  0
M  END
$$$$
