
     RDKit          3D

 40 42  0  0  0  0  0  0  0  0999 V2000
    6.2013    0.3392   -0.7632 C   0  0  0  0  0  0  0  0  0  0  0  0
    5.5447    0.2116    0.6028 C   0  0  0  0  0  0  0  0  0  0  0  0
    4.0404    0.1902    0.5020 C   0  0  0  0  0  0  0  0  0  0  0  0
    3.3560   -1.0204    0.3358 C   0  0  0  0  0  0  0  0  0  0  0  0
    1.9622   -1.0415    0.2234 C   0  0  0  0  0  0  0  0  0  0  0  0
    1.2365    0.1529    0.2737 C   0  0  0  0  0  0  0  0  0  0  0  0
   -0.2414    0.1667    0.1617 C   0  0  0  0  0  0  0  0  0  0  0  0
   -0.9380    1.2610    0.1483 N   0  0  0  0  0  0  0  0  0  0  0  0
   -2.3685    0.8470   -0.0003 N   0  0  0  0  0  0  0  0  0  0  0  0
   -3.5612    1.8296    0.7306 S   0  0  0  0  0  6  0  0  0  0  0  0
   -2.9449    1.9475    2.3975 C   0  0  0  0  0  0  0  0  0  0  0  0
   -3.4975    3.1552    0.1495 O   0  0  0  0  0  0  0  0  0  0  0  0
   -4.8098    1.0965    0.7813 O   0  0  0  0  0  0  0  0  0  0  0  0
   -2.4846   -0.6199    0.1808 C   0  0  0  0  0  0  0  0  0  0  0  0
   -3.3566   -1.2305   -0.8799 C   0  0  0  0  0  0  0  0  0  0  0  0
   -3.6515   -0.7696   -2.1506 C   0  0  0  0  0  0  0  0  0  0  0  0
   -4.5194   -1.6468   -2.8618 C   0  0  0  0  0  0  0  0  0  0  0  0
   -4.8572   -2.7532   -2.1166 C   0  0  0  0  0  0  0  0  0  0  0  0
   -4.1297   -2.7329   -0.5705 S   0  0  0  0  0  0  0  0  0  0  0  0
   -1.0369   -1.1073    0.0501 C   0  0  0  0  0  0  0  0  0  0  0  0
    1.9174    1.3658    0.4289 C   0  0  0  0  0  0  0  0  0  0  0  0
    3.3099    1.3837    0.5408 C   0  0  0  0  0  0  0  0  0  0  0  0
    5.8972    1.2638   -1.2655 H   0  0  0  0  0  0  0  0  0  0  0  0
    5.9323   -0.5002   -1.4134 H   0  0  0  0  0  0  0  0  0  0  0  0
    7.2909    0.3521   -0.6596 H   0  0  0  0  0  0  0  0  0  0  0  0
    5.8596    1.0434    1.2447 H   0  0  0  0  0  0  0  0  0  0  0  0
    5.8940   -0.7025    1.0982 H   0  0  0  0  0  0  0  0  0  0  0  0
    3.9080   -1.9574    0.2884 H   0  0  0  0  0  0  0  0  0  0  0  0
    1.4730   -2.0016    0.0896 H   0  0  0  0  0  0  0  0  0  0  0  0
   -2.8673    0.9473    2.8263 H   0  0  0  0  0  0  0  0  0  0  0  0
   -1.9769    2.4511    2.3917 H   0  0  0  0  0  0  0  0  0  0  0  0
   -3.6596    2.5385    2.9750 H   0  0  0  0  0  0  0  0  0  0  0  0
   -2.8541   -0.8467    1.1880 H   0  0  0  0  0  0  0  0  0  0  0  0
   -3.2700    0.1646   -2.5487 H   0  0  0  0  0  0  0  0  0  0  0  0
   -4.8827   -1.4695   -3.8666 H   0  0  0  0  0  0  0  0  0  0  0  0
   -5.5017   -3.5725   -2.4043 H   0  0  0  0  0  0  0  0  0  0  0  0
   -0.8229   -1.5804   -0.9147 H   0  0  0  0  0  0  0  0  0  0  0  0
   -0.7857   -1.8013    0.8581 H   0  0  0  0  0  0  0  0  0  0  0  0
    1.3739    2.3083    0.4585 H   0  0  0  0  0  0  0  0  0  0  0  0
    3.8206    2.3380    0.6544 H   0  0  0  0  0  0  0  0  0  0  0  0
  1  2  1  0
  2  3  1  0
  3  4  2  0
  4  5  1  0
  5  6  2  0
  6  7  1  0
  7  8  2  0
  8  9  1  0
  9 10  1  0
 10 11  1  0
 10 12  2  0
 10 13  2  0
  9 14  1  0
 14 15  1  0
 15 16  2  0
 16 17  1  0
 17 18  2  0
 18 19  1  0
 14 20  1  0
  6 21  1  0
 21 22  2  0
 22  3  1  0
 20  7  1  0
 19 15  1  0
  1 23  1  0
  1 24  1  0
  1 25  1  0
  2 26  1  0
  2 27  1  0
  4 28  1  0
  5 29  1  0
 11 30  1  0
 11 31  1  0
 11 32  1  0
 14 33  1  0
 16 34  1  0
 17 35  1  0
 18 36  1  0
 20 37  1  0
 20 38  1  0
 21 39  1  0
 22 40  1  0
M  END
$$$$
