
     RDKit          3D

 38 39  0  0  0  0  0  0  0  0999 V2000
   -3.3335   -1.4128    2.1095 O   0  0  0  0  0  0  0  0  0  0  0  0
   -3.6007   -2.1840    1.2032 C   0  0  0  0  0  0  0  0  0  0  0  0
   -4.8760   -2.3698    0.8112 O   0  0  0  0  0  0  0  0  0  0  0  0
   -2.6206   -2.9689    0.3818 C   0  0  0  0  0  0  0  0  0  0  0  0
   -2.2924   -2.2269   -0.9057 C   0  0  0  0  0  0  0  0  0  0  0  0
   -1.1964   -1.2004   -0.6777 C   0  0  0  0  0  0  0  0  0  0  0  0
   -0.0025   -1.6285   -0.3937 N   0  0  0  0  0  0  0  0  0  0  0  0
    0.9930   -0.7153   -0.2158 N   0  0  0  0  0  0  0  0  0  0  0  0
    2.2893   -1.1367    0.0185 C   0  0  0  0  0  0  0  0  0  0  0  0
    2.6568   -2.3025    0.1326 O   0  0  0  0  0  0  0  0  0  0  0  0
    3.2872   -0.0513    0.2108 C   0  0  0  0  0  0  0  0  0  0  0  0
    4.1842   -0.2245    1.2798 C   0  0  0  0  0  0  0  0  0  0  0  0
    5.1493    0.7423    1.5647 C   0  0  0  0  0  0  0  0  0  0  0  0
    5.2337    1.8887    0.7798 C   0  0  0  0  0  0  0  0  0  0  0  0
    4.3611    2.0633   -0.2962 C   0  0  0  0  0  0  0  0  0  0  0  0
    3.3893    1.0958   -0.5891 C   0  0  0  0  0  0  0  0  0  0  0  0
    2.3097    1.4169   -2.1201 Br  0  0  0  0  0  0  0  0  0  0  0  0
   -1.5886    0.2176   -0.8144 C   0  0  0  0  0  0  0  0  0  0  0  0
   -1.7616    0.9971    0.3310 C   0  0  0  0  0  0  0  0  0  0  0  0
   -2.1077    2.3403    0.1953 C   0  0  0  0  0  0  0  0  0  0  0  0
   -2.2739    2.8934   -1.0764 C   0  0  0  0  0  0  0  0  0  0  0  0
   -2.0951    2.1067   -2.2170 C   0  0  0  0  0  0  0  0  0  0  0  0
   -1.7509    0.7617   -2.0896 C   0  0  0  0  0  0  0  0  0  0  0  0
   -5.3985   -1.8009    1.4146 H   0  0  0  0  0  0  0  0  0  0  0  0
   -1.7357   -3.1718    0.9956 H   0  0  0  0  0  0  0  0  0  0  0  0
   -3.0721   -3.9419    0.1554 H   0  0  0  0  0  0  0  0  0  0  0  0
   -3.1825   -1.7517   -1.3325 H   0  0  0  0  0  0  0  0  0  0  0  0
   -1.9139   -2.9390   -1.6496 H   0  0  0  0  0  0  0  0  0  0  0  0
    0.7926    0.2720   -0.3294 H   0  0  0  0  0  0  0  0  0  0  0  0
    4.1271   -1.1213    1.8961 H   0  0  0  0  0  0  0  0  0  0  0  0
    5.8354    0.5959    2.3960 H   0  0  0  0  0  0  0  0  0  0  0  0
    5.9876    2.6421    0.9974 H   0  0  0  0  0  0  0  0  0  0  0  0
    4.4564    2.9565   -0.9101 H   0  0  0  0  0  0  0  0  0  0  0  0
   -1.6330    0.5640    1.3207 H   0  0  0  0  0  0  0  0  0  0  0  0
   -2.2513    2.9554    1.0808 H   0  0  0  0  0  0  0  0  0  0  0  0
   -2.5444    3.9424   -1.1790 H   0  0  0  0  0  0  0  0  0  0  0  0
   -2.2214    2.5447   -3.2039 H   0  0  0  0  0  0  0  0  0  0  0  0
   -1.6000    0.1512   -2.9764 H   0  0  0  0  0  0  0  0  0  0  0  0
  1  2  2  0
  2  3  1  0
  2  4  1  0
  4  5  1  0
  5  6  1  0
  6  7  2  3
  7  8  1  0
  8  9  1  0
  9 10  2  0
  9 11  1  0
 11 12  2  0
 12 13  1  0
 13 14  2  0
 14 15  1  0
 15 16  2  0
 16 17  1  0
  6 18  1  0
 18 19  2  0
 19 20  1  0
 20 21  2  0
 21 22  1  0
 22 23  2  0
 16 11  1  0
 23 18  1  0
  3 24  1  0
  4 25  1  0
  4 26  1  0
  5 27  1  0
  5 28  1  0
  8 29  1  0
 12 30  1  0
 13 31  1  0
 14 32  1  0
 15 33  1  0
 19 34  1  0
 20 35  1  0
 21 36  1  0
 22 37  1  0
 23 38  1  0
M  END
$$$$
