
     RDKit          3D

 54 57  0  0  0  0  0  0  0  0999 V2000
   -7.7455   -1.5181    2.1999 C   0  0  0  0  0  0  0  0  0  0  0  0
   -7.0647   -0.3171    2.5395 O   0  0  0  0  0  0  0  0  0  0  0  0
   -5.8757   -0.0797    1.9090 C   0  0  0  0  0  0  0  0  0  0  0  0
   -5.2416    1.1040    2.2807 C   0  0  0  0  0  0  0  0  0  0  0  0
   -4.0171    1.4669    1.7106 C   0  0  0  0  0  0  0  0  0  0  0  0
   -3.3937    0.6422    0.7590 C   0  0  0  0  0  0  0  0  0  0  0  0
   -2.1400    1.0560    0.2073 N   0  0  0  0  0  0  0  0  0  0  0  0
   -1.7061    2.3290    0.4495 N   0  0  0  0  0  0  0  0  0  0  0  0
   -0.5884    2.4678   -0.2574 C   0  0  0  0  0  0  0  0  0  0  0  0
   -0.2256    1.2881   -0.9135 C   0  0  0  0  0  0  0  0  0  0  0  0
   -1.2153    0.3792   -0.5814 C   0  0  0  0  0  0  0  0  0  0  0  0
   -1.2283   -1.0490   -1.0169 C   0  0  0  0  0  0  0  0  0  0  0  0
    0.1669   -1.5032   -1.5488 C   0  0  0  0  0  0  0  0  0  0  0  0
    1.0838   -1.8820   -0.3681 C   0  0  0  0  0  0  0  0  0  0  0  0
   -0.0231   -2.7669   -2.4128 C   0  0  0  0  0  0  0  0  0  0  0  0
    0.8115   -0.3935   -2.4392 C   0  0  0  0  0  0  0  0  0  0  0  0
    0.9603    0.9897   -1.7608 C   0  0  0  0  0  0  0  0  0  0  0  0
    2.1356    1.0676   -0.9237 N   0  0  0  0  0  0  0  0  0  0  0  0
    3.4068    1.2023   -1.4343 C   0  0  0  0  0  0  0  0  0  0  0  0
    3.6573    1.3414   -2.6252 O   0  0  0  0  0  0  0  0  0  0  0  0
    4.4874    1.1564   -0.4109 C   0  0  0  0  0  0  0  0  0  0  0  0
    5.8116    1.3063   -0.7881 C   0  0  0  0  0  0  0  0  0  0  0  0
    6.8278    1.2666    0.1121 N   0  0  0  0  0  0  0  0  0  0  0  0
    6.4670    1.0715    1.4058 C   0  0  0  0  0  0  0  0  0  0  0  0
    7.5509    1.0221    2.4365 C   0  0  0  0  0  0  0  0  0  0  0  0
    5.1310    0.9208    1.7733 C   0  0  0  0  0  0  0  0  0  0  0  0
    4.1091    0.9564    0.8847 N   0  0  0  0  0  0  0  0  0  0  0  0
   -4.0435   -0.5358    0.3779 C   0  0  0  0  0  0  0  0  0  0  0  0
   -5.2742   -0.8949    0.9523 C   0  0  0  0  0  0  0  0  0  0  0  0
   -8.6652   -1.5598    2.7914 H   0  0  0  0  0  0  0  0  0  0  0  0
   -7.1453   -2.3977    2.4548 H   0  0  0  0  0  0  0  0  0  0  0  0
   -8.0294   -1.5253    1.1424 H   0  0  0  0  0  0  0  0  0  0  0  0
   -5.7018    1.7548    3.0205 H   0  0  0  0  0  0  0  0  0  0  0  0
   -3.5571    2.4003    2.0320 H   0  0  0  0  0  0  0  0  0  0  0  0
   -0.0735    3.4203   -0.2455 H   0  0  0  0  0  0  0  0  0  0  0  0
   -1.9668   -1.1486   -1.8225 H   0  0  0  0  0  0  0  0  0  0  0  0
   -1.5262   -1.7065   -0.1926 H   0  0  0  0  0  0  0  0  0  0  0  0
    2.0998   -2.1035   -0.7133 H   0  0  0  0  0  0  0  0  0  0  0  0
    0.7091   -2.7743    0.1471 H   0  0  0  0  0  0  0  0  0  0  0  0
    1.1457   -1.0904    0.3834 H   0  0  0  0  0  0  0  0  0  0  0  0
    0.9386   -3.1416   -2.7813 H   0  0  0  0  0  0  0  0  0  0  0  0
   -0.6558   -2.5619   -3.2838 H   0  0  0  0  0  0  0  0  0  0  0  0
   -0.4988   -3.5707   -1.8396 H   0  0  0  0  0  0  0  0  0  0  0  0
    1.7802   -0.7367   -2.8240 H   0  0  0  0  0  0  0  0  0  0  0  0
    0.1663   -0.2583   -3.3197 H   0  0  0  0  0  0  0  0  0  0  0  0
    1.0609    1.7510   -2.5444 H   0  0  0  0  0  0  0  0  0  0  0  0
    2.0624    0.9081    0.0782 H   0  0  0  0  0  0  0  0  0  0  0  0
    6.0989    1.4625   -1.8224 H   0  0  0  0  0  0  0  0  0  0  0  0
    7.4091    1.8189    3.1733 H   0  0  0  0  0  0  0  0  0  0  0  0
    8.5341    1.1562    1.9742 H   0  0  0  0  0  0  0  0  0  0  0  0
    7.5437    0.0543    2.9473 H   0  0  0  0  0  0  0  0  0  0  0  0
    4.8442    0.7652    2.8087 H   0  0  0  0  0  0  0  0  0  0  0  0
   -3.6576   -1.1940   -0.3883 H   0  0  0  0  0  0  0  0  0  0  0  0
   -5.7396   -1.8167    0.6182 H   0  0  0  0  0  0  0  0  0  0  0  0
  1  2  1  0
  2  3  1  0
  3  4  2  0
  4  5  1  0
  5  6  2  0
  6  7  1  0
  7  8  1  0
  8  9  2  0
  9 10  1  0
 10 11  2  0
 11 12  1  0
 12 13  1  0
 13 14  1  0
 13 15  1  0
 13 16  1  0
 16 17  1  0
 17 18  1  0
 18 19  1  0
 19 20  2  0
 19 21  1  0
 21 22  2  0
 22 23  1  0
 23 24  2  0
 24 25  1  0
 24 26  1  0
 26 27  2  0
  6 28  1  0
 28 29  2  0
 29  3  1  0
 11  7  1  0
 27 21  1  0
 17 10  1  0
  1 30  1  0
  1 31  1  0
  1 32  1  0
  4 33  1  0
  5 34  1  0
  9 35  1  0
 12 36  1  0
 12 37  1  0
 14 38  1  0
 14 39  1  0
 14 40  1  0
 15 41  1  0
 15 42  1  0
 15 43  1  0
 16 44  1  0
 16 45  1  0
 17 46  1  0
 18 47  1  0
 22 48  1  0
 25 49  1  0
 25 50  1  0
 25 51  1  0
 26 52  1  0
 28 53  1  0
 29 54  1  0
M  END
$$$$
