
     RDKit          3D

 69 71  0  0  0  0  0  0  0  0999 V2000
    9.1085    0.7292    0.5683 C   0  0  0  0  0  0  0  0  0  0  0  0
    8.2758    0.5979   -0.6971 C   0  0  0  0  0  0  0  0  0  0  0  0
    7.0314    1.4855   -0.6436 C   0  0  0  0  0  0  0  0  0  0  0  0
    6.1999    1.3510   -1.9208 C   0  0  0  0  0  0  0  0  0  0  0  0
    5.0027    2.3053   -1.9743 C   0  0  0  0  0  0  0  0  0  0  0  0
    3.9816    2.1682   -0.8394 C   0  0  0  0  0  0  0  0  0  0  0  0
    3.3312    0.7844   -0.7696 C   0  0  0  0  0  0  0  0  0  0  0  0
    2.3116    0.6501    0.3668 C   0  0  0  0  0  0  0  0  0  0  0  0
    1.0445    1.4844    0.1519 C   0  0  0  0  0  0  0  0  0  0  0  0
    0.0304    1.2895    1.2782 C   0  0  0  0  0  0  0  0  0  0  0  0
   -0.3722   -0.0873    1.3835 O   0  0  0  0  0  0  0  0  0  0  0  0
   -1.3993   -0.4703    0.5769 C   0  0  0  0  0  0  0  0  0  0  0  0
   -1.9707    0.2431   -0.2385 O   0  0  0  0  0  0  0  0  0  0  0  0
   -1.7260   -1.9404    0.8115 C   0  0  0  0  0  0  0  0  0  0  0  0
   -3.0244   -2.3126    0.1963 N   0  0  0  0  0  0  0  0  0  0  0  0
   -4.2287   -2.2481    0.8123 C   0  0  0  0  0  0  0  0  0  0  0  0
   -4.5178   -1.8413    2.2504 C   0  0  0  0  0  0  0  0  0  0  0  0
   -3.6208   -0.8678    2.7720 O   0  0  0  0  0  0  0  0  0  0  0  0
   -3.9520    0.4475    2.6093 C   0  0  0  0  0  0  0  0  0  0  0  0
   -3.3173    1.3217    3.4972 C   0  0  0  0  0  0  0  0  0  0  0  0
   -3.5377    2.6982    3.4181 C   0  0  0  0  0  0  0  0  0  0  0  0
   -4.3883    3.2028    2.4395 C   0  0  0  0  0  0  0  0  0  0  0  0
   -4.6568    4.8960    2.3280 Cl  0  0  0  0  0  0  0  0  0  0  0  0
   -5.0159    2.3403    1.5426 C   0  0  0  0  0  0  0  0  0  0  0  0
   -4.7965    0.9606    1.6237 C   0  0  0  0  0  0  0  0  0  0  0  0
   -5.1554   -2.6600   -0.0879 N   0  0  0  0  0  4  0  0  0  0  0  0
   -6.5810   -2.8157    0.1971 C   0  0  0  0  0  0  0  0  0  0  0  0
   -4.5552   -2.8785   -1.3254 C   0  0  0  0  0  0  0  0  0  0  0  0
   -5.0867   -3.2466   -2.5604 C   0  0  0  0  0  0  0  0  0  0  0  0
   -4.1720   -3.3773   -3.6137 C   0  0  0  0  0  0  0  0  0  0  0  0
   -2.7963   -3.1463   -3.4308 C   0  0  0  0  0  0  0  0  0  0  0  0
   -2.2718   -2.7761   -2.1857 C   0  0  0  0  0  0  0  0  0  0  0  0
   -3.1892   -2.6535   -1.1435 C   0  0  0  0  0  0  0  0  0  0  0  0
    9.4506    1.7599    0.7073 H   0  0  0  0  0  0  0  0  0  0  0  0
    8.5305    0.4365    1.4509 H   0  0  0  0  0  0  0  0  0  0  0  0
    9.9905    0.0836    0.5103 H   0  0  0  0  0  0  0  0  0  0  0  0
    7.9800   -0.4499   -0.8263 H   0  0  0  0  0  0  0  0  0  0  0  0
    8.8918    0.8704   -1.5620 H   0  0  0  0  0  0  0  0  0  0  0  0
    7.3315    2.5314   -0.5085 H   0  0  0  0  0  0  0  0  0  0  0  0
    6.4299    1.2037    0.2279 H   0  0  0  0  0  0  0  0  0  0  0  0
    5.8618    0.3151   -2.0379 H   0  0  0  0  0  0  0  0  0  0  0  0
    6.8388    1.5632   -2.7875 H   0  0  0  0  0  0  0  0  0  0  0  0
    5.3754    3.3373   -1.9786 H   0  0  0  0  0  0  0  0  0  0  0  0
    4.4881    2.1613   -2.9327 H   0  0  0  0  0  0  0  0  0  0  0  0
    4.4533    2.4069    0.1204 H   0  0  0  0  0  0  0  0  0  0  0  0
    3.2099    2.9295   -1.0002 H   0  0  0  0  0  0  0  0  0  0  0  0
    4.1053    0.0259   -0.6074 H   0  0  0  0  0  0  0  0  0  0  0  0
    2.8506    0.5490   -1.7267 H   0  0  0  0  0  0  0  0  0  0  0  0
    2.7821    0.9273    1.3180 H   0  0  0  0  0  0  0  0  0  0  0  0
    2.0369   -0.4088    0.4475 H   0  0  0  0  0  0  0  0  0  0  0  0
    1.2944    2.5487    0.0947 H   0  0  0  0  0  0  0  0  0  0  0  0
    0.5920    1.1988   -0.8049 H   0  0  0  0  0  0  0  0  0  0  0  0
    0.4774    1.5660    2.2393 H   0  0  0  0  0  0  0  0  0  0  0  0
   -0.8413    1.9394    1.1366 H   0  0  0  0  0  0  0  0  0  0  0  0
   -1.7610   -2.1637    1.8804 H   0  0  0  0  0  0  0  0  0  0  0  0
   -0.9363   -2.5526    0.3645 H   0  0  0  0  0  0  0  0  0  0  0  0
   -5.5653   -1.5361    2.3293 H   0  0  0  0  0  0  0  0  0  0  0  0
   -4.3841   -2.7676    2.8176 H   0  0  0  0  0  0  0  0  0  0  0  0
   -2.6469    0.9346    4.2622 H   0  0  0  0  0  0  0  0  0  0  0  0
   -3.0436    3.3679    4.1178 H   0  0  0  0  0  0  0  0  0  0  0  0
   -5.6672    2.7409    0.7689 H   0  0  0  0  0  0  0  0  0  0  0  0
   -5.2785    0.3353    0.8812 H   0  0  0  0  0  0  0  0  0  0  0  0
   -7.0748   -3.4042   -0.5788 H   0  0  0  0  0  0  0  0  0  0  0  0
   -7.0383   -1.8246    0.2518 H   0  0  0  0  0  0  0  0  0  0  0  0
   -6.7026   -3.3361    1.1508 H   0  0  0  0  0  0  0  0  0  0  0  0
   -6.1455   -3.4187   -2.7065 H   0  0  0  0  0  0  0  0  0  0  0  0
   -4.5339   -3.6605   -4.6030 H   0  0  0  0  0  0  0  0  0  0  0  0
   -2.1232   -3.2537   -4.2825 H   0  0  0  0  0  0  0  0  0  0  0  0
   -1.2140   -2.5893   -2.0502 H   0  0  0  0  0  0  0  0  0  0  0  0
  1  2  1  0
  2  3  1  0
  3  4  1  0
  4  5  1  0
  5  6  1  0
  6  7  1  0
  7  8  1  0
  8  9  1  0
  9 10  1  0
 10 11  1  0
 11 12  1  0
 12 13  2  0
 12 14  1  0
 14 15  1  0
 15 16  1  0
 16 17  1  0
 17 18  1  0
 18 19  1  0
 19 20  2  0
 20 21  1  0
 21 22  2  0
 22 23  1  0
 22 24  1  0
 24 25  2  0
 16 26  2  0
 26 27  1  0
 26 28  1  0
 28 29  2  0
 29 30  1  0
 30 31  2  0
 31 32  1  0
 32 33  2  0
 33 15  1  0
 25 19  1  0
 33 28  1  0
  1 34  1  0
  1 35  1  0
  1 36  1  0
  2 37  1  0
  2 38  1  0
  3 39  1  0
  3 40  1  0
  4 41  1  0
  4 42  1  0
  5 43  1  0
  5 44  1  0
  6 45  1  0
  6 46  1  0
  7 47  1  0
  7 48  1  0
  8 49  1  0
  8 50  1  0
  9 51  1  0
  9 52  1  0
 10 53  1  0
 10 54  1  0
 14 55  1  0
 14 56  1  0
 17 57  1  0
 17 58  1  0
 20 59  1  0
 21 60  1  0
 24 61  1  0
 25 62  1  0
 27 63  1  0
 27 64  1  0
 27 65  1  0
 29 66  1  0
 30 67  1  0
 31 68  1  0
 32 69  1  0
M  CHG  1  26   1
M  END
$$$$
