
     RDKit          3D

 50 53  0  0  0  0  0  0  0  0999 V2000
   -6.2022    1.7686    2.7612 C   0  0  0  0  0  0  0  0  0  0  0  0
   -5.0701    1.2052    1.9523 C   0  0  0  0  0  0  0  0  0  0  0  0
   -4.0021    0.5584    2.5807 C   0  0  0  0  0  0  0  0  0  0  0  0
   -2.9614    0.0081    1.8260 C   0  0  0  0  0  0  0  0  0  0  0  0
   -2.9877    0.0830    0.4290 C   0  0  0  0  0  0  0  0  0  0  0  0
   -1.8125   -0.5350   -0.4098 C   0  0  0  0  0  0  0  0  0  0  0  0
   -0.6578   -1.1213    0.0949 C   0  0  0  0  0  0  0  0  0  0  0  0
    0.1680   -1.4965   -0.9731 N   0  0  0  0  0  4  0  0  0  0  0  0
    1.4763   -2.1678   -0.8938 C   0  0  0  0  0  0  0  0  0  0  0  0
    2.2666   -1.7571    0.3529 C   0  0  0  0  0  0  0  0  0  0  0  0
    2.0552   -2.3291    1.4195 O   0  0  0  0  0  0  0  0  0  0  0  0
    3.1166   -0.6825    0.1415 N   0  0  0  0  0  0  0  0  0  0  0  0
    3.9942   -0.0793    1.0782 C   0  0  0  0  0  0  0  0  0  0  0  0
    4.1829   -0.5904    2.3683 C   0  0  0  0  0  0  0  0  0  0  0  0
    5.0613    0.0245    3.2650 C   0  0  0  0  0  0  0  0  0  0  0  0
    5.7654    1.1594    2.8846 C   0  0  0  0  0  0  0  0  0  0  0  0
    5.5941    1.6803    1.6053 C   0  0  0  0  0  0  0  0  0  0  0  0
    4.7159    1.0728    0.6888 C   0  0  0  0  0  0  0  0  0  0  0  0
    4.5812    1.6973   -0.6747 C   0  0  0  0  0  0  0  0  0  0  0  0
   -0.4880   -1.2087   -2.0903 C   0  0  0  0  0  0  0  0  0  0  0  0
   -1.6481   -0.6412   -1.7800 N   0  0  0  0  0  0  0  0  0  0  0  0
   -2.4333   -0.3210   -2.9630 C   0  0  0  0  0  0  0  0  0  0  0  0
   -1.6888   -1.0671   -4.1057 C   0  0  0  0  0  0  0  0  0  0  0  0
   -0.2807   -1.3573   -3.5486 C   0  0  0  0  0  0  0  0  0  0  0  0
   -4.0579    0.7171   -0.2023 C   0  0  0  0  0  0  0  0  0  0  0  0
   -5.0947    1.2713    0.5556 C   0  0  0  0  0  0  0  0  0  0  0  0
   -5.8498    2.1101    3.7403 H   0  0  0  0  0  0  0  0  0  0  0  0
   -6.9730    1.0055    2.9075 H   0  0  0  0  0  0  0  0  0  0  0  0
   -6.6487    2.6326    2.2571 H   0  0  0  0  0  0  0  0  0  0  0  0
   -3.9753    0.4802    3.6670 H   0  0  0  0  0  0  0  0  0  0  0  0
   -2.1529   -0.4775    2.3643 H   0  0  0  0  0  0  0  0  0  0  0  0
   -0.3135   -1.3042    1.0999 H   0  0  0  0  0  0  0  0  0  0  0  0
    1.3082   -3.2498   -0.8723 H   0  0  0  0  0  0  0  0  0  0  0  0
    2.0506   -1.9314   -1.7955 H   0  0  0  0  0  0  0  0  0  0  0  0
    3.0984   -0.2451   -0.7694 H   0  0  0  0  0  0  0  0  0  0  0  0
    3.6719   -1.4811    2.7189 H   0  0  0  0  0  0  0  0  0  0  0  0
    5.1956   -0.3900    4.2617 H   0  0  0  0  0  0  0  0  0  0  0  0
    6.4494    1.6369    3.5827 H   0  0  0  0  0  0  0  0  0  0  0  0
    6.1582    2.5695    1.3259 H   0  0  0  0  0  0  0  0  0  0  0  0
    4.8576    0.9793   -1.4528 H   0  0  0  0  0  0  0  0  0  0  0  0
    3.5526    2.0379   -0.8346 H   0  0  0  0  0  0  0  0  0  0  0  0
    5.2390    2.5666   -0.7918 H   0  0  0  0  0  0  0  0  0  0  0  0
   -2.4119    0.7613   -3.1183 H   0  0  0  0  0  0  0  0  0  0  0  0
   -3.4590   -0.6823   -2.8629 H   0  0  0  0  0  0  0  0  0  0  0  0
   -1.6670   -0.4979   -5.0394 H   0  0  0  0  0  0  0  0  0  0  0  0
   -2.1998   -2.0168   -4.3029 H   0  0  0  0  0  0  0  0  0  0  0  0
    0.4517   -0.6004   -3.8382 H   0  0  0  0  0  0  0  0  0  0  0  0
    0.0712   -2.3684   -3.7561 H   0  0  0  0  0  0  0  0  0  0  0  0
   -4.1208    0.8122   -1.2777 H   0  0  0  0  0  0  0  0  0  0  0  0
   -5.9252    1.7613    0.0489 H   0  0  0  0  0  0  0  0  0  0  0  0
  1  2  1  0
  2  3  2  0
  3  4  1  0
  4  5  2  0
  5  6  1  0
  6  7  2  0
  7  8  1  0
  8  9  1  0
  9 10  1  0
 10 11  2  0
 10 12  1  0
 12 13  1  0
 13 14  2  0
 14 15  1  0
 15 16  2  0
 16 17  1  0
 17 18  2  0
 18 19  1  0
  8 20  2  0
 20 21  1  0
 21 22  1  0
 22 23  1  0
 23 24  1  0
  5 25  1  0
 25 26  2  0
 26  2  1  0
 21  6  1  0
 18 13  1  0
 24 20  1  0
  1 27  1  0
  1 28  1  0
  1 29  1  0
  3 30  1  0
  4 31  1  0
  7 32  1  0
  9 33  1  0
  9 34  1  0
 12 35  1  0
 14 36  1  0
 15 37  1  0
 16 38  1  0
 17 39  1  0
 19 40  1  0
 19 41  1  0
 19 42  1  0
 22 43  1  0
 22 44  1  0
 23 45  1  0
 23 46  1  0
 24 47  1  0
 24 48  1  0
 25 49  1  0
 26 50  1  0
M  CHG  1   8   1
M  END
$$$$
