
     RDKit          3D

 36 38  0  0  0  0  0  0  0  0999 V2000
    6.1834    0.5747   -3.3055 Br  0  0  0  0  0  0  0  0  0  0  0  0
    4.8953    0.5677   -1.9227 C   0  0  0  0  0  0  0  0  0  0  0  0
    3.5811    0.9321   -2.1987 C   0  0  0  0  0  0  0  0  0  0  0  0
    2.6315    0.9243   -1.1725 C   0  0  0  0  0  0  0  0  0  0  0  0
    2.9834    0.5575    0.1370 C   0  0  0  0  0  0  0  0  0  0  0  0
    1.9573    0.5603    1.1783 C   0  0  0  0  0  0  0  0  0  0  0  0
    2.2062    0.5420    2.5354 C   0  0  0  0  0  0  0  0  0  0  0  0
    0.7310    0.5608    3.4060 S   0  0  0  0  0  0  0  0  0  0  0  0
   -0.1479    0.5809    1.9195 C   0  0  0  0  0  0  0  0  0  0  0  0
   -1.4995    0.6322    1.9678 N   0  0  0  0  0  0  0  0  0  0  0  0
   -2.1808   -0.2306    1.2687 C   0  0  0  0  0  0  0  0  0  0  0  0
   -1.6047   -1.3700    0.4297 C   0  0  0  0  0  0  0  0  0  0  0  0
   -1.6433   -1.0718   -1.0727 C   0  0  0  0  0  0  0  0  0  0  0  0
   -2.5689    0.0651   -1.5142 C   0  0  0  0  0  0  0  0  0  0  0  0
   -4.0549   -0.0954   -1.1716 C   0  0  0  0  0  0  0  0  0  0  0  0
   -4.3914   -0.6453    0.2135 C   0  0  0  0  0  0  0  0  0  0  0  0
   -3.5522   -0.0826    1.2504 N   0  0  0  0  0  0  0  0  0  0  0  0
    0.6120    0.6018    0.8442 N   0  0  0  0  0  0  0  0  0  0  0  0
    4.3130    0.1882    0.3923 C   0  0  0  0  0  0  0  0  0  0  0  0
    5.2660    0.1946   -0.6331 C   0  0  0  0  0  0  0  0  0  0  0  0
    3.2815    1.2226   -3.2020 H   0  0  0  0  0  0  0  0  0  0  0  0
    1.6060    1.2113   -1.4016 H   0  0  0  0  0  0  0  0  0  0  0  0
    3.1477    0.5314    3.0632 H   0  0  0  0  0  0  0  0  0  0  0  0
   -2.2025   -2.2671    0.6347 H   0  0  0  0  0  0  0  0  0  0  0  0
   -0.5927   -1.6441    0.7403 H   0  0  0  0  0  0  0  0  0  0  0  0
   -0.6263   -0.8180   -1.3983 H   0  0  0  0  0  0  0  0  0  0  0  0
   -1.9067   -1.9902   -1.6115 H   0  0  0  0  0  0  0  0  0  0  0  0
   -2.2038    1.0092   -1.0890 H   0  0  0  0  0  0  0  0  0  0  0  0
   -2.4792    0.1870   -2.6012 H   0  0  0  0  0  0  0  0  0  0  0  0
   -4.5254   -0.7462   -1.9192 H   0  0  0  0  0  0  0  0  0  0  0  0
   -4.5303    0.8872   -1.2879 H   0  0  0  0  0  0  0  0  0  0  0  0
   -5.4396   -0.4237    0.4447 H   0  0  0  0  0  0  0  0  0  0  0  0
   -4.3130   -1.7381    0.2153 H   0  0  0  0  0  0  0  0  0  0  0  0
   -3.8537    0.8103    1.6293 H   0  0  0  0  0  0  0  0  0  0  0  0
    4.6314   -0.1219    1.3838 H   0  0  0  0  0  0  0  0  0  0  0  0
    6.2901   -0.0963   -0.4139 H   0  0  0  0  0  0  0  0  0  0  0  0
  1  2  1  0
  2  3  2  0
  3  4  1  0
  4  5  2  0
  5  6  1  0
  6  7  2  0
  7  8  1  0
  8  9  1  0
  9 10  1  0
 10 11  2  3
 11 12  1  0
 12 13  1  0
 13 14  1  0
 14 15  1  0
 15 16  1  0
 16 17  1  0
  9 18  2  0
  5 19  1  0
 19 20  2  0
 20  2  1  0
 18  6  1  0
 17 11  1  0
  3 21  1  0
  4 22  1  0
  7 23  1  0
 12 24  1  0
 12 25  1  0
 13 26  1  0
 13 27  1  0
 14 28  1  0
 14 29  1  0
 15 30  1  0
 15 31  1  0
 16 32  1  0
 16 33  1  0
 17 34  1  0
 19 35  1  0
 20 36  1  0
M  END
$$$$
