
     RDKit          3D

 62 65  0  0  0  0  0  0  0  0999 V2000
    9.6897   -2.3564    1.0566 C   0  0  0  0  0  0  0  0  0  0  0  0
    9.2276   -2.1015   -0.3664 C   0  0  0  0  0  0  0  0  0  0  0  0
    7.8685   -1.6419   -0.3739 O   0  0  0  0  0  0  0  0  0  0  0  0
    6.9101   -2.6059   -0.3456 C   0  0  0  0  0  0  0  0  0  0  0  0
    7.1497   -3.8073   -0.3227 O   0  0  0  0  0  0  0  0  0  0  0  0
    5.6308   -2.0780   -0.3342 N   0  0  0  0  0  0  0  0  0  0  0  0
    4.5034   -2.9873   -0.5019 C   0  0  0  0  0  0  0  0  0  0  0  0
    3.2368   -2.4817    0.1988 C   0  0  0  0  0  0  0  0  0  0  0  0
    2.9466   -1.0736   -0.1009 N   0  0  0  0  0  0  0  0  0  0  0  0
    1.6741   -0.5095    0.0397 C   0  0  0  0  0  0  0  0  0  0  0  0
    1.5176    0.7089    0.1327 O   0  0  0  0  0  0  0  0  0  0  0  0
    0.4785   -1.4786    0.0504 C   0  0  0  0  0  0  0  0  0  0  0  0
   -0.8055   -0.8778    0.1227 O   0  0  0  0  0  0  0  0  0  0  0  0
   -1.3436   -0.3145   -1.0035 C   0  0  0  0  0  0  0  0  0  0  0  0
   -0.7499   -0.3280   -2.2689 C   0  0  0  0  0  0  0  0  0  0  0  0
   -1.3822    0.2799   -3.3555 C   0  0  0  0  0  0  0  0  0  0  0  0
   -2.6092    0.9138   -3.1853 C   0  0  0  0  0  0  0  0  0  0  0  0
   -3.2143    0.9400   -1.9244 C   0  0  0  0  0  0  0  0  0  0  0  0
   -2.5915    0.3145   -0.8300 C   0  0  0  0  0  0  0  0  0  0  0  0
   -3.2427    0.4034    0.5248 C   0  0  0  0  0  0  0  0  0  0  0  0
   -4.7557    0.5130    0.3870 C   0  0  0  0  0  0  0  0  0  0  0  0
   -5.1358    1.5926   -0.5151 N   0  0  0  0  0  0  0  0  0  0  0  0
   -6.4699    2.1782   -0.4028 C   0  0  0  0  0  0  0  0  0  0  0  0
   -6.8139    2.6808    0.9746 C   0  0  0  0  0  0  0  0  0  0  0  0
   -7.8148    2.0645    1.7418 C   0  0  0  0  0  0  0  0  0  0  0  0
   -8.1203    2.5401    3.0200 C   0  0  0  0  0  0  0  0  0  0  0  0
   -7.4331    3.6346    3.5446 C   0  0  0  0  0  0  0  0  0  0  0  0
   -6.4425    4.2574    2.7889 C   0  0  0  0  0  0  0  0  0  0  0  0
   -6.1438    3.7813    1.5153 C   0  0  0  0  0  0  0  0  0  0  0  0
   -5.1929    4.4033    0.8066 F   0  0  0  0  0  0  0  0  0  0  0  0
   -4.5145    1.6598   -1.7656 C   0  0  0  0  0  0  0  0  0  0  0  0
   -4.9890    2.2672   -2.7214 O   0  0  0  0  0  0  0  0  0  0  0  0
    4.0903   -0.1652    0.0502 C   0  0  0  0  0  0  0  0  0  0  0  0
    5.3580   -0.6728   -0.6430 C   0  0  0  0  0  0  0  0  0  0  0  0
    9.1047   -3.1549    1.5241 H   0  0  0  0  0  0  0  0  0  0  0  0
   10.7458   -2.6410    1.0762 H   0  0  0  0  0  0  0  0  0  0  0  0
    9.5541   -1.4601    1.6710 H   0  0  0  0  0  0  0  0  0  0  0  0
    9.3511   -2.9889   -0.9978 H   0  0  0  0  0  0  0  0  0  0  0  0
    9.8346   -1.3050   -0.8097 H   0  0  0  0  0  0  0  0  0  0  0  0
    4.3243   -3.0733   -1.5809 H   0  0  0  0  0  0  0  0  0  0  0  0
    4.7525   -3.9869   -0.1298 H   0  0  0  0  0  0  0  0  0  0  0  0
    3.3581   -2.5507    1.2868 H   0  0  0  0  0  0  0  0  0  0  0  0
    2.3964   -3.1229   -0.0772 H   0  0  0  0  0  0  0  0  0  0  0  0
    0.5337   -2.1745   -0.7926 H   0  0  0  0  0  0  0  0  0  0  0  0
    0.5739   -2.0775    0.9631 H   0  0  0  0  0  0  0  0  0  0  0  0
    0.2144   -0.7887   -2.4498 H   0  0  0  0  0  0  0  0  0  0  0  0
   -0.9096    0.2721   -4.3341 H   0  0  0  0  0  0  0  0  0  0  0  0
   -3.0874    1.4000   -4.0332 H   0  0  0  0  0  0  0  0  0  0  0  0
   -3.0171   -0.4780    1.1339 H   0  0  0  0  0  0  0  0  0  0  0  0
   -2.8455    1.2854    1.0405 H   0  0  0  0  0  0  0  0  0  0  0  0
   -5.1769   -0.4153   -0.0173 H   0  0  0  0  0  0  0  0  0  0  0  0
   -5.1844    0.6765    1.3792 H   0  0  0  0  0  0  0  0  0  0  0  0
   -7.1842    1.4113   -0.7265 H   0  0  0  0  0  0  0  0  0  0  0  0
   -6.5792    3.0122   -1.1061 H   0  0  0  0  0  0  0  0  0  0  0  0
   -8.3633    1.2115    1.3478 H   0  0  0  0  0  0  0  0  0  0  0  0
   -8.8981    2.0581    3.6072 H   0  0  0  0  0  0  0  0  0  0  0  0
   -7.6715    4.0029    4.5388 H   0  0  0  0  0  0  0  0  0  0  0  0
   -5.9008    5.1130    3.1793 H   0  0  0  0  0  0  0  0  0  0  0  0
    4.2702   -0.0640    1.1264 H   0  0  0  0  0  0  0  0  0  0  0  0
    3.8431    0.8280   -0.3357 H   0  0  0  0  0  0  0  0  0  0  0  0
    6.2029   -0.0346   -0.3643 H   0  0  0  0  0  0  0  0  0  0  0  0
    5.2412   -0.6081   -1.7327 H   0  0  0  0  0  0  0  0  0  0  0  0
  1  2  1  0
  2  3  1  0
  3  4  1  0
  4  5  2  0
  4  6  1  0
  6  7  1  0
  7  8  1  0
  8  9  1  0
  9 10  1  0
 10 11  2  0
 10 12  1  0
 12 13  1  0
 13 14  1  0
 14 15  2  0
 15 16  1  0
 16 17  2  0
 17 18  1  0
 18 19  2  0
 19 20  1  0
 20 21  1  0
 21 22  1  0
 22 23  1  0
 23 24  1  0
 24 25  2  0
 25 26  1  0
 26 27  2  0
 27 28  1  0
 28 29  2  0
 29 30  1  0
 22 31  1  0
 31 32  2  0
  9 33  1  0
 33 34  1  0
 34  6  1  0
 19 14  1  0
 29 24  1  0
 31 18  1  0
  1 35  1  0
  1 36  1  0
  1 37  1  0
  2 38  1  0
  2 39  1  0
  7 40  1  0
  7 41  1  0
  8 42  1  0
  8 43  1  0
 12 44  1  0
 12 45  1  0
 15 46  1  0
 16 47  1  0
 17 48  1  0
 20 49  1  0
 20 50  1  0
 21 51  1  0
 21 52  1  0
 23 53  1  0
 23 54  1  0
 25 55  1  0
 26 56  1  0
 27 57  1  0
 28 58  1  0
 33 59  1  0
 33 60  1  0
 34 61  1  0
 34 62  1  0
M  END
$$$$
