
     RDKit          3D

 34 35  0  0  0  0  0  0  0  0999 V2000
   -0.5803   -1.2057   -1.6067 C   0  0  0  0  0  0  0  0  0  0  0  0
   -0.8942   -0.4439   -0.3331 C   0  0  0  0  0  0  0  0  0  0  0  0
    0.0075    0.0296    0.4917 N   0  0  0  0  0  0  0  0  0  0  0  0
    1.3334   -0.0610    0.1467 N   0  0  0  0  0  0  0  0  0  0  0  0
    2.2454   -0.1070    1.2976 C   0  0  0  0  0  0  0  0  0  0  0  0
    3.6862   -0.2898    0.8398 C   0  0  0  0  0  0  0  0  0  0  0  0
    4.1400    0.8444   -0.0859 C   0  0  0  0  0  0  0  0  0  0  0  0
    2.9723    1.6242   -0.6907 C   0  0  0  0  0  0  0  0  0  0  0  0
    1.7949    0.7127   -1.0195 C   0  0  0  0  0  0  0  0  0  0  0  0
   -2.3291   -0.2955    0.0449 C   0  0  0  0  0  0  0  0  0  0  0  0
   -2.6891   -0.4169    1.3331 C   0  0  0  0  0  0  0  0  0  0  0  0
   -1.8261   -0.5942    2.3871 O   0  0  0  0  0  0  0  0  0  0  0  0
   -3.9940   -0.3781    1.7141 N   0  0  0  0  0  0  0  0  0  0  0  0
   -5.0395   -0.2098    0.8502 C   0  0  0  0  0  0  0  0  0  0  0  0
   -6.2103   -0.1820    1.2207 O   0  0  0  0  0  0  0  0  0  0  0  0
   -4.6936   -0.0736   -0.4635 N   0  0  0  0  0  0  0  0  0  0  0  0
   -3.4121   -0.0837   -0.9474 C   0  0  0  0  0  0  0  0  0  0  0  0
   -3.1783    0.0924   -2.1391 O   0  0  0  0  0  0  0  0  0  0  0  0
   -1.4180   -1.8561   -1.8807 H   0  0  0  0  0  0  0  0  0  0  0  0
   -0.3879   -0.5077   -2.4296 H   0  0  0  0  0  0  0  0  0  0  0  0
    0.2898   -1.8536   -1.4614 H   0  0  0  0  0  0  0  0  0  0  0  0
    2.1358    0.8261    1.8664 H   0  0  0  0  0  0  0  0  0  0  0  0
    1.9398   -0.9432    1.9408 H   0  0  0  0  0  0  0  0  0  0  0  0
    3.7712   -1.2501    0.3100 H   0  0  0  0  0  0  0  0  0  0  0  0
    4.3538   -0.3516    1.7073 H   0  0  0  0  0  0  0  0  0  0  0  0
    4.7842    1.5417    0.4654 H   0  0  0  0  0  0  0  0  0  0  0  0
    4.7601    0.4217   -0.8869 H   0  0  0  0  0  0  0  0  0  0  0  0
    2.6458    2.3900    0.0217 H   0  0  0  0  0  0  0  0  0  0  0  0
    3.3047    2.1517   -1.5896 H   0  0  0  0  0  0  0  0  0  0  0  0
    0.9667    1.3082   -1.4138 H   0  0  0  0  0  0  0  0  0  0  0  0
    2.0932   -0.0080   -1.7853 H   0  0  0  0  0  0  0  0  0  0  0  0
   -0.9165   -0.4164    2.0497 H   0  0  0  0  0  0  0  0  0  0  0  0
   -4.2123   -0.4887    2.6973 H   0  0  0  0  0  0  0  0  0  0  0  0
   -5.4436    0.0738   -1.1220 H   0  0  0  0  0  0  0  0  0  0  0  0
  1  2  1  0
  2  3  2  3
  3  4  1  0
  4  5  1  0
  5  6  1  0
  6  7  1  0
  7  8  1  0
  8  9  1  0
  2 10  1  0
 10 11  2  0
 11 12  1  0
 11 13  1  0
 13 14  1  0
 14 15  2  0
 14 16  1  0
 16 17  1  0
 17 18  2  0
  9  4  1  0
 17 10  1  0
  1 19  1  0
  1 20  1  0
  1 21  1  0
  5 22  1  0
  5 23  1  0
  6 24  1  0
  6 25  1  0
  7 26  1  0
  7 27  1  0
  8 28  1  0
  8 29  1  0
  9 30  1  0
  9 31  1  0
 12 32  1  0
 13 33  1  0
 16 34  1  0
M  END
$$$$
