
     RDKit          3D

 52 55  0  0  0  0  0  0  0  0999 V2000
   -6.9576   -0.3558   -0.9986 C   0  0  0  0  0  0  0  0  0  0  0  0
   -6.4876    0.8411   -0.2157 C   0  0  0  0  0  0  0  0  0  0  0  0
   -7.4103    1.8721    0.0432 C   0  0  0  0  0  0  0  0  0  0  0  0
   -7.0404    2.9941    0.7804 C   0  0  0  0  0  0  0  0  0  0  0  0
   -5.7481    3.0926    1.2786 C   0  0  0  0  0  0  0  0  0  0  0  0
   -4.8227    2.0771    1.0259 C   0  0  0  0  0  0  0  0  0  0  0  0
   -5.1552    0.9566    0.2475 C   0  0  0  0  0  0  0  0  0  0  0  0
   -4.2350   -0.1030    0.0473 N   0  0  0  0  0  0  0  0  0  0  0  0
   -2.8127   -0.0588    0.0473 C   0  0  0  0  0  0  0  0  0  0  0  0
   -2.1662    1.1216   -0.0426 N   0  0  0  0  0  0  0  0  0  0  0  0
   -0.8004    1.1808   -0.0806 N   0  0  0  0  0  0  0  0  0  0  0  0
   -0.0679    0.0477   -0.0335 C   0  0  0  0  0  0  0  0  0  0  0  0
    1.3830    0.2789   -0.1049 C   0  0  0  0  0  0  0  0  0  0  0  0
    2.0436    0.9735    0.9215 C   0  0  0  0  0  0  0  0  0  0  0  0
    3.4208    1.2082    0.8607 C   0  0  0  0  0  0  0  0  0  0  0  0
    4.1668    0.7487   -0.2294 C   0  0  0  0  0  0  0  0  0  0  0  0
    5.6301    1.0227   -0.2511 C   0  0  0  0  0  0  0  0  0  0  0  0
    6.0912    1.9794    0.3601 O   0  0  0  0  0  0  0  0  0  0  0  0
    6.4146    0.1257   -0.9453 N   0  0  0  0  0  0  0  0  0  0  0  0
    7.8606    0.2753   -1.0079 C   0  0  0  0  0  0  0  0  0  0  0  0
    8.5489   -0.1045    0.3038 C   0  0  0  0  0  0  0  0  0  0  0  0
    8.2312   -1.4526    0.6495 O   0  0  0  0  0  0  0  0  0  0  0  0
    3.5191    0.0797   -1.2741 C   0  0  0  0  0  0  0  0  0  0  0  0
    2.1395   -0.1506   -1.2098 C   0  0  0  0  0  0  0  0  0  0  0  0
   -0.6725   -1.2185    0.0814 C   0  0  0  0  0  0  0  0  0  0  0  0
    0.0560   -2.4323    0.1766 C   0  0  0  0  0  0  0  0  0  0  0  0
   -0.5840   -3.6655    0.2976 C   0  0  0  0  0  0  0  0  0  0  0  0
   -1.9678   -3.7194    0.3400 C   0  0  0  0  0  0  0  0  0  0  0  0
   -2.7079   -2.5397    0.2607 C   0  0  0  0  0  0  0  0  0  0  0  0
   -2.0866   -1.2715    0.1238 C   0  0  0  0  0  0  0  0  0  0  0  0
   -8.0319   -0.3068   -1.2059 H   0  0  0  0  0  0  0  0  0  0  0  0
   -6.4359   -0.4071   -1.9599 H   0  0  0  0  0  0  0  0  0  0  0  0
   -6.7785   -1.2757   -0.4334 H   0  0  0  0  0  0  0  0  0  0  0  0
   -8.4314    1.8027   -0.3259 H   0  0  0  0  0  0  0  0  0  0  0  0
   -7.7622    3.7825    0.9757 H   0  0  0  0  0  0  0  0  0  0  0  0
   -5.4536    3.9549    1.8706 H   0  0  0  0  0  0  0  0  0  0  0  0
   -3.8295    2.1778    1.4563 H   0  0  0  0  0  0  0  0  0  0  0  0
   -4.5278   -0.7132   -0.7066 H   0  0  0  0  0  0  0  0  0  0  0  0
    1.4795    1.3473    1.7753 H   0  0  0  0  0  0  0  0  0  0  0  0
    3.9070    1.7562    1.6653 H   0  0  0  0  0  0  0  0  0  0  0  0
    6.0198   -0.7388   -1.2891 H   0  0  0  0  0  0  0  0  0  0  0  0
    8.0976    1.3113   -1.2707 H   0  0  0  0  0  0  0  0  0  0  0  0
    8.2011   -0.3821   -1.8147 H   0  0  0  0  0  0  0  0  0  0  0  0
    9.6346   -0.0309    0.1934 H   0  0  0  0  0  0  0  0  0  0  0  0
    8.2457    0.5450    1.1313 H   0  0  0  0  0  0  0  0  0  0  0  0
    7.2955   -1.4392    0.9162 H   0  0  0  0  0  0  0  0  0  0  0  0
    4.0603   -0.2348   -2.1620 H   0  0  0  0  0  0  0  0  0  0  0  0
    1.6483   -0.6521   -2.0429 H   0  0  0  0  0  0  0  0  0  0  0  0
    1.1445   -2.4280    0.1715 H   0  0  0  0  0  0  0  0  0  0  0  0
    0.0010   -4.5790    0.3711 H   0  0  0  0  0  0  0  0  0  0  0  0
   -2.4751   -4.6751    0.4490 H   0  0  0  0  0  0  0  0  0  0  0  0
   -3.7915   -2.6188    0.3310 H   0  0  0  0  0  0  0  0  0  0  0  0
  1  2  1  0
  2  3  2  0
  3  4  1  0
  4  5  2  0
  5  6  1  0
  6  7  2  0
  7  8  1  0
  8  9  1  0
  9 10  2  0
 10 11  1  0
 11 12  2  0
 12 13  1  0
 13 14  2  0
 14 15  1  0
 15 16  2  0
 16 17  1  0
 17 18  2  0
 17 19  1  0
 19 20  1  0
 20 21  1  0
 21 22  1  0
 16 23  1  0
 23 24  2  0
 12 25  1  0
 25 26  2  0
 26 27  1  0
 27 28  2  0
 28 29  1  0
 29 30  2  0
  7  2  1  0
 30  9  1  0
 24 13  1  0
 30 25  1  0
  1 31  1  0
  1 32  1  0
  1 33  1  0
  3 34  1  0
  4 35  1  0
  5 36  1  0
  6 37  1  0
  8 38  1  0
 14 39  1  0
 15 40  1  0
 19 41  1  0
 20 42  1  0
 20 43  1  0
 21 44  1  0
 21 45  1  0
 22 46  1  0
 23 47  1  0
 24 48  1  0
 26 49  1  0
 27 50  1  0
 28 51  1  0
 29 52  1  0
M  END
$$$$
