
     RDKit          3D

 30 31  0  0  0  0  0  0  0  0999 V2000
    4.7027   -1.5791    0.0315 N   0  0  0  0  0  0  0  0  0  0  0  0
    4.0095   -1.4751    0.9558 C   0  0  0  0  0  0  0  0  0  0  0  0
    3.1567   -1.3204    2.1396 C   0  0  0  0  0  0  0  0  0  0  0  0
    2.5890    0.0896    2.2267 C   0  0  0  0  0  0  0  0  0  0  0  0
    1.5895    0.3525    1.2085 N   0  0  0  0  0  0  0  0  0  0  0  0
    1.6806    1.2320    0.1786 C   0  0  0  0  0  0  0  0  0  0  0  0
    0.4919    1.1361   -0.5191 C   0  0  0  0  0  0  0  0  0  0  0  0
    0.1140    1.9077   -1.6791 C   0  0  0  0  0  0  0  0  0  0  0  0
    0.9615    2.7391   -2.1954 N   0  0  0  0  0  0  0  0  0  0  0  0
    0.3716    3.3654   -3.3012 O   0  0  0  0  0  0  0  0  0  0  0  0
   -0.2530    0.1359    0.1767 C   0  0  0  0  0  0  0  0  0  0  0  0
   -1.5755   -0.4006   -0.1346 C   0  0  0  0  0  0  0  0  0  0  0  0
   -1.8786   -0.8606   -1.4237 C   0  0  0  0  0  0  0  0  0  0  0  0
   -3.1482   -1.3721   -1.7098 C   0  0  0  0  0  0  0  0  0  0  0  0
   -4.1144   -1.4315   -0.7068 C   0  0  0  0  0  0  0  0  0  0  0  0
   -5.6756   -2.0612   -1.0608 Cl  0  0  0  0  0  0  0  0  0  0  0  0
   -3.8219   -0.9897    0.5818 C   0  0  0  0  0  0  0  0  0  0  0  0
   -2.5528   -0.4790    0.8679 C   0  0  0  0  0  0  0  0  0  0  0  0
    0.4222   -0.3071    1.2511 N   0  0  0  0  0  0  0  0  0  0  0  0
    2.3572   -2.0696    2.1245 H   0  0  0  0  0  0  0  0  0  0  0  0
    3.7576   -1.5148    3.0357 H   0  0  0  0  0  0  0  0  0  0  0  0
    2.0937    0.2401    3.1932 H   0  0  0  0  0  0  0  0  0  0  0  0
    3.3756    0.8477    2.1338 H   0  0  0  0  0  0  0  0  0  0  0  0
    2.5533    1.8509    0.0161 H   0  0  0  0  0  0  0  0  0  0  0  0
   -0.8975    1.7742   -2.0987 H   0  0  0  0  0  0  0  0  0  0  0  0
    1.0867    3.9506   -3.6156 H   0  0  0  0  0  0  0  0  0  0  0  0
   -1.1273   -0.8455   -2.2103 H   0  0  0  0  0  0  0  0  0  0  0  0
   -3.3727   -1.7289   -2.7117 H   0  0  0  0  0  0  0  0  0  0  0  0
   -4.5706   -1.0432    1.3674 H   0  0  0  0  0  0  0  0  0  0  0  0
   -2.3254   -0.1433    1.8780 H   0  0  0  0  0  0  0  0  0  0  0  0
  1  2  3  0
  2  3  1  0
  3  4  1  0
  4  5  1  0
  5  6  1  0
  6  7  2  0
  7  8  1  0
  8  9  2  3
  9 10  1  0
  7 11  1  0
 11 12  1  0
 12 13  2  0
 13 14  1  0
 14 15  2  0
 15 16  1  0
 15 17  1  0
 17 18  2  0
 11 19  2  0
 19  5  1  0
 18 12  1  0
  3 20  1  0
  3 21  1  0
  4 22  1  0
  4 23  1  0
  6 24  1  0
  8 25  1  0
 10 26  1  0
 13 27  1  0
 14 28  1  0
 17 29  1  0
 18 30  1  0
M  END
$$$$
