
     RDKit          3D

 43 46  0  0  0  0  0  0  0  0999 V2000
   -1.9070   -1.2855   -1.6918 O   0  0  0  0  0  0  0  0  0  0  0  0
   -1.1765   -0.3474   -0.7605 P   0  0  0  0  0  5  0  0  0  0  0  0
   -1.1465   -0.6495    0.8880 N   0  0  0  0  0  0  0  0  0  0  0  0
   -2.3739   -0.9360    1.5461 C   0  0  0  0  0  0  0  0  0  0  0  0
   -3.0195   -2.1792    1.3870 C   0  0  0  0  0  0  0  0  0  0  0  0
   -2.2504   -3.5072    0.5874 Cl  0  0  0  0  0  0  0  0  0  0  0  0
   -4.2859   -2.4099    1.9355 C   0  0  0  0  0  0  0  0  0  0  0  0
   -4.9309   -1.4099    2.6598 C   0  0  0  0  0  0  0  0  0  0  0  0
   -4.3015   -0.1811    2.8507 C   0  0  0  0  0  0  0  0  0  0  0  0
   -3.0380    0.0522    2.2983 C   0  0  0  0  0  0  0  0  0  0  0  0
   -2.3041    1.5940    2.5686 Cl  0  0  0  0  0  0  0  0  0  0  0  0
   -1.4097    1.3831   -1.1518 C   0  0  0  0  0  0  0  0  0  0  0  0
   -0.6940    2.4143   -0.5247 C   0  0  0  0  0  0  0  0  0  0  0  0
   -0.9486    3.7537   -0.8299 C   0  0  0  0  0  0  0  0  0  0  0  0
   -1.9303    4.0850   -1.7618 C   0  0  0  0  0  0  0  0  0  0  0  0
   -2.6514    3.0763   -2.3950 C   0  0  0  0  0  0  0  0  0  0  0  0
   -2.3930    1.7369   -2.0925 C   0  0  0  0  0  0  0  0  0  0  0  0
    0.5852   -0.6355   -0.7891 C   0  0  0  0  0  0  0  0  0  0  0  0
    1.4810    0.2465   -0.3634 N   0  0  0  0  0  0  0  0  0  0  0  0
    2.7357   -0.3167   -0.4165 C   0  0  0  0  0  0  0  0  0  0  0  0
    2.7764   -1.6366   -0.8148 C   0  0  0  0  0  0  0  0  0  0  0  0
    1.2287   -2.1616   -1.2835 S   0  0  0  0  0  0  0  0  0  0  0  0
    3.9979   -2.4902   -0.8622 C   0  0  0  0  0  0  0  0  0  0  0  0
    5.1611   -1.7999   -0.1239 C   0  0  0  0  0  0  0  0  0  0  0  0
    5.2310   -0.2877   -0.4058 C   0  0  0  0  0  0  0  0  0  0  0  0
    3.9424    0.4318    0.0340 C   0  0  0  0  0  0  0  0  0  0  0  0
   -0.6573    0.0972    1.3738 H   0  0  0  0  0  0  0  0  0  0  0  0
   -4.7721   -3.3747    1.8106 H   0  0  0  0  0  0  0  0  0  0  0  0
   -5.9163   -1.5941    3.0824 H   0  0  0  0  0  0  0  0  0  0  0  0
   -4.8023    0.5946    3.4253 H   0  0  0  0  0  0  0  0  0  0  0  0
    0.0832    2.1784    0.2014 H   0  0  0  0  0  0  0  0  0  0  0  0
   -0.3770    4.5377   -0.3394 H   0  0  0  0  0  0  0  0  0  0  0  0
   -2.1273    5.1276   -2.0000 H   0  0  0  0  0  0  0  0  0  0  0  0
   -3.4109    3.3278   -3.1304 H   0  0  0  0  0  0  0  0  0  0  0  0
   -2.9649    0.9552   -2.5897 H   0  0  0  0  0  0  0  0  0  0  0  0
    4.2756   -2.6814   -1.9072 H   0  0  0  0  0  0  0  0  0  0  0  0
    3.8099   -3.4622   -0.3870 H   0  0  0  0  0  0  0  0  0  0  0  0
    5.0442   -1.9406    0.9609 H   0  0  0  0  0  0  0  0  0  0  0  0
    6.1049   -2.2816   -0.4035 H   0  0  0  0  0  0  0  0  0  0  0  0
    5.3967   -0.1306   -1.4786 H   0  0  0  0  0  0  0  0  0  0  0  0
    6.0842    0.1494    0.1255 H   0  0  0  0  0  0  0  0  0  0  0  0
    3.9185    0.5046    1.1287 H   0  0  0  0  0  0  0  0  0  0  0  0
    3.9326    1.4529   -0.3611 H   0  0  0  0  0  0  0  0  0  0  0  0
  1  2  2  0
  2  3  1  0
  3  4  1  0
  4  5  2  0
  5  6  1  0
  5  7  1  0
  7  8  2  0
  8  9  1  0
  9 10  2  0
 10 11  1  0
  2 12  1  0
 12 13  2  0
 13 14  1  0
 14 15  2  0
 15 16  1  0
 16 17  2  0
  2 18  1  0
 18 19  2  0
 19 20  1  0
 20 21  2  0
 21 22  1  0
 21 23  1  0
 23 24  1  0
 24 25  1  0
 25 26  1  0
 10  4  1  0
 17 12  1  0
 22 18  1  0
 26 20  1  0
  3 27  1  0
  7 28  1  0
  8 29  1  0
  9 30  1  0
 13 31  1  0
 14 32  1  0
 15 33  1  0
 16 34  1  0
 17 35  1  0
 23 36  1  0
 23 37  1  0
 24 38  1  0
 24 39  1  0
 25 40  1  0
 25 41  1  0
 26 42  1  0
 26 43  1  0
M  END
$$$$
