
     RDKit          3D

 46 49  0  0  0  0  0  0  0  0999 V2000
    4.4395   -4.7380    1.0890 O   0  0  0  0  0  0  0  0  0  0  0  0
    4.1152   -4.2943   -0.0220 N   0  0  0  0  0  4  0  0  0  0  0  0
    3.8772   -4.9956   -1.0160 O   0  0  0  0  0  1  0  0  0  0  0  0
    4.0106   -2.8377   -0.1719 C   0  0  0  0  0  0  0  0  0  0  0  0
    4.2508   -2.0072    0.9297 C   0  0  0  0  0  0  0  0  0  0  0  0
    4.1519   -0.6210    0.7822 C   0  0  0  0  0  0  0  0  0  0  0  0
    3.8041   -0.0568   -0.4552 C   0  0  0  0  0  0  0  0  0  0  0  0
    3.7214    1.4479   -0.6068 C   0  0  0  0  0  0  0  0  0  0  0  0
    2.6722    1.8618   -1.4863 O   0  0  0  0  0  0  0  0  0  0  0  0
    1.3969    1.9348   -0.9992 C   0  0  0  0  0  0  0  0  0  0  0  0
    0.4490    2.3745   -1.9267 C   0  0  0  0  0  0  0  0  0  0  0  0
   -0.8991    2.4877   -1.5743 C   0  0  0  0  0  0  0  0  0  0  0  0
   -1.3242    2.1582   -0.2817 C   0  0  0  0  0  0  0  0  0  0  0  0
   -2.7410    2.2799    0.0512 C   0  0  0  0  0  0  0  0  0  0  0  0
   -3.3689    3.5014    0.0837 N   0  0  0  0  0  0  0  0  0  0  0  0
   -4.6590    3.4456    0.4482 N   0  0  0  0  0  0  0  0  0  0  0  0
   -4.8735    2.1430    0.6365 C   0  0  0  0  0  0  0  0  0  0  0  0
   -3.7186    1.3595    0.4034 C   0  0  0  0  0  0  0  0  0  0  0  0
   -3.5430   -0.0773    0.5245 C   0  0  0  0  0  0  0  0  0  0  0  0
   -2.8647   -0.8121   -0.4576 C   0  0  0  0  0  0  0  0  0  0  0  0
   -2.7003   -2.1939   -0.3229 C   0  0  0  0  0  0  0  0  0  0  0  0
   -3.2196   -2.8478    0.7915 C   0  0  0  0  0  0  0  0  0  0  0  0
   -3.0180   -4.5476    0.9575 Cl  0  0  0  0  0  0  0  0  0  0  0  0
   -3.9046   -2.1327    1.7711 C   0  0  0  0  0  0  0  0  0  0  0  0
   -4.0683   -0.7506    1.6367 C   0  0  0  0  0  0  0  0  0  0  0  0
   -0.3648    1.7221    0.6427 C   0  0  0  0  0  0  0  0  0  0  0  0
   -0.6703    1.3958    1.9374 O   0  0  0  0  0  0  0  0  0  0  0  0
    0.9827    1.6096    0.2902 C   0  0  0  0  0  0  0  0  0  0  0  0
    3.5815   -0.9034   -1.5533 C   0  0  0  0  0  0  0  0  0  0  0  0
    3.6777   -2.2903   -1.4163 C   0  0  0  0  0  0  0  0  0  0  0  0
    4.5137   -2.4195    1.9018 H   0  0  0  0  0  0  0  0  0  0  0  0
    4.3428    0.0163    1.6441 H   0  0  0  0  0  0  0  0  0  0  0  0
    3.6550    1.9660    0.3576 H   0  0  0  0  0  0  0  0  0  0  0  0
    4.6618    1.7816   -1.0620 H   0  0  0  0  0  0  0  0  0  0  0  0
    0.7626    2.6259   -2.9377 H   0  0  0  0  0  0  0  0  0  0  0  0
   -1.6125    2.8180   -2.3265 H   0  0  0  0  0  0  0  0  0  0  0  0
   -2.9632    4.4103   -0.1135 H   0  0  0  0  0  0  0  0  0  0  0  0
   -5.8615    1.8139    0.9336 H   0  0  0  0  0  0  0  0  0  0  0  0
   -2.4625   -0.3224   -1.3414 H   0  0  0  0  0  0  0  0  0  0  0  0
   -2.1687   -2.7502   -1.0905 H   0  0  0  0  0  0  0  0  0  0  0  0
   -4.3113   -2.6424    2.6407 H   0  0  0  0  0  0  0  0  0  0  0  0
   -4.6003   -0.2088    2.4160 H   0  0  0  0  0  0  0  0  0  0  0  0
   -1.6351    1.4415    2.0497 H   0  0  0  0  0  0  0  0  0  0  0  0
    1.6720    1.2576    1.0488 H   0  0  0  0  0  0  0  0  0  0  0  0
    3.3229   -0.4816   -2.5237 H   0  0  0  0  0  0  0  0  0  0  0  0
    3.4917   -2.9221   -2.2823 H   0  0  0  0  0  0  0  0  0  0  0  0
  1  2  2  0
  2  3  1  0
  2  4  1  0
  4  5  2  0
  5  6  1  0
  6  7  2  0
  7  8  1  0
  8  9  1  0
  9 10  1  0
 10 11  2  0
 11 12  1  0
 12 13  2  0
 13 14  1  0
 14 15  1  0
 15 16  1  0
 16 17  2  0
 17 18  1  0
 18 19  1  0
 19 20  2  0
 20 21  1  0
 21 22  2  0
 22 23  1  0
 22 24  1  0
 24 25  2  0
 13 26  1  0
 26 27  1  0
 26 28  2  0
  7 29  1  0
 29 30  2  0
 30  4  1  0
 28 10  1  0
 18 14  2  0
 25 19  1  0
  5 31  1  0
  6 32  1  0
  8 33  1  0
  8 34  1  0
 11 35  1  0
 12 36  1  0
 15 37  1  0
 17 38  1  0
 20 39  1  0
 21 40  1  0
 24 41  1  0
 25 42  1  0
 27 43  1  0
 28 44  1  0
 29 45  1  0
 30 46  1  0
M  CHG  2   2   1   3  -1
M  END
$$$$
