
     RDKit          3D

 58 62  0  0  0  0  0  0  0  0999 V2000
   -5.2179   -2.7182   -3.6015 C   0  0  0  0  0  0  0  0  0  0  0  0
   -4.6972   -1.3140   -3.2932 C   0  0  0  0  0  0  0  0  0  0  0  0
   -5.7833   -0.4101   -2.6706 C   0  0  0  0  0  0  0  0  0  0  0  0
   -5.4766   -0.5067   -1.2128 C   0  0  0  0  0  0  0  0  0  0  0  0
   -6.2530   -0.0682   -0.1514 C   0  0  0  0  0  0  0  0  0  0  0  0
   -5.7573   -0.2344    1.1429 C   0  0  0  0  0  0  0  0  0  0  0  0
   -4.5073   -0.8343    1.3559 C   0  0  0  0  0  0  0  0  0  0  0  0
   -3.7312   -1.2661    0.2766 C   0  0  0  0  0  0  0  0  0  0  0  0
   -4.2210   -1.0733   -1.0025 C   0  0  0  0  0  0  0  0  0  0  0  0
   -3.5997   -1.4403   -2.2489 N   0  0  0  0  0  0  0  0  0  0  0  0
   -2.1981   -0.5447   -2.6831 S   0  0  0  0  0  6  0  0  0  0  0  0
   -2.4775    0.8676   -2.5145 O   0  0  0  0  0  0  0  0  0  0  0  0
   -1.7317   -1.0478   -3.9613 O   0  0  0  0  0  0  0  0  0  0  0  0
   -0.9793   -1.0244   -1.4868 C   0  0  0  0  0  0  0  0  0  0  0  0
   -0.4594   -2.3251   -1.5355 C   0  0  0  0  0  0  0  0  0  0  0  0
    0.4950   -2.7257   -0.5989 C   0  0  0  0  0  0  0  0  0  0  0  0
    0.9337   -1.8266    0.3736 C   0  0  0  0  0  0  0  0  0  0  0  0
    0.4259   -0.5225    0.3899 C   0  0  0  0  0  0  0  0  0  0  0  0
    0.8711    0.4109    1.4373 C   0  0  0  0  0  0  0  0  0  0  0  0
    0.2176    0.4382    2.4761 O   0  0  0  0  0  0  0  0  0  0  0  0
    1.9948    1.1959    1.1890 N   0  0  0  0  0  0  0  0  0  0  0  0
    2.5580    1.9222    2.3403 C   0  0  0  0  0  0  0  0  0  0  0  0
    3.4219    3.1295    1.9318 C   0  0  0  0  0  0  0  0  0  0  0  0
    4.4093    2.7487    0.9092 N   0  0  0  0  0  0  0  0  0  0  0  0
    5.5110    2.0422    1.3909 C   0  0  0  0  0  0  0  0  0  0  0  0
    6.1975    1.2517    0.5461 N   0  0  0  0  0  0  0  0  0  0  0  0
    7.2713    0.5959    1.0274 C   0  0  0  0  0  0  0  0  0  0  0  0
    7.6924    0.6835    2.3275 C   0  0  0  0  0  0  0  0  0  0  0  0
    6.9358    1.5023    3.1233 C   0  0  0  0  0  0  0  0  0  0  0  0
    5.8578    2.1789    2.6827 N   0  0  0  0  0  0  0  0  0  0  0  0
    3.7813    2.1771   -0.2907 C   0  0  0  0  0  0  0  0  0  0  0  0
    2.9220    0.9470    0.0652 C   0  0  0  0  0  0  0  0  0  0  0  0
   -0.5330   -0.1068   -0.5340 C   0  0  0  0  0  0  0  0  0  0  0  0
   -6.0273   -2.6782   -4.3384 H   0  0  0  0  0  0  0  0  0  0  0  0
   -5.5996   -3.2181   -2.7040 H   0  0  0  0  0  0  0  0  0  0  0  0
   -4.4159   -3.3428   -4.0099 H   0  0  0  0  0  0  0  0  0  0  0  0
   -4.3380   -0.8733   -4.2300 H   0  0  0  0  0  0  0  0  0  0  0  0
   -5.6537    0.6259   -2.9996 H   0  0  0  0  0  0  0  0  0  0  0  0
   -6.7969   -0.7452   -2.9085 H   0  0  0  0  0  0  0  0  0  0  0  0
   -7.2193    0.3986   -0.3163 H   0  0  0  0  0  0  0  0  0  0  0  0
   -6.3441    0.1011    1.9953 H   0  0  0  0  0  0  0  0  0  0  0  0
   -4.1380   -0.9662    2.3712 H   0  0  0  0  0  0  0  0  0  0  0  0
   -2.7861   -1.7603    0.4641 H   0  0  0  0  0  0  0  0  0  0  0  0
   -0.8038   -3.0269   -2.2931 H   0  0  0  0  0  0  0  0  0  0  0  0
    0.8890   -3.7391   -0.6228 H   0  0  0  0  0  0  0  0  0  0  0  0
    1.6628   -2.1387    1.1177 H   0  0  0  0  0  0  0  0  0  0  0  0
    3.1517    1.1973    2.9098 H   0  0  0  0  0  0  0  0  0  0  0  0
    1.7486    2.2627    2.9952 H   0  0  0  0  0  0  0  0  0  0  0  0
    2.7665    3.8953    1.4965 H   0  0  0  0  0  0  0  0  0  0  0  0
    3.8810    3.5999    2.8093 H   0  0  0  0  0  0  0  0  0  0  0  0
    7.7981   -0.0208    0.3051 H   0  0  0  0  0  0  0  0  0  0  0  0
    8.5562    0.1508    2.6966 H   0  0  0  0  0  0  0  0  0  0  0  0
    7.1771    1.6494    4.1715 H   0  0  0  0  0  0  0  0  0  0  0  0
    3.1257    2.9439   -0.7243 H   0  0  0  0  0  0  0  0  0  0  0  0
    4.5080    1.9351   -1.0754 H   0  0  0  0  0  0  0  0  0  0  0  0
    3.5569    0.1035    0.3613 H   0  0  0  0  0  0  0  0  0  0  0  0
    2.3620    0.6409   -0.8233 H   0  0  0  0  0  0  0  0  0  0  0  0
   -0.9337    0.9028   -0.4905 H   0  0  0  0  0  0  0  0  0  0  0  0
  1  2  1  0
  2  3  1  0
  3  4  1  0
  4  5  2  0
  5  6  1  0
  6  7  2  0
  7  8  1  0
  8  9  2  0
  9 10  1  0
 10 11  1  0
 11 12  2  0
 11 13  2  0
 11 14  1  0
 14 15  2  0
 15 16  1  0
 16 17  2  0
 17 18  1  0
 18 19  1  0
 19 20  2  0
 19 21  1  0
 21 22  1  0
 22 23  1  0
 23 24  1  0
 24 25  1  0
 25 26  2  0
 26 27  1  0
 27 28  2  0
 28 29  1  0
 29 30  2  0
 24 31  1  0
 31 32  1  0
 18 33  2  0
 10  2  1  0
 33 14  1  0
  9  4  1  0
 32 21  1  0
 30 25  1  0
  1 34  1  0
  1 35  1  0
  1 36  1  0
  2 37  1  0
  3 38  1  0
  3 39  1  0
  5 40  1  0
  6 41  1  0
  7 42  1  0
  8 43  1  0
 15 44  1  0
 16 45  1  0
 17 46  1  0
 22 47  1  0
 22 48  1  0
 23 49  1  0
 23 50  1  0
 27 51  1  0
 28 52  1  0
 29 53  1  0
 31 54  1  0
 31 55  1  0
 32 56  1  0
 32 57  1  0
 33 58  1  0
M  END
$$$$
