
     RDKit          3D

 71 75  0  0  0  0  0  0  0  0999 V2000
    0.0991    3.3491    5.2155 C   0  0  0  0  0  0  0  0  0  0  0  0
    0.1245    1.8604    4.8990 C   0  0  0  0  0  0  0  0  0  0  0  0
    0.2504    1.6291    3.4485 N   0  0  0  0  0  0  0  0  0  0  0  0
    1.5032    1.4781    2.8674 C   0  0  0  0  0  0  0  0  0  0  0  0
    1.7721    1.2844    1.5680 C   0  0  0  0  0  0  0  0  0  0  0  0
    3.1954    1.1341    1.1503 C   0  0  0  0  0  0  0  0  0  0  0  0
    4.1138    1.1531    1.9663 O   0  0  0  0  0  0  0  0  0  0  0  0
    3.3974    0.9661   -0.1957 N   0  0  0  0  0  0  0  0  0  0  0  0
    4.7052    0.7144   -0.7671 C   0  0  0  0  0  0  0  0  0  0  0  0
    5.0613   -0.7674   -0.7104 C   0  0  0  0  0  0  0  0  0  0  0  0
    6.5193   -1.0846   -1.0655 C   0  0  0  0  0  0  0  0  0  0  0  0
    6.8113   -1.1206   -2.5024 N   0  0  0  0  0  0  0  0  0  0  0  0
    6.9232    0.1946   -3.1385 C   0  0  0  0  0  0  0  0  0  0  0  0
    7.8123   -0.0249   -4.3602 C   0  0  0  0  0  0  0  0  0  0  0  0
    8.3388   -1.4439   -4.2234 C   0  0  0  0  0  0  0  0  0  0  0  0
    8.0937   -1.7836   -2.7672 C   0  0  0  0  0  0  0  0  0  0  0  0
    0.6099    1.2262    0.6522 C   0  0  0  0  0  0  0  0  0  0  0  0
    0.7481    1.0120   -0.5504 O   0  0  0  0  0  0  0  0  0  0  0  0
   -0.7447    1.4293    1.2271 C   0  0  0  0  0  0  0  0  0  0  0  0
   -1.8461    1.4166    0.3564 C   0  0  0  0  0  0  0  0  0  0  0  0
   -3.1250    1.5901    0.8762 C   0  0  0  0  0  0  0  0  0  0  0  0
   -4.5413    1.5986   -0.1954 S   0  0  0  0  0  6  0  0  0  0  0  0
   -4.0868    1.4759   -1.5634 O   0  0  0  0  0  0  0  0  0  0  0  0
   -5.3776    2.7024    0.2261 O   0  0  0  0  0  0  0  0  0  0  0  0
   -5.3224    0.1504    0.2186 N   0  0  0  0  0  0  0  0  0  0  0  0
   -4.6056   -1.1172   -0.0969 C   0  0  0  0  0  0  0  0  0  0  0  0
   -5.2040   -1.8622   -1.2883 C   0  0  0  0  0  0  0  0  0  0  0  0
   -6.6472   -2.1683   -1.0021 C   0  0  0  0  0  0  0  0  0  0  0  0
   -7.2352   -3.3828   -1.3676 C   0  0  0  0  0  0  0  0  0  0  0  0
   -8.5786   -3.6195   -1.0782 C   0  0  0  0  0  0  0  0  0  0  0  0
   -9.3391   -2.6426   -0.4360 C   0  0  0  0  0  0  0  0  0  0  0  0
   -8.7602   -1.4223   -0.0856 C   0  0  0  0  0  0  0  0  0  0  0  0
   -7.4091   -1.1791   -0.3605 C   0  0  0  0  0  0  0  0  0  0  0  0
   -6.7832    0.1664   -0.0738 C   0  0  0  0  0  0  0  0  0  0  0  0
   -3.3089    1.7962    2.2424 C   0  0  0  0  0  0  0  0  0  0  0  0
   -2.2024    1.8134    3.1007 C   0  0  0  0  0  0  0  0  0  0  0  0
   -0.8940    1.6272    2.6202 C   0  0  0  0  0  0  0  0  0  0  0  0
    1.0119    3.8405    4.8628 H   0  0  0  0  0  0  0  0  0  0  0  0
    0.0266    3.5041    6.2964 H   0  0  0  0  0  0  0  0  0  0  0  0
   -0.7517    3.8494    4.7433 H   0  0  0  0  0  0  0  0  0  0  0  0
    0.9804    1.4105    5.4193 H   0  0  0  0  0  0  0  0  0  0  0  0
   -0.7508    1.3532    5.3191 H   0  0  0  0  0  0  0  0  0  0  0  0
    2.3190    1.5288    3.5878 H   0  0  0  0  0  0  0  0  0  0  0  0
    2.5793    0.8954   -0.8029 H   0  0  0  0  0  0  0  0  0  0  0  0
    4.6602    1.0767   -1.7956 H   0  0  0  0  0  0  0  0  0  0  0  0
    5.4464    1.3095   -0.2224 H   0  0  0  0  0  0  0  0  0  0  0  0
    4.3793   -1.3418   -1.3505 H   0  0  0  0  0  0  0  0  0  0  0  0
    4.8850   -1.1325    0.3105 H   0  0  0  0  0  0  0  0  0  0  0  0
    7.2017   -0.4106   -0.5322 H   0  0  0  0  0  0  0  0  0  0  0  0
    6.7101   -2.0891   -0.6638 H   0  0  0  0  0  0  0  0  0  0  0  0
    7.3900    0.9352   -2.4775 H   0  0  0  0  0  0  0  0  0  0  0  0
    5.9466    0.5719   -3.4525 H   0  0  0  0  0  0  0  0  0  0  0  0
    8.6376    0.6958   -4.3643 H   0  0  0  0  0  0  0  0  0  0  0  0
    7.2567    0.0929   -5.2963 H   0  0  0  0  0  0  0  0  0  0  0  0
    9.3942   -1.5226   -4.5000 H   0  0  0  0  0  0  0  0  0  0  0  0
    7.7670   -2.1168   -4.8742 H   0  0  0  0  0  0  0  0  0  0  0  0
    8.0379   -2.8659   -2.6131 H   0  0  0  0  0  0  0  0  0  0  0  0
    8.8982   -1.3760   -2.1416 H   0  0  0  0  0  0  0  0  0  0  0  0
   -1.6984    1.2730   -0.7126 H   0  0  0  0  0  0  0  0  0  0  0  0
   -4.6443   -1.7433    0.8042 H   0  0  0  0  0  0  0  0  0  0  0  0
   -3.5441   -0.9336   -0.2898 H   0  0  0  0  0  0  0  0  0  0  0  0
   -4.6411   -2.7881   -1.4515 H   0  0  0  0  0  0  0  0  0  0  0  0
   -5.1375   -1.2605   -2.2020 H   0  0  0  0  0  0  0  0  0  0  0  0
   -6.6539   -4.1488   -1.8751 H   0  0  0  0  0  0  0  0  0  0  0  0
   -9.0356   -4.5653   -1.3585 H   0  0  0  0  0  0  0  0  0  0  0  0
  -10.3883   -2.8279   -0.2196 H   0  0  0  0  0  0  0  0  0  0  0  0
   -9.3716   -0.6609    0.3937 H   0  0  0  0  0  0  0  0  0  0  0  0
   -6.9887    0.8018   -0.9450 H   0  0  0  0  0  0  0  0  0  0  0  0
   -7.2782    0.6126    0.7978 H   0  0  0  0  0  0  0  0  0  0  0  0
   -4.3085    1.9499    2.6458 H   0  0  0  0  0  0  0  0  0  0  0  0
   -2.4032    1.9856    4.1538 H   0  0  0  0  0  0  0  0  0  0  0  0
  1  2  1  0
  2  3  1  0
  3  4  1  0
  4  5  2  0
  5  6  1  0
  6  7  2  0
  6  8  1  0
  8  9  1  0
  9 10  1  0
 10 11  1  0
 11 12  1  0
 12 13  1  0
 13 14  1  0
 14 15  1  0
 15 16  1  0
  5 17  1  0
 17 18  2  0
 17 19  1  0
 19 20  2  0
 20 21  1  0
 21 22  1  0
 22 23  2  0
 22 24  2  0
 22 25  1  0
 25 26  1  0
 26 27  1  0
 27 28  1  0
 28 29  2  0
 29 30  1  0
 30 31  2  0
 31 32  1  0
 32 33  2  0
 33 34  1  0
 21 35  2  0
 35 36  1  0
 36 37  2  0
 37  3  1  0
 16 12  1  0
 37 19  1  0
 34 25  1  0
 33 28  1  0
  1 38  1  0
  1 39  1  0
  1 40  1  0
  2 41  1  0
  2 42  1  0
  4 43  1  0
  8 44  1  0
  9 45  1  0
  9 46  1  0
 10 47  1  0
 10 48  1  0
 11 49  1  0
 11 50  1  0
 13 51  1  0
 13 52  1  0
 14 53  1  0
 14 54  1  0
 15 55  1  0
 15 56  1  0
 16 57  1  0
 16 58  1  0
 20 59  1  0
 26 60  1  0
 26 61  1  0
 27 62  1  0
 27 63  1  0
 29 64  1  0
 30 65  1  0
 31 66  1  0
 32 67  1  0
 34 68  1  0
 34 69  1  0
 35 70  1  0
 36 71  1  0
M  END
$$$$
