
     RDKit          3D

 41 43  0  0  0  0  0  0  0  0999 V2000
   -2.0255    1.8019    1.0446 O   0  0  0  0  0  0  0  0  0  0  0  0
   -2.5534    1.3884    0.0140 C   0  0  0  0  0  0  0  0  0  0  0  0
   -3.7616    2.0593   -0.6099 C   0  0  0  0  0  0  0  0  0  0  0  0
   -5.0580    1.4004   -0.2137 C   0  0  0  0  0  0  0  0  0  0  0  0
   -5.4920    1.4448    1.1203 C   0  0  0  0  0  0  0  0  0  0  0  0
   -6.6952    0.8430    1.4942 C   0  0  0  0  0  0  0  0  0  0  0  0
   -7.4763    0.1901    0.5378 C   0  0  0  0  0  0  0  0  0  0  0  0
   -7.0536    0.1369   -0.7906 C   0  0  0  0  0  0  0  0  0  0  0  0
   -5.8498    0.7388   -1.1669 C   0  0  0  0  0  0  0  0  0  0  0  0
   -2.1049    0.2734   -0.6798 N   0  0  0  0  0  0  0  0  0  0  0  0
   -0.8304   -0.2024   -0.3192 N   0  0  0  0  0  0  0  0  0  0  0  0
    0.2858    0.4186   -0.8543 C   0  0  0  0  0  0  0  0  0  0  0  0
    0.2859    1.2925   -1.7137 O   0  0  0  0  0  0  0  0  0  0  0  0
    1.5083   -0.1879   -0.2584 C   0  0  0  0  0  0  0  0  0  0  0  0
    2.7341    0.2181   -0.6189 C   0  0  0  0  0  0  0  0  0  0  0  0
    4.0113   -0.3129   -0.1289 C   0  0  0  0  0  0  0  0  0  0  0  0
    4.9293   -0.8301   -1.0510 C   0  0  0  0  0  0  0  0  0  0  0  0
    6.1609   -1.3295   -0.6173 C   0  0  0  0  0  0  0  0  0  0  0  0
    6.4904   -1.3097    0.7436 C   0  0  0  0  0  0  0  0  0  0  0  0
    7.8038   -1.8603    1.1568 C   0  0  0  0  0  0  0  0  0  0  0  0
    8.6358   -2.3473    0.4148 O   0  0  0  0  0  0  0  0  0  0  0  0
    8.0134   -1.7756    2.4840 O   0  0  0  0  0  0  0  0  0  0  0  0
    5.5844   -0.7738    1.6663 C   0  0  0  0  0  0  0  0  0  0  0  0
    4.3534   -0.2723    1.2299 C   0  0  0  0  0  0  0  0  0  0  0  0
    1.0791   -1.4436    0.8448 S   0  0  0  0  0  0  0  0  0  0  0  0
   -0.6513   -1.2395    0.5728 C   0  0  0  0  0  0  0  0  0  0  0  0
   -1.8171   -2.2123    1.2732 S   0  0  0  0  0  0  0  0  0  0  0  0
   -3.7733    3.1106   -0.3017 H   0  0  0  0  0  0  0  0  0  0  0  0
   -3.6436    2.0702   -1.7023 H   0  0  0  0  0  0  0  0  0  0  0  0
   -4.8935    1.9493    1.8786 H   0  0  0  0  0  0  0  0  0  0  0  0
   -7.0233    0.8843    2.5334 H   0  0  0  0  0  0  0  0  0  0  0  0
   -8.4150   -0.2759    0.8304 H   0  0  0  0  0  0  0  0  0  0  0  0
   -7.6658   -0.3695   -1.5361 H   0  0  0  0  0  0  0  0  0  0  0  0
   -5.5443    0.6893   -2.2111 H   0  0  0  0  0  0  0  0  0  0  0  0
   -2.3282    0.1926   -1.6688 H   0  0  0  0  0  0  0  0  0  0  0  0
    2.8356    1.0037   -1.3664 H   0  0  0  0  0  0  0  0  0  0  0  0
    4.6932   -0.8581   -2.1137 H   0  0  0  0  0  0  0  0  0  0  0  0
    6.8601   -1.7369   -1.3449 H   0  0  0  0  0  0  0  0  0  0  0  0
    8.9002   -2.1738    2.6093 H   0  0  0  0  0  0  0  0  0  0  0  0
    5.8231   -0.7429    2.7284 H   0  0  0  0  0  0  0  0  0  0  0  0
    3.6678    0.1481    1.9645 H   0  0  0  0  0  0  0  0  0  0  0  0
  1  2  2  0
  2  3  1  0
  3  4  1  0
  4  5  2  0
  5  6  1  0
  6  7  2  0
  7  8  1  0
  8  9  2  0
  2 10  1  0
 10 11  1  0
 11 12  1  0
 12 13  2  0
 12 14  1  0
 14 15  2  3
 15 16  1  0
 16 17  2  0
 17 18  1  0
 18 19  2  0
 19 20  1  0
 20 21  2  0
 20 22  1  0
 19 23  1  0
 23 24  2  0
 14 25  1  0
 25 26  1  0
 26 27  2  0
  9  4  1  0
 26 11  1  0
 24 16  1  0
  3 28  1  0
  3 29  1  0
  5 30  1  0
  6 31  1  0
  7 32  1  0
  8 33  1  0
  9 34  1  0
 10 35  1  0
 15 36  1  0
 17 37  1  0
 18 38  1  0
 22 39  1  0
 23 40  1  0
 24 41  1  0
M  END
$$$$
