
     RDKit          3D

 41 43  0  0  0  0  0  0  0  0999 V2000
   -5.5422   -0.3133    3.2032 C   0  0  0  0  0  0  0  0  0  0  0  0
   -4.2541   -0.0673    2.6546 O   0  0  0  0  0  0  0  0  0  0  0  0
   -4.1026   -0.2561    1.3080 C   0  0  0  0  0  0  0  0  0  0  0  0
   -5.0991   -0.6690    0.4250 C   0  0  0  0  0  0  0  0  0  0  0  0
   -4.8152   -0.8296   -0.9360 C   0  0  0  0  0  0  0  0  0  0  0  0
   -3.5308   -0.5766   -1.4224 C   0  0  0  0  0  0  0  0  0  0  0  0
   -3.1459   -0.7045   -2.7374 O   0  0  0  0  0  0  0  0  0  0  0  0
   -4.1354   -1.1409   -3.6617 C   0  0  0  0  0  0  0  0  0  0  0  0
   -2.5206   -0.1543   -0.5338 C   0  0  0  0  0  0  0  0  0  0  0  0
   -1.2428    0.0793   -1.0876 N   0  0  0  0  0  0  0  0  0  0  0  0
   -0.1205    0.5707   -0.4707 C   0  0  0  0  0  0  0  0  0  0  0  0
   -0.0116    0.9621    0.6878 O   0  0  0  0  0  0  0  0  0  0  0  0
    0.9615    0.6143   -1.3423 N   0  0  0  0  0  0  0  0  0  0  0  0
    2.2122    0.9232   -0.7371 N   0  0  0  0  0  0  0  0  0  0  0  0
    3.2597    0.0581   -1.0109 C   0  0  0  0  0  0  0  0  0  0  0  0
    3.1641   -0.7934   -1.8947 O   0  0  0  0  0  0  0  0  0  0  0  0
    4.4350    0.2218   -0.1742 C   0  0  0  0  0  0  0  0  0  0  0  0
    5.5195   -0.6536   -0.0981 C   0  0  0  0  0  0  0  0  0  0  0  0
    6.3850   -0.0595    0.8294 C   0  0  0  0  0  0  0  0  0  0  0  0
    7.5893   -0.3225    1.3967 O   0  0  0  0  0  0  0  0  0  0  0  0
    7.8115    0.7364    2.2298 C   0  0  0  0  0  0  0  0  0  0  0  0
    6.7916    1.6624    2.2094 C   0  0  0  0  0  0  0  0  0  0  0  0
    5.8851    1.1040    1.2863 C   0  0  0  0  0  0  0  0  0  0  0  0
    4.6807    1.3010    0.6682 N   0  0  0  0  0  0  0  0  0  0  0  0
   -2.8155   -0.0008    0.8230 C   0  0  0  0  0  0  0  0  0  0  0  0
   -6.2888    0.3649    2.7770 H   0  0  0  0  0  0  0  0  0  0  0  0
   -5.8353   -1.3597    3.0686 H   0  0  0  0  0  0  0  0  0  0  0  0
   -5.4907   -0.1180    4.2786 H   0  0  0  0  0  0  0  0  0  0  0  0
   -6.1095   -0.8764    0.7621 H   0  0  0  0  0  0  0  0  0  0  0  0
   -5.6215   -1.1537   -1.5853 H   0  0  0  0  0  0  0  0  0  0  0  0
   -4.4969   -2.1432   -3.4094 H   0  0  0  0  0  0  0  0  0  0  0  0
   -4.9607   -0.4241   -3.7236 H   0  0  0  0  0  0  0  0  0  0  0  0
   -3.6678   -1.1952   -4.6495 H   0  0  0  0  0  0  0  0  0  0  0  0
   -1.1971   -0.0591   -2.0901 H   0  0  0  0  0  0  0  0  0  0  0  0
    1.0291   -0.1456   -2.0196 H   0  0  0  0  0  0  0  0  0  0  0  0
    2.1144    1.2944    0.2067 H   0  0  0  0  0  0  0  0  0  0  0  0
    5.6444   -1.5811   -0.6394 H   0  0  0  0  0  0  0  0  0  0  0  0
    8.7461    0.6874    2.7727 H   0  0  0  0  0  0  0  0  0  0  0  0
    6.7274    2.5814    2.7719 H   0  0  0  0  0  0  0  0  0  0  0  0
    4.1055    2.1217    0.8132 H   0  0  0  0  0  0  0  0  0  0  0  0
   -2.0578    0.3144    1.5335 H   0  0  0  0  0  0  0  0  0  0  0  0
  1  2  1  0
  2  3  1  0
  3  4  2  0
  4  5  1  0
  5  6  2  0
  6  7  1  0
  7  8  1  0
  6  9  1  0
  9 10  1  0
 10 11  1  0
 11 12  2  0
 11 13  1  0
 13 14  1  0
 14 15  1  0
 15 16  2  0
 15 17  1  0
 17 18  2  0
 18 19  1  0
 19 20  1  0
 20 21  1  0
 21 22  2  0
 22 23  1  0
 23 24  1  0
  9 25  2  0
 25  3  1  0
 24 17  1  0
 23 19  2  0
  1 26  1  0
  1 27  1  0
  1 28  1  0
  4 29  1  0
  5 30  1  0
  8 31  1  0
  8 32  1  0
  8 33  1  0
 10 34  1  0
 13 35  1  0
 14 36  1  0
 18 37  1  0
 21 38  1  0
 22 39  1  0
 24 40  1  0
 25 41  1  0
M  END
$$$$
