
     RDKit          3D

 49 52  0  0  0  0  0  0  0  0999 V2000
   -0.7554    2.6291    4.3505 C   0  0  0  0  0  0  0  0  0  0  0  0
   -0.5924    2.0975    2.9357 C   0  0  0  0  0  0  0  0  0  0  0  0
   -0.6584    0.5716    2.9018 C   0  0  0  0  0  0  0  0  0  0  0  0
   -0.4968    0.0558    1.4983 C   0  0  0  0  0  0  0  0  0  0  0  0
    0.7528   -0.2054    1.0702 N   0  0  0  0  0  0  0  0  0  0  0  0
    0.9349   -0.6172   -0.2021 C   0  0  0  0  0  0  0  0  0  0  0  0
    2.2419   -0.8734   -0.6286 N   0  0  0  0  0  0  0  0  0  0  0  0
    2.7026   -0.1403   -1.8288 C   0  0  0  0  0  0  0  0  0  0  0  0
    4.0526    0.5818   -1.5963 C   0  0  0  0  0  0  0  0  0  0  0  0
    5.1455   -0.2516   -1.0550 N   0  0  0  0  0  0  0  0  0  0  0  0
    5.9703   -0.8244   -2.1154 C   0  0  0  0  0  0  0  0  0  0  0  0
    4.6240   -1.3175   -0.1679 C   0  0  0  0  0  0  0  0  0  0  0  0
    3.2451   -0.9938    0.4478 C   0  0  0  0  0  0  0  0  0  0  0  0
   -0.1664   -0.8044   -1.0219 C   0  0  0  0  0  0  0  0  0  0  0  0
   -0.2853   -1.3706   -2.6880 S   0  0  0  0  0  0  0  0  0  0  0  0
   -2.0557   -1.2355   -2.6709 C   0  0  0  0  0  0  0  0  0  0  0  0
   -2.9489   -1.7351   -3.9944 S   0  0  0  0  0  0  0  0  0  0  0  0
   -2.4765   -0.7593   -1.4242 N   0  0  0  0  0  0  0  0  0  0  0  0
   -3.8185   -0.4703   -1.0379 C   0  0  0  0  0  0  0  0  0  0  0  0
   -4.3223   -0.8776    0.2078 C   0  0  0  0  0  0  0  0  0  0  0  0
   -5.6415   -0.6006    0.5799 C   0  0  0  0  0  0  0  0  0  0  0  0
   -6.4800    0.0919   -0.2877 C   0  0  0  0  0  0  0  0  0  0  0  0
   -5.9989    0.5087   -1.5249 C   0  0  0  0  0  0  0  0  0  0  0  0
   -4.6793    0.2299   -1.8960 C   0  0  0  0  0  0  0  0  0  0  0  0
   -1.4160   -0.5384   -0.4932 C   0  0  0  0  0  0  0  0  0  0  0  0
   -1.6020   -0.0798    0.7540 N   0  0  0  0  0  0  0  0  0  0  0  0
   -1.7212    2.3325    4.7721 H   0  0  0  0  0  0  0  0  0  0  0  0
    0.0365    2.2513    5.0052 H   0  0  0  0  0  0  0  0  0  0  0  0
   -0.7052    3.7225    4.3528 H   0  0  0  0  0  0  0  0  0  0  0  0
   -1.3773    2.5232    2.2986 H   0  0  0  0  0  0  0  0  0  0  0  0
    0.3664    2.4426    2.5296 H   0  0  0  0  0  0  0  0  0  0  0  0
   -1.6177    0.2242    3.3039 H   0  0  0  0  0  0  0  0  0  0  0  0
    0.1278    0.1436    3.5352 H   0  0  0  0  0  0  0  0  0  0  0  0
    2.8202   -0.8596   -2.6477 H   0  0  0  0  0  0  0  0  0  0  0  0
    1.9774    0.6178   -2.1496 H   0  0  0  0  0  0  0  0  0  0  0  0
    4.3637    1.0856   -2.5201 H   0  0  0  0  0  0  0  0  0  0  0  0
    3.8804    1.3905   -0.8733 H   0  0  0  0  0  0  0  0  0  0  0  0
    6.4373   -0.0308   -2.7090 H   0  0  0  0  0  0  0  0  0  0  0  0
    6.7867   -1.4179   -1.6889 H   0  0  0  0  0  0  0  0  0  0  0  0
    5.3924   -1.4647   -2.7913 H   0  0  0  0  0  0  0  0  0  0  0  0
    5.3501   -1.4846    0.6358 H   0  0  0  0  0  0  0  0  0  0  0  0
    4.5266   -2.2639   -0.7179 H   0  0  0  0  0  0  0  0  0  0  0  0
    3.3150   -0.0699    1.0374 H   0  0  0  0  0  0  0  0  0  0  0  0
    2.9663   -1.8107    1.1250 H   0  0  0  0  0  0  0  0  0  0  0  0
   -3.7040   -1.4436    0.9003 H   0  0  0  0  0  0  0  0  0  0  0  0
   -6.0116   -0.9317    1.5467 H   0  0  0  0  0  0  0  0  0  0  0  0
   -7.5055    0.3077    0.0002 H   0  0  0  0  0  0  0  0  0  0  0  0
   -6.6471    1.0574   -2.2037 H   0  0  0  0  0  0  0  0  0  0  0  0
   -4.3323    0.6073   -2.8542 H   0  0  0  0  0  0  0  0  0  0  0  0
  1  2  1  0
  2  3  1  0
  3  4  1  0
  4  5  2  0
  5  6  1  0
  6  7  1  0
  7  8  1  0
  8  9  1  0
  9 10  1  0
 10 11  1  0
 10 12  1  0
 12 13  1  0
  6 14  2  0
 14 15  1  0
 15 16  1  0
 16 17  2  0
 16 18  1  0
 18 19  1  0
 19 20  2  0
 20 21  1  0
 21 22  2  0
 22 23  1  0
 23 24  2  0
 18 25  1  0
 25 26  2  0
 26  4  1  0
 13  7  1  0
 25 14  1  0
 24 19  1  0
  1 27  1  0
  1 28  1  0
  1 29  1  0
  2 30  1  0
  2 31  1  0
  3 32  1  0
  3 33  1  0
  8 34  1  0
  8 35  1  0
  9 36  1  0
  9 37  1  0
 11 38  1  0
 11 39  1  0
 11 40  1  0
 12 41  1  0
 12 42  1  0
 13 43  1  0
 13 44  1  0
 20 45  1  0
 21 46  1  0
 22 47  1  0
 23 48  1  0
 24 49  1  0
M  END
$$$$
