
     RDKit          3D

 31 33  0  0  0  0  0  0  0  0999 V2000
    4.6381   -1.5189    0.9486 O   0  0  0  0  0  0  0  0  0  0  0  0
    4.1778   -0.4059    0.7516 C   0  0  0  0  0  0  0  0  0  0  0  0
    4.7377    0.6769    1.3403 O   0  0  0  0  0  0  0  0  0  0  0  0
    3.0229   -0.0679   -0.1678 C   0  0  0  0  0  0  0  0  0  0  0  0
    2.4698    1.2553    0.1548 N   0  0  0  0  0  0  0  0  0  0  0  0
    1.3013    1.9077   -0.8413 S   0  0  0  0  0  6  0  0  0  0  0  0
    1.5088    1.4104   -2.1808 O   0  0  0  0  0  0  0  0  0  0  0  0
    1.2979    3.3280   -0.5653 O   0  0  0  0  0  0  0  0  0  0  0  0
   -0.1910    1.2248   -0.1535 C   0  0  0  0  0  0  0  0  0  0  0  0
   -0.8040    1.9526    0.9076 C   0  0  0  0  0  0  0  0  0  0  0  0
   -1.9891    1.5079    1.5117 C   0  0  0  0  0  0  0  0  0  0  0  0
   -2.5346    0.3422    1.0323 C   0  0  0  0  0  0  0  0  0  0  0  0
   -1.9440   -0.3498    0.0061 C   0  0  0  0  0  0  0  0  0  0  0  0
   -2.6929   -1.4667   -0.2725 C   0  0  0  0  0  0  0  0  0  0  0  0
   -2.3244   -2.3447   -1.2678 C   0  0  0  0  0  0  0  0  0  0  0  0
   -1.1570   -2.0471   -1.9804 C   0  0  0  0  0  0  0  0  0  0  0  0
   -0.3908   -0.8919   -1.6850 C   0  0  0  0  0  0  0  0  0  0  0  0
   -0.7713    0.0184   -0.6527 C   0  0  0  0  0  0  0  0  0  0  0  0
   -3.8426   -1.4681    0.6580 C   0  0  0  0  0  0  0  0  0  0  0  0
   -4.7241   -2.3000    0.7158 O   0  0  0  0  0  0  0  0  0  0  0  0
   -3.6851   -0.3299    1.4319 N   0  0  0  0  0  0  0  0  0  0  0  0
    5.4684    0.3019    1.8776 H   0  0  0  0  0  0  0  0  0  0  0  0
    2.2497   -0.8295   -0.0402 H   0  0  0  0  0  0  0  0  0  0  0  0
    3.4161   -0.0789   -1.1882 H   0  0  0  0  0  0  0  0  0  0  0  0
    3.1353    1.9406    0.5228 H   0  0  0  0  0  0  0  0  0  0  0  0
   -0.3504    2.8766    1.2666 H   0  0  0  0  0  0  0  0  0  0  0  0
   -2.4486    2.0668    2.3191 H   0  0  0  0  0  0  0  0  0  0  0  0
   -2.9191   -3.2250   -1.4871 H   0  0  0  0  0  0  0  0  0  0  0  0
   -0.8321   -2.7114   -2.7797 H   0  0  0  0  0  0  0  0  0  0  0  0
    0.5014   -0.7188   -2.2824 H   0  0  0  0  0  0  0  0  0  0  0  0
   -4.3241   -0.0554    2.1624 H   0  0  0  0  0  0  0  0  0  0  0  0
  1  2  2  0
  2  3  1  0
  2  4  1  0
  4  5  1  0
  5  6  1  0
  6  7  2  0
  6  8  2  0
  6  9  1  0
  9 10  2  0
 10 11  1  0
 11 12  2  0
 12 13  1  0
 13 14  2  0
 14 15  1  0
 15 16  2  0
 16 17  1  0
 17 18  2  0
 14 19  1  0
 19 20  2  0
 19 21  1  0
 18  9  1  0
 21 12  1  0
 18 13  1  0
  3 22  1  0
  4 23  1  0
  4 24  1  0
  5 25  1  0
 10 26  1  0
 11 27  1  0
 15 28  1  0
 16 29  1  0
 17 30  1  0
 21 31  1  0
M  END
$$$$
