
     RDKit          3D

 52 53  0  0  0  0  0  0  0  0999 V2000
    7.3558    2.5581    2.4172 C   0  0  0  0  0  0  0  0  0  0  0  0
    6.4942    1.4315    2.3253 O   0  0  0  0  0  0  0  0  0  0  0  0
    5.5808    1.4281    1.3055 C   0  0  0  0  0  0  0  0  0  0  0  0
    5.4163    2.4364    0.3557 C   0  0  0  0  0  0  0  0  0  0  0  0
    4.4433    2.3070   -0.6360 C   0  0  0  0  0  0  0  0  0  0  0  0
    3.6345    1.1708   -0.6797 C   0  0  0  0  0  0  0  0  0  0  0  0
    3.7880    0.1517    0.2666 C   0  0  0  0  0  0  0  0  0  0  0  0
    2.9319   -0.9587    0.1492 N   0  0  0  0  0  0  0  0  0  0  0  0
    2.8559   -2.0733    0.9657 C   0  0  0  0  0  0  0  0  0  0  0  0
    3.5429   -2.3104    1.9554 O   0  0  0  0  0  0  0  0  0  0  0  0
    1.7883   -3.0722    0.4991 C   0  0  0  0  0  0  0  0  0  0  0  0
    0.4301   -2.5380    0.6322 N   0  0  0  0  0  0  0  0  0  0  0  0
   -0.1800   -2.6633    1.9507 C   0  0  0  0  0  0  0  0  0  0  0  0
   -0.0821   -1.7928   -0.4136 C   0  0  0  0  0  0  0  0  0  0  0  0
    0.6188   -1.4324   -1.3602 O   0  0  0  0  0  0  0  0  0  0  0  0
   -1.5208   -1.4434   -0.3564 C   0  0  0  0  0  0  0  0  0  0  0  0
   -1.9755   -0.3764   -1.0297 C   0  0  0  0  0  0  0  0  0  0  0  0
   -3.3954    0.0148   -1.0442 C   0  0  0  0  0  0  0  0  0  0  0  0
   -3.9855    0.2203   -2.3054 C   0  0  0  0  0  0  0  0  0  0  0  0
   -5.3211    0.6057   -2.4127 C   0  0  0  0  0  0  0  0  0  0  0  0
   -6.0067    0.8269   -3.5746 O   0  0  0  0  0  0  0  0  0  0  0  0
   -5.2905    0.6469   -4.7903 C   0  0  0  0  0  0  0  0  0  0  0  0
   -6.0681    0.7936   -1.2509 C   0  0  0  0  0  0  0  0  0  0  0  0
   -5.4936    0.6069    0.0099 C   0  0  0  0  0  0  0  0  0  0  0  0
   -4.1539    0.2254    0.1268 C   0  0  0  0  0  0  0  0  0  0  0  0
   -3.5091    0.0361    1.3236 O   0  0  0  0  0  0  0  0  0  0  0  0
   -4.1969    0.4199    2.5072 C   0  0  0  0  0  0  0  0  0  0  0  0
    4.7642    0.2900    1.2551 C   0  0  0  0  0  0  0  0  0  0  0  0
    6.7874    3.4762    2.5994 H   0  0  0  0  0  0  0  0  0  0  0  0
    7.9817    2.6507    1.5235 H   0  0  0  0  0  0  0  0  0  0  0  0
    8.0195    2.4026    3.2732 H   0  0  0  0  0  0  0  0  0  0  0  0
    6.0269    3.3326    0.3591 H   0  0  0  0  0  0  0  0  0  0  0  0
    4.3145    3.0920   -1.3766 H   0  0  0  0  0  0  0  0  0  0  0  0
    2.8825    1.0919   -1.4616 H   0  0  0  0  0  0  0  0  0  0  0  0
    2.2552   -0.9310   -0.6163 H   0  0  0  0  0  0  0  0  0  0  0  0
    1.9900   -3.3322   -0.5469 H   0  0  0  0  0  0  0  0  0  0  0  0
    1.8681   -3.9934    1.0868 H   0  0  0  0  0  0  0  0  0  0  0  0
   -0.4517   -3.7109    2.1072 H   0  0  0  0  0  0  0  0  0  0  0  0
   -1.0641   -2.0347    2.0681 H   0  0  0  0  0  0  0  0  0  0  0  0
    0.5472   -2.3611    2.7109 H   0  0  0  0  0  0  0  0  0  0  0  0
   -2.1860   -2.0852    0.2057 H   0  0  0  0  0  0  0  0  0  0  0  0
   -1.3030    0.2408   -1.6209 H   0  0  0  0  0  0  0  0  0  0  0  0
   -3.3782    0.0626   -3.1916 H   0  0  0  0  0  0  0  0  0  0  0  0
   -4.4528    1.3484   -4.8623 H   0  0  0  0  0  0  0  0  0  0  0  0
   -4.9508   -0.3884   -4.8986 H   0  0  0  0  0  0  0  0  0  0  0  0
   -5.9754    0.8605   -5.6164 H   0  0  0  0  0  0  0  0  0  0  0  0
   -7.1114    1.0918   -1.3266 H   0  0  0  0  0  0  0  0  0  0  0  0
   -6.1239    0.7683    0.8778 H   0  0  0  0  0  0  0  0  0  0  0  0
   -4.4814    1.4770    2.4777 H   0  0  0  0  0  0  0  0  0  0  0  0
   -3.5119    0.2834    3.3497 H   0  0  0  0  0  0  0  0  0  0  0  0
   -5.0671   -0.2215    2.6803 H   0  0  0  0  0  0  0  0  0  0  0  0
    4.9191   -0.4774    2.0068 H   0  0  0  0  0  0  0  0  0  0  0  0
  1  2  1  0
  2  3  1  0
  3  4  2  0
  4  5  1  0
  5  6  2  0
  6  7  1  0
  7  8  1  0
  8  9  1  0
  9 10  2  0
  9 11  1  0
 11 12  1  0
 12 13  1  0
 12 14  1  0
 14 15  2  0
 14 16  1  0
 16 17  2  3
 17 18  1  0
 18 19  2  0
 19 20  1  0
 20 21  1  0
 21 22  1  0
 20 23  2  0
 23 24  1  0
 24 25  2  0
 25 26  1  0
 26 27  1  0
  7 28  2  0
 28  3  1  0
 25 18  1  0
  1 29  1  0
  1 30  1  0
  1 31  1  0
  4 32  1  0
  5 33  1  0
  6 34  1  0
  8 35  1  0
 11 36  1  0
 11 37  1  0
 13 38  1  0
 13 39  1  0
 13 40  1  0
 16 41  1  0
 17 42  1  0
 19 43  1  0
 22 44  1  0
 22 45  1  0
 22 46  1  0
 23 47  1  0
 24 48  1  0
 27 49  1  0
 27 50  1  0
 27 51  1  0
 28 52  1  0
M  END
$$$$
