
     RDKit          3D

 36 38  0  0  0  0  0  0  0  0999 V2000
    5.8884    0.0384    0.6453 C   0  0  0  0  0  0  0  0  0  0  0  0
    4.4500   -0.1981    0.2872 C   0  0  0  0  0  0  0  0  0  0  0  0
    3.7437   -1.2629    0.8642 C   0  0  0  0  0  0  0  0  0  0  0  0
    2.4165   -1.5054    0.5085 C   0  0  0  0  0  0  0  0  0  0  0  0
    1.7961   -0.6817   -0.4339 C   0  0  0  0  0  0  0  0  0  0  0  0
    0.1092   -1.0017   -0.8741 S   0  0  0  0  0  6  0  0  0  0  0  0
   -0.0039   -2.4128   -1.1701 O   0  0  0  0  0  0  0  0  0  0  0  0
   -0.3252   -0.0008   -1.8245 O   0  0  0  0  0  0  0  0  0  0  0  0
   -0.7264   -0.7036    0.5868 N   0  0  0  0  0  0  0  0  0  0  0  0
   -0.7506    0.7398    0.9930 C   0  0  0  0  0  0  0  0  0  0  0  0
   -1.8897    1.6010    0.4421 C   0  0  0  0  0  0  0  0  0  0  0  0
   -1.8352    2.8301    0.4762 O   0  0  0  0  0  0  0  0  0  0  0  0
   -3.0197    0.9317    0.0498 N   0  0  0  0  0  0  0  0  0  0  0  0
   -4.2501    1.5359   -0.3522 C   0  0  0  0  0  0  0  0  0  0  0  0
   -5.2160    0.3776   -0.1938 C   0  0  0  0  0  0  0  0  0  0  0  0
   -4.4261   -0.8362   -0.1636 O   0  0  0  0  0  0  0  0  0  0  0  0
   -3.0486   -0.4611   -0.2829 C   0  0  0  0  0  0  0  0  0  0  0  0
   -2.1164   -1.2798    0.6146 C   0  0  0  0  0  0  0  0  0  0  0  0
    2.4924    0.3687   -1.0349 C   0  0  0  0  0  0  0  0  0  0  0  0
    3.8196    0.6056   -0.6734 C   0  0  0  0  0  0  0  0  0  0  0  0
    6.0876   -0.2618    1.6794 H   0  0  0  0  0  0  0  0  0  0  0  0
    6.1420    1.1004    0.5613 H   0  0  0  0  0  0  0  0  0  0  0  0
    6.5390   -0.5353   -0.0218 H   0  0  0  0  0  0  0  0  0  0  0  0
    4.2268   -1.9112    1.5926 H   0  0  0  0  0  0  0  0  0  0  0  0
    1.8754   -2.3340    0.9602 H   0  0  0  0  0  0  0  0  0  0  0  0
   -0.8318    0.7643    2.0869 H   0  0  0  0  0  0  0  0  0  0  0  0
    0.1966    1.2266    0.7421 H   0  0  0  0  0  0  0  0  0  0  0  0
   -4.1568    1.8384   -1.4008 H   0  0  0  0  0  0  0  0  0  0  0  0
   -4.5036    2.4116    0.2512 H   0  0  0  0  0  0  0  0  0  0  0  0
   -5.7545    0.4371    0.7577 H   0  0  0  0  0  0  0  0  0  0  0  0
   -5.9464    0.3235   -1.0061 H   0  0  0  0  0  0  0  0  0  0  0  0
   -2.7742   -0.5682   -1.3380 H   0  0  0  0  0  0  0  0  0  0  0  0
   -2.4745   -1.2629    1.6523 H   0  0  0  0  0  0  0  0  0  0  0  0
   -2.1135   -2.3358    0.3254 H   0  0  0  0  0  0  0  0  0  0  0  0
    2.0175    1.0017   -1.7813 H   0  0  0  0  0  0  0  0  0  0  0  0
    4.3625    1.4211   -1.1477 H   0  0  0  0  0  0  0  0  0  0  0  0
  1  2  1  0
  2  3  2  0
  3  4  1  0
  4  5  2  0
  5  6  1  0
  6  7  2  0
  6  8  2  0
  6  9  1  0
  9 10  1  0
 10 11  1  0
 11 12  2  0
 11 13  1  0
 13 14  1  0
 14 15  1  0
 15 16  1  0
 16 17  1  0
 17 18  1  0
  5 19  1  0
 19 20  2  0
 20  2  1  0
 18  9  1  0
 17 13  1  0
  1 21  1  0
  1 22  1  0
  1 23  1  0
  3 24  1  0
  4 25  1  0
 10 26  1  0
 10 27  1  0
 14 28  1  0
 14 29  1  0
 15 30  1  0
 15 31  1  0
 17 32  1  0
 18 33  1  0
 18 34  1  0
 19 35  1  0
 20 36  1  0
M  END
$$$$
