
     RDKit          3D

 60 61  0  0  0  0  0  0  0  0999 V2000
   -0.3475   -3.1404    2.1161 C   0  0  0  0  0  0  0  0  0  0  0  0
   -0.5675   -1.7618    1.8451 O   0  0  0  0  0  0  0  0  0  0  0  0
    0.4063   -1.0810    1.1647 C   0  0  0  0  0  0  0  0  0  0  0  0
    1.6680   -1.6095    0.8703 C   0  0  0  0  0  0  0  0  0  0  0  0
    2.6203   -0.8495    0.1832 C   0  0  0  0  0  0  0  0  0  0  0  0
    2.3251    0.4563   -0.2237 C   0  0  0  0  0  0  0  0  0  0  0  0
    3.3263    1.2865   -0.9520 C   0  0  0  0  0  0  0  0  0  0  0  0
    3.1693    2.5034   -1.0136 O   0  0  0  0  0  0  0  0  0  0  0  0
    4.4451    0.5979   -1.6517 C   0  0  0  0  0  0  0  0  0  0  0  0
    5.6842    1.0946   -1.7993 C   0  0  0  0  0  0  0  0  0  0  0  0
    6.2129    2.3465   -1.2465 C   0  0  0  0  0  0  0  0  0  0  0  0
    6.7886    3.2867   -2.1105 C   0  0  0  0  0  0  0  0  0  0  0  0
    7.3351    4.4719   -1.6092 C   0  0  0  0  0  0  0  0  0  0  0  0
    7.3124    4.7082   -0.2397 C   0  0  0  0  0  0  0  0  0  0  0  0
    7.8342    5.8497    0.2928 O   0  0  0  0  0  0  0  0  0  0  0  0
    6.7554    3.7819    0.6332 C   0  0  0  0  0  0  0  0  0  0  0  0
    6.2081    2.5989    0.1309 C   0  0  0  0  0  0  0  0  0  0  0  0
    1.0672    0.9975    0.0967 C   0  0  0  0  0  0  0  0  0  0  0  0
    0.7351    2.2886   -0.2420 O   0  0  0  0  0  0  0  0  0  0  0  0
    0.0942    0.2390    0.7812 C   0  0  0  0  0  0  0  0  0  0  0  0
   -1.2708    0.8373    1.0779 C   0  0  0  0  0  0  0  0  0  0  0  0
   -2.1999    0.7863   -0.1108 C   0  0  0  0  0  0  0  0  0  0  0  0
   -3.4339    0.2465   -0.1944 C   0  0  0  0  0  0  0  0  0  0  0  0
   -4.2121    0.3462   -1.4822 C   0  0  0  0  0  0  0  0  0  0  0  0
   -4.1599   -0.4190    0.9584 C   0  0  0  0  0  0  0  0  0  0  0  0
   -4.0108   -1.9459    1.0093 C   0  0  0  0  0  0  0  0  0  0  0  0
   -4.8864   -2.6823    0.0303 C   0  0  0  0  0  0  0  0  0  0  0  0
   -6.1222   -3.1726    0.2485 C   0  0  0  0  0  0  0  0  0  0  0  0
   -6.8551   -3.9214   -0.8318 C   0  0  0  0  0  0  0  0  0  0  0  0
   -6.8898   -3.0238    1.5320 C   0  0  0  0  0  0  0  0  0  0  0  0
   -0.1784   -3.7045    1.1932 H   0  0  0  0  0  0  0  0  0  0  0  0
    0.4795   -3.2750    2.8212 H   0  0  0  0  0  0  0  0  0  0  0  0
   -1.2524   -3.5367    2.5859 H   0  0  0  0  0  0  0  0  0  0  0  0
    1.9491   -2.6130    1.1756 H   0  0  0  0  0  0  0  0  0  0  0  0
    3.5936   -1.2964    0.0003 H   0  0  0  0  0  0  0  0  0  0  0  0
    4.2048   -0.3607   -2.1005 H   0  0  0  0  0  0  0  0  0  0  0  0
    6.4067    0.5251   -2.3814 H   0  0  0  0  0  0  0  0  0  0  0  0
    6.8061    3.1074   -3.1827 H   0  0  0  0  0  0  0  0  0  0  0  0
    7.7671    5.1898   -2.2980 H   0  0  0  0  0  0  0  0  0  0  0  0
    8.1235    6.4255   -0.4335 H   0  0  0  0  0  0  0  0  0  0  0  0
    6.7391    3.9814    1.7003 H   0  0  0  0  0  0  0  0  0  0  0  0
    5.7742    1.8849    0.8258 H   0  0  0  0  0  0  0  0  0  0  0  0
    1.5412    2.7381   -0.5862 H   0  0  0  0  0  0  0  0  0  0  0  0
   -1.1454    1.8862    1.3759 H   0  0  0  0  0  0  0  0  0  0  0  0
   -1.7033    0.3573    1.9600 H   0  0  0  0  0  0  0  0  0  0  0  0
   -1.7926    1.2761   -0.9965 H   0  0  0  0  0  0  0  0  0  0  0  0
   -5.1817    0.8229   -1.3051 H   0  0  0  0  0  0  0  0  0  0  0  0
   -4.3827   -0.6428   -1.9138 H   0  0  0  0  0  0  0  0  0  0  0  0
   -3.6887    0.9443   -2.2354 H   0  0  0  0  0  0  0  0  0  0  0  0
   -5.2217   -0.1393    0.9309 H   0  0  0  0  0  0  0  0  0  0  0  0
   -3.7955   -0.0094    1.9080 H   0  0  0  0  0  0  0  0  0  0  0  0
   -4.2216   -2.2893    2.0288 H   0  0  0  0  0  0  0  0  0  0  0  0
   -2.9712   -2.2340    0.8171 H   0  0  0  0  0  0  0  0  0  0  0  0
   -4.4278   -2.8376   -0.9453 H   0  0  0  0  0  0  0  0  0  0  0  0
   -6.2579   -4.0248   -1.7439 H   0  0  0  0  0  0  0  0  0  0  0  0
   -7.1116   -4.9285   -0.4872 H   0  0  0  0  0  0  0  0  0  0  0  0
   -7.7792   -3.3982   -1.0961 H   0  0  0  0  0  0  0  0  0  0  0  0
   -7.8717   -2.5825    1.3338 H   0  0  0  0  0  0  0  0  0  0  0  0
   -7.0397   -4.0033    1.9964 H   0  0  0  0  0  0  0  0  0  0  0  0
   -6.3936   -2.3793    2.2611 H   0  0  0  0  0  0  0  0  0  0  0  0
  1  2  1  0
  2  3  1  0
  3  4  2  0
  4  5  1  0
  5  6  2  0
  6  7  1  0
  7  8  2  0
  7  9  1  0
  9 10  2  3
 10 11  1  0
 11 12  2  0
 12 13  1  0
 13 14  2  0
 14 15  1  0
 14 16  1  0
 16 17  2  0
  6 18  1  0
 18 19  1  0
 18 20  2  0
 20 21  1  0
 21 22  1  0
 22 23  2  3
 23 24  1  0
 23 25  1  0
 25 26  1  0
 26 27  1  0
 27 28  2  3
 28 29  1  0
 28 30  1  0
 20  3  1  0
 17 11  1  0
  1 31  1  0
  1 32  1  0
  1 33  1  0
  4 34  1  0
  5 35  1  0
  9 36  1  0
 10 37  1  0
 12 38  1  0
 13 39  1  0
 15 40  1  0
 16 41  1  0
 17 42  1  0
 19 43  1  0
 21 44  1  0
 21 45  1  0
 22 46  1  0
 24 47  1  0
 24 48  1  0
 24 49  1  0
 25 50  1  0
 25 51  1  0
 26 52  1  0
 26 53  1  0
 27 54  1  0
 29 55  1  0
 29 56  1  0
 29 57  1  0
 30 58  1  0
 30 59  1  0
 30 60  1  0
M  END
$$$$
