
     RDKit          3D

 35 36  0  0  0  0  0  0  0  0999 V2000
   -5.4245    1.0614    1.2857 C   0  0  0  0  0  0  0  0  0  0  0  0
   -4.8545   -0.3345    1.1035 C   0  0  0  0  0  0  0  0  0  0  0  0
   -3.5750   -0.4450    1.7273 O   0  0  0  0  0  0  0  0  0  0  0  0
   -2.4594   -0.1171    1.0140 C   0  0  0  0  0  0  0  0  0  0  0  0
   -2.4212    0.4163   -0.2720 C   0  0  0  0  0  0  0  0  0  0  0  0
   -1.1950    0.7151   -0.8929 C   0  0  0  0  0  0  0  0  0  0  0  0
    0.0241    0.4908   -0.2465 C   0  0  0  0  0  0  0  0  0  0  0  0
    1.2711    0.7592   -0.8655 N   0  0  0  0  0  0  0  0  0  0  0  0
    1.5166    1.1474   -2.1726 C   0  0  0  0  0  0  0  0  0  0  0  0
    0.6672    1.3321   -3.0404 O   0  0  0  0  0  0  0  0  0  0  0  0
    2.9959    1.3522   -2.4703 C   0  0  0  0  0  0  0  0  0  0  0  0
    3.7632   -0.1863   -3.0324 S   0  0  0  0  0  0  0  0  0  0  0  0
    4.0907   -1.0131   -1.5361 C   0  0  0  0  0  0  0  0  0  0  0  0
    4.8227   -2.1660   -1.4893 N   0  0  0  0  0  0  0  0  0  0  0  0
    4.8284   -2.4717   -0.2138 C   0  0  0  0  0  0  0  0  0  0  0  0
    4.1263   -1.5380    0.4773 N   0  0  0  0  0  0  0  0  0  0  0  0
    3.6421   -0.5879   -0.3483 N   0  0  0  0  0  0  0  0  0  0  0  0
   -0.0448   -0.0305    1.0580 C   0  0  0  0  0  0  0  0  0  0  0  0
    1.1596   -0.2633    1.8262 N   0  0  0  0  0  4  0  0  0  0  0  0
    1.3788   -1.4184    2.2197 O   0  0  0  0  0  0  0  0  0  0  0  0
    1.9057    0.7045    2.0270 O   0  0  0  0  0  1  0  0  0  0  0  0
   -1.2605   -0.3406    1.6849 C   0  0  0  0  0  0  0  0  0  0  0  0
   -5.4573    1.3247    2.3482 H   0  0  0  0  0  0  0  0  0  0  0  0
   -4.8038    1.8160    0.7931 H   0  0  0  0  0  0  0  0  0  0  0  0
   -6.4368    1.1224    0.8765 H   0  0  0  0  0  0  0  0  0  0  0  0
   -5.5109   -1.0447    1.6189 H   0  0  0  0  0  0  0  0  0  0  0  0
   -4.8392   -0.6479    0.0540 H   0  0  0  0  0  0  0  0  0  0  0  0
   -3.3264    0.6244   -0.8344 H   0  0  0  0  0  0  0  0  0  0  0  0
   -1.2409    1.1291   -1.8965 H   0  0  0  0  0  0  0  0  0  0  0  0
    2.1177    0.5287   -0.3360 H   0  0  0  0  0  0  0  0  0  0  0  0
    3.5166    1.7808   -1.6071 H   0  0  0  0  0  0  0  0  0  0  0  0
    3.0721    2.0916   -3.2752 H   0  0  0  0  0  0  0  0  0  0  0  0
    5.3030   -3.3255    0.2484 H   0  0  0  0  0  0  0  0  0  0  0  0
    3.9287   -1.4909    1.4733 H   0  0  0  0  0  0  0  0  0  0  0  0
   -1.2805   -0.7502    2.6929 H   0  0  0  0  0  0  0  0  0  0  0  0
  1  2  1  0
  2  3  1  0
  3  4  1  0
  4  5  2  0
  5  6  1  0
  6  7  2  0
  7  8  1  0
  8  9  1  0
  9 10  2  0
  9 11  1  0
 11 12  1  0
 12 13  1  0
 13 14  1  0
 14 15  2  0
 15 16  1  0
 16 17  1  0
  7 18  1  0
 18 19  1  0
 19 20  2  0
 19 21  1  0
 18 22  2  0
 22  4  1  0
 17 13  2  0
  1 23  1  0
  1 24  1  0
  1 25  1  0
  2 26  1  0
  2 27  1  0
  5 28  1  0
  6 29  1  0
  8 30  1  0
 11 31  1  0
 11 32  1  0
 15 33  1  0
 16 34  1  0
 22 35  1  0
M  CHG  2  19   1  21  -1
M  END
$$$$
