
     RDKit          3D

 45 47  0  0  0  0  0  0  0  0999 V2000
    1.4252   -1.8717   -1.8495 O   0  0  0  0  0  0  0  0  0  0  0  0
    1.6768   -1.2788   -0.8134 C   0  0  0  0  0  0  0  0  0  0  0  0
    2.7808   -0.4969   -0.5929 N   0  0  0  0  0  0  0  0  0  0  0  0
    3.8565   -0.4061   -1.5445 C   0  0  0  0  0  0  0  0  0  0  0  0
    4.5723    0.8730   -1.3270 C   0  0  0  0  0  0  0  0  0  0  0  0
    4.7928    1.9797   -2.1210 C   0  0  0  0  0  0  0  0  0  0  0  0
    5.5417    2.8910   -1.3386 C   0  0  0  0  0  0  0  0  0  0  0  0
    5.7313    2.2831   -0.1196 C   0  0  0  0  0  0  0  0  0  0  0  0
    5.1486    1.0566   -0.1017 O   0  0  0  0  0  0  0  0  0  0  0  0
    0.7348   -1.3656    0.4036 C   0  0  0  0  0  0  0  0  0  0  0  0
   -0.5681   -2.0297    0.1113 C   0  0  0  0  0  0  0  0  0  0  0  0
   -1.7326   -1.4350    0.4115 C   0  0  0  0  0  0  0  0  0  0  0  0
   -3.0751   -2.0303    0.0922 C   0  0  0  0  0  0  0  0  0  0  0  0
   -3.7700   -1.2781   -1.0170 C   0  0  0  0  0  0  0  0  0  0  0  0
   -3.6657   -1.7176   -2.3434 C   0  0  0  0  0  0  0  0  0  0  0  0
   -4.2759   -1.0053   -3.3765 C   0  0  0  0  0  0  0  0  0  0  0  0
   -4.9919    0.1557   -3.0964 C   0  0  0  0  0  0  0  0  0  0  0  0
   -5.1005    0.6047   -1.7820 C   0  0  0  0  0  0  0  0  0  0  0  0
   -4.4914   -0.1079   -0.7467 C   0  0  0  0  0  0  0  0  0  0  0  0
    1.1816   -0.8750    1.5187 N   0  0  0  0  0  0  0  0  0  0  0  0
    0.4261   -1.0753    2.6484 C   0  0  0  0  0  0  0  0  0  0  0  0
    0.0746   -2.1806    3.0476 O   0  0  0  0  0  0  0  0  0  0  0  0
    0.1299    0.1798    3.3109 C   0  0  0  0  0  0  0  0  0  0  0  0
    0.4753    1.4930    3.0356 C   0  0  0  0  0  0  0  0  0  0  0  0
   -0.1373    2.2965    4.0281 C   0  0  0  0  0  0  0  0  0  0  0  0
   -0.8117    1.4319    4.8572 C   0  0  0  0  0  0  0  0  0  0  0  0
   -1.8283    1.9404    6.3829 Br  0  0  0  0  0  0  0  0  0  0  0  0
   -0.6573    0.1516    4.4332 O   0  0  0  0  0  0  0  0  0  0  0  0
    2.9439   -0.1886    0.3606 H   0  0  0  0  0  0  0  0  0  0  0  0
    3.4595   -0.4692   -2.5622 H   0  0  0  0  0  0  0  0  0  0  0  0
    4.5257   -1.2579   -1.3826 H   0  0  0  0  0  0  0  0  0  0  0  0
    4.4469    2.1138   -3.1370 H   0  0  0  0  0  0  0  0  0  0  0  0
    5.8930    3.8730   -1.6219 H   0  0  0  0  0  0  0  0  0  0  0  0
    6.2250    2.5785    0.7957 H   0  0  0  0  0  0  0  0  0  0  0  0
   -0.5189   -2.9687   -0.4305 H   0  0  0  0  0  0  0  0  0  0  0  0
   -1.7518   -0.4639    0.8988 H   0  0  0  0  0  0  0  0  0  0  0  0
   -3.6997   -2.0197    0.9932 H   0  0  0  0  0  0  0  0  0  0  0  0
   -2.9780   -3.0878   -0.1853 H   0  0  0  0  0  0  0  0  0  0  0  0
   -3.1034   -2.6163   -2.5780 H   0  0  0  0  0  0  0  0  0  0  0  0
   -4.1857   -1.3535   -4.4025 H   0  0  0  0  0  0  0  0  0  0  0  0
   -5.4621    0.7110   -3.9029 H   0  0  0  0  0  0  0  0  0  0  0  0
   -5.6571    1.5135   -1.5642 H   0  0  0  0  0  0  0  0  0  0  0  0
   -4.5799    0.2573    0.2731 H   0  0  0  0  0  0  0  0  0  0  0  0
    1.0916    1.8239    2.2101 H   0  0  0  0  0  0  0  0  0  0  0  0
   -0.0916    3.3715    4.1243 H   0  0  0  0  0  0  0  0  0  0  0  0
  1  2  2  0
  2  3  1  0
  3  4  1  0
  4  5  1  0
  5  6  2  0
  6  7  1  0
  7  8  2  0
  8  9  1  0
  2 10  1  0
 10 11  1  0
 11 12  2  3
 12 13  1  0
 13 14  1  0
 14 15  2  0
 15 16  1  0
 16 17  2  0
 17 18  1  0
 18 19  2  0
 10 20  2  3
 20 21  1  0
 21 22  2  0
 21 23  1  0
 23 24  2  0
 24 25  1  0
 25 26  2  0
 26 27  1  0
 26 28  1  0
  9  5  1  0
 19 14  1  0
 28 23  1  0
  3 29  1  0
  4 30  1  0
  4 31  1  0
  6 32  1  0
  7 33  1  0
  8 34  1  0
 11 35  1  0
 12 36  1  0
 13 37  1  0
 13 38  1  0
 15 39  1  0
 16 40  1  0
 17 41  1  0
 18 42  1  0
 19 43  1  0
 24 44  1  0
 25 45  1  0
M  END
$$$$
