
     RDKit          3D

 61 66  0  0  0  0  0  0  0  0999 V2000
   -3.6423    5.5777    1.0762 C   0  0  0  0  0  0  0  0  0  0  0  0
   -2.8427    4.3745    0.5812 C   0  0  0  0  0  0  0  0  0  0  0  0
   -3.1017    3.1400    1.4697 C   0  0  0  0  0  0  0  0  0  0  0  0
   -2.3955    1.8891    0.9210 C   0  0  0  0  0  0  0  0  0  0  0  0
   -0.9742    2.1722    0.5281 C   0  0  0  0  0  0  0  0  0  0  0  0
   -0.5222    3.4665    0.3438 C   0  0  0  0  0  0  0  0  0  0  0  0
    1.1222    3.5318   -0.0769 S   0  0  0  0  0  0  0  0  0  0  0  0
    1.2623    1.8342   -0.0221 C   0  0  0  0  0  0  0  0  0  0  0  0
    2.4448    1.2533   -0.2749 N   0  0  0  0  0  0  0  0  0  0  0  0
    2.3980   -0.0840   -0.1911 C   0  0  0  0  0  0  0  0  0  0  0  0
    3.6937   -0.8345   -0.4819 C   0  0  0  0  0  0  0  0  0  0  0  0
    3.8282   -1.3525   -1.8662 N   0  0  0  0  0  0  0  0  0  0  0  0
    3.8790   -0.2737   -2.8791 C   0  0  0  0  0  0  0  0  0  0  0  0
    5.1977    0.5171   -2.8881 C   0  0  0  0  0  0  0  0  0  0  0  0
    6.3221   -0.3552   -3.0650 O   0  0  0  0  0  0  0  0  0  0  0  0
    6.3565   -1.3585   -2.0436 C   0  0  0  0  0  0  0  0  0  0  0  0
    5.0506   -2.1732   -2.0073 C   0  0  0  0  0  0  0  0  0  0  0  0
    1.3079   -0.8205    0.1037 N   0  0  0  0  0  0  0  0  0  0  0  0
    0.1205   -0.2115    0.3304 C   0  0  0  0  0  0  0  0  0  0  0  0
   -1.0184   -0.9966    0.5750 N   0  0  0  0  0  0  0  0  0  0  0  0
   -1.7177   -1.3091   -0.6928 C   0  0  0  0  0  0  0  0  0  0  0  0
   -2.2462   -2.7511   -0.7916 C   0  0  0  0  0  0  0  0  0  0  0  0
   -2.7571   -3.2503    0.5324 C   0  0  0  0  0  0  0  0  0  0  0  0
   -3.9041   -4.0365    0.6539 C   0  0  0  0  0  0  0  0  0  0  0  0
   -4.3006   -4.4898    1.9123 C   0  0  0  0  0  0  0  0  0  0  0  0
   -3.5483   -4.1705    3.0444 C   0  0  0  0  0  0  0  0  0  0  0  0
   -2.3922   -3.3979    2.9251 C   0  0  0  0  0  0  0  0  0  0  0  0
   -1.9938   -2.9318    1.6694 C   0  0  0  0  0  0  0  0  0  0  0  0
   -0.7278   -2.1308    1.4606 C   0  0  0  0  0  0  0  0  0  0  0  0
    0.0700    1.1993    0.2901 C   0  0  0  0  0  0  0  0  0  0  0  0
   -1.3364    4.7103    0.5315 C   0  0  0  0  0  0  0  0  0  0  0  0
   -4.7155    5.3601    1.0674 H   0  0  0  0  0  0  0  0  0  0  0  0
   -3.4711    6.4480    0.4339 H   0  0  0  0  0  0  0  0  0  0  0  0
   -3.3610    5.8498    2.0991 H   0  0  0  0  0  0  0  0  0  0  0  0
   -3.1813    4.1382   -0.4372 H   0  0  0  0  0  0  0  0  0  0  0  0
   -2.7454    3.3426    2.4886 H   0  0  0  0  0  0  0  0  0  0  0  0
   -4.1773    2.9398    1.5428 H   0  0  0  0  0  0  0  0  0  0  0  0
   -2.4377    1.0987    1.6780 H   0  0  0  0  0  0  0  0  0  0  0  0
   -2.9383    1.5366    0.0364 H   0  0  0  0  0  0  0  0  0  0  0  0
    4.5346   -0.1877   -0.2053 H   0  0  0  0  0  0  0  0  0  0  0  0
    3.7195   -1.6837    0.2137 H   0  0  0  0  0  0  0  0  0  0  0  0
    3.7626   -0.7518   -3.8610 H   0  0  0  0  0  0  0  0  0  0  0  0
    3.0271    0.4073   -2.7847 H   0  0  0  0  0  0  0  0  0  0  0  0
    5.1970    1.2221   -3.7257 H   0  0  0  0  0  0  0  0  0  0  0  0
    5.3322    1.0992   -1.9696 H   0  0  0  0  0  0  0  0  0  0  0  0
    7.1968   -2.0241   -2.2664 H   0  0  0  0  0  0  0  0  0  0  0  0
    6.5648   -0.8822   -1.0790 H   0  0  0  0  0  0  0  0  0  0  0  0
    4.9635   -2.7258   -2.9520 H   0  0  0  0  0  0  0  0  0  0  0  0
    5.1005   -2.9313   -1.2167 H   0  0  0  0  0  0  0  0  0  0  0  0
   -2.5755   -0.6292   -0.7626 H   0  0  0  0  0  0  0  0  0  0  0  0
   -1.0950   -1.1126   -1.5768 H   0  0  0  0  0  0  0  0  0  0  0  0
   -1.4382   -3.4187   -1.1173 H   0  0  0  0  0  0  0  0  0  0  0  0
   -3.0293   -2.7957   -1.5573 H   0  0  0  0  0  0  0  0  0  0  0  0
   -4.4916   -4.2990   -0.2218 H   0  0  0  0  0  0  0  0  0  0  0  0
   -5.1961   -5.0978    2.0116 H   0  0  0  0  0  0  0  0  0  0  0  0
   -3.8612   -4.5303    4.0212 H   0  0  0  0  0  0  0  0  0  0  0  0
   -1.8088   -3.1641    3.8117 H   0  0  0  0  0  0  0  0  0  0  0  0
   -0.3664   -1.7572    2.4271 H   0  0  0  0  0  0  0  0  0  0  0  0
    0.0350   -2.8027    1.0450 H   0  0  0  0  0  0  0  0  0  0  0  0
   -1.1485    5.4228   -0.2807 H   0  0  0  0  0  0  0  0  0  0  0  0
   -1.0280    5.1908    1.4691 H   0  0  0  0  0  0  0  0  0  0  0  0
  1  2  1  0
  2  3  1  0
  3  4  1  0
  4  5  1  0
  5  6  2  0
  6  7  1  0
  7  8  1  0
  8  9  2  0
  9 10  1  0
 10 11  1  0
 11 12  1  0
 12 13  1  0
 13 14  1  0
 14 15  1  0
 15 16  1  0
 16 17  1  0
 10 18  2  0
 18 19  1  0
 19 20  1  0
 20 21  1  0
 21 22  1  0
 22 23  1  0
 23 24  2  0
 24 25  1  0
 25 26  2  0
 26 27  1  0
 27 28  2  0
 28 29  1  0
 19 30  2  0
  6 31  1  0
 31  2  1  0
 30  5  1  0
 30  8  1  0
 17 12  1  0
 29 20  1  0
 28 23  1  0
  1 32  1  0
  1 33  1  0
  1 34  1  0
  2 35  1  0
  3 36  1  0
  3 37  1  0
  4 38  1  0
  4 39  1  0
 11 40  1  0
 11 41  1  0
 13 42  1  0
 13 43  1  0
 14 44  1  0
 14 45  1  0
 16 46  1  0
 16 47  1  0
 17 48  1  0
 17 49  1  0
 21 50  1  0
 21 51  1  0
 22 52  1  0
 22 53  1  0
 24 54  1  0
 25 55  1  0
 26 56  1  0
 27 57  1  0
 29 58  1  0
 29 59  1  0
 31 60  1  0
 31 61  1  0
M  END
$$$$
