
     RDKit          3D

 36 38  0  0  0  0  0  0  0  0999 V2000
   -6.8000   -0.1052    1.4653 C   0  0  0  0  0  0  0  0  0  0  0  0
   -5.7882   -1.0112    1.0437 O   0  0  0  0  0  0  0  0  0  0  0  0
   -4.5805   -0.4730    0.6975 C   0  0  0  0  0  0  0  0  0  0  0  0
   -4.2387    0.8772    0.7421 C   0  0  0  0  0  0  0  0  0  0  0  0
   -2.9567    1.2942    0.3572 C   0  0  0  0  0  0  0  0  0  0  0  0
   -1.9967    0.3705   -0.0799 C   0  0  0  0  0  0  0  0  0  0  0  0
   -0.6447    0.7939   -0.4666 C   0  0  0  0  0  0  0  0  0  0  0  0
   -0.3087    1.9614   -1.0318 C   0  0  0  0  0  0  0  0  0  0  0  0
    1.1681    1.9375   -1.1427 C   0  0  0  0  0  0  0  0  0  0  0  0
    1.8067    2.8676   -1.6047 O   0  0  0  0  0  0  0  0  0  0  0  0
    1.5820    0.7089   -0.6262 N   0  0  0  0  0  0  0  0  0  0  0  0
    2.8740    0.1477   -0.5570 C   0  0  0  0  0  0  0  0  0  0  0  0
    4.0088    0.8936   -0.9087 C   0  0  0  0  0  0  0  0  0  0  0  0
    5.2932    0.3384   -0.8359 C   0  0  0  0  0  0  0  0  0  0  0  0
    5.4515   -0.9829   -0.4082 C   0  0  0  0  0  0  0  0  0  0  0  0
    6.7943   -1.5710   -0.3296 N   0  0  0  0  0  4  0  0  0  0  0  0
    7.7556   -0.8610   -0.6567 O   0  0  0  0  0  0  0  0  0  0  0  0
    6.8869   -2.7432    0.0625 O   0  0  0  0  0  1  0  0  0  0  0  0
    4.3351   -1.7476   -0.0562 C   0  0  0  0  0  0  0  0  0  0  0  0
    3.0569   -1.1801   -0.1327 C   0  0  0  0  0  0  0  0  0  0  0  0
    0.4510   -0.0297   -0.2390 N   0  0  0  0  0  0  0  0  0  0  0  0
   -2.3506   -0.9845   -0.1162 C   0  0  0  0  0  0  0  0  0  0  0  0
   -3.6299   -1.3992    0.2672 C   0  0  0  0  0  0  0  0  0  0  0  0
   -7.0540    0.6020    0.6688 H   0  0  0  0  0  0  0  0  0  0  0  0
   -7.6979   -0.6885    1.6915 H   0  0  0  0  0  0  0  0  0  0  0  0
   -6.5039    0.4184    2.3803 H   0  0  0  0  0  0  0  0  0  0  0  0
   -4.9421    1.6340    1.0735 H   0  0  0  0  0  0  0  0  0  0  0  0
   -2.7208    2.3545    0.4168 H   0  0  0  0  0  0  0  0  0  0  0  0
   -0.9157    2.7940   -1.3324 H   0  0  0  0  0  0  0  0  0  0  0  0
    3.9228    1.9250   -1.2437 H   0  0  0  0  0  0  0  0  0  0  0  0
    6.1481    0.9507   -1.1169 H   0  0  0  0  0  0  0  0  0  0  0  0
    4.4368   -2.7804    0.2714 H   0  0  0  0  0  0  0  0  0  0  0  0
    2.2059   -1.8050    0.1271 H   0  0  0  0  0  0  0  0  0  0  0  0
    0.4797   -0.3184    0.7407 H   0  0  0  0  0  0  0  0  0  0  0  0
   -1.6402   -1.7338   -0.4597 H   0  0  0  0  0  0  0  0  0  0  0  0
   -3.8880   -2.4549    0.2252 H   0  0  0  0  0  0  0  0  0  0  0  0
  1  2  1  0
  2  3  1  0
  3  4  2  0
  4  5  1  0
  5  6  2  0
  6  7  1  0
  7  8  2  0
  8  9  1  0
  9 10  2  0
  9 11  1  0
 11 12  1  0
 12 13  2  0
 13 14  1  0
 14 15  2  0
 15 16  1  0
 16 17  2  0
 16 18  1  0
 15 19  1  0
 19 20  2  0
 11 21  1  0
  6 22  1  0
 22 23  2  0
 23  3  1  0
 21  7  1  0
 20 12  1  0
  1 24  1  0
  1 25  1  0
  1 26  1  0
  4 27  1  0
  5 28  1  0
  8 29  1  0
 13 30  1  0
 14 31  1  0
 19 32  1  0
 20 33  1  0
 21 34  1  0
 22 35  1  0
 23 36  1  0
M  CHG  2  16   1  18  -1
M  END
$$$$
