
     RDKit          3D

 50 52  0  0  0  0  0  0  0  0999 V2000
   -6.7498   -0.2323   -0.3366 C   0  0  0  0  0  0  0  0  0  0  0  0
   -5.3915   -0.5069    0.3097 C   0  0  0  0  0  0  0  0  0  0  0  0
   -4.7359   -1.7708   -0.2749 C   0  0  0  0  0  0  0  0  0  0  0  0
   -3.6658   -1.4440   -1.3106 C   0  0  0  0  0  0  0  0  0  0  0  0
   -2.6138   -0.5950   -0.7537 N   0  0  0  0  0  0  0  0  0  0  0  0
   -1.3813   -0.5890   -1.4019 C   0  0  0  0  0  0  0  0  0  0  0  0
   -1.1581   -1.1865   -2.4516 O   0  0  0  0  0  0  0  0  0  0  0  0
   -0.2577    0.1622   -0.8006 C   0  0  0  0  0  0  0  0  0  0  0  0
    0.4412    1.0797   -1.5919 C   0  0  0  0  0  0  0  0  0  0  0  0
    1.5230    1.7852   -1.0567 C   0  0  0  0  0  0  0  0  0  0  0  0
    1.9346    1.5532    0.2660 C   0  0  0  0  0  0  0  0  0  0  0  0
    3.2933    2.5180    0.8756 S   0  0  0  0  0  6  0  0  0  0  0  0
    3.4565    2.2570    2.2901 O   0  0  0  0  0  0  0  0  0  0  0  0
    3.0261    3.8759    0.4332 O   0  0  0  0  0  0  0  0  0  0  0  0
    4.7496    1.9519    0.0154 C   0  0  0  0  0  0  0  0  0  0  0  0
    4.8941    0.4607    0.0989 C   0  0  0  0  0  0  0  0  0  0  0  0
    5.4121   -0.1597    1.2427 C   0  0  0  0  0  0  0  0  0  0  0  0
    5.5273   -1.5512    1.2994 C   0  0  0  0  0  0  0  0  0  0  0  0
    5.1323   -2.3360    0.2158 C   0  0  0  0  0  0  0  0  0  0  0  0
    4.6225   -1.7297   -0.9291 C   0  0  0  0  0  0  0  0  0  0  0  0
    4.5115   -0.3446   -0.9782 C   0  0  0  0  0  0  0  0  0  0  0  0
    4.0150    0.2261   -2.0847 F   0  0  0  0  0  0  0  0  0  0  0  0
    1.2294    0.6305    1.0400 C   0  0  0  0  0  0  0  0  0  0  0  0
    1.5559    0.3543    2.4199 N   0  0  0  0  0  4  0  0  0  0  0  0
    2.4276   -0.4980    2.6242 O   0  0  0  0  0  0  0  0  0  0  0  0
    0.8591    0.9163    3.2736 O   0  0  0  0  0  1  0  0  0  0  0  0
    0.1407   -0.0813    0.5149 C   0  0  0  0  0  0  0  0  0  0  0  0
   -3.0078    0.3590    0.2893 C   0  0  0  0  0  0  0  0  0  0  0  0
   -4.4843    0.7282    0.1861 C   0  0  0  0  0  0  0  0  0  0  0  0
   -7.2128    0.6606    0.0967 H   0  0  0  0  0  0  0  0  0  0  0  0
   -6.6526   -0.0760   -1.4164 H   0  0  0  0  0  0  0  0  0  0  0  0
   -7.4329   -1.0734   -0.1770 H   0  0  0  0  0  0  0  0  0  0  0  0
   -5.5737   -0.6956    1.3762 H   0  0  0  0  0  0  0  0  0  0  0  0
   -5.4864   -2.4426   -0.7070 H   0  0  0  0  0  0  0  0  0  0  0  0
   -4.2621   -2.3255    0.5462 H   0  0  0  0  0  0  0  0  0  0  0  0
   -3.2209   -2.3703   -1.6914 H   0  0  0  0  0  0  0  0  0  0  0  0
   -4.1022   -0.9146   -2.1662 H   0  0  0  0  0  0  0  0  0  0  0  0
    0.1400    1.2460   -2.6256 H   0  0  0  0  0  0  0  0  0  0  0  0
    2.0377    2.5125   -1.6841 H   0  0  0  0  0  0  0  0  0  0  0  0
    5.6133    2.4513    0.4672 H   0  0  0  0  0  0  0  0  0  0  0  0
    4.6804    2.2943   -1.0222 H   0  0  0  0  0  0  0  0  0  0  0  0
    5.7119    0.4284    2.1096 H   0  0  0  0  0  0  0  0  0  0  0  0
    5.9145   -2.0243    2.1995 H   0  0  0  0  0  0  0  0  0  0  0  0
    5.2186   -3.4186    0.2689 H   0  0  0  0  0  0  0  0  0  0  0  0
    4.3103   -2.3272   -1.7801 H   0  0  0  0  0  0  0  0  0  0  0  0
   -0.3838   -0.8200    1.1181 H   0  0  0  0  0  0  0  0  0  0  0  0
   -2.8040   -0.1119    1.2577 H   0  0  0  0  0  0  0  0  0  0  0  0
   -2.4020    1.2673    0.2169 H   0  0  0  0  0  0  0  0  0  0  0  0
   -4.6553    1.2275   -0.7768 H   0  0  0  0  0  0  0  0  0  0  0  0
   -4.7437    1.4543    0.9656 H   0  0  0  0  0  0  0  0  0  0  0  0
  1  2  1  0
  2  3  1  0
  3  4  1  0
  4  5  1  0
  5  6  1  0
  6  7  2  0
  6  8  1  0
  8  9  2  0
  9 10  1  0
 10 11  2  0
 11 12  1  0
 12 13  2  0
 12 14  2  0
 12 15  1  0
 15 16  1  0
 16 17  2  0
 17 18  1  0
 18 19  2  0
 19 20  1  0
 20 21  2  0
 21 22  1  0
 11 23  1  0
 23 24  1  0
 24 25  2  0
 24 26  1  0
 23 27  2  0
  5 28  1  0
 28 29  1  0
 29  2  1  0
 27  8  1  0
 21 16  1  0
  1 30  1  0
  1 31  1  0
  1 32  1  0
  2 33  1  0
  3 34  1  0
  3 35  1  0
  4 36  1  0
  4 37  1  0
  9 38  1  0
 10 39  1  0
 15 40  1  0
 15 41  1  0
 17 42  1  0
 18 43  1  0
 19 44  1  0
 20 45  1  0
 27 46  1  0
 28 47  1  0
 28 48  1  0
 29 49  1  0
 29 50  1  0
M  CHG  2  24   1  26  -1
M  END
$$$$
