
     RDKit          3D

 40 44  0  0  0  0  0  0  0  0999 V2000
    6.2024    0.9307    0.5139 C   0  0  0  0  0  0  0  0  0  0  0  0
    5.7380    0.5564   -0.7445 C   0  0  0  0  0  0  0  0  0  0  0  0
    4.4090    0.1567   -0.9093 C   0  0  0  0  0  0  0  0  0  0  0  0
    3.5218    0.1252    0.1795 C   0  0  0  0  0  0  0  0  0  0  0  0
    2.1213   -0.2955    0.0050 C   0  0  0  0  0  0  0  0  0  0  0  0
    1.8112   -1.5411   -0.5616 C   0  0  0  0  0  0  0  0  0  0  0  0
    0.4903   -1.9731   -0.7382 C   0  0  0  0  0  0  0  0  0  0  0  0
   -0.5370   -1.1126   -0.3356 C   0  0  0  0  0  0  0  0  0  0  0  0
   -0.2762    0.1446    0.2388 C   0  0  0  0  0  0  0  0  0  0  0  0
    1.0654    0.5449    0.4080 C   0  0  0  0  0  0  0  0  0  0  0  0
   -1.5336    0.7406    0.5484 C   0  0  0  0  0  0  0  0  0  0  0  0
   -2.4960   -0.1386    0.1248 C   0  0  0  0  0  0  0  0  0  0  0  0
   -1.8996   -1.2511   -0.3663 N   0  0  0  0  0  0  0  0  0  0  0  0
   -2.7283   -2.3818   -0.7223 C   0  0  0  0  0  0  0  0  0  0  0  0
   -4.1342   -1.9082   -1.1268 C   0  0  0  0  0  0  0  0  0  0  0  0
   -4.7288   -0.8370   -0.2797 N   0  0  0  0  0  0  0  0  0  0  0  0
   -3.9089    0.0140    0.2417 C   0  0  0  0  0  0  0  0  0  0  0  0
   -4.3775    1.2640    0.9693 C   0  0  0  0  0  0  0  0  0  0  0  0
   -3.2930    1.8620    1.8943 C   0  0  0  0  0  0  0  0  0  0  0  0
   -1.9119    2.0191    1.2113 C   0  0  0  0  0  0  0  0  0  0  0  0
    4.0106    0.5074    1.4399 C   0  0  0  0  0  0  0  0  0  0  0  0
    5.3395    0.9063    1.6067 C   0  0  0  0  0  0  0  0  0  0  0  0
    7.2358    1.2413    0.6428 H   0  0  0  0  0  0  0  0  0  0  0  0
    6.4075    0.5774   -1.6003 H   0  0  0  0  0  0  0  0  0  0  0  0
    4.0624   -0.1211   -1.9027 H   0  0  0  0  0  0  0  0  0  0  0  0
    2.6163   -2.2090   -0.8651 H   0  0  0  0  0  0  0  0  0  0  0  0
    0.2821   -2.9453   -1.1723 H   0  0  0  0  0  0  0  0  0  0  0  0
    1.2782    1.5173    0.8444 H   0  0  0  0  0  0  0  0  0  0  0  0
   -2.2524   -2.9315   -1.5395 H   0  0  0  0  0  0  0  0  0  0  0  0
   -2.7779   -3.0235    0.1645 H   0  0  0  0  0  0  0  0  0  0  0  0
   -4.1122   -1.5358   -2.1589 H   0  0  0  0  0  0  0  0  0  0  0  0
   -4.8132   -2.7680   -1.1180 H   0  0  0  0  0  0  0  0  0  0  0  0
   -4.6573    2.0011    0.2072 H   0  0  0  0  0  0  0  0  0  0  0  0
   -5.2768    1.0267    1.5477 H   0  0  0  0  0  0  0  0  0  0  0  0
   -3.1800    1.2020    2.7651 H   0  0  0  0  0  0  0  0  0  0  0  0
   -3.6277    2.8343    2.2731 H   0  0  0  0  0  0  0  0  0  0  0  0
   -1.1639    2.3046    1.9588 H   0  0  0  0  0  0  0  0  0  0  0  0
   -1.9596    2.8168    0.4610 H   0  0  0  0  0  0  0  0  0  0  0  0
    3.3550    0.4848    2.3082 H   0  0  0  0  0  0  0  0  0  0  0  0
    5.6991    1.1949    2.5908 H   0  0  0  0  0  0  0  0  0  0  0  0
  1  2  2  0
  2  3  1  0
  3  4  2  0
  4  5  1  0
  5  6  2  0
  6  7  1  0
  7  8  2  0
  8  9  1  0
  9 10  2  0
  9 11  1  0
 11 12  2  0
 12 13  1  0
 13 14  1  0
 14 15  1  0
 15 16  1  0
 16 17  2  0
 17 18  1  0
 18 19  1  0
 19 20  1  0
  4 21  1  0
 21 22  2  0
 22  1  1  0
 10  5  1  0
 20 11  1  0
 13  8  1  0
 17 12  1  0
  1 23  1  0
  2 24  1  0
  3 25  1  0
  6 26  1  0
  7 27  1  0
 10 28  1  0
 14 29  1  0
 14 30  1  0
 15 31  1  0
 15 32  1  0
 18 33  1  0
 18 34  1  0
 19 35  1  0
 19 36  1  0
 20 37  1  0
 20 38  1  0
 21 39  1  0
 22 40  1  0
M  END
$$$$
