
     RDKit          3D

 32 34  0  0  0  0  0  0  0  0999 V2000
    0.9365   -0.9267   -1.5714 O   0  0  0  0  0  0  0  0  0  0  0  0
    0.6352   -0.3336   -0.5368 C   0  0  0  0  0  0  0  0  0  0  0  0
    1.5319    0.1360    0.3927 N   0  0  0  0  0  0  0  0  0  0  0  0
    2.9416    0.0481    0.3719 C   0  0  0  0  0  0  0  0  0  0  0  0
    3.6821   -0.5577   -0.6428 C   0  0  0  0  0  0  0  0  0  0  0  0
    5.0795   -0.5930   -0.5704 C   0  0  0  0  0  0  0  0  0  0  0  0
    5.7459   -0.0240    0.5149 C   0  0  0  0  0  0  0  0  0  0  0  0
    5.0193    0.5847    1.5362 C   0  0  0  0  0  0  0  0  0  0  0  0
    3.6279    0.6160    1.4574 C   0  0  0  0  0  0  0  0  0  0  0  0
    2.8918    1.2097    2.4509 O   0  0  0  0  0  0  0  0  0  0  0  0
   -0.8137   -0.0797   -0.2221 C   0  0  0  0  0  0  0  0  0  0  0  0
   -1.7101   -0.5308   -1.1183 C   0  0  0  0  0  0  0  0  0  0  0  0
   -3.1368   -0.3413   -0.9169 C   0  0  0  0  0  0  0  0  0  0  0  0
   -4.0863   -0.8003   -1.8325 C   0  0  0  0  0  0  0  0  0  0  0  0
   -5.4450   -0.5878   -1.5832 C   0  0  0  0  0  0  0  0  0  0  0  0
   -6.7306   -1.2093   -2.8230 Br  0  0  0  0  0  0  0  0  0  0  0  0
   -5.8656    0.0779   -0.4298 C   0  0  0  0  0  0  0  0  0  0  0  0
   -4.9192    0.5369    0.4854 C   0  0  0  0  0  0  0  0  0  0  0  0
   -3.5678    0.3198    0.2272 C   0  0  0  0  0  0  0  0  0  0  0  0
   -2.6410    0.7948    1.1693 O   0  0  0  0  0  0  0  0  0  0  0  0
   -1.2703    0.6246    0.9971 C   0  0  0  0  0  0  0  0  0  0  0  0
   -0.4817    1.0497    1.8363 O   0  0  0  0  0  0  0  0  0  0  0  0
    1.1744    0.6184    1.2234 H   0  0  0  0  0  0  0  0  0  0  0  0
    3.2054   -1.0123   -1.5047 H   0  0  0  0  0  0  0  0  0  0  0  0
    5.6459   -1.0682   -1.3679 H   0  0  0  0  0  0  0  0  0  0  0  0
    6.8314   -0.0567    0.5617 H   0  0  0  0  0  0  0  0  0  0  0  0
    5.5477    1.0241    2.3758 H   0  0  0  0  0  0  0  0  0  0  0  0
    3.4988    1.5534    3.1264 H   0  0  0  0  0  0  0  0  0  0  0  0
   -1.3985   -1.0509   -2.0210 H   0  0  0  0  0  0  0  0  0  0  0  0
   -3.7742   -1.3204   -2.7351 H   0  0  0  0  0  0  0  0  0  0  0  0
   -6.9230    0.2423   -0.2377 H   0  0  0  0  0  0  0  0  0  0  0  0
   -5.2318    1.0563    1.3868 H   0  0  0  0  0  0  0  0  0  0  0  0
  1  2  2  0
  2  3  1  0
  3  4  1  0
  4  5  2  0
  5  6  1  0
  6  7  2  0
  7  8  1  0
  8  9  2  0
  9 10  1  0
  2 11  1  0
 11 12  2  0
 12 13  1  0
 13 14  2  0
 14 15  1  0
 15 16  1  0
 15 17  2  0
 17 18  1  0
 18 19  2  0
 19 20  1  0
 20 21  1  0
 21 22  2  0
  9  4  1  0
 21 11  1  0
 19 13  1  0
  3 23  1  0
  5 24  1  0
  6 25  1  0
  7 26  1  0
  8 27  1  0
 10 28  1  0
 12 29  1  0
 14 30  1  0
 17 31  1  0
 18 32  1  0
M  END
$$$$
