
     RDKit          3D

 63 66  0  0  0  0  0  0  0  0999 V2000
    8.4855   -1.1333    0.6222 C   0  0  0  0  0  0  0  0  0  0  0  0
    7.0911   -1.0096    0.0015 C   0  0  0  0  0  0  0  0  0  0  0  0
    6.0030   -1.2703    1.0611 C   0  0  0  0  0  0  0  0  0  0  0  0
    4.6630   -1.2420    0.4980 N   0  0  0  0  0  0  0  0  0  0  0  0
    3.5997   -1.7835    1.1917 C   0  0  0  0  0  0  0  0  0  0  0  0
    3.7258   -2.4124    2.2365 O   0  0  0  0  0  0  0  0  0  0  0  0
    2.2446   -1.5314    0.6244 C   0  0  0  0  0  0  0  0  0  0  0  0
    2.0420   -1.2683   -0.7339 C   0  0  0  0  0  0  0  0  0  0  0  0
    0.7485   -1.0383   -1.2126 C   0  0  0  0  0  0  0  0  0  0  0  0
   -0.3543   -1.0775   -0.3536 C   0  0  0  0  0  0  0  0  0  0  0  0
   -1.5506   -0.8298   -0.9641 O   0  0  0  0  0  0  0  0  0  0  0  0
   -2.7605   -0.9365   -0.2047 C   0  0  0  0  0  0  0  0  0  0  0  0
   -3.8919   -1.2665   -1.1936 C   0  0  0  0  0  0  0  0  0  0  0  0
   -5.2547   -0.7262   -0.7491 C   0  0  0  0  0  0  0  0  0  0  0  0
   -5.3288   -0.6857    0.7056 N   0  0  0  0  0  0  0  0  0  0  0  0
   -6.6947   -0.5434    1.2448 C   0  0  0  0  0  0  0  0  0  0  0  0
   -7.4696    0.7087    0.8638 C   0  0  0  0  0  0  0  0  0  0  0  0
   -8.2683    0.7228   -0.2797 C   0  0  0  0  0  0  0  0  0  0  0  0
   -8.9630    1.8846   -0.6051 C   0  0  0  0  0  0  0  0  0  0  0  0
   -8.8469    2.9993    0.2150 C   0  0  0  0  0  0  0  0  0  0  0  0
   -8.0374    2.9052    1.3333 C   0  0  0  0  0  0  0  0  0  0  0  0
   -7.3517    1.7924    1.6746 N   0  0  0  0  0  0  0  0  0  0  0  0
   -4.3878    0.2808    1.2876 C   0  0  0  0  0  0  0  0  0  0  0  0
   -3.0728    0.3781    0.5062 C   0  0  0  0  0  0  0  0  0  0  0  0
   -0.1520   -1.3511    0.9983 C   0  0  0  0  0  0  0  0  0  0  0  0
    1.1410   -1.5824    1.4840 C   0  0  0  0  0  0  0  0  0  0  0  0
    6.9240    0.3348   -0.6934 C   0  0  0  0  0  0  0  0  0  0  0  0
    6.7426    0.3804   -2.0845 C   0  0  0  0  0  0  0  0  0  0  0  0
    6.5682    1.6003   -2.7404 C   0  0  0  0  0  0  0  0  0  0  0  0
    6.5746    2.7895   -2.0156 C   0  0  0  0  0  0  0  0  0  0  0  0
    6.7582    2.7603   -0.6352 C   0  0  0  0  0  0  0  0  0  0  0  0
    6.9334    1.5415    0.0227 C   0  0  0  0  0  0  0  0  0  0  0  0
    8.6332   -2.1342    1.0421 H   0  0  0  0  0  0  0  0  0  0  0  0
    9.2655   -0.9673   -0.1293 H   0  0  0  0  0  0  0  0  0  0  0  0
    8.6392   -0.4078    1.4286 H   0  0  0  0  0  0  0  0  0  0  0  0
    7.0030   -1.8005   -0.7562 H   0  0  0  0  0  0  0  0  0  0  0  0
    6.0316   -0.5251    1.8649 H   0  0  0  0  0  0  0  0  0  0  0  0
    6.1625   -2.2512    1.5252 H   0  0  0  0  0  0  0  0  0  0  0  0
    4.4611   -0.4825   -0.1409 H   0  0  0  0  0  0  0  0  0  0  0  0
    2.8685   -1.2611   -1.4382 H   0  0  0  0  0  0  0  0  0  0  0  0
    0.5955   -0.8352   -2.2703 H   0  0  0  0  0  0  0  0  0  0  0  0
   -2.7044   -1.7672    0.5104 H   0  0  0  0  0  0  0  0  0  0  0  0
   -3.6618   -0.8804   -2.1946 H   0  0  0  0  0  0  0  0  0  0  0  0
   -3.9418   -2.3578   -1.3026 H   0  0  0  0  0  0  0  0  0  0  0  0
   -6.0288   -1.3819   -1.1659 H   0  0  0  0  0  0  0  0  0  0  0  0
   -5.4141    0.2708   -1.1792 H   0  0  0  0  0  0  0  0  0  0  0  0
   -7.2828   -1.4236    0.9528 H   0  0  0  0  0  0  0  0  0  0  0  0
   -6.6492   -0.5962    2.3409 H   0  0  0  0  0  0  0  0  0  0  0  0
   -8.3508   -0.1564   -0.9102 H   0  0  0  0  0  0  0  0  0  0  0  0
   -9.5903    1.9181   -1.4912 H   0  0  0  0  0  0  0  0  0  0  0  0
   -9.3746    3.9190   -0.0101 H   0  0  0  0  0  0  0  0  0  0  0  0
   -7.9142    3.7483    2.0069 H   0  0  0  0  0  0  0  0  0  0  0  0
   -4.1670   -0.0341    2.3146 H   0  0  0  0  0  0  0  0  0  0  0  0
   -4.8065    1.2913    1.3458 H   0  0  0  0  0  0  0  0  0  0  0  0
   -3.1394    1.1819   -0.2399 H   0  0  0  0  0  0  0  0  0  0  0  0
   -2.2602    0.6728    1.1792 H   0  0  0  0  0  0  0  0  0  0  0  0
   -0.9711   -1.3903    1.7083 H   0  0  0  0  0  0  0  0  0  0  0  0
    1.2846   -1.7995    2.5412 H   0  0  0  0  0  0  0  0  0  0  0  0
    6.7365   -0.5365   -2.6705 H   0  0  0  0  0  0  0  0  0  0  0  0
    6.4304    1.6222   -3.8184 H   0  0  0  0  0  0  0  0  0  0  0  0
    6.4406    3.7394   -2.5265 H   0  0  0  0  0  0  0  0  0  0  0  0
    6.7673    3.6882   -0.0689 H   0  0  0  0  0  0  0  0  0  0  0  0
    7.0771    1.5462    1.1009 H   0  0  0  0  0  0  0  0  0  0  0  0
  1  2  1  0
  2  3  1  0
  3  4  1  0
  4  5  1  0
  5  6  2  0
  5  7  1  0
  7  8  2  0
  8  9  1  0
  9 10  2  0
 10 11  1  0
 11 12  1  0
 12 13  1  0
 13 14  1  0
 14 15  1  0
 15 16  1  0
 16 17  1  0
 17 18  2  0
 18 19  1  0
 19 20  2  0
 20 21  1  0
 21 22  2  0
 15 23  1  0
 23 24  1  0
 10 25  1  0
 25 26  2  0
  2 27  1  0
 27 28  2  0
 28 29  1  0
 29 30  2  0
 30 31  1  0
 31 32  2  0
 26  7  1  0
 32 27  1  0
 24 12  1  0
 22 17  1  0
  1 33  1  0
  1 34  1  0
  1 35  1  0
  2 36  1  0
  3 37  1  0
  3 38  1  0
  4 39  1  0
  8 40  1  0
  9 41  1  0
 12 42  1  0
 13 43  1  0
 13 44  1  0
 14 45  1  0
 14 46  1  0
 16 47  1  0
 16 48  1  0
 18 49  1  0
 19 50  1  0
 20 51  1  0
 21 52  1  0
 23 53  1  0
 23 54  1  0
 24 55  1  0
 24 56  1  0
 25 57  1  0
 26 58  1  0
 28 59  1  0
 29 60  1  0
 30 61  1  0
 31 62  1  0
 32 63  1  0
M  END
$$$$
