
     RDKit          3D

 46 49  0  0  0  0  0  0  0  0999 V2000
   -3.4539   -2.3010    2.2499 C   0  0  0  0  0  0  0  0  0  0  0  0
   -4.2594   -1.8622    1.0341 C   0  0  0  0  0  0  0  0  0  0  0  0
   -4.0128   -0.3901    0.6548 C   0  0  0  0  0  0  0  0  0  0  0  0
   -4.8996    0.0681   -0.5145 C   0  0  0  0  0  0  0  0  0  0  0  0
   -4.4815    1.4493   -1.0450 C   0  0  0  0  0  0  0  0  0  0  0  0
   -3.6495    2.2296   -0.0270 C   0  0  0  0  0  0  0  0  0  0  0  0
   -2.3977    1.4467    0.4035 C   0  0  0  0  0  0  0  0  0  0  0  0
   -2.6176   -0.0071    0.3978 N   0  0  0  0  0  0  0  0  0  0  0  0
   -1.8205   -0.7953   -0.4583 C   0  0  0  0  0  0  0  0  0  0  0  0
   -2.3137   -1.6670   -1.1716 O   0  0  0  0  0  0  0  0  0  0  0  0
   -0.3813   -0.5504   -0.4059 C   0  0  0  0  0  0  0  0  0  0  0  0
    0.3972   -0.0926    0.6428 C   0  0  0  0  0  0  0  0  0  0  0  0
    1.7753    0.0013    0.2886 C   0  0  0  0  0  0  0  0  0  0  0  0
    2.8966    0.4410    1.0921 C   0  0  0  0  0  0  0  0  0  0  0  0
    2.7353    0.8203    2.2511 O   0  0  0  0  0  0  0  0  0  0  0  0
    4.1353    0.3961    0.4287 N   0  0  0  0  0  0  0  0  0  0  0  0
    5.2699    0.7966    1.1268 C   0  0  0  0  0  0  0  0  0  0  0  0
    6.4850    0.7886    0.5704 C   0  0  0  0  0  0  0  0  0  0  0  0
    6.6503    0.3577   -0.7892 C   0  0  0  0  0  0  0  0  0  0  0  0
    5.6018   -0.0423   -1.5247 C   0  0  0  0  0  0  0  0  0  0  0  0
    5.7224   -0.5013   -2.9445 C   0  0  0  0  0  0  0  0  0  0  0  0
    4.2269   -0.0377   -0.9081 C   0  0  0  0  0  0  0  0  0  0  0  0
    3.2113   -0.4263   -1.6271 N   0  0  0  0  0  0  0  0  0  0  0  0
    2.0129   -0.3985   -1.0018 C   0  0  0  0  0  0  0  0  0  0  0  0
    0.5820   -0.8924   -1.7849 S   0  0  0  0  0  0  0  0  0  0  0  0
   -3.6637   -1.6598    3.1119 H   0  0  0  0  0  0  0  0  0  0  0  0
   -2.3784   -2.2713    2.0517 H   0  0  0  0  0  0  0  0  0  0  0  0
   -3.7149   -3.3287    2.5222 H   0  0  0  0  0  0  0  0  0  0  0  0
   -5.3249   -1.9898    1.2641 H   0  0  0  0  0  0  0  0  0  0  0  0
   -4.0501   -2.5386    0.2000 H   0  0  0  0  0  0  0  0  0  0  0  0
   -4.3096    0.1862    1.5437 H   0  0  0  0  0  0  0  0  0  0  0  0
   -5.9430    0.1042   -0.1777 H   0  0  0  0  0  0  0  0  0  0  0  0
   -4.8672   -0.6522   -1.3409 H   0  0  0  0  0  0  0  0  0  0  0  0
   -5.3712    2.0223   -1.3294 H   0  0  0  0  0  0  0  0  0  0  0  0
   -3.8899    1.3171   -1.9598 H   0  0  0  0  0  0  0  0  0  0  0  0
   -4.2696    2.4395    0.8539 H   0  0  0  0  0  0  0  0  0  0  0  0
   -3.3553    3.2035   -0.4343 H   0  0  0  0  0  0  0  0  0  0  0  0
   -2.1120    1.7380    1.4201 H   0  0  0  0  0  0  0  0  0  0  0  0
   -1.5782    1.7162   -0.2703 H   0  0  0  0  0  0  0  0  0  0  0  0
    0.0036    0.1557    1.6220 H   0  0  0  0  0  0  0  0  0  0  0  0
    5.1305    1.1202    2.1557 H   0  0  0  0  0  0  0  0  0  0  0  0
    7.3607    1.1036    1.1292 H   0  0  0  0  0  0  0  0  0  0  0  0
    7.6558    0.3669   -1.2000 H   0  0  0  0  0  0  0  0  0  0  0  0
    6.7594   -0.4675   -3.2955 H   0  0  0  0  0  0  0  0  0  0  0  0
    5.1294    0.1372   -3.6076 H   0  0  0  0  0  0  0  0  0  0  0  0
    5.3736   -1.5341   -3.0466 H   0  0  0  0  0  0  0  0  0  0  0  0
  1  2  1  0
  2  3  1  0
  3  4  1  0
  4  5  1  0
  5  6  1  0
  6  7  1  0
  7  8  1  0
  8  9  1  0
  9 10  2  0
  9 11  1  0
 11 12  2  0
 12 13  1  0
 13 14  1  0
 14 15  2  0
 14 16  1  0
 16 17  1  0
 17 18  2  0
 18 19  1  0
 19 20  2  0
 20 21  1  0
 20 22  1  0
 22 23  2  0
 23 24  1  0
 24 25  1  0
  8  3  1  0
 25 11  1  0
 24 13  2  0
 22 16  1  0
  1 26  1  0
  1 27  1  0
  1 28  1  0
  2 29  1  0
  2 30  1  0
  3 31  1  0
  4 32  1  0
  4 33  1  0
  5 34  1  0
  5 35  1  0
  6 36  1  0
  6 37  1  0
  7 38  1  0
  7 39  1  0
 12 40  1  0
 17 41  1  0
 18 42  1  0
 19 43  1  0
 21 44  1  0
 21 45  1  0
 21 46  1  0
M  END
$$$$
