
     RDKit          3D

 47 50  0  0  0  0  0  0  0  0999 V2000
   -3.4233    1.8813   -0.6989 O   0  0  0  0  0  0  0  0  0  0  0  0
   -3.6374    0.7979   -0.1423 C   0  0  0  0  0  0  0  0  0  0  0  0
   -4.9316    0.5545    0.6886 C   0  0  0  0  0  0  0  0  0  0  0  0
   -4.8519    0.8020    2.2219 C   0  0  0  0  0  0  0  0  0  0  0  0
   -6.2945    1.3344    2.1493 C   0  0  0  0  0  0  0  0  0  0  0  0
   -6.0206    1.6685    0.6719 C   0  0  0  0  0  0  0  0  0  0  0  0
   -2.7543   -0.2763   -0.2102 N   0  0  0  0  0  0  0  0  0  0  0  0
   -2.9545   -1.5878    0.4269 C   0  0  0  0  0  0  0  0  0  0  0  0
   -1.7025   -2.4323    0.1617 C   0  0  0  0  0  0  0  0  0  0  0  0
   -0.9103   -1.5423   -0.7402 C   0  0  0  0  0  0  0  0  0  0  0  0
    0.3075   -1.8302   -1.3399 C   0  0  0  0  0  0  0  0  0  0  0  0
    0.8934   -0.8397   -2.1341 C   0  0  0  0  0  0  0  0  0  0  0  0
    2.4496   -1.1518   -2.9331 S   0  0  0  0  0  6  0  0  0  0  0  0
    2.3909   -0.5654   -4.2526 O   0  0  0  0  0  0  0  0  0  0  0  0
    2.7880   -2.5436   -2.7298 O   0  0  0  0  0  0  0  0  0  0  0  0
    3.5187   -0.2343   -2.0378 N   0  0  0  0  0  0  0  0  0  0  0  0
    3.6650   -0.5218   -0.6088 C   0  0  0  0  0  0  0  0  0  0  0  0
    4.8881    0.1599   -0.0348 C   0  0  0  0  0  0  0  0  0  0  0  0
    6.1464   -0.4222   -0.1764 C   0  0  0  0  0  0  0  0  0  0  0  0
    7.2569    0.2494    0.3263 C   0  0  0  0  0  0  0  0  0  0  0  0
    7.0852    1.4820    0.9442 C   0  0  0  0  0  0  0  0  0  0  0  0
    5.8035    1.9982    1.0300 C   0  0  0  0  0  0  0  0  0  0  0  0
    4.7060    1.3713    0.5512 N   0  0  0  0  0  0  0  0  0  0  0  0
    0.2622    0.3997   -2.3342 C   0  0  0  0  0  0  0  0  0  0  0  0
   -0.9635    0.6708   -1.7166 C   0  0  0  0  0  0  0  0  0  0  0  0
   -1.5397   -0.3077   -0.9210 C   0  0  0  0  0  0  0  0  0  0  0  0
   -5.3925   -0.4153    0.4511 H   0  0  0  0  0  0  0  0  0  0  0  0
   -4.7159   -0.0875    2.8424 H   0  0  0  0  0  0  0  0  0  0  0  0
   -4.1144    1.5574    2.5174 H   0  0  0  0  0  0  0  0  0  0  0  0
   -7.0577    0.5610    2.2925 H   0  0  0  0  0  0  0  0  0  0  0  0
   -6.5216    2.1850    2.7964 H   0  0  0  0  0  0  0  0  0  0  0  0
   -5.6383    2.6843    0.5186 H   0  0  0  0  0  0  0  0  0  0  0  0
   -6.8586    1.5001   -0.0098 H   0  0  0  0  0  0  0  0  0  0  0  0
   -3.8431   -2.0568   -0.0107 H   0  0  0  0  0  0  0  0  0  0  0  0
   -3.1288   -1.4562    1.4995 H   0  0  0  0  0  0  0  0  0  0  0  0
   -1.9575   -3.3796   -0.3227 H   0  0  0  0  0  0  0  0  0  0  0  0
   -1.1576   -2.6281    1.0906 H   0  0  0  0  0  0  0  0  0  0  0  0
    0.7848   -2.7952   -1.1947 H   0  0  0  0  0  0  0  0  0  0  0  0
    3.5630    0.7492   -2.3027 H   0  0  0  0  0  0  0  0  0  0  0  0
    2.7847   -0.1511   -0.0718 H   0  0  0  0  0  0  0  0  0  0  0  0
    3.7389   -1.5994   -0.4274 H   0  0  0  0  0  0  0  0  0  0  0  0
    6.2627   -1.3777   -0.6793 H   0  0  0  0  0  0  0  0  0  0  0  0
    8.2488   -0.1832    0.2292 H   0  0  0  0  0  0  0  0  0  0  0  0
    7.9307    2.0307    1.3436 H   0  0  0  0  0  0  0  0  0  0  0  0
    5.6194    2.9610    1.4984 H   0  0  0  0  0  0  0  0  0  0  0  0
    0.7155    1.1552   -2.9730 H   0  0  0  0  0  0  0  0  0  0  0  0
   -1.4400    1.6320   -1.8793 H   0  0  0  0  0  0  0  0  0  0  0  0
  1  2  2  0
  2  3  1  0
  3  4  1  0
  4  5  1  0
  5  6  1  0
  2  7  1  0
  7  8  1  0
  8  9  1  0
  9 10  1  0
 10 11  2  0
 11 12  1  0
 12 13  1  0
 13 14  2  0
 13 15  2  0
 13 16  1  0
 16 17  1  0
 17 18  1  0
 18 19  2  0
 19 20  1  0
 20 21  2  0
 21 22  1  0
 22 23  2  0
 12 24  2  0
 24 25  1  0
 25 26  2  0
  6  3  1  0
 26  7  1  0
 26 10  1  0
 23 18  1  0
  3 27  1  0
  4 28  1  0
  4 29  1  0
  5 30  1  0
  5 31  1  0
  6 32  1  0
  6 33  1  0
  8 34  1  0
  8 35  1  0
  9 36  1  0
  9 37  1  0
 11 38  1  0
 16 39  1  0
 17 40  1  0
 17 41  1  0
 19 42  1  0
 20 43  1  0
 21 44  1  0
 22 45  1  0
 24 46  1  0
 25 47  1  0
M  END
$$$$
