
     RDKit          3D

 41 44  0  0  0  0  0  0  0  0999 V2000
   -4.3498    0.4391    2.7365 C   0  0  0  0  0  0  0  0  0  0  0  0
   -3.9541   -0.1081    1.4855 O   0  0  0  0  0  0  0  0  0  0  0  0
   -4.5440    0.4060    0.3579 C   0  0  0  0  0  0  0  0  0  0  0  0
   -5.5586    1.3689    0.3580 C   0  0  0  0  0  0  0  0  0  0  0  0
   -6.1028    1.8239   -0.8467 C   0  0  0  0  0  0  0  0  0  0  0  0
   -5.6411    1.3213   -2.0603 C   0  0  0  0  0  0  0  0  0  0  0  0
   -4.6315    0.3607   -2.0746 C   0  0  0  0  0  0  0  0  0  0  0  0
   -4.0777   -0.0996   -0.8720 C   0  0  0  0  0  0  0  0  0  0  0  0
   -3.0116   -1.1084   -0.9374 C   0  0  0  0  0  0  0  0  0  0  0  0
   -1.7039   -0.8522   -0.7983 C   0  0  0  0  0  0  0  0  0  0  0  0
   -0.9538    0.7139   -0.5428 S   0  0  0  0  0  0  0  0  0  0  0  0
    0.5828   -0.0432   -0.4912 C   0  0  0  0  0  0  0  0  0  0  0  0
    1.8088    0.3559   -0.3240 N   0  0  0  0  0  0  0  0  0  0  0  0
    2.5210   -0.8365   -0.4296 C   0  0  0  0  0  0  0  0  0  0  0  0
    3.9763   -0.9064   -0.2996 C   0  0  0  0  0  0  0  0  0  0  0  0
    4.5685   -2.0978    0.1586 C   0  0  0  0  0  0  0  0  0  0  0  0
    5.9551   -2.2077    0.2995 C   0  0  0  0  0  0  0  0  0  0  0  0
    6.7752   -1.1313   -0.0267 C   0  0  0  0  0  0  0  0  0  0  0  0
    6.2094    0.0545   -0.4910 C   0  0  0  0  0  0  0  0  0  0  0  0
    4.8185    0.1730   -0.6111 C   0  0  0  0  0  0  0  0  0  0  0  0
    4.3201    1.3367   -1.1414 O   0  0  0  0  0  0  0  0  0  0  0  0
    4.2933    2.3653   -0.1510 C   0  0  0  0  0  0  0  0  0  0  0  0
    1.7450   -1.9322   -0.6114 N   0  0  0  0  0  0  0  0  0  0  0  0
    0.5231   -1.3764   -0.6623 N   0  0  0  0  0  0  0  0  0  0  0  0
   -0.7083   -1.9652   -0.8504 C   0  0  0  0  0  0  0  0  0  0  0  0
   -0.8798   -3.1587   -1.0215 O   0  0  0  0  0  0  0  0  0  0  0  0
   -4.1385    1.5125    2.7840 H   0  0  0  0  0  0  0  0  0  0  0  0
   -3.7587   -0.0504    3.5165 H   0  0  0  0  0  0  0  0  0  0  0  0
   -5.4052    0.2323    2.9409 H   0  0  0  0  0  0  0  0  0  0  0  0
   -5.9528    1.7857    1.2788 H   0  0  0  0  0  0  0  0  0  0  0  0
   -6.8912    2.5728   -0.8356 H   0  0  0  0  0  0  0  0  0  0  0  0
   -6.0670    1.6773   -2.9949 H   0  0  0  0  0  0  0  0  0  0  0  0
   -4.2783   -0.0235   -3.0289 H   0  0  0  0  0  0  0  0  0  0  0  0
   -3.3613   -2.1278   -1.0913 H   0  0  0  0  0  0  0  0  0  0  0  0
    3.9467   -2.9564    0.4085 H   0  0  0  0  0  0  0  0  0  0  0  0
    6.3911   -3.1385    0.6536 H   0  0  0  0  0  0  0  0  0  0  0  0
    7.8544   -1.2199    0.0665 H   0  0  0  0  0  0  0  0  0  0  0  0
    6.8522    0.8829   -0.7761 H   0  0  0  0  0  0  0  0  0  0  0  0
    3.6943    3.1924   -0.5435 H   0  0  0  0  0  0  0  0  0  0  0  0
    5.3034    2.7410    0.0427 H   0  0  0  0  0  0  0  0  0  0  0  0
    3.8308    2.0240    0.7821 H   0  0  0  0  0  0  0  0  0  0  0  0
  1  2  1  0
  2  3  1  0
  3  4  2  0
  4  5  1  0
  5  6  2  0
  6  7  1  0
  7  8  2  0
  8  9  1  0
  9 10  2  3
 10 11  1  0
 11 12  1  0
 12 13  2  0
 13 14  1  0
 14 15  1  0
 15 16  2  0
 16 17  1  0
 17 18  2  0
 18 19  1  0
 19 20  2  0
 20 21  1  0
 21 22  1  0
 14 23  2  0
 23 24  1  0
 24 25  1  0
 25 26  2  0
  8  3  1  0
 25 10  1  0
 24 12  1  0
 20 15  1  0
  1 27  1  0
  1 28  1  0
  1 29  1  0
  4 30  1  0
  5 31  1  0
  6 32  1  0
  7 33  1  0
  9 34  1  0
 16 35  1  0
 17 36  1  0
 18 37  1  0
 19 38  1  0
 22 39  1  0
 22 40  1  0
 22 41  1  0
M  END
$$$$
