
     RDKit          3D

 52 55  0  0  0  0  0  0  0  0999 V2000
   -5.9970    0.9904    1.4279 C   0  0  0  0  0  0  0  0  0  0  0  0
   -5.7664    1.9749    0.3132 C   0  0  0  0  0  0  0  0  0  0  0  0
   -6.6746    3.0403    0.1715 C   0  0  0  0  0  0  0  0  0  0  0  0
   -6.5367    3.9763   -0.8566 C   0  0  0  0  0  0  0  0  0  0  0  0
   -5.4842    3.8495   -1.7679 C   0  0  0  0  0  0  0  0  0  0  0  0
   -5.3357    4.8340   -2.8475 N   0  0  0  0  0  4  0  0  0  0  0  0
   -4.3035    4.7841   -3.5321 O   0  0  0  0  0  0  0  0  0  0  0  0
   -6.2472    5.6586   -3.0040 O   0  0  0  0  0  1  0  0  0  0  0  0
   -4.5711    2.7945   -1.6594 C   0  0  0  0  0  0  0  0  0  0  0  0
   -4.7132    1.8607   -0.6192 C   0  0  0  0  0  0  0  0  0  0  0  0
   -3.5298    0.5183   -0.5459 S   0  0  0  0  0  6  0  0  0  0  0  0
   -4.2582   -0.7024   -0.2858 O   0  0  0  0  0  0  0  0  0  0  0  0
   -2.6442    0.6489   -1.6849 O   0  0  0  0  0  0  0  0  0  0  0  0
   -2.6139    0.9743    0.8212 N   0  0  0  0  0  0  0  0  0  0  0  0
   -1.7196   -0.0514    1.2780 C   0  0  0  0  0  0  0  0  0  0  0  0
   -2.1799   -1.0096    2.1753 C   0  0  0  0  0  0  0  0  0  0  0  0
   -1.3251   -2.0240    2.5963 C   0  0  0  0  0  0  0  0  0  0  0  0
   -0.0199   -2.0879    2.1002 C   0  0  0  0  0  0  0  0  0  0  0  0
    0.4575   -1.1522    1.1625 C   0  0  0  0  0  0  0  0  0  0  0  0
    1.8286   -1.2507    0.6331 C   0  0  0  0  0  0  0  0  0  0  0  0
    2.1893   -0.8962   -0.6570 C   0  0  0  0  0  0  0  0  0  0  0  0
    3.5236   -1.0187   -1.0571 C   0  0  0  0  0  0  0  0  0  0  0  0
    4.4839   -1.4993   -0.1779 C   0  0  0  0  0  0  0  0  0  0  0  0
    5.8089   -1.6094   -0.5299 N   0  0  0  0  0  0  0  0  0  0  0  0
    6.7511   -2.1893    0.4191 C   0  0  0  0  0  0  0  0  0  0  0  0
    8.0616   -2.1891   -0.3614 C   0  0  0  0  0  0  0  0  0  0  0  0
    7.6033   -2.4935   -1.7791 C   0  0  0  0  0  0  0  0  0  0  0  0
    6.2796   -1.7364   -1.9035 C   0  0  0  0  0  0  0  0  0  0  0  0
    4.0913   -1.8299    1.0702 N   0  0  0  0  0  0  0  0  0  0  0  0
    2.7692   -1.7162    1.4777 N   0  0  0  0  0  0  0  0  0  0  0  0
   -0.4220   -0.1292    0.7617 C   0  0  0  0  0  0  0  0  0  0  0  0
   -5.0755    0.7871    1.9765 H   0  0  0  0  0  0  0  0  0  0  0  0
   -6.4107    0.0584    1.0320 H   0  0  0  0  0  0  0  0  0  0  0  0
   -6.7106    1.3834    2.1608 H   0  0  0  0  0  0  0  0  0  0  0  0
   -7.5073    3.1468    0.8663 H   0  0  0  0  0  0  0  0  0  0  0  0
   -7.2569    4.7895   -0.9320 H   0  0  0  0  0  0  0  0  0  0  0  0
   -3.7627    2.6925   -2.3827 H   0  0  0  0  0  0  0  0  0  0  0  0
   -2.0974    1.8219    0.5791 H   0  0  0  0  0  0  0  0  0  0  0  0
   -3.1982   -0.9712    2.5511 H   0  0  0  0  0  0  0  0  0  0  0  0
   -1.6721   -2.7711    3.3060 H   0  0  0  0  0  0  0  0  0  0  0  0
    0.6305   -2.8930    2.4435 H   0  0  0  0  0  0  0  0  0  0  0  0
    1.4544   -0.5355   -1.3690 H   0  0  0  0  0  0  0  0  0  0  0  0
    3.7942   -0.7197   -2.0633 H   0  0  0  0  0  0  0  0  0  0  0  0
    6.8391   -1.5972    1.3364 H   0  0  0  0  0  0  0  0  0  0  0  0
    6.4644   -3.2167    0.6750 H   0  0  0  0  0  0  0  0  0  0  0  0
    8.5251   -1.1957   -0.3227 H   0  0  0  0  0  0  0  0  0  0  0  0
    8.7784   -2.9207    0.0207 H   0  0  0  0  0  0  0  0  0  0  0  0
    8.3306   -2.1900   -2.5367 H   0  0  0  0  0  0  0  0  0  0  0  0
    7.4281   -3.5703   -1.8896 H   0  0  0  0  0  0  0  0  0  0  0  0
    6.4423   -0.7417   -2.3329 H   0  0  0  0  0  0  0  0  0  0  0  0
    5.5904   -2.2948   -2.5463 H   0  0  0  0  0  0  0  0  0  0  0  0
   -0.0918    0.6186    0.0452 H   0  0  0  0  0  0  0  0  0  0  0  0
  1  2  1  0
  2  3  2  0
  3  4  1  0
  4  5  2  0
  5  6  1  0
  6  7  2  0
  6  8  1  0
  5  9  1  0
  9 10  2  0
 10 11  1  0
 11 12  2  0
 11 13  2  0
 11 14  1  0
 14 15  1  0
 15 16  2  0
 16 17  1  0
 17 18  2  0
 18 19  1  0
 19 20  1  0
 20 21  2  0
 21 22  1  0
 22 23  2  0
 23 24  1  0
 24 25  1  0
 25 26  1  0
 26 27  1  0
 27 28  1  0
 23 29  1  0
 29 30  2  0
 19 31  2  0
 10  2  1  0
 31 15  1  0
 30 20  1  0
 28 24  1  0
  1 32  1  0
  1 33  1  0
  1 34  1  0
  3 35  1  0
  4 36  1  0
  9 37  1  0
 14 38  1  0
 16 39  1  0
 17 40  1  0
 18 41  1  0
 21 42  1  0
 22 43  1  0
 25 44  1  0
 25 45  1  0
 26 46  1  0
 26 47  1  0
 27 48  1  0
 27 49  1  0
 28 50  1  0
 28 51  1  0
 31 52  1  0
M  CHG  2   6   1   8  -1
M  END
$$$$
