
     RDKit          3D

 37 37  0  0  0  0  0  0  0  0999 V2000
   -3.5039   -0.2841    2.7917 C   0  0  0  0  0  0  0  0  0  0  0  0
   -3.4693    0.6686    1.6051 C   0  0  0  0  0  0  0  0  0  0  0  0
   -2.9783   -0.0107    0.3974 N   0  0  0  0  0  0  0  0  0  0  0  0
   -4.0126   -0.6051   -0.4606 C   0  0  0  0  0  0  0  0  0  0  0  0
   -4.4699    0.3786   -1.5283 C   0  0  0  0  0  0  0  0  0  0  0  0
   -1.6251   -0.0757    0.0839 C   0  0  0  0  0  0  0  0  0  0  0  0
   -0.6265    0.3790    0.9655 C   0  0  0  0  0  0  0  0  0  0  0  0
    0.7410    0.3167    0.6582 C   0  0  0  0  0  0  0  0  0  0  0  0
    1.1529   -0.2108   -0.5596 C   0  0  0  0  0  0  0  0  0  0  0  0
    2.5825   -0.2948   -0.9152 C   0  0  0  0  0  0  0  0  0  0  0  0
    3.5118    0.1145   -0.1167 N   0  0  0  0  0  0  0  0  0  0  0  0
    4.8918   -0.0517   -0.6441 C   0  0  0  0  0  0  0  0  0  0  0  0
    5.1998    1.0516   -1.5693 C   0  0  0  0  0  0  0  0  0  0  0  0
    5.4402    1.8981   -2.3264 N   0  0  0  0  0  0  0  0  0  0  0  0
    5.8260    0.0013    0.5366 C   0  0  0  0  0  0  0  0  0  0  0  0
    5.4933    0.2846    1.7597 N   0  0  0  0  0  0  0  0  0  0  0  0
    7.2211   -0.3148    0.3442 C   0  0  0  0  0  0  0  0  0  0  0  0
    8.3263   -0.5992    0.1258 N   0  0  0  0  0  0  0  0  0  0  0  0
    0.2024   -0.6712   -1.4630 C   0  0  0  0  0  0  0  0  0  0  0  0
   -1.1609   -0.6011   -1.1370 C   0  0  0  0  0  0  0  0  0  0  0  0
   -2.5089   -0.6708    3.0315 H   0  0  0  0  0  0  0  0  0  0  0  0
   -3.8905    0.2299    3.6773 H   0  0  0  0  0  0  0  0  0  0  0  0
   -4.1526   -1.1425    2.5879 H   0  0  0  0  0  0  0  0  0  0  0  0
   -2.8822    1.5642    1.8370 H   0  0  0  0  0  0  0  0  0  0  0  0
   -4.4873    1.0403    1.4312 H   0  0  0  0  0  0  0  0  0  0  0  0
   -3.6772   -1.5458   -0.9112 H   0  0  0  0  0  0  0  0  0  0  0  0
   -4.8823   -0.8827    0.1488 H   0  0  0  0  0  0  0  0  0  0  0  0
   -4.8761    1.2893   -1.0759 H   0  0  0  0  0  0  0  0  0  0  0  0
   -3.6479    0.6746   -2.1868 H   0  0  0  0  0  0  0  0  0  0  0  0
   -5.2536   -0.0716   -2.1455 H   0  0  0  0  0  0  0  0  0  0  0  0
   -0.8835    0.7919    1.9364 H   0  0  0  0  0  0  0  0  0  0  0  0
    1.4644    0.6839    1.3813 H   0  0  0  0  0  0  0  0  0  0  0  0
    2.8144   -0.7285   -1.9061 H   0  0  0  0  0  0  0  0  0  0  0  0
    5.0119   -1.0264   -1.1332 H   0  0  0  0  0  0  0  0  0  0  0  0
    4.4741    0.4695    1.7588 H   0  0  0  0  0  0  0  0  0  0  0  0
    0.4919   -1.0840   -2.4254 H   0  0  0  0  0  0  0  0  0  0  0  0
   -1.8569   -0.9650   -1.8869 H   0  0  0  0  0  0  0  0  0  0  0  0
  1  2  1  0
  2  3  1  0
  3  4  1  0
  4  5  1  0
  3  6  1  0
  6  7  2  0
  7  8  1  0
  8  9  2  0
  9 10  1  0
 10 11  2  3
 11 12  1  0
 12 13  1  0
 13 14  3  0
 12 15  1  0
 15 16  2  3
 15 17  1  0
 17 18  3  0
  9 19  1  0
 19 20  2  0
 20  6  1  0
  1 21  1  0
  1 22  1  0
  1 23  1  0
  2 24  1  0
  2 25  1  0
  4 26  1  0
  4 27  1  0
  5 28  1  0
  5 29  1  0
  5 30  1  0
  7 31  1  0
  8 32  1  0
 10 33  1  0
 12 34  1  0
 16 35  1  0
 19 36  1  0
 20 37  1  0
M  END
$$$$
