
     RDKit          3D

 52 55  0  0  0  0  0  0  0  0999 V2000
   -5.8159    1.4379    1.5357 C   0  0  0  0  0  0  0  0  0  0  0  0
   -5.5850    2.2410    0.2841 C   0  0  0  0  0  0  0  0  0  0  0  0
   -6.3537    3.4030    0.0901 C   0  0  0  0  0  0  0  0  0  0  0  0
   -6.2084    4.1822   -1.0600 C   0  0  0  0  0  0  0  0  0  0  0  0
   -5.2898    3.7990   -2.0417 C   0  0  0  0  0  0  0  0  0  0  0  0
   -5.1374    4.6184   -3.2512 N   0  0  0  0  0  4  0  0  0  0  0  0
   -5.9234    5.5630   -3.4093 O   0  0  0  0  0  0  0  0  0  0  0  0
   -4.2276    4.3205   -4.0368 O   0  0  0  0  0  1  0  0  0  0  0  0
   -4.5177    2.6429   -1.8818 C   0  0  0  0  0  0  0  0  0  0  0  0
   -4.6663    1.8675   -0.7198 C   0  0  0  0  0  0  0  0  0  0  0  0
   -3.6719    0.3825   -0.5802 S   0  0  0  0  0  6  0  0  0  0  0  0
   -4.5377   -0.6792   -0.1193 O   0  0  0  0  0  0  0  0  0  0  0  0
   -2.8987    0.2594   -1.7971 O   0  0  0  0  0  0  0  0  0  0  0  0
   -2.5785    0.8494    0.6442 N   0  0  0  0  0  0  0  0  0  0  0  0
   -1.7835   -0.2247    1.1714 C   0  0  0  0  0  0  0  0  0  0  0  0
   -2.3532   -1.1642    2.0239 C   0  0  0  0  0  0  0  0  0  0  0  0
   -1.5784   -2.2130    2.5096 C   0  0  0  0  0  0  0  0  0  0  0  0
   -0.2311   -2.3179    2.1472 C   0  0  0  0  0  0  0  0  0  0  0  0
    0.3775   -1.3781    1.2930 C   0  0  0  0  0  0  0  0  0  0  0  0
    1.8022   -1.4633    0.9034 C   0  0  0  0  0  0  0  0  0  0  0  0
    2.7671   -2.1840    1.5906 C   0  0  0  0  0  0  0  0  0  0  0  0
    4.0892   -2.1883    1.1311 C   0  0  0  0  0  0  0  0  0  0  0  0
    4.4454   -1.4792   -0.0071 C   0  0  0  0  0  0  0  0  0  0  0  0
    5.7443   -1.4511   -0.4722 N   0  0  0  0  0  0  0  0  0  0  0  0
    6.6605   -2.5737   -0.2969 C   0  0  0  0  0  0  0  0  0  0  0  0
    7.5546   -2.5335   -1.5380 C   0  0  0  0  0  0  0  0  0  0  0  0
    7.4762   -1.0850   -1.9935 C   0  0  0  0  0  0  0  0  0  0  0  0
    6.0200   -0.7308   -1.7118 C   0  0  0  0  0  0  0  0  0  0  0  0
    3.4866   -0.7681   -0.6328 N   0  0  0  0  0  0  0  0  0  0  0  0
    2.1699   -0.7639   -0.1885 N   0  0  0  0  0  0  0  0  0  0  0  0
   -0.4382   -0.3348    0.8055 C   0  0  0  0  0  0  0  0  0  0  0  0
   -4.8728    1.1913    2.0299 H   0  0  0  0  0  0  0  0  0  0  0  0
   -6.4067    2.0036    2.2651 H   0  0  0  0  0  0  0  0  0  0  0  0
   -6.3692    0.5230    1.3046 H   0  0  0  0  0  0  0  0  0  0  0  0
   -7.0821    3.7107    0.8402 H   0  0  0  0  0  0  0  0  0  0  0  0
   -6.8196    5.0759   -1.1741 H   0  0  0  0  0  0  0  0  0  0  0  0
   -3.8132    2.3414   -2.6561 H   0  0  0  0  0  0  0  0  0  0  0  0
   -1.9829    1.5851    0.2586 H   0  0  0  0  0  0  0  0  0  0  0  0
   -3.3999   -1.0936    2.3070 H   0  0  0  0  0  0  0  0  0  0  0  0
   -2.0252   -2.9572    3.1645 H   0  0  0  0  0  0  0  0  0  0  0  0
    0.3279   -3.1664    2.5350 H   0  0  0  0  0  0  0  0  0  0  0  0
    2.5303   -2.7332    2.4944 H   0  0  0  0  0  0  0  0  0  0  0  0
    4.8357   -2.7385    1.6935 H   0  0  0  0  0  0  0  0  0  0  0  0
    6.1535   -3.5432   -0.2359 H   0  0  0  0  0  0  0  0  0  0  0  0
    7.2538   -2.4245    0.6117 H   0  0  0  0  0  0  0  0  0  0  0  0
    8.5772   -2.8591   -1.3269 H   0  0  0  0  0  0  0  0  0  0  0  0
    7.1428   -3.1898   -2.3143 H   0  0  0  0  0  0  0  0  0  0  0  0
    8.1436   -0.4635   -1.3845 H   0  0  0  0  0  0  0  0  0  0  0  0
    7.7450   -0.9545   -3.0452 H   0  0  0  0  0  0  0  0  0  0  0  0
    5.3836   -1.0921   -2.5293 H   0  0  0  0  0  0  0  0  0  0  0  0
    5.8901    0.3508   -1.6003 H   0  0  0  0  0  0  0  0  0  0  0  0
   -0.0093    0.3998    0.1256 H   0  0  0  0  0  0  0  0  0  0  0  0
  1  2  1  0
  2  3  2  0
  3  4  1  0
  4  5  2  0
  5  6  1  0
  6  7  2  0
  6  8  1  0
  5  9  1  0
  9 10  2  0
 10 11  1  0
 11 12  2  0
 11 13  2  0
 11 14  1  0
 14 15  1  0
 15 16  2  0
 16 17  1  0
 17 18  2  0
 18 19  1  0
 19 20  1  0
 20 21  2  0
 21 22  1  0
 22 23  2  0
 23 24  1  0
 24 25  1  0
 25 26  1  0
 26 27  1  0
 27 28  1  0
 23 29  1  0
 29 30  2  0
 19 31  2  0
 10  2  1  0
 31 15  1  0
 30 20  1  0
 28 24  1  0
  1 32  1  0
  1 33  1  0
  1 34  1  0
  3 35  1  0
  4 36  1  0
  9 37  1  0
 14 38  1  0
 16 39  1  0
 17 40  1  0
 18 41  1  0
 21 42  1  0
 22 43  1  0
 25 44  1  0
 25 45  1  0
 26 46  1  0
 26 47  1  0
 27 48  1  0
 27 49  1  0
 28 50  1  0
 28 51  1  0
 31 52  1  0
M  CHG  2   6   1   8  -1
M  END
$$$$
