
     RDKit          3D

 47 50  0  0  0  0  0  0  0  0999 V2000
   -1.0300    5.3400   -4.5474 C   0  0  0  0  0  0  0  0  0  0  0  0
   -0.5050    4.8795   -3.2181 C   0  0  0  0  0  0  0  0  0  0  0  0
   -0.6166    5.7052   -2.0944 C   0  0  0  0  0  0  0  0  0  0  0  0
   -0.1099    5.3189   -0.8488 C   0  0  0  0  0  0  0  0  0  0  0  0
    0.5263    4.0768   -0.7641 C   0  0  0  0  0  0  0  0  0  0  0  0
    1.1108    3.4525    0.3188 N   0  0  0  0  0  0  0  0  0  0  0  0
    1.6153    2.2449   -0.0687 C   0  0  0  0  0  0  0  0  0  0  0  0
    2.3018    1.2747    0.7305 C   0  0  0  0  0  0  0  0  0  0  0  0
    2.5093    1.4296    1.9288 O   0  0  0  0  0  0  0  0  0  0  0  0
    2.6954    0.1420   -0.0083 N   0  0  0  0  0  0  0  0  0  0  0  0
    3.4014   -0.9357    0.6812 C   0  0  0  0  0  0  0  0  0  0  0  0
    2.4393   -1.9764    1.2547 C   0  0  0  0  0  0  0  0  0  0  0  0
    2.7694   -2.7487    2.1525 O   0  0  0  0  0  0  0  0  0  0  0  0
    1.2257   -2.0649    0.6070 N   0  0  0  0  0  0  0  0  0  0  0  0
    0.2122   -3.0310    0.9732 C   0  0  0  0  0  0  0  0  0  0  0  0
   -0.5531   -2.6143    2.2311 C   0  0  0  0  0  0  0  0  0  0  0  0
   -1.6305   -3.6098    2.5849 C   0  0  0  0  0  0  0  0  0  0  0  0
   -2.9478   -3.4231    2.1438 C   0  0  0  0  0  0  0  0  0  0  0  0
   -3.9367   -4.3577    2.4592 C   0  0  0  0  0  0  0  0  0  0  0  0
   -3.6112   -5.4834    3.2131 C   0  0  0  0  0  0  0  0  0  0  0  0
   -4.8306   -6.6345    3.5993 Cl  0  0  0  0  0  0  0  0  0  0  0  0
   -2.3053   -5.6837    3.6540 C   0  0  0  0  0  0  0  0  0  0  0  0
   -1.3164   -4.7494    3.3392 C   0  0  0  0  0  0  0  0  0  0  0  0
    2.4151   -0.0586   -1.3763 N   0  0  0  0  0  0  0  0  0  0  0  0
    1.7953    0.8711   -2.0482 C   0  0  0  0  0  0  0  0  0  0  0  0
    1.3616    2.0791   -1.4068 C   0  0  0  0  0  0  0  0  0  0  0  0
    0.6711    3.2285   -1.8678 C   0  0  0  0  0  0  0  0  0  0  0  0
    0.1521    3.6417   -3.1118 C   0  0  0  0  0  0  0  0  0  0  0  0
   -0.2549    5.8969   -5.0827 H   0  0  0  0  0  0  0  0  0  0  0  0
   -1.9059    5.9848   -4.4195 H   0  0  0  0  0  0  0  0  0  0  0  0
   -1.3418    4.4879   -5.1606 H   0  0  0  0  0  0  0  0  0  0  0  0
   -1.1080    6.6732   -2.1793 H   0  0  0  0  0  0  0  0  0  0  0  0
   -0.2083    5.9684    0.0153 H   0  0  0  0  0  0  0  0  0  0  0  0
    1.1634    3.8274    1.2577 H   0  0  0  0  0  0  0  0  0  0  0  0
    4.0750   -1.4302   -0.0262 H   0  0  0  0  0  0  0  0  0  0  0  0
    3.9899   -0.5200    1.5054 H   0  0  0  0  0  0  0  0  0  0  0  0
    1.0895   -1.4577   -0.1973 H   0  0  0  0  0  0  0  0  0  0  0  0
   -0.4675   -3.1221    0.1186 H   0  0  0  0  0  0  0  0  0  0  0  0
    0.6967   -4.0035    1.1193 H   0  0  0  0  0  0  0  0  0  0  0  0
    0.1315   -2.5040    3.0816 H   0  0  0  0  0  0  0  0  0  0  0  0
   -0.9992   -1.6217    2.0856 H   0  0  0  0  0  0  0  0  0  0  0  0
   -3.2131   -2.5481    1.5544 H   0  0  0  0  0  0  0  0  0  0  0  0
   -4.9555   -4.2019    2.1153 H   0  0  0  0  0  0  0  0  0  0  0  0
   -2.0495   -6.5613    4.2413 H   0  0  0  0  0  0  0  0  0  0  0  0
   -0.2973   -4.9136    3.6863 H   0  0  0  0  0  0  0  0  0  0  0  0
    1.5870    0.7270   -3.1201 H   0  0  0  0  0  0  0  0  0  0  0  0
    0.2592    3.0051   -3.9858 H   0  0  0  0  0  0  0  0  0  0  0  0
  1  2  1  0
  2  3  2  0
  3  4  1  0
  4  5  2  0
  5  6  1  0
  6  7  1  0
  7  8  1  0
  8  9  2  0
  8 10  1  0
 10 11  1  0
 11 12  1  0
 12 13  2  0
 12 14  1  0
 14 15  1  0
 15 16  1  0
 16 17  1  0
 17 18  2  0
 18 19  1  0
 19 20  2  0
 20 21  1  0
 20 22  1  0
 22 23  2  0
 10 24  1  0
 24 25  2  0
 25 26  1  0
 26 27  1  0
 27 28  2  0
 28  2  1  0
 27  5  1  0
 26  7  2  0
 23 17  1  0
  1 29  1  0
  1 30  1  0
  1 31  1  0
  3 32  1  0
  4 33  1  0
  6 34  1  0
 11 35  1  0
 11 36  1  0
 14 37  1  0
 15 38  1  0
 15 39  1  0
 16 40  1  0
 16 41  1  0
 18 42  1  0
 19 43  1  0
 22 44  1  0
 23 45  1  0
 25 46  1  0
 28 47  1  0
M  END
$$$$
