
     RDKit          3D

 36 37  0  0  0  0  0  0  0  0999 V2000
    3.1693   -2.4702   -1.0384 C   0  0  0  0  0  0  0  0  0  0  0  0
    3.9573   -1.2603   -1.1739 N   0  0  0  0  0  0  0  0  0  0  0  0
    3.7892   -0.1105   -0.4534 C   0  0  0  0  0  0  0  0  0  0  0  0
    5.1574    0.8167   -0.1814 S   0  0  0  0  0  0  0  0  0  0  0  0
    2.5060    0.1770   -0.0144 N   0  0  0  0  0  0  0  0  0  0  0  0
    2.2808    1.0805    1.1188 C   0  0  0  0  0  0  0  0  0  0  0  0
    0.9800    0.7329    1.8417 C   0  0  0  0  0  0  0  0  0  0  0  0
   -0.1797    0.5676    0.8924 C   0  0  0  0  0  0  0  0  0  0  0  0
   -1.4944    0.6187    1.3805 C   0  0  0  0  0  0  0  0  0  0  0  0
   -2.5845    0.4337    0.5231 C   0  0  0  0  0  0  0  0  0  0  0  0
   -3.8991    0.4734    0.9187 O   0  0  0  0  0  0  0  0  0  0  0  0
   -4.1689    0.7285    2.2891 C   0  0  0  0  0  0  0  0  0  0  0  0
   -2.3577    0.1866   -0.8443 C   0  0  0  0  0  0  0  0  0  0  0  0
   -3.4782    0.0208   -1.6208 O   0  0  0  0  0  0  0  0  0  0  0  0
   -3.2933   -0.2144   -3.0087 C   0  0  0  0  0  0  0  0  0  0  0  0
   -1.0450    0.1233   -1.3262 C   0  0  0  0  0  0  0  0  0  0  0  0
    0.0510    0.2993   -0.4649 C   0  0  0  0  0  0  0  0  0  0  0  0
    1.4517    0.2520   -1.0321 C   0  0  0  0  0  0  0  0  0  0  0  0
    2.7341   -2.7077   -2.0119 H   0  0  0  0  0  0  0  0  0  0  0  0
    2.3882   -2.3704   -0.2817 H   0  0  0  0  0  0  0  0  0  0  0  0
    3.8444   -3.2787   -0.7446 H   0  0  0  0  0  0  0  0  0  0  0  0
    4.9165   -1.3962   -1.4737 H   0  0  0  0  0  0  0  0  0  0  0  0
    3.1069    1.0074    1.8342 H   0  0  0  0  0  0  0  0  0  0  0  0
    2.2567    2.1088    0.7355 H   0  0  0  0  0  0  0  0  0  0  0  0
    0.7609    1.5154    2.5774 H   0  0  0  0  0  0  0  0  0  0  0  0
    1.1067   -0.2133    2.3828 H   0  0  0  0  0  0  0  0  0  0  0  0
   -1.6400    0.8040    2.4399 H   0  0  0  0  0  0  0  0  0  0  0  0
   -3.7583   -0.0616    2.9264 H   0  0  0  0  0  0  0  0  0  0  0  0
   -5.2552    0.7299    2.4215 H   0  0  0  0  0  0  0  0  0  0  0  0
   -3.7971    1.7138    2.5889 H   0  0  0  0  0  0  0  0  0  0  0  0
   -2.7526   -1.1506   -3.1821 H   0  0  0  0  0  0  0  0  0  0  0  0
   -4.2826   -0.3134   -3.4660 H   0  0  0  0  0  0  0  0  0  0  0  0
   -2.7887    0.6302   -3.4892 H   0  0  0  0  0  0  0  0  0  0  0  0
   -0.8449   -0.0640   -2.3765 H   0  0  0  0  0  0  0  0  0  0  0  0
    1.6266    1.1721   -1.6054 H   0  0  0  0  0  0  0  0  0  0  0  0
    1.5364   -0.5812   -1.7348 H   0  0  0  0  0  0  0  0  0  0  0  0
  1  2  1  0
  2  3  1  0
  3  4  2  0
  3  5  1  0
  5  6  1  0
  6  7  1  0
  7  8  1  0
  8  9  2  0
  9 10  1  0
 10 11  1  0
 11 12  1  0
 10 13  2  0
 13 14  1  0
 14 15  1  0
 13 16  1  0
 16 17  2  0
 17 18  1  0
 18  5  1  0
 17  8  1  0
  1 19  1  0
  1 20  1  0
  1 21  1  0
  2 22  1  0
  6 23  1  0
  6 24  1  0
  7 25  1  0
  7 26  1  0
  9 27  1  0
 12 28  1  0
 12 29  1  0
 12 30  1  0
 15 31  1  0
 15 32  1  0
 15 33  1  0
 16 34  1  0
 18 35  1  0
 18 36  1  0
M  END
$$$$
