
     RDKit          3D

 47 49  0  0  0  0  0  0  0  0999 V2000
    2.4157   -0.3662   -1.6940 O   0  0  0  0  0  0  0  0  0  0  0  0
    1.8606   -0.6578   -0.6386 C   0  0  0  0  0  0  0  0  0  0  0  0
    2.5387   -0.3802    0.6915 C   0  0  0  0  0  0  0  0  0  0  0  0
    1.7742    0.5766    1.6008 C   0  0  0  0  0  0  0  0  0  0  0  0
    1.4155    2.2094    0.8614 S   0  0  0  0  0  0  0  0  0  0  0  0
    3.0704    2.8568    0.7380 C   0  0  0  0  0  0  0  0  0  0  0  0
    3.7170    3.3758    1.8634 C   0  0  0  0  0  0  0  0  0  0  0  0
    5.0139    3.8829    1.7568 C   0  0  0  0  0  0  0  0  0  0  0  0
    5.6665    3.8764    0.5246 C   0  0  0  0  0  0  0  0  0  0  0  0
    5.0225    3.3670   -0.6020 C   0  0  0  0  0  0  0  0  0  0  0  0
    3.7251    2.8621   -0.4968 C   0  0  0  0  0  0  0  0  0  0  0  0
    0.6280   -1.2618   -0.5022 N   0  0  0  0  0  0  0  0  0  0  0  0
   -0.2542   -1.7037   -1.5187 C   0  0  0  0  0  0  0  0  0  0  0  0
    0.0901   -1.7064   -2.8737 C   0  0  0  0  0  0  0  0  0  0  0  0
   -0.7891   -2.2207   -3.8340 C   0  0  0  0  0  0  0  0  0  0  0  0
   -2.0205   -2.7484   -3.4542 C   0  0  0  0  0  0  0  0  0  0  0  0
   -2.3901   -2.7389   -2.1117 C   0  0  0  0  0  0  0  0  0  0  0  0
   -1.5291   -2.1873   -1.1522 C   0  0  0  0  0  0  0  0  0  0  0  0
   -1.9578   -2.1414    0.2685 C   0  0  0  0  0  0  0  0  0  0  0  0
   -1.1853   -2.5886    1.1165 O   0  0  0  0  0  0  0  0  0  0  0  0
   -3.1599   -1.5346    0.5925 N   0  0  0  0  0  0  0  0  0  0  0  0
   -3.9446   -0.6448   -0.2572 C   0  0  0  0  0  0  0  0  0  0  0  0
   -5.0980   -0.1941    0.6281 C   0  0  0  0  0  0  0  0  0  0  0  0
   -4.4767   -0.1918    2.0168 C   0  0  0  0  0  0  0  0  0  0  0  0
   -3.5651   -1.4101    1.9847 C   0  0  0  0  0  0  0  0  0  0  0  0
    2.6687   -1.3413    1.2048 H   0  0  0  0  0  0  0  0  0  0  0  0
    3.5496   -0.0056    0.4942 H   0  0  0  0  0  0  0  0  0  0  0  0
    2.3313    0.7236    2.5325 H   0  0  0  0  0  0  0  0  0  0  0  0
    0.8094    0.1416    1.8818 H   0  0  0  0  0  0  0  0  0  0  0  0
    3.2160    3.3952    2.8277 H   0  0  0  0  0  0  0  0  0  0  0  0
    5.5131    4.2861    2.6339 H   0  0  0  0  0  0  0  0  0  0  0  0
    6.6759    4.2710    0.4409 H   0  0  0  0  0  0  0  0  0  0  0  0
    5.5280    3.3609   -1.5643 H   0  0  0  0  0  0  0  0  0  0  0  0
    3.2355    2.4625   -1.3831 H   0  0  0  0  0  0  0  0  0  0  0  0
    0.3166   -1.4788    0.4445 H   0  0  0  0  0  0  0  0  0  0  0  0
    1.0514   -1.3370   -3.2179 H   0  0  0  0  0  0  0  0  0  0  0  0
   -0.4951   -2.2240   -4.8815 H   0  0  0  0  0  0  0  0  0  0  0  0
   -2.6871   -3.1684   -4.2032 H   0  0  0  0  0  0  0  0  0  0  0  0
   -3.3437   -3.1674   -1.8144 H   0  0  0  0  0  0  0  0  0  0  0  0
   -3.3082    0.1979   -0.5489 H   0  0  0  0  0  0  0  0  0  0  0  0
   -4.3036   -1.1523   -1.1540 H   0  0  0  0  0  0  0  0  0  0  0  0
   -5.9123   -0.9277    0.5879 H   0  0  0  0  0  0  0  0  0  0  0  0
   -5.4981    0.7803    0.3352 H   0  0  0  0  0  0  0  0  0  0  0  0
   -3.8808    0.7188    2.1536 H   0  0  0  0  0  0  0  0  0  0  0  0
   -5.2180   -0.2406    2.8190 H   0  0  0  0  0  0  0  0  0  0  0  0
   -2.7054   -1.3029    2.6530 H   0  0  0  0  0  0  0  0  0  0  0  0
   -4.1110   -2.3220    2.2499 H   0  0  0  0  0  0  0  0  0  0  0  0
  1  2  2  0
  2  3  1  0
  3  4  1  0
  4  5  1  0
  5  6  1  0
  6  7  2  0
  7  8  1  0
  8  9  2  0
  9 10  1  0
 10 11  2  0
  2 12  1  0
 12 13  1  0
 13 14  2  0
 14 15  1  0
 15 16  2  0
 16 17  1  0
 17 18  2  0
 18 19  1  0
 19 20  2  0
 19 21  1  0
 21 22  1  0
 22 23  1  0
 23 24  1  0
 24 25  1  0
 11  6  1  0
 18 13  1  0
 25 21  1  0
  3 26  1  0
  3 27  1  0
  4 28  1  0
  4 29  1  0
  7 30  1  0
  8 31  1  0
  9 32  1  0
 10 33  1  0
 11 34  1  0
 12 35  1  0
 14 36  1  0
 15 37  1  0
 16 38  1  0
 17 39  1  0
 22 40  1  0
 22 41  1  0
 23 42  1  0
 23 43  1  0
 24 44  1  0
 24 45  1  0
 25 46  1  0
 25 47  1  0
M  END
$$$$
