
     RDKit          3D

 57 59  0  0  0  0  0  0  0  0999 V2000
    0.6548    0.0651    4.5863 C   0  0  0  0  0  0  0  0  0  0  0  0
    0.7330    0.3296    3.1900 O   0  0  0  0  0  0  0  0  0  0  0  0
   -0.4347    0.6942    2.5579 C   0  0  0  0  0  0  0  0  0  0  0  0
   -1.6740    0.8385    3.1898 C   0  0  0  0  0  0  0  0  0  0  0  0
   -2.7964    1.2121    2.4488 C   0  0  0  0  0  0  0  0  0  0  0  0
   -2.6753    1.4458    1.0767 C   0  0  0  0  0  0  0  0  0  0  0  0
   -4.1069    1.9704    0.1639 S   0  0  0  0  0  6  0  0  0  0  0  0
   -3.6822    2.5110   -1.1092 O   0  0  0  0  0  0  0  0  0  0  0  0
   -4.9202    2.7563    1.0697 O   0  0  0  0  0  0  0  0  0  0  0  0
   -4.9271    0.4928   -0.1399 N   0  0  0  0  0  0  0  0  0  0  0  0
   -4.2008   -0.4432   -1.0489 C   0  0  0  0  0  0  0  0  0  0  0  0
   -4.9087   -1.7962   -1.0574 C   0  0  0  0  0  0  0  0  0  0  0  0
   -6.3688   -1.6557   -1.4746 C   0  0  0  0  0  0  0  0  0  0  0  0
   -7.0777   -0.6202   -0.6080 C   0  0  0  0  0  0  0  0  0  0  0  0
   -6.3283    0.7093   -0.6070 C   0  0  0  0  0  0  0  0  0  0  0  0
   -1.4410    1.3217    0.4337 C   0  0  0  0  0  0  0  0  0  0  0  0
   -0.3217    0.9246    1.1670 C   0  0  0  0  0  0  0  0  0  0  0  0
    0.9575    0.7452    0.5939 N   0  0  0  0  0  0  0  0  0  0  0  0
    1.2871    0.7213   -0.7455 C   0  0  0  0  0  0  0  0  0  0  0  0
    0.5063    0.7734   -1.6878 O   0  0  0  0  0  0  0  0  0  0  0  0
    2.7414    0.5597   -1.0316 C   0  0  0  0  0  0  0  0  0  0  0  0
    3.1240   -0.1429   -2.1787 C   0  0  0  0  0  0  0  0  0  0  0  0
    4.4767   -0.3093   -2.4848 C   0  0  0  0  0  0  0  0  0  0  0  0
    5.4683    0.2286   -1.6516 C   0  0  0  0  0  0  0  0  0  0  0  0
    6.9283    0.0593   -1.9826 C   0  0  0  0  0  0  0  0  0  0  0  0
    7.4804   -1.6172   -1.6733 S   0  0  0  0  0  6  0  0  0  0  0  0
    6.9519   -1.9863   -0.0148 C   0  0  0  0  0  0  0  0  0  0  0  0
    6.7869   -2.5213   -2.5727 O   0  0  0  0  0  0  0  0  0  0  0  0
    8.9332   -1.5889   -1.6539 O   0  0  0  0  0  0  0  0  0  0  0  0
    5.0775    0.9554   -0.5159 C   0  0  0  0  0  0  0  0  0  0  0  0
    3.7237    1.1217   -0.2069 C   0  0  0  0  0  0  0  0  0  0  0  0
   -0.0160   -0.7755    4.7919 H   0  0  0  0  0  0  0  0  0  0  0  0
    1.6553   -0.2170    4.9282 H   0  0  0  0  0  0  0  0  0  0  0  0
    0.3539    0.9599    5.1409 H   0  0  0  0  0  0  0  0  0  0  0  0
   -1.8029    0.6706    4.2539 H   0  0  0  0  0  0  0  0  0  0  0  0
   -3.7591    1.3268    2.9438 H   0  0  0  0  0  0  0  0  0  0  0  0
   -4.1591   -0.0304   -2.0636 H   0  0  0  0  0  0  0  0  0  0  0  0
   -3.1781   -0.6028   -0.6984 H   0  0  0  0  0  0  0  0  0  0  0  0
   -4.8599   -2.2413   -0.0555 H   0  0  0  0  0  0  0  0  0  0  0  0
   -4.3929   -2.4806   -1.7402 H   0  0  0  0  0  0  0  0  0  0  0  0
   -6.4231   -1.3531   -2.5275 H   0  0  0  0  0  0  0  0  0  0  0  0
   -6.8758   -2.6231   -1.3905 H   0  0  0  0  0  0  0  0  0  0  0  0
   -7.1529   -0.9986    0.4191 H   0  0  0  0  0  0  0  0  0  0  0  0
   -8.0999   -0.4700   -0.9728 H   0  0  0  0  0  0  0  0  0  0  0  0
   -6.8505    1.3936    0.0693 H   0  0  0  0  0  0  0  0  0  0  0  0
   -6.3267    1.1493   -1.6111 H   0  0  0  0  0  0  0  0  0  0  0  0
   -1.3723    1.5404   -0.6280 H   0  0  0  0  0  0  0  0  0  0  0  0
    1.6685    0.4910    1.2718 H   0  0  0  0  0  0  0  0  0  0  0  0
    2.3676   -0.5633   -2.8399 H   0  0  0  0  0  0  0  0  0  0  0  0
    4.7462   -0.8645   -3.3839 H   0  0  0  0  0  0  0  0  0  0  0  0
    7.5544    0.7232   -1.3773 H   0  0  0  0  0  0  0  0  0  0  0  0
    7.1177    0.2842   -3.0373 H   0  0  0  0  0  0  0  0  0  0  0  0
    7.3728   -2.9556    0.2629 H   0  0  0  0  0  0  0  0  0  0  0  0
    5.8629   -2.0405    0.0188 H   0  0  0  0  0  0  0  0  0  0  0  0
    7.3300   -1.2133    0.6566 H   0  0  0  0  0  0  0  0  0  0  0  0
    5.8220    1.4151    0.1323 H   0  0  0  0  0  0  0  0  0  0  0  0
    3.4511    1.7203    0.6588 H   0  0  0  0  0  0  0  0  0  0  0  0
  1  2  1  0
  2  3  1  0
  3  4  2  0
  4  5  1  0
  5  6  2  0
  6  7  1  0
  7  8  2  0
  7  9  2  0
  7 10  1  0
 10 11  1  0
 11 12  1  0
 12 13  1  0
 13 14  1  0
 14 15  1  0
  6 16  1  0
 16 17  2  0
 17 18  1  0
 18 19  1  0
 19 20  2  0
 19 21  1  0
 21 22  2  0
 22 23  1  0
 23 24  2  0
 24 25  1  0
 25 26  1  0
 26 27  1  0
 26 28  2  0
 26 29  2  0
 24 30  1  0
 30 31  2  0
 17  3  1  0
 31 21  1  0
 15 10  1  0
  1 32  1  0
  1 33  1  0
  1 34  1  0
  4 35  1  0
  5 36  1  0
 11 37  1  0
 11 38  1  0
 12 39  1  0
 12 40  1  0
 13 41  1  0
 13 42  1  0
 14 43  1  0
 14 44  1  0
 15 45  1  0
 15 46  1  0
 16 47  1  0
 18 48  1  0
 22 49  1  0
 23 50  1  0
 25 51  1  0
 25 52  1  0
 27 53  1  0
 27 54  1  0
 27 55  1  0
 30 56  1  0
 31 57  1  0
M  END
$$$$
