
     RDKit          3D

 37 38  0  0  0  0  0  0  0  0999 V2000
    7.0048   -0.8508   -1.0329 C   0  0  0  0  0  0  0  0  0  0  0  0
    6.1136    0.2406   -1.2238 O   0  0  0  0  0  0  0  0  0  0  0  0
    4.9001    0.1689   -0.5993 C   0  0  0  0  0  0  0  0  0  0  0  0
    4.4577   -0.8693    0.2209 C   0  0  0  0  0  0  0  0  0  0  0  0
    3.1833   -0.8188    0.8035 C   0  0  0  0  0  0  0  0  0  0  0  0
    2.3401    0.2728    0.5659 C   0  0  0  0  0  0  0  0  0  0  0  0
    0.9766    0.3759    1.1644 C   0  0  0  0  0  0  0  0  0  0  0  0
    0.3684    1.4436    1.1108 O   0  0  0  0  0  0  0  0  0  0  0  0
    0.3864   -0.8292    1.8492 C   0  0  0  0  0  0  0  0  0  0  0  0
   -1.0901   -0.6870    2.0774 C   0  0  0  0  0  0  0  0  0  0  0  0
   -1.6265   -0.7102    3.1817 O   0  0  0  0  0  0  0  0  0  0  0  0
   -1.9611   -0.5464    0.8291 C   0  0  0  0  0  0  0  0  0  0  0  0
   -1.5012   -0.8959   -0.2468 O   0  0  0  0  0  0  0  0  0  0  0  0
   -3.2116   -0.0488    1.1268 N   0  0  0  0  0  0  0  0  0  0  0  0
   -4.2669    0.2166    0.2388 C   0  0  0  0  0  0  0  0  0  0  0  0
   -4.1820    0.0332   -1.1435 C   0  0  0  0  0  0  0  0  0  0  0  0
   -5.2785    0.3209   -1.9646 C   0  0  0  0  0  0  0  0  0  0  0  0
   -6.4620    0.7937   -1.4047 C   0  0  0  0  0  0  0  0  0  0  0  0
   -7.8084    1.1460   -2.4151 Cl  0  0  0  0  0  0  0  0  0  0  0  0
   -6.5592    0.9830   -0.0293 C   0  0  0  0  0  0  0  0  0  0  0  0
   -5.4629    0.6953    0.7896 C   0  0  0  0  0  0  0  0  0  0  0  0
    2.7888    1.3154   -0.2523 C   0  0  0  0  0  0  0  0  0  0  0  0
    4.0597    1.2596   -0.8303 C   0  0  0  0  0  0  0  0  0  0  0  0
    6.5779   -1.7816   -1.4207 H   0  0  0  0  0  0  0  0  0  0  0  0
    7.9168   -0.6410   -1.6000 H   0  0  0  0  0  0  0  0  0  0  0  0
    7.2838   -0.9522    0.0211 H   0  0  0  0  0  0  0  0  0  0  0  0
    5.0808   -1.7331    0.4307 H   0  0  0  0  0  0  0  0  0  0  0  0
    2.8841   -1.6432    1.4440 H   0  0  0  0  0  0  0  0  0  0  0  0
    0.5457   -1.7354    1.2567 H   0  0  0  0  0  0  0  0  0  0  0  0
    0.8737   -0.9490    2.8227 H   0  0  0  0  0  0  0  0  0  0  0  0
   -3.3718    0.1246    2.1168 H   0  0  0  0  0  0  0  0  0  0  0  0
   -3.2746   -0.3288   -1.6174 H   0  0  0  0  0  0  0  0  0  0  0  0
   -5.1961    0.1739   -3.0384 H   0  0  0  0  0  0  0  0  0  0  0  0
   -7.4804    1.3535    0.4122 H   0  0  0  0  0  0  0  0  0  0  0  0
   -5.5589    0.8511    1.8615 H   0  0  0  0  0  0  0  0  0  0  0  0
    2.1532    2.1771   -0.4491 H   0  0  0  0  0  0  0  0  0  0  0  0
    4.3964    2.0750   -1.4668 H   0  0  0  0  0  0  0  0  0  0  0  0
  1  2  1  0
  2  3  1  0
  3  4  2  0
  4  5  1  0
  5  6  2  0
  6  7  1  0
  7  8  2  0
  7  9  1  0
  9 10  1  0
 10 11  2  0
 10 12  1  0
 12 13  2  0
 12 14  1  0
 14 15  1  0
 15 16  2  0
 16 17  1  0
 17 18  2  0
 18 19  1  0
 18 20  1  0
 20 21  2  0
  6 22  1  0
 22 23  2  0
 23  3  1  0
 21 15  1  0
  1 24  1  0
  1 25  1  0
  1 26  1  0
  4 27  1  0
  5 28  1  0
  9 29  1  0
  9 30  1  0
 14 31  1  0
 16 32  1  0
 17 33  1  0
 20 34  1  0
 21 35  1  0
 22 36  1  0
 23 37  1  0
M  END
$$$$
