
     RDKit          3D

 47 49  0  0  0  0  0  0  0  0999 V2000
    2.5150   -1.8094    1.5877 O   0  0  0  0  0  0  0  0  0  0  0  0
    2.1119   -1.5923    0.4514 C   0  0  0  0  0  0  0  0  0  0  0  0
    0.7169   -1.9346   -0.0185 C   0  0  0  0  0  0  0  0  0  0  0  0
   -0.1264   -2.4808    1.1305 C   0  0  0  0  0  0  0  0  0  0  0  0
   -1.4967   -2.7815    0.7027 N   0  0  0  0  0  0  0  0  0  0  0  0
   -2.4172   -1.7444    0.6709 C   0  0  0  0  0  0  0  0  0  0  0  0
   -2.1659   -0.5799    0.9457 O   0  0  0  0  0  0  0  0  0  0  0  0
   -3.7456   -2.2438    0.2142 C   0  0  0  0  0  0  0  0  0  0  0  0
   -4.8880   -1.5547    0.0813 C   0  0  0  0  0  0  0  0  0  0  0  0
   -5.0824   -0.1353    0.3850 C   0  0  0  0  0  0  0  0  0  0  0  0
   -5.3153    0.7668   -0.6618 C   0  0  0  0  0  0  0  0  0  0  0  0
   -5.5226    2.1202   -0.3882 C   0  0  0  0  0  0  0  0  0  0  0  0
   -5.5020    2.5646    0.9287 C   0  0  0  0  0  0  0  0  0  0  0  0
   -5.7020    3.8630    1.1896 F   0  0  0  0  0  0  0  0  0  0  0  0
   -5.2810    1.6814    1.9787 C   0  0  0  0  0  0  0  0  0  0  0  0
   -5.0741    0.3274    1.7079 C   0  0  0  0  0  0  0  0  0  0  0  0
   -3.6312   -3.9214   -0.1750 S   0  0  0  0  0  0  0  0  0  0  0  0
   -1.9276   -4.0093    0.2486 C   0  0  0  0  0  0  0  0  0  0  0  0
   -1.0452   -5.4139    0.0783 S   0  0  0  0  0  0  0  0  0  0  0  0
    2.8813   -1.0022   -0.5290 N   0  0  0  0  0  0  0  0  0  0  0  0
    4.2834   -0.6973   -0.3241 C   0  0  0  0  0  0  0  0  0  0  0  0
    4.5345    0.4564    0.6491 C   0  0  0  0  0  0  0  0  0  0  0  0
    3.7875    1.7467    0.3107 C   0  0  0  0  0  0  0  0  0  0  0  0
    4.0599    2.2474   -1.0193 N   0  0  0  0  0  0  0  0  0  0  0  0
    5.2359    2.7844   -1.4607 C   0  0  0  0  0  0  0  0  0  0  0  0
    5.0130    3.0805   -2.7855 C   0  0  0  0  0  0  0  0  0  0  0  0
    3.7340    2.7462   -3.1504 N   0  0  0  0  0  0  0  0  0  0  0  0
    3.1774    2.2677   -2.0609 C   0  0  0  0  0  0  0  0  0  0  0  0
    0.7916   -2.6737   -0.8240 H   0  0  0  0  0  0  0  0  0  0  0  0
    0.2568   -1.0305   -0.4339 H   0  0  0  0  0  0  0  0  0  0  0  0
   -0.1723   -1.7415    1.9403 H   0  0  0  0  0  0  0  0  0  0  0  0
    0.3362   -3.3780    1.5549 H   0  0  0  0  0  0  0  0  0  0  0  0
   -5.7822   -2.0502   -0.2930 H   0  0  0  0  0  0  0  0  0  0  0  0
   -5.3311    0.4257   -1.6944 H   0  0  0  0  0  0  0  0  0  0  0  0
   -5.6976    2.8288   -1.1912 H   0  0  0  0  0  0  0  0  0  0  0  0
   -5.2670    2.0513    2.9988 H   0  0  0  0  0  0  0  0  0  0  0  0
   -4.8982   -0.3571    2.5342 H   0  0  0  0  0  0  0  0  0  0  0  0
    2.5440   -1.0220   -1.4849 H   0  0  0  0  0  0  0  0  0  0  0  0
    4.7113   -0.4730   -1.3067 H   0  0  0  0  0  0  0  0  0  0  0  0
    4.7765   -1.6025    0.0487 H   0  0  0  0  0  0  0  0  0  0  0  0
    4.2509    0.1548    1.6642 H   0  0  0  0  0  0  0  0  0  0  0  0
    5.6137    0.6519    0.6776 H   0  0  0  0  0  0  0  0  0  0  0  0
    2.7047    1.6070    0.4064 H   0  0  0  0  0  0  0  0  0  0  0  0
    4.0726    2.5389    1.0130 H   0  0  0  0  0  0  0  0  0  0  0  0
    6.1031    2.9047   -0.8266 H   0  0  0  0  0  0  0  0  0  0  0  0
    5.7040    3.5176   -3.4948 H   0  0  0  0  0  0  0  0  0  0  0  0
    2.1555    1.9219   -1.9761 H   0  0  0  0  0  0  0  0  0  0  0  0
  1  2  2  0
  2  3  1  0
  3  4  1  0
  4  5  1  0
  5  6  1  0
  6  7  2  0
  6  8  1  0
  8  9  2  3
  9 10  1  0
 10 11  2  0
 11 12  1  0
 12 13  2  0
 13 14  1  0
 13 15  1  0
 15 16  2  0
  8 17  1  0
 17 18  1  0
 18 19  2  0
  2 20  1  0
 20 21  1  0
 21 22  1  0
 22 23  1  0
 23 24  1  0
 24 25  1  0
 25 26  2  0
 26 27  1  0
 27 28  2  0
 18  5  1  0
 28 24  1  0
 16 10  1  0
  3 29  1  0
  3 30  1  0
  4 31  1  0
  4 32  1  0
  9 33  1  0
 11 34  1  0
 12 35  1  0
 15 36  1  0
 16 37  1  0
 20 38  1  0
 21 39  1  0
 21 40  1  0
 22 41  1  0
 22 42  1  0
 23 43  1  0
 23 44  1  0
 25 45  1  0
 26 46  1  0
 28 47  1  0
M  END
$$$$
