
     RDKit          3D

 47 51  0  0  0  0  0  0  0  0999 V2000
   -5.6547   -2.7625    0.8554 C   0  0  0  0  0  0  0  0  0  0  0  0
   -5.3480   -1.3761    0.4189 C   0  0  0  0  0  0  0  0  0  0  0  0
   -4.0842   -0.8135    0.2846 C   0  0  0  0  0  0  0  0  0  0  0  0
   -2.7541   -1.3608    0.5114 C   0  0  0  0  0  0  0  0  0  0  0  0
   -2.5753   -2.5136    0.8900 O   0  0  0  0  0  0  0  0  0  0  0  0
   -1.7538   -0.4391    0.2516 N   0  0  0  0  0  0  0  0  0  0  0  0
   -0.3593   -0.6010    0.3565 C   0  0  0  0  0  0  0  0  0  0  0  0
    0.2558   -1.7834    0.7622 C   0  0  0  0  0  0  0  0  0  0  0  0
    1.6530   -1.8772    0.8453 C   0  0  0  0  0  0  0  0  0  0  0  0
    2.4537   -0.7680    0.5168 C   0  0  0  0  0  0  0  0  0  0  0  0
    3.8340   -0.7199    0.5529 N   0  0  0  0  0  0  0  0  0  0  0  0
    4.2847    0.4612    0.1884 C   0  0  0  0  0  0  0  0  0  0  0  0
    5.6120    0.7655    0.1426 N   0  0  0  0  0  0  0  0  0  0  0  0
    6.6028   -0.3029    0.3227 C   0  0  0  0  0  0  0  0  0  0  0  0
    7.7883   -0.0836   -0.6307 C   0  0  0  0  0  0  0  0  0  0  0  0
    8.4541    1.1772   -0.4614 O   0  0  0  0  0  0  0  0  0  0  0  0
    7.6081    2.2011    0.0795 C   0  0  0  0  0  0  0  0  0  0  0  0
    6.1289    2.0564   -0.3142 C   0  0  0  0  0  0  0  0  0  0  0  0
    3.0307    1.5838   -0.2222 S   0  0  0  0  0  0  0  0  0  0  0  0
    1.8285    0.4061    0.1135 C   0  0  0  0  0  0  0  0  0  0  0  0
    0.4284    0.5131    0.0261 C   0  0  0  0  0  0  0  0  0  0  0  0
   -4.1932    0.4868   -0.1396 O   0  0  0  0  0  0  0  0  0  0  0  0
   -5.5171    0.7590   -0.2775 C   0  0  0  0  0  0  0  0  0  0  0  0
   -6.0481    1.9786   -0.6917 C   0  0  0  0  0  0  0  0  0  0  0  0
   -7.4418    2.0589   -0.7703 C   0  0  0  0  0  0  0  0  0  0  0  0
   -8.2459    0.9638   -0.4466 C   0  0  0  0  0  0  0  0  0  0  0  0
   -7.6796   -0.2507   -0.0327 C   0  0  0  0  0  0  0  0  0  0  0  0
   -6.2780   -0.3544    0.0537 C   0  0  0  0  0  0  0  0  0  0  0  0
   -5.2670   -2.9415    1.8634 H   0  0  0  0  0  0  0  0  0  0  0  0
   -5.2010   -3.4884    0.1730 H   0  0  0  0  0  0  0  0  0  0  0  0
   -6.7326   -2.9499    0.8739 H   0  0  0  0  0  0  0  0  0  0  0  0
   -2.0935    0.4673   -0.0538 H   0  0  0  0  0  0  0  0  0  0  0  0
   -0.3179   -2.6667    1.0263 H   0  0  0  0  0  0  0  0  0  0  0  0
    2.1233   -2.8028    1.1629 H   0  0  0  0  0  0  0  0  0  0  0  0
    6.9514   -0.2815    1.3620 H   0  0  0  0  0  0  0  0  0  0  0  0
    6.1846   -1.2967    0.1256 H   0  0  0  0  0  0  0  0  0  0  0  0
    8.5360   -0.8705   -0.4899 H   0  0  0  0  0  0  0  0  0  0  0  0
    7.4497   -0.1376   -1.6722 H   0  0  0  0  0  0  0  0  0  0  0  0
    7.7159    2.1789    1.1705 H   0  0  0  0  0  0  0  0  0  0  0  0
    7.9966    3.1644   -0.2660 H   0  0  0  0  0  0  0  0  0  0  0  0
    6.0327    2.1165   -1.4049 H   0  0  0  0  0  0  0  0  0  0  0  0
    5.5755    2.8879    0.1358 H   0  0  0  0  0  0  0  0  0  0  0  0
   -0.0204    1.4485   -0.2933 H   0  0  0  0  0  0  0  0  0  0  0  0
   -5.4105    2.8183   -0.9391 H   0  0  0  0  0  0  0  0  0  0  0  0
   -7.9063    2.9900   -1.0889 H   0  0  0  0  0  0  0  0  0  0  0  0
   -9.3282    1.0523   -0.5161 H   0  0  0  0  0  0  0  0  0  0  0  0
   -8.3180   -1.0933    0.2156 H   0  0  0  0  0  0  0  0  0  0  0  0
  1  2  1  0
  2  3  2  0
  3  4  1  0
  4  5  2  0
  4  6  1  0
  6  7  1  0
  7  8  2  0
  8  9  1  0
  9 10  2  0
 10 11  1  0
 11 12  2  0
 12 13  1  0
 13 14  1  0
 14 15  1  0
 15 16  1  0
 16 17  1  0
 17 18  1  0
 12 19  1  0
 19 20  1  0
 20 21  2  0
  3 22  1  0
 22 23  1  0
 23 24  2  0
 24 25  1  0
 25 26  2  0
 26 27  1  0
 27 28  2  0
 28  2  1  0
 21  7  1  0
 28 23  1  0
 20 10  1  0
 18 13  1  0
  1 29  1  0
  1 30  1  0
  1 31  1  0
  6 32  1  0
  8 33  1  0
  9 34  1  0
 14 35  1  0
 14 36  1  0
 15 37  1  0
 15 38  1  0
 17 39  1  0
 17 40  1  0
 18 41  1  0
 18 42  1  0
 21 43  1  0
 24 44  1  0
 25 45  1  0
 26 46  1  0
 27 47  1  0
M  END
$$$$
