
     RDKit          3D

 36 38  0  0  0  0  0  0  0  0999 V2000
   -6.7777    1.1032    1.1249 C   0  0  0  0  0  0  0  0  0  0  0  0
   -5.6722    1.7826    0.5430 O   0  0  0  0  0  0  0  0  0  0  0  0
   -4.5199    1.0654    0.3818 C   0  0  0  0  0  0  0  0  0  0  0  0
   -4.3181   -0.2616    0.7561 C   0  0  0  0  0  0  0  0  0  0  0  0
   -3.0790   -0.8780    0.5318 C   0  0  0  0  0  0  0  0  0  0  0  0
   -2.0229   -0.1803   -0.0714 C   0  0  0  0  0  0  0  0  0  0  0  0
   -0.7149   -0.8099   -0.2933 C   0  0  0  0  0  0  0  0  0  0  0  0
   -0.4901   -2.1048   -0.5544 C   0  0  0  0  0  0  0  0  0  0  0  0
    0.9830   -2.2482   -0.6085 C   0  0  0  0  0  0  0  0  0  0  0  0
    1.5312   -3.3178   -0.8130 O   0  0  0  0  0  0  0  0  0  0  0  0
    1.5112   -0.9771   -0.3790 N   0  0  0  0  0  0  0  0  0  0  0  0
    2.8523   -0.5408   -0.3920 C   0  0  0  0  0  0  0  0  0  0  0  0
    3.9110   -1.4532   -0.5127 C   0  0  0  0  0  0  0  0  0  0  0  0
    5.2438   -1.0211   -0.5211 C   0  0  0  0  0  0  0  0  0  0  0  0
    5.5286    0.3428   -0.4098 C   0  0  0  0  0  0  0  0  0  0  0  0
    6.9228    0.8026   -0.4179 N   0  0  0  0  0  4  0  0  0  0  0  0
    7.8122   -0.0528   -0.5303 O   0  0  0  0  0  0  0  0  0  0  0  0
    7.1278    2.0201   -0.3088 O   0  0  0  0  0  1  0  0  0  0  0  0
    4.4902    1.2718   -0.2924 C   0  0  0  0  0  0  0  0  0  0  0  0
    3.1624    0.8263   -0.2846 C   0  0  0  0  0  0  0  0  0  0  0  0
    0.4551   -0.0636   -0.2219 N   0  0  0  0  0  0  0  0  0  0  0  0
   -2.2365    1.1545   -0.4394 C   0  0  0  0  0  0  0  0  0  0  0  0
   -3.4732    1.7680   -0.2158 C   0  0  0  0  0  0  0  0  0  0  0  0
   -7.0892    0.2542    0.5075 H   0  0  0  0  0  0  0  0  0  0  0  0
   -6.5514    0.7865    2.1484 H   0  0  0  0  0  0  0  0  0  0  0  0
   -7.6151    1.8060    1.1715 H   0  0  0  0  0  0  0  0  0  0  0  0
   -5.1001   -0.8476    1.2278 H   0  0  0  0  0  0  0  0  0  0  0  0
   -2.9532   -1.9112    0.8484 H   0  0  0  0  0  0  0  0  0  0  0  0
   -1.1737   -2.9234   -0.6749 H   0  0  0  0  0  0  0  0  0  0  0  0
    3.7260   -2.5217   -0.5992 H   0  0  0  0  0  0  0  0  0  0  0  0
    6.0365   -1.7610   -0.6158 H   0  0  0  0  0  0  0  0  0  0  0  0
    4.6910    2.3384   -0.2128 H   0  0  0  0  0  0  0  0  0  0  0  0
    2.3752    1.5729   -0.2131 H   0  0  0  0  0  0  0  0  0  0  0  0
    0.4968    0.4458    0.6628 H   0  0  0  0  0  0  0  0  0  0  0  0
   -1.4481    1.7296   -0.9208 H   0  0  0  0  0  0  0  0  0  0  0  0
   -3.6219    2.8030   -0.5152 H   0  0  0  0  0  0  0  0  0  0  0  0
  1  2  1  0
  2  3  1  0
  3  4  2  0
  4  5  1  0
  5  6  2  0
  6  7  1  0
  7  8  2  0
  8  9  1  0
  9 10  2  0
  9 11  1  0
 11 12  1  0
 12 13  2  0
 13 14  1  0
 14 15  2  0
 15 16  1  0
 16 17  2  0
 16 18  1  0
 15 19  1  0
 19 20  2  0
 11 21  1  0
  6 22  1  0
 22 23  2  0
 23  3  1  0
 21  7  1  0
 20 12  1  0
  1 24  1  0
  1 25  1  0
  1 26  1  0
  4 27  1  0
  5 28  1  0
  8 29  1  0
 13 30  1  0
 14 31  1  0
 19 32  1  0
 20 33  1  0
 21 34  1  0
 22 35  1  0
 23 36  1  0
M  CHG  2  16   1  18  -1
M  END
$$$$
