
     RDKit          3D

 48 51  0  0  0  0  0  0  0  0999 V2000
    6.8559   -0.0815    1.9212 O   0  0  0  0  0  0  0  0  0  0  0  0
    5.6447   -0.0121    1.1314 S   0  0  0  0  0  6  0  0  0  0  0  0
    5.3802    1.1206    0.2720 O   0  0  0  0  0  0  0  0  0  0  0  0
    4.3653   -0.2198    2.2143 N   0  0  0  0  0  0  0  0  0  0  0  0
    3.0493    0.0402    1.7491 C   0  0  0  0  0  0  0  0  0  0  0  0
    2.2629   -1.0159    1.3033 C   0  0  0  0  0  0  0  0  0  0  0  0
    0.9764   -0.7657    0.8148 C   0  0  0  0  0  0  0  0  0  0  0  0
    0.4524    0.5404    0.7526 C   0  0  0  0  0  0  0  0  0  0  0  0
   -0.9041    0.7815    0.2269 C   0  0  0  0  0  0  0  0  0  0  0  0
   -1.2857    1.9337   -0.4422 C   0  0  0  0  0  0  0  0  0  0  0  0
   -2.5998    2.0589   -0.9027 C   0  0  0  0  0  0  0  0  0  0  0  0
   -3.5236    1.0434   -0.6891 C   0  0  0  0  0  0  0  0  0  0  0  0
   -4.8299    1.1419   -1.1615 N   0  0  0  0  0  0  0  0  0  0  0  0
   -5.6596   -0.0643   -0.9943 C   0  0  0  0  0  0  0  0  0  0  0  0
   -7.0516    0.1906   -1.5934 C   0  0  0  0  0  0  0  0  0  0  0  0
   -7.7602    1.2805   -0.9807 O   0  0  0  0  0  0  0  0  0  0  0  0
   -6.9011    2.2110   -0.3086 C   0  0  0  0  0  0  0  0  0  0  0  0
   -5.5481    2.4201   -1.0109 C   0  0  0  0  0  0  0  0  0  0  0  0
   -3.1053   -0.0721   -0.0573 N   0  0  0  0  0  0  0  0  0  0  0  0
   -1.8046   -0.2048    0.4080 N   0  0  0  0  0  0  0  0  0  0  0  0
    1.2722    1.5870    1.2159 C   0  0  0  0  0  0  0  0  0  0  0  0
    2.5592    1.3414    1.7090 C   0  0  0  0  0  0  0  0  0  0  0  0
    5.5651   -1.4951    0.1578 C   0  0  0  0  0  0  0  0  0  0  0  0
    6.1627   -2.6656    0.6328 C   0  0  0  0  0  0  0  0  0  0  0  0
    6.1116   -3.8251   -0.1431 C   0  0  0  0  0  0  0  0  0  0  0  0
    5.4736   -3.8118   -1.3892 C   0  0  0  0  0  0  0  0  0  0  0  0
    5.4453   -5.2854   -2.2903 Cl  0  0  0  0  0  0  0  0  0  0  0  0
    4.8885   -2.6298   -1.8635 C   0  0  0  0  0  0  0  0  0  0  0  0
    4.0861   -2.5436   -3.3909 Cl  0  0  0  0  0  0  0  0  0  0  0  0
    4.9393   -1.4662   -1.0922 C   0  0  0  0  0  0  0  0  0  0  0  0
    4.6109    0.1235    3.1427 H   0  0  0  0  0  0  0  0  0  0  0  0
    2.6305   -2.0376    1.3392 H   0  0  0  0  0  0  0  0  0  0  0  0
    0.3753   -1.6087    0.4732 H   0  0  0  0  0  0  0  0  0  0  0  0
   -0.5776    2.7306   -0.6414 H   0  0  0  0  0  0  0  0  0  0  0  0
   -2.8778    2.9482   -1.4584 H   0  0  0  0  0  0  0  0  0  0  0  0
   -5.7630   -0.3089    0.0707 H   0  0  0  0  0  0  0  0  0  0  0  0
   -5.2022   -0.9169   -1.5100 H   0  0  0  0  0  0  0  0  0  0  0  0
   -6.9682    0.4167   -2.6629 H   0  0  0  0  0  0  0  0  0  0  0  0
   -7.6757   -0.7033   -1.4950 H   0  0  0  0  0  0  0  0  0  0  0  0
   -6.7499    1.8511    0.7161 H   0  0  0  0  0  0  0  0  0  0  0  0
   -7.4380    3.1627   -0.2412 H   0  0  0  0  0  0  0  0  0  0  0  0
   -4.9781    3.1604   -0.4382 H   0  0  0  0  0  0  0  0  0  0  0  0
   -5.7191    2.8264   -2.0145 H   0  0  0  0  0  0  0  0  0  0  0  0
    0.9158    2.6150    1.2107 H   0  0  0  0  0  0  0  0  0  0  0  0
    3.1714    2.1751    2.0432 H   0  0  0  0  0  0  0  0  0  0  0  0
    6.6661   -2.6819    1.5978 H   0  0  0  0  0  0  0  0  0  0  0  0
    6.5741   -4.7379    0.2271 H   0  0  0  0  0  0  0  0  0  0  0  0
    4.4882   -0.5467   -1.4606 H   0  0  0  0  0  0  0  0  0  0  0  0
  1  2  2  0
  2  3  2  0
  2  4  1  0
  4  5  1  0
  5  6  2  0
  6  7  1  0
  7  8  2  0
  8  9  1  0
  9 10  2  0
 10 11  1  0
 11 12  2  0
 12 13  1  0
 13 14  1  0
 14 15  1  0
 15 16  1  0
 16 17  1  0
 17 18  1  0
 12 19  1  0
 19 20  2  0
  8 21  1  0
 21 22  2  0
  2 23  1  0
 23 24  2  0
 24 25  1  0
 25 26  2  0
 26 27  1  0
 26 28  1  0
 28 29  1  0
 28 30  2  0
 22  5  1  0
 30 23  1  0
 20  9  1  0
 18 13  1  0
  4 31  1  0
  6 32  1  0
  7 33  1  0
 10 34  1  0
 11 35  1  0
 14 36  1  0
 14 37  1  0
 15 38  1  0
 15 39  1  0
 17 40  1  0
 17 41  1  0
 18 42  1  0
 18 43  1  0
 21 44  1  0
 22 45  1  0
 24 46  1  0
 25 47  1  0
 30 48  1  0
M  END
$$$$
