
     RDKit          3D

 50 53  0  0  0  0  0  0  0  0999 V2000
   -6.6024    3.6396   -3.5719 C   0  0  0  0  0  0  0  0  0  0  0  0
   -6.4274    2.6996   -2.4507 C   0  0  0  0  0  0  0  0  0  0  0  0
   -6.7686    2.7112   -1.1209 C   0  0  0  0  0  0  0  0  0  0  0  0
   -6.2941    1.4773   -0.6239 C   0  0  0  0  0  0  0  0  0  0  0  0
   -6.4130    1.0794    0.6947 N   0  0  0  0  0  0  0  0  0  0  0  0
   -5.9838   -0.4193    1.2836 S   0  0  0  0  0  6  0  0  0  0  0  0
   -6.2835   -0.3683    2.7026 O   0  0  0  0  0  0  0  0  0  0  0  0
   -6.5499   -1.4610    0.4558 O   0  0  0  0  0  0  0  0  0  0  0  0
   -4.2140   -0.4428    1.1330 C   0  0  0  0  0  0  0  0  0  0  0  0
   -3.6127   -1.1110    0.0666 C   0  0  0  0  0  0  0  0  0  0  0  0
   -2.2170   -1.1530   -0.0316 C   0  0  0  0  0  0  0  0  0  0  0  0
   -1.4176   -0.5466    0.9404 C   0  0  0  0  0  0  0  0  0  0  0  0
   -0.0074   -0.5465    0.9151 N   0  0  0  0  0  0  0  0  0  0  0  0
    0.8202   -1.0717   -0.0657 C   0  0  0  0  0  0  0  0  0  0  0  0
    0.4685   -1.6225   -1.1019 O   0  0  0  0  0  0  0  0  0  0  0  0
    2.2827   -0.8862    0.2861 C   0  0  0  0  0  0  0  0  0  0  0  0
    3.1904   -1.4157   -0.8175 C   0  0  0  0  0  0  0  0  0  0  0  0
    4.5931   -1.2421   -0.4803 N   0  0  0  0  0  0  0  0  0  0  0  0
    5.3607   -2.2008    0.1239 C   0  0  0  0  0  0  0  0  0  0  0  0
    5.0539   -3.3234    0.4783 O   0  0  0  0  0  0  0  0  0  0  0  0
    6.6805   -1.6071    0.3293 C   0  0  0  0  0  0  0  0  0  0  0  0
    7.8288   -2.1450    0.8770 C   0  0  0  0  0  0  0  0  0  0  0  0
    8.9463   -1.3085    0.9644 C   0  0  0  0  0  0  0  0  0  0  0  0
    8.8891    0.0273    0.5096 C   0  0  0  0  0  0  0  0  0  0  0  0
    7.7140    0.5476   -0.0420 C   0  0  0  0  0  0  0  0  0  0  0  0
    6.6250   -0.2989   -0.1189 C   0  0  0  0  0  0  0  0  0  0  0  0
    5.2710   -0.0608   -0.6164 C   0  0  0  0  0  0  0  0  0  0  0  0
    4.8690    1.0109   -1.0255 O   0  0  0  0  0  0  0  0  0  0  0  0
   -2.0358    0.0997    2.0213 C   0  0  0  0  0  0  0  0  0  0  0  0
   -3.4294    0.1516    2.1232 C   0  0  0  0  0  0  0  0  0  0  0  0
   -5.7003    0.7703   -1.5850 N   0  0  0  0  0  0  0  0  0  0  0  0
   -5.7828    1.5367   -2.7318 O   0  0  0  0  0  0  0  0  0  0  0  0
   -7.1750    4.5198   -3.2617 H   0  0  0  0  0  0  0  0  0  0  0  0
   -7.1377    3.1591   -4.3967 H   0  0  0  0  0  0  0  0  0  0  0  0
   -5.6304    3.9795   -3.9423 H   0  0  0  0  0  0  0  0  0  0  0  0
   -7.2849    3.4981   -0.5935 H   0  0  0  0  0  0  0  0  0  0  0  0
   -6.8465    1.6877    1.3812 H   0  0  0  0  0  0  0  0  0  0  0  0
   -4.2170   -1.5932   -0.7001 H   0  0  0  0  0  0  0  0  0  0  0  0
   -1.7889   -1.6754   -0.8817 H   0  0  0  0  0  0  0  0  0  0  0  0
    0.4481   -0.0884    1.6944 H   0  0  0  0  0  0  0  0  0  0  0  0
    2.4858   -1.4122    1.2260 H   0  0  0  0  0  0  0  0  0  0  0  0
    2.4703    0.1815    0.4494 H   0  0  0  0  0  0  0  0  0  0  0  0
    2.9964   -0.8833   -1.7546 H   0  0  0  0  0  0  0  0  0  0  0  0
    3.0015   -2.4805   -0.9856 H   0  0  0  0  0  0  0  0  0  0  0  0
    7.8568   -3.1728    1.2235 H   0  0  0  0  0  0  0  0  0  0  0  0
    9.8721   -1.6884    1.3924 H   0  0  0  0  0  0  0  0  0  0  0  0
    9.7718    0.6593    0.5927 H   0  0  0  0  0  0  0  0  0  0  0  0
    7.6556    1.5735   -0.3910 H   0  0  0  0  0  0  0  0  0  0  0  0
   -1.4421    0.5699    2.8015 H   0  0  0  0  0  0  0  0  0  0  0  0
   -3.8892    0.6458    2.9752 H   0  0  0  0  0  0  0  0  0  0  0  0
  1  2  1  0
  2  3  2  0
  3  4  1  0
  4  5  1  0
  5  6  1  0
  6  7  2  0
  6  8  2  0
  6  9  1  0
  9 10  2  0
 10 11  1  0
 11 12  2  0
 12 13  1  0
 13 14  1  0
 14 15  2  0
 14 16  1  0
 16 17  1  0
 17 18  1  0
 18 19  1  0
 19 20  2  0
 19 21  1  0
 21 22  2  0
 22 23  1  0
 23 24  2  0
 24 25  1  0
 25 26  2  0
 26 27  1  0
 27 28  2  0
 12 29  1  0
 29 30  2  0
  4 31  2  0
 31 32  1  0
 32  2  1  0
 30  9  1  0
 27 18  1  0
 26 21  1  0
  1 33  1  0
  1 34  1  0
  1 35  1  0
  3 36  1  0
  5 37  1  0
 10 38  1  0
 11 39  1  0
 13 40  1  0
 16 41  1  0
 16 42  1  0
 17 43  1  0
 17 44  1  0
 22 45  1  0
 23 46  1  0
 24 47  1  0
 25 48  1  0
 29 49  1  0
 30 50  1  0
M  END
$$$$
