
     RDKit          3D

 95 98  0  0  0  0  0  0  0  0999 V2000
   -6.2460   -2.9187    5.0223 C   0  0  0  0  0  0  0  0  0  0  0  0
   -5.2109   -2.1185    4.7470 C   0  0  0  0  0  0  0  0  0  0  0  0
   -5.1036   -1.2682    3.5116 C   0  0  0  0  0  0  0  0  0  0  0  0
   -3.9801   -1.7748    2.6016 C   0  0  0  0  0  0  0  0  0  0  0  0
   -3.7224   -0.9155    1.3507 C   0  0  0  0  0  0  0  0  0  0  0  0
   -4.9309   -0.7237    0.4174 C   0  0  0  0  0  0  0  0  0  0  0  0
   -5.4106   -2.0183   -0.1986 C   0  0  0  0  0  0  0  0  0  0  0  0
   -4.6404   -2.6669   -1.1782 C   0  0  0  0  0  0  0  0  0  0  0  0
   -5.0686   -3.8761   -1.7299 C   0  0  0  0  0  0  0  0  0  0  0  0
   -6.2665   -4.4362   -1.3027 C   0  0  0  0  0  0  0  0  0  0  0  0
   -6.6715   -5.6024   -1.8245 F   0  0  0  0  0  0  0  0  0  0  0  0
   -7.0499   -3.8063   -0.3434 C   0  0  0  0  0  0  0  0  0  0  0  0
   -6.6239   -2.5959    0.2078 C   0  0  0  0  0  0  0  0  0  0  0  0
   -3.1676    0.4330    1.7634 C   0  0  0  0  0  0  0  0  0  0  0  0
   -3.8271    1.4556    1.8647 O   0  0  0  0  0  0  0  0  0  0  0  0
   -1.8356    0.3192    2.0148 O   0  0  0  0  0  0  0  0  0  0  0  0
   -1.1320    1.4956    2.4744 C   0  0  0  0  0  0  0  0  0  0  0  0
   -0.0612    1.8886    1.4395 C   0  0  0  0  0  0  0  0  0  0  0  0
   -0.6611    2.5558    0.1831 C   0  0  0  0  0  0  0  0  0  0  0  0
   -1.2064    3.9254    0.4423 C   0  0  0  0  0  0  0  0  0  0  0  0
   -2.5379    4.2727    0.5637 C   0  0  0  0  0  0  0  0  0  0  0  0
   -2.6126    5.6144    0.8160 N   0  0  0  0  0  0  0  0  0  0  0  0
   -1.3536    6.1641    0.8527 C   0  0  0  0  0  0  0  0  0  0  0  0
   -0.9539    7.4880    1.0724 C   0  0  0  0  0  0  0  0  0  0  0  0
    0.4170    7.7622    1.0479 C   0  0  0  0  0  0  0  0  0  0  0  0
    1.3461    6.7507    0.8100 C   0  0  0  0  0  0  0  0  0  0  0  0
    0.9286    5.4332    0.5923 C   0  0  0  0  0  0  0  0  0  0  0  0
   -0.4485    5.1289    0.6144 C   0  0  0  0  0  0  0  0  0  0  0  0
    0.7038    0.6916    1.0589 N   0  0  0  0  0  0  0  0  0  0  0  0
    1.9825    0.7608    0.5625 C   0  0  0  0  0  0  0  0  0  0  0  0
    2.6299    1.8034    0.5265 O   0  0  0  0  0  0  0  0  0  0  0  0
    2.5151   -0.5356   -0.0342 C   0  0  0  0  0  0  0  0  0  0  0  0
    2.3979   -1.7002    0.9668 C   0  0  0  0  0  0  0  0  0  0  0  0
    3.1806   -2.9184    0.5668 C   0  0  0  0  0  0  0  0  0  0  0  0
    4.2487   -3.3733    1.2330 C   0  0  0  0  0  0  0  0  0  0  0  0
    1.7895   -0.7833   -1.3673 C   0  0  0  0  0  0  0  0  0  0  0  0
    2.7060   -1.3667   -2.4266 C   0  0  0  0  0  0  0  0  0  0  0  0
    2.5492   -2.5409   -2.7731 O   0  0  0  0  0  0  0  0  0  0  0  0
    3.6969   -0.5622   -2.9734 N   0  0  0  0  0  0  0  0  0  0  0  0
    3.7430    0.9068   -2.8639 C   0  0  0  0  0  0  0  0  0  0  0  0
    3.1156    1.5975   -4.0800 C   0  0  0  0  0  0  0  0  0  0  0  0
    1.7620    1.1917   -4.2491 O   0  0  0  0  0  0  0  0  0  0  0  0
    4.7054   -1.1952   -3.8239 C   0  0  0  0  0  0  0  0  0  0  0  0
    5.8469   -1.7638   -3.0098 C   0  0  0  0  0  0  0  0  0  0  0  0
    6.9242   -0.9564   -2.6143 C   0  0  0  0  0  0  0  0  0  0  0  0
    7.9604   -1.4877   -1.8397 C   0  0  0  0  0  0  0  0  0  0  0  0
    7.9316   -2.8275   -1.4533 C   0  0  0  0  0  0  0  0  0  0  0  0
    6.8650   -3.6379   -1.8377 C   0  0  0  0  0  0  0  0  0  0  0  0
    5.8247   -3.1087   -2.6076 C   0  0  0  0  0  0  0  0  0  0  0  0
   -7.0923   -3.0186    4.3476 H   0  0  0  0  0  0  0  0  0  0  0  0
   -6.2703   -3.4994    5.9390 H   0  0  0  0  0  0  0  0  0  0  0  0
   -4.3877   -2.0570    5.4581 H   0  0  0  0  0  0  0  0  0  0  0  0
   -4.9090   -0.2367    3.8281 H   0  0  0  0  0  0  0  0  0  0  0  0
   -6.0562   -1.2639    2.9724 H   0  0  0  0  0  0  0  0  0  0  0  0
   -4.1996   -2.8040    2.2922 H   0  0  0  0  0  0  0  0  0  0  0  0
   -3.0518   -1.8341    3.1871 H   0  0  0  0  0  0  0  0  0  0  0  0
   -2.9298   -1.4039    0.7673 H   0  0  0  0  0  0  0  0  0  0  0  0
   -4.6591   -0.0424   -0.4021 H   0  0  0  0  0  0  0  0  0  0  0  0
   -5.7565   -0.2241    0.9398 H   0  0  0  0  0  0  0  0  0  0  0  0
   -3.7038   -2.2328   -1.5205 H   0  0  0  0  0  0  0  0  0  0  0  0
   -4.4754   -4.3853   -2.4848 H   0  0  0  0  0  0  0  0  0  0  0  0
   -7.9860   -4.2600   -0.0311 H   0  0  0  0  0  0  0  0  0  0  0  0
   -7.2445   -2.1102    0.9585 H   0  0  0  0  0  0  0  0  0  0  0  0
   -0.6358    1.1982    3.4062 H   0  0  0  0  0  0  0  0  0  0  0  0
   -1.8017    2.3253    2.7214 H   0  0  0  0  0  0  0  0  0  0  0  0
    0.6341    2.5900    1.9159 H   0  0  0  0  0  0  0  0  0  0  0  0
    0.1098    2.6396   -0.5956 H   0  0  0  0  0  0  0  0  0  0  0  0
   -1.4413    1.9147   -0.2475 H   0  0  0  0  0  0  0  0  0  0  0  0
   -3.4401    3.6768    0.5031 H   0  0  0  0  0  0  0  0  0  0  0  0
   -3.4681    6.1332    0.9639 H   0  0  0  0  0  0  0  0  0  0  0  0
   -1.6767    8.2767    1.2560 H   0  0  0  0  0  0  0  0  0  0  0  0
    0.7628    8.7786    1.2170 H   0  0  0  0  0  0  0  0  0  0  0  0
    2.4085    6.9831    0.7926 H   0  0  0  0  0  0  0  0  0  0  0  0
    1.6640    4.6562    0.4027 H   0  0  0  0  0  0  0  0  0  0  0  0
    0.1625   -0.1532    0.9192 H   0  0  0  0  0  0  0  0  0  0  0  0
    3.5847   -0.3622   -0.2079 H   0  0  0  0  0  0  0  0  0  0  0  0
    1.3489   -2.0052    1.0886 H   0  0  0  0  0  0  0  0  0  0  0  0
    2.7234   -1.3567    1.9585 H   0  0  0  0  0  0  0  0  0  0  0  0
    2.8432   -3.4666   -0.3125 H   0  0  0  0  0  0  0  0  0  0  0  0
    4.6340   -2.8730    2.1157 H   0  0  0  0  0  0  0  0  0  0  0  0
    4.7729   -4.2611    0.8956 H   0  0  0  0  0  0  0  0  0  0  0  0
    1.3342    0.1305   -1.7704 H   0  0  0  0  0  0  0  0  0  0  0  0
    0.9512   -1.4787   -1.2222 H   0  0  0  0  0  0  0  0  0  0  0  0
    3.2049    1.2333   -1.9752 H   0  0  0  0  0  0  0  0  0  0  0  0
    4.7855    1.2163   -2.7485 H   0  0  0  0  0  0  0  0  0  0  0  0
    3.6597    1.3711   -5.0020 H   0  0  0  0  0  0  0  0  0  0  0  0
    3.1265    2.6842   -3.9389 H   0  0  0  0  0  0  0  0  0  0  0  0
    1.7816    0.2539   -4.5182 H   0  0  0  0  0  0  0  0  0  0  0  0
    5.0934   -0.4666   -4.5483 H   0  0  0  0  0  0  0  0  0  0  0  0
    4.2399   -1.9939   -4.4159 H   0  0  0  0  0  0  0  0  0  0  0  0
    6.9626    0.0930   -2.9009 H   0  0  0  0  0  0  0  0  0  0  0  0
    8.7884   -0.8539   -1.5334 H   0  0  0  0  0  0  0  0  0  0  0  0
    8.7360   -3.2394   -0.8457 H   0  0  0  0  0  0  0  0  0  0  0  0
    6.8367   -4.6812   -1.5333 H   0  0  0  0  0  0  0  0  0  0  0  0
    4.9884   -3.7505   -2.8849 H   0  0  0  0  0  0  0  0  0  0  0  0
  1  2  2  0
  2  3  1  0
  3  4  1  0
  4  5  1  0
  5  6  1  0
  6  7  1  0
  7  8  2  0
  8  9  1  0
  9 10  2  0
 10 11  1  0
 10 12  1  0
 12 13  2  0
  5 14  1  0
 14 15  2  0
 14 16  1  0
 16 17  1  0
 17 18  1  0
 18 19  1  0
 19 20  1  0
 20 21  2  0
 21 22  1  0
 22 23  1  0
 23 24  2  0
 24 25  1  0
 25 26  2  0
 26 27  1  0
 27 28  2  0
 18 29  1  0
 29 30  1  0
 30 31  2  0
 30 32  1  0
 32 33  1  0
 33 34  1  0
 34 35  2  0
 32 36  1  0
 36 37  1  0
 37 38  2  0
 37 39  1  0
 39 40  1  0
 40 41  1  0
 41 42  1  0
 39 43  1  0
 43 44  1  0
 44 45  2  0
 45 46  1  0
 46 47  2  0
 47 48  1  0
 48 49  2  0
 13  7  1  0
 28 20  1  0
 49 44  1  0
 28 23  1  0
  1 50  1  0
  1 51  1  0
  2 52  1  0
  3 53  1  0
  3 54  1  0
  4 55  1  0
  4 56  1  0
  5 57  1  0
  6 58  1  0
  6 59  1  0
  8 60  1  0
  9 61  1  0
 12 62  1  0
 13 63  1  0
 17 64  1  0
 17 65  1  0
 18 66  1  0
 19 67  1  0
 19 68  1  0
 21 69  1  0
 22 70  1  0
 24 71  1  0
 25 72  1  0
 26 73  1  0
 27 74  1  0
 29 75  1  0
 32 76  1  0
 33 77  1  0
 33 78  1  0
 34 79  1  0
 35 80  1  0
 35 81  1  0
 36 82  1  0
 36 83  1  0
 40 84  1  0
 40 85  1  0
 41 86  1  0
 41 87  1  0
 42 88  1  0
 43 89  1  0
 43 90  1  0
 45 91  1  0
 46 92  1  0
 47 93  1  0
 48 94  1  0
 49 95  1  0
M  END
$$$$
