
     RDKit          3D

 57 61  0  0  0  0  0  0  0  0999 V2000
   -3.7800    2.1387    3.4488 C   0  0  0  0  0  0  0  0  0  0  0  0
   -4.9834    2.0137    2.6078 N   0  0  0  0  0  0  0  0  0  0  0  0
   -5.7002    0.7429    2.8001 C   0  0  0  0  0  0  0  0  0  0  0  0
   -4.9011    2.6191    1.0215 S   0  0  0  0  0  6  0  0  0  0  0  0
   -6.2219    2.5107    0.4367 O   0  0  0  0  0  0  0  0  0  0  0  0
   -4.1952    3.8807    1.0352 O   0  0  0  0  0  0  0  0  0  0  0  0
   -3.8592    1.4407    0.1833 C   0  0  0  0  0  0  0  0  0  0  0  0
   -4.4210    0.5137   -0.6914 C   0  0  0  0  0  0  0  0  0  0  0  0
   -3.5925   -0.3852   -1.3669 C   0  0  0  0  0  0  0  0  0  0  0  0
   -2.1930   -0.3825   -1.1846 C   0  0  0  0  0  0  0  0  0  0  0  0
   -1.3776   -1.3163   -1.8675 N   0  0  0  0  0  0  0  0  0  0  0  0
   -1.5593   -1.3730   -3.3416 C   0  0  0  0  0  0  0  0  0  0  0  0
   -1.8922   -2.8292   -3.6546 C   0  0  0  0  0  0  0  0  0  0  0  0
   -1.2196   -3.5858   -2.5245 C   0  0  0  0  0  0  0  0  0  0  0  0
   -1.5082   -2.6923   -1.3237 C   0  0  0  0  0  0  0  0  0  0  0  0
   -1.6369    0.5653   -0.2846 C   0  0  0  0  0  0  0  0  0  0  0  0
   -0.1707    0.6636    0.0464 C   0  0  0  0  0  0  0  0  0  0  0  0
    0.1691    1.3744    0.9873 O   0  0  0  0  0  0  0  0  0  0  0  0
    0.6577   -0.0816   -0.7500 N   0  0  0  0  0  0  0  0  0  0  0  0
    2.0102   -0.1392   -0.6010 C   0  0  0  0  0  0  0  0  0  0  0  0
    2.7773    0.4689    0.2611 N   0  0  0  0  0  0  0  0  0  0  0  0
    4.1048    0.1126    0.0436 C   0  0  0  0  0  0  0  0  0  0  0  0
    4.3044   -0.7842   -1.0106 C   0  0  0  0  0  0  0  0  0  0  0  0
    5.5807   -1.2470   -1.3674 C   0  0  0  0  0  0  0  0  0  0  0  0
    6.6834   -0.7906   -0.6364 C   0  0  0  0  0  0  0  0  0  0  0  0
    6.5334    0.1052    0.4287 C   0  0  0  0  0  0  0  0  0  0  0  0
    7.6336    0.5662    1.1689 C   0  0  0  0  0  0  0  0  0  0  0  0
    7.4570    1.4589    2.2303 C   0  0  0  0  0  0  0  0  0  0  0  0
    6.1811    1.9067    2.5682 C   0  0  0  0  0  0  0  0  0  0  0  0
    5.0736    1.4640    1.8467 C   0  0  0  0  0  0  0  0  0  0  0  0
    5.2403    0.5639    0.7765 C   0  0  0  0  0  0  0  0  0  0  0  0
    2.7795   -1.1699   -1.7187 S   0  0  0  0  0  0  0  0  0  0  0  0
   -2.4777    1.4855    0.3705 C   0  0  0  0  0  0  0  0  0  0  0  0
   -4.0698    2.1016    4.5046 H   0  0  0  0  0  0  0  0  0  0  0  0
   -3.0764    1.3239    3.2552 H   0  0  0  0  0  0  0  0  0  0  0  0
   -3.2795    3.0982    3.2932 H   0  0  0  0  0  0  0  0  0  0  0  0
   -5.9053    0.5912    3.8647 H   0  0  0  0  0  0  0  0  0  0  0  0
   -5.1056   -0.1008    2.4388 H   0  0  0  0  0  0  0  0  0  0  0  0
   -6.6666    0.7536    2.2896 H   0  0  0  0  0  0  0  0  0  0  0  0
   -5.4953    0.4863   -0.8618 H   0  0  0  0  0  0  0  0  0  0  0  0
   -4.0555   -1.1028   -2.0408 H   0  0  0  0  0  0  0  0  0  0  0  0
   -0.6037   -1.1014   -3.8066 H   0  0  0  0  0  0  0  0  0  0  0  0
   -2.3196   -0.6902   -3.7358 H   0  0  0  0  0  0  0  0  0  0  0  0
   -1.5371   -3.1362   -4.6427 H   0  0  0  0  0  0  0  0  0  0  0  0
   -2.9765   -2.9840   -3.6171 H   0  0  0  0  0  0  0  0  0  0  0  0
   -0.1395   -3.6498   -2.7031 H   0  0  0  0  0  0  0  0  0  0  0  0
   -1.6122   -4.5982   -2.3988 H   0  0  0  0  0  0  0  0  0  0  0  0
   -0.7906   -2.8609   -0.5137 H   0  0  0  0  0  0  0  0  0  0  0  0
   -2.5184   -2.8996   -0.9458 H   0  0  0  0  0  0  0  0  0  0  0  0
    0.2324   -0.6541   -1.4729 H   0  0  0  0  0  0  0  0  0  0  0  0
    5.7133   -1.9433   -2.1902 H   0  0  0  0  0  0  0  0  0  0  0  0
    7.6738   -1.1488   -0.9117 H   0  0  0  0  0  0  0  0  0  0  0  0
    8.6399    0.2330    0.9265 H   0  0  0  0  0  0  0  0  0  0  0  0
    8.3186    1.8063    2.7948 H   0  0  0  0  0  0  0  0  0  0  0  0
    6.0456    2.6008    3.3934 H   0  0  0  0  0  0  0  0  0  0  0  0
    4.0782    1.8172    2.1136 H   0  0  0  0  0  0  0  0  0  0  0  0
   -2.0466    2.2397    1.0286 H   0  0  0  0  0  0  0  0  0  0  0  0
  1  2  1  0
  2  3  1  0
  2  4  1  0
  4  5  2  0
  4  6  2  0
  4  7  1  0
  7  8  2  0
  8  9  1  0
  9 10  2  0
 10 11  1  0
 11 12  1  0
 12 13  1  0
 13 14  1  0
 14 15  1  0
 10 16  1  0
 16 17  1  0
 17 18  2  0
 17 19  1  0
 19 20  1  0
 20 21  2  0
 21 22  1  0
 22 23  2  0
 23 24  1  0
 24 25  2  0
 25 26  1  0
 26 27  2  0
 27 28  1  0
 28 29  2  0
 29 30  1  0
 30 31  2  0
 23 32  1  0
 16 33  2  0
 33  7  1  0
 15 11  1  0
 32 20  1  0
 31 22  1  0
 31 26  1  0
  1 34  1  0
  1 35  1  0
  1 36  1  0
  3 37  1  0
  3 38  1  0
  3 39  1  0
  8 40  1  0
  9 41  1  0
 12 42  1  0
 12 43  1  0
 13 44  1  0
 13 45  1  0
 14 46  1  0
 14 47  1  0
 15 48  1  0
 15 49  1  0
 19 50  1  0
 24 51  1  0
 25 52  1  0
 27 53  1  0
 28 54  1  0
 29 55  1  0
 30 56  1  0
 33 57  1  0
M  END
$$$$
