
     RDKit          3D

 55 58  0  0  0  0  0  0  0  0999 V2000
   -1.8862   -3.0502    3.3396 C   0  0  0  0  0  0  0  0  0  0  0  0
   -1.6040   -2.9840    1.9078 N   0  0  0  0  0  0  0  0  0  0  0  0
   -0.8736   -4.1268    1.3476 C   0  0  0  0  0  0  0  0  0  0  0  0
   -1.5149   -1.7438    1.2744 C   0  0  0  0  0  0  0  0  0  0  0  0
   -1.1044   -1.6204   -0.0638 C   0  0  0  0  0  0  0  0  0  0  0  0
   -1.0173   -0.3781   -0.7107 C   0  0  0  0  0  0  0  0  0  0  0  0
   -1.3601    0.8073   -0.0507 C   0  0  0  0  0  0  0  0  0  0  0  0
   -1.2584    2.0702   -0.6762 N   0  0  0  0  0  0  0  0  0  0  0  0
   -0.3261    2.3387   -1.6686 C   0  0  0  0  0  0  0  0  0  0  0  0
    0.9406    2.1387   -1.7721 N   0  0  0  0  0  0  0  0  0  0  0  0
    1.5855    1.7039   -0.6418 C   0  0  0  0  0  0  0  0  0  0  0  0
    1.5181    2.2750    0.4455 O   0  0  0  0  0  0  0  0  0  0  0  0
    2.4850    0.5045   -0.8822 C   0  0  0  0  0  0  0  0  0  0  0  0
    2.7525   -0.2566    0.4144 C   0  0  0  0  0  0  0  0  0  0  0  0
    3.6790   -1.4233    0.1871 C   0  0  0  0  0  0  0  0  0  0  0  0
    5.0613   -1.2681    0.3774 C   0  0  0  0  0  0  0  0  0  0  0  0
    5.9279   -2.3314    0.1379 C   0  0  0  0  0  0  0  0  0  0  0  0
    5.4266   -3.5578   -0.3014 C   0  0  0  0  0  0  0  0  0  0  0  0
    4.0533   -3.7207   -0.4966 C   0  0  0  0  0  0  0  0  0  0  0  0
    3.1835   -2.6587   -0.2533 C   0  0  0  0  0  0  0  0  0  0  0  0
   -1.1010    3.1534   -3.0457 S   0  0  0  0  0  0  0  0  0  0  0  0
   -2.7758    2.9477   -2.3274 C   0  0  0  0  0  0  0  0  0  0  0  0
   -3.7023    4.1270   -2.5677 C   0  0  0  0  0  0  0  0  0  0  0  0
   -3.6536    5.1190   -1.0858 S   0  0  0  0  0  6  0  0  0  0  0  0
   -4.9165    4.9495   -0.3963 O   0  0  0  0  0  0  0  0  0  0  0  0
   -3.1187    6.4224   -1.3977 O   0  0  0  0  0  0  0  0  0  0  0  0
   -2.4295    4.1859   -0.2085 C   0  0  0  0  0  0  0  0  0  0  0  0
   -2.5359    2.7878   -0.8182 C   0  0  0  0  0  0  0  0  0  0  0  0
   -1.7934    0.7026    1.2721 C   0  0  0  0  0  0  0  0  0  0  0  0
   -1.8650   -0.5432    1.9166 C   0  0  0  0  0  0  0  0  0  0  0  0
   -1.0788   -2.5877    3.9233 H   0  0  0  0  0  0  0  0  0  0  0  0
   -2.8343   -2.5581    3.5790 H   0  0  0  0  0  0  0  0  0  0  0  0
   -1.9921   -4.0871    3.6785 H   0  0  0  0  0  0  0  0  0  0  0  0
   -1.2668   -4.3913    0.3610 H   0  0  0  0  0  0  0  0  0  0  0  0
    0.2032   -3.9102    1.2728 H   0  0  0  0  0  0  0  0  0  0  0  0
   -0.9875   -5.0235    1.9695 H   0  0  0  0  0  0  0  0  0  0  0  0
   -0.8363   -2.4952   -0.6498 H   0  0  0  0  0  0  0  0  0  0  0  0
   -0.6881   -0.3632   -1.7468 H   0  0  0  0  0  0  0  0  0  0  0  0
    2.0069   -0.1593   -1.6184 H   0  0  0  0  0  0  0  0  0  0  0  0
    3.4229    0.8733   -1.3218 H   0  0  0  0  0  0  0  0  0  0  0  0
    1.8153   -0.6161    0.8495 H   0  0  0  0  0  0  0  0  0  0  0  0
    3.1928    0.4093    1.1658 H   0  0  0  0  0  0  0  0  0  0  0  0
    5.4643   -0.3182    0.7121 H   0  0  0  0  0  0  0  0  0  0  0  0
    6.9981   -2.2038    0.2865 H   0  0  0  0  0  0  0  0  0  0  0  0
    6.1061   -4.3851   -0.4930 H   0  0  0  0  0  0  0  0  0  0  0  0
    3.6700   -4.6774   -0.8462 H   0  0  0  0  0  0  0  0  0  0  0  0
    2.1148   -2.7995   -0.4130 H   0  0  0  0  0  0  0  0  0  0  0  0
   -3.1877    2.0268   -2.7632 H   0  0  0  0  0  0  0  0  0  0  0  0
   -3.4299    4.7387   -3.4319 H   0  0  0  0  0  0  0  0  0  0  0  0
   -4.7374    3.7818   -2.6852 H   0  0  0  0  0  0  0  0  0  0  0  0
   -1.4547    4.6618   -0.3717 H   0  0  0  0  0  0  0  0  0  0  0  0
   -2.6545    4.1928    0.8611 H   0  0  0  0  0  0  0  0  0  0  0  0
   -3.3935    2.2612   -0.3714 H   0  0  0  0  0  0  0  0  0  0  0  0
   -2.0430    1.5917    1.8412 H   0  0  0  0  0  0  0  0  0  0  0  0
   -2.1865   -0.5323    2.9561 H   0  0  0  0  0  0  0  0  0  0  0  0
  1  2  1  0
  2  3  1  0
  2  4  1  0
  4  5  2  0
  5  6  1  0
  6  7  2  0
  7  8  1  0
  8  9  1  0
  9 10  2  3
 10 11  1  0
 11 12  2  0
 11 13  1  0
 13 14  1  0
 14 15  1  0
 15 16  2  0
 16 17  1  0
 17 18  2  0
 18 19  1  0
 19 20  2  0
  9 21  1  0
 21 22  1  0
 22 23  1  0
 23 24  1  0
 24 25  2  0
 24 26  2  0
 24 27  1  0
 27 28  1  0
  7 29  1  0
 29 30  2  0
 30  4  1  0
 28  8  1  0
 20 15  1  0
 28 22  1  0
  1 31  1  0
  1 32  1  0
  1 33  1  0
  3 34  1  0
  3 35  1  0
  3 36  1  0
  5 37  1  0
  6 38  1  0
 13 39  1  0
 13 40  1  0
 14 41  1  0
 14 42  1  0
 16 43  1  0
 17 44  1  0
 18 45  1  0
 19 46  1  0
 20 47  1  0
 22 48  1  0
 23 49  1  0
 23 50  1  0
 27 51  1  0
 27 52  1  0
 28 53  1  0
 29 54  1  0
 30 55  1  0
M  END
$$$$
