
     RDKit          3D

 48 48  0  0  0  0  0  0  0  0999 V2000
    3.5036    1.7139    1.3394 C   0  0  0  0  0  0  0  0  0  0  0  0
    3.7377    1.1690   -0.0740 C   0  0  0  0  0  0  0  0  0  0  0  0
    2.7575    1.7981   -1.0836 C   0  0  0  0  0  0  0  0  0  0  0  0
    1.3577    1.5684   -0.7816 N   0  0  0  0  0  0  0  0  0  0  0  0
    0.6441    0.5352   -1.3533 C   0  0  0  0  0  0  0  0  0  0  0  0
    1.1248   -0.2535   -2.1592 O   0  0  0  0  0  0  0  0  0  0  0  0
   -0.7670    0.3807   -0.9053 C   0  0  0  0  0  0  0  0  0  0  0  0
   -1.5392    1.4664   -0.4860 C   0  0  0  0  0  0  0  0  0  0  0  0
   -2.8642    1.2730   -0.0721 C   0  0  0  0  0  0  0  0  0  0  0  0
   -3.4531   -0.0031   -0.0722 C   0  0  0  0  0  0  0  0  0  0  0  0
   -4.9052   -0.2491    0.3762 C   0  0  0  0  0  0  0  0  0  0  0  0
   -5.6395    1.0277    0.8441 C   0  0  0  0  0  0  0  0  0  0  0  0
   -4.9229   -1.2432    1.5577 C   0  0  0  0  0  0  0  0  0  0  0  0
   -5.7173   -0.8394   -0.7967 C   0  0  0  0  0  0  0  0  0  0  0  0
   -2.6602   -1.0800   -0.5158 C   0  0  0  0  0  0  0  0  0  0  0  0
   -1.3380   -0.8923   -0.9313 C   0  0  0  0  0  0  0  0  0  0  0  0
    3.6823   -0.3752   -0.1127 C   0  0  0  0  0  0  0  0  0  0  0  0
    4.6667   -1.0387    0.7693 N   0  0  0  0  0  0  0  0  0  0  0  0
    4.3497   -2.4670    0.8727 C   0  0  0  0  0  0  0  0  0  0  0  0
    6.0362   -0.8785    0.2754 C   0  0  0  0  0  0  0  0  0  0  0  0
    4.3002    1.3974    2.0204 H   0  0  0  0  0  0  0  0  0  0  0  0
    2.5512    1.3656    1.7527 H   0  0  0  0  0  0  0  0  0  0  0  0
    3.4927    2.8091    1.3362 H   0  0  0  0  0  0  0  0  0  0  0  0
    4.7367    1.4938   -0.3898 H   0  0  0  0  0  0  0  0  0  0  0  0
    2.8933    2.8856   -1.0963 H   0  0  0  0  0  0  0  0  0  0  0  0
    2.9763    1.4330   -2.0937 H   0  0  0  0  0  0  0  0  0  0  0  0
    0.9574    2.0734   -0.0029 H   0  0  0  0  0  0  0  0  0  0  0  0
   -1.1410    2.4768   -0.5001 H   0  0  0  0  0  0  0  0  0  0  0  0
   -3.4216    2.1522    0.2405 H   0  0  0  0  0  0  0  0  0  0  0  0
   -5.1360    1.4918    1.7002 H   0  0  0  0  0  0  0  0  0  0  0  0
   -5.7062    1.7720    0.0421 H   0  0  0  0  0  0  0  0  0  0  0  0
   -6.6656    0.8009    1.1580 H   0  0  0  0  0  0  0  0  0  0  0  0
   -4.3272   -0.8675    2.3981 H   0  0  0  0  0  0  0  0  0  0  0  0
   -4.5197   -2.2235    1.2811 H   0  0  0  0  0  0  0  0  0  0  0  0
   -5.9443   -1.4082    1.9202 H   0  0  0  0  0  0  0  0  0  0  0  0
   -5.3285   -1.8103   -1.1229 H   0  0  0  0  0  0  0  0  0  0  0  0
   -6.7654   -0.9926   -0.5142 H   0  0  0  0  0  0  0  0  0  0  0  0
   -5.7002   -0.1697   -1.6648 H   0  0  0  0  0  0  0  0  0  0  0  0
   -3.0647   -2.0898   -0.5483 H   0  0  0  0  0  0  0  0  0  0  0  0
   -0.7555   -1.7458   -1.2728 H   0  0  0  0  0  0  0  0  0  0  0  0
    2.6787   -0.6802    0.2098 H   0  0  0  0  0  0  0  0  0  0  0  0
    3.8039   -0.7262   -1.1461 H   0  0  0  0  0  0  0  0  0  0  0  0
    3.3496   -2.6107    1.2969 H   0  0  0  0  0  0  0  0  0  0  0  0
    4.3894   -2.9713   -0.0997 H   0  0  0  0  0  0  0  0  0  0  0  0
    5.0487   -2.9687    1.5514 H   0  0  0  0  0  0  0  0  0  0  0  0
    6.3456    0.1708    0.2935 H   0  0  0  0  0  0  0  0  0  0  0  0
    6.1563   -1.2602   -0.7449 H   0  0  0  0  0  0  0  0  0  0  0  0
    6.7422   -1.4101    0.9240 H   0  0  0  0  0  0  0  0  0  0  0  0
  1  2  1  0
  2  3  1  0
  3  4  1  0
  4  5  1  0
  5  6  2  0
  5  7  1  0
  7  8  2  0
  8  9  1  0
  9 10  2  0
 10 11  1  0
 11 12  1  0
 11 13  1  0
 11 14  1  0
 10 15  1  0
 15 16  2  0
  2 17  1  0
 17 18  1  0
 18 19  1  0
 18 20  1  0
 16  7  1  0
  1 21  1  0
  1 22  1  0
  1 23  1  0
  2 24  1  0
  3 25  1  0
  3 26  1  0
  4 27  1  0
  8 28  1  0
  9 29  1  0
 12 30  1  0
 12 31  1  0
 12 32  1  0
 13 33  1  0
 13 34  1  0
 13 35  1  0
 14 36  1  0
 14 37  1  0
 14 38  1  0
 15 39  1  0
 16 40  1  0
 17 41  1  0
 17 42  1  0
 19 43  1  0
 19 44  1  0
 19 45  1  0
 20 46  1  0
 20 47  1  0
 20 48  1  0
M  END
$$$$
