
     RDKit          3D

 41 43  0  0  0  0  0  0  0  0999 V2000
    4.9969   -0.3625   -3.5011 Cl  0  0  0  0  0  0  0  0  0  0  0  0
    4.7155   -1.4297   -2.1724 C   0  0  0  0  0  0  0  0  0  0  0  0
    5.7840   -1.6354   -1.2917 C   0  0  0  0  0  0  0  0  0  0  0  0
    5.6580   -2.5193   -0.2202 C   0  0  0  0  0  0  0  0  0  0  0  0
    4.4669   -3.2121   -0.0350 C   0  0  0  0  0  0  0  0  0  0  0  0
    3.3980   -3.0065   -0.9101 C   0  0  0  0  0  0  0  0  0  0  0  0
    3.4943   -2.0979   -1.9848 C   0  0  0  0  0  0  0  0  0  0  0  0
    2.3056   -1.9161   -2.9040 C   0  0  0  0  0  0  0  0  0  0  0  0
    0.7944   -1.3733   -2.0414 S   0  0  0  0  0  0  0  0  0  0  0  0
    1.1283    0.3038   -1.7948 C   0  0  0  0  0  0  0  0  0  0  0  0
    1.9154    1.0738   -2.5119 N   0  0  0  0  0  0  0  0  0  0  0  0
    1.9045    2.3316   -1.9379 N   0  0  0  0  0  0  0  0  0  0  0  0
    1.1047    2.2844   -0.8948 C   0  0  0  0  0  0  0  0  0  0  0  0
    0.5553    1.0409   -0.7854 N   0  0  0  0  0  0  0  0  0  0  0  0
   -0.3510    0.6139    0.2484 N   0  0  0  0  0  0  0  0  0  0  0  0
   -1.7442    0.6506   -0.2075 C   0  0  0  0  0  0  0  0  0  0  0  0
   -2.3051    2.0440   -0.2250 C   0  0  0  0  0  0  0  0  0  0  0  0
   -3.2528    2.5498    0.5836 C   0  0  0  0  0  0  0  0  0  0  0  0
   -3.8760    1.8197    1.6883 C   0  0  0  0  0  0  0  0  0  0  0  0
   -5.1897    1.3518    1.5646 C   0  0  0  0  0  0  0  0  0  0  0  0
   -5.7823    0.6343    2.6071 C   0  0  0  0  0  0  0  0  0  0  0  0
   -5.0640    0.3823    3.7764 C   0  0  0  0  0  0  0  0  0  0  0  0
   -3.7553    0.8540    3.9093 C   0  0  0  0  0  0  0  0  0  0  0  0
   -3.1613    1.5675    2.8649 C   0  0  0  0  0  0  0  0  0  0  0  0
    6.7242   -1.1085   -1.4397 H   0  0  0  0  0  0  0  0  0  0  0  0
    6.4932   -2.6751    0.4568 H   0  0  0  0  0  0  0  0  0  0  0  0
    4.3682   -3.9148    0.7893 H   0  0  0  0  0  0  0  0  0  0  0  0
    2.4797   -3.5693   -0.7473 H   0  0  0  0  0  0  0  0  0  0  0  0
    2.4997   -1.2411   -3.7410 H   0  0  0  0  0  0  0  0  0  0  0  0
    2.0870   -2.8895   -3.3601 H   0  0  0  0  0  0  0  0  0  0  0  0
    0.8850    3.0934   -0.2144 H   0  0  0  0  0  0  0  0  0  0  0  0
   -0.1338   -0.3461    0.5161 H   0  0  0  0  0  0  0  0  0  0  0  0
   -1.8560    0.2057   -1.2041 H   0  0  0  0  0  0  0  0  0  0  0  0
   -2.3282    0.0085    0.4600 H   0  0  0  0  0  0  0  0  0  0  0  0
   -1.9333    2.6928   -1.0148 H   0  0  0  0  0  0  0  0  0  0  0  0
   -3.6054    3.5684    0.4405 H   0  0  0  0  0  0  0  0  0  0  0  0
   -5.7540    1.5359    0.6533 H   0  0  0  0  0  0  0  0  0  0  0  0
   -6.8038    0.2730    2.5059 H   0  0  0  0  0  0  0  0  0  0  0  0
   -5.5241   -0.1764    4.5880 H   0  0  0  0  0  0  0  0  0  0  0  0
   -3.1983    0.6634    4.8237 H   0  0  0  0  0  0  0  0  0  0  0  0
   -2.1400    1.9305    2.9741 H   0  0  0  0  0  0  0  0  0  0  0  0
  1  2  1  0
  2  3  2  0
  3  4  1  0
  4  5  2  0
  5  6  1  0
  6  7  2  0
  7  8  1  0
  8  9  1  0
  9 10  1  0
 10 11  2  0
 11 12  1  0
 12 13  2  0
 13 14  1  0
 14 15  1  0
 15 16  1  0
 16 17  1  0
 17 18  2  3
 18 19  1  0
 19 20  2  0
 20 21  1  0
 21 22  2  0
 22 23  1  0
 23 24  2  0
  7  2  1  0
 14 10  1  0
 24 19  1  0
  3 25  1  0
  4 26  1  0
  5 27  1  0
  6 28  1  0
  8 29  1  0
  8 30  1  0
 13 31  1  0
 15 32  1  0
 16 33  1  0
 16 34  1  0
 17 35  1  0
 18 36  1  0
 20 37  1  0
 21 38  1  0
 22 39  1  0
 23 40  1  0
 24 41  1  0
M  END
$$$$
