
     RDKit          3D

 57 60  0  0  0  0  0  0  0  0999 V2000
   -1.3872   -0.1310   -2.5106 O   0  0  0  0  0  0  0  0  0  0  0  0
   -1.3811   -0.0167   -1.2892 C   0  0  0  0  0  0  0  0  0  0  0  0
   -2.1440    0.8396   -0.5267 N   0  0  0  0  0  0  0  0  0  0  0  0
   -3.1858    1.6959   -0.9422 C   0  0  0  0  0  0  0  0  0  0  0  0
   -3.6248    1.7752   -2.2656 C   0  0  0  0  0  0  0  0  0  0  0  0
   -4.6765    2.6289   -2.6178 C   0  0  0  0  0  0  0  0  0  0  0  0
   -5.3026    3.4122   -1.6473 C   0  0  0  0  0  0  0  0  0  0  0  0
   -4.8789    3.3407   -0.3210 C   0  0  0  0  0  0  0  0  0  0  0  0
   -3.8302    2.4888    0.0312 C   0  0  0  0  0  0  0  0  0  0  0  0
   -3.3373    2.4392    1.6915 Cl  0  0  0  0  0  0  0  0  0  0  0  0
   -0.4137   -0.8304   -0.5014 C   0  0  0  0  0  0  0  0  0  0  0  0
    0.9084   -0.8200   -0.9797 C   0  0  0  0  0  0  0  0  0  0  0  0
    1.9107   -1.4359   -0.2371 C   0  0  0  0  0  0  0  0  0  0  0  0
    3.5942   -1.3339   -0.7973 S   0  0  0  0  0  6  0  0  0  0  0  0
    4.4467   -1.8020    0.2669 O   0  0  0  0  0  0  0  0  0  0  0  0
    3.6318   -1.9413   -2.1043 O   0  0  0  0  0  0  0  0  0  0  0  0
    3.8240    0.3408   -0.9549 N   0  0  0  0  0  0  0  0  0  0  0  0
    3.7730    1.1730    0.2749 C   0  0  0  0  0  0  0  0  0  0  0  0
    5.1254    1.2371    0.9779 C   0  0  0  0  0  0  0  0  0  0  0  0
    6.2396    1.6617    0.0258 C   0  0  0  0  0  0  0  0  0  0  0  0
    6.2458    0.7946   -1.2287 C   0  0  0  0  0  0  0  0  0  0  0  0
    4.8780    0.7821   -1.8983 C   0  0  0  0  0  0  0  0  0  0  0  0
    1.6049   -2.0839    0.9564 C   0  0  0  0  0  0  0  0  0  0  0  0
    0.2819   -2.1060    1.4152 C   0  0  0  0  0  0  0  0  0  0  0  0
   -0.7696   -1.4913    0.7060 C   0  0  0  0  0  0  0  0  0  0  0  0
   -2.0814   -1.5243    1.1875 N   0  0  0  0  0  0  0  0  0  0  0  0
   -3.1248   -2.0686    0.2763 C   0  0  0  0  0  0  0  0  0  0  0  0
   -3.9861   -3.1230    0.9899 C   0  0  0  0  0  0  0  0  0  0  0  0
   -4.6284   -2.6359    2.1785 O   0  0  0  0  0  0  0  0  0  0  0  0
   -3.8627   -1.6434    2.8764 C   0  0  0  0  0  0  0  0  0  0  0  0
   -2.3534   -1.7537    2.6225 C   0  0  0  0  0  0  0  0  0  0  0  0
   -1.9973    0.7839    0.4740 H   0  0  0  0  0  0  0  0  0  0  0  0
   -3.1576    1.1941   -3.0616 H   0  0  0  0  0  0  0  0  0  0  0  0
   -4.9982    2.6822   -3.6549 H   0  0  0  0  0  0  0  0  0  0  0  0
   -6.1137    4.0760   -1.9311 H   0  0  0  0  0  0  0  0  0  0  0  0
   -5.3657    3.9437    0.4308 H   0  0  0  0  0  0  0  0  0  0  0  0
    1.1541   -0.3016   -1.9071 H   0  0  0  0  0  0  0  0  0  0  0  0
    3.0044    0.8130    0.9667 H   0  0  0  0  0  0  0  0  0  0  0  0
    3.4580    2.1853   -0.0171 H   0  0  0  0  0  0  0  0  0  0  0  0
    5.0711    1.9371    1.8247 H   0  0  0  0  0  0  0  0  0  0  0  0
    5.3768    0.2557    1.4037 H   0  0  0  0  0  0  0  0  0  0  0  0
    6.1114    2.7177   -0.2483 H   0  0  0  0  0  0  0  0  0  0  0  0
    7.2112    1.5813    0.5279 H   0  0  0  0  0  0  0  0  0  0  0  0
    6.9984    1.1754   -1.9259 H   0  0  0  0  0  0  0  0  0  0  0  0
    6.5451   -0.2277   -0.9628 H   0  0  0  0  0  0  0  0  0  0  0  0
    4.8846    0.1563   -2.7956 H   0  0  0  0  0  0  0  0  0  0  0  0
    4.6214    1.7926   -2.2455 H   0  0  0  0  0  0  0  0  0  0  0  0
    2.3831   -2.5780    1.5344 H   0  0  0  0  0  0  0  0  0  0  0  0
    0.0920   -2.6454    2.3409 H   0  0  0  0  0  0  0  0  0  0  0  0
   -3.7760   -1.2469   -0.0292 H   0  0  0  0  0  0  0  0  0  0  0  0
   -2.6921   -2.5167   -0.6248 H   0  0  0  0  0  0  0  0  0  0  0  0
   -3.3786   -3.9912    1.2707 H   0  0  0  0  0  0  0  0  0  0  0  0
   -4.7728   -3.4791    0.3154 H   0  0  0  0  0  0  0  0  0  0  0  0
   -4.2341   -0.6599    2.5679 H   0  0  0  0  0  0  0  0  0  0  0  0
   -4.0790   -1.7550    3.9441 H   0  0  0  0  0  0  0  0  0  0  0  0
   -2.0175   -2.7536    2.9218 H   0  0  0  0  0  0  0  0  0  0  0  0
   -1.8251   -1.0078    3.2262 H   0  0  0  0  0  0  0  0  0  0  0  0
  1  2  2  0
  2  3  1  0
  3  4  1  0
  4  5  2  0
  5  6  1  0
  6  7  2  0
  7  8  1  0
  8  9  2  0
  9 10  1  0
  2 11  1  0
 11 12  2  0
 12 13  1  0
 13 14  1  0
 14 15  2  0
 14 16  2  0
 14 17  1  0
 17 18  1  0
 18 19  1  0
 19 20  1  0
 20 21  1  0
 21 22  1  0
 13 23  2  0
 23 24  1  0
 24 25  2  0
 25 26  1  0
 26 27  1  0
 27 28  1  0
 28 29  1  0
 29 30  1  0
 30 31  1  0
  9  4  1  0
 25 11  1  0
 31 26  1  0
 22 17  1  0
  3 32  1  0
  5 33  1  0
  6 34  1  0
  7 35  1  0
  8 36  1  0
 12 37  1  0
 18 38  1  0
 18 39  1  0
 19 40  1  0
 19 41  1  0
 20 42  1  0
 20 43  1  0
 21 44  1  0
 21 45  1  0
 22 46  1  0
 22 47  1  0
 23 48  1  0
 24 49  1  0
 27 50  1  0
 27 51  1  0
 28 52  1  0
 28 53  1  0
 30 54  1  0
 30 55  1  0
 31 56  1  0
 31 57  1  0
M  END
$$$$
