
     RDKit          3D

 48 50  0  0  0  0  0  0  0  0999 V2000
    0.7199   -0.5889    0.0229 C   0  0  0  0  0  0  0  0  0  0  0  0
    0.4592    0.5420   -0.6469 C   0  0  0  0  0  0  0  0  0  0  0  0
    1.4353    1.5198   -1.1839 C   0  0  0  0  0  0  0  0  0  0  0  0
    2.7761    1.5287   -1.2809 C   0  0  0  0  0  0  0  0  0  0  0  0
    3.6468    0.4690   -0.9186 C   0  0  0  0  0  0  0  0  0  0  0  0
    4.8372    0.7214    0.3033 S   0  0  0  0  0  0  0  0  0  0  0  0
    5.4122   -0.8611    0.0763 C   0  0  0  0  0  0  0  0  0  0  0  0
    6.4475   -1.3986    0.7965 N   0  0  0  0  0  0  0  0  0  0  0  0
    7.1863   -0.7843    1.7798 C   0  0  0  0  0  0  0  0  0  0  0  0
    8.2511   -1.6969    2.3367 C   0  0  0  0  0  0  0  0  0  0  0  0
    7.0743    0.3640    2.1925 O   0  0  0  0  0  0  0  0  0  0  0  0
    4.8069   -1.5675   -0.8456 N   0  0  0  0  0  0  0  0  0  0  0  0
    3.8140   -0.8139   -1.4235 C   0  0  0  0  0  0  0  0  0  0  0  0
    3.0563   -1.3147   -2.4173 O   0  0  0  0  0  0  0  0  0  0  0  0
    0.6643    2.6403   -1.7248 C   0  0  0  0  0  0  0  0  0  0  0  0
   -0.6406    2.3330   -1.5976 C   0  0  0  0  0  0  0  0  0  0  0  0
   -1.7709    3.2251   -1.9880 C   0  0  0  0  0  0  0  0  0  0  0  0
   -0.8024    1.0739   -0.9835 N   0  0  0  0  0  0  0  0  0  0  0  0
   -2.0531    0.5732   -0.5427 C   0  0  0  0  0  0  0  0  0  0  0  0
   -3.0534    0.2426   -1.4653 C   0  0  0  0  0  0  0  0  0  0  0  0
   -4.2973   -0.2449   -1.0427 C   0  0  0  0  0  0  0  0  0  0  0  0
   -4.5684   -0.4087    0.3152 C   0  0  0  0  0  0  0  0  0  0  0  0
   -5.7916   -0.8911    0.8246 N   0  0  0  0  0  0  0  0  0  0  0  0
   -6.9134   -1.2664    0.1074 C   0  0  0  0  0  0  0  0  0  0  0  0
   -8.0353   -1.7292    1.0037 C   0  0  0  0  0  0  0  0  0  0  0  0
   -7.0604   -1.2282   -1.1088 O   0  0  0  0  0  0  0  0  0  0  0  0
   -3.5745   -0.0793    1.2440 C   0  0  0  0  0  0  0  0  0  0  0  0
   -2.3322    0.4058    0.8194 C   0  0  0  0  0  0  0  0  0  0  0  0
   -0.0819   -1.2418    0.3507 H   0  0  0  0  0  0  0  0  0  0  0  0
    1.7155   -0.9156    0.2857 H   0  0  0  0  0  0  0  0  0  0  0  0
    3.2649    2.4096   -1.6950 H   0  0  0  0  0  0  0  0  0  0  0  0
    6.6576   -2.3497    0.5269 H   0  0  0  0  0  0  0  0  0  0  0  0
    7.8850   -2.7253    2.4108 H   0  0  0  0  0  0  0  0  0  0  0  0
    9.1308   -1.6657    1.6879 H   0  0  0  0  0  0  0  0  0  0  0  0
    8.5278   -1.3623    3.3411 H   0  0  0  0  0  0  0  0  0  0  0  0
    2.3496   -0.6904   -2.6521 H   0  0  0  0  0  0  0  0  0  0  0  0
    1.0737    3.5466   -2.1421 H   0  0  0  0  0  0  0  0  0  0  0  0
   -2.3522    2.7830   -2.8026 H   0  0  0  0  0  0  0  0  0  0  0  0
   -2.4347    3.4110   -1.1377 H   0  0  0  0  0  0  0  0  0  0  0  0
   -1.4069    4.1978   -2.3366 H   0  0  0  0  0  0  0  0  0  0  0  0
   -2.8637    0.3471   -2.5309 H   0  0  0  0  0  0  0  0  0  0  0  0
   -5.0289   -0.4898   -1.8064 H   0  0  0  0  0  0  0  0  0  0  0  0
   -5.8521   -0.9624    1.8324 H   0  0  0  0  0  0  0  0  0  0  0  0
   -8.6057   -0.8616    1.3466 H   0  0  0  0  0  0  0  0  0  0  0  0
   -8.6941   -2.3995    0.4437 H   0  0  0  0  0  0  0  0  0  0  0  0
   -7.6477   -2.2791    1.8665 H   0  0  0  0  0  0  0  0  0  0  0  0
   -3.7479   -0.1889    2.3111 H   0  0  0  0  0  0  0  0  0  0  0  0
   -1.5829    0.6715    1.5615 H   0  0  0  0  0  0  0  0  0  0  0  0
  1  2  2  0
  2  3  1  0
  3  4  2  3
  4  5  1  0
  5  6  1  0
  6  7  1  0
  7  8  1  0
  8  9  1  0
  9 10  1  0
  9 11  2  0
  7 12  2  0
 12 13  1  0
 13 14  1  0
  3 15  1  0
 15 16  2  0
 16 17  1  0
 16 18  1  0
 18 19  1  0
 19 20  2  0
 20 21  1  0
 21 22  2  0
 22 23  1  0
 23 24  1  0
 24 25  1  0
 24 26  2  0
 22 27  1  0
 27 28  2  0
 18  2  1  0
 28 19  1  0
 13  5  2  0
  1 29  1  0
  1 30  1  0
  4 31  1  0
  8 32  1  0
 10 33  1  0
 10 34  1  0
 10 35  1  0
 14 36  1  0
 15 37  1  0
 17 38  1  0
 17 39  1  0
 17 40  1  0
 20 41  1  0
 21 42  1  0
 23 43  1  0
 25 44  1  0
 25 45  1  0
 25 46  1  0
 27 47  1  0
 28 48  1  0
M  END
$$$$
