
     RDKit          3D

 38 39  0  0  0  0  0  0  0  0999 V2000
    0.7139   -2.3986   -0.1098 O   0  0  0  0  0  0  0  0  0  0  0  0
   -0.4573   -2.6661    0.1070 C   0  0  0  0  0  0  0  0  0  0  0  0
   -0.8002   -3.6904    0.9082 O   0  0  0  0  0  0  0  0  0  0  0  0
   -1.6573   -1.9406   -0.4325 C   0  0  0  0  0  0  0  0  0  0  0  0
   -1.2662   -0.8460   -1.4236 C   0  0  0  0  0  0  0  0  0  0  0  0
   -1.2910    0.5312   -0.7710 C   0  0  0  0  0  0  0  0  0  0  0  0
   -0.2840    1.0674   -0.1459 N   0  0  0  0  0  0  0  0  0  0  0  0
    0.8847    0.3936    0.0114 N   0  0  0  0  0  0  0  0  0  0  0  0
    1.9649    1.0407    0.5877 C   0  0  0  0  0  0  0  0  0  0  0  0
    2.0398    2.2252    0.8941 O   0  0  0  0  0  0  0  0  0  0  0  0
    3.1504    0.1846    0.7735 C   0  0  0  0  0  0  0  0  0  0  0  0
    4.2430    0.4146   -0.0733 C   0  0  0  0  0  0  0  0  0  0  0  0
    5.3930   -0.3650    0.0469 C   0  0  0  0  0  0  0  0  0  0  0  0
    5.4563   -1.3655    1.0165 C   0  0  0  0  0  0  0  0  0  0  0  0
    4.3740   -1.5833    1.8735 C   0  0  0  0  0  0  0  0  0  0  0  0
    3.2173   -0.8054    1.7587 C   0  0  0  0  0  0  0  0  0  0  0  0
    1.8122   -1.1243    2.9942 Br  0  0  0  0  0  0  0  0  0  0  0  0
   -2.5564    1.3429   -0.8644 C   0  0  0  0  0  0  0  0  0  0  0  0
   -2.4869    2.7264   -0.6414 C   0  0  0  0  0  0  0  0  0  0  0  0
   -3.6355    3.5174   -0.7156 C   0  0  0  0  0  0  0  0  0  0  0  0
   -4.8653    2.9333   -1.0082 C   0  0  0  0  0  0  0  0  0  0  0  0
   -4.9485    1.5587   -1.2220 C   0  0  0  0  0  0  0  0  0  0  0  0
   -3.8001    0.7638   -1.1485 C   0  0  0  0  0  0  0  0  0  0  0  0
    0.0493   -4.0587    1.2303 H   0  0  0  0  0  0  0  0  0  0  0  0
   -2.2281   -1.5398    0.4117 H   0  0  0  0  0  0  0  0  0  0  0  0
   -2.2705   -2.6838   -0.9552 H   0  0  0  0  0  0  0  0  0  0  0  0
   -0.2912   -1.0152   -1.8930 H   0  0  0  0  0  0  0  0  0  0  0  0
   -1.9743   -0.8478   -2.2604 H   0  0  0  0  0  0  0  0  0  0  0  0
    0.9563   -0.5975   -0.2143 H   0  0  0  0  0  0  0  0  0  0  0  0
    4.1956    1.2040   -0.8209 H   0  0  0  0  0  0  0  0  0  0  0  0
    6.2411   -0.1873   -0.6101 H   0  0  0  0  0  0  0  0  0  0  0  0
    6.3553   -1.9699    1.1139 H   0  0  0  0  0  0  0  0  0  0  0  0
    4.4487   -2.3558    2.6351 H   0  0  0  0  0  0  0  0  0  0  0  0
   -1.5343    3.2005   -0.4072 H   0  0  0  0  0  0  0  0  0  0  0  0
   -3.5656    4.5882   -0.5408 H   0  0  0  0  0  0  0  0  0  0  0  0
   -5.7595    3.5492   -1.0632 H   0  0  0  0  0  0  0  0  0  0  0  0
   -5.9115    1.1036   -1.4408 H   0  0  0  0  0  0  0  0  0  0  0  0
   -3.9122   -0.3042   -1.3022 H   0  0  0  0  0  0  0  0  0  0  0  0
  1  2  2  0
  2  3  1  0
  2  4  1  0
  4  5  1  0
  5  6  1  0
  6  7  2  3
  7  8  1  0
  8  9  1  0
  9 10  2  0
  9 11  1  0
 11 12  2  0
 12 13  1  0
 13 14  2  0
 14 15  1  0
 15 16  2  0
 16 17  1  0
  6 18  1  0
 18 19  2  0
 19 20  1  0
 20 21  2  0
 21 22  1  0
 22 23  2  0
 16 11  1  0
 23 18  1  0
  3 24  1  0
  4 25  1  0
  4 26  1  0
  5 27  1  0
  5 28  1  0
  8 29  1  0
 12 30  1  0
 13 31  1  0
 14 32  1  0
 15 33  1  0
 19 34  1  0
 20 35  1  0
 21 36  1  0
 22 37  1  0
 23 38  1  0
M  END
$$$$
