
     RDKit          3D

 43 44  0  0  0  0  0  0  0  0999 V2000
    5.4843    0.4960    2.7668 C   0  0  0  0  0  0  0  0  0  0  0  0
    4.5058    0.4156    1.7346 O   0  0  0  0  0  0  0  0  0  0  0  0
    5.0100    0.4350    0.4754 C   0  0  0  0  0  0  0  0  0  0  0  0
    6.1911    0.5165    0.1786 O   0  0  0  0  0  0  0  0  0  0  0  0
    3.9129    0.3360   -0.5290 C   0  0  0  0  0  0  0  0  0  0  0  0
    4.2482    0.3510   -1.8930 C   0  0  0  0  0  0  0  0  0  0  0  0
    3.2526    0.2320   -2.8707 C   0  0  0  0  0  0  0  0  0  0  0  0
    1.9158    0.0657   -2.4990 C   0  0  0  0  0  0  0  0  0  0  0  0
    0.9124    0.0383   -3.4909 N   0  0  0  0  0  0  0  0  0  0  0  0
    1.5693    0.1307   -1.1310 C   0  0  0  0  0  0  0  0  0  0  0  0
    0.2303    0.0123   -0.7165 N   0  0  0  0  0  0  0  0  0  0  0  0
   -0.4901    1.0821   -0.8482 C   0  0  0  0  0  0  0  0  0  0  0  0
   -1.9404    1.0685   -0.4483 C   0  0  0  0  0  0  0  0  0  0  0  0
   -2.0659    1.0244    1.0593 C   0  0  0  0  0  0  0  0  0  0  0  0
   -1.3378    1.7221    1.7744 O   0  0  0  0  0  0  0  0  0  0  0  0
   -3.2049    0.2559    1.6894 C   0  0  0  0  0  0  0  0  0  0  0  0
   -3.5757   -1.0243    0.9257 C   0  0  0  0  0  0  0  0  0  0  0  0
   -2.4585   -2.0829    1.0191 C   0  0  0  0  0  0  0  0  0  0  0  0
   -4.8488   -1.6216    1.5558 C   0  0  0  0  0  0  0  0  0  0  0  0
   -3.8719   -0.6626   -0.5349 C   0  0  0  0  0  0  0  0  0  0  0  0
   -2.6980    0.0073   -1.2082 C   0  0  0  0  0  0  0  0  0  0  0  0
   -2.4545   -0.2357   -2.3929 O   0  0  0  0  0  0  0  0  0  0  0  0
    2.5679    0.2342   -0.1543 C   0  0  0  0  0  0  0  0  0  0  0  0
    4.9555    0.5441    3.7256 H   0  0  0  0  0  0  0  0  0  0  0  0
    6.1236   -0.3936    2.7661 H   0  0  0  0  0  0  0  0  0  0  0  0
    6.0841    1.4058    2.6675 H   0  0  0  0  0  0  0  0  0  0  0  0
    5.2876    0.4539   -2.2015 H   0  0  0  0  0  0  0  0  0  0  0  0
    3.5298    0.2600   -3.9218 H   0  0  0  0  0  0  0  0  0  0  0  0
    1.2003   -0.4600   -4.3288 H   0  0  0  0  0  0  0  0  0  0  0  0
    0.0404   -0.3484   -3.1143 H   0  0  0  0  0  0  0  0  0  0  0  0
   -0.0836    2.0354   -1.2382 H   0  0  0  0  0  0  0  0  0  0  0  0
   -2.3782    2.0289   -0.7478 H   0  0  0  0  0  0  0  0  0  0  0  0
   -4.0627    0.9455    1.7212 H   0  0  0  0  0  0  0  0  0  0  0  0
   -2.9287    0.0183    2.7322 H   0  0  0  0  0  0  0  0  0  0  0  0
   -2.7144   -2.9669    0.4225 H   0  0  0  0  0  0  0  0  0  0  0  0
   -2.3082   -2.4116    2.0569 H   0  0  0  0  0  0  0  0  0  0  0  0
   -1.4981   -1.7087    0.6534 H   0  0  0  0  0  0  0  0  0  0  0  0
   -4.6759   -1.9058    2.6011 H   0  0  0  0  0  0  0  0  0  0  0  0
   -5.6748   -0.9010    1.5444 H   0  0  0  0  0  0  0  0  0  0  0  0
   -5.1759   -2.5163    1.0144 H   0  0  0  0  0  0  0  0  0  0  0  0
   -4.7224    0.0232   -0.6033 H   0  0  0  0  0  0  0  0  0  0  0  0
   -4.1264   -1.5620   -1.1042 H   0  0  0  0  0  0  0  0  0  0  0  0
    2.2741    0.2331    0.8922 H   0  0  0  0  0  0  0  0  0  0  0  0
  1  2  1  0
  2  3  1  0
  3  4  2  0
  3  5  1  0
  5  6  2  0
  6  7  1  0
  7  8  2  0
  8  9  1  0
  8 10  1  0
 10 11  1  0
 11 12  2  3
 12 13  1  0
 13 14  1  0
 14 15  2  0
 14 16  1  0
 16 17  1  0
 17 18  1  0
 17 19  1  0
 17 20  1  0
 20 21  1  0
 21 22  2  0
 10 23  2  0
 23  5  1  0
 21 13  1  0
  1 24  1  0
  1 25  1  0
  1 26  1  0
  6 27  1  0
  7 28  1  0
  9 29  1  0
  9 30  1  0
 12 31  1  0
 13 32  1  0
 16 33  1  0
 16 34  1  0
 18 35  1  0
 18 36  1  0
 18 37  1  0
 19 38  1  0
 19 39  1  0
 19 40  1  0
 20 41  1  0
 20 42  1  0
 23 43  1  0
M  END
$$$$
