
     RDKit          3D

 44 46  0  0  0  0  0  0  0  0999 V2000
    7.9834   -0.5111   -0.7213 C   0  0  0  0  0  0  0  0  0  0  0  0
    6.4997   -0.2922   -0.7725 C   0  0  0  0  0  0  0  0  0  0  0  0
    5.7448   -0.8029   -1.8353 C   0  0  0  0  0  0  0  0  0  0  0  0
    4.3671   -0.5743   -1.9026 C   0  0  0  0  0  0  0  0  0  0  0  0
    3.7295    0.1796   -0.9095 C   0  0  0  0  0  0  0  0  0  0  0  0
    2.2673    0.4521   -0.9299 C   0  0  0  0  0  0  0  0  0  0  0  0
    1.6764    1.0537   -0.0445 O   0  0  0  0  0  0  0  0  0  0  0  0
    1.6959   -0.0610   -2.0452 O   0  0  0  0  0  0  0  0  0  0  0  0
    0.2944    0.1765   -2.1867 C   0  0  0  0  0  0  0  0  0  0  0  0
   -0.5856   -0.7777   -1.3745 C   0  0  0  0  0  0  0  0  0  0  0  0
   -1.2522   -1.6621   -1.9051 O   0  0  0  0  0  0  0  0  0  0  0  0
   -0.5651   -0.5472   -0.0167 N   0  0  0  0  0  0  0  0  0  0  0  0
   -1.4077   -1.2696    0.9208 C   0  0  0  0  0  0  0  0  0  0  0  0
   -2.5430   -0.3952    1.4692 C   0  0  0  0  0  0  0  0  0  0  0  0
   -3.2954   -1.1335    2.5739 C   0  0  0  0  0  0  0  0  0  0  0  0
   -4.2887   -0.2852    3.1639 O   0  0  0  0  0  0  0  0  0  0  0  0
   -5.0212    0.3644    2.2036 C   0  0  0  0  0  0  0  0  0  0  0  0
   -6.2124    0.9581    2.6170 C   0  0  0  0  0  0  0  0  0  0  0  0
   -7.0207    1.6150    1.6875 C   0  0  0  0  0  0  0  0  0  0  0  0
   -6.6356    1.6788    0.3472 C   0  0  0  0  0  0  0  0  0  0  0  0
   -5.4355    1.0962   -0.0639 C   0  0  0  0  0  0  0  0  0  0  0  0
   -4.6215    0.4538    0.8668 C   0  0  0  0  0  0  0  0  0  0  0  0
   -3.4476   -0.0752    0.3974 O   0  0  0  0  0  0  0  0  0  0  0  0
    4.4855    0.7024    0.1472 C   0  0  0  0  0  0  0  0  0  0  0  0
    5.8623    0.4725    0.2114 C   0  0  0  0  0  0  0  0  0  0  0  0
    8.4988    0.2938   -1.2543 H   0  0  0  0  0  0  0  0  0  0  0  0
    8.3391   -0.5352    0.3141 H   0  0  0  0  0  0  0  0  0  0  0  0
    8.2528   -1.4688   -1.1791 H   0  0  0  0  0  0  0  0  0  0  0  0
    6.2252   -1.3853   -2.6192 H   0  0  0  0  0  0  0  0  0  0  0  0
    3.8078   -0.9916   -2.7365 H   0  0  0  0  0  0  0  0  0  0  0  0
    0.0402    1.2153   -1.9421 H   0  0  0  0  0  0  0  0  0  0  0  0
    0.0484    0.0387   -3.2454 H   0  0  0  0  0  0  0  0  0  0  0  0
    0.0397    0.1979    0.3317 H   0  0  0  0  0  0  0  0  0  0  0  0
   -0.7512   -1.5943    1.7350 H   0  0  0  0  0  0  0  0  0  0  0  0
   -1.8160   -2.1594    0.4296 H   0  0  0  0  0  0  0  0  0  0  0  0
   -2.1305    0.5494    1.8506 H   0  0  0  0  0  0  0  0  0  0  0  0
   -2.6107   -1.4337    3.3741 H   0  0  0  0  0  0  0  0  0  0  0  0
   -3.7914   -2.0369    2.1959 H   0  0  0  0  0  0  0  0  0  0  0  0
   -6.5160    0.8987    3.6582 H   0  0  0  0  0  0  0  0  0  0  0  0
   -7.9537    2.0719    2.0075 H   0  0  0  0  0  0  0  0  0  0  0  0
   -7.2684    2.1846   -0.3775 H   0  0  0  0  0  0  0  0  0  0  0  0
   -5.1306    1.1493   -1.1053 H   0  0  0  0  0  0  0  0  0  0  0  0
    4.0083    1.2954    0.9251 H   0  0  0  0  0  0  0  0  0  0  0  0
    6.4339    0.8940    1.0359 H   0  0  0  0  0  0  0  0  0  0  0  0
  1  2  1  0
  2  3  2  0
  3  4  1  0
  4  5  2  0
  5  6  1  0
  6  7  2  0
  6  8  1  0
  8  9  1  0
  9 10  1  0
 10 11  2  0
 10 12  1  0
 12 13  1  0
 13 14  1  0
 14 15  1  0
 15 16  1  0
 16 17  1  0
 17 18  2  0
 18 19  1  0
 19 20  2  0
 20 21  1  0
 21 22  2  0
 22 23  1  0
  5 24  1  0
 24 25  2  0
 25  2  1  0
 23 14  1  0
 22 17  1  0
  1 26  1  0
  1 27  1  0
  1 28  1  0
  3 29  1  0
  4 30  1  0
  9 31  1  0
  9 32  1  0
 12 33  1  0
 13 34  1  0
 13 35  1  0
 14 36  1  0
 15 37  1  0
 15 38  1  0
 18 39  1  0
 19 40  1  0
 20 41  1  0
 21 42  1  0
 24 43  1  0
 25 44  1  0
M  END
$$$$
