
     RDKit          3D

 64 68  0  0  0  0  0  0  0  0999 V2000
   -3.0615    0.6014   -5.4835 C   0  0  0  0  0  0  0  0  0  0  0  0
   -3.7058   -0.2470   -4.3728 C   0  0  0  0  0  0  0  0  0  0  0  0
   -5.1746   -0.5168   -4.7293 C   0  0  0  0  0  0  0  0  0  0  0  0
   -2.9492   -1.5802   -4.2821 C   0  0  0  0  0  0  0  0  0  0  0  0
   -3.6756    0.5731   -3.0659 C   0  0  0  0  0  0  0  0  0  0  0  0
   -3.9704    1.7699   -3.0412 O   0  0  0  0  0  0  0  0  0  0  0  0
   -3.3607   -0.1084   -1.7770 C   0  0  0  0  0  0  0  0  0  0  0  0
   -4.4719   -0.7614   -1.1834 C   0  0  0  0  0  0  0  0  0  0  0  0
   -5.4001   -1.2994   -0.7423 N   0  0  0  0  0  0  0  0  0  0  0  0
   -2.1403    0.0423   -1.2146 C   0  0  0  0  0  0  0  0  0  0  0  0
   -0.9427    1.1110   -1.9208 S   0  0  0  0  0  0  0  0  0  0  0  0
    0.0579    1.0406   -0.5168 C   0  0  0  0  0  0  0  0  0  0  0  0
    1.1958    1.7497   -0.4310 C   0  0  0  0  0  0  0  0  0  0  0  0
    2.1719    1.7130    0.6058 C   0  0  0  0  0  0  0  0  0  0  0  0
    2.5461    2.8080    1.3463 C   0  0  0  0  0  0  0  0  0  0  0  0
    3.4940    2.3749    2.2473 N   0  0  0  0  0  0  0  0  0  0  0  0
    4.1577    3.1352    3.2527 C   0  0  0  0  0  0  0  0  0  0  0  0
    3.8768    4.4958    3.4429 C   0  0  0  0  0  0  0  0  0  0  0  0
    4.5450    5.2162    4.4378 C   0  0  0  0  0  0  0  0  0  0  0  0
    5.4918    4.5883    5.2451 C   0  0  0  0  0  0  0  0  0  0  0  0
    5.7746    3.2363    5.0634 C   0  0  0  0  0  0  0  0  0  0  0  0
    5.1121    2.5103    4.0712 C   0  0  0  0  0  0  0  0  0  0  0  0
    3.7771    1.0597    2.0727 N   0  0  0  0  0  0  0  0  0  0  0  0
    2.9819    0.6423    1.0761 C   0  0  0  0  0  0  0  0  0  0  0  0
    3.0346   -0.7417    0.6156 C   0  0  0  0  0  0  0  0  0  0  0  0
    3.1150   -1.8005    1.5229 C   0  0  0  0  0  0  0  0  0  0  0  0
    3.1246   -3.1135    1.0574 C   0  0  0  0  0  0  0  0  0  0  0  0
    3.0546   -3.3265   -0.3097 C   0  0  0  0  0  0  0  0  0  0  0  0
    2.9841   -2.3336   -1.2232 N   0  0  0  0  0  0  0  0  0  0  0  0
    2.9896   -1.0672   -0.7363 C   0  0  0  0  0  0  0  0  0  0  0  0
   -0.4957    0.0938    0.4928 C   0  0  0  0  0  0  0  0  0  0  0  0
    0.0404   -0.1320    1.5682 O   0  0  0  0  0  0  0  0  0  0  0  0
   -1.6785   -0.4889   -0.0062 N   0  0  0  0  0  0  0  0  0  0  0  0
   -2.1961   -1.6351    0.6762 C   0  0  0  0  0  0  0  0  0  0  0  0
   -2.4925   -2.8113   -0.0336 C   0  0  0  0  0  0  0  0  0  0  0  0
   -2.9723   -3.9418    0.6344 C   0  0  0  0  0  0  0  0  0  0  0  0
   -3.1448   -3.9038    2.0118 C   0  0  0  0  0  0  0  0  0  0  0  0
   -3.6015   -4.9883    2.6506 F   0  0  0  0  0  0  0  0  0  0  0  0
   -2.8381   -2.7603    2.7361 C   0  0  0  0  0  0  0  0  0  0  0  0
   -2.3571   -1.6299    2.0702 C   0  0  0  0  0  0  0  0  0  0  0  0
   -3.5867    1.5544   -5.6180 H   0  0  0  0  0  0  0  0  0  0  0  0
   -2.0186    0.8361   -5.2433 H   0  0  0  0  0  0  0  0  0  0  0  0
   -3.0773    0.0770   -6.4457 H   0  0  0  0  0  0  0  0  0  0  0  0
   -5.7429    0.4171   -4.8092 H   0  0  0  0  0  0  0  0  0  0  0  0
   -5.6647   -1.1287   -3.9645 H   0  0  0  0  0  0  0  0  0  0  0  0
   -5.2623   -1.0433   -5.6864 H   0  0  0  0  0  0  0  0  0  0  0  0
   -2.9439   -2.0968   -5.2488 H   0  0  0  0  0  0  0  0  0  0  0  0
   -3.4074   -2.2608   -3.5564 H   0  0  0  0  0  0  0  0  0  0  0  0
   -1.9058   -1.4293   -3.9845 H   0  0  0  0  0  0  0  0  0  0  0  0
    1.4324    2.4329   -1.2466 H   0  0  0  0  0  0  0  0  0  0  0  0
    2.2036    3.8305    1.3197 H   0  0  0  0  0  0  0  0  0  0  0  0
    3.1472    5.0268    2.8404 H   0  0  0  0  0  0  0  0  0  0  0  0
    4.3258    6.2714    4.5833 H   0  0  0  0  0  0  0  0  0  0  0  0
    6.0091    5.1524    6.0172 H   0  0  0  0  0  0  0  0  0  0  0  0
    6.5116    2.7438    5.6930 H   0  0  0  0  0  0  0  0  0  0  0  0
    5.3524    1.4561    3.9460 H   0  0  0  0  0  0  0  0  0  0  0  0
    3.1534   -1.6031    2.5916 H   0  0  0  0  0  0  0  0  0  0  0  0
    3.1789   -3.9474    1.7479 H   0  0  0  0  0  0  0  0  0  0  0  0
    3.0571   -4.3333   -0.7175 H   0  0  0  0  0  0  0  0  0  0  0  0
    2.9641   -0.2991   -1.5033 H   0  0  0  0  0  0  0  0  0  0  0  0
   -2.3216   -2.8830   -1.1041 H   0  0  0  0  0  0  0  0  0  0  0  0
   -3.2049   -4.8522    0.0921 H   0  0  0  0  0  0  0  0  0  0  0  0
   -2.9708   -2.7524    3.8129 H   0  0  0  0  0  0  0  0  0  0  0  0
   -2.1246   -0.7431    2.6563 H   0  0  0  0  0  0  0  0  0  0  0  0
  1  2  1  0
  2  3  1  0
  2  4  1  0
  2  5  1  0
  5  6  2  0
  5  7  1  0
  7  8  1  0
  8  9  3  0
  7 10  2  3
 10 11  1  0
 11 12  1  0
 12 13  2  3
 13 14  1  0
 14 15  2  0
 15 16  1  0
 16 17  1  0
 17 18  2  0
 18 19  1  0
 19 20  2  0
 20 21  1  0
 21 22  2  0
 16 23  1  0
 23 24  2  0
 24 25  1  0
 25 26  2  0
 26 27  1  0
 27 28  2  0
 28 29  1  0
 29 30  2  0
 12 31  1  0
 31 32  2  0
 31 33  1  0
 33 34  1  0
 34 35  2  0
 35 36  1  0
 36 37  2  0
 37 38  1  0
 37 39  1  0
 39 40  2  0
 33 10  1  0
 40 34  1  0
 24 14  1  0
 30 25  1  0
 22 17  1  0
  1 41  1  0
  1 42  1  0
  1 43  1  0
  3 44  1  0
  3 45  1  0
  3 46  1  0
  4 47  1  0
  4 48  1  0
  4 49  1  0
 13 50  1  0
 15 51  1  0
 18 52  1  0
 19 53  1  0
 20 54  1  0
 21 55  1  0
 22 56  1  0
 26 57  1  0
 27 58  1  0
 28 59  1  0
 30 60  1  0
 35 61  1  0
 36 62  1  0
 39 63  1  0
 40 64  1  0
M  END
$$$$
