
     RDKit          3D

 52 55  0  0  0  0  0  0  0  0999 V2000
   -3.9743    1.8434    1.1992 C   0  0  0  0  0  0  0  0  0  0  0  0
   -5.2092    1.2572    0.5697 C   0  0  0  0  0  0  0  0  0  0  0  0
   -6.2836    2.1319    0.3106 C   0  0  0  0  0  0  0  0  0  0  0  0
   -7.4888    1.6647   -0.2096 C   0  0  0  0  0  0  0  0  0  0  0  0
   -7.6463    0.3109   -0.4680 C   0  0  0  0  0  0  0  0  0  0  0  0
   -6.5874   -0.5663   -0.2302 C   0  0  0  0  0  0  0  0  0  0  0  0
   -5.3406   -0.1093    0.2454 C   0  0  0  0  0  0  0  0  0  0  0  0
   -4.3318   -1.0893    0.4635 N   0  0  0  0  0  0  0  0  0  0  0  0
   -2.9371   -0.8977    0.3114 C   0  0  0  0  0  0  0  0  0  0  0  0
   -2.1872   -0.9678    1.4318 N   0  0  0  0  0  0  0  0  0  0  0  0
   -0.8328   -0.8063    1.3801 N   0  0  0  0  0  0  0  0  0  0  0  0
   -0.2168   -0.5885    0.1973 C   0  0  0  0  0  0  0  0  0  0  0  0
    1.2384   -0.4026    0.3184 C   0  0  0  0  0  0  0  0  0  0  0  0
    2.0478   -1.4293    0.8348 C   0  0  0  0  0  0  0  0  0  0  0  0
    3.4320   -1.2652    0.9662 C   0  0  0  0  0  0  0  0  0  0  0  0
    4.0345   -0.0636    0.5779 C   0  0  0  0  0  0  0  0  0  0  0  0
    5.5024    0.1664    0.6935 C   0  0  0  0  0  0  0  0  0  0  0  0
    5.9452    1.3073    0.7738 O   0  0  0  0  0  0  0  0  0  0  0  0
    6.3109   -0.9509    0.6771 N   0  0  0  0  0  0  0  0  0  0  0  0
    7.7657   -0.8573    0.6248 C   0  0  0  0  0  0  0  0  0  0  0  0
    8.3925   -0.2175    1.8692 C   0  0  0  0  0  0  0  0  0  0  0  0
    8.3979    1.2036    1.7878 O   0  0  0  0  0  0  0  0  0  0  0  0
    3.2364    0.9782    0.0913 C   0  0  0  0  0  0  0  0  0  0  0  0
    1.8534    0.8102   -0.0347 C   0  0  0  0  0  0  0  0  0  0  0  0
   -0.9327   -0.5549   -1.0160 C   0  0  0  0  0  0  0  0  0  0  0  0
   -0.3188   -0.3947   -2.2855 C   0  0  0  0  0  0  0  0  0  0  0  0
   -1.0630   -0.3634   -3.4642 C   0  0  0  0  0  0  0  0  0  0  0  0
   -2.4404   -0.4959   -3.4079 C   0  0  0  0  0  0  0  0  0  0  0  0
   -3.0682   -0.6690   -2.1740 C   0  0  0  0  0  0  0  0  0  0  0  0
   -2.3389   -0.7081   -0.9573 C   0  0  0  0  0  0  0  0  0  0  0  0
   -3.1583    1.8953    0.4732 H   0  0  0  0  0  0  0  0  0  0  0  0
   -3.6724    1.2608    2.0743 H   0  0  0  0  0  0  0  0  0  0  0  0
   -4.1553    2.8633    1.5571 H   0  0  0  0  0  0  0  0  0  0  0  0
   -6.1901    3.1928    0.5355 H   0  0  0  0  0  0  0  0  0  0  0  0
   -8.3076    2.3559   -0.3909 H   0  0  0  0  0  0  0  0  0  0  0  0
   -8.5920   -0.0658   -0.8482 H   0  0  0  0  0  0  0  0  0  0  0  0
   -6.7447   -1.6238   -0.4291 H   0  0  0  0  0  0  0  0  0  0  0  0
   -4.5665   -1.9382   -0.0429 H   0  0  0  0  0  0  0  0  0  0  0  0
    1.5916   -2.3658    1.1557 H   0  0  0  0  0  0  0  0  0  0  0  0
    4.0103   -2.0730    1.4049 H   0  0  0  0  0  0  0  0  0  0  0  0
    5.9051   -1.8251    0.3730 H   0  0  0  0  0  0  0  0  0  0  0  0
    8.1271   -1.8861    0.5265 H   0  0  0  0  0  0  0  0  0  0  0  0
    8.0315   -0.2972   -0.2780 H   0  0  0  0  0  0  0  0  0  0  0  0
    7.8699   -0.5155    2.7837 H   0  0  0  0  0  0  0  0  0  0  0  0
    9.4378   -0.5301    1.9534 H   0  0  0  0  0  0  0  0  0  0  0  0
    7.4974    1.4732    1.4966 H   0  0  0  0  0  0  0  0  0  0  0  0
    3.6875    1.9299   -0.1854 H   0  0  0  0  0  0  0  0  0  0  0  0
    1.2539    1.6430   -0.3998 H   0  0  0  0  0  0  0  0  0  0  0  0
    0.7623   -0.3003   -2.3717 H   0  0  0  0  0  0  0  0  0  0  0  0
   -0.5640   -0.2357   -4.4219 H   0  0  0  0  0  0  0  0  0  0  0  0
   -3.0312   -0.4664   -4.3201 H   0  0  0  0  0  0  0  0  0  0  0  0
   -4.1515   -0.7670   -2.1742 H   0  0  0  0  0  0  0  0  0  0  0  0
  1  2  1  0
  2  3  2  0
  3  4  1  0
  4  5  2  0
  5  6  1  0
  6  7  2  0
  7  8  1  0
  8  9  1  0
  9 10  2  0
 10 11  1  0
 11 12  2  0
 12 13  1  0
 13 14  2  0
 14 15  1  0
 15 16  2  0
 16 17  1  0
 17 18  2  0
 17 19  1  0
 19 20  1  0
 20 21  1  0
 21 22  1  0
 16 23  1  0
 23 24  2  0
 12 25  1  0
 25 26  2  0
 26 27  1  0
 27 28  2  0
 28 29  1  0
 29 30  2  0
  7  2  1  0
 30  9  1  0
 24 13  1  0
 30 25  1  0
  1 31  1  0
  1 32  1  0
  1 33  1  0
  3 34  1  0
  4 35  1  0
  5 36  1  0
  6 37  1  0
  8 38  1  0
 14 39  1  0
 15 40  1  0
 19 41  1  0
 20 42  1  0
 20 43  1  0
 21 44  1  0
 21 45  1  0
 22 46  1  0
 23 47  1  0
 24 48  1  0
 26 49  1  0
 27 50  1  0
 28 51  1  0
 29 52  1  0
M  END
$$$$
