
     RDKit          3D

 39 42  0  0  0  0  0  0  0  0999 V2000
   -0.0239   -1.8743   -3.7842 N   0  0  0  0  0  0  0  0  0  0  0  0
    0.0823   -2.2760   -2.6996 C   0  0  0  0  0  0  0  0  0  0  0  0
    0.2007   -2.7736   -1.3218 C   0  0  0  0  0  0  0  0  0  0  0  0
   -1.0919   -2.1274   -0.2146 S   0  0  0  0  0  0  0  0  0  0  0  0
   -0.7160   -0.4031   -0.2334 C   0  0  0  0  0  0  0  0  0  0  0  0
    0.4857   -0.0884   -0.6021 N   0  0  0  0  0  0  0  0  0  0  0  0
    0.8396    1.2164   -0.5028 C   0  0  0  0  0  0  0  0  0  0  0  0
    0.0626    2.1735   -0.0065 C   0  0  0  0  0  0  0  0  0  0  0  0
    0.7961    3.7197    0.0155 S   0  0  0  0  0  0  0  0  0  0  0  0
    2.2816    3.0403   -0.6960 C   0  0  0  0  0  0  0  0  0  0  0  0
    3.6253    3.9665   -1.0272 S   0  0  0  0  0  0  0  0  0  0  0  0
    2.0856    1.6717   -0.8992 N   0  0  0  0  0  0  0  0  0  0  0  0
    3.0881    0.7538   -1.4442 C   0  0  0  0  0  0  0  0  0  0  0  0
    3.8188    0.0762   -0.3376 C   0  0  0  0  0  0  0  0  0  0  0  0
    4.8249    0.4721    0.5210 C   0  0  0  0  0  0  0  0  0  0  0  0
    5.0982   -0.6365    1.3573 C   0  0  0  0  0  0  0  0  0  0  0  0
    4.2492   -1.6393    0.9544 C   0  0  0  0  0  0  0  0  0  0  0  0
    3.4717   -1.2194   -0.0760 O   0  0  0  0  0  0  0  0  0  0  0  0
   -1.3013    1.8564    0.4323 C   0  0  0  0  0  0  0  0  0  0  0  0
   -2.0227    2.7402    0.8904 O   0  0  0  0  0  0  0  0  0  0  0  0
   -1.6683    0.5144    0.2353 N   0  0  0  0  0  0  0  0  0  0  0  0
   -3.0391    0.1663    0.4835 C   0  0  0  0  0  0  0  0  0  0  0  0
   -3.8022   -0.4959   -0.4943 C   0  0  0  0  0  0  0  0  0  0  0  0
   -5.1418   -0.8156   -0.2562 C   0  0  0  0  0  0  0  0  0  0  0  0
   -5.7270   -0.4638    0.9530 C   0  0  0  0  0  0  0  0  0  0  0  0
   -7.0105   -0.7707    1.1796 F   0  0  0  0  0  0  0  0  0  0  0  0
   -5.0013    0.2108    1.9252 C   0  0  0  0  0  0  0  0  0  0  0  0
   -3.6620    0.5319    1.6887 C   0  0  0  0  0  0  0  0  0  0  0  0
    1.1900   -2.5574   -0.9080 H   0  0  0  0  0  0  0  0  0  0  0  0
    0.1001   -3.8641   -1.3269 H   0  0  0  0  0  0  0  0  0  0  0  0
    3.8000    1.3001   -2.0707 H   0  0  0  0  0  0  0  0  0  0  0  0
    2.5972    0.0252   -2.1000 H   0  0  0  0  0  0  0  0  0  0  0  0
    5.3030    1.4420    0.5416 H   0  0  0  0  0  0  0  0  0  0  0  0
    5.8265   -0.6983    2.1538 H   0  0  0  0  0  0  0  0  0  0  0  0
    4.0858   -2.6568    1.2809 H   0  0  0  0  0  0  0  0  0  0  0  0
   -3.3796   -0.7428   -1.4658 H   0  0  0  0  0  0  0  0  0  0  0  0
   -5.7331   -1.3258   -1.0103 H   0  0  0  0  0  0  0  0  0  0  0  0
   -5.4807    0.4889    2.8587 H   0  0  0  0  0  0  0  0  0  0  0  0
   -3.1116    1.0626    2.4631 H   0  0  0  0  0  0  0  0  0  0  0  0
  1  2  3  0
  2  3  1  0
  3  4  1  0
  4  5  1  0
  5  6  2  0
  6  7  1  0
  7  8  2  0
  8  9  1  0
  9 10  1  0
 10 11  2  0
 10 12  1  0
 12 13  1  0
 13 14  1  0
 14 15  2  0
 15 16  1  0
 16 17  2  0
 17 18  1  0
  8 19  1  0
 19 20  2  0
 19 21  1  0
 21 22  1  0
 22 23  2  0
 23 24  1  0
 24 25  2  0
 25 26  1  0
 25 27  1  0
 27 28  2  0
 21  5  1  0
 28 22  1  0
 12  7  1  0
 18 14  1  0
  3 29  1  0
  3 30  1  0
 13 31  1  0
 13 32  1  0
 15 33  1  0
 16 34  1  0
 17 35  1  0
 23 36  1  0
 24 37  1  0
 27 38  1  0
 28 39  1  0
M  END
$$$$
