
     RDKit          3D

 46 49  0  0  0  0  0  0  0  0999 V2000
    5.2534   -0.1067    0.3095 C   0  0  0  0  0  0  0  0  0  0  0  0
    4.2963   -1.0057    0.5722 C   0  0  0  0  0  0  0  0  0  0  0  0
    2.7971   -0.8829    0.3880 C   0  0  0  0  0  0  0  0  0  0  0  0
    2.2356    0.4404   -0.2050 C   0  0  0  0  0  0  0  0  0  0  0  0
    1.2537    0.2005   -1.2919 N   0  0  0  0  0  0  0  0  0  0  0  0
    1.9793   -0.4669   -2.3984 C   0  0  0  0  0  0  0  0  0  0  0  0
    2.5821   -1.8079   -1.9495 C   0  0  0  0  0  0  0  0  0  0  0  0
    2.2473   -2.0553   -0.4669 C   0  0  0  0  0  0  0  0  0  0  0  0
    0.7111   -2.0455   -0.3290 C   0  0  0  0  0  0  0  0  0  0  0  0
    0.1594   -0.6995   -0.8505 C   0  0  0  0  0  0  0  0  0  0  0  0
   -0.7909    0.0094    0.0836 C   0  0  0  0  0  0  0  0  0  0  0  0
   -0.6618   -0.0090    1.4530 N   0  0  0  0  0  0  0  0  0  0  0  0
   -1.6707    0.7017    2.0554 C   0  0  0  0  0  0  0  0  0  0  0  0
   -1.9284    0.9259    3.4132 C   0  0  0  0  0  0  0  0  0  0  0  0
   -3.0399    1.7072    3.7409 C   0  0  0  0  0  0  0  0  0  0  0  0
   -3.8563    2.2429    2.7483 C   0  0  0  0  0  0  0  0  0  0  0  0
   -3.5807    2.0093    1.3959 C   0  0  0  0  0  0  0  0  0  0  0  0
   -2.4664    1.2217    1.0390 C   0  0  0  0  0  0  0  0  0  0  0  0
   -1.9043    0.7927   -0.2069 C   0  0  0  0  0  0  0  0  0  0  0  0
   -2.4261    1.1321   -1.5679 C   0  0  0  0  0  0  0  0  0  0  0  0
   -3.5072    0.1617   -2.0371 C   0  0  0  0  0  0  0  0  0  0  0  0
   -3.9770    0.5203   -3.3341 O   0  0  0  0  0  0  0  0  0  0  0  0
    5.0564    0.8781   -0.0970 H   0  0  0  0  0  0  0  0  0  0  0  0
    6.2956   -0.3459    0.5055 H   0  0  0  0  0  0  0  0  0  0  0  0
    4.6224   -1.9585    0.9920 H   0  0  0  0  0  0  0  0  0  0  0  0
    2.3761   -0.9888    1.3983 H   0  0  0  0  0  0  0  0  0  0  0  0
    3.0193    1.0931   -0.6014 H   0  0  0  0  0  0  0  0  0  0  0  0
    1.7735    1.0314    0.5949 H   0  0  0  0  0  0  0  0  0  0  0  0
    1.3038   -0.6235   -3.2488 H   0  0  0  0  0  0  0  0  0  0  0  0
    2.7712    0.1921   -2.7764 H   0  0  0  0  0  0  0  0  0  0  0  0
    2.1744   -2.6204   -2.5630 H   0  0  0  0  0  0  0  0  0  0  0  0
    3.6669   -1.8030   -2.1044 H   0  0  0  0  0  0  0  0  0  0  0  0
    2.6466   -3.0211   -0.1367 H   0  0  0  0  0  0  0  0  0  0  0  0
    0.4331   -2.2549    0.7092 H   0  0  0  0  0  0  0  0  0  0  0  0
    0.2935   -2.8647   -0.9292 H   0  0  0  0  0  0  0  0  0  0  0  0
   -0.4445   -0.9391   -1.7385 H   0  0  0  0  0  0  0  0  0  0  0  0
    0.0759   -0.4724    1.9619 H   0  0  0  0  0  0  0  0  0  0  0  0
   -1.2917    0.5126    4.1883 H   0  0  0  0  0  0  0  0  0  0  0  0
   -3.2680    1.9009    4.7865 H   0  0  0  0  0  0  0  0  0  0  0  0
   -4.7147    2.8503    3.0238 H   0  0  0  0  0  0  0  0  0  0  0  0
   -4.2227    2.4355    0.6314 H   0  0  0  0  0  0  0  0  0  0  0  0
   -1.6097    1.1515   -2.3003 H   0  0  0  0  0  0  0  0  0  0  0  0
   -2.8276    2.1534   -1.5695 H   0  0  0  0  0  0  0  0  0  0  0  0
   -4.3627    0.1532   -1.3529 H   0  0  0  0  0  0  0  0  0  0  0  0
   -3.1171   -0.8600   -2.0936 H   0  0  0  0  0  0  0  0  0  0  0  0
   -4.3557    1.4136   -3.2684 H   0  0  0  0  0  0  0  0  0  0  0  0
  1  2  2  0
  2  3  1  0
  3  4  1  0
  4  5  1  0
  5  6  1  0
  6  7  1  0
  7  8  1  0
  8  9  1  0
  9 10  1  0
 10 11  1  0
 11 12  1  0
 12 13  1  0
 13 14  2  0
 14 15  1  0
 15 16  2  0
 16 17  1  0
 17 18  2  0
 18 19  1  0
 19 20  1  0
 20 21  1  0
 21 22  1  0
  8  3  1  0
 19 11  2  0
 10  5  1  0
 18 13  1  0
  1 23  1  0
  1 24  1  0
  2 25  1  0
  3 26  1  0
  4 27  1  0
  4 28  1  0
  6 29  1  0
  6 30  1  0
  7 31  1  0
  7 32  1  0
  8 33  1  0
  9 34  1  0
  9 35  1  0
 10 36  1  0
 12 37  1  0
 14 38  1  0
 15 39  1  0
 16 40  1  0
 17 41  1  0
 20 42  1  0
 20 43  1  0
 21 44  1  0
 21 45  1  0
 22 46  1  0
M  END
$$$$
