
     RDKit          3D

 45 47  0  0  0  0  0  0  0  0999 V2000
    9.3847    1.3773   -1.5560 N   0  0  0  0  0  0  0  0  0  0  0  0
    8.4170    1.1291   -0.9650 C   0  0  0  0  0  0  0  0  0  0  0  0
    7.2205    0.8288   -0.2347 C   0  0  0  0  0  0  0  0  0  0  0  0
    5.9686    1.0021   -0.8331 C   0  0  0  0  0  0  0  0  0  0  0  0
    4.7977    0.7094   -0.1229 C   0  0  0  0  0  0  0  0  0  0  0  0
    4.8716    0.2464    1.1912 C   0  0  0  0  0  0  0  0  0  0  0  0
    3.8156   -0.0815    1.9933 O   0  0  0  0  0  0  0  0  0  0  0  0
    2.5109    0.2959    1.5780 C   0  0  0  0  0  0  0  0  0  0  0  0
    1.8142   -0.6565    0.5873 C   0  0  0  0  0  0  0  0  0  0  0  0
    2.3946   -1.6302    0.1054 O   0  0  0  0  0  0  0  0  0  0  0  0
    0.4974   -0.3569    0.2562 N   0  0  0  0  0  0  0  0  0  0  0  0
   -0.2386   -1.2429   -0.6499 C   0  0  0  0  0  0  0  0  0  0  0  0
   -1.6822   -1.5101   -0.1806 C   0  0  0  0  0  0  0  0  0  0  0  0
   -2.4026   -0.2716    0.1767 N   0  0  0  0  0  0  0  0  0  0  0  0
   -3.7403   -0.1690   -0.1987 C   0  0  0  0  0  0  0  0  0  0  0  0
   -4.6083   -1.2538   -0.0680 C   0  0  0  0  0  0  0  0  0  0  0  0
   -5.9501   -1.1295   -0.4337 C   0  0  0  0  0  0  0  0  0  0  0  0
   -6.4188    0.0853   -0.9273 C   0  0  0  0  0  0  0  0  0  0  0  0
   -7.8464    0.3025   -1.3152 C   0  0  0  0  0  0  0  0  0  0  0  0
   -7.9915    1.1803   -2.3464 F   0  0  0  0  0  0  0  0  0  0  0  0
   -8.5925    0.8015   -0.2924 F   0  0  0  0  0  0  0  0  0  0  0  0
   -8.4725   -0.8405   -1.7115 F   0  0  0  0  0  0  0  0  0  0  0  0
   -5.5069    1.1221   -1.0058 C   0  0  0  0  0  0  0  0  0  0  0  0
   -4.2026    1.0166   -0.6544 N   0  0  0  0  0  0  0  0  0  0  0  0
   -1.6313    0.9790    0.1293 C   0  0  0  0  0  0  0  0  0  0  0  0
   -0.2568    0.7824    0.7956 C   0  0  0  0  0  0  0  0  0  0  0  0
    6.1259    0.0655    1.7818 C   0  0  0  0  0  0  0  0  0  0  0  0
    7.2971    0.3572    1.0774 C   0  0  0  0  0  0  0  0  0  0  0  0
    5.8934    1.3557   -1.8600 H   0  0  0  0  0  0  0  0  0  0  0  0
    3.8497    0.8319   -0.6359 H   0  0  0  0  0  0  0  0  0  0  0  0
    2.5093    1.3199    1.1871 H   0  0  0  0  0  0  0  0  0  0  0  0
    1.9037    0.3031    2.4904 H   0  0  0  0  0  0  0  0  0  0  0  0
   -0.2520   -0.7464   -1.6281 H   0  0  0  0  0  0  0  0  0  0  0  0
    0.2835   -2.1963   -0.7799 H   0  0  0  0  0  0  0  0  0  0  0  0
   -1.6566   -2.1518    0.7084 H   0  0  0  0  0  0  0  0  0  0  0  0
   -2.1910   -2.0645   -0.9789 H   0  0  0  0  0  0  0  0  0  0  0  0
   -4.2578   -2.1961    0.3408 H   0  0  0  0  0  0  0  0  0  0  0  0
   -6.6194   -1.9802   -0.3229 H   0  0  0  0  0  0  0  0  0  0  0  0
   -5.7975    2.1075   -1.3643 H   0  0  0  0  0  0  0  0  0  0  0  0
   -1.4927    1.2973   -0.9123 H   0  0  0  0  0  0  0  0  0  0  0  0
   -2.1516    1.7819    0.6666 H   0  0  0  0  0  0  0  0  0  0  0  0
   -0.3892    0.5969    1.8682 H   0  0  0  0  0  0  0  0  0  0  0  0
    0.3422    1.6915    0.6833 H   0  0  0  0  0  0  0  0  0  0  0  0
    6.1904   -0.3086    2.8015 H   0  0  0  0  0  0  0  0  0  0  0  0
    8.2612    0.2086    1.5594 H   0  0  0  0  0  0  0  0  0  0  0  0
  1  2  3  0
  2  3  1  0
  3  4  2  0
  4  5  1  0
  5  6  2  0
  6  7  1  0
  7  8  1  0
  8  9  1  0
  9 10  2  0
  9 11  1  0
 11 12  1  0
 12 13  1  0
 13 14  1  0
 14 15  1  0
 15 16  2  0
 16 17  1  0
 17 18  2  0
 18 19  1  0
 19 20  1  0
 19 21  1  0
 19 22  1  0
 18 23  1  0
 23 24  2  0
 14 25  1  0
 25 26  1  0
  6 27  1  0
 27 28  2  0
 28  3  1  0
 26 11  1  0
 24 15  1  0
  4 29  1  0
  5 30  1  0
  8 31  1  0
  8 32  1  0
 12 33  1  0
 12 34  1  0
 13 35  1  0
 13 36  1  0
 16 37  1  0
 17 38  1  0
 23 39  1  0
 25 40  1  0
 25 41  1  0
 26 42  1  0
 26 43  1  0
 27 44  1  0
 28 45  1  0
M  END
$$$$
