
     RDKit          3D

 45 47  0  0  0  0  0  0  0  0999 V2000
    5.3920   -3.0384   -1.6446 C   0  0  0  0  0  0  0  0  0  0  0  0
    4.8876   -1.7060   -2.1392 C   0  0  0  0  0  0  0  0  0  0  0  0
    5.7331   -0.7338   -2.2695 N   0  0  0  0  0  0  0  0  0  0  0  0
    3.4101   -1.5820   -2.4446 C   0  0  0  0  0  0  0  0  0  0  0  0
    3.2130   -1.6249   -3.8965 C   0  0  0  0  0  0  0  0  0  0  0  0
    3.0810   -1.7098   -5.0467 N   0  0  0  0  0  0  0  0  0  0  0  0
    2.7882   -0.3549   -1.8143 C   0  0  0  0  0  0  0  0  0  0  0  0
    2.0672    0.4283   -2.4363 O   0  0  0  0  0  0  0  0  0  0  0  0
    3.0533   -0.1516   -0.3185 C   0  0  0  0  0  0  0  0  0  0  0  0
    1.9090    0.3428    0.3750 O   0  0  0  0  0  0  0  0  0  0  0  0
    0.8809   -0.5416    0.3987 C   0  0  0  0  0  0  0  0  0  0  0  0
    0.9045   -1.6732   -0.0581 O   0  0  0  0  0  0  0  0  0  0  0  0
   -0.3177    0.1036    0.9593 C   0  0  0  0  0  0  0  0  0  0  0  0
   -1.4415    0.1219    0.1312 C   0  0  0  0  0  0  0  0  0  0  0  0
   -2.5962    0.7239    0.5983 C   0  0  0  0  0  0  0  0  0  0  0  0
   -3.8404    0.8132   -0.1948 C   0  0  0  0  0  0  0  0  0  0  0  0
   -5.0974    0.8024    0.4416 C   0  0  0  0  0  0  0  0  0  0  0  0
   -6.2895    0.8808   -0.2851 C   0  0  0  0  0  0  0  0  0  0  0  0
   -6.2519    0.9772   -1.6726 C   0  0  0  0  0  0  0  0  0  0  0  0
   -5.0217    1.0003   -2.3221 C   0  0  0  0  0  0  0  0  0  0  0  0
   -4.9634    1.1452   -4.2072 Br  0  0  0  0  0  0  0  0  0  0  0  0
   -3.8284    0.9214   -1.5980 C   0  0  0  0  0  0  0  0  0  0  0  0
   -2.6514    1.2671    1.8395 N   0  0  0  0  0  0  0  0  0  0  0  0
   -1.5730    1.2360    2.6406 C   0  0  0  0  0  0  0  0  0  0  0  0
   -1.6794    1.7986    3.9055 C   0  0  0  0  0  0  0  0  0  0  0  0
   -0.6149    1.7965    4.8093 C   0  0  0  0  0  0  0  0  0  0  0  0
    0.5909    1.2148    4.4477 C   0  0  0  0  0  0  0  0  0  0  0  0
    0.7244    0.6445    3.1831 C   0  0  0  0  0  0  0  0  0  0  0  0
   -0.3516    0.6546    2.2575 C   0  0  0  0  0  0  0  0  0  0  0  0
    6.4751   -3.0117   -1.4973 H   0  0  0  0  0  0  0  0  0  0  0  0
    4.9075   -3.2774   -0.6940 H   0  0  0  0  0  0  0  0  0  0  0  0
    5.1496   -3.8129   -2.3773 H   0  0  0  0  0  0  0  0  0  0  0  0
    5.3251    0.1227   -2.6674 H   0  0  0  0  0  0  0  0  0  0  0  0
    2.8960   -2.4444   -2.0021 H   0  0  0  0  0  0  0  0  0  0  0  0
    3.3921   -1.0811    0.1526 H   0  0  0  0  0  0  0  0  0  0  0  0
    3.8557    0.5859   -0.2179 H   0  0  0  0  0  0  0  0  0  0  0  0
   -1.4003   -0.3342   -0.8531 H   0  0  0  0  0  0  0  0  0  0  0  0
   -5.1518    0.7300    1.5277 H   0  0  0  0  0  0  0  0  0  0  0  0
   -7.2433    0.8684    0.2362 H   0  0  0  0  0  0  0  0  0  0  0  0
   -7.1801    1.0397   -2.2339 H   0  0  0  0  0  0  0  0  0  0  0  0
   -2.8854    0.9649   -2.1380 H   0  0  0  0  0  0  0  0  0  0  0  0
   -2.6240    2.2525    4.1987 H   0  0  0  0  0  0  0  0  0  0  0  0
   -0.7359    2.2467    5.7913 H   0  0  0  0  0  0  0  0  0  0  0  0
    1.4245    1.2038    5.1456 H   0  0  0  0  0  0  0  0  0  0  0  0
    1.6784    0.1898    2.9273 H   0  0  0  0  0  0  0  0  0  0  0  0
  1  2  1  0
  2  3  2  3
  2  4  1  0
  4  5  1  0
  5  6  3  0
  4  7  1  0
  7  8  2  0
  7  9  1  0
  9 10  1  0
 10 11  1  0
 11 12  2  0
 11 13  1  0
 13 14  2  0
 14 15  1  0
 15 16  1  0
 16 17  2  0
 17 18  1  0
 18 19  2  0
 19 20  1  0
 20 21  1  0
 20 22  2  0
 15 23  2  0
 23 24  1  0
 24 25  2  0
 25 26  1  0
 26 27  2  0
 27 28  1  0
 28 29  2  0
 29 13  1  0
 22 16  1  0
 29 24  1  0
  1 30  1  0
  1 31  1  0
  1 32  1  0
  3 33  1  0
  4 34  1  0
  9 35  1  0
  9 36  1  0
 14 37  1  0
 17 38  1  0
 18 39  1  0
 19 40  1  0
 22 41  1  0
 25 42  1  0
 26 43  1  0
 27 44  1  0
 28 45  1  0
M  END
$$$$
