
     RDKit          3D

 44 47  0  0  0  0  0  0  0  0999 V2000
    1.4937    1.4066    1.6008 C   0  0  0  0  0  0  0  0  0  0  0  0
    1.6697    0.8110    0.2004 C   0  0  0  0  0  0  0  0  0  0  0  0
    1.2876   -0.6061    0.1834 N   0  0  0  0  0  0  0  0  0  0  0  0
   -0.0920   -0.8940    0.0924 C   0  0  0  0  0  0  0  0  0  0  0  0
   -0.9685    0.1217    0.0513 N   0  0  0  0  0  0  0  0  0  0  0  0
   -2.2748   -0.1791   -0.0426 C   0  0  0  0  0  0  0  0  0  0  0  0
   -3.2363    0.9429   -0.0905 C   0  0  0  0  0  0  0  0  0  0  0  0
   -2.8107    2.2825    0.0098 C   0  0  0  0  0  0  0  0  0  0  0  0
   -3.7187    3.3458   -0.0352 C   0  0  0  0  0  0  0  0  0  0  0  0
   -5.0791    3.0941   -0.1820 C   0  0  0  0  0  0  0  0  0  0  0  0
   -5.5312    1.7822   -0.2831 C   0  0  0  0  0  0  0  0  0  0  0  0
   -4.6199    0.7218   -0.2373 C   0  0  0  0  0  0  0  0  0  0  0  0
   -2.7648   -1.4284   -0.1023 N   0  0  0  0  0  0  0  0  0  0  0  0
   -1.8913   -2.4357   -0.0418 C   0  0  0  0  0  0  0  0  0  0  0  0
   -2.3752   -3.7381   -0.0852 C   0  0  0  0  0  0  0  0  0  0  0  0
   -1.5266   -4.8464   -0.0161 C   0  0  0  0  0  0  0  0  0  0  0  0
   -0.1572   -4.6575    0.1041 C   0  0  0  0  0  0  0  0  0  0  0  0
    0.3512   -3.3614    0.1472 C   0  0  0  0  0  0  0  0  0  0  0  0
   -0.5102   -2.2365    0.0661 C   0  0  0  0  0  0  0  0  0  0  0  0
    3.1256    0.9145   -0.2452 C   0  0  0  0  0  0  0  0  0  0  0  0
    3.4625    1.6751   -1.3762 C   0  0  0  0  0  0  0  0  0  0  0  0
    4.7898    1.7721   -1.7990 C   0  0  0  0  0  0  0  0  0  0  0  0
    5.7965    1.1092   -1.1000 C   0  0  0  0  0  0  0  0  0  0  0  0
    5.4783    0.3467    0.0214 C   0  0  0  0  0  0  0  0  0  0  0  0
    4.1523    0.2482    0.4458 C   0  0  0  0  0  0  0  0  0  0  0  0
    1.8610    2.4385    1.6352 H   0  0  0  0  0  0  0  0  0  0  0  0
    0.4412    1.4205    1.9012 H   0  0  0  0  0  0  0  0  0  0  0  0
    2.0357    0.8328    2.3611 H   0  0  0  0  0  0  0  0  0  0  0  0
    1.0636    1.3850   -0.5127 H   0  0  0  0  0  0  0  0  0  0  0  0
    1.7537   -1.0877   -0.5827 H   0  0  0  0  0  0  0  0  0  0  0  0
   -1.7522    2.5085    0.1279 H   0  0  0  0  0  0  0  0  0  0  0  0
   -3.3592    4.3683    0.0460 H   0  0  0  0  0  0  0  0  0  0  0  0
   -5.7860    3.9187   -0.2166 H   0  0  0  0  0  0  0  0  0  0  0  0
   -6.5927    1.5784   -0.3969 H   0  0  0  0  0  0  0  0  0  0  0  0
   -5.0017   -0.2951   -0.3182 H   0  0  0  0  0  0  0  0  0  0  0  0
   -3.4483   -3.8963   -0.1715 H   0  0  0  0  0  0  0  0  0  0  0  0
   -1.9414   -5.8505   -0.0497 H   0  0  0  0  0  0  0  0  0  0  0  0
    0.5121   -5.5114    0.1694 H   0  0  0  0  0  0  0  0  0  0  0  0
    1.4244   -3.2230    0.2593 H   0  0  0  0  0  0  0  0  0  0  0  0
    2.6919    2.1994   -1.9376 H   0  0  0  0  0  0  0  0  0  0  0  0
    5.0381    2.3660   -2.6749 H   0  0  0  0  0  0  0  0  0  0  0  0
    6.8291    1.1864   -1.4300 H   0  0  0  0  0  0  0  0  0  0  0  0
    6.2622   -0.1726    0.5666 H   0  0  0  0  0  0  0  0  0  0  0  0
    3.9177   -0.3571    1.3195 H   0  0  0  0  0  0  0  0  0  0  0  0
  1  2  1  0
  2  3  1  0
  3  4  1  0
  4  5  2  0
  5  6  1  0
  6  7  1  0
  7  8  2  0
  8  9  1  0
  9 10  2  0
 10 11  1  0
 11 12  2  0
  6 13  2  0
 13 14  1  0
 14 15  2  0
 15 16  1  0
 16 17  2  0
 17 18  1  0
 18 19  2  0
  2 20  1  0
 20 21  2  0
 21 22  1  0
 22 23  2  0
 23 24  1  0
 24 25  2  0
 19  4  1  0
 25 20  1  0
 12  7  1  0
 19 14  1  0
  1 26  1  0
  1 27  1  0
  1 28  1  0
  2 29  1  0
  3 30  1  0
  8 31  1  0
  9 32  1  0
 10 33  1  0
 11 34  1  0
 12 35  1  0
 15 36  1  0
 16 37  1  0
 17 38  1  0
 18 39  1  0
 21 40  1  0
 22 41  1  0
 23 42  1  0
 24 43  1  0
 25 44  1  0
M  END
$$$$
