
     RDKit          3D

 67 72  0  0  0  0  0  0  0  0999 V2000
    2.2726    0.5421   -2.5790 O   0  0  0  0  0  0  0  0  0  0  0  0
    2.2819    0.1342   -1.4164 C   0  0  0  0  0  0  0  0  0  0  0  0
    1.0007    0.1238   -0.5881 C   0  0  0  0  0  0  0  0  0  0  0  0
    0.9569    1.3452    0.3515 C   0  0  0  0  0  0  0  0  0  0  0  0
   -0.3107    2.1785    0.1859 C   0  0  0  0  0  0  0  0  0  0  0  0
   -1.5702    1.3118    0.2033 C   0  0  0  0  0  0  0  0  0  0  0  0
   -1.4321    0.1526   -0.6805 N   0  0  0  0  0  0  0  0  0  0  0  0
   -2.6140   -0.4099   -1.1679 C   0  0  0  0  0  0  0  0  0  0  0  0
   -2.6011   -1.0665   -2.3665 N   0  0  0  0  0  0  0  0  0  0  0  0
   -3.7365   -1.6212   -2.8382 C   0  0  0  0  0  0  0  0  0  0  0  0
   -4.9554   -1.6364   -2.2718 N   0  0  0  0  0  0  0  0  0  0  0  0
   -4.9364   -1.0004   -1.0896 C   0  0  0  0  0  0  0  0  0  0  0  0
   -3.8567   -0.3840   -0.4806 C   0  0  0  0  0  0  0  0  0  0  0  0
   -4.2437    0.1448    0.7374 N   0  0  0  0  0  0  0  0  0  0  0  0
   -5.5220   -0.1536    0.8742 C   0  0  0  0  0  0  0  0  0  0  0  0
   -5.9924   -0.8261   -0.2290 N   0  0  0  0  0  0  0  0  0  0  0  0
   -7.3342   -1.2813   -0.5214 C   0  0  0  0  0  0  0  0  0  0  0  0
   -8.4766   -0.8207    0.3902 C   0  0  0  0  0  0  0  0  0  0  0  0
   -8.4587    0.6800    0.6747 C   0  0  0  0  0  0  0  0  0  0  0  0
   -7.4950    1.1091    1.7876 C   0  0  0  0  0  0  0  0  0  0  0  0
   -6.3420    0.1533    2.0764 C   0  0  0  0  0  0  0  0  0  0  0  0
   -0.2290    0.0577   -1.5098 C   0  0  0  0  0  0  0  0  0  0  0  0
    3.4584   -0.2785   -0.8061 N   0  0  0  0  0  0  0  0  0  0  0  0
    4.7266   -0.1521   -1.5393 C   0  0  0  0  0  0  0  0  0  0  0  0
    5.6074    0.9470   -0.9112 C   0  0  0  0  0  0  0  0  0  0  0  0
    5.8179    0.6879    0.5413 N   0  0  0  0  0  0  0  0  0  0  0  0
    6.9547   -0.0481    0.8864 C   0  0  0  0  0  0  0  0  0  0  0  0
    8.2185    0.3524    0.4173 C   0  0  0  0  0  0  0  0  0  0  0  0
    9.3886   -0.3420    0.7445 C   0  0  0  0  0  0  0  0  0  0  0  0
    9.3257   -1.4564    1.5706 C   0  0  0  0  0  0  0  0  0  0  0  0
    8.0948   -1.8684    2.0666 C   0  0  0  0  0  0  0  0  0  0  0  0
    6.9282   -1.1677    1.7313 C   0  0  0  0  0  0  0  0  0  0  0  0
    4.5497    0.5045    1.2825 C   0  0  0  0  0  0  0  0  0  0  0  0
    3.6510   -0.5651    0.6240 C   0  0  0  0  0  0  0  0  0  0  0  0
    0.9861   -0.7950    0.0111 H   0  0  0  0  0  0  0  0  0  0  0  0
    1.8249    1.9989    0.1974 H   0  0  0  0  0  0  0  0  0  0  0  0
    1.0138    0.9971    1.3915 H   0  0  0  0  0  0  0  0  0  0  0  0
   -0.2550    2.7276   -0.7628 H   0  0  0  0  0  0  0  0  0  0  0  0
   -0.3692    2.9338    0.9781 H   0  0  0  0  0  0  0  0  0  0  0  0
   -2.4101    1.9504   -0.0975 H   0  0  0  0  0  0  0  0  0  0  0  0
   -1.7507    0.9639    1.2272 H   0  0  0  0  0  0  0  0  0  0  0  0
   -3.6517   -2.1180   -3.8005 H   0  0  0  0  0  0  0  0  0  0  0  0
   -7.5567   -0.9479   -1.5435 H   0  0  0  0  0  0  0  0  0  0  0  0
   -7.3007   -2.3777   -0.5358 H   0  0  0  0  0  0  0  0  0  0  0  0
   -8.4834   -1.3939    1.3241 H   0  0  0  0  0  0  0  0  0  0  0  0
   -9.4200   -1.0683   -0.1143 H   0  0  0  0  0  0  0  0  0  0  0  0
   -9.4688    1.0033    0.9562 H   0  0  0  0  0  0  0  0  0  0  0  0
   -8.2179    1.2245   -0.2466 H   0  0  0  0  0  0  0  0  0  0  0  0
   -7.1035    2.1040    1.5439 H   0  0  0  0  0  0  0  0  0  0  0  0
   -8.0675    1.2311    2.7154 H   0  0  0  0  0  0  0  0  0  0  0  0
   -5.6976    0.6040    2.8438 H   0  0  0  0  0  0  0  0  0  0  0  0
   -6.7099   -0.7807    2.5177 H   0  0  0  0  0  0  0  0  0  0  0  0
   -0.1825   -0.8945   -2.0533 H   0  0  0  0  0  0  0  0  0  0  0  0
   -0.2284    0.8562   -2.2628 H   0  0  0  0  0  0  0  0  0  0  0  0
    5.2326   -1.1236   -1.4819 H   0  0  0  0  0  0  0  0  0  0  0  0
    4.5558    0.0676   -2.5977 H   0  0  0  0  0  0  0  0  0  0  0  0
    6.5422    1.0301   -1.4747 H   0  0  0  0  0  0  0  0  0  0  0  0
    5.0986    1.9150   -1.0071 H   0  0  0  0  0  0  0  0  0  0  0  0
    8.3136    1.2506   -0.1875 H   0  0  0  0  0  0  0  0  0  0  0  0
   10.3467    0.0030    0.3664 H   0  0  0  0  0  0  0  0  0  0  0  0
   10.2313   -1.9960    1.8325 H   0  0  0  0  0  0  0  0  0  0  0  0
    8.0356   -2.7359    2.7188 H   0  0  0  0  0  0  0  0  0  0  0  0
    5.9977   -1.5381    2.1472 H   0  0  0  0  0  0  0  0  0  0  0  0
    4.7193    0.2780    2.3409 H   0  0  0  0  0  0  0  0  0  0  0  0
    4.0204    1.4655    1.2677 H   0  0  0  0  0  0  0  0  0  0  0  0
    4.1214   -1.5530    0.6845 H   0  0  0  0  0  0  0  0  0  0  0  0
    2.7069   -0.6282    1.1645 H   0  0  0  0  0  0  0  0  0  0  0  0
  1  2  2  0
  2  3  1  0
  3  4  1  0
  4  5  1  0
  5  6  1  0
  6  7  1  0
  7  8  1  0
  8  9  2  0
  9 10  1  0
 10 11  2  0
 11 12  1  0
 12 13  2  0
 13 14  1  0
 14 15  2  0
 15 16  1  0
 16 17  1  0
 17 18  1  0
 18 19  1  0
 19 20  1  0
 20 21  1  0
  7 22  1  0
  2 23  1  0
 23 24  1  0
 24 25  1  0
 25 26  1  0
 26 27  1  0
 27 28  2  0
 28 29  1  0
 29 30  2  0
 30 31  1  0
 31 32  2  0
 26 33  1  0
 33 34  1  0
 22  3  1  0
 34 23  1  0
 13  8  1  0
 21 15  1  0
 32 27  1  0
 16 12  1  0
  3 35  1  0
  4 36  1  0
  4 37  1  0
  5 38  1  0
  5 39  1  0
  6 40  1  0
  6 41  1  0
 10 42  1  0
 17 43  1  0
 17 44  1  0
 18 45  1  0
 18 46  1  0
 19 47  1  0
 19 48  1  0
 20 49  1  0
 20 50  1  0
 21 51  1  0
 21 52  1  0
 22 53  1  0
 22 54  1  0
 24 55  1  0
 24 56  1  0
 25 57  1  0
 25 58  1  0
 28 59  1  0
 29 60  1  0
 30 61  1  0
 31 62  1  0
 32 63  1  0
 33 64  1  0
 33 65  1  0
 34 66  1  0
 34 67  1  0
M  END
$$$$
