
     RDKit          3D

 36 37  0  0  0  0  0  0  0  0999 V2000
    1.9232    1.8146    0.1389 C   0  0  0  0  0  0  0  0  0  0  0  0
    1.6347    0.5984   -0.5539 O   0  0  0  0  0  0  0  0  0  0  0  0
    2.6319   -0.3485   -0.5349 C   0  0  0  0  0  0  0  0  0  0  0  0
    3.9722   -0.0754   -0.2342 C   0  0  0  0  0  0  0  0  0  0  0  0
    4.9275   -1.0960   -0.2430 C   0  0  0  0  0  0  0  0  0  0  0  0
    4.5536   -2.3986   -0.5528 C   0  0  0  0  0  0  0  0  0  0  0  0
    3.2243   -2.6814   -0.8618 C   0  0  0  0  0  0  0  0  0  0  0  0
    2.2543   -1.6630   -0.8664 C   0  0  0  0  0  0  0  0  0  0  0  0
    0.8298   -2.0140   -1.2200 C   0  0  0  0  0  0  0  0  0  0  0  0
   -0.1142   -1.9477   -0.0293 C   0  0  0  0  0  0  0  0  0  0  0  0
   -0.0742   -2.7842    0.8671 O   0  0  0  0  0  0  0  0  0  0  0  0
   -0.9750   -0.8623   -0.0853 N   0  0  0  0  0  0  0  0  0  0  0  0
   -2.0533   -0.6546    0.7544 C   0  0  0  0  0  0  0  0  0  0  0  0
   -2.4686   -1.4527    1.5912 O   0  0  0  0  0  0  0  0  0  0  0  0
   -2.8260    0.6104    0.5613 C   0  0  0  0  0  0  0  0  0  0  0  0
   -2.2690    1.7418   -0.0567 C   0  0  0  0  0  0  0  0  0  0  0  0
   -3.0331    2.9006   -0.2353 C   0  0  0  0  0  0  0  0  0  0  0  0
   -4.3557    2.9439    0.2025 C   0  0  0  0  0  0  0  0  0  0  0  0
   -4.9167    1.8342    0.8297 C   0  0  0  0  0  0  0  0  0  0  0  0
   -4.1532    0.6815    1.0198 C   0  0  0  0  0  0  0  0  0  0  0  0
   -4.7816   -0.3502    1.6683 O   0  0  0  0  0  0  0  0  0  0  0  0
    2.2501    1.6192    1.1670 H   0  0  0  0  0  0  0  0  0  0  0  0
    2.6636    2.4129   -0.4058 H   0  0  0  0  0  0  0  0  0  0  0  0
    1.0017    2.4047    0.1941 H   0  0  0  0  0  0  0  0  0  0  0  0
    4.3129    0.9263    0.0052 H   0  0  0  0  0  0  0  0  0  0  0  0
    5.9634   -0.8698   -0.0057 H   0  0  0  0  0  0  0  0  0  0  0  0
    5.2927   -3.1965   -0.5549 H   0  0  0  0  0  0  0  0  0  0  0  0
    2.9462   -3.7079   -1.0960 H   0  0  0  0  0  0  0  0  0  0  0  0
    0.7688   -3.0362   -1.6164 H   0  0  0  0  0  0  0  0  0  0  0  0
    0.4867   -1.3704   -2.0387 H   0  0  0  0  0  0  0  0  0  0  0  0
   -0.7880   -0.1924   -0.8145 H   0  0  0  0  0  0  0  0  0  0  0  0
   -1.2371    1.7640   -0.3867 H   0  0  0  0  0  0  0  0  0  0  0  0
   -2.5937    3.7774   -0.7070 H   0  0  0  0  0  0  0  0  0  0  0  0
   -4.9457    3.8469    0.0680 H   0  0  0  0  0  0  0  0  0  0  0  0
   -5.9444    1.8666    1.1821 H   0  0  0  0  0  0  0  0  0  0  0  0
   -4.1080   -1.0418    1.8665 H   0  0  0  0  0  0  0  0  0  0  0  0
  1  2  1  0
  2  3  1  0
  3  4  2  0
  4  5  1  0
  5  6  2  0
  6  7  1  0
  7  8  2  0
  8  9  1  0
  9 10  1  0
 10 11  2  0
 10 12  1  0
 12 13  1  0
 13 14  2  0
 13 15  1  0
 15 16  2  0
 16 17  1  0
 17 18  2  0
 18 19  1  0
 19 20  2  0
 20 21  1  0
  8  3  1  0
 20 15  1  0
  1 22  1  0
  1 23  1  0
  1 24  1  0
  4 25  1  0
  5 26  1  0
  6 27  1  0
  7 28  1  0
  9 29  1  0
  9 30  1  0
 12 31  1  0
 16 32  1  0
 17 33  1  0
 18 34  1  0
 19 35  1  0
 21 36  1  0
M  END
$$$$
