
     RDKit          3D

 50 53  0  0  0  0  0  0  0  0999 V2000
   -6.6351    3.1112    0.7629 C   0  0  0  0  0  0  0  0  0  0  0  0
   -5.4255    2.2285    0.6543 C   0  0  0  0  0  0  0  0  0  0  0  0
   -4.6128    1.9989    1.7687 C   0  0  0  0  0  0  0  0  0  0  0  0
   -3.5030    1.1532    1.6765 C   0  0  0  0  0  0  0  0  0  0  0  0
   -3.2024    0.5140    0.4678 C   0  0  0  0  0  0  0  0  0  0  0  0
   -1.9537   -0.4340    0.3734 C   0  0  0  0  0  0  0  0  0  0  0  0
   -1.0151   -0.6627    1.3733 C   0  0  0  0  0  0  0  0  0  0  0  0
   -0.0379   -1.5318    0.8887 N   0  0  0  0  0  4  0  0  0  0  0  0
    1.1402   -2.0288    1.6137 C   0  0  0  0  0  0  0  0  0  0  0  0
    2.4132   -1.8450    0.7832 C   0  0  0  0  0  0  0  0  0  0  0  0
    2.7700   -2.7397    0.0202 O   0  0  0  0  0  0  0  0  0  0  0  0
    2.9953   -0.5969    0.9333 N   0  0  0  0  0  0  0  0  0  0  0  0
    4.1643   -0.1060    0.2986 C   0  0  0  0  0  0  0  0  0  0  0  0
    4.9443   -0.8958   -0.5540 C   0  0  0  0  0  0  0  0  0  0  0  0
    6.0921   -0.3805   -1.1615 C   0  0  0  0  0  0  0  0  0  0  0  0
    6.4787    0.9318   -0.9258 C   0  0  0  0  0  0  0  0  0  0  0  0
    5.7191    1.7311   -0.0790 C   0  0  0  0  0  0  0  0  0  0  0  0
    4.5600    1.2297    0.5412 C   0  0  0  0  0  0  0  0  0  0  0  0
    3.7872    2.1588    1.4374 C   0  0  0  0  0  0  0  0  0  0  0  0
   -0.3827   -1.8670   -0.3554 C   0  0  0  0  0  0  0  0  0  0  0  0
   -1.5076   -1.2282   -0.6679 N   0  0  0  0  0  0  0  0  0  0  0  0
   -1.9667   -1.5637   -2.0117 C   0  0  0  0  0  0  0  0  0  0  0  0
   -1.1080   -2.8001   -2.3918 C   0  0  0  0  0  0  0  0  0  0  0  0
    0.1099   -2.7419   -1.4482 C   0  0  0  0  0  0  0  0  0  0  0  0
   -4.0170    0.7337   -0.6442 C   0  0  0  0  0  0  0  0  0  0  0  0
   -5.1255    1.5813   -0.5488 C   0  0  0  0  0  0  0  0  0  0  0  0
   -6.8500    3.5992   -0.1935 H   0  0  0  0  0  0  0  0  0  0  0  0
   -6.4749    3.9022    1.5028 H   0  0  0  0  0  0  0  0  0  0  0  0
   -7.5057    2.5188    1.0613 H   0  0  0  0  0  0  0  0  0  0  0  0
   -4.8413    2.4805    2.7194 H   0  0  0  0  0  0  0  0  0  0  0  0
   -2.9058    1.0109    2.5721 H   0  0  0  0  0  0  0  0  0  0  0  0
   -0.9110   -0.2969    2.3817 H   0  0  0  0  0  0  0  0  0  0  0  0
    1.2343   -1.5005    2.5671 H   0  0  0  0  0  0  0  0  0  0  0  0
    0.9955   -3.0924    1.8260 H   0  0  0  0  0  0  0  0  0  0  0  0
    2.5337    0.0595    1.5483 H   0  0  0  0  0  0  0  0  0  0  0  0
    4.6995   -1.9299   -0.7696 H   0  0  0  0  0  0  0  0  0  0  0  0
    6.6905   -1.0128   -1.8117 H   0  0  0  0  0  0  0  0  0  0  0  0
    7.3746    1.3302   -1.3958 H   0  0  0  0  0  0  0  0  0  0  0  0
    6.0421    2.7564    0.0954 H   0  0  0  0  0  0  0  0  0  0  0  0
    2.7806    2.3216    1.0374 H   0  0  0  0  0  0  0  0  0  0  0  0
    4.2713    3.1378    1.5192 H   0  0  0  0  0  0  0  0  0  0  0  0
    3.7174    1.7459    2.4496 H   0  0  0  0  0  0  0  0  0  0  0  0
   -1.7593   -0.7168   -2.6749 H   0  0  0  0  0  0  0  0  0  0  0  0
   -3.0313   -1.8131   -2.0139 H   0  0  0  0  0  0  0  0  0  0  0  0
   -0.8285   -2.8153   -3.4500 H   0  0  0  0  0  0  0  0  0  0  0  0
   -1.6823   -3.7118   -2.1826 H   0  0  0  0  0  0  0  0  0  0  0  0
    0.3819   -3.7136   -1.0333 H   0  0  0  0  0  0  0  0  0  0  0  0
    0.9590   -2.2276   -1.9054 H   0  0  0  0  0  0  0  0  0  0  0  0
   -3.8170    0.2775   -1.6049 H   0  0  0  0  0  0  0  0  0  0  0  0
   -5.7544    1.7400   -1.4248 H   0  0  0  0  0  0  0  0  0  0  0  0
  1  2  1  0
  2  3  2  0
  3  4  1  0
  4  5  2  0
  5  6  1  0
  6  7  2  0
  7  8  1  0
  8  9  1  0
  9 10  1  0
 10 11  2  0
 10 12  1  0
 12 13  1  0
 13 14  2  0
 14 15  1  0
 15 16  2  0
 16 17  1  0
 17 18  2  0
 18 19  1  0
  8 20  2  0
 20 21  1  0
 21 22  1  0
 22 23  1  0
 23 24  1  0
  5 25  1  0
 25 26  2  0
 26  2  1  0
 21  6  1  0
 18 13  1  0
 24 20  1  0
  1 27  1  0
  1 28  1  0
  1 29  1  0
  3 30  1  0
  4 31  1  0
  7 32  1  0
  9 33  1  0
  9 34  1  0
 12 35  1  0
 14 36  1  0
 15 37  1  0
 16 38  1  0
 17 39  1  0
 19 40  1  0
 19 41  1  0
 19 42  1  0
 22 43  1  0
 22 44  1  0
 23 45  1  0
 23 46  1  0
 24 47  1  0
 24 48  1  0
 25 49  1  0
 26 50  1  0
M  CHG  1   8   1
M  END
$$$$
