
     RDKit          3D

 40 43  0  0  0  0  0  0  0  0999 V2000
    7.7325    1.4132   -0.5876 C   0  0  0  0  0  0  0  0  0  0  0  0
    6.3292    0.9215   -0.5336 C   0  0  0  0  0  0  0  0  0  0  0  0
    5.5419    0.8112   -1.5819 N   0  0  0  0  0  0  0  0  0  0  0  0
    4.3029    0.3327   -1.1902 C   0  0  0  0  0  0  0  0  0  0  0  0
    3.2039    0.0980   -2.0370 C   0  0  0  0  0  0  0  0  0  0  0  0
    2.0054   -0.3894   -1.4994 C   0  0  0  0  0  0  0  0  0  0  0  0
    1.8796   -0.6555   -0.1319 C   0  0  0  0  0  0  0  0  0  0  0  0
    0.6315   -1.1458    0.3059 N   0  0  0  0  0  0  0  0  0  0  0  0
    0.2567   -1.4816    1.5974 C   0  0  0  0  0  0  0  0  0  0  0  0
    0.9668   -1.4362    2.5986 O   0  0  0  0  0  0  0  0  0  0  0  0
   -1.1755   -1.9914    1.6875 C   0  0  0  0  0  0  0  0  0  0  0  0
   -2.2071   -0.9925    1.2165 C   0  0  0  0  0  0  0  0  0  0  0  0
   -2.3084    0.2680    1.8262 C   0  0  0  0  0  0  0  0  0  0  0  0
   -3.2667    1.1888    1.3962 C   0  0  0  0  0  0  0  0  0  0  0  0
   -4.1389    0.8536    0.3640 C   0  0  0  0  0  0  0  0  0  0  0  0
   -4.0348   -0.3916   -0.2627 C   0  0  0  0  0  0  0  0  0  0  0  0
   -3.0857   -1.3174    0.1717 C   0  0  0  0  0  0  0  0  0  0  0  0
   -4.8373   -0.7788   -1.3039 O   0  0  0  0  0  0  0  0  0  0  0  0
   -5.5564    0.3307   -1.8574 C   0  0  0  0  0  0  0  0  0  0  0  0
   -6.1277    1.2096   -0.7580 C   0  0  0  0  0  0  0  0  0  0  0  0
   -5.0739    1.7941    0.0143 O   0  0  0  0  0  0  0  0  0  0  0  0
    2.9651   -0.4268    0.7221 C   0  0  0  0  0  0  0  0  0  0  0  0
    4.1632    0.0709    0.1731 C   0  0  0  0  0  0  0  0  0  0  0  0
    5.6414    0.4592    0.9702 S   0  0  0  0  0  0  0  0  0  0  0  0
    8.4149    0.7179   -0.0858 H   0  0  0  0  0  0  0  0  0  0  0  0
    8.0610    1.5153   -1.6277 H   0  0  0  0  0  0  0  0  0  0  0  0
    7.8146    2.3966   -0.1085 H   0  0  0  0  0  0  0  0  0  0  0  0
    3.2942    0.3010   -3.1002 H   0  0  0  0  0  0  0  0  0  0  0  0
    1.1727   -0.5570   -2.1793 H   0  0  0  0  0  0  0  0  0  0  0  0
   -0.0890   -1.2218   -0.4026 H   0  0  0  0  0  0  0  0  0  0  0  0
   -1.2346   -2.9202    1.1060 H   0  0  0  0  0  0  0  0  0  0  0  0
   -1.3921   -2.2590    2.7295 H   0  0  0  0  0  0  0  0  0  0  0  0
   -1.6440    0.5396    2.6451 H   0  0  0  0  0  0  0  0  0  0  0  0
   -3.3425    2.1603    1.8774 H   0  0  0  0  0  0  0  0  0  0  0  0
   -3.0388   -2.2894   -0.3144 H   0  0  0  0  0  0  0  0  0  0  0  0
   -6.3650   -0.0759   -2.4734 H   0  0  0  0  0  0  0  0  0  0  0  0
   -4.8777    0.8925   -2.5114 H   0  0  0  0  0  0  0  0  0  0  0  0
   -6.7161    2.0262   -1.1915 H   0  0  0  0  0  0  0  0  0  0  0  0
   -6.7792    0.6398   -0.0859 H   0  0  0  0  0  0  0  0  0  0  0  0
    2.9142   -0.6109    1.7896 H   0  0  0  0  0  0  0  0  0  0  0  0
  1  2  1  0
  2  3  2  0
  3  4  1  0
  4  5  2  0
  5  6  1  0
  6  7  2  0
  7  8  1  0
  8  9  1  0
  9 10  2  0
  9 11  1  0
 11 12  1  0
 12 13  2  0
 13 14  1  0
 14 15  2  0
 15 16  1  0
 16 17  2  0
 16 18  1  0
 18 19  1  0
 19 20  1  0
 20 21  1  0
  7 22  1  0
 22 23  2  0
 23 24  1  0
 24  2  1  0
 23  4  1  0
 17 12  1  0
 21 15  1  0
  1 25  1  0
  1 26  1  0
  1 27  1  0
  5 28  1  0
  6 29  1  0
  8 30  1  0
 11 31  1  0
 11 32  1  0
 13 33  1  0
 14 34  1  0
 17 35  1  0
 19 36  1  0
 19 37  1  0
 20 38  1  0
 20 39  1  0
 22 40  1  0
M  END
$$$$
