
     RDKit          3D

 36 37  0  0  0  0  0  0  0  0999 V2000
    5.8824   -2.7958   -1.1501 C   0  0  0  0  0  0  0  0  0  0  0  0
    4.7999   -2.8327   -0.2280 O   0  0  0  0  0  0  0  0  0  0  0  0
    3.9588   -1.7545   -0.2157 C   0  0  0  0  0  0  0  0  0  0  0  0
    4.0463   -0.6353   -1.0474 C   0  0  0  0  0  0  0  0  0  0  0  0
    3.1151    0.4027   -0.9309 C   0  0  0  0  0  0  0  0  0  0  0  0
    2.0898    0.3111    0.0146 C   0  0  0  0  0  0  0  0  0  0  0  0
    0.9219    1.6420    0.1811 S   0  0  0  0  0  6  0  0  0  0  0  0
    0.4034    1.6058    1.5327 O   0  0  0  0  0  0  0  0  0  0  0  0
    1.5238    2.8313   -0.3841 O   0  0  0  0  0  0  0  0  0  0  0  0
   -0.3002    1.1193   -0.9267 N   0  0  0  0  0  0  0  0  0  0  0  0
   -1.7129    1.5086   -0.5851 N   0  0  0  0  0  0  0  0  0  0  0  0
   -2.3964    0.6528    0.1196 C   0  0  0  0  0  0  0  0  0  0  0  0
   -1.8663   -0.7031    0.5365 C   0  0  0  0  0  0  0  0  0  0  0  0
   -3.7793    1.0267    0.5454 C   0  0  0  0  0  0  0  0  0  0  0  0
   -4.3726    0.4572    1.6720 C   0  0  0  0  0  0  0  0  0  0  0  0
   -5.6548    0.8589    2.0051 C   0  0  0  0  0  0  0  0  0  0  0  0
   -6.3623    1.7694    1.3041 N   0  0  0  0  0  0  0  0  0  0  0  0
   -5.7578    2.3187    0.2293 C   0  0  0  0  0  0  0  0  0  0  0  0
   -4.4813    1.9863   -0.1861 C   0  0  0  0  0  0  0  0  0  0  0  0
    2.0041   -0.7944    0.8617 C   0  0  0  0  0  0  0  0  0  0  0  0
    2.9366   -1.8258    0.7368 C   0  0  0  0  0  0  0  0  0  0  0  0
    5.5199   -2.7667   -2.1824 H   0  0  0  0  0  0  0  0  0  0  0  0
    6.5503   -1.9539   -0.9409 H   0  0  0  0  0  0  0  0  0  0  0  0
    6.4594   -3.7171   -1.0259 H   0  0  0  0  0  0  0  0  0  0  0  0
    4.8299   -0.5372   -1.7924 H   0  0  0  0  0  0  0  0  0  0  0  0
    3.2034    1.2754   -1.5746 H   0  0  0  0  0  0  0  0  0  0  0  0
   -0.0365    1.5326   -1.8288 H   0  0  0  0  0  0  0  0  0  0  0  0
   -2.6787   -1.4260    0.6515 H   0  0  0  0  0  0  0  0  0  0  0  0
   -1.1910   -1.1098   -0.2206 H   0  0  0  0  0  0  0  0  0  0  0  0
   -1.3334   -0.6080    1.4857 H   0  0  0  0  0  0  0  0  0  0  0  0
   -3.8614   -0.2629    2.2990 H   0  0  0  0  0  0  0  0  0  0  0  0
   -6.1622    0.4505    2.8748 H   0  0  0  0  0  0  0  0  0  0  0  0
   -6.3462    3.0596   -0.3051 H   0  0  0  0  0  0  0  0  0  0  0  0
   -4.0513    2.4673   -1.0580 H   0  0  0  0  0  0  0  0  0  0  0  0
    1.2261   -0.8614    1.6181 H   0  0  0  0  0  0  0  0  0  0  0  0
    2.8733   -2.6916    1.3924 H   0  0  0  0  0  0  0  0  0  0  0  0
  1  2  1  0
  2  3  1  0
  3  4  2  0
  4  5  1  0
  5  6  2  0
  6  7  1  0
  7  8  2  0
  7  9  2  0
  7 10  1  0
 10 11  1  0
 11 12  2  3
 12 13  1  0
 12 14  1  0
 14 15  2  0
 15 16  1  0
 16 17  2  0
 17 18  1  0
 18 19  2  0
  6 20  1  0
 20 21  2  0
 21  3  1  0
 19 14  1  0
  1 22  1  0
  1 23  1  0
  1 24  1  0
  4 25  1  0
  5 26  1  0
 10 27  1  0
 13 28  1  0
 13 29  1  0
 13 30  1  0
 15 31  1  0
 16 32  1  0
 18 33  1  0
 19 34  1  0
 20 35  1  0
 21 36  1  0
M  END
$$$$
