
     RDKit          3D

 56 58  0  0  0  0  0  0  0  0999 V2000
   -9.3286    0.9740   -0.1070 C   0  0  0  0  0  0  0  0  0  0  0  0
   -8.2878    1.1106    0.8518 O   0  0  0  0  0  0  0  0  0  0  0  0
   -7.0256    0.7248    0.4710 C   0  0  0  0  0  0  0  0  0  0  0  0
   -6.6516    0.4457   -0.8497 C   0  0  0  0  0  0  0  0  0  0  0  0
   -5.3401    0.0663   -1.1472 C   0  0  0  0  0  0  0  0  0  0  0  0
   -4.3839   -0.0391   -0.1309 C   0  0  0  0  0  0  0  0  0  0  0  0
   -2.9645   -0.4415   -0.4493 C   0  0  0  0  0  0  0  0  0  0  0  0
   -2.0100    0.7559   -0.4303 C   0  0  0  0  0  0  0  0  0  0  0  0
   -0.6539    0.3866   -0.7958 N   0  0  0  0  0  0  0  0  0  0  0  0
    0.1704   -0.2608    0.0891 C   0  0  0  0  0  0  0  0  0  0  0  0
   -0.1860   -0.5882    1.2150 O   0  0  0  0  0  0  0  0  0  0  0  0
    1.5438   -0.5579   -0.4160 C   0  0  0  0  0  0  0  0  0  0  0  0
    2.4723   -0.9373    0.4832 C   0  0  0  0  0  0  0  0  0  0  0  0
    3.8921   -1.2861    0.1463 C   0  0  0  0  0  0  0  0  0  0  0  0
    4.2211   -0.8436   -1.2353 N   0  0  0  0  0  0  0  0  0  0  0  0
    5.7935   -1.2671   -1.7539 S   0  0  0  0  0  6  0  0  0  0  0  0
    6.0072   -0.6914   -3.0654 O   0  0  0  0  0  0  0  0  0  0  0  0
    5.9559   -2.6879   -1.5215 O   0  0  0  0  0  0  0  0  0  0  0  0
    6.8399   -0.3852   -0.6197 C   0  0  0  0  0  0  0  0  0  0  0  0
    6.8338    1.0147   -0.6411 C   0  0  0  0  0  0  0  0  0  0  0  0
    7.6525    1.7144    0.2449 C   0  0  0  0  0  0  0  0  0  0  0  0
    8.4665    1.0125    1.1311 C   0  0  0  0  0  0  0  0  0  0  0  0
    9.2554    1.6900    1.9770 F   0  0  0  0  0  0  0  0  0  0  0  0
    8.4799   -0.3796    1.1493 C   0  0  0  0  0  0  0  0  0  0  0  0
    7.6638   -1.0888    0.2671 C   0  0  0  0  0  0  0  0  0  0  0  0
    3.1627   -1.2564   -2.2003 C   0  0  0  0  0  0  0  0  0  0  0  0
    1.8725   -0.4983   -1.8803 C   0  0  0  0  0  0  0  0  0  0  0  0
   -4.7561    0.2493    1.1916 C   0  0  0  0  0  0  0  0  0  0  0  0
   -6.0669    0.6337    1.5008 C   0  0  0  0  0  0  0  0  0  0  0  0
   -6.5101    0.9312    2.7672 O   0  0  0  0  0  0  0  0  0  0  0  0
   -5.5687    0.8586    3.8301 C   0  0  0  0  0  0  0  0  0  0  0  0
  -10.2729    1.2215    0.3862 H   0  0  0  0  0  0  0  0  0  0  0  0
   -9.1950    1.6766   -0.9363 H   0  0  0  0  0  0  0  0  0  0  0  0
   -9.4031   -0.0572   -0.4688 H   0  0  0  0  0  0  0  0  0  0  0  0
   -7.3577    0.5205   -1.6726 H   0  0  0  0  0  0  0  0  0  0  0  0
   -5.0753   -0.1468   -2.1820 H   0  0  0  0  0  0  0  0  0  0  0  0
   -2.9259   -0.9282   -1.4318 H   0  0  0  0  0  0  0  0  0  0  0  0
   -2.6431   -1.2075    0.2676 H   0  0  0  0  0  0  0  0  0  0  0  0
   -1.9848    1.2162    0.5666 H   0  0  0  0  0  0  0  0  0  0  0  0
   -2.3370    1.5220   -1.1433 H   0  0  0  0  0  0  0  0  0  0  0  0
   -0.2979    0.7219   -1.6786 H   0  0  0  0  0  0  0  0  0  0  0  0
    2.2118   -1.0090    1.5384 H   0  0  0  0  0  0  0  0  0  0  0  0
    4.0304   -2.3662    0.2607 H   0  0  0  0  0  0  0  0  0  0  0  0
    4.5418   -0.7662    0.8575 H   0  0  0  0  0  0  0  0  0  0  0  0
    6.2009    1.5553   -1.3423 H   0  0  0  0  0  0  0  0  0  0  0  0
    7.6671    2.7993    0.2485 H   0  0  0  0  0  0  0  0  0  0  0  0
    9.1304   -0.9009    1.8457 H   0  0  0  0  0  0  0  0  0  0  0  0
    7.6808   -2.1767    0.2732 H   0  0  0  0  0  0  0  0  0  0  0  0
    3.0003   -2.3404   -2.1346 H   0  0  0  0  0  0  0  0  0  0  0  0
    3.4547   -1.0207   -3.2316 H   0  0  0  0  0  0  0  0  0  0  0  0
    1.9869    0.5532   -2.1722 H   0  0  0  0  0  0  0  0  0  0  0  0
    1.0637   -0.9287   -2.4811 H   0  0  0  0  0  0  0  0  0  0  0  0
   -3.9994    0.1611    1.9669 H   0  0  0  0  0  0  0  0  0  0  0  0
   -4.7566    1.5818    3.6872 H   0  0  0  0  0  0  0  0  0  0  0  0
   -5.1813   -0.1617    3.9449 H   0  0  0  0  0  0  0  0  0  0  0  0
   -6.0883    1.1216    4.7597 H   0  0  0  0  0  0  0  0  0  0  0  0
  1  2  1  0
  2  3  1  0
  3  4  2  0
  4  5  1  0
  5  6  2  0
  6  7  1  0
  7  8  1  0
  8  9  1  0
  9 10  1  0
 10 11  2  0
 10 12  1  0
 12 13  2  0
 13 14  1  0
 14 15  1  0
 15 16  1  0
 16 17  2  0
 16 18  2  0
 16 19  1  0
 19 20  2  0
 20 21  1  0
 21 22  2  0
 22 23  1  0
 22 24  1  0
 24 25  2  0
 15 26  1  0
 26 27  1  0
  6 28  1  0
 28 29  2  0
 29 30  1  0
 30 31  1  0
 29  3  1  0
 27 12  1  0
 25 19  1  0
  1 32  1  0
  1 33  1  0
  1 34  1  0
  4 35  1  0
  5 36  1  0
  7 37  1  0
  7 38  1  0
  8 39  1  0
  8 40  1  0
  9 41  1  0
 13 42  1  0
 14 43  1  0
 14 44  1  0
 20 45  1  0
 21 46  1  0
 24 47  1  0
 25 48  1  0
 26 49  1  0
 26 50  1  0
 27 51  1  0
 27 52  1  0
 28 53  1  0
 31 54  1  0
 31 55  1  0
 31 56  1  0
M  END
$$$$
