
     RDKit          3D

 45 47  0  0  0  0  0  0  0  0999 V2000
    0.5430   -3.3531    0.9903 O   0  0  0  0  0  0  0  0  0  0  0  0
    0.8747   -2.3046    0.4512 C   0  0  0  0  0  0  0  0  0  0  0  0
    2.3058   -2.0383    0.1658 C   0  0  0  0  0  0  0  0  0  0  0  0
    2.8460   -0.8097    0.1507 C   0  0  0  0  0  0  0  0  0  0  0  0
    4.2708   -0.5501   -0.1022 C   0  0  0  0  0  0  0  0  0  0  0  0
    5.2878   -1.3868    0.4118 C   0  0  0  0  0  0  0  0  0  0  0  0
    6.6401   -1.1062    0.1822 C   0  0  0  0  0  0  0  0  0  0  0  0
    6.9453    0.0178   -0.5516 C   0  0  0  0  0  0  0  0  0  0  0  0
    5.9653    0.8461   -1.0428 C   0  0  0  0  0  0  0  0  0  0  0  0
    4.6248    0.5952   -0.8318 C   0  0  0  0  0  0  0  0  0  0  0  0
    6.4758    1.9016   -1.7323 O   0  0  0  0  0  0  0  0  0  0  0  0
    7.8907    1.6403   -1.6196 C   0  0  0  0  0  0  0  0  0  0  0  0
    8.1954    0.4463   -0.8694 O   0  0  0  0  0  0  0  0  0  0  0  0
   -0.0018   -1.3460    0.0078 N   0  0  0  0  0  0  0  0  0  0  0  0
   -1.4313   -1.5772    0.0586 C   0  0  0  0  0  0  0  0  0  0  0  0
   -2.2100   -0.2726   -0.0712 C   0  0  0  0  0  0  0  0  0  0  0  0
   -3.7200   -0.5312   -0.0095 C   0  0  0  0  0  0  0  0  0  0  0  0
   -4.5139    0.6845   -0.2445 N   0  0  0  0  0  0  0  0  0  0  0  0
   -5.9579    0.3787   -0.3675 C   0  0  0  0  0  0  0  0  0  0  0  0
   -6.7538    0.6483    0.9190 C   0  0  0  0  0  0  0  0  0  0  0  0
   -6.6823    2.0136    1.3513 O   0  0  0  0  0  0  0  0  0  0  0  0
   -5.4813    2.6738    0.9291 C   0  0  0  0  0  0  0  0  0  0  0  0
   -4.2915    1.7101    0.8009 C   0  0  0  0  0  0  0  0  0  0  0  0
    2.8976   -2.9368    0.0266 H   0  0  0  0  0  0  0  0  0  0  0  0
    2.2373    0.0722    0.3341 H   0  0  0  0  0  0  0  0  0  0  0  0
    5.0347   -2.2608    1.0089 H   0  0  0  0  0  0  0  0  0  0  0  0
    7.4215   -1.7474    0.5741 H   0  0  0  0  0  0  0  0  0  0  0  0
    3.8782    1.2720   -1.2330 H   0  0  0  0  0  0  0  0  0  0  0  0
    8.3095    1.5380   -2.6273 H   0  0  0  0  0  0  0  0  0  0  0  0
    8.3666    2.4955   -1.1260 H   0  0  0  0  0  0  0  0  0  0  0  0
    0.3424   -0.6707   -0.6616 H   0  0  0  0  0  0  0  0  0  0  0  0
   -1.6773   -2.0805    1.0007 H   0  0  0  0  0  0  0  0  0  0  0  0
   -1.6791   -2.2616   -0.7607 H   0  0  0  0  0  0  0  0  0  0  0  0
   -1.9525    0.2159   -1.0198 H   0  0  0  0  0  0  0  0  0  0  0  0
   -1.8998    0.4081    0.7306 H   0  0  0  0  0  0  0  0  0  0  0  0
   -3.9848   -0.9892    0.9523 H   0  0  0  0  0  0  0  0  0  0  0  0
   -3.9606   -1.2646   -0.7900 H   0  0  0  0  0  0  0  0  0  0  0  0
   -6.3530    1.0284   -1.1588 H   0  0  0  0  0  0  0  0  0  0  0  0
   -6.1276   -0.6502   -0.7062 H   0  0  0  0  0  0  0  0  0  0  0  0
   -7.8111    0.4109    0.7630 H   0  0  0  0  0  0  0  0  0  0  0  0
   -6.3955    0.0125    1.7370 H   0  0  0  0  0  0  0  0  0  0  0  0
   -5.2583    3.4501    1.6682 H   0  0  0  0  0  0  0  0  0  0  0  0
   -5.6813    3.1798   -0.0228 H   0  0  0  0  0  0  0  0  0  0  0  0
   -3.3903    2.2829    0.5572 H   0  0  0  0  0  0  0  0  0  0  0  0
   -4.1385    1.2317    1.7773 H   0  0  0  0  0  0  0  0  0  0  0  0
  1  2  2  0
  2  3  1  0
  3  4  2  3
  4  5  1  0
  5  6  2  0
  6  7  1  0
  7  8  2  0
  8  9  1  0
  9 10  2  0
  9 11  1  0
 11 12  1  0
 12 13  1  0
  2 14  1  0
 14 15  1  0
 15 16  1  0
 16 17  1  0
 17 18  1  0
 18 19  1  0
 19 20  1  0
 20 21  1  0
 21 22  1  0
 22 23  1  0
 10  5  1  0
 23 18  1  0
 13  8  1  0
  3 24  1  0
  4 25  1  0
  6 26  1  0
  7 27  1  0
 10 28  1  0
 12 29  1  0
 12 30  1  0
 14 31  1  0
 15 32  1  0
 15 33  1  0
 16 34  1  0
 16 35  1  0
 17 36  1  0
 17 37  1  0
 19 38  1  0
 19 39  1  0
 20 40  1  0
 20 41  1  0
 22 42  1  0
 22 43  1  0
 23 44  1  0
 23 45  1  0
M  END
$$$$
