
     RDKit          3D

 62 65  0  0  0  0  0  0  0  0999 V2000
   -8.7769   -0.3237   -1.0022 C   0  0  0  0  0  0  0  0  0  0  0  0
   -7.3988   -0.1260   -0.7204 O   0  0  0  0  0  0  0  0  0  0  0  0
   -6.5795   -1.0435   -1.4383 C   0  0  0  0  0  0  0  0  0  0  0  0
   -5.1623   -0.6095   -1.2631 C   0  0  0  0  0  0  0  0  0  0  0  0
   -4.2454   -1.2903   -0.5558 C   0  0  0  0  0  0  0  0  0  0  0  0
   -2.8704   -0.8575   -0.3794 C   0  0  0  0  0  0  0  0  0  0  0  0
   -2.0521   -0.8706   -1.4589 C   0  0  0  0  0  0  0  0  0  0  0  0
   -0.6512   -0.4696   -1.3133 C   0  0  0  0  0  0  0  0  0  0  0  0
    0.1690   -0.5074   -2.3733 C   0  0  0  0  0  0  0  0  0  0  0  0
    1.5898   -0.0948   -2.2752 C   0  0  0  0  0  0  0  0  0  0  0  0
    2.3204   -0.3133   -3.2451 O   0  0  0  0  0  0  0  0  0  0  0  0
    2.0681    0.6501   -1.0219 C   0  0  0  0  0  0  0  0  0  0  0  0
    1.9216    2.1523   -1.3217 C   0  0  0  0  0  0  0  0  0  0  0  0
    3.4673    0.4490   -0.7825 O   0  0  0  0  0  0  0  0  0  0  0  0
    3.8308   -0.8250   -0.4890 C   0  0  0  0  0  0  0  0  0  0  0  0
    3.0702   -1.7803   -0.4349 O   0  0  0  0  0  0  0  0  0  0  0  0
    5.2889   -0.9090   -0.2299 C   0  0  0  0  0  0  0  0  0  0  0  0
    5.8307   -2.1286    0.1375 C   0  0  0  0  0  0  0  0  0  0  0  0
    7.1520   -2.2865    0.3978 N   0  0  0  0  0  0  0  0  0  0  0  0
    7.9202   -1.1846    0.2769 C   0  0  0  0  0  0  0  0  0  0  0  0
    9.2837   -1.2698    0.5300 C   0  0  0  0  0  0  0  0  0  0  0  0
   10.1153   -0.1552    0.4151 C   0  0  0  0  0  0  0  0  0  0  0  0
    9.5742    1.0680    0.0414 C   0  0  0  0  0  0  0  0  0  0  0  0
    8.2053    1.1686   -0.2136 C   0  0  0  0  0  0  0  0  0  0  0  0
    7.3663    0.0670   -0.1028 C   0  0  0  0  0  0  0  0  0  0  0  0
    6.0513    0.2094   -0.3559 N   0  0  0  0  0  0  0  0  0  0  0  0
    1.2304    0.3639    0.2292 C   0  0  0  0  0  0  0  0  0  0  0  0
    1.6693    0.5274    1.3691 O   0  0  0  0  0  0  0  0  0  0  0  0
   -0.1748   -0.0697    0.0057 C   0  0  0  0  0  0  0  0  0  0  0  0
   -1.0499   -0.0910    1.0266 C   0  0  0  0  0  0  0  0  0  0  0  0
   -2.4006   -0.4601    0.8989 N   0  0  0  0  0  0  0  0  0  0  0  0
   -3.2783   -0.3785    2.0901 C   0  0  0  0  0  0  0  0  0  0  0  0
   -3.6002    1.0785    2.4799 C   0  0  0  0  0  0  0  0  0  0  0  0
   -4.4694    1.7813    1.4324 C   0  0  0  0  0  0  0  0  0  0  0  0
   -4.3071    1.1071    3.8382 C   0  0  0  0  0  0  0  0  0  0  0  0
   -9.0676   -1.3594   -0.8013 H   0  0  0  0  0  0  0  0  0  0  0  0
   -8.9867   -0.0674   -2.0449 H   0  0  0  0  0  0  0  0  0  0  0  0
   -9.3596    0.3332   -0.3490 H   0  0  0  0  0  0  0  0  0  0  0  0
   -6.7441   -2.0577   -1.0560 H   0  0  0  0  0  0  0  0  0  0  0  0
   -6.8293   -1.0247   -2.5083 H   0  0  0  0  0  0  0  0  0  0  0  0
   -4.8936    0.3329   -1.7352 H   0  0  0  0  0  0  0  0  0  0  0  0
   -4.5209   -2.2055   -0.0365 H   0  0  0  0  0  0  0  0  0  0  0  0
   -2.4130   -1.1821   -2.4329 H   0  0  0  0  0  0  0  0  0  0  0  0
   -0.1482   -0.8483   -3.3553 H   0  0  0  0  0  0  0  0  0  0  0  0
    2.2526    2.7564   -0.4680 H   0  0  0  0  0  0  0  0  0  0  0  0
    0.8873    2.4348   -1.5548 H   0  0  0  0  0  0  0  0  0  0  0  0
    2.5495    2.4418   -2.1746 H   0  0  0  0  0  0  0  0  0  0  0  0
    5.2224   -3.0233    0.2381 H   0  0  0  0  0  0  0  0  0  0  0  0
    9.7061   -2.2278    0.8251 H   0  0  0  0  0  0  0  0  0  0  0  0
   11.1799   -0.2468    0.6168 H   0  0  0  0  0  0  0  0  0  0  0  0
   10.2105    1.9433   -0.0533 H   0  0  0  0  0  0  0  0  0  0  0  0
    7.7808    2.1266   -0.5059 H   0  0  0  0  0  0  0  0  0  0  0  0
   -0.7549    0.1930    2.0357 H   0  0  0  0  0  0  0  0  0  0  0  0
   -4.2087   -0.9371    1.9502 H   0  0  0  0  0  0  0  0  0  0  0  0
   -2.7683   -0.8775    2.9230 H   0  0  0  0  0  0  0  0  0  0  0  0
   -2.6680    1.6506    2.5786 H   0  0  0  0  0  0  0  0  0  0  0  0
   -3.9518    1.8534    0.4706 H   0  0  0  0  0  0  0  0  0  0  0  0
   -4.7065    2.8035    1.7495 H   0  0  0  0  0  0  0  0  0  0  0  0
   -5.4175    1.2518    1.2789 H   0  0  0  0  0  0  0  0  0  0  0  0
   -4.5847    2.1326    4.1085 H   0  0  0  0  0  0  0  0  0  0  0  0
   -3.6519    0.7206    4.6281 H   0  0  0  0  0  0  0  0  0  0  0  0
   -5.2215    0.5048    3.8245 H   0  0  0  0  0  0  0  0  0  0  0  0
  1  2  1  0
  2  3  1  0
  3  4  1  0
  4  5  2  3
  5  6  1  0
  6  7  2  0
  7  8  1  0
  8  9  2  0
  9 10  1  0
 10 11  2  0
 10 12  1  0
 12 13  1  0
 12 14  1  0
 14 15  1  0
 15 16  2  0
 15 17  1  0
 17 18  2  0
 18 19  1  0
 19 20  2  0
 20 21  1  0
 21 22  2  0
 22 23  1  0
 23 24  2  0
 24 25  1  0
 25 26  2  0
 12 27  1  0
 27 28  2  0
 27 29  1  0
 29 30  2  0
 30 31  1  0
 31 32  1  0
 32 33  1  0
 33 34  1  0
 33 35  1  0
 31  6  1  0
 29  8  1  0
 26 17  1  0
 25 20  1  0
  1 36  1  0
  1 37  1  0
  1 38  1  0
  3 39  1  0
  3 40  1  0
  4 41  1  0
  5 42  1  0
  7 43  1  0
  9 44  1  0
 13 45  1  0
 13 46  1  0
 13 47  1  0
 18 48  1  0
 21 49  1  0
 22 50  1  0
 23 51  1  0
 24 52  1  0
 30 53  1  0
 32 54  1  0
 32 55  1  0
 33 56  1  0
 34 57  1  0
 34 58  1  0
 34 59  1  0
 35 60  1  0
 35 61  1  0
 35 62  1  0
M  END
$$$$
