
     RDKit          3D

 43 45  0  0  0  0  0  0  0  0999 V2000
    7.1073    0.8757   -0.5773 C   0  0  0  0  0  0  0  0  0  0  0  0
    5.9795    0.8251    0.2873 O   0  0  0  0  0  0  0  0  0  0  0  0
    4.8551    0.2179   -0.1973 C   0  0  0  0  0  0  0  0  0  0  0  0
    3.7767    0.1921    0.6872 C   0  0  0  0  0  0  0  0  0  0  0  0
    2.5628   -0.3975    0.3192 C   0  0  0  0  0  0  0  0  0  0  0  0
    2.4051   -0.9840   -0.9397 C   0  0  0  0  0  0  0  0  0  0  0  0
    1.1863   -1.5503   -1.3861 N   0  0  0  0  0  0  0  0  0  0  0  0
   -0.0602   -1.4580   -0.8591 C   0  0  0  0  0  0  0  0  0  0  0  0
   -0.9992   -2.5074   -0.8395 C   0  0  0  0  0  0  0  0  0  0  0  0
   -2.1545   -2.0240   -0.2611 C   0  0  0  0  0  0  0  0  0  0  0  0
   -3.2922   -2.6602    0.0154 O   0  0  0  0  0  0  0  0  0  0  0  0
   -1.9484   -0.6858    0.0837 N   0  0  0  0  0  0  0  0  0  0  0  0
   -2.9078    0.1776    0.7004 C   0  0  0  0  0  0  0  0  0  0  0  0
   -4.2339    0.1207    0.2323 C   0  0  0  0  0  0  0  0  0  0  0  0
   -5.2024    0.9788    0.7654 C   0  0  0  0  0  0  0  0  0  0  0  0
   -6.5797    0.9272    0.2605 N   0  0  0  0  0  4  0  0  0  0  0  0
   -7.4248    1.6441    0.8169 O   0  0  0  0  0  0  0  0  0  0  0  0
   -6.8211    0.1729   -0.6930 O   0  0  0  0  0  1  0  0  0  0  0  0
   -4.8675    1.8953    1.7647 C   0  0  0  0  0  0  0  0  0  0  0  0
   -3.5576    1.9360    2.2440 C   0  0  0  0  0  0  0  0  0  0  0  0
   -2.5663    1.0692    1.7420 C   0  0  0  0  0  0  0  0  0  0  0  0
   -1.2123    1.1313    2.3992 C   0  0  0  0  0  0  0  0  0  0  0  0
   -0.6803   -0.3266   -0.3681 C   0  0  0  0  0  0  0  0  0  0  0  0
   -0.2625    0.9402   -0.3746 O   0  0  0  0  0  0  0  0  0  0  0  0
    3.4912   -0.9442   -1.8255 C   0  0  0  0  0  0  0  0  0  0  0  0
    4.7076   -0.3529   -1.4592 C   0  0  0  0  0  0  0  0  0  0  0  0
    7.4575   -0.1309   -0.8288 H   0  0  0  0  0  0  0  0  0  0  0  0
    6.8869    1.4552   -1.4799 H   0  0  0  0  0  0  0  0  0  0  0  0
    7.9152    1.3855   -0.0435 H   0  0  0  0  0  0  0  0  0  0  0  0
    3.8800    0.6335    1.6757 H   0  0  0  0  0  0  0  0  0  0  0  0
    1.7535   -0.4096    1.0446 H   0  0  0  0  0  0  0  0  0  0  0  0
    1.3858   -2.3673   -1.9608 H   0  0  0  0  0  0  0  0  0  0  0  0
   -0.8488   -3.5189   -1.1902 H   0  0  0  0  0  0  0  0  0  0  0  0
   -3.1987   -3.5827   -0.2820 H   0  0  0  0  0  0  0  0  0  0  0  0
   -4.5011   -0.5637   -0.5709 H   0  0  0  0  0  0  0  0  0  0  0  0
   -5.6067    2.5746    2.1836 H   0  0  0  0  0  0  0  0  0  0  0  0
   -3.3115    2.6425    3.0361 H   0  0  0  0  0  0  0  0  0  0  0  0
   -1.3167    1.3667    3.4649 H   0  0  0  0  0  0  0  0  0  0  0  0
   -0.6914    0.1706    2.3567 H   0  0  0  0  0  0  0  0  0  0  0  0
   -0.5976    1.9113    1.9415 H   0  0  0  0  0  0  0  0  0  0  0  0
    0.5833    0.9369   -0.8628 H   0  0  0  0  0  0  0  0  0  0  0  0
    3.3964   -1.3652   -2.8239 H   0  0  0  0  0  0  0  0  0  0  0  0
    5.5129   -0.3516   -2.1859 H   0  0  0  0  0  0  0  0  0  0  0  0
  1  2  1  0
  2  3  1  0
  3  4  2  0
  4  5  1  0
  5  6  2  0
  6  7  1  0
  7  8  1  0
  8  9  1  0
  9 10  2  0
 10 11  1  0
 10 12  1  0
 12 13  1  0
 13 14  2  0
 14 15  1  0
 15 16  1  0
 16 17  2  0
 16 18  1  0
 15 19  2  0
 19 20  1  0
 20 21  2  0
 21 22  1  0
 12 23  1  0
 23 24  1  0
  6 25  1  0
 25 26  2  0
 26  3  1  0
 23  8  2  0
 21 13  1  0
  1 27  1  0
  1 28  1  0
  1 29  1  0
  4 30  1  0
  5 31  1  0
  7 32  1  0
  9 33  1  0
 11 34  1  0
 14 35  1  0
 19 36  1  0
 20 37  1  0
 22 38  1  0
 22 39  1  0
 22 40  1  0
 24 41  1  0
 25 42  1  0
 26 43  1  0
M  CHG  2  16   1  18  -1
M  END
$$$$
