
     RDKit          3D

 43 44  0  0  0  0  0  0  0  0999 V2000
    7.9291   -1.6183   -3.0792 C   0  0  0  0  0  0  0  0  0  0  0  0
    6.9034   -0.7773   -2.5639 O   0  0  0  0  0  0  0  0  0  0  0  0
    5.7064   -1.3724   -2.2770 C   0  0  0  0  0  0  0  0  0  0  0  0
    5.3718   -2.7007   -2.5281 C   0  0  0  0  0  0  0  0  0  0  0  0
    4.1024   -3.1725   -2.1894 C   0  0  0  0  0  0  0  0  0  0  0  0
    3.1631   -2.3230   -1.5989 C   0  0  0  0  0  0  0  0  0  0  0  0
    3.4850   -0.9908   -1.3404 C   0  0  0  0  0  0  0  0  0  0  0  0
    2.6071   -0.0678   -0.7338 N   0  0  0  0  0  0  0  0  0  0  0  0
    1.3125   -0.2991   -0.2916 C   0  0  0  0  0  0  0  0  0  0  0  0
    0.6870   -1.3490   -0.3902 O   0  0  0  0  0  0  0  0  0  0  0  0
    0.7309    0.9205    0.3902 C   0  0  0  0  0  0  0  0  0  0  0  0
   -0.6589    0.7126    0.9467 C   0  0  0  0  0  0  0  0  0  0  0  0
   -0.8408   -0.3400    2.0150 C   0  0  0  0  0  0  0  0  0  0  0  0
   -1.6061    1.4818    0.4973 N   0  0  0  0  0  0  0  0  0  0  0  0
   -2.8657    1.3261    0.9891 N   0  0  0  0  0  0  0  0  0  0  0  0
   -3.8909    2.1447    0.5446 C   0  0  0  0  0  0  0  0  0  0  0  0
   -3.7725    3.0073   -0.3248 O   0  0  0  0  0  0  0  0  0  0  0  0
   -5.2432    1.9055    1.1341 C   0  0  0  0  0  0  0  0  0  0  0  0
   -6.3406    2.2237    0.3109 C   0  0  0  0  0  0  0  0  0  0  0  0
   -7.6522    2.0432    0.7552 C   0  0  0  0  0  0  0  0  0  0  0  0
   -7.8889    1.5440    2.0315 C   0  0  0  0  0  0  0  0  0  0  0  0
   -6.8140    1.2328    2.8637 C   0  0  0  0  0  0  0  0  0  0  0  0
   -5.4944    1.4157    2.4252 C   0  0  0  0  0  0  0  0  0  0  0  0
   -4.2573    1.0400    3.5739 Cl  0  0  0  0  0  0  0  0  0  0  0  0
    4.7595   -0.5261   -1.6885 C   0  0  0  0  0  0  0  0  0  0  0  0
    8.8246   -1.0056   -3.2216 H   0  0  0  0  0  0  0  0  0  0  0  0
    8.1794   -2.4145   -2.3708 H   0  0  0  0  0  0  0  0  0  0  0  0
    7.6494   -2.0296   -4.0551 H   0  0  0  0  0  0  0  0  0  0  0  0
    6.0667   -3.3937   -2.9897 H   0  0  0  0  0  0  0  0  0  0  0  0
    3.8376   -4.2093   -2.3860 H   0  0  0  0  0  0  0  0  0  0  0  0
    2.1887   -2.7354   -1.3564 H   0  0  0  0  0  0  0  0  0  0  0  0
    2.9756    0.8680   -0.6061 H   0  0  0  0  0  0  0  0  0  0  0  0
    1.3820    1.2015    1.2253 H   0  0  0  0  0  0  0  0  0  0  0  0
    0.7148    1.7477   -0.3283 H   0  0  0  0  0  0  0  0  0  0  0  0
   -1.2053    0.1285    2.9337 H   0  0  0  0  0  0  0  0  0  0  0  0
    0.1056   -0.8376    2.2407 H   0  0  0  0  0  0  0  0  0  0  0  0
   -1.5575   -1.0916    1.6741 H   0  0  0  0  0  0  0  0  0  0  0  0
   -3.0517    0.6138    1.6855 H   0  0  0  0  0  0  0  0  0  0  0  0
   -6.1733    2.6202   -0.6906 H   0  0  0  0  0  0  0  0  0  0  0  0
   -8.4869    2.3023    0.1053 H   0  0  0  0  0  0  0  0  0  0  0  0
   -8.9077    1.4059    2.3840 H   0  0  0  0  0  0  0  0  0  0  0  0
   -7.0134    0.8599    3.8654 H   0  0  0  0  0  0  0  0  0  0  0  0
    5.0383    0.5088   -1.5109 H   0  0  0  0  0  0  0  0  0  0  0  0
  1  2  1  0
  2  3  1  0
  3  4  2  0
  4  5  1  0
  5  6  2  0
  6  7  1  0
  7  8  1  0
  8  9  1  0
  9 10  2  0
  9 11  1  0
 11 12  1  0
 12 13  1  0
 12 14  2  3
 14 15  1  0
 15 16  1  0
 16 17  2  0
 16 18  1  0
 18 19  2  0
 19 20  1  0
 20 21  2  0
 21 22  1  0
 22 23  2  0
 23 24  1  0
  7 25  2  0
 25  3  1  0
 23 18  1  0
  1 26  1  0
  1 27  1  0
  1 28  1  0
  4 29  1  0
  5 30  1  0
  6 31  1  0
  8 32  1  0
 11 33  1  0
 11 34  1  0
 13 35  1  0
 13 36  1  0
 13 37  1  0
 15 38  1  0
 19 39  1  0
 20 40  1  0
 21 41  1  0
 22 42  1  0
 25 43  1  0
M  END
$$$$
