
     RDKit          3D

 52 55  0  0  0  0  0  0  0  0999 V2000
    3.4769    1.9185   -0.7842 C   0  0  0  0  0  0  0  0  0  0  0  0
    3.1558    0.8759   -1.8473 C   0  0  0  0  0  0  0  0  0  0  0  0
    3.8794   -0.4688   -1.6040 C   0  0  0  0  0  0  0  0  0  0  0  0
    3.6077   -1.4579   -2.7447 C   0  0  0  0  0  0  0  0  0  0  0  0
    3.6081   -1.0779   -0.2690 N   0  0  0  0  0  0  0  0  0  0  0  0
    2.2617   -1.2695    0.0698 C   0  0  0  0  0  0  0  0  0  0  0  0
    1.3438   -1.1890   -0.7418 O   0  0  0  0  0  0  0  0  0  0  0  0
    1.9972   -1.6313    1.4856 C   0  0  0  0  0  0  0  0  0  0  0  0
    0.8205   -1.4373    2.1150 C   0  0  0  0  0  0  0  0  0  0  0  0
   -0.3784   -0.7837    1.5799 C   0  0  0  0  0  0  0  0  0  0  0  0
   -0.3699    0.5672    1.2280 C   0  0  0  0  0  0  0  0  0  0  0  0
   -1.5299    1.1861    0.7327 C   0  0  0  0  0  0  0  0  0  0  0  0
   -2.7370    0.4677    0.6232 C   0  0  0  0  0  0  0  0  0  0  0  0
   -2.7410   -0.8887    1.0060 C   0  0  0  0  0  0  0  0  0  0  0  0
   -1.5663   -1.5063    1.4690 C   0  0  0  0  0  0  0  0  0  0  0  0
   -3.9992   -1.7105    0.8869 C   0  0  0  0  0  0  0  0  0  0  0  0
   -5.2383   -0.8270    0.9043 C   0  0  0  0  0  0  0  0  0  0  0  0
   -5.0844    0.2890   -0.1168 C   0  0  0  0  0  0  0  0  0  0  0  0
   -3.8924    1.0807    0.1565 N   0  0  0  0  0  0  0  0  0  0  0  0
   -3.9087    2.5071   -0.1407 C   0  0  0  0  0  0  0  0  0  0  0  0
   -2.5612    2.9747   -0.6676 C   0  0  0  0  0  0  0  0  0  0  0  0
   -1.4734    2.6406    0.3427 C   0  0  0  0  0  0  0  0  0  0  0  0
    3.0781   -2.2351    2.2813 C   0  0  0  0  0  0  0  0  0  0  0  0
    2.9367   -2.6883    3.4114 O   0  0  0  0  0  0  0  0  0  0  0  0
    4.2964   -2.2276    1.6698 N   0  0  0  0  0  0  0  0  0  0  0  0
    4.6422   -1.6306    0.4868 C   0  0  0  0  0  0  0  0  0  0  0  0
    6.2809   -1.6590    0.1226 S   0  0  0  0  0  0  0  0  0  0  0  0
    3.1084    1.6154    0.2002 H   0  0  0  0  0  0  0  0  0  0  0  0
    3.0027    2.8719   -1.0383 H   0  0  0  0  0  0  0  0  0  0  0  0
    4.5562    2.0862   -0.7127 H   0  0  0  0  0  0  0  0  0  0  0  0
    2.0705    0.7518   -1.9107 H   0  0  0  0  0  0  0  0  0  0  0  0
    3.4699    1.2719   -2.8216 H   0  0  0  0  0  0  0  0  0  0  0  0
    4.9439   -0.2248   -1.6664 H   0  0  0  0  0  0  0  0  0  0  0  0
    3.9487   -1.0441   -3.6999 H   0  0  0  0  0  0  0  0  0  0  0  0
    4.1385   -2.4013   -2.5788 H   0  0  0  0  0  0  0  0  0  0  0  0
    2.5439   -1.6901   -2.8487 H   0  0  0  0  0  0  0  0  0  0  0  0
    0.6978   -1.7601    3.1492 H   0  0  0  0  0  0  0  0  0  0  0  0
    0.5432    1.1492    1.3230 H   0  0  0  0  0  0  0  0  0  0  0  0
   -1.5883   -2.5587    1.7432 H   0  0  0  0  0  0  0  0  0  0  0  0
   -3.9563   -2.2807   -0.0491 H   0  0  0  0  0  0  0  0  0  0  0  0
   -4.0637   -2.4276    1.7137 H   0  0  0  0  0  0  0  0  0  0  0  0
   -5.3745   -0.3962    1.9049 H   0  0  0  0  0  0  0  0  0  0  0  0
   -6.1291   -1.4252    0.6835 H   0  0  0  0  0  0  0  0  0  0  0  0
   -5.9780    0.9236   -0.0818 H   0  0  0  0  0  0  0  0  0  0  0  0
   -5.0216   -0.1241   -1.1310 H   0  0  0  0  0  0  0  0  0  0  0  0
   -4.1751    3.0600    0.7684 H   0  0  0  0  0  0  0  0  0  0  0  0
   -4.6774    2.7322   -0.8897 H   0  0  0  0  0  0  0  0  0  0  0  0
   -2.3465    2.4806   -1.6242 H   0  0  0  0  0  0  0  0  0  0  0  0
   -2.5806    4.0538   -0.8558 H   0  0  0  0  0  0  0  0  0  0  0  0
   -1.5933    3.2514    1.2456 H   0  0  0  0  0  0  0  0  0  0  0  0
   -0.4972    2.8784   -0.0964 H   0  0  0  0  0  0  0  0  0  0  0  0
    5.0524   -2.6129    2.2222 H   0  0  0  0  0  0  0  0  0  0  0  0
  1  2  1  0
  2  3  1  0
  3  4  1  0
  3  5  1  0
  5  6  1  0
  6  7  2  0
  6  8  1  0
  8  9  2  3
  9 10  1  0
 10 11  2  0
 11 12  1  0
 12 13  2  0
 13 14  1  0
 14 15  2  0
 14 16  1  0
 16 17  1  0
 17 18  1  0
 18 19  1  0
 19 20  1  0
 20 21  1  0
 21 22  1  0
  8 23  1  0
 23 24  2  0
 23 25  1  0
 25 26  1  0
 26 27  2  0
 26  5  1  0
 15 10  1  0
 22 12  1  0
 19 13  1  0
  1 28  1  0
  1 29  1  0
  1 30  1  0
  2 31  1  0
  2 32  1  0
  3 33  1  0
  4 34  1  0
  4 35  1  0
  4 36  1  0
  9 37  1  0
 11 38  1  0
 15 39  1  0
 16 40  1  0
 16 41  1  0
 17 42  1  0
 17 43  1  0
 18 44  1  0
 18 45  1  0
 20 46  1  0
 20 47  1  0
 21 48  1  0
 21 49  1  0
 22 50  1  0
 22 51  1  0
 25 52  1  0
M  END
$$$$
