
     RDKit          3D

 65 69  0  0  0  0  0  0  0  0999 V2000
    4.6620   -1.7608    3.9524 C   0  0  0  0  0  0  0  0  0  0  0  0
    4.4484   -0.8532    2.8798 O   0  0  0  0  0  0  0  0  0  0  0  0
    3.1673   -0.7182    2.4135 C   0  0  0  0  0  0  0  0  0  0  0  0
    2.0527   -1.3522    2.9686 C   0  0  0  0  0  0  0  0  0  0  0  0
    0.7757   -1.1689    2.4252 C   0  0  0  0  0  0  0  0  0  0  0  0
    0.5781   -0.3343    1.3224 C   0  0  0  0  0  0  0  0  0  0  0  0
   -0.7771   -0.1402    0.6591 C   0  0  0  0  0  0  0  0  0  0  0  0
   -1.0243   -1.2359   -0.4046 C   0  0  0  0  0  0  0  0  0  0  0  0
   -1.0731   -2.5962    0.1656 C   0  0  0  0  0  0  0  0  0  0  0  0
   -1.1240   -3.6606    0.6263 N   0  0  0  0  0  0  0  0  0  0  0  0
   -2.3465   -1.0062   -1.1473 C   0  0  0  0  0  0  0  0  0  0  0  0
   -2.4876   -1.5365   -2.3314 N   0  0  0  0  0  0  0  0  0  0  0  0
   -3.3632   -0.2472   -0.5288 N   0  0  0  0  0  0  0  0  0  0  0  0
   -4.5659   -0.0423   -1.2923 C   0  0  0  0  0  0  0  0  0  0  0  0
   -5.7482   -0.6868   -0.8832 C   0  0  0  0  0  0  0  0  0  0  0  0
   -6.9343   -0.5183   -1.5993 C   0  0  0  0  0  0  0  0  0  0  0  0
   -6.9578    0.2967   -2.7297 C   0  0  0  0  0  0  0  0  0  0  0  0
   -5.7960    0.9489   -3.1463 C   0  0  0  0  0  0  0  0  0  0  0  0
   -4.5990    0.7860   -2.4344 C   0  0  0  0  0  0  0  0  0  0  0  0
   -3.4341    1.5118   -2.8530 C   0  0  0  0  0  0  0  0  0  0  0  0
   -2.4957    2.1261   -3.1556 N   0  0  0  0  0  0  0  0  0  0  0  0
   -3.1896    0.4493    0.6914 C   0  0  0  0  0  0  0  0  0  0  0  0
   -3.9305    1.5155    1.0732 C   0  0  0  0  0  0  0  0  0  0  0  0
   -3.6370    2.3828    2.2613 C   0  0  0  0  0  0  0  0  0  0  0  0
   -2.1733    2.3140    2.6507 C   0  0  0  0  0  0  0  0  0  0  0  0
   -1.8234    0.8617    2.7925 C   0  0  0  0  0  0  0  0  0  0  0  0
   -1.4003    0.4169    3.8600 O   0  0  0  0  0  0  0  0  0  0  0  0
   -2.0204   -0.0305    1.5636 C   0  0  0  0  0  0  0  0  0  0  0  0
    1.6997    0.3029    0.7712 C   0  0  0  0  0  0  0  0  0  0  0  0
    2.9933    0.1184    1.2992 C   0  0  0  0  0  0  0  0  0  0  0  0
    4.1567    0.8340    0.6369 C   0  0  0  0  0  0  0  0  0  0  0  0
    4.3025    0.4752   -0.7820 N   0  0  0  0  0  0  0  0  0  0  0  0
    5.3147    1.2956   -1.4495 C   0  0  0  0  0  0  0  0  0  0  0  0
    5.5771    0.5301   -2.7375 C   0  0  0  0  0  0  0  0  0  0  0  0
    5.2341   -0.9202   -2.4131 C   0  0  0  0  0  0  0  0  0  0  0  0
    4.7646   -0.9047   -0.9651 C   0  0  0  0  0  0  0  0  0  0  0  0
    4.1526   -1.4247    4.8610 H   0  0  0  0  0  0  0  0  0  0  0  0
    4.3587   -2.7770    3.6799 H   0  0  0  0  0  0  0  0  0  0  0  0
    5.7351   -1.7815    4.1618 H   0  0  0  0  0  0  0  0  0  0  0  0
    2.1364   -2.0054    3.8314 H   0  0  0  0  0  0  0  0  0  0  0  0
   -0.0551   -1.6963    2.8919 H   0  0  0  0  0  0  0  0  0  0  0  0
   -0.7081    0.8210    0.1244 H   0  0  0  0  0  0  0  0  0  0  0  0
   -0.2168   -1.1998   -1.1489 H   0  0  0  0  0  0  0  0  0  0  0  0
   -1.6581   -2.0632   -2.6286 H   0  0  0  0  0  0  0  0  0  0  0  0
   -5.7392   -1.3356   -0.0103 H   0  0  0  0  0  0  0  0  0  0  0  0
   -7.8385   -1.0306   -1.2791 H   0  0  0  0  0  0  0  0  0  0  0  0
   -7.8823    0.4223   -3.2892 H   0  0  0  0  0  0  0  0  0  0  0  0
   -5.8304    1.5866   -4.0281 H   0  0  0  0  0  0  0  0  0  0  0  0
   -4.7715    1.8563    0.4730 H   0  0  0  0  0  0  0  0  0  0  0  0
   -3.8896    3.4215    2.0199 H   0  0  0  0  0  0  0  0  0  0  0  0
   -4.2816    2.0752    3.0928 H   0  0  0  0  0  0  0  0  0  0  0  0
   -1.5214    2.7646    1.8942 H   0  0  0  0  0  0  0  0  0  0  0  0
   -2.0022    2.8323    3.5997 H   0  0  0  0  0  0  0  0  0  0  0  0
   -2.3016   -1.0120    1.9693 H   0  0  0  0  0  0  0  0  0  0  0  0
    1.5912    0.9467   -0.1023 H   0  0  0  0  0  0  0  0  0  0  0  0
    5.0965    0.6691    1.1762 H   0  0  0  0  0  0  0  0  0  0  0  0
    3.9505    1.9098    0.7192 H   0  0  0  0  0  0  0  0  0  0  0  0
    4.9566    2.3103   -1.6504 H   0  0  0  0  0  0  0  0  0  0  0  0
    6.2390    1.3612   -0.8612 H   0  0  0  0  0  0  0  0  0  0  0  0
    4.9289    0.8925   -3.5440 H   0  0  0  0  0  0  0  0  0  0  0  0
    6.6154    0.6382   -3.0663 H   0  0  0  0  0  0  0  0  0  0  0  0
    6.0971   -1.5801   -2.5467 H   0  0  0  0  0  0  0  0  0  0  0  0
    4.4360   -1.2708   -3.0782 H   0  0  0  0  0  0  0  0  0  0  0  0
    5.6065   -1.1432   -0.3021 H   0  0  0  0  0  0  0  0  0  0  0  0
    3.9707   -1.6402   -0.7987 H   0  0  0  0  0  0  0  0  0  0  0  0
  1  2  1  0
  2  3  1  0
  3  4  2  0
  4  5  1  0
  5  6  2  0
  6  7  1  0
  7  8  1  0
  8  9  1  0
  9 10  3  0
  8 11  1  0
 11 12  2  3
 11 13  1  0
 13 14  1  0
 14 15  2  0
 15 16  1  0
 16 17  2  0
 17 18  1  0
 18 19  2  0
 19 20  1  0
 20 21  3  0
 13 22  1  0
 22 23  2  0
 23 24  1  0
 24 25  1  0
 25 26  1  0
 26 27  2  0
 26 28  1  0
  6 29  1  0
 29 30  2  0
 30 31  1  0
 31 32  1  0
 32 33  1  0
 33 34  1  0
 34 35  1  0
 35 36  1  0
 30  3  1  0
 36 32  1  0
 28  7  1  0
 19 14  1  0
 28 22  1  0
  1 37  1  0
  1 38  1  0
  1 39  1  0
  4 40  1  0
  5 41  1  0
  7 42  1  0
  8 43  1  0
 12 44  1  0
 15 45  1  0
 16 46  1  0
 17 47  1  0
 18 48  1  0
 23 49  1  0
 24 50  1  0
 24 51  1  0
 25 52  1  0
 25 53  1  0
 28 54  1  0
 29 55  1  0
 31 56  1  0
 31 57  1  0
 33 58  1  0
 33 59  1  0
 34 60  1  0
 34 61  1  0
 35 62  1  0
 35 63  1  0
 36 64  1  0
 36 65  1  0
M  END
$$$$
