
     RDKit          3D

 42 44  0  0  0  0  0  0  0  0999 V2000
    1.6551    3.7814    2.3146 C   0  0  0  0  0  0  0  0  0  0  0  0
   -0.0492    3.1676    2.3902 S   0  0  0  0  0  0  0  0  0  0  0  0
    0.0700    1.6993    1.3658 C   0  0  0  0  0  0  0  0  0  0  0  0
    1.3160    1.3066    1.0356 N   0  0  0  0  0  0  0  0  0  0  0  0
    1.4314    0.2383    0.2316 C   0  0  0  0  0  0  0  0  0  0  0  0
    2.7917   -0.2112   -0.1274 C   0  0  0  0  0  0  0  0  0  0  0  0
    3.9376    0.3993    0.4205 C   0  0  0  0  0  0  0  0  0  0  0  0
    5.2262   -0.0330    0.0920 C   0  0  0  0  0  0  0  0  0  0  0  0
    5.4017   -1.0885   -0.7979 C   0  0  0  0  0  0  0  0  0  0  0  0
    4.2900   -1.7095   -1.3587 C   0  0  0  0  0  0  0  0  0  0  0  0
    3.0021   -1.2756   -1.0256 C   0  0  0  0  0  0  0  0  0  0  0  0
    0.3859   -0.4405   -0.2770 N   0  0  0  0  0  0  0  0  0  0  0  0
   -0.8571   -0.0586    0.0723 C   0  0  0  0  0  0  0  0  0  0  0  0
   -1.9569   -0.7591   -0.4712 N   0  0  0  0  0  0  0  0  0  0  0  0
   -2.5239   -1.7216    0.5112 C   0  0  0  0  0  0  0  0  0  0  0  0
   -3.7742   -2.3793   -0.0966 C   0  0  0  0  0  0  0  0  0  0  0  0
   -3.4628   -3.0523   -1.3287 O   0  0  0  0  0  0  0  0  0  0  0  0
   -2.9168   -2.1245   -2.2822 C   0  0  0  0  0  0  0  0  0  0  0  0
   -1.6427   -1.4514   -1.7433 C   0  0  0  0  0  0  0  0  0  0  0  0
   -1.0527    1.0291    0.9144 C   0  0  0  0  0  0  0  0  0  0  0  0
   -2.4069    1.4952    1.2276 C   0  0  0  0  0  0  0  0  0  0  0  0
   -3.1213    2.2981    0.1745 C   0  0  0  0  0  0  0  0  0  0  0  0
   -2.9126    1.2131    2.3095 O   0  0  0  0  0  0  0  0  0  0  0  0
    1.9459    3.9725    1.2785 H   0  0  0  0  0  0  0  0  0  0  0  0
    2.3489    3.0723    2.7735 H   0  0  0  0  0  0  0  0  0  0  0  0
    1.7160    4.7239    2.8636 H   0  0  0  0  0  0  0  0  0  0  0  0
    3.8322    1.2231    1.1258 H   0  0  0  0  0  0  0  0  0  0  0  0
    6.0898    0.4530    0.5376 H   0  0  0  0  0  0  0  0  0  0  0  0
    6.4017   -1.4309   -1.0477 H   0  0  0  0  0  0  0  0  0  0  0  0
    4.4202   -2.5371   -2.0516 H   0  0  0  0  0  0  0  0  0  0  0  0
    2.1502   -1.7857   -1.4747 H   0  0  0  0  0  0  0  0  0  0  0  0
   -2.7999   -1.2365    1.4502 H   0  0  0  0  0  0  0  0  0  0  0  0
   -1.7773   -2.4970    0.7283 H   0  0  0  0  0  0  0  0  0  0  0  0
   -4.5544   -1.6341   -0.2917 H   0  0  0  0  0  0  0  0  0  0  0  0
   -4.1857   -3.1218    0.5952 H   0  0  0  0  0  0  0  0  0  0  0  0
   -3.6814   -1.3799   -2.5335 H   0  0  0  0  0  0  0  0  0  0  0  0
   -2.6838   -2.6879   -3.1912 H   0  0  0  0  0  0  0  0  0  0  0  0
   -1.2761   -0.7338   -2.4873 H   0  0  0  0  0  0  0  0  0  0  0  0
   -0.8799   -2.2235   -1.5824 H   0  0  0  0  0  0  0  0  0  0  0  0
   -2.4663    2.5174   -0.6737 H   0  0  0  0  0  0  0  0  0  0  0  0
   -3.4423    3.2465    0.6151 H   0  0  0  0  0  0  0  0  0  0  0  0
   -3.9884    1.7365   -0.1850 H   0  0  0  0  0  0  0  0  0  0  0  0
  1  2  1  0
  2  3  1  0
  3  4  2  0
  4  5  1  0
  5  6  1  0
  6  7  2  0
  7  8  1  0
  8  9  2  0
  9 10  1  0
 10 11  2  0
  5 12  2  0
 12 13  1  0
 13 14  1  0
 14 15  1  0
 15 16  1  0
 16 17  1  0
 17 18  1  0
 18 19  1  0
 13 20  2  0
 20 21  1  0
 21 22  1  0
 21 23  2  0
 20  3  1  0
 11  6  1  0
 19 14  1  0
  1 24  1  0
  1 25  1  0
  1 26  1  0
  7 27  1  0
  8 28  1  0
  9 29  1  0
 10 30  1  0
 11 31  1  0
 15 32  1  0
 15 33  1  0
 16 34  1  0
 16 35  1  0
 18 36  1  0
 18 37  1  0
 19 38  1  0
 19 39  1  0
 22 40  1  0
 22 41  1  0
 22 42  1  0
M  END
$$$$
