
     RDKit          3D

 55 58  0  0  0  0  0  0  0  0999 V2000
    5.3316    0.2169   -2.7936 C   0  0  0  0  0  0  0  0  0  0  0  0
    4.9501    1.1475   -1.6542 C   0  0  0  0  0  0  0  0  0  0  0  0
    4.9019    0.4363   -0.4157 O   0  0  0  0  0  0  0  0  0  0  0  0
    3.7395   -0.1741   -0.0281 C   0  0  0  0  0  0  0  0  0  0  0  0
    2.5713   -0.2401   -0.7954 C   0  0  0  0  0  0  0  0  0  0  0  0
    1.4338   -0.9039   -0.3126 C   0  0  0  0  0  0  0  0  0  0  0  0
    0.2302   -0.9588   -1.1512 C   0  0  0  0  0  0  0  0  0  0  0  0
   -0.9176   -0.2938   -0.9340 C   0  0  0  0  0  0  0  0  0  0  0  0
   -1.9826   -0.4533   -1.9613 C   0  0  0  0  0  0  0  0  0  0  0  0
   -1.9351    0.2446   -2.9728 O   0  0  0  0  0  0  0  0  0  0  0  0
   -2.9907   -1.3598   -1.6970 N   0  0  0  0  0  0  0  0  0  0  0  0
   -3.9284   -1.6865   -2.7738 C   0  0  0  0  0  0  0  0  0  0  0  0
   -5.2965   -2.1097   -2.2326 C   0  0  0  0  0  0  0  0  0  0  0  0
   -5.1664   -3.1656   -1.2715 O   0  0  0  0  0  0  0  0  0  0  0  0
   -4.3714   -2.7293   -0.1590 C   0  0  0  0  0  0  0  0  0  0  0  0
   -2.9571   -2.3385   -0.6021 C   0  0  0  0  0  0  0  0  0  0  0  0
   -1.1495    0.5673    0.1649 C   0  0  0  0  0  0  0  0  0  0  0  0
   -1.0410    0.3695    1.4630 N   0  0  0  0  0  0  0  0  0  0  0  0
   -1.4438    1.5378    2.0569 C   0  0  0  0  0  0  0  0  0  0  0  0
   -1.5359    1.8693    3.4166 C   0  0  0  0  0  0  0  0  0  0  0  0
   -1.9852    3.1506    3.7650 C   0  0  0  0  0  0  0  0  0  0  0  0
   -2.3360    4.0801    2.7798 C   0  0  0  0  0  0  0  0  0  0  0  0
   -2.2562    3.7641    1.4180 C   0  0  0  0  0  0  0  0  0  0  0  0
   -1.8017    2.4806    1.1010 C   0  0  0  0  0  0  0  0  0  0  0  0
   -1.6069    1.8393   -0.0950 N   0  0  0  0  0  0  0  0  0  0  0  0
    1.4689   -1.5242    0.9387 C   0  0  0  0  0  0  0  0  0  0  0  0
    2.6299   -1.4729    1.7091 C   0  0  0  0  0  0  0  0  0  0  0  0
    2.6334   -2.2713    3.2435 Cl  0  0  0  0  0  0  0  0  0  0  0  0
    3.7562   -0.7865    1.2381 C   0  0  0  0  0  0  0  0  0  0  0  0
    4.9055   -0.7785    1.9957 O   0  0  0  0  0  0  0  0  0  0  0  0
    5.0132    0.4522    2.7155 C   0  0  0  0  0  0  0  0  0  0  0  0
    6.2815   -0.2851   -2.5760 H   0  0  0  0  0  0  0  0  0  0  0  0
    4.5865   -0.5687   -2.9375 H   0  0  0  0  0  0  0  0  0  0  0  0
    5.4361    0.7727   -3.7294 H   0  0  0  0  0  0  0  0  0  0  0  0
    4.0310    1.7099   -1.8576 H   0  0  0  0  0  0  0  0  0  0  0  0
    5.7382    1.9003   -1.5464 H   0  0  0  0  0  0  0  0  0  0  0  0
    2.5174    0.2156   -1.7810 H   0  0  0  0  0  0  0  0  0  0  0  0
    0.3367   -1.5714   -2.0457 H   0  0  0  0  0  0  0  0  0  0  0  0
   -3.4771   -2.5146   -3.3361 H   0  0  0  0  0  0  0  0  0  0  0  0
   -4.0414   -0.8407   -3.4601 H   0  0  0  0  0  0  0  0  0  0  0  0
   -5.9274   -2.4761   -3.0499 H   0  0  0  0  0  0  0  0  0  0  0  0
   -5.8136   -1.2642   -1.7668 H   0  0  0  0  0  0  0  0  0  0  0  0
   -4.8721   -1.8833    0.3282 H   0  0  0  0  0  0  0  0  0  0  0  0
   -4.3259   -3.5508    0.5613 H   0  0  0  0  0  0  0  0  0  0  0  0
   -2.3950   -1.9624    0.2551 H   0  0  0  0  0  0  0  0  0  0  0  0
   -2.4325   -3.2199   -0.9938 H   0  0  0  0  0  0  0  0  0  0  0  0
   -1.2649    1.1426    4.1756 H   0  0  0  0  0  0  0  0  0  0  0  0
   -2.0574    3.4220    4.8156 H   0  0  0  0  0  0  0  0  0  0  0  0
   -2.6767    5.0716    3.0778 H   0  0  0  0  0  0  0  0  0  0  0  0
   -2.5155    4.4908    0.6517 H   0  0  0  0  0  0  0  0  0  0  0  0
   -1.7735    2.2280   -1.0165 H   0  0  0  0  0  0  0  0  0  0  0  0
    0.5905   -2.0351    1.3214 H   0  0  0  0  0  0  0  0  0  0  0  0
    5.2409    1.2872    2.0427 H   0  0  0  0  0  0  0  0  0  0  0  0
    4.1053    0.6675    3.2907 H   0  0  0  0  0  0  0  0  0  0  0  0
    5.8455    0.3547    3.4207 H   0  0  0  0  0  0  0  0  0  0  0  0
  1  2  1  0
  2  3  1  0
  3  4  1  0
  4  5  2  0
  5  6  1  0
  6  7  1  0
  7  8  2  3
  8  9  1  0
  9 10  2  0
  9 11  1  0
 11 12  1  0
 12 13  1  0
 13 14  1  0
 14 15  1  0
 15 16  1  0
  8 17  1  0
 17 18  2  0
 18 19  1  0
 19 20  2  0
 20 21  1  0
 21 22  2  0
 22 23  1  0
 23 24  2  0
 24 25  1  0
  6 26  2  0
 26 27  1  0
 27 28  1  0
 27 29  2  0
 29 30  1  0
 30 31  1  0
 29  4  1  0
 16 11  1  0
 25 17  1  0
 24 19  1  0
  1 32  1  0
  1 33  1  0
  1 34  1  0
  2 35  1  0
  2 36  1  0
  5 37  1  0
  7 38  1  0
 12 39  1  0
 12 40  1  0
 13 41  1  0
 13 42  1  0
 15 43  1  0
 15 44  1  0
 16 45  1  0
 16 46  1  0
 20 47  1  0
 21 48  1  0
 22 49  1  0
 23 50  1  0
 25 51  1  0
 26 52  1  0
 31 53  1  0
 31 54  1  0
 31 55  1  0
M  END
$$$$
