
     RDKit          3D

 42 44  0  0  0  0  0  0  0  0999 V2000
    4.9996   -0.7527    1.6397 C   0  0  0  0  0  0  0  0  0  0  0  0
    3.7163    0.0163    1.3105 C   0  0  0  0  0  0  0  0  0  0  0  0
    3.9022    1.5029    1.6066 C   0  0  0  0  0  0  0  0  0  0  0  0
    2.3556   -0.7054    2.3176 S   0  0  0  0  0  0  0  0  0  0  0  0
    0.9772   -0.4221    1.2193 C   0  0  0  0  0  0  0  0  0  0  0  0
    0.0742   -1.4467    1.0075 C   0  0  0  0  0  0  0  0  0  0  0  0
   -0.9881   -1.1921    0.1658 C   0  0  0  0  0  0  0  0  0  0  0  0
   -1.9065   -2.1497   -0.1592 N   0  0  0  0  0  0  0  0  0  0  0  0
   -1.9408   -3.5127    0.3357 C   0  0  0  0  0  0  0  0  0  0  0  0
   -3.0460   -4.1722   -0.4939 C   0  0  0  0  0  0  0  0  0  0  0  0
   -4.0097   -3.0319   -0.7496 C   0  0  0  0  0  0  0  0  0  0  0  0
   -3.0843   -1.8326   -0.9577 C   0  0  0  0  0  0  0  0  0  0  0  0
   -1.1367    0.0289   -0.3838 N   0  0  0  0  0  0  0  0  0  0  0  0
   -0.2349    0.9836   -0.0840 C   0  0  0  0  0  0  0  0  0  0  0  0
   -0.4267    2.3012   -0.6963 C   0  0  0  0  0  0  0  0  0  0  0  0
   -0.7680    2.3808   -2.0666 C   0  0  0  0  0  0  0  0  0  0  0  0
   -0.9382    3.6086   -2.7151 C   0  0  0  0  0  0  0  0  0  0  0  0
   -0.7896    4.7902   -1.9994 C   0  0  0  0  0  0  0  0  0  0  0  0
   -0.4781    4.7449   -0.6443 C   0  0  0  0  0  0  0  0  0  0  0  0
   -0.2970    3.5141    0.0051 C   0  0  0  0  0  0  0  0  0  0  0  0
    0.0263    3.5858    1.7090 Cl  0  0  0  0  0  0  0  0  0  0  0  0
    0.8467    0.7952    0.6792 N   0  0  0  0  0  0  0  0  0  0  0  0
    5.8262   -0.3978    1.0048 H   0  0  0  0  0  0  0  0  0  0  0  0
    5.3036   -0.6113    2.6883 H   0  0  0  0  0  0  0  0  0  0  0  0
    4.8888   -1.8270    1.4486 H   0  0  0  0  0  0  0  0  0  0  0  0
    3.4969   -0.1347    0.2454 H   0  0  0  0  0  0  0  0  0  0  0  0
    4.0593    1.6889    2.6809 H   0  0  0  0  0  0  0  0  0  0  0  0
    3.0456    2.0929    1.2746 H   0  0  0  0  0  0  0  0  0  0  0  0
    4.7785    1.8857    1.0722 H   0  0  0  0  0  0  0  0  0  0  0  0
    0.2102   -2.4095    1.4802 H   0  0  0  0  0  0  0  0  0  0  0  0
   -2.1990   -3.5243    1.3964 H   0  0  0  0  0  0  0  0  0  0  0  0
   -0.9936   -4.0299    0.1900 H   0  0  0  0  0  0  0  0  0  0  0  0
   -2.6378   -4.5351   -1.4431 H   0  0  0  0  0  0  0  0  0  0  0  0
   -3.5146   -5.0140    0.0194 H   0  0  0  0  0  0  0  0  0  0  0  0
   -4.6686   -3.2136   -1.6055 H   0  0  0  0  0  0  0  0  0  0  0  0
   -4.6379   -2.8690    0.1338 H   0  0  0  0  0  0  0  0  0  0  0  0
   -3.5820   -0.9170   -0.6328 H   0  0  0  0  0  0  0  0  0  0  0  0
   -2.8091   -1.7401   -2.0106 H   0  0  0  0  0  0  0  0  0  0  0  0
   -0.8940    1.4640   -2.6432 H   0  0  0  0  0  0  0  0  0  0  0  0
   -1.2083    3.6369   -3.7695 H   0  0  0  0  0  0  0  0  0  0  0  0
   -0.9341    5.7475   -2.4901 H   0  0  0  0  0  0  0  0  0  0  0  0
   -0.3840    5.6731   -0.0858 H   0  0  0  0  0  0  0  0  0  0  0  0
  1  2  1  0
  2  3  1  0
  2  4  1  0
  4  5  1  0
  5  6  2  0
  6  7  1  0
  7  8  1  0
  8  9  1  0
  9 10  1  0
 10 11  1  0
 11 12  1  0
  7 13  2  0
 13 14  1  0
 14 15  1  0
 15 16  2  0
 16 17  1  0
 17 18  2  0
 18 19  1  0
 19 20  2  0
 20 21  1  0
 14 22  2  0
 22  5  1  0
 12  8  1  0
 20 15  1  0
  1 23  1  0
  1 24  1  0
  1 25  1  0
  2 26  1  0
  3 27  1  0
  3 28  1  0
  3 29  1  0
  6 30  1  0
  9 31  1  0
  9 32  1  0
 10 33  1  0
 10 34  1  0
 11 35  1  0
 11 36  1  0
 12 37  1  0
 12 38  1  0
 16 39  1  0
 17 40  1  0
 18 41  1  0
 19 42  1  0
M  END
$$$$
