
     RDKit          3D

 32 32  0  0  0  0  0  0  0  0999 V2000
    4.8896   -1.2204    1.3262 C   0  0  0  0  0  0  0  0  0  0  0  0
    5.1535   -0.6070   -0.0385 C   0  0  0  0  0  0  0  0  0  0  0  0
    3.8727   -1.0694   -1.2418 S   0  0  0  0  0  0  0  0  0  0  0  0
    2.5517   -0.0250   -0.7735 C   0  0  0  0  0  0  0  0  0  0  0  0
    2.6850    0.9729    0.0704 N   0  0  0  0  0  0  0  0  0  0  0  0
    1.4973    1.6462    0.2678 N   0  0  0  0  0  0  0  0  0  0  0  0
    0.4971    1.1234   -0.4062 C   0  0  0  0  0  0  0  0  0  0  0  0
   -0.7589    1.6556   -0.3652 N   0  0  0  0  0  0  0  0  0  0  0  0
   -1.9222    0.8019    0.1183 C   0  0  0  0  0  0  0  0  0  0  0  0
   -2.2346    0.0384   -1.1011 N   0  0  0  0  0  0  0  0  0  0  0  0
   -3.1996   -0.9248   -1.1433 C   0  0  0  0  0  0  0  0  0  0  0  0
   -3.4557   -1.5063   -2.5060 C   0  0  0  0  0  0  0  0  0  0  0  0
   -3.8090   -1.2835   -0.1466 O   0  0  0  0  0  0  0  0  0  0  0  0
   -1.5989   -0.0008    1.4218 C   0  0  0  0  0  0  0  0  0  0  0  0
   -0.9871    0.8062    2.3295 F   0  0  0  0  0  0  0  0  0  0  0  0
   -0.7336   -1.0177    1.1748 F   0  0  0  0  0  0  0  0  0  0  0  0
   -2.6652   -0.5326    2.0467 F   0  0  0  0  0  0  0  0  0  0  0  0
   -3.0838    1.7422    0.5707 C   0  0  0  0  0  0  0  0  0  0  0  0
   -2.6470    2.6291    1.5012 F   0  0  0  0  0  0  0  0  0  0  0  0
   -3.5113    2.4924   -0.4839 F   0  0  0  0  0  0  0  0  0  0  0  0
   -4.1674    1.1261    1.0712 F   0  0  0  0  0  0  0  0  0  0  0  0
    0.9684   -0.2048   -1.3986 S   0  0  0  0  0  0  0  0  0  0  0  0
    3.9558   -0.8571    1.7665 H   0  0  0  0  0  0  0  0  0  0  0  0
    5.7007   -0.9574    2.0135 H   0  0  0  0  0  0  0  0  0  0  0  0
    4.8453   -2.3135    1.2719 H   0  0  0  0  0  0  0  0  0  0  0  0
    6.1096   -0.9822   -0.4181 H   0  0  0  0  0  0  0  0  0  0  0  0
    5.2439    0.4817    0.0316 H   0  0  0  0  0  0  0  0  0  0  0  0
   -0.7259    2.5011    0.2155 H   0  0  0  0  0  0  0  0  0  0  0  0
   -1.9030    0.4510   -1.9621 H   0  0  0  0  0  0  0  0  0  0  0  0
   -4.4411   -1.1845   -2.8527 H   0  0  0  0  0  0  0  0  0  0  0  0
   -3.4239   -2.5973   -2.4405 H   0  0  0  0  0  0  0  0  0  0  0  0
   -2.7023   -1.1837   -3.2301 H   0  0  0  0  0  0  0  0  0  0  0  0
  1  2  1  0
  2  3  1  0
  3  4  1  0
  4  5  2  0
  5  6  1  0
  6  7  2  0
  7  8  1  0
  8  9  1  0
  9 10  1  0
 10 11  1  0
 11 12  1  0
 11 13  2  0
  9 14  1  0
 14 15  1  0
 14 16  1  0
 14 17  1  0
  9 18  1  0
 18 19  1  0
 18 20  1  0
 18 21  1  0
  7 22  1  0
 22  4  1  0
  1 23  1  0
  1 24  1  0
  1 25  1  0
  2 26  1  0
  2 27  1  0
  8 28  1  0
 10 29  1  0
 12 30  1  0
 12 31  1  0
 12 32  1  0
M  END
$$$$
