
     RDKit          3D

 44 46  0  0  0  0  0  0  0  0999 V2000
    5.6313    1.6962   -2.5440 C   0  0  0  0  0  0  0  0  0  0  0  0
    4.5801    0.7400   -2.5707 O   0  0  0  0  0  0  0  0  0  0  0  0
    3.8542    0.6724   -1.3408 C   0  0  0  0  0  0  0  0  0  0  0  0
    4.5295   -0.2980   -0.3747 C   0  0  0  0  0  0  0  0  0  0  0  0
    3.8246   -0.4001    0.9818 C   0  0  0  0  0  0  0  0  0  0  0  0
    2.4966   -1.0318    0.9135 N   0  0  0  0  0  0  0  0  0  0  0  0
    2.3451   -2.4191    0.9450 C   0  0  0  0  0  0  0  0  0  0  0  0
    3.5592   -3.5707    1.0787 S   0  0  0  0  0  0  0  0  0  0  0  0
    1.0679   -2.9041    0.8637 N   0  0  0  0  0  0  0  0  0  0  0  0
   -0.0654   -2.1047    0.7586 C   0  0  0  0  0  0  0  0  0  0  0  0
   -1.3254   -2.6828    0.6811 C   0  0  0  0  0  0  0  0  0  0  0  0
   -2.4571   -1.8628    0.5754 C   0  0  0  0  0  0  0  0  0  0  0  0
   -2.3675   -0.4595    0.5426 C   0  0  0  0  0  0  0  0  0  0  0  0
   -3.4927    0.3372    0.4417 N   0  0  0  0  0  0  0  0  0  0  0  0
   -3.4689    1.7751    0.7628 C   0  0  0  0  0  0  0  0  0  0  0  0
   -4.8834    2.2561    1.1293 C   0  0  0  0  0  0  0  0  0  0  0  0
   -5.8566    2.0634    0.0933 O   0  0  0  0  0  0  0  0  0  0  0  0
   -5.5452    0.9704   -0.7807 C   0  0  0  0  0  0  0  0  0  0  0  0
   -4.7641   -0.1692   -0.1041 C   0  0  0  0  0  0  0  0  0  0  0  0
   -1.0766    0.0857    0.6272 C   0  0  0  0  0  0  0  0  0  0  0  0
    0.0611   -0.7291    0.7333 C   0  0  0  0  0  0  0  0  0  0  0  0
    1.4113   -0.1445    0.8138 C   0  0  0  0  0  0  0  0  0  0  0  0
    1.5286    1.0797    0.7831 O   0  0  0  0  0  0  0  0  0  0  0  0
    5.2309    2.6995   -2.3691 H   0  0  0  0  0  0  0  0  0  0  0  0
    6.1266    1.6868   -3.5187 H   0  0  0  0  0  0  0  0  0  0  0  0
    6.3710    1.4474   -1.7786 H   0  0  0  0  0  0  0  0  0  0  0  0
    2.8558    0.3042   -1.5961 H   0  0  0  0  0  0  0  0  0  0  0  0
    3.7399    1.6713   -0.9042 H   0  0  0  0  0  0  0  0  0  0  0  0
    4.6061   -1.2803   -0.8546 H   0  0  0  0  0  0  0  0  0  0  0  0
    5.5627    0.0241   -0.2004 H   0  0  0  0  0  0  0  0  0  0  0  0
    3.7416    0.5998    1.4242 H   0  0  0  0  0  0  0  0  0  0  0  0
    4.4570   -0.9704    1.6706 H   0  0  0  0  0  0  0  0  0  0  0  0
    0.9685   -3.9132    0.8842 H   0  0  0  0  0  0  0  0  0  0  0  0
   -1.4525   -3.7613    0.7065 H   0  0  0  0  0  0  0  0  0  0  0  0
   -3.4277   -2.3518    0.5431 H   0  0  0  0  0  0  0  0  0  0  0  0
   -2.8138    1.9778    1.6178 H   0  0  0  0  0  0  0  0  0  0  0  0
   -3.0993    2.3300   -0.1074 H   0  0  0  0  0  0  0  0  0  0  0  0
   -4.8671    3.3238    1.3700 H   0  0  0  0  0  0  0  0  0  0  0  0
   -5.2429    1.7267    2.0198 H   0  0  0  0  0  0  0  0  0  0  0  0
   -6.4907    0.5911   -1.1814 H   0  0  0  0  0  0  0  0  0  0  0  0
   -4.9726    1.3736   -1.6245 H   0  0  0  0  0  0  0  0  0  0  0  0
   -4.5942   -0.9489   -0.8553 H   0  0  0  0  0  0  0  0  0  0  0  0
   -5.3560   -0.5917    0.7161 H   0  0  0  0  0  0  0  0  0  0  0  0
   -0.9302    1.1621    0.5890 H   0  0  0  0  0  0  0  0  0  0  0  0
  1  2  1  0
  2  3  1  0
  3  4  1  0
  4  5  1  0
  5  6  1  0
  6  7  1  0
  7  8  2  0
  7  9  1  0
  9 10  1  0
 10 11  2  0
 11 12  1  0
 12 13  2  0
 13 14  1  0
 14 15  1  0
 15 16  1  0
 16 17  1  0
 17 18  1  0
 18 19  1  0
 13 20  1  0
 20 21  2  0
 21 22  1  0
 22 23  2  0
 22  6  1  0
 21 10  1  0
 19 14  1  0
  1 24  1  0
  1 25  1  0
  1 26  1  0
  3 27  1  0
  3 28  1  0
  4 29  1  0
  4 30  1  0
  5 31  1  0
  5 32  1  0
  9 33  1  0
 11 34  1  0
 12 35  1  0
 15 36  1  0
 15 37  1  0
 16 38  1  0
 16 39  1  0
 18 40  1  0
 18 41  1  0
 19 42  1  0
 19 43  1  0
 20 44  1  0
M  END
$$$$
