
     RDKit          3D

 62 65  0  0  0  0  0  0  0  0999 V2000
    1.8921   -0.2248   -4.1410 C   0  0  0  0  0  0  0  0  0  0  0  0
    2.7315    0.0493   -2.9262 C   0  0  0  0  0  0  0  0  0  0  0  0
    3.7804    0.9750   -2.9789 C   0  0  0  0  0  0  0  0  0  0  0  0
    4.5757    1.2091   -1.8550 C   0  0  0  0  0  0  0  0  0  0  0  0
    4.3494    0.5074   -0.6632 C   0  0  0  0  0  0  0  0  0  0  0  0
    5.1877    0.7708    0.5615 C   0  0  0  0  0  0  0  0  0  0  0  0
    4.4037    1.4590    1.5613 N   0  0  0  0  0  0  0  0  0  0  0  0
    4.0876    0.8705    2.7673 C   0  0  0  0  0  0  0  0  0  0  0  0
    4.6017   -0.1680    3.1763 O   0  0  0  0  0  0  0  0  0  0  0  0
    3.0549    1.6359    3.5669 C   0  0  0  0  0  0  0  0  0  0  0  0
    2.0469    0.6945    4.2222 C   0  0  0  0  0  0  0  0  0  0  0  0
    1.1976   -0.0322    3.2233 C   0  0  0  0  0  0  0  0  0  0  0  0
    1.3147   -1.3831    2.8080 C   0  0  0  0  0  0  0  0  0  0  0  0
    2.2890   -2.4155    3.2493 C   0  0  0  0  0  0  0  0  0  0  0  0
    0.4153   -1.6971    1.8741 N   0  0  0  0  0  0  0  0  0  0  0  0
   -0.3099   -0.5634    1.6692 N   0  0  0  0  0  0  0  0  0  0  0  0
   -1.3681   -0.5555    0.7095 C   0  0  0  0  0  0  0  0  0  0  0  0
   -1.6709   -1.7100    0.0037 C   0  0  0  0  0  0  0  0  0  0  0  0
   -2.7227   -1.6830   -0.9143 C   0  0  0  0  0  0  0  0  0  0  0  0
   -3.4546   -0.5168   -1.1145 C   0  0  0  0  0  0  0  0  0  0  0  0
   -4.5008   -0.4791   -2.0400 N   0  0  0  0  0  0  0  0  0  0  0  0
   -5.0541    0.8634   -2.3046 C   0  0  0  0  0  0  0  0  0  0  0  0
   -6.2209    0.7438   -3.2981 C   0  0  0  0  0  0  0  0  0  0  0  0
   -7.3095   -0.0598   -2.8165 O   0  0  0  0  0  0  0  0  0  0  0  0
   -6.9219   -0.9850   -1.7878 C   0  0  0  0  0  0  0  0  0  0  0  0
   -5.5050   -1.5572   -1.9759 C   0  0  0  0  0  0  0  0  0  0  0  0
   -3.1012    0.5904   -0.4267 N   0  0  0  0  0  0  0  0  0  0  0  0
   -2.0693    0.5747    0.4949 N   0  0  0  0  0  0  0  0  0  0  0  0
    0.1317    0.4694    2.4894 C   0  0  0  0  0  0  0  0  0  0  0  0
   -0.4795    1.8262    2.5093 C   0  0  0  0  0  0  0  0  0  0  0  0
    3.3094   -0.4306   -0.6183 C   0  0  0  0  0  0  0  0  0  0  0  0
    2.5102   -0.6601   -1.7406 C   0  0  0  0  0  0  0  0  0  0  0  0
    1.8675    0.6446   -4.8063 H   0  0  0  0  0  0  0  0  0  0  0  0
    0.8548   -0.4452   -3.8545 H   0  0  0  0  0  0  0  0  0  0  0  0
    2.2998   -1.0781   -4.6951 H   0  0  0  0  0  0  0  0  0  0  0  0
    3.9828    1.5237   -3.8967 H   0  0  0  0  0  0  0  0  0  0  0  0
    5.3758    1.9429   -1.9204 H   0  0  0  0  0  0  0  0  0  0  0  0
    5.5947   -0.1702    0.9457 H   0  0  0  0  0  0  0  0  0  0  0  0
    6.0325    1.4231    0.3178 H   0  0  0  0  0  0  0  0  0  0  0  0
    3.8517    2.2432    1.2378 H   0  0  0  0  0  0  0  0  0  0  0  0
    2.5405    2.3620    2.9308 H   0  0  0  0  0  0  0  0  0  0  0  0
    3.5916    2.1976    4.3375 H   0  0  0  0  0  0  0  0  0  0  0  0
    1.3928    1.2782    4.8822 H   0  0  0  0  0  0  0  0  0  0  0  0
    2.5653   -0.0196    4.8718 H   0  0  0  0  0  0  0  0  0  0  0  0
    2.6621   -2.2153    4.2584 H   0  0  0  0  0  0  0  0  0  0  0  0
    1.8241   -3.4074    3.2623 H   0  0  0  0  0  0  0  0  0  0  0  0
    3.1421   -2.4485    2.5636 H   0  0  0  0  0  0  0  0  0  0  0  0
   -1.1105   -2.6289    0.1501 H   0  0  0  0  0  0  0  0  0  0  0  0
   -2.9463   -2.5785   -1.4843 H   0  0  0  0  0  0  0  0  0  0  0  0
   -4.2801    1.5124   -2.7337 H   0  0  0  0  0  0  0  0  0  0  0  0
   -5.4227    1.3194   -1.3747 H   0  0  0  0  0  0  0  0  0  0  0  0
   -5.8769    0.2988   -4.2379 H   0  0  0  0  0  0  0  0  0  0  0  0
   -6.6226    1.7349   -3.5313 H   0  0  0  0  0  0  0  0  0  0  0  0
   -7.6545   -1.7993   -1.7837 H   0  0  0  0  0  0  0  0  0  0  0  0
   -7.0046   -0.4699   -0.8218 H   0  0  0  0  0  0  0  0  0  0  0  0
   -5.4624   -2.1071   -2.9220 H   0  0  0  0  0  0  0  0  0  0  0  0
   -5.3109   -2.2689   -1.1648 H   0  0  0  0  0  0  0  0  0  0  0  0
   -0.3756    2.3178    1.5385 H   0  0  0  0  0  0  0  0  0  0  0  0
   -1.5363    1.7748    2.7805 H   0  0  0  0  0  0  0  0  0  0  0  0
    0.0073    2.4684    3.2474 H   0  0  0  0  0  0  0  0  0  0  0  0
    3.1146   -0.9887    0.2967 H   0  0  0  0  0  0  0  0  0  0  0  0
    1.7121   -1.3966   -1.6790 H   0  0  0  0  0  0  0  0  0  0  0  0
  1  2  1  0
  2  3  2  0
  3  4  1  0
  4  5  2  0
  5  6  1  0
  6  7  1  0
  7  8  1  0
  8  9  2  0
  8 10  1  0
 10 11  1  0
 11 12  1  0
 12 13  1  0
 13 14  1  0
 13 15  2  0
 15 16  1  0
 16 17  1  0
 17 18  2  0
 18 19  1  0
 19 20  2  0
 20 21  1  0
 21 22  1  0
 22 23  1  0
 23 24  1  0
 24 25  1  0
 25 26  1  0
 20 27  1  0
 27 28  2  0
 16 29  1  0
 29 30  1  0
  5 31  1  0
 31 32  2  0
 32  2  1  0
 29 12  2  0
 28 17  1  0
 26 21  1  0
  1 33  1  0
  1 34  1  0
  1 35  1  0
  3 36  1  0
  4 37  1  0
  6 38  1  0
  6 39  1  0
  7 40  1  0
 10 41  1  0
 10 42  1  0
 11 43  1  0
 11 44  1  0
 14 45  1  0
 14 46  1  0
 14 47  1  0
 18 48  1  0
 19 49  1  0
 22 50  1  0
 22 51  1  0
 23 52  1  0
 23 53  1  0
 25 54  1  0
 25 55  1  0
 26 56  1  0
 26 57  1  0
 30 58  1  0
 30 59  1  0
 30 60  1  0
 31 61  1  0
 32 62  1  0
M  END
$$$$
