
     RDKit          3D

 40 41  0  0  0  0  0  0  0  0999 V2000
   -1.1251    1.8174   -2.3610 O   0  0  0  0  0  0  0  0  0  0  0  0
   -0.2914    1.8431   -1.4728 C   0  0  0  0  0  0  0  0  0  0  0  0
    1.0265    1.7573   -1.7234 O   0  0  0  0  0  0  0  0  0  0  0  0
   -0.5794    1.8528    0.0012 C   0  0  0  0  0  0  0  0  0  0  0  0
   -1.0806    0.4710    0.4290 C   0  0  0  0  0  0  0  0  0  0  0  0
   -1.3819    0.3618    1.8757 N   0  0  0  0  0  0  0  0  0  0  0  0
   -2.4431    1.2553    2.3285 C   0  0  0  0  0  0  0  0  0  0  0  0
   -2.8160    0.9518    3.7380 C   0  0  0  0  0  0  0  0  0  0  0  0
   -2.1324    1.0092    4.9365 C   0  0  0  0  0  0  0  0  0  0  0  0
   -3.0448    0.5985    5.9379 C   0  0  0  0  0  0  0  0  0  0  0  0
   -4.2251    0.3205    5.2904 C   0  0  0  0  0  0  0  0  0  0  0  0
   -4.0986    0.5381    3.9567 O   0  0  0  0  0  0  0  0  0  0  0  0
    0.0101   -0.5686    0.0927 C   0  0  0  0  0  0  0  0  0  0  0  0
    0.9651   -0.8404    0.8113 O   0  0  0  0  0  0  0  0  0  0  0  0
   -0.2058   -1.0892   -1.1477 O   0  0  0  0  0  0  0  0  0  0  0  0
    0.7951   -1.9984   -1.6393 C   0  0  0  0  0  0  0  0  0  0  0  0
    2.0361   -1.2536   -2.1414 C   0  0  0  0  0  0  0  0  0  0  0  0
    3.1110   -2.1906   -2.6697 C   0  0  0  0  0  0  0  0  0  0  0  0
    3.8199   -1.3165   -3.6725 C   0  0  0  0  0  0  0  0  0  0  0  0
    2.6672   -0.5511   -4.2822 C   0  0  0  0  0  0  0  0  0  0  0  0
    1.6964   -0.3653   -3.2387 O   0  0  0  0  0  0  0  0  0  0  0  0
    1.1048    1.3896   -2.6377 H   0  0  0  0  0  0  0  0  0  0  0  0
    0.3280    2.1386    0.5480 H   0  0  0  0  0  0  0  0  0  0  0  0
   -1.3214    2.6380    0.1796 H   0  0  0  0  0  0  0  0  0  0  0  0
   -1.9836    0.1916   -0.1286 H   0  0  0  0  0  0  0  0  0  0  0  0
   -0.5305    0.5095    2.4188 H   0  0  0  0  0  0  0  0  0  0  0  0
   -2.1196    2.3007    2.2788 H   0  0  0  0  0  0  0  0  0  0  0  0
   -3.3267    1.1470    1.6888 H   0  0  0  0  0  0  0  0  0  0  0  0
   -1.1010    1.3041    5.0675 H   0  0  0  0  0  0  0  0  0  0  0  0
   -2.8647    0.5113    6.9999 H   0  0  0  0  0  0  0  0  0  0  0  0
   -5.1967   -0.0233    5.6165 H   0  0  0  0  0  0  0  0  0  0  0  0
    1.0476   -2.7352   -0.8674 H   0  0  0  0  0  0  0  0  0  0  0  0
    0.3251   -2.5371   -2.4697 H   0  0  0  0  0  0  0  0  0  0  0  0
    2.4495   -0.6146   -1.3534 H   0  0  0  0  0  0  0  0  0  0  0  0
    3.7683   -2.5677   -1.8810 H   0  0  0  0  0  0  0  0  0  0  0  0
    2.6648   -3.0514   -3.1824 H   0  0  0  0  0  0  0  0  0  0  0  0
    4.4954   -0.6263   -3.1541 H   0  0  0  0  0  0  0  0  0  0  0  0
    4.3985   -1.8758   -4.4115 H   0  0  0  0  0  0  0  0  0  0  0  0
    2.1886   -1.1242   -5.0832 H   0  0  0  0  0  0  0  0  0  0  0  0
    2.9701    0.4220   -4.6782 H   0  0  0  0  0  0  0  0  0  0  0  0
  1  2  2  0
  2  3  1  0
  2  4  1  0
  4  5  1  0
  5  6  1  0
  6  7  1  0
  7  8  1  0
  8  9  2  0
  9 10  1  0
 10 11  2  0
 11 12  1  0
  5 13  1  0
 13 14  2  0
 13 15  1  0
 15 16  1  0
 16 17  1  0
 17 18  1  0
 18 19  1  0
 19 20  1  0
 20 21  1  0
 12  8  1  0
 21 17  1  0
  3 22  1  0
  4 23  1  0
  4 24  1  0
  5 25  1  0
  6 26  1  0
  7 27  1  0
  7 28  1  0
  9 29  1  0
 10 30  1  0
 11 31  1  0
 16 32  1  0
 16 33  1  0
 17 34  1  0
 18 35  1  0
 18 36  1  0
 19 37  1  0
 19 38  1  0
 20 39  1  0
 20 40  1  0
M  END
$$$$
