
     RDKit          3D

 46 50  0  0  0  0  0  0  0  0999 V2000
    0.9965   -1.7565    0.5540 O   0  0  0  0  0  0  0  0  0  0  0  0
    0.6169   -0.6922    0.0819 C   0  0  0  0  0  0  0  0  0  0  0  0
    1.4203    0.2848   -0.4712 N   0  0  0  0  0  0  0  0  0  0  0  0
    2.8367    0.2935   -0.5193 C   0  0  0  0  0  0  0  0  0  0  0  0
    3.3749    0.8187   -1.7063 C   0  0  0  0  0  0  0  0  0  0  0  0
    4.7475    0.8331   -1.9236 C   0  0  0  0  0  0  0  0  0  0  0  0
    5.6040    0.3438   -0.9448 C   0  0  0  0  0  0  0  0  0  0  0  0
    5.1068   -0.1270    0.2784 C   0  0  0  0  0  0  0  0  0  0  0  0
    6.0114   -0.5592    1.2636 C   0  0  0  0  0  0  0  0  0  0  0  0
    5.5680   -0.9727    2.5167 C   0  0  0  0  0  0  0  0  0  0  0  0
    4.2130   -0.9423    2.8047 C   0  0  0  0  0  0  0  0  0  0  0  0
    3.3023   -0.5227    1.8303 C   0  0  0  0  0  0  0  0  0  0  0  0
    3.7071   -0.1398    0.5265 C   0  0  0  0  0  0  0  0  0  0  0  0
   -0.8018   -0.4340   -0.0980 C   0  0  0  0  0  0  0  0  0  0  0  0
   -1.6909   -1.3863   -0.5644 C   0  0  0  0  0  0  0  0  0  0  0  0
   -2.9234   -0.7936   -0.6647 N   0  0  0  0  0  0  0  0  0  0  0  0
   -4.1434   -1.3755   -1.1111 C   0  0  0  0  0  0  0  0  0  0  0  0
   -5.3059   -0.5896   -1.1583 C   0  0  0  0  0  0  0  0  0  0  0  0
   -6.5126   -1.1411   -1.5941 C   0  0  0  0  0  0  0  0  0  0  0  0
   -6.5689   -2.4772   -1.9841 C   0  0  0  0  0  0  0  0  0  0  0  0
   -5.4197   -3.2647   -1.9387 C   0  0  0  0  0  0  0  0  0  0  0  0
   -4.2076   -2.7199   -1.5037 C   0  0  0  0  0  0  0  0  0  0  0  0
   -2.8701    0.5048   -0.2856 N   0  0  0  0  0  0  0  0  0  0  0  0
   -1.6109    0.7067    0.1262 C   0  0  0  0  0  0  0  0  0  0  0  0
   -1.2381    2.0954    0.7892 C   0  0  0  0  0  0  0  0  0  0  0  0
   -2.1407    3.1377    0.8855 C   0  0  0  0  0  0  0  0  0  0  0  0
   -1.5881    4.2817    1.5322 C   0  0  0  0  0  0  0  0  0  0  0  0
   -0.2846    4.0692    1.9191 C   0  0  0  0  0  0  0  0  0  0  0  0
    0.2538    2.5009    1.5063 S   0  0  0  0  0  0  0  0  0  0  0  0
    0.9548    0.8900   -1.1357 H   0  0  0  0  0  0  0  0  0  0  0  0
    2.7258    1.1840   -2.4985 H   0  0  0  0  0  0  0  0  0  0  0  0
    5.1498    1.2145   -2.8582 H   0  0  0  0  0  0  0  0  0  0  0  0
    6.6754    0.3564   -1.1356 H   0  0  0  0  0  0  0  0  0  0  0  0
    7.0811   -0.5646    1.0648 H   0  0  0  0  0  0  0  0  0  0  0  0
    6.2801   -1.3010    3.2683 H   0  0  0  0  0  0  0  0  0  0  0  0
    3.8535   -1.2420    3.7855 H   0  0  0  0  0  0  0  0  0  0  0  0
    2.2565   -0.4856    2.1194 H   0  0  0  0  0  0  0  0  0  0  0  0
   -1.5152   -2.4164   -0.8365 H   0  0  0  0  0  0  0  0  0  0  0  0
   -5.2884    0.4564   -0.8574 H   0  0  0  0  0  0  0  0  0  0  0  0
   -7.4084   -0.5260   -1.6271 H   0  0  0  0  0  0  0  0  0  0  0  0
   -7.5092   -2.9055   -2.3220 H   0  0  0  0  0  0  0  0  0  0  0  0
   -5.4674   -4.3082   -2.2413 H   0  0  0  0  0  0  0  0  0  0  0  0
   -3.3407   -3.3729   -1.4816 H   0  0  0  0  0  0  0  0  0  0  0  0
   -3.1547    3.0818    0.5063 H   0  0  0  0  0  0  0  0  0  0  0  0
   -2.1220    5.2076    1.7079 H   0  0  0  0  0  0  0  0  0  0  0  0
    0.3765    4.7555    2.4307 H   0  0  0  0  0  0  0  0  0  0  0  0
  1  2  2  0
  2  3  1  0
  3  4  1  0
  4  5  2  0
  5  6  1  0
  6  7  2  0
  7  8  1  0
  8  9  2  0
  9 10  1  0
 10 11  2  0
 11 12  1  0
 12 13  2  0
  2 14  1  0
 14 15  2  0
 15 16  1  0
 16 17  1  0
 17 18  2  0
 18 19  1  0
 19 20  2  0
 20 21  1  0
 21 22  2  0
 16 23  1  0
 23 24  2  0
 24 25  1  0
 25 26  2  0
 26 27  1  0
 27 28  2  0
 28 29  1  0
 13  4  1  0
 24 14  1  0
 29 25  1  0
 13  8  1  0
 22 17  1  0
  3 30  1  0
  5 31  1  0
  6 32  1  0
  7 33  1  0
  9 34  1  0
 10 35  1  0
 11 36  1  0
 12 37  1  0
 15 38  1  0
 18 39  1  0
 19 40  1  0
 20 41  1  0
 21 42  1  0
 22 43  1  0
 26 44  1  0
 27 45  1  0
 28 46  1  0
M  END
$$$$
