
     RDKit          3D

 45 47  0  0  0  0  0  0  0  0999 V2000
   -5.0122   -1.2745    1.3959 C   0  0  0  0  0  0  0  0  0  0  0  0
   -4.0738   -0.3462    0.6293 C   0  0  0  0  0  0  0  0  0  0  0  0
   -3.0617   -1.0822   -0.1374 N   0  0  0  0  0  0  0  0  0  0  0  0
   -2.4941   -0.3068   -1.2463 C   0  0  0  0  0  0  0  0  0  0  0  0
   -3.4950   -0.0273   -2.3657 C   0  0  0  0  0  0  0  0  0  0  0  0
   -2.0197   -1.7210    0.7031 C   0  0  0  0  0  0  0  0  0  0  0  0
   -1.0451   -0.8169    1.4448 C   0  0  0  0  0  0  0  0  0  0  0  0
   -1.3028   -0.3877    2.7588 C   0  0  0  0  0  0  0  0  0  0  0  0
   -2.4324   -0.8205    3.3954 O   0  0  0  0  0  0  0  0  0  0  0  0
   -0.4248    0.4553    3.4444 C   0  0  0  0  0  0  0  0  0  0  0  0
    0.7497    0.8764    2.8285 C   0  0  0  0  0  0  0  0  0  0  0  0
    1.0474    0.4383    1.5360 C   0  0  0  0  0  0  0  0  0  0  0  0
    2.3041    0.8638    0.8895 C   0  0  0  0  0  0  0  0  0  0  0  0
    3.0752    1.6203    1.4692 O   0  0  0  0  0  0  0  0  0  0  0  0
    2.5712    0.3288   -0.4730 C   0  0  0  0  0  0  0  0  0  0  0  0
    3.7792    0.6790   -1.2434 C   0  0  0  0  0  0  0  0  0  0  0  0
    4.5593   -0.3149   -1.8563 C   0  0  0  0  0  0  0  0  0  0  0  0
    5.6974    0.0237   -2.5930 C   0  0  0  0  0  0  0  0  0  0  0  0
    6.0723    1.3587   -2.7234 C   0  0  0  0  0  0  0  0  0  0  0  0
    5.3132    2.3551   -2.1144 C   0  0  0  0  0  0  0  0  0  0  0  0
    4.1747    2.0172   -1.3782 C   0  0  0  0  0  0  0  0  0  0  0  0
    1.6362   -0.4780   -0.9961 C   0  0  0  0  0  0  0  0  0  0  0  0
    0.4650   -0.8769   -0.4042 O   0  0  0  0  0  0  0  0  0  0  0  0
    0.1677   -0.4061    0.8526 C   0  0  0  0  0  0  0  0  0  0  0  0
   -5.7978   -0.6875    1.8836 H   0  0  0  0  0  0  0  0  0  0  0  0
   -4.5004   -1.8460    2.1735 H   0  0  0  0  0  0  0  0  0  0  0  0
   -5.4997   -1.9828    0.7173 H   0  0  0  0  0  0  0  0  0  0  0  0
   -4.7209    0.2258   -0.0435 H   0  0  0  0  0  0  0  0  0  0  0  0
   -3.6242    0.3934    1.2996 H   0  0  0  0  0  0  0  0  0  0  0  0
   -1.6899   -0.8860   -1.7140 H   0  0  0  0  0  0  0  0  0  0  0  0
   -2.0632    0.6385   -0.8963 H   0  0  0  0  0  0  0  0  0  0  0  0
   -3.9935   -0.9473   -2.6886 H   0  0  0  0  0  0  0  0  0  0  0  0
   -2.9724    0.3904   -3.2331 H   0  0  0  0  0  0  0  0  0  0  0  0
   -4.2583    0.6973   -2.0694 H   0  0  0  0  0  0  0  0  0  0  0  0
   -2.4902   -2.4057    1.4191 H   0  0  0  0  0  0  0  0  0  0  0  0
   -1.4460   -2.4098    0.0677 H   0  0  0  0  0  0  0  0  0  0  0  0
   -2.4584   -0.4538    4.2946 H   0  0  0  0  0  0  0  0  0  0  0  0
   -0.6361    0.7879    4.4567 H   0  0  0  0  0  0  0  0  0  0  0  0
    1.4369    1.5322    3.3594 H   0  0  0  0  0  0  0  0  0  0  0  0
    4.2968   -1.3658   -1.7565 H   0  0  0  0  0  0  0  0  0  0  0  0
    6.2944   -0.7559   -3.0592 H   0  0  0  0  0  0  0  0  0  0  0  0
    6.9601    1.6226   -3.2923 H   0  0  0  0  0  0  0  0  0  0  0  0
    5.6085    3.3973   -2.2052 H   0  0  0  0  0  0  0  0  0  0  0  0
    3.6023    2.8121   -0.9036 H   0  0  0  0  0  0  0  0  0  0  0  0
    1.7009   -0.9145   -1.9861 H   0  0  0  0  0  0  0  0  0  0  0  0
  1  2  1  0
  2  3  1  0
  3  4  1  0
  4  5  1  0
  3  6  1  0
  6  7  1  0
  7  8  2  0
  8  9  1  0
  8 10  1  0
 10 11  2  0
 11 12  1  0
 12 13  1  0
 13 14  2  0
 13 15  1  0
 15 16  1  0
 16 17  2  0
 17 18  1  0
 18 19  2  0
 19 20  1  0
 20 21  2  0
 15 22  2  0
 22 23  1  0
 23 24  1  0
 24  7  1  0
 24 12  2  0
 21 16  1  0
  1 25  1  0
  1 26  1  0
  1 27  1  0
  2 28  1  0
  2 29  1  0
  4 30  1  0
  4 31  1  0
  5 32  1  0
  5 33  1  0
  5 34  1  0
  6 35  1  0
  6 36  1  0
  9 37  1  0
 10 38  1  0
 11 39  1  0
 17 40  1  0
 18 41  1  0
 19 42  1  0
 20 43  1  0
 21 44  1  0
 22 45  1  0
M  END
$$$$
