
     RDKit          3D

 69 73  0  0  0  0  0  0  0  0999 V2000
   -0.2615    5.0751    4.1365 C   0  0  0  0  0  0  0  0  0  0  0  0
   -0.4846    4.2365    2.9131 C   0  0  0  0  0  0  0  0  0  0  0  0
   -0.1237    4.7062    1.6486 C   0  0  0  0  0  0  0  0  0  0  0  0
   -0.3508    3.9183    0.5158 C   0  0  0  0  0  0  0  0  0  0  0  0
   -0.9447    2.6457    0.6172 C   0  0  0  0  0  0  0  0  0  0  0  0
   -1.2081    1.8775   -0.6665 C   0  0  0  0  0  0  0  0  0  0  0  0
   -1.7593    0.5328   -0.5307 N   0  0  0  0  0  0  0  0  0  0  0  0
   -3.1285    0.3660   -0.7966 C   0  0  0  0  0  0  0  0  0  0  0  0
   -3.8645    1.2894   -1.1497 O   0  0  0  0  0  0  0  0  0  0  0  0
   -3.6408   -1.0949   -0.7421 C   0  0  0  0  0  0  0  0  0  0  0  0
   -5.1774   -1.1310   -0.6572 C   0  0  0  0  0  0  0  0  0  0  0  0
   -5.8173   -2.5337   -0.7043 C   0  0  0  0  0  0  0  0  0  0  0  0
   -7.3406   -2.4072   -0.6295 C   0  0  0  0  0  0  0  0  0  0  0  0
   -5.4298   -3.3141   -1.9595 C   0  0  0  0  0  0  0  0  0  0  0  0
   -3.0575   -1.7907    0.3972 N   0  0  0  0  0  0  0  0  0  0  0  0
   -1.6581   -1.7323    0.3917 C   0  0  0  0  0  0  0  0  0  0  0  0
   -1.0582   -2.8223    0.8934 N   0  0  0  0  0  0  0  0  0  0  0  0
    0.2692   -2.7574    0.9933 C   0  0  0  0  0  0  0  0  0  0  0  0
    1.0350   -1.7294    0.6171 N   0  0  0  0  0  0  0  0  0  0  0  0
    0.4184   -0.6431    0.0994 C   0  0  0  0  0  0  0  0  0  0  0  0
    1.2457    0.4001   -0.3383 N   0  0  0  0  0  0  0  0  0  0  0  0
    2.2841    0.8014    0.6469 C   0  0  0  0  0  0  0  0  0  0  0  0
    3.5980   -0.0118    0.5779 C   0  0  0  0  0  0  0  0  0  0  0  0
    4.0910   -0.1210   -0.8214 N   0  0  0  0  0  0  0  0  0  0  0  0
    5.3998   -0.6180   -0.9104 C   0  0  0  0  0  0  0  0  0  0  0  0
    6.4571    0.1572   -0.4078 C   0  0  0  0  0  0  0  0  0  0  0  0
    7.7853   -0.2751   -0.4800 C   0  0  0  0  0  0  0  0  0  0  0  0
    8.0851   -1.5021   -1.0634 C   0  0  0  0  0  0  0  0  0  0  0  0
    7.0580   -2.2871   -1.5791 C   0  0  0  0  0  0  0  0  0  0  0  0
    5.7321   -1.8438   -1.5095 C   0  0  0  0  0  0  0  0  0  0  0  0
    3.0666   -0.6976   -1.7178 C   0  0  0  0  0  0  0  0  0  0  0  0
    1.7913    0.1728   -1.6978 C   0  0  0  0  0  0  0  0  0  0  0  0
   -0.9792   -0.5815   -0.0382 C   0  0  0  0  0  0  0  0  0  0  0  0
   -1.2992    2.1817    1.8910 C   0  0  0  0  0  0  0  0  0  0  0  0
   -1.0600    2.9631    3.0273 C   0  0  0  0  0  0  0  0  0  0  0  0
   -1.2094    5.2440    4.6572 H   0  0  0  0  0  0  0  0  0  0  0  0
    0.4414    4.5750    4.8131 H   0  0  0  0  0  0  0  0  0  0  0  0
    0.1616    6.0538    3.8842 H   0  0  0  0  0  0  0  0  0  0  0  0
    0.3141    5.6981    1.5311 H   0  0  0  0  0  0  0  0  0  0  0  0
   -0.0768    4.3138   -0.4606 H   0  0  0  0  0  0  0  0  0  0  0  0
   -0.3261    1.8532   -1.3086 H   0  0  0  0  0  0  0  0  0  0  0  0
   -1.9226    2.4901   -1.2304 H   0  0  0  0  0  0  0  0  0  0  0  0
   -3.3189   -1.5637   -1.6818 H   0  0  0  0  0  0  0  0  0  0  0  0
   -5.5922   -0.5330   -1.4817 H   0  0  0  0  0  0  0  0  0  0  0  0
   -5.4937   -0.6322    0.2712 H   0  0  0  0  0  0  0  0  0  0  0  0
   -5.4934   -3.1057    0.1720 H   0  0  0  0  0  0  0  0  0  0  0  0
   -7.7402   -1.8169   -1.4645 H   0  0  0  0  0  0  0  0  0  0  0  0
   -7.6412   -1.9131    0.3005 H   0  0  0  0  0  0  0  0  0  0  0  0
   -7.8183   -3.3917   -0.6512 H   0  0  0  0  0  0  0  0  0  0  0  0
   -5.9671   -4.2686   -2.0073 H   0  0  0  0  0  0  0  0  0  0  0  0
   -4.3599   -3.5464   -1.9719 H   0  0  0  0  0  0  0  0  0  0  0  0
   -5.6705   -2.7504   -2.8671 H   0  0  0  0  0  0  0  0  0  0  0  0
   -3.3258   -2.7604    0.5405 H   0  0  0  0  0  0  0  0  0  0  0  0
    0.7749   -3.6169    1.4196 H   0  0  0  0  0  0  0  0  0  0  0  0
    1.8780    0.7714    1.6694 H   0  0  0  0  0  0  0  0  0  0  0  0
    2.5267    1.8566    0.4465 H   0  0  0  0  0  0  0  0  0  0  0  0
    3.4520   -1.0149    0.9940 H   0  0  0  0  0  0  0  0  0  0  0  0
    4.3277    0.4945    1.2205 H   0  0  0  0  0  0  0  0  0  0  0  0
    6.2472    1.1302    0.0315 H   0  0  0  0  0  0  0  0  0  0  0  0
    8.5832    0.3523   -0.0915 H   0  0  0  0  0  0  0  0  0  0  0  0
    9.1152   -1.8443   -1.1188 H   0  0  0  0  0  0  0  0  0  0  0  0
    7.2863   -3.2465   -2.0384 H   0  0  0  0  0  0  0  0  0  0  0  0
    4.9637   -2.4921   -1.9191 H   0  0  0  0  0  0  0  0  0  0  0  0
    3.4353   -0.7206   -2.7515 H   0  0  0  0  0  0  0  0  0  0  0  0
    2.8232   -1.7254   -1.4211 H   0  0  0  0  0  0  0  0  0  0  0  0
    2.0376    1.1579   -2.1164 H   0  0  0  0  0  0  0  0  0  0  0  0
    1.0292   -0.2652   -2.3575 H   0  0  0  0  0  0  0  0  0  0  0  0
   -1.7678    1.2090    2.0240 H   0  0  0  0  0  0  0  0  0  0  0  0
   -1.3466    2.5785    4.0053 H   0  0  0  0  0  0  0  0  0  0  0  0
  1  2  1  0
  2  3  2  0
  3  4  1  0
  4  5  2  0
  5  6  1  0
  6  7  1  0
  7  8  1  0
  8  9  2  0
  8 10  1  0
 10 11  1  0
 11 12  1  0
 12 13  1  0
 12 14  1  0
 10 15  1  0
 15 16  1  0
 16 17  2  0
 17 18  1  0
 18 19  2  0
 19 20  1  0
 20 21  1  0
 21 22  1  0
 22 23  1  0
 23 24  1  0
 24 25  1  0
 25 26  2  0
 26 27  1  0
 27 28  2  0
 28 29  1  0
 29 30  2  0
 24 31  1  0
 31 32  1  0
 20 33  2  0
  5 34  1  0
 34 35  2  0
 35  2  1  0
 33  7  1  0
 33 16  1  0
 32 21  1  0
 30 25  1  0
  1 36  1  0
  1 37  1  0
  1 38  1  0
  3 39  1  0
  4 40  1  0
  6 41  1  0
  6 42  1  0
 10 43  1  0
 11 44  1  0
 11 45  1  0
 12 46  1  0
 13 47  1  0
 13 48  1  0
 13 49  1  0
 14 50  1  0
 14 51  1  0
 14 52  1  0
 15 53  1  0
 18 54  1  0
 22 55  1  0
 22 56  1  0
 23 57  1  0
 23 58  1  0
 26 59  1  0
 27 60  1  0
 28 61  1  0
 29 62  1  0
 30 63  1  0
 31 64  1  0
 31 65  1  0
 32 66  1  0
 32 67  1  0
 34 68  1  0
 35 69  1  0
M  END
$$$$
