
     RDKit          3D

 50 53  0  0  0  0  0  0  0  0999 V2000
   -0.9020    3.3216    1.3257 C   0  0  0  0  0  0  0  0  0  0  0  0
   -0.2896    2.2884    0.5532 O   0  0  0  0  0  0  0  0  0  0  0  0
   -1.0653    1.8443   -0.4680 C   0  0  0  0  0  0  0  0  0  0  0  0
   -2.1553    2.2741   -0.8022 O   0  0  0  0  0  0  0  0  0  0  0  0
   -0.3522    0.7478   -1.1455 C   0  0  0  0  0  0  0  0  0  0  0  0
   -0.7799   -0.5386   -1.1213 C   0  0  0  0  0  0  0  0  0  0  0  0
   -1.9925   -0.9861   -0.4223 C   0  0  0  0  0  0  0  0  0  0  0  0
   -1.8860   -1.7299    0.7598 C   0  0  0  0  0  0  0  0  0  0  0  0
   -3.0323   -2.1559    1.4329 C   0  0  0  0  0  0  0  0  0  0  0  0
   -4.2948   -1.8467    0.9251 C   0  0  0  0  0  0  0  0  0  0  0  0
   -4.4124   -1.1065   -0.2563 C   0  0  0  0  0  0  0  0  0  0  0  0
   -5.7090   -0.7919   -0.7799 C   0  0  0  0  0  0  0  0  0  0  0  0
   -6.7625   -0.5503   -1.2023 N   0  0  0  0  0  0  0  0  0  0  0  0
   -3.2620   -0.6781   -0.9283 C   0  0  0  0  0  0  0  0  0  0  0  0
    0.0676   -1.6348   -1.7734 C   0  0  0  0  0  0  0  0  0  0  0  0
    1.3093   -1.0552   -2.5063 C   0  0  0  0  0  0  0  0  0  0  0  0
    0.9080   -0.3108   -3.7898 C   0  0  0  0  0  0  0  0  0  0  0  0
    0.7178    1.1539   -3.3571 C   0  0  0  0  0  0  0  0  0  0  0  0
    0.9363    1.1387   -1.8402 C   0  0  0  0  0  0  0  0  0  0  0  0
    1.8460    0.0137   -1.6741 N   0  0  0  0  0  0  0  0  0  0  0  0
    2.6401   -0.2832   -0.5916 C   0  0  0  0  0  0  0  0  0  0  0  0
    3.1583   -1.3885   -0.4537 O   0  0  0  0  0  0  0  0  0  0  0  0
    2.8142    0.7375    0.3035 N   0  0  0  0  0  0  0  0  0  0  0  0
    3.5207    0.5341    1.5478 C   0  0  0  0  0  0  0  0  0  0  0  0
    2.5260    0.4161    2.6616 C   0  0  0  0  0  0  0  0  0  0  0  0
    2.7877   -0.4987    3.8300 C   0  0  0  0  0  0  0  0  0  0  0  0
    1.7118   -0.8409    2.8362 C   0  0  0  0  0  0  0  0  0  0  0  0
   -0.2075    3.6030    2.1236 H   0  0  0  0  0  0  0  0  0  0  0  0
   -1.0933    4.2028    0.7043 H   0  0  0  0  0  0  0  0  0  0  0  0
   -1.8266    2.9567    1.7841 H   0  0  0  0  0  0  0  0  0  0  0  0
   -0.9075   -1.9775    1.1689 H   0  0  0  0  0  0  0  0  0  0  0  0
   -2.9398   -2.7328    2.3508 H   0  0  0  0  0  0  0  0  0  0  0  0
   -5.1829   -2.1854    1.4560 H   0  0  0  0  0  0  0  0  0  0  0  0
   -3.3563   -0.0932   -1.8429 H   0  0  0  0  0  0  0  0  0  0  0  0
    0.4179   -2.3170   -0.9878 H   0  0  0  0  0  0  0  0  0  0  0  0
   -0.5383   -2.2239   -2.4725 H   0  0  0  0  0  0  0  0  0  0  0  0
    2.0456   -1.8422   -2.6991 H   0  0  0  0  0  0  0  0  0  0  0  0
    1.7193   -0.3623   -4.5255 H   0  0  0  0  0  0  0  0  0  0  0  0
    0.0112   -0.7250   -4.2612 H   0  0  0  0  0  0  0  0  0  0  0  0
    1.4833    1.7717   -3.8411 H   0  0  0  0  0  0  0  0  0  0  0  0
   -0.2591    1.5488   -3.6532 H   0  0  0  0  0  0  0  0  0  0  0  0
    1.3647    2.0747   -1.4744 H   0  0  0  0  0  0  0  0  0  0  0  0
    2.1246    1.4695    0.3147 H   0  0  0  0  0  0  0  0  0  0  0  0
    4.1727   -0.3431    1.4873 H   0  0  0  0  0  0  0  0  0  0  0  0
    4.1485    1.4157    1.7110 H   0  0  0  0  0  0  0  0  0  0  0  0
    2.0392    1.3622    2.8688 H   0  0  0  0  0  0  0  0  0  0  0  0
    2.4822   -0.1656    4.8150 H   0  0  0  0  0  0  0  0  0  0  0  0
    3.6849   -1.1075    3.8278 H   0  0  0  0  0  0  0  0  0  0  0  0
    1.8910   -1.6706    2.1598 H   0  0  0  0  0  0  0  0  0  0  0  0
    0.6783   -0.7330    3.1437 H   0  0  0  0  0  0  0  0  0  0  0  0
  1  2  1  0
  2  3  1  0
  3  4  2  0
  3  5  1  0
  5  6  2  0
  6  7  1  0
  7  8  2  0
  8  9  1  0
  9 10  2  0
 10 11  1  0
 11 12  1  0
 12 13  3  0
 11 14  2  0
  6 15  1  0
 15 16  1  0
 16 17  1  0
 17 18  1  0
 18 19  1  0
 19 20  1  0
 20 21  1  0
 21 22  2  0
 21 23  1  0
 23 24  1  0
 24 25  1  0
 25 26  1  0
 26 27  1  0
 19  5  1  0
 27 25  1  0
 14  7  1  0
 20 16  1  0
  1 28  1  0
  1 29  1  0
  1 30  1  0
  8 31  1  0
  9 32  1  0
 10 33  1  0
 14 34  1  0
 15 35  1  0
 15 36  1  0
 16 37  1  0
 17 38  1  0
 17 39  1  0
 18 40  1  0
 18 41  1  0
 19 42  1  0
 23 43  1  0
 24 44  1  0
 24 45  1  0
 25 46  1  0
 26 47  1  0
 26 48  1  0
 27 49  1  0
 27 50  1  0
M  END
$$$$
