
     RDKit          3D

 66 68  0  0  0  0  0  0  0  0999 V2000
   -3.2040   -4.6378    3.0762 C   0  0  0  0  0  0  0  0  0  0  0  0
   -1.9234   -3.9233    2.6490 C   0  0  0  0  0  0  0  0  0  0  0  0
   -2.1650   -2.8536    1.6637 N   0  0  0  0  0  0  0  0  0  0  0  0
   -2.6228   -3.3879    0.3675 C   0  0  0  0  0  0  0  0  0  0  0  0
   -4.0491   -2.9258    0.0957 C   0  0  0  0  0  0  0  0  0  0  0  0
   -0.9508   -2.0245    1.5153 C   0  0  0  0  0  0  0  0  0  0  0  0
   -1.2522   -0.6751    0.8357 C   0  0  0  0  0  0  0  0  0  0  0  0
    0.0067    0.2276    0.7547 C   0  0  0  0  0  0  0  0  0  0  0  0
    1.1442   -0.2641   -0.1389 C   0  0  0  0  0  0  0  0  0  0  0  0
    2.4555    0.1412    0.1388 C   0  0  0  0  0  0  0  0  0  0  0  0
    3.5321   -0.2793   -0.6588 C   0  0  0  0  0  0  0  0  0  0  0  0
    3.3612   -1.1280   -1.7654 C   0  0  0  0  0  0  0  0  0  0  0  0
    4.4337   -1.5341   -2.5697 N   0  0  0  0  0  0  0  0  0  0  0  0
    4.2438   -2.6679   -3.4729 C   0  0  0  0  0  0  0  0  0  0  0  0
    5.7974   -1.3406   -2.0781 C   0  0  0  0  0  0  0  0  0  0  0  0
    2.0348   -1.5044   -2.0405 C   0  0  0  0  0  0  0  0  0  0  0  0
    0.9511   -1.0901   -1.2478 C   0  0  0  0  0  0  0  0  0  0  0  0
   -0.3661    1.6863    0.4682 C   0  0  0  0  0  0  0  0  0  0  0  0
   -0.9925    2.0906   -0.7214 C   0  0  0  0  0  0  0  0  0  0  0  0
   -1.3176    1.1433   -1.6605 O   0  0  0  0  0  0  0  0  0  0  0  0
   -0.7567    1.4291   -2.9428 C   0  0  0  0  0  0  0  0  0  0  0  0
   -1.3584    3.4304   -0.9300 C   0  0  0  0  0  0  0  0  0  0  0  0
   -1.0678    4.4132    0.0207 C   0  0  0  0  0  0  0  0  0  0  0  0
   -1.3824    5.7425   -0.1173 O   0  0  0  0  0  0  0  0  0  0  0  0
   -2.1754    6.1188   -1.2337 C   0  0  0  0  0  0  0  0  0  0  0  0
   -0.4071    4.0441    1.2022 C   0  0  0  0  0  0  0  0  0  0  0  0
   -0.0584    5.0136    2.2397 C   0  0  0  0  0  0  0  0  0  0  0  0
    0.5641    4.6241    3.3559 C   0  0  0  0  0  0  0  0  0  0  0  0
    0.9255    3.2223    3.5991 C   0  0  0  0  0  0  0  0  0  0  0  0
    1.5018    2.8854    4.6277 O   0  0  0  0  0  0  0  0  0  0  0  0
    0.5836    2.3177    2.6058 O   0  0  0  0  0  0  0  0  0  0  0  0
   -0.0750    2.6975    1.4061 C   0  0  0  0  0  0  0  0  0  0  0  0
   -3.6616   -5.1943    2.2517 H   0  0  0  0  0  0  0  0  0  0  0  0
   -3.9425   -3.9254    3.4638 H   0  0  0  0  0  0  0  0  0  0  0  0
   -2.9834   -5.3563    3.8742 H   0  0  0  0  0  0  0  0  0  0  0  0
   -1.1938   -4.6517    2.2699 H   0  0  0  0  0  0  0  0  0  0  0  0
   -1.4933   -3.4853    3.5590 H   0  0  0  0  0  0  0  0  0  0  0  0
   -2.5851   -4.4852    0.3351 H   0  0  0  0  0  0  0  0  0  0  0  0
   -1.9851   -3.0643   -0.4646 H   0  0  0  0  0  0  0  0  0  0  0  0
   -4.3939   -3.3320   -0.8618 H   0  0  0  0  0  0  0  0  0  0  0  0
   -4.7378   -3.2665    0.8766 H   0  0  0  0  0  0  0  0  0  0  0  0
   -4.1097   -1.8343    0.0351 H   0  0  0  0  0  0  0  0  0  0  0  0
   -0.1726   -2.5809    0.9774 H   0  0  0  0  0  0  0  0  0  0  0  0
   -0.5450   -1.7978    2.5109 H   0  0  0  0  0  0  0  0  0  0  0  0
   -2.0200   -0.1585    1.4297 H   0  0  0  0  0  0  0  0  0  0  0  0
   -1.6931   -0.8316   -0.1533 H   0  0  0  0  0  0  0  0  0  0  0  0
    0.4214    0.1817    1.7702 H   0  0  0  0  0  0  0  0  0  0  0  0
    2.6594    0.7951    0.9854 H   0  0  0  0  0  0  0  0  0  0  0  0
    4.5160    0.0848   -0.3777 H   0  0  0  0  0  0  0  0  0  0  0  0
    3.9429   -3.5676   -2.9237 H   0  0  0  0  0  0  0  0  0  0  0  0
    3.4964   -2.4394   -4.2408 H   0  0  0  0  0  0  0  0  0  0  0  0
    5.1681   -2.9030   -4.0138 H   0  0  0  0  0  0  0  0  0  0  0  0
    5.9599   -1.8894   -1.1436 H   0  0  0  0  0  0  0  0  0  0  0  0
    6.5372   -1.6976   -2.8036 H   0  0  0  0  0  0  0  0  0  0  0  0
    6.0171   -0.2777   -1.9265 H   0  0  0  0  0  0  0  0  0  0  0  0
    1.7973   -2.1350   -2.8923 H   0  0  0  0  0  0  0  0  0  0  0  0
   -0.0449   -1.4203   -1.5323 H   0  0  0  0  0  0  0  0  0  0  0  0
   -0.7502    0.4998   -3.5213 H   0  0  0  0  0  0  0  0  0  0  0  0
    0.2757    1.7877   -2.8671 H   0  0  0  0  0  0  0  0  0  0  0  0
   -1.3765    2.1502   -3.4832 H   0  0  0  0  0  0  0  0  0  0  0  0
   -1.8859    3.6803   -1.8430 H   0  0  0  0  0  0  0  0  0  0  0  0
   -3.1380    5.5987   -1.2273 H   0  0  0  0  0  0  0  0  0  0  0  0
   -2.3746    7.1916   -1.1532 H   0  0  0  0  0  0  0  0  0  0  0  0
   -1.6392    5.9500   -2.1720 H   0  0  0  0  0  0  0  0  0  0  0  0
   -0.3113    6.0568    2.0842 H   0  0  0  0  0  0  0  0  0  0  0  0
    0.8350    5.3264    4.1340 H   0  0  0  0  0  0  0  0  0  0  0  0
  1  2  1  0
  2  3  1  0
  3  4  1  0
  4  5  1  0
  3  6  1  0
  6  7  1  0
  7  8  1  0
  8  9  1  0
  9 10  2  0
 10 11  1  0
 11 12  2  0
 12 13  1  0
 13 14  1  0
 13 15  1  0
 12 16  1  0
 16 17  2  0
  8 18  1  0
 18 19  2  0
 19 20  1  0
 20 21  1  0
 19 22  1  0
 22 23  2  0
 23 24  1  0
 24 25  1  0
 23 26  1  0
 26 27  1  0
 27 28  2  0
 28 29  1  0
 29 30  2  0
 29 31  1  0
 31 32  1  0
 17  9  1  0
 32 18  1  0
 32 26  2  0
  1 33  1  0
  1 34  1  0
  1 35  1  0
  2 36  1  0
  2 37  1  0
  4 38  1  0
  4 39  1  0
  5 40  1  0
  5 41  1  0
  5 42  1  0
  6 43  1  0
  6 44  1  0
  7 45  1  0
  7 46  1  0
  8 47  1  0
 10 48  1  0
 11 49  1  0
 14 50  1  0
 14 51  1  0
 14 52  1  0
 15 53  1  0
 15 54  1  0
 15 55  1  0
 16 56  1  0
 17 57  1  0
 21 58  1  0
 21 59  1  0
 21 60  1  0
 22 61  1  0
 25 62  1  0
 25 63  1  0
 25 64  1  0
 27 65  1  0
 28 66  1  0
M  END
$$$$
