
     RDKit          3D

 30 31  0  0  0  0  0  0  0  0999 V2000
    1.2118    2.2431   -1.2574 C   0  0  0  0  0  0  0  0  0  0  0  0
    1.0983    0.9319   -0.5048 C   0  0  0  0  0  0  0  0  0  0  0  0
   -0.0377    0.3853   -0.1803 N   0  0  0  0  0  0  0  0  0  0  0  0
   -1.1764    1.0552   -0.5108 N   0  0  0  0  0  0  0  0  0  0  0  0
   -2.4123    0.4863   -0.1509 C   0  0  0  0  0  0  0  0  0  0  0  0
   -2.5467   -0.8466   -0.0178 N   0  0  0  0  0  0  0  0  0  0  0  0
   -3.7472   -1.3295    0.3108 C   0  0  0  0  0  0  0  0  0  0  0  0
   -3.8421   -2.7118    0.4666 N   0  0  0  0  0  0  0  0  0  0  0  0
   -4.8337   -0.5272    0.5242 C   0  0  0  0  0  0  0  0  0  0  0  0
   -4.5952    0.8101    0.3625 C   0  0  0  0  0  0  0  0  0  0  0  0
   -5.8553    1.9549    0.5906 Cl  0  0  0  0  0  0  0  0  0  0  0  0
   -3.4173    1.3511    0.0237 N   0  0  0  0  0  0  0  0  0  0  0  0
    2.3585    0.2279   -0.1116 C   0  0  0  0  0  0  0  0  0  0  0  0
    2.3267   -1.1628    0.0780 C   0  0  0  0  0  0  0  0  0  0  0  0
    3.4837   -1.8493    0.4516 C   0  0  0  0  0  0  0  0  0  0  0  0
    4.6656   -1.1443    0.6418 C   0  0  0  0  0  0  0  0  0  0  0  0
    5.7760   -1.8009    1.0012 F   0  0  0  0  0  0  0  0  0  0  0  0
    4.7118    0.2351    0.4706 C   0  0  0  0  0  0  0  0  0  0  0  0
    3.5560    0.9263    0.0964 C   0  0  0  0  0  0  0  0  0  0  0  0
    0.4560    2.2947   -2.0468 H   0  0  0  0  0  0  0  0  0  0  0  0
    2.1838    2.3493   -1.7452 H   0  0  0  0  0  0  0  0  0  0  0  0
    1.0625    3.0726   -0.5606 H   0  0  0  0  0  0  0  0  0  0  0  0
   -1.2435    2.0505   -0.3155 H   0  0  0  0  0  0  0  0  0  0  0  0
   -2.9294   -3.0991    0.2314 H   0  0  0  0  0  0  0  0  0  0  0  0
   -4.5751   -3.1142   -0.1061 H   0  0  0  0  0  0  0  0  0  0  0  0
   -5.7980   -0.9175    0.8112 H   0  0  0  0  0  0  0  0  0  0  0  0
    1.4000   -1.7161   -0.0659 H   0  0  0  0  0  0  0  0  0  0  0  0
    3.4664   -2.9247    0.5976 H   0  0  0  0  0  0  0  0  0  0  0  0
    5.6456    0.7635    0.6365 H   0  0  0  0  0  0  0  0  0  0  0  0
    3.6073    2.0062   -0.0071 H   0  0  0  0  0  0  0  0  0  0  0  0
  1  2  1  0
  2  3  2  3
  3  4  1  0
  4  5  1  0
  5  6  2  0
  6  7  1  0
  7  8  1  0
  7  9  2  0
  9 10  1  0
 10 11  1  0
 10 12  2  0
  2 13  1  0
 13 14  2  0
 14 15  1  0
 15 16  2  0
 16 17  1  0
 16 18  1  0
 18 19  2  0
 12  5  1  0
 19 13  1  0
  1 20  1  0
  1 21  1  0
  1 22  1  0
  4 23  1  0
  8 24  1  0
  8 25  1  0
  9 26  1  0
 14 27  1  0
 15 28  1  0
 18 29  1  0
 19 30  1  0
M  END
$$$$
