
     RDKit          3D

 42 44  0  0  0  0  0  0  0  0999 V2000
   -6.4165   -0.3988    0.8030 C   0  0  0  0  0  0  0  0  0  0  0  0
   -5.5881   -1.1367   -0.2118 C   0  0  0  0  0  0  0  0  0  0  0  0
   -6.1996   -2.0531   -1.0813 C   0  0  0  0  0  0  0  0  0  0  0  0
   -5.4396   -2.7694   -2.0069 C   0  0  0  0  0  0  0  0  0  0  0  0
   -4.0579   -2.5977   -2.0559 C   0  0  0  0  0  0  0  0  0  0  0  0
   -3.4341   -1.7015   -1.1865 C   0  0  0  0  0  0  0  0  0  0  0  0
   -4.1978   -0.9551   -0.2818 C   0  0  0  0  0  0  0  0  0  0  0  0
   -3.6284   -0.0797    0.6069 O   0  0  0  0  0  0  0  0  0  0  0  0
   -2.7328    0.8486    0.0087 C   0  0  0  0  0  0  0  0  0  0  0  0
   -1.2483    0.4947    0.1544 C   0  0  0  0  0  0  0  0  0  0  0  0
   -0.8174   -0.3702    0.9111 O   0  0  0  0  0  0  0  0  0  0  0  0
   -0.4179    1.2476   -0.6560 N   0  0  0  0  0  0  0  0  0  0  0  0
    1.0196    1.0391   -0.6646 C   0  0  0  0  0  0  0  0  0  0  0  0
    1.7072    1.6456    0.5589 C   0  0  0  0  0  0  0  0  0  0  0  0
    3.1632    1.3397    0.5473 C   0  0  0  0  0  0  0  0  0  0  0  0
    4.0792    1.9128   -0.2073 N   0  0  0  0  0  0  0  0  0  0  0  0
    5.2616    1.2923    0.1143 C   0  0  0  0  0  0  0  0  0  0  0  0
    6.5534    1.5054   -0.3877 C   0  0  0  0  0  0  0  0  0  0  0  0
    7.6059    0.7271    0.1125 C   0  0  0  0  0  0  0  0  0  0  0  0
    7.3759   -0.2423    1.0935 C   0  0  0  0  0  0  0  0  0  0  0  0
    6.0923   -0.4725    1.6032 C   0  0  0  0  0  0  0  0  0  0  0  0
    5.0616    0.3154    1.0846 C   0  0  0  0  0  0  0  0  0  0  0  0
    3.7146    0.3605    1.3374 N   0  0  0  0  0  0  0  0  0  0  0  0
   -6.1553    0.6656    0.8213 H   0  0  0  0  0  0  0  0  0  0  0  0
   -6.2599   -0.8267    1.7977 H   0  0  0  0  0  0  0  0  0  0  0  0
   -7.4846   -0.4618    0.5670 H   0  0  0  0  0  0  0  0  0  0  0  0
   -7.2744   -2.2147   -1.0401 H   0  0  0  0  0  0  0  0  0  0  0  0
   -5.9238   -3.4743   -2.6797 H   0  0  0  0  0  0  0  0  0  0  0  0
   -3.4614   -3.1739   -2.7599 H   0  0  0  0  0  0  0  0  0  0  0  0
   -2.3520   -1.6186   -1.2089 H   0  0  0  0  0  0  0  0  0  0  0  0
   -2.9730    1.0284   -1.0479 H   0  0  0  0  0  0  0  0  0  0  0  0
   -2.8764    1.8035    0.5276 H   0  0  0  0  0  0  0  0  0  0  0  0
   -0.7955    2.0215   -1.1896 H   0  0  0  0  0  0  0  0  0  0  0  0
    1.4046    1.4816   -1.5890 H   0  0  0  0  0  0  0  0  0  0  0  0
    1.2067   -0.0409   -0.7118 H   0  0  0  0  0  0  0  0  0  0  0  0
    1.2516    1.2716    1.4842 H   0  0  0  0  0  0  0  0  0  0  0  0
    1.5636    2.7336    0.5633 H   0  0  0  0  0  0  0  0  0  0  0  0
    6.7234    2.2602   -1.1472 H   0  0  0  0  0  0  0  0  0  0  0  0
    8.6135    0.8836   -0.2698 H   0  0  0  0  0  0  0  0  0  0  0  0
    8.2118   -0.8304    1.4665 H   0  0  0  0  0  0  0  0  0  0  0  0
    5.9146   -1.2294    2.3599 H   0  0  0  0  0  0  0  0  0  0  0  0
    3.2105   -0.2306    1.9852 H   0  0  0  0  0  0  0  0  0  0  0  0
  1  2  1  0
  2  3  2  0
  3  4  1  0
  4  5  2  0
  5  6  1  0
  6  7  2  0
  7  8  1  0
  8  9  1  0
  9 10  1  0
 10 11  2  0
 10 12  1  0
 12 13  1  0
 13 14  1  0
 14 15  1  0
 15 16  2  0
 16 17  1  0
 17 18  2  0
 18 19  1  0
 19 20  2  0
 20 21  1  0
 21 22  2  0
 22 23  1  0
  7  2  1  0
 23 15  1  0
 22 17  1  0
  1 24  1  0
  1 25  1  0
  1 26  1  0
  3 27  1  0
  4 28  1  0
  5 29  1  0
  6 30  1  0
  9 31  1  0
  9 32  1  0
 12 33  1  0
 13 34  1  0
 13 35  1  0
 14 36  1  0
 14 37  1  0
 18 38  1  0
 19 39  1  0
 20 40  1  0
 21 41  1  0
 23 42  1  0
M  END
$$$$
