
     RDKit          3D

 34 35  0  0  0  0  0  0  0  0999 V2000
   -1.3325    2.2350    0.1274 O   0  0  0  0  0  0  0  0  0  0  0  0
   -0.9041    1.4403    0.9609 C   0  0  0  0  0  0  0  0  0  0  0  0
    0.2642    1.7951    1.8788 C   0  0  0  0  0  0  0  0  0  0  0  0
    1.5087    1.5339    1.2240 O   0  0  0  0  0  0  0  0  0  0  0  0
    1.9003    0.2366    1.2169 C   0  0  0  0  0  0  0  0  0  0  0  0
    1.3495   -0.6843    1.8067 O   0  0  0  0  0  0  0  0  0  0  0  0
    3.1093    0.0703    0.3760 C   0  0  0  0  0  0  0  0  0  0  0  0
    3.6742    1.1068   -0.3776 C   0  0  0  0  0  0  0  0  0  0  0  0
    4.8114    0.8524   -1.1472 C   0  0  0  0  0  0  0  0  0  0  0  0
    5.3398   -0.4303   -1.1269 C   0  0  0  0  0  0  0  0  0  0  0  0
    6.7445   -0.8175   -2.0351 Cl  0  0  0  0  0  0  0  0  0  0  0  0
    4.8220   -1.4581   -0.4205 N   0  0  0  0  0  0  0  0  0  0  0  0
    3.7129   -1.1829    0.3140 C   0  0  0  0  0  0  0  0  0  0  0  0
   -1.3991    0.1650    1.1479 N   0  0  0  0  0  0  0  0  0  0  0  0
   -2.4659   -0.3934    0.4029 C   0  0  0  0  0  0  0  0  0  0  0  0
   -3.4406   -1.1219    1.1270 C   0  0  0  0  0  0  0  0  0  0  0  0
   -3.3068   -1.3340    2.8455 Cl  0  0  0  0  0  0  0  0  0  0  0  0
   -4.5701   -1.6509    0.4981 C   0  0  0  0  0  0  0  0  0  0  0  0
   -4.7388   -1.4705   -0.8721 C   0  0  0  0  0  0  0  0  0  0  0  0
   -3.7576   -0.8017   -1.6096 C   0  0  0  0  0  0  0  0  0  0  0  0
   -2.5900   -0.2887   -0.9970 C   0  0  0  0  0  0  0  0  0  0  0  0
   -1.5058    0.2237   -1.9257 C   0  0  0  0  0  0  0  0  0  0  0  0
   -1.7510    1.4666   -2.4274 F   0  0  0  0  0  0  0  0  0  0  0  0
   -0.2455    0.2365   -1.4000 F   0  0  0  0  0  0  0  0  0  0  0  0
   -1.3891   -0.5775   -3.0325 F   0  0  0  0  0  0  0  0  0  0  0  0
    0.2160    2.8724    2.0893 H   0  0  0  0  0  0  0  0  0  0  0  0
    0.1933    1.2801    2.8471 H   0  0  0  0  0  0  0  0  0  0  0  0
    3.2391    2.1057   -0.3762 H   0  0  0  0  0  0  0  0  0  0  0  0
    5.2673    1.6408   -1.7400 H   0  0  0  0  0  0  0  0  0  0  0  0
    3.3162   -2.0308    0.8696 H   0  0  0  0  0  0  0  0  0  0  0  0
   -1.2490   -0.2422    2.0752 H   0  0  0  0  0  0  0  0  0  0  0  0
   -5.3191   -2.1979    1.0693 H   0  0  0  0  0  0  0  0  0  0  0  0
   -5.6202   -1.8718   -1.3688 H   0  0  0  0  0  0  0  0  0  0  0  0
   -3.8835   -0.7071   -2.6898 H   0  0  0  0  0  0  0  0  0  0  0  0
  1  2  2  0
  2  3  1  0
  3  4  1  0
  4  5  1  0
  5  6  2  0
  5  7  1  0
  7  8  2  0
  8  9  1  0
  9 10  2  0
 10 11  1  0
 10 12  1  0
 12 13  2  0
  2 14  1  0
 14 15  1  0
 15 16  2  0
 16 17  1  0
 16 18  1  0
 18 19  2  0
 19 20  1  0
 20 21  2  0
 21 22  1  0
 22 23  1  0
 22 24  1  0
 22 25  1  0
 13  7  1  0
 21 15  1  0
  3 26  1  0
  3 27  1  0
  8 28  1  0
  9 29  1  0
 13 30  1  0
 14 31  1  0
 18 32  1  0
 19 33  1  0
 20 34  1  0
M  END
$$$$
