
     RDKit          3D

 65 69  0  0  0  0  0  0  0  0999 V2000
    3.5628    1.5210   -3.3651 C   0  0  0  0  0  0  0  0  0  0  0  0
    3.7784    0.7529   -2.1895 O   0  0  0  0  0  0  0  0  0  0  0  0
    2.6794    0.1975   -1.5825 C   0  0  0  0  0  0  0  0  0  0  0  0
    1.3558    0.4104   -1.9850 C   0  0  0  0  0  0  0  0  0  0  0  0
    0.2940   -0.2308   -1.3363 C   0  0  0  0  0  0  0  0  0  0  0  0
    0.5360   -1.1034   -0.2682 C   0  0  0  0  0  0  0  0  0  0  0  0
   -0.5802   -1.8600    0.4607 C   0  0  0  0  0  0  0  0  0  0  0  0
   -1.4660   -2.6572   -0.5206 C   0  0  0  0  0  0  0  0  0  0  0  0
   -1.5693   -4.0672   -0.0712 C   0  0  0  0  0  0  0  0  0  0  0  0
   -1.5869   -5.2016    0.1894 N   0  0  0  0  0  0  0  0  0  0  0  0
   -2.8739   -2.0787   -0.7833 C   0  0  0  0  0  0  0  0  0  0  0  0
   -3.6948   -2.7625   -1.5411 N   0  0  0  0  0  0  0  0  0  0  0  0
   -3.2293   -0.8231   -0.2362 N   0  0  0  0  0  0  0  0  0  0  0  0
   -4.5162   -0.2709   -0.6101 C   0  0  0  0  0  0  0  0  0  0  0  0
   -4.7918   -0.0444   -1.9745 C   0  0  0  0  0  0  0  0  0  0  0  0
   -6.0142    0.4876   -2.3948 C   0  0  0  0  0  0  0  0  0  0  0  0
   -6.9859    0.8099   -1.4578 C   0  0  0  0  0  0  0  0  0  0  0  0
   -6.7418    0.5980   -0.1030 C   0  0  0  0  0  0  0  0  0  0  0  0
   -5.5172    0.0532    0.3287 C   0  0  0  0  0  0  0  0  0  0  0  0
   -5.3447   -0.1882    1.7344 C   0  0  0  0  0  0  0  0  0  0  0  0
   -5.1990   -0.3599    2.8743 N   0  0  0  0  0  0  0  0  0  0  0  0
   -2.3975   -0.1270    0.6635 C   0  0  0  0  0  0  0  0  0  0  0  0
   -2.4304    1.2031    0.8868 C   0  0  0  0  0  0  0  0  0  0  0  0
   -1.5454    1.9405    1.8472 C   0  0  0  0  0  0  0  0  0  0  0  0
   -0.2596    1.2073    2.1755 C   0  0  0  0  0  0  0  0  0  0  0  0
   -0.5240   -0.2579    2.4120 C   0  0  0  0  0  0  0  0  0  0  0  0
    0.0621   -0.8689    3.3091 O   0  0  0  0  0  0  0  0  0  0  0  0
   -1.4180   -1.0002    1.4176 C   0  0  0  0  0  0  0  0  0  0  0  0
    1.8649   -1.2900    0.1537 C   0  0  0  0  0  0  0  0  0  0  0  0
    2.9406   -0.6456   -0.4842 C   0  0  0  0  0  0  0  0  0  0  0  0
    4.3517   -0.9022    0.0270 C   0  0  0  0  0  0  0  0  0  0  0  0
    4.8636   -0.0205    1.0723 N   0  0  0  0  0  0  0  0  0  0  0  0
    5.0180    1.3783    0.7015 C   0  0  0  0  0  0  0  0  0  0  0  0
    5.4249    2.0101    2.0255 C   0  0  0  0  0  0  0  0  0  0  0  0
    4.8089    1.1150    3.0990 C   0  0  0  0  0  0  0  0  0  0  0  0
    4.1413   -0.0239    2.3369 C   0  0  0  0  0  0  0  0  0  0  0  0
    3.0293    2.4549   -3.1427 H   0  0  0  0  0  0  0  0  0  0  0  0
    3.0410    0.9395   -4.1347 H   0  0  0  0  0  0  0  0  0  0  0  0
    4.5445    1.7942   -3.7684 H   0  0  0  0  0  0  0  0  0  0  0  0
    1.1108    1.0762   -2.8071 H   0  0  0  0  0  0  0  0  0  0  0  0
   -0.7149   -0.0377   -1.6928 H   0  0  0  0  0  0  0  0  0  0  0  0
   -0.0612   -2.5930    1.0998 H   0  0  0  0  0  0  0  0  0  0  0  0
   -0.9823   -2.6989   -1.5114 H   0  0  0  0  0  0  0  0  0  0  0  0
   -3.2964   -3.6507   -1.8723 H   0  0  0  0  0  0  0  0  0  0  0  0
   -4.0462   -0.3105   -2.7233 H   0  0  0  0  0  0  0  0  0  0  0  0
   -6.2021    0.6323   -3.4550 H   0  0  0  0  0  0  0  0  0  0  0  0
   -7.9471    1.2125   -1.7807 H   0  0  0  0  0  0  0  0  0  0  0  0
   -7.5196    0.8563    0.6135 H   0  0  0  0  0  0  0  0  0  0  0  0
   -3.1386    1.8354    0.3522 H   0  0  0  0  0  0  0  0  0  0  0  0
   -1.2890    2.9165    1.4093 H   0  0  0  0  0  0  0  0  0  0  0  0
   -2.1175    2.1427    2.7630 H   0  0  0  0  0  0  0  0  0  0  0  0
    0.4626    1.3076    1.3565 H   0  0  0  0  0  0  0  0  0  0  0  0
    0.1996    1.6493    3.0679 H   0  0  0  0  0  0  0  0  0  0  0  0
   -2.0303   -1.6690    2.0397 H   0  0  0  0  0  0  0  0  0  0  0  0
    2.0734   -1.9450    1.0059 H   0  0  0  0  0  0  0  0  0  0  0  0
    4.3861   -1.9367    0.4114 H   0  0  0  0  0  0  0  0  0  0  0  0
    5.0606   -0.9216   -0.8132 H   0  0  0  0  0  0  0  0  0  0  0  0
    5.7830    1.5291   -0.0665 H   0  0  0  0  0  0  0  0  0  0  0  0
    4.0780    1.8340    0.3592 H   0  0  0  0  0  0  0  0  0  0  0  0
    5.0731    3.0413    2.1071 H   0  0  0  0  0  0  0  0  0  0  0  0
    6.5143    2.0128    2.1307 H   0  0  0  0  0  0  0  0  0  0  0  0
    5.5945    0.7379    3.7666 H   0  0  0  0  0  0  0  0  0  0  0  0
    4.0839    1.6608    3.7146 H   0  0  0  0  0  0  0  0  0  0  0  0
    4.2365   -0.9769    2.8658 H   0  0  0  0  0  0  0  0  0  0  0  0
    3.0779    0.2059    2.2134 H   0  0  0  0  0  0  0  0  0  0  0  0
  1  2  1  0
  2  3  1  0
  3  4  2  0
  4  5  1  0
  5  6  2  0
  6  7  1  0
  7  8  1  0
  8  9  1  0
  9 10  3  0
  8 11  1  0
 11 12  2  3
 11 13  1  0
 13 14  1  0
 14 15  2  0
 15 16  1  0
 16 17  2  0
 17 18  1  0
 18 19  2  0
 19 20  1  0
 20 21  3  0
 13 22  1  0
 22 23  2  0
 23 24  1  0
 24 25  1  0
 25 26  1  0
 26 27  2  0
 26 28  1  0
  6 29  1  0
 29 30  2  0
 30 31  1  0
 31 32  1  0
 32 33  1  0
 33 34  1  0
 34 35  1  0
 35 36  1  0
 30  3  1  0
 36 32  1  0
 28  7  1  0
 19 14  1  0
 28 22  1  0
  1 37  1  0
  1 38  1  0
  1 39  1  0
  4 40  1  0
  5 41  1  0
  7 42  1  0
  8 43  1  0
 12 44  1  0
 15 45  1  0
 16 46  1  0
 17 47  1  0
 18 48  1  0
 23 49  1  0
 24 50  1  0
 24 51  1  0
 25 52  1  0
 25 53  1  0
 28 54  1  0
 29 55  1  0
 31 56  1  0
 31 57  1  0
 33 58  1  0
 33 59  1  0
 34 60  1  0
 34 61  1  0
 35 62  1  0
 35 63  1  0
 36 64  1  0
 36 65  1  0
M  END
$$$$
