
     RDKit          3D

 48 51  0  0  0  0  0  0  0  0999 V2000
    4.2656    2.0509   -1.2176 C   0  0  0  0  0  0  0  0  0  0  0  0
    3.1674    0.9895   -1.2121 C   0  0  0  0  0  0  0  0  0  0  0  0
    1.8232    1.6141   -1.5876 C   0  0  0  0  0  0  0  0  0  0  0  0
    3.1024    0.2959    0.1543 C   0  0  0  0  0  0  0  0  0  0  0  0
    2.1360   -0.7602    0.1037 O   0  0  0  0  0  0  0  0  0  0  0  0
    2.0717   -1.5027    1.2384 C   0  0  0  0  0  0  0  0  0  0  0  0
    2.7860   -1.3871    2.2221 O   0  0  0  0  0  0  0  0  0  0  0  0
    1.0984   -2.6024    1.0446 C   0  0  0  0  0  0  0  0  0  0  0  0
    1.5849   -3.8869    1.3473 C   0  0  0  0  0  0  0  0  0  0  0  0
    0.8251   -5.0202    1.0605 C   0  0  0  0  0  0  0  0  0  0  0  0
   -0.4234   -4.8808    0.4625 C   0  0  0  0  0  0  0  0  0  0  0  0
   -0.9261   -3.6091    0.1744 C   0  0  0  0  0  0  0  0  0  0  0  0
   -0.1826   -2.4556    0.4826 C   0  0  0  0  0  0  0  0  0  0  0  0
   -0.7915   -1.1793    0.2737 N   0  0  0  0  0  0  0  0  0  0  0  0
   -1.6301   -0.8286   -0.8085 C   0  0  0  0  0  0  0  0  0  0  0  0
   -1.8872   -1.6512   -1.8215 O   0  0  0  0  0  0  0  0  0  0  0  0
   -2.0250    0.4604   -0.6015 C   0  0  0  0  0  0  0  0  0  0  0  0
   -1.4664    0.9214    0.6025 C   0  0  0  0  0  0  0  0  0  0  0  0
   -0.7383   -0.0848    1.1639 C   0  0  0  0  0  0  0  0  0  0  0  0
   -0.1248   -0.1476    2.3402 O   0  0  0  0  0  0  0  0  0  0  0  0
   -1.9457    2.3241    0.8062 C   0  0  0  0  0  0  0  0  0  0  0  0
   -3.4675    2.2704    1.1001 C   0  0  0  0  0  0  0  0  0  0  0  0
   -4.0841    1.7618   -0.2447 C   0  0  0  0  0  0  0  0  0  0  0  0
   -2.8491    1.5758   -1.1642 C   0  0  0  0  0  0  0  0  0  0  0  0
   -1.9990    2.7971   -0.6838 C   0  0  0  0  0  0  0  0  0  0  0  0
    5.2390    1.6046   -0.9886 H   0  0  0  0  0  0  0  0  0  0  0  0
    4.0674    2.8320   -0.4756 H   0  0  0  0  0  0  0  0  0  0  0  0
    4.3407    2.5284   -2.2003 H   0  0  0  0  0  0  0  0  0  0  0  0
    3.4030    0.2359   -1.9744 H   0  0  0  0  0  0  0  0  0  0  0  0
    1.8893    2.1297   -2.5516 H   0  0  0  0  0  0  0  0  0  0  0  0
    1.5014    2.3423   -0.8356 H   0  0  0  0  0  0  0  0  0  0  0  0
    1.0457    0.8497   -1.6777 H   0  0  0  0  0  0  0  0  0  0  0  0
    2.8142    1.0114    0.9342 H   0  0  0  0  0  0  0  0  0  0  0  0
    4.0862   -0.1239    0.3979 H   0  0  0  0  0  0  0  0  0  0  0  0
    2.5742   -4.0044    1.7865 H   0  0  0  0  0  0  0  0  0  0  0  0
    1.2130   -6.0089    1.2918 H   0  0  0  0  0  0  0  0  0  0  0  0
   -1.0182   -5.7615    0.2325 H   0  0  0  0  0  0  0  0  0  0  0  0
   -1.9253   -3.5367   -0.2495 H   0  0  0  0  0  0  0  0  0  0  0  0
   -2.4295   -1.1556   -2.4595 H   0  0  0  0  0  0  0  0  0  0  0  0
   -0.2310    0.7167    2.7743 H   0  0  0  0  0  0  0  0  0  0  0  0
   -1.3495    2.9405    1.4786 H   0  0  0  0  0  0  0  0  0  0  0  0
   -3.8566    3.2678    1.3334 H   0  0  0  0  0  0  0  0  0  0  0  0
   -3.7117    1.5979    1.9295 H   0  0  0  0  0  0  0  0  0  0  0  0
   -4.7646    2.5184   -0.6512 H   0  0  0  0  0  0  0  0  0  0  0  0
   -4.6437    0.8315   -0.0991 H   0  0  0  0  0  0  0  0  0  0  0  0
   -3.0516    1.5293   -2.2339 H   0  0  0  0  0  0  0  0  0  0  0  0
   -2.5041    3.7600   -0.8178 H   0  0  0  0  0  0  0  0  0  0  0  0
   -1.0084    2.8303   -1.1525 H   0  0  0  0  0  0  0  0  0  0  0  0
  1  2  1  0
  2  3  1  0
  2  4  1  0
  4  5  1  0
  5  6  1  0
  6  7  2  0
  6  8  1  0
  8  9  2  0
  9 10  1  0
 10 11  2  0
 11 12  1  0
 12 13  2  0
 13 14  1  0
 14 15  1  0
 15 16  1  0
 15 17  2  0
 17 18  1  0
 18 19  2  0
 19 20  1  0
 18 21  1  0
 21 22  1  0
 22 23  1  0
 23 24  1  0
 24 25  1  0
 13  8  1  0
 19 14  1  0
 25 21  1  0
 24 17  1  0
  1 26  1  0
  1 27  1  0
  1 28  1  0
  2 29  1  0
  3 30  1  0
  3 31  1  0
  3 32  1  0
  4 33  1  0
  4 34  1  0
  9 35  1  0
 10 36  1  0
 11 37  1  0
 12 38  1  0
 16 39  1  0
 20 40  1  0
 21 41  1  0
 22 42  1  0
 22 43  1  0
 23 44  1  0
 23 45  1  0
 24 46  1  0
 25 47  1  0
 25 48  1  0
M  END
$$$$
