
     RDKit          3D

 39 41  0  0  0  0  0  0  0  0999 V2000
   -6.9431    1.4352   -2.1112 C   0  0  0  0  0  0  0  0  0  0  0  0
   -6.5868    0.6621   -0.9722 O   0  0  0  0  0  0  0  0  0  0  0  0
   -5.2520    0.5236   -0.7113 C   0  0  0  0  0  0  0  0  0  0  0  0
   -4.9525   -0.2624    0.4027 C   0  0  0  0  0  0  0  0  0  0  0  0
   -3.6267   -0.4908    0.7866 C   0  0  0  0  0  0  0  0  0  0  0  0
   -2.5777    0.0812    0.0609 C   0  0  0  0  0  0  0  0  0  0  0  0
   -1.2151   -0.1362    0.4432 N   0  0  0  0  0  0  0  0  0  0  0  0
   -0.6895   -1.2890    1.0376 C   0  0  0  0  0  0  0  0  0  0  0  0
   -1.4456   -2.3315    1.3775 O   0  0  0  0  0  0  0  0  0  0  0  0
    0.6827   -1.1571    1.1078 C   0  0  0  0  0  0  0  0  0  0  0  0
    1.0118    0.1132    0.6054 C   0  0  0  0  0  0  0  0  0  0  0  0
    2.2361    0.6818    0.5122 N   0  0  0  0  0  0  0  0  0  0  0  0
    3.4120   -0.0869    0.4979 N   0  0  0  0  0  0  0  0  0  0  0  0
    4.4608    0.3771   -0.2932 C   0  0  0  0  0  0  0  0  0  0  0  0
    4.3012    1.3100   -1.0817 O   0  0  0  0  0  0  0  0  0  0  0  0
    5.7225   -0.3094   -0.0852 C   0  0  0  0  0  0  0  0  0  0  0  0
    6.0855   -1.4285    0.6477 C   0  0  0  0  0  0  0  0  0  0  0  0
    7.4775   -1.6142    0.4572 C   0  0  0  0  0  0  0  0  0  0  0  0
    7.8850   -0.6051   -0.3800 C   0  0  0  0  0  0  0  0  0  0  0  0
    6.8360    0.1857   -0.7146 O   0  0  0  0  0  0  0  0  0  0  0  0
   -0.1548    0.7600    0.2609 C   0  0  0  0  0  0  0  0  0  0  0  0
   -0.2960    2.0306   -0.1314 O   0  0  0  0  0  0  0  0  0  0  0  0
   -2.8784    0.8609   -1.0661 C   0  0  0  0  0  0  0  0  0  0  0  0
   -4.2085    1.0816   -1.4475 C   0  0  0  0  0  0  0  0  0  0  0  0
   -6.6086    2.4724   -2.0046 H   0  0  0  0  0  0  0  0  0  0  0  0
   -8.0350    1.4433   -2.1814 H   0  0  0  0  0  0  0  0  0  0  0  0
   -6.5535    0.9862   -3.0309 H   0  0  0  0  0  0  0  0  0  0  0  0
   -5.7605   -0.7041    0.9816 H   0  0  0  0  0  0  0  0  0  0  0  0
   -3.4475   -1.0921    1.6735 H   0  0  0  0  0  0  0  0  0  0  0  0
   -0.8542   -3.0356    1.6970 H   0  0  0  0  0  0  0  0  0  0  0  0
    1.3667   -1.9023    1.4857 H   0  0  0  0  0  0  0  0  0  0  0  0
    2.3126    1.5253   -0.0761 H   0  0  0  0  0  0  0  0  0  0  0  0
    3.6055   -0.5907    1.3538 H   0  0  0  0  0  0  0  0  0  0  0  0
    5.4306   -2.0491    1.2422 H   0  0  0  0  0  0  0  0  0  0  0  0
    8.1057   -2.3895    0.8731 H   0  0  0  0  0  0  0  0  0  0  0  0
    8.8359   -0.3253   -0.8124 H   0  0  0  0  0  0  0  0  0  0  0  0
   -1.1991    2.3225    0.0872 H   0  0  0  0  0  0  0  0  0  0  0  0
   -2.0925    1.2656   -1.7018 H   0  0  0  0  0  0  0  0  0  0  0  0
   -4.3909    1.6814   -2.3331 H   0  0  0  0  0  0  0  0  0  0  0  0
  1  2  1  0
  2  3  1  0
  3  4  2  0
  4  5  1  0
  5  6  2  0
  6  7  1  0
  7  8  1  0
  8  9  1  0
  8 10  2  0
 10 11  1  0
 11 12  1  0
 12 13  1  0
 13 14  1  0
 14 15  2  0
 14 16  1  0
 16 17  2  0
 17 18  1  0
 18 19  2  0
 19 20  1  0
 11 21  2  0
 21 22  1  0
  6 23  1  0
 23 24  2  0
 24  3  1  0
 21  7  1  0
 20 16  1  0
  1 25  1  0
  1 26  1  0
  1 27  1  0
  4 28  1  0
  5 29  1  0
  9 30  1  0
 10 31  1  0
 12 32  1  0
 13 33  1  0
 17 34  1  0
 18 35  1  0
 19 36  1  0
 22 37  1  0
 23 38  1  0
 24 39  1  0
M  END
$$$$
