
     RDKit          3D

 47 50  0  0  0  0  0  0  0  0999 V2000
   -0.6358    3.1729   -0.6499 O   0  0  0  0  0  0  0  0  0  0  0  0
   -0.1345    2.3072   -1.3711 C   0  0  0  0  0  0  0  0  0  0  0  0
   -0.7345    1.9532   -2.7310 C   0  0  0  0  0  0  0  0  0  0  0  0
   -2.5420    2.1474   -2.7440 S   0  0  0  0  0  0  0  0  0  0  0  0
   -2.9799    0.9389   -1.5757 C   0  0  0  0  0  0  0  0  0  0  0  0
   -2.2083   -0.0632   -1.2039 N   0  0  0  0  0  0  0  0  0  0  0  0
   -2.9273   -0.7943   -0.2819 N   0  0  0  0  0  0  0  0  0  0  0  0
   -4.0942   -0.1929   -0.1588 C   0  0  0  0  0  0  0  0  0  0  0  0
   -5.2417   -0.5336    0.6725 C   0  0  0  0  0  0  0  0  0  0  0  0
   -5.1940   -1.6748    1.4885 C   0  0  0  0  0  0  0  0  0  0  0  0
   -6.2809   -2.0250    2.2940 C   0  0  0  0  0  0  0  0  0  0  0  0
   -7.4300   -1.2380    2.2942 C   0  0  0  0  0  0  0  0  0  0  0  0
   -7.4937   -0.1013    1.4914 C   0  0  0  0  0  0  0  0  0  0  0  0
   -6.4067    0.2490    0.6853 C   0  0  0  0  0  0  0  0  0  0  0  0
   -4.2020    0.9123   -0.9610 O   0  0  0  0  0  0  0  0  0  0  0  0
    1.0194    1.6360   -0.9911 N   0  0  0  0  0  0  0  0  0  0  0  0
    1.5553    1.8524    0.3555 C   0  0  0  0  0  0  0  0  0  0  0  0
    2.2385    0.6012    0.9375 C   0  0  0  0  0  0  0  0  0  0  0  0
    3.2887    0.0829    0.0412 N   0  0  0  0  0  0  0  0  0  0  0  0
    4.3733   -0.6181    0.5477 C   0  0  0  0  0  0  0  0  0  0  0  0
    5.5931   -0.7070   -0.1436 C   0  0  0  0  0  0  0  0  0  0  0  0
    6.6884   -1.4152    0.3677 C   0  0  0  0  0  0  0  0  0  0  0  0
    6.5901   -2.0624    1.5928 C   0  0  0  0  0  0  0  0  0  0  0  0
    5.3973   -1.9997    2.3011 C   0  0  0  0  0  0  0  0  0  0  0  0
    4.3086   -1.2876    1.7817 C   0  0  0  0  0  0  0  0  0  0  0  0
    3.2049    0.4509   -1.3789 C   0  0  0  0  0  0  0  0  0  0  0  0
    1.7455    0.6715   -1.8234 C   0  0  0  0  0  0  0  0  0  0  0  0
   -0.3021    2.6291   -3.4751 H   0  0  0  0  0  0  0  0  0  0  0  0
   -0.5063    0.9266   -3.0255 H   0  0  0  0  0  0  0  0  0  0  0  0
   -4.3041   -2.3026    1.5008 H   0  0  0  0  0  0  0  0  0  0  0  0
   -6.2287   -2.9125    2.9200 H   0  0  0  0  0  0  0  0  0  0  0  0
   -8.2756   -1.5097    2.9210 H   0  0  0  0  0  0  0  0  0  0  0  0
   -8.3897    0.5150    1.4915 H   0  0  0  0  0  0  0  0  0  0  0  0
   -6.4809    1.1428    0.0687 H   0  0  0  0  0  0  0  0  0  0  0  0
    2.2812    2.6710    0.2749 H   0  0  0  0  0  0  0  0  0  0  0  0
    0.7606    2.1823    1.0330 H   0  0  0  0  0  0  0  0  0  0  0  0
    1.4899   -0.1844    1.0947 H   0  0  0  0  0  0  0  0  0  0  0  0
    2.6552    0.8795    1.9129 H   0  0  0  0  0  0  0  0  0  0  0  0
    5.7285   -0.2009   -1.0948 H   0  0  0  0  0  0  0  0  0  0  0  0
    7.6172   -1.4537   -0.1949 H   0  0  0  0  0  0  0  0  0  0  0  0
    7.4368   -2.6133    1.9922 H   0  0  0  0  0  0  0  0  0  0  0  0
    5.3034   -2.5077    3.2571 H   0  0  0  0  0  0  0  0  0  0  0  0
    3.3889   -1.2889    2.3602 H   0  0  0  0  0  0  0  0  0  0  0  0
    3.7813    1.3691   -1.5454 H   0  0  0  0  0  0  0  0  0  0  0  0
    3.6240   -0.3374   -2.0154 H   0  0  0  0  0  0  0  0  0  0  0  0
    1.1925   -0.2739   -1.7634 H   0  0  0  0  0  0  0  0  0  0  0  0
    1.7305    1.0070   -2.8654 H   0  0  0  0  0  0  0  0  0  0  0  0
  1  2  2  0
  2  3  1  0
  3  4  1  0
  4  5  1  0
  5  6  2  0
  6  7  1  0
  7  8  2  0
  8  9  1  0
  9 10  2  0
 10 11  1  0
 11 12  2  0
 12 13  1  0
 13 14  2  0
  8 15  1  0
  2 16  1  0
 16 17  1  0
 17 18  1  0
 18 19  1  0
 19 20  1  0
 20 21  2  0
 21 22  1  0
 22 23  2  0
 23 24  1  0
 24 25  2  0
 19 26  1  0
 26 27  1  0
 15  5  1  0
 27 16  1  0
 14  9  1  0
 25 20  1  0
  3 28  1  0
  3 29  1  0
 10 30  1  0
 11 31  1  0
 12 32  1  0
 13 33  1  0
 14 34  1  0
 17 35  1  0
 17 36  1  0
 18 37  1  0
 18 38  1  0
 21 39  1  0
 22 40  1  0
 23 41  1  0
 24 42  1  0
 25 43  1  0
 26 44  1  0
 26 45  1  0
 27 46  1  0
 27 47  1  0
M  END
$$$$
