
     RDKit          3D

 54 57  0  0  0  0  0  0  0  0999 V2000
   -8.1572    0.1237   -0.3723 C   0  0  0  0  0  0  0  0  0  0  0  0
   -7.4268    0.9566    0.5194 O   0  0  0  0  0  0  0  0  0  0  0  0
   -6.0781    0.7495    0.5933 C   0  0  0  0  0  0  0  0  0  0  0  0
   -5.3286   -0.0858   -0.2330 C   0  0  0  0  0  0  0  0  0  0  0  0
   -3.9413   -0.2122   -0.0525 C   0  0  0  0  0  0  0  0  0  0  0  0
   -3.2871    0.4888    0.9655 C   0  0  0  0  0  0  0  0  0  0  0  0
   -1.8795    0.3889    1.1997 N   0  0  0  0  0  0  0  0  0  0  0  0
   -1.2881    1.2856    2.0444 N   0  0  0  0  0  0  0  0  0  0  0  0
    0.0129    1.0121    2.0026 C   0  0  0  0  0  0  0  0  0  0  0  0
    0.3025   -0.0742    1.1707 C   0  0  0  0  0  0  0  0  0  0  0  0
   -0.9304   -0.4987    0.7064 C   0  0  0  0  0  0  0  0  0  0  0  0
   -1.1380   -1.7169   -0.1321 C   0  0  0  0  0  0  0  0  0  0  0  0
    0.1142   -2.6497   -0.1031 C   0  0  0  0  0  0  0  0  0  0  0  0
    0.1337   -3.4835    1.1950 C   0  0  0  0  0  0  0  0  0  0  0  0
    0.0301   -3.6258   -1.2927 C   0  0  0  0  0  0  0  0  0  0  0  0
    1.4194   -1.8104   -0.2353 C   0  0  0  0  0  0  0  0  0  0  0  0
    1.5970   -0.7505    0.8777 C   0  0  0  0  0  0  0  0  0  0  0  0
    2.5563    0.2536    0.4786 N   0  0  0  0  0  0  0  0  0  0  0  0
    3.9148    0.0299    0.5070 C   0  0  0  0  0  0  0  0  0  0  0  0
    4.4359   -0.9763    0.9720 O   0  0  0  0  0  0  0  0  0  0  0  0
    4.7291    1.1208   -0.0980 C   0  0  0  0  0  0  0  0  0  0  0  0
    6.1105    1.0294   -0.1221 C   0  0  0  0  0  0  0  0  0  0  0  0
    6.8885    1.9976   -0.6714 N   0  0  0  0  0  0  0  0  0  0  0  0
    6.2296    3.0619   -1.1961 C   0  0  0  0  0  0  0  0  0  0  0  0
    7.0439    4.1634   -1.7989 C   0  0  0  0  0  0  0  0  0  0  0  0
    4.8391    3.1446   -1.1620 C   0  0  0  0  0  0  0  0  0  0  0  0
    4.0522    2.1835   -0.6220 N   0  0  0  0  0  0  0  0  0  0  0  0
   -4.0471    1.3472    1.7768 C   0  0  0  0  0  0  0  0  0  0  0  0
   -5.4277    1.4708    1.5918 C   0  0  0  0  0  0  0  0  0  0  0  0
   -8.0222   -0.9348   -0.1280 H   0  0  0  0  0  0  0  0  0  0  0  0
   -9.2197    0.3585   -0.2550 H   0  0  0  0  0  0  0  0  0  0  0  0
   -7.8841    0.3269   -1.4131 H   0  0  0  0  0  0  0  0  0  0  0  0
   -5.7891   -0.6471   -1.0404 H   0  0  0  0  0  0  0  0  0  0  0  0
   -3.4166   -0.8448   -0.7545 H   0  0  0  0  0  0  0  0  0  0  0  0
    0.6952    1.6118    2.5925 H   0  0  0  0  0  0  0  0  0  0  0  0
   -2.0127   -2.2824    0.2081 H   0  0  0  0  0  0  0  0  0  0  0  0
   -1.3156   -1.3913   -1.1646 H   0  0  0  0  0  0  0  0  0  0  0  0
    0.1404   -2.8587    2.0936 H   0  0  0  0  0  0  0  0  0  0  0  0
   -0.7488   -4.1308    1.2570 H   0  0  0  0  0  0  0  0  0  0  0  0
    1.0194   -4.1278    1.2329 H   0  0  0  0  0  0  0  0  0  0  0  0
   -0.8851   -4.2266   -1.2469 H   0  0  0  0  0  0  0  0  0  0  0  0
    0.8830   -4.3144   -1.3013 H   0  0  0  0  0  0  0  0  0  0  0  0
    0.0282   -3.0883   -2.2482 H   0  0  0  0  0  0  0  0  0  0  0  0
    1.4100   -1.3065   -1.2134 H   0  0  0  0  0  0  0  0  0  0  0  0
    2.2970   -2.4701   -0.2500 H   0  0  0  0  0  0  0  0  0  0  0  0
    1.9648   -1.2397    1.7879 H   0  0  0  0  0  0  0  0  0  0  0  0
    2.2456    1.0769   -0.0323 H   0  0  0  0  0  0  0  0  0  0  0  0
    6.6359    0.1781    0.2972 H   0  0  0  0  0  0  0  0  0  0  0  0
    6.6957    4.3831   -2.8125 H   0  0  0  0  0  0  0  0  0  0  0  0
    6.9641    5.0675   -1.1882 H   0  0  0  0  0  0  0  0  0  0  0  0
    8.0994    3.8800   -1.8576 H   0  0  0  0  0  0  0  0  0  0  0  0
    4.3142    4.0001   -1.5752 H   0  0  0  0  0  0  0  0  0  0  0  0
   -3.5811    1.9240    2.5746 H   0  0  0  0  0  0  0  0  0  0  0  0
   -5.9975    2.1328    2.2392 H   0  0  0  0  0  0  0  0  0  0  0  0
  1  2  1  0
  2  3  1  0
  3  4  2  0
  4  5  1  0
  5  6  2  0
  6  7  1  0
  7  8  1  0
  8  9  2  0
  9 10  1  0
 10 11  2  0
 11 12  1  0
 12 13  1  0
 13 14  1  0
 13 15  1  0
 13 16  1  0
 16 17  1  0
 17 18  1  0
 18 19  1  0
 19 20  2  0
 19 21  1  0
 21 22  2  0
 22 23  1  0
 23 24  2  0
 24 25  1  0
 24 26  1  0
 26 27  2  0
  6 28  1  0
 28 29  2  0
 29  3  1  0
 11  7  1  0
 27 21  1  0
 17 10  1  0
  1 30  1  0
  1 31  1  0
  1 32  1  0
  4 33  1  0
  5 34  1  0
  9 35  1  0
 12 36  1  0
 12 37  1  0
 14 38  1  0
 14 39  1  0
 14 40  1  0
 15 41  1  0
 15 42  1  0
 15 43  1  0
 16 44  1  0
 16 45  1  0
 17 46  1  0
 18 47  1  0
 22 48  1  0
 25 49  1  0
 25 50  1  0
 25 51  1  0
 26 52  1  0
 28 53  1  0
 29 54  1  0
M  END
$$$$
