
     RDKit          3D

 58 62  0  0  0  0  0  0  0  0999 V2000
   -5.5163    3.1604   -2.6732 C   0  0  0  0  0  0  0  0  0  0  0  0
   -4.4273    2.2962   -2.9732 O   0  0  0  0  0  0  0  0  0  0  0  0
   -3.7071    1.8176   -1.9143 C   0  0  0  0  0  0  0  0  0  0  0  0
   -3.9680    2.0637   -0.5656 C   0  0  0  0  0  0  0  0  0  0  0  0
   -3.1479    1.5060    0.4219 C   0  0  0  0  0  0  0  0  0  0  0  0
   -2.0694    0.6879    0.0665 C   0  0  0  0  0  0  0  0  0  0  0  0
   -1.2014    0.1221    1.1384 C   0  0  0  0  0  0  0  0  0  0  0  0
   -0.9600    0.8487    2.1765 N   0  0  0  0  0  0  0  0  0  0  0  0
   -0.0487    0.3283    3.1902 C   0  0  0  0  0  0  0  0  0  0  0  0
    1.3713    0.2984    2.6310 C   0  0  0  0  0  0  0  0  0  0  0  0
    2.1894    1.1740    2.9325 O   0  0  0  0  0  0  0  0  0  0  0  0
    1.7132   -0.7699    1.7979 N   0  0  0  0  0  0  0  0  0  0  0  0
    3.1428   -0.9295    1.4908 C   0  0  0  0  0  0  0  0  0  0  0  0
    3.5283   -0.1929    0.2057 C   0  0  0  0  0  0  0  0  0  0  0  0
    4.1895   -0.7322   -0.6797 O   0  0  0  0  0  0  0  0  0  0  0  0
    3.1630    1.1353    0.1677 N   0  0  0  0  0  0  0  0  0  0  0  0
    3.5983    2.0153   -0.8903 C   0  0  0  0  0  0  0  0  0  0  0  0
    4.8893    2.6328   -0.5014 C   0  0  0  0  0  0  0  0  0  0  0  0
    6.2018    2.2163   -0.5919 C   0  0  0  0  0  0  0  0  0  0  0  0
    6.9890    3.2526   -0.0364 C   0  0  0  0  0  0  0  0  0  0  0  0
    6.1090    4.2327    0.3577 C   0  0  0  0  0  0  0  0  0  0  0  0
    4.8314    3.8664    0.0793 O   0  0  0  0  0  0  0  0  0  0  0  0
    0.6934   -1.5327    1.2097 C   0  0  0  0  0  0  0  0  0  0  0  0
    1.0894   -3.1060    0.6763 S   0  0  0  0  0  0  0  0  0  0  0  0
   -0.5199   -3.4645    0.2985 C   0  0  0  0  0  0  0  0  0  0  0  0
   -1.3617   -2.3874    0.4930 C   0  0  0  0  0  0  0  0  0  0  0  0
   -0.6378   -1.2198    0.9582 C   0  0  0  0  0  0  0  0  0  0  0  0
   -2.8385   -2.5003    0.2199 C   0  0  0  0  0  0  0  0  0  0  0  0
   -3.3004   -3.9650    0.1724 C   0  0  0  0  0  0  0  0  0  0  0  0
   -2.3689   -4.8117   -0.7043 C   0  0  0  0  0  0  0  0  0  0  0  0
   -0.9357   -4.8312   -0.1545 C   0  0  0  0  0  0  0  0  0  0  0  0
   -1.7932    0.4582   -1.2853 C   0  0  0  0  0  0  0  0  0  0  0  0
   -2.6168    1.0164   -2.2663 C   0  0  0  0  0  0  0  0  0  0  0  0
   -5.1732    4.0653   -2.1607 H   0  0  0  0  0  0  0  0  0  0  0  0
   -5.9709    3.4663   -3.6203 H   0  0  0  0  0  0  0  0  0  0  0  0
   -6.2826    2.6406   -2.0886 H   0  0  0  0  0  0  0  0  0  0  0  0
   -4.7959    2.6881   -0.2464 H   0  0  0  0  0  0  0  0  0  0  0  0
   -3.3540    1.7145    1.4699 H   0  0  0  0  0  0  0  0  0  0  0  0
   -0.3497   -0.6510    3.5799 H   0  0  0  0  0  0  0  0  0  0  0  0
   -0.0547    1.0090    4.0491 H   0  0  0  0  0  0  0  0  0  0  0  0
    3.7540   -0.5214    2.3048 H   0  0  0  0  0  0  0  0  0  0  0  0
    3.4152   -1.9846    1.4044 H   0  0  0  0  0  0  0  0  0  0  0  0
    2.8941    1.5720    1.0484 H   0  0  0  0  0  0  0  0  0  0  0  0
    3.7004    1.4595   -1.8279 H   0  0  0  0  0  0  0  0  0  0  0  0
    2.8246    2.7780   -1.0224 H   0  0  0  0  0  0  0  0  0  0  0  0
    6.5372    1.2732   -1.0027 H   0  0  0  0  0  0  0  0  0  0  0  0
    8.0642    3.2808    0.0684 H   0  0  0  0  0  0  0  0  0  0  0  0
    6.2249    5.1988    0.8287 H   0  0  0  0  0  0  0  0  0  0  0  0
   -3.0597   -2.0353   -0.7471 H   0  0  0  0  0  0  0  0  0  0  0  0
   -3.4098   -1.9666    0.9875 H   0  0  0  0  0  0  0  0  0  0  0  0
   -4.3243   -4.0123   -0.2151 H   0  0  0  0  0  0  0  0  0  0  0  0
   -3.3203   -4.3811    1.1877 H   0  0  0  0  0  0  0  0  0  0  0  0
   -2.3654   -4.4020   -1.7227 H   0  0  0  0  0  0  0  0  0  0  0  0
   -2.7476   -5.8375   -0.7748 H   0  0  0  0  0  0  0  0  0  0  0  0
   -0.2559   -5.2151   -0.9237 H   0  0  0  0  0  0  0  0  0  0  0  0
   -0.8879   -5.5163    0.7013 H   0  0  0  0  0  0  0  0  0  0  0  0
   -0.9401   -0.1419   -1.5917 H   0  0  0  0  0  0  0  0  0  0  0  0
   -2.4025    0.8330   -3.3170 H   0  0  0  0  0  0  0  0  0  0  0  0
  1  2  1  0
  2  3  1  0
  3  4  2  0
  4  5  1  0
  5  6  2  0
  6  7  1  0
  7  8  2  0
  8  9  1  0
  9 10  1  0
 10 11  2  0
 10 12  1  0
 12 13  1  0
 13 14  1  0
 14 15  2  0
 14 16  1  0
 16 17  1  0
 17 18  1  0
 18 19  2  0
 19 20  1  0
 20 21  2  0
 21 22  1  0
 12 23  1  0
 23 24  1  0
 24 25  1  0
 25 26  2  0
 26 27  1  0
 26 28  1  0
 28 29  1  0
 29 30  1  0
 30 31  1  0
  6 32  1  0
 32 33  2  0
 33  3  1  0
 27  7  1  0
 22 18  1  0
 27 23  2  0
 31 25  1  0
  1 34  1  0
  1 35  1  0
  1 36  1  0
  4 37  1  0
  5 38  1  0
  9 39  1  0
  9 40  1  0
 13 41  1  0
 13 42  1  0
 16 43  1  0
 17 44  1  0
 17 45  1  0
 19 46  1  0
 20 47  1  0
 21 48  1  0
 28 49  1  0
 28 50  1  0
 29 51  1  0
 29 52  1  0
 30 53  1  0
 30 54  1  0
 31 55  1  0
 31 56  1  0
 32 57  1  0
 33 58  1  0
M  END
$$$$
