
     RDKit          3D

 35 37  0  0  0  0  0  0  0  0999 V2000
   -0.2750    3.1650    0.1163 C   0  0  0  0  0  0  0  0  0  0  0  0
   -0.6191    1.7429    0.4155 C   0  0  0  0  0  0  0  0  0  0  0  0
   -1.9409    1.2178    0.6171 C   0  0  0  0  0  0  0  0  0  0  0  0
   -3.1767    1.9834    0.5663 C   0  0  0  0  0  0  0  0  0  0  0  0
   -4.3287    1.4083    0.6985 N   0  0  0  0  0  0  0  0  0  0  0  0
   -5.3378    2.3764    0.6054 O   0  0  0  0  0  0  0  0  0  0  0  0
   -1.7927   -0.1369    0.8747 C   0  0  0  0  0  0  0  0  0  0  0  0
   -2.7020   -1.2050    1.1561 C   0  0  0  0  0  0  0  0  0  0  0  0
   -2.2348   -2.4333    1.4449 C   0  0  0  0  0  0  0  0  0  0  0  0
   -0.8140   -2.7122    1.4861 C   0  0  0  0  0  0  0  0  0  0  0  0
    0.0472   -1.7225    1.2032 C   0  0  0  0  0  0  0  0  0  0  0  0
   -0.4336   -0.4467    0.8778 N   0  0  0  0  0  0  0  0  0  0  0  0
    0.2815    0.6872    0.5315 C   0  0  0  0  0  0  0  0  0  0  0  0
    1.7232    0.7496    0.3790 C   0  0  0  0  0  0  0  0  0  0  0  0
    2.4204    1.5253    1.0280 O   0  0  0  0  0  0  0  0  0  0  0  0
    2.3949   -0.1275   -0.6299 C   0  0  0  0  0  0  0  0  0  0  0  0
    3.7661   -0.3910   -0.4819 C   0  0  0  0  0  0  0  0  0  0  0  0
    4.4299   -1.2030   -1.4039 C   0  0  0  0  0  0  0  0  0  0  0  0
    3.7253   -1.7423   -2.4737 C   0  0  0  0  0  0  0  0  0  0  0  0
    4.3618   -2.5210   -3.3575 F   0  0  0  0  0  0  0  0  0  0  0  0
    2.3699   -1.4812   -2.6433 C   0  0  0  0  0  0  0  0  0  0  0  0
    1.7010   -0.6687   -1.7241 C   0  0  0  0  0  0  0  0  0  0  0  0
   -0.3551    3.7697    1.0252 H   0  0  0  0  0  0  0  0  0  0  0  0
   -0.9545    3.5768   -0.6368 H   0  0  0  0  0  0  0  0  0  0  0  0
    0.7413    3.2672   -0.2753 H   0  0  0  0  0  0  0  0  0  0  0  0
   -3.0971    3.0727    0.4064 H   0  0  0  0  0  0  0  0  0  0  0  0
   -6.1476    1.8465    0.7296 H   0  0  0  0  0  0  0  0  0  0  0  0
   -3.7717   -1.0205    1.1414 H   0  0  0  0  0  0  0  0  0  0  0  0
   -2.9199   -3.2467    1.6638 H   0  0  0  0  0  0  0  0  0  0  0  0
   -0.4791   -3.7094    1.7490 H   0  0  0  0  0  0  0  0  0  0  0  0
    1.1178   -1.8754    1.2301 H   0  0  0  0  0  0  0  0  0  0  0  0
    4.3207    0.0362    0.3522 H   0  0  0  0  0  0  0  0  0  0  0  0
    5.4895   -1.4135   -1.2957 H   0  0  0  0  0  0  0  0  0  0  0  0
    1.8441   -1.9071   -3.4927 H   0  0  0  0  0  0  0  0  0  0  0  0
    0.6455   -0.4608   -1.8835 H   0  0  0  0  0  0  0  0  0  0  0  0
  1  2  1  0
  2  3  1  0
  3  4  1  0
  4  5  2  3
  5  6  1  0
  3  7  2  0
  7  8  1  0
  8  9  2  0
  9 10  1  0
 10 11  2  0
 11 12  1  0
 12 13  1  0
 13 14  1  0
 14 15  2  0
 14 16  1  0
 16 17  2  0
 17 18  1  0
 18 19  2  0
 19 20  1  0
 19 21  1  0
 21 22  2  0
 13  2  2  0
 22 16  1  0
 12  7  1  0
  1 23  1  0
  1 24  1  0
  1 25  1  0
  4 26  1  0
  6 27  1  0
  8 28  1  0
  9 29  1  0
 10 30  1  0
 11 31  1  0
 17 32  1  0
 18 33  1  0
 21 34  1  0
 22 35  1  0
M  END
$$$$
