
     RDKit          3D

 36 37  0  0  0  0  0  0  0  0999 V2000
   -6.6591    1.8393    0.2027 C   0  0  0  0  0  0  0  0  0  0  0  0
   -5.5239    0.8544    0.0694 C   0  0  0  0  0  0  0  0  0  0  0  0
   -5.7380   -0.3520    0.0848 O   0  0  0  0  0  0  0  0  0  0  0  0
   -4.3028    1.4843   -0.0919 N   0  0  0  0  0  0  0  0  0  0  0  0
   -3.0387    0.8793   -0.2456 C   0  0  0  0  0  0  0  0  0  0  0  0
   -2.8229   -0.4975   -0.2412 C   0  0  0  0  0  0  0  0  0  0  0  0
   -1.5306   -1.0222   -0.3980 C   0  0  0  0  0  0  0  0  0  0  0  0
   -0.4341   -0.1780   -0.5611 C   0  0  0  0  0  0  0  0  0  0  0  0
    0.8926   -0.6229   -0.7265 N   0  0  0  0  0  0  0  0  0  0  0  0
    1.3596   -1.9269   -0.6926 C   0  0  0  0  0  0  0  0  0  0  0  0
    0.6846   -2.9380   -0.5216 O   0  0  0  0  0  0  0  0  0  0  0  0
    2.8570   -2.0393   -0.9530 C   0  0  0  0  0  0  0  0  0  0  0  0
    3.7109   -1.1476   -0.0790 C   0  0  0  0  0  0  0  0  0  0  0  0
    3.6615   -1.2680    1.3194 C   0  0  0  0  0  0  0  0  0  0  0  0
    4.4464   -0.4432    2.1261 C   0  0  0  0  0  0  0  0  0  0  0  0
    5.2847    0.4948    1.5369 C   0  0  0  0  0  0  0  0  0  0  0  0
    6.0372    1.2870    2.3113 F   0  0  0  0  0  0  0  0  0  0  0  0
    5.3556    0.6224    0.1549 C   0  0  0  0  0  0  0  0  0  0  0  0
    4.5714   -0.2000   -0.6554 C   0  0  0  0  0  0  0  0  0  0  0  0
   -0.6498    1.2038   -0.5672 C   0  0  0  0  0  0  0  0  0  0  0  0
   -1.9388    1.7272   -0.4098 C   0  0  0  0  0  0  0  0  0  0  0  0
   -7.4965    1.3607    0.7187 H   0  0  0  0  0  0  0  0  0  0  0  0
   -6.3540    2.7109    0.7890 H   0  0  0  0  0  0  0  0  0  0  0  0
   -6.9802    2.1586   -0.7922 H   0  0  0  0  0  0  0  0  0  0  0  0
   -4.3141    2.4959   -0.1101 H   0  0  0  0  0  0  0  0  0  0  0  0
   -3.6381   -1.2041   -0.1166 H   0  0  0  0  0  0  0  0  0  0  0  0
   -1.4254   -2.1029   -0.3888 H   0  0  0  0  0  0  0  0  0  0  0  0
    1.5922    0.1025   -0.8273 H   0  0  0  0  0  0  0  0  0  0  0  0
    3.0230   -1.8213   -2.0150 H   0  0  0  0  0  0  0  0  0  0  0  0
    3.1646   -3.0795   -0.7900 H   0  0  0  0  0  0  0  0  0  0  0  0
    3.0107   -2.0050    1.7885 H   0  0  0  0  0  0  0  0  0  0  0  0
    4.4109   -0.5292    3.2076 H   0  0  0  0  0  0  0  0  0  0  0  0
    6.0255    1.3570   -0.2811 H   0  0  0  0  0  0  0  0  0  0  0  0
    4.6432   -0.0990   -1.7365 H   0  0  0  0  0  0  0  0  0  0  0  0
    0.1791    1.8959   -0.6907 H   0  0  0  0  0  0  0  0  0  0  0  0
   -2.0637    2.8067   -0.4180 H   0  0  0  0  0  0  0  0  0  0  0  0
  1  2  1  0
  2  3  2  0
  2  4  1  0
  4  5  1  0
  5  6  2  0
  6  7  1  0
  7  8  2  0
  8  9  1  0
  9 10  1  0
 10 11  2  0
 10 12  1  0
 12 13  1  0
 13 14  2  0
 14 15  1  0
 15 16  2  0
 16 17  1  0
 16 18  1  0
 18 19  2  0
  8 20  1  0
 20 21  2  0
 21  5  1  0
 19 13  1  0
  1 22  1  0
  1 23  1  0
  1 24  1  0
  4 25  1  0
  6 26  1  0
  7 27  1  0
  9 28  1  0
 12 29  1  0
 12 30  1  0
 14 31  1  0
 15 32  1  0
 18 33  1  0
 19 34  1  0
 20 35  1  0
 21 36  1  0
M  END
$$$$
