
     RDKit          3D

 59 62  0  0  0  0  0  0  0  0999 V2000
    8.5489    2.8997   -2.7014 C   0  0  0  0  0  0  0  0  0  0  0  0
    7.6379    1.7088   -2.7321 C   0  0  0  0  0  0  0  0  0  0  0  0
    7.5887    0.8840   -3.8618 C   0  0  0  0  0  0  0  0  0  0  0  0
    6.7638   -0.2438   -3.8820 C   0  0  0  0  0  0  0  0  0  0  0  0
    5.9862   -0.5754   -2.7647 C   0  0  0  0  0  0  0  0  0  0  0  0
    5.0730   -1.7736   -2.7850 C   0  0  0  0  0  0  0  0  0  0  0  0
    3.7204   -1.3783   -3.1100 N   0  0  0  0  0  0  0  0  0  0  0  0
    2.7740   -1.1771   -2.1285 C   0  0  0  0  0  0  0  0  0  0  0  0
    2.9547   -1.4454   -0.9475 O   0  0  0  0  0  0  0  0  0  0  0  0
    1.4760   -0.6168   -2.6767 C   0  0  0  0  0  0  0  0  0  0  0  0
    0.4421   -0.2678   -1.6085 C   0  0  0  0  0  0  0  0  0  0  0  0
   -0.1121   -1.4949   -0.8798 C   0  0  0  0  0  0  0  0  0  0  0  0
   -1.3754   -1.1891   -0.2129 N   0  0  0  0  0  0  0  0  0  0  0  0
   -2.5313   -1.4852   -0.9468 N   0  0  0  0  0  0  0  0  0  0  0  0
   -3.7160   -1.2270   -0.4679 C   0  0  0  0  0  0  0  0  0  0  0  0
   -4.9140   -1.5904   -1.2983 C   0  0  0  0  0  0  0  0  0  0  0  0
   -3.8379   -0.6020    0.8259 C   0  0  0  0  0  0  0  0  0  0  0  0
   -4.9052   -0.1378    1.5776 C   0  0  0  0  0  0  0  0  0  0  0  0
   -6.3401   -0.0108    1.2166 C   0  0  0  0  0  0  0  0  0  0  0  0
   -4.3484    0.2798    2.7934 N   0  0  0  0  0  0  0  0  0  0  0  0
   -4.9714    0.6573    4.0245 C   0  0  0  0  0  0  0  0  0  0  0  0
   -6.2954    0.3232    4.3312 C   0  0  0  0  0  0  0  0  0  0  0  0
   -6.8578    0.7109    5.5530 C   0  0  0  0  0  0  0  0  0  0  0  0
   -6.1024    1.4210    6.4829 C   0  0  0  0  0  0  0  0  0  0  0  0
   -4.7770    1.7364    6.2007 C   0  0  0  0  0  0  0  0  0  0  0  0
   -4.2113    1.3520    4.9827 C   0  0  0  0  0  0  0  0  0  0  0  0
   -2.9905    0.3068    2.7191 N   0  0  0  0  0  0  0  0  0  0  0  0
   -2.6914   -0.2889    1.5630 C   0  0  0  0  0  0  0  0  0  0  0  0
   -1.3539   -0.5663    1.0534 C   0  0  0  0  0  0  0  0  0  0  0  0
   -0.3234   -0.2779    1.6577 O   0  0  0  0  0  0  0  0  0  0  0  0
    6.0424    0.2484   -1.6324 C   0  0  0  0  0  0  0  0  0  0  0  0
    6.8665    1.3755   -1.6136 C   0  0  0  0  0  0  0  0  0  0  0  0
    8.1820    3.6579   -2.0014 H   0  0  0  0  0  0  0  0  0  0  0  0
    8.6055    3.3700   -3.6885 H   0  0  0  0  0  0  0  0  0  0  0  0
    9.5543    2.5949   -2.3956 H   0  0  0  0  0  0  0  0  0  0  0  0
    8.1936    1.1167   -4.7357 H   0  0  0  0  0  0  0  0  0  0  0  0
    6.7384   -0.8637   -4.7753 H   0  0  0  0  0  0  0  0  0  0  0  0
    5.1081   -2.2964   -1.8224 H   0  0  0  0  0  0  0  0  0  0  0  0
    5.3952   -2.4856   -3.5530 H   0  0  0  0  0  0  0  0  0  0  0  0
    3.5734   -0.9530   -4.0151 H   0  0  0  0  0  0  0  0  0  0  0  0
    1.0570   -1.3414   -3.3845 H   0  0  0  0  0  0  0  0  0  0  0  0
    1.7169    0.2953   -3.2360 H   0  0  0  0  0  0  0  0  0  0  0  0
    0.8696    0.4309   -0.8792 H   0  0  0  0  0  0  0  0  0  0  0  0
   -0.3820    0.2641   -2.1008 H   0  0  0  0  0  0  0  0  0  0  0  0
    0.5983   -1.8537   -0.1278 H   0  0  0  0  0  0  0  0  0  0  0  0
   -0.2925   -2.3177   -1.5815 H   0  0  0  0  0  0  0  0  0  0  0  0
   -5.3547   -0.6828   -1.7192 H   0  0  0  0  0  0  0  0  0  0  0  0
   -4.6196   -2.2466   -2.1228 H   0  0  0  0  0  0  0  0  0  0  0  0
   -5.6552   -2.1126   -0.6878 H   0  0  0  0  0  0  0  0  0  0  0  0
   -6.4603    0.1497    0.1418 H   0  0  0  0  0  0  0  0  0  0  0  0
   -6.8897   -0.9182    1.4830 H   0  0  0  0  0  0  0  0  0  0  0  0
   -6.8075    0.8560    1.6931 H   0  0  0  0  0  0  0  0  0  0  0  0
   -6.9108   -0.2767    3.6731 H   0  0  0  0  0  0  0  0  0  0  0  0
   -7.8860    0.4448    5.7849 H   0  0  0  0  0  0  0  0  0  0  0  0
   -6.5416    1.7168    7.4322 H   0  0  0  0  0  0  0  0  0  0  0  0
   -4.1775    2.2784    6.9274 H   0  0  0  0  0  0  0  0  0  0  0  0
   -3.1708    1.6118    4.7900 H   0  0  0  0  0  0  0  0  0  0  0  0
    5.4388    0.0133   -0.7561 H   0  0  0  0  0  0  0  0  0  0  0  0
    6.8977    1.9925   -0.7179 H   0  0  0  0  0  0  0  0  0  0  0  0
  1  2  1  0
  2  3  2  0
  3  4  1  0
  4  5  2  0
  5  6  1  0
  6  7  1  0
  7  8  1  0
  8  9  2  0
  8 10  1  0
 10 11  1  0
 11 12  1  0
 12 13  1  0
 13 14  1  0
 14 15  2  0
 15 16  1  0
 15 17  1  0
 17 18  2  0
 18 19  1  0
 18 20  1  0
 20 21  1  0
 21 22  2  0
 22 23  1  0
 23 24  2  0
 24 25  1  0
 25 26  2  0
 20 27  1  0
 27 28  2  0
 28 29  1  0
 29 30  2  0
  5 31  1  0
 31 32  2  0
 32  2  1  0
 29 13  1  0
 28 17  1  0
 26 21  1  0
  1 33  1  0
  1 34  1  0
  1 35  1  0
  3 36  1  0
  4 37  1  0
  6 38  1  0
  6 39  1  0
  7 40  1  0
 10 41  1  0
 10 42  1  0
 11 43  1  0
 11 44  1  0
 12 45  1  0
 12 46  1  0
 16 47  1  0
 16 48  1  0
 16 49  1  0
 19 50  1  0
 19 51  1  0
 19 52  1  0
 22 53  1  0
 23 54  1  0
 24 55  1  0
 25 56  1  0
 26 57  1  0
 31 58  1  0
 32 59  1  0
M  END
$$$$
