
     RDKit          3D

 44 46  0  0  0  0  0  0  0  0999 V2000
   -2.1950    0.5088   -3.0836 C   0  0  0  0  0  0  0  0  0  0  0  0
   -0.8482    0.9149   -2.8798 O   0  0  0  0  0  0  0  0  0  0  0  0
   -0.4981    1.3184   -1.6146 C   0  0  0  0  0  0  0  0  0  0  0  0
   -1.4161    1.5887   -0.5931 C   0  0  0  0  0  0  0  0  0  0  0  0
   -0.9737    1.9643    0.6819 C   0  0  0  0  0  0  0  0  0  0  0  0
   -1.9211    2.2309    1.7726 C   0  0  0  0  0  0  0  0  0  0  0  0
   -2.8471    1.3735    2.2526 C   0  0  0  0  0  0  0  0  0  0  0  0
   -3.7123    1.8026    3.3039 C   0  0  0  0  0  0  0  0  0  0  0  0
   -4.3727    2.1802    4.1814 N   0  0  0  0  0  0  0  0  0  0  0  0
   -3.0126   -0.0030    1.7594 C   0  0  0  0  0  0  0  0  0  0  0  0
   -2.0185   -0.9631    1.9370 C   0  0  0  0  0  0  0  0  0  0  0  0
   -2.2330   -2.2481    1.4466 C   0  0  0  0  0  0  0  0  0  0  0  0
   -3.4275   -2.5388    0.8002 C   0  0  0  0  0  0  0  0  0  0  0  0
   -4.3637   -1.5273    0.6695 C   0  0  0  0  0  0  0  0  0  0  0  0
   -4.1817   -0.2691    1.1287 N   0  0  0  0  0  0  0  0  0  0  0  0
    0.3945    2.1108    0.9164 C   0  0  0  0  0  0  0  0  0  0  0  0
    1.3176    1.8588   -0.1025 C   0  0  0  0  0  0  0  0  0  0  0  0
    0.8820    1.4575   -1.3686 C   0  0  0  0  0  0  0  0  0  0  0  0
    1.7081    1.1733   -2.4265 O   0  0  0  0  0  0  0  0  0  0  0  0
    3.1145    1.0587   -2.2116 C   0  0  0  0  0  0  0  0  0  0  0  0
    3.5122   -0.2254   -1.5139 C   0  0  0  0  0  0  0  0  0  0  0  0
    2.8282   -1.4248   -1.7671 C   0  0  0  0  0  0  0  0  0  0  0  0
    3.2110   -2.6095   -1.1358 C   0  0  0  0  0  0  0  0  0  0  0  0
    4.2893   -2.6051   -0.2558 C   0  0  0  0  0  0  0  0  0  0  0  0
    4.7602   -4.0637    0.5261 Cl  0  0  0  0  0  0  0  0  0  0  0  0
    4.9906   -1.4272   -0.0057 C   0  0  0  0  0  0  0  0  0  0  0  0
    4.6073   -0.2416   -0.6380 C   0  0  0  0  0  0  0  0  0  0  0  0
   -2.4855   -0.2812   -2.3824 H   0  0  0  0  0  0  0  0  0  0  0  0
   -2.8752    1.3640   -3.0215 H   0  0  0  0  0  0  0  0  0  0  0  0
   -2.2707    0.0983   -4.0955 H   0  0  0  0  0  0  0  0  0  0  0  0
   -2.4847    1.5070   -0.7704 H   0  0  0  0  0  0  0  0  0  0  0  0
   -1.8361    3.2290    2.2020 H   0  0  0  0  0  0  0  0  0  0  0  0
   -1.0905   -0.7233    2.4461 H   0  0  0  0  0  0  0  0  0  0  0  0
   -1.4768   -3.0178    1.5770 H   0  0  0  0  0  0  0  0  0  0  0  0
   -3.6287   -3.5333    0.4146 H   0  0  0  0  0  0  0  0  0  0  0  0
   -5.3169   -1.7069    0.1808 H   0  0  0  0  0  0  0  0  0  0  0  0
    0.7599    2.4115    1.8964 H   0  0  0  0  0  0  0  0  0  0  0  0
    2.3694    1.9806    0.1322 H   0  0  0  0  0  0  0  0  0  0  0  0
    3.5063    1.9496   -1.7071 H   0  0  0  0  0  0  0  0  0  0  0  0
    3.5823    1.0472   -3.2033 H   0  0  0  0  0  0  0  0  0  0  0  0
    1.9835   -1.4359   -2.4542 H   0  0  0  0  0  0  0  0  0  0  0  0
    2.6654   -3.5272   -1.3381 H   0  0  0  0  0  0  0  0  0  0  0  0
    5.8357   -1.4254    0.6764 H   0  0  0  0  0  0  0  0  0  0  0  0
    5.1685    0.6691   -0.4389 H   0  0  0  0  0  0  0  0  0  0  0  0
  1  2  1  0
  2  3  1  0
  3  4  2  0
  4  5  1  0
  5  6  1  0
  6  7  2  3
  7  8  1  0
  8  9  3  0
  7 10  1  0
 10 11  2  0
 11 12  1  0
 12 13  2  0
 13 14  1  0
 14 15  2  0
  5 16  2  0
 16 17  1  0
 17 18  2  0
 18 19  1  0
 19 20  1  0
 20 21  1  0
 21 22  2  0
 22 23  1  0
 23 24  2  0
 24 25  1  0
 24 26  1  0
 26 27  2  0
 18  3  1  0
 27 21  1  0
 15 10  1  0
  1 28  1  0
  1 29  1  0
  1 30  1  0
  4 31  1  0
  6 32  1  0
 11 33  1  0
 12 34  1  0
 13 35  1  0
 14 36  1  0
 16 37  1  0
 17 38  1  0
 20 39  1  0
 20 40  1  0
 22 41  1  0
 23 42  1  0
 26 43  1  0
 27 44  1  0
M  END
$$$$
