
     RDKit          3D

 38 39  0  0  0  0  0  0  0  0999 V2000
   -4.5842   -2.4405    1.6004 C   0  0  0  0  0  0  0  0  0  0  0  0
   -3.9278   -1.1546    1.4158 N   0  0  0  0  0  0  0  0  0  0  0  0
   -3.8426   -0.8124   -0.0076 C   0  0  0  0  0  0  0  0  0  0  0  0
   -3.1467    0.5135   -0.2066 C   0  0  0  0  0  0  0  0  0  0  0  0
   -3.7795    1.6946    0.2186 C   0  0  0  0  0  0  0  0  0  0  0  0
   -3.1797    2.9400    0.0224 C   0  0  0  0  0  0  0  0  0  0  0  0
   -1.9428    3.0245   -0.6117 C   0  0  0  0  0  0  0  0  0  0  0  0
   -1.2968    1.8632   -1.0330 C   0  0  0  0  0  0  0  0  0  0  0  0
   -1.8838    0.6145   -0.8071 C   0  0  0  0  0  0  0  0  0  0  0  0
   -1.2464   -0.5232   -1.2295 O   0  0  0  0  0  0  0  0  0  0  0  0
   -0.1047   -0.8115   -0.4283 C   0  0  0  0  0  0  0  0  0  0  0  0
    1.2458   -0.4138   -1.0469 C   0  0  0  0  0  0  0  0  0  0  0  0
    1.3449   -0.0180   -2.2037 O   0  0  0  0  0  0  0  0  0  0  0  0
    2.2904   -0.5668   -0.1420 N   0  0  0  0  0  0  0  0  0  0  0  0
    3.6597   -0.3026   -0.3566 C   0  0  0  0  0  0  0  0  0  0  0  0
    4.5284   -0.5222    0.7215 C   0  0  0  0  0  0  0  0  0  0  0  0
    5.8999   -0.2853    0.5942 C   0  0  0  0  0  0  0  0  0  0  0  0
    6.4170    0.1735   -0.6136 C   0  0  0  0  0  0  0  0  0  0  0  0
    5.5626    0.3940   -1.6907 C   0  0  0  0  0  0  0  0  0  0  0  0
    4.1896    0.1570   -1.5633 C   0  0  0  0  0  0  0  0  0  0  0  0
   -4.6431   -2.6692    2.6692 H   0  0  0  0  0  0  0  0  0  0  0  0
   -5.6074   -2.4228    1.2110 H   0  0  0  0  0  0  0  0  0  0  0  0
   -4.0291   -3.2493    1.1137 H   0  0  0  0  0  0  0  0  0  0  0  0
   -2.9843   -1.1957    1.7953 H   0  0  0  0  0  0  0  0  0  0  0  0
   -3.3261   -1.6079   -0.5571 H   0  0  0  0  0  0  0  0  0  0  0  0
   -4.8487   -0.7364   -0.4401 H   0  0  0  0  0  0  0  0  0  0  0  0
   -4.7518    1.6402    0.7053 H   0  0  0  0  0  0  0  0  0  0  0  0
   -3.6861    3.8434    0.3522 H   0  0  0  0  0  0  0  0  0  0  0  0
   -1.4849    3.9943   -0.7874 H   0  0  0  0  0  0  0  0  0  0  0  0
   -0.3466    1.9405   -1.5550 H   0  0  0  0  0  0  0  0  0  0  0  0
   -0.0813   -1.9008   -0.3024 H   0  0  0  0  0  0  0  0  0  0  0  0
   -0.1887   -0.3783    0.5783 H   0  0  0  0  0  0  0  0  0  0  0  0
    2.0506   -0.8967    0.7842 H   0  0  0  0  0  0  0  0  0  0  0  0
    4.1539   -0.8796    1.6769 H   0  0  0  0  0  0  0  0  0  0  0  0
    6.5633   -0.4589    1.4375 H   0  0  0  0  0  0  0  0  0  0  0  0
    7.4828    0.3592   -0.7173 H   0  0  0  0  0  0  0  0  0  0  0  0
    5.9604    0.7519   -2.6373 H   0  0  0  0  0  0  0  0  0  0  0  0
    3.5640    0.3421   -2.4306 H   0  0  0  0  0  0  0  0  0  0  0  0
  1  2  1  0
  2  3  1  0
  3  4  1  0
  4  5  2  0
  5  6  1  0
  6  7  2  0
  7  8  1  0
  8  9  2  0
  9 10  1  0
 10 11  1  0
 11 12  1  0
 12 13  2  0
 12 14  1  0
 14 15  1  0
 15 16  2  0
 16 17  1  0
 17 18  2  0
 18 19  1  0
 19 20  2  0
  9  4  1  0
 20 15  1  0
  1 21  1  0
  1 22  1  0
  1 23  1  0
  2 24  1  0
  3 25  1  0
  3 26  1  0
  5 27  1  0
  6 28  1  0
  7 29  1  0
  8 30  1  0
 11 31  1  0
 11 32  1  0
 14 33  1  0
 16 34  1  0
 17 35  1  0
 18 36  1  0
 19 37  1  0
 20 38  1  0
M  END
$$$$
