
     RDKit          3D

 42 43  0  0  0  0  0  0  0  0999 V2000
   -1.4620    2.5103    2.1188 C   0  0  0  0  0  0  0  0  0  0  0  0
   -0.5455    1.9068    1.0922 C   0  0  0  0  0  0  0  0  0  0  0  0
    0.5465    2.6783    0.6481 C   0  0  0  0  0  0  0  0  0  0  0  0
    1.4489    2.1858   -0.2976 C   0  0  0  0  0  0  0  0  0  0  0  0
    1.2737    0.9014   -0.8074 C   0  0  0  0  0  0  0  0  0  0  0  0
    2.4042    0.2625   -2.0215 S   0  0  0  0  0  6  0  0  0  0  0  0
    1.6402   -0.5974   -2.9064 O   0  0  0  0  0  0  0  0  0  0  0  0
    3.1497    1.3870   -2.5576 O   0  0  0  0  0  0  0  0  0  0  0  0
    3.5549   -0.7631   -1.1328 C   0  0  0  0  0  0  0  0  0  0  0  0
    4.7510   -0.2117   -0.6614 C   0  0  0  0  0  0  0  0  0  0  0  0
    5.6569   -1.0231    0.0250 C   0  0  0  0  0  0  0  0  0  0  0  0
    5.3666   -2.3734    0.2266 C   0  0  0  0  0  0  0  0  0  0  0  0
    6.4859   -3.3684    1.0729 Cl  0  0  0  0  0  0  0  0  0  0  0  0
    4.1788   -2.9242   -0.2569 C   0  0  0  0  0  0  0  0  0  0  0  0
    3.2686   -2.1195   -0.9456 C   0  0  0  0  0  0  0  0  0  0  0  0
    0.1929    0.1193   -0.4012 C   0  0  0  0  0  0  0  0  0  0  0  0
   -0.7163    0.6198    0.5473 C   0  0  0  0  0  0  0  0  0  0  0  0
   -2.0444   -0.4916    0.9970 S   0  0  0  0  0  6  0  0  0  0  0  0
   -2.9175    0.1259    1.9686 O   0  0  0  0  0  0  0  0  0  0  0  0
   -1.4315   -1.7765    1.2583 O   0  0  0  0  0  0  0  0  0  0  0  0
   -2.9136   -0.6209   -0.4685 N   0  0  0  0  0  0  0  0  0  0  0  0
   -3.5477    0.6271   -0.9473 C   0  0  0  0  0  0  0  0  0  0  0  0
   -3.8334   -1.7962   -0.5012 C   0  0  0  0  0  0  0  0  0  0  0  0
   -4.8357   -1.9015    0.6245 C   0  0  0  0  0  0  0  0  0  0  0  0
   -4.9942   -2.8591    1.3643 O   0  0  0  0  0  0  0  0  0  0  0  0
   -5.6300   -0.8167    0.7400 O   0  0  0  0  0  0  0  0  0  0  0  0
   -1.4653    1.9083    3.0324 H   0  0  0  0  0  0  0  0  0  0  0  0
   -2.4750    2.6104    1.7176 H   0  0  0  0  0  0  0  0  0  0  0  0
   -1.1350    3.5161    2.4056 H   0  0  0  0  0  0  0  0  0  0  0  0
    0.7036    3.6829    1.0409 H   0  0  0  0  0  0  0  0  0  0  0  0
    2.2767    2.8118   -0.6253 H   0  0  0  0  0  0  0  0  0  0  0  0
    4.9882    0.8372   -0.8265 H   0  0  0  0  0  0  0  0  0  0  0  0
    6.5880   -0.6004    0.3949 H   0  0  0  0  0  0  0  0  0  0  0  0
    3.9596   -3.9785   -0.1046 H   0  0  0  0  0  0  0  0  0  0  0  0
    2.3502   -2.5581   -1.3308 H   0  0  0  0  0  0  0  0  0  0  0  0
    0.0474   -0.8764   -0.8197 H   0  0  0  0  0  0  0  0  0  0  0  0
   -4.1674    0.4287   -1.8275 H   0  0  0  0  0  0  0  0  0  0  0  0
   -4.1760    1.0881   -0.1812 H   0  0  0  0  0  0  0  0  0  0  0  0
   -2.7798    1.3419   -1.2561 H   0  0  0  0  0  0  0  0  0  0  0  0
   -3.2233   -2.7074   -0.5009 H   0  0  0  0  0  0  0  0  0  0  0  0
   -4.3865   -1.8141   -1.4476 H   0  0  0  0  0  0  0  0  0  0  0  0
   -6.1526   -0.9974    1.5504 H   0  0  0  0  0  0  0  0  0  0  0  0
  1  2  1  0
  2  3  2  0
  3  4  1  0
  4  5  2  0
  5  6  1  0
  6  7  2  0
  6  8  2  0
  6  9  1  0
  9 10  2  0
 10 11  1  0
 11 12  2  0
 12 13  1  0
 12 14  1  0
 14 15  2  0
  5 16  1  0
 16 17  2  0
 17 18  1  0
 18 19  2  0
 18 20  2  0
 18 21  1  0
 21 22  1  0
 21 23  1  0
 23 24  1  0
 24 25  2  0
 24 26  1  0
 17  2  1  0
 15  9  1  0
  1 27  1  0
  1 28  1  0
  1 29  1  0
  3 30  1  0
  4 31  1  0
 10 32  1  0
 11 33  1  0
 14 34  1  0
 15 35  1  0
 16 36  1  0
 22 37  1  0
 22 38  1  0
 22 39  1  0
 23 40  1  0
 23 41  1  0
 26 42  1  0
M  END
$$$$
