
     RDKit          3D

 49 52  0  0  0  0  0  0  0  0999 V2000
    6.8454    1.3138   -0.6451 C   0  0  0  0  0  0  0  0  0  0  0  0
    6.4814    0.0630    0.1021 C   0  0  0  0  0  0  0  0  0  0  0  0
    7.3950   -0.9981    0.1910 C   0  0  0  0  0  0  0  0  0  0  0  0
    7.0598   -2.1590    0.8902 C   0  0  0  0  0  0  0  0  0  0  0  0
    8.1923   -3.4512    0.9908 Cl  0  0  0  0  0  0  0  0  0  0  0  0
    5.8190   -2.2788    1.5114 C   0  0  0  0  0  0  0  0  0  0  0  0
    4.9021   -1.2303    1.4301 C   0  0  0  0  0  0  0  0  0  0  0  0
    5.2241   -0.0720    0.7135 C   0  0  0  0  0  0  0  0  0  0  0  0
    4.3598    0.9967    0.6581 O   0  0  0  0  0  0  0  0  0  0  0  0
    3.0985    0.8452    0.2431 C   0  0  0  0  0  0  0  0  0  0  0  0
    2.6132   -0.2640   -0.2737 N   0  0  0  0  0  0  0  0  0  0  0  0
    1.2900   -0.0746   -0.6164 C   0  0  0  0  0  0  0  0  0  0  0  0
    0.7720    1.1769   -0.3499 C   0  0  0  0  0  0  0  0  0  0  0  0
   -0.6093    1.6996   -0.6020 C   0  0  0  0  0  0  0  0  0  0  0  0
   -1.3586    1.9778    0.6390 N   0  0  0  0  0  0  0  0  0  0  0  0
   -1.6209    0.7551    1.4283 C   0  0  0  0  0  0  0  0  0  0  0  0
   -2.5320   -0.2901    0.7384 C   0  0  0  0  0  0  0  0  0  0  0  0
   -3.6506    0.3447    0.0018 N   0  0  0  0  0  0  0  0  0  0  0  0
   -4.7126   -0.5123   -0.3182 C   0  0  0  0  0  0  0  0  0  0  0  0
   -4.4606   -1.7738   -0.8876 C   0  0  0  0  0  0  0  0  0  0  0  0
   -5.4939   -2.6533   -1.2310 C   0  0  0  0  0  0  0  0  0  0  0  0
   -6.8169   -2.2880   -1.0178 C   0  0  0  0  0  0  0  0  0  0  0  0
   -7.1006   -1.0436   -0.4680 C   0  0  0  0  0  0  0  0  0  0  0  0
   -6.0605   -0.1684   -0.1285 C   0  0  0  0  0  0  0  0  0  0  0  0
   -3.9313    1.7350    0.3954 C   0  0  0  0  0  0  0  0  0  0  0  0
   -2.6568    2.6186    0.3058 C   0  0  0  0  0  0  0  0  0  0  0  0
    2.0033    2.1627    0.3282 S   0  0  0  0  0  0  0  0  0  0  0  0
    6.1564    1.4685   -1.4818 H   0  0  0  0  0  0  0  0  0  0  0  0
    6.8056    2.1797    0.0235 H   0  0  0  0  0  0  0  0  0  0  0  0
    7.8594    1.2566   -1.0543 H   0  0  0  0  0  0  0  0  0  0  0  0
    8.3704   -0.9206   -0.2837 H   0  0  0  0  0  0  0  0  0  0  0  0
    5.5589   -3.1809    2.0577 H   0  0  0  0  0  0  0  0  0  0  0  0
    3.9371   -1.3230    1.9212 H   0  0  0  0  0  0  0  0  0  0  0  0
    0.7403   -0.8950   -1.0622 H   0  0  0  0  0  0  0  0  0  0  0  0
   -0.4984    2.6326   -1.1720 H   0  0  0  0  0  0  0  0  0  0  0  0
   -1.1537    1.0090   -1.2583 H   0  0  0  0  0  0  0  0  0  0  0  0
   -2.0949    1.0639    2.3706 H   0  0  0  0  0  0  0  0  0  0  0  0
   -0.6852    0.2759    1.7392 H   0  0  0  0  0  0  0  0  0  0  0  0
   -2.9125   -0.9726    1.5093 H   0  0  0  0  0  0  0  0  0  0  0  0
   -1.9237   -0.8744    0.0386 H   0  0  0  0  0  0  0  0  0  0  0  0
   -3.4415   -2.0845   -1.0997 H   0  0  0  0  0  0  0  0  0  0  0  0
   -5.2587   -3.6180   -1.6723 H   0  0  0  0  0  0  0  0  0  0  0  0
   -7.6225   -2.9663   -1.2839 H   0  0  0  0  0  0  0  0  0  0  0  0
   -8.1323   -0.7467   -0.2994 H   0  0  0  0  0  0  0  0  0  0  0  0
   -6.3398    0.7847    0.3091 H   0  0  0  0  0  0  0  0  0  0  0  0
   -4.3189    1.7539    1.4224 H   0  0  0  0  0  0  0  0  0  0  0  0
   -4.6841    2.1880   -0.2610 H   0  0  0  0  0  0  0  0  0  0  0  0
   -2.7933    3.4623    0.9942 H   0  0  0  0  0  0  0  0  0  0  0  0
   -2.6198    3.0756   -0.6920 H   0  0  0  0  0  0  0  0  0  0  0  0
  1  2  1  0
  2  3  2  0
  3  4  1  0
  4  5  1  0
  4  6  2  0
  6  7  1  0
  7  8  2  0
  8  9  1  0
  9 10  1  0
 10 11  2  0
 11 12  1  0
 12 13  2  0
 13 14  1  0
 14 15  1  0
 15 16  1  0
 16 17  1  0
 17 18  1  0
 18 19  1  0
 19 20  2  0
 20 21  1  0
 21 22  2  0
 22 23  1  0
 23 24  2  0
 18 25  1  0
 25 26  1  0
 13 27  1  0
  8  2  1  0
 27 10  1  0
 26 15  1  0
 24 19  1  0
  1 28  1  0
  1 29  1  0
  1 30  1  0
  3 31  1  0
  6 32  1  0
  7 33  1  0
 12 34  1  0
 14 35  1  0
 14 36  1  0
 16 37  1  0
 16 38  1  0
 17 39  1  0
 17 40  1  0
 20 41  1  0
 21 42  1  0
 22 43  1  0
 23 44  1  0
 24 45  1  0
 25 46  1  0
 25 47  1  0
 26 48  1  0
 26 49  1  0
M  END
$$$$
