
     RDKit          3D

 48 50  0  0  0  0  0  0  0  0999 V2000
   -4.1628    1.3496    0.7329 C   0  0  0  0  0  0  0  0  0  0  0  0
   -3.0842    1.9986   -0.1125 C   0  0  0  0  0  0  0  0  0  0  0  0
   -1.9307    1.1449   -0.1936 O   0  0  0  0  0  0  0  0  0  0  0  0
   -1.0148    1.2829    0.7950 C   0  0  0  0  0  0  0  0  0  0  0  0
   -1.1408    2.0197    1.7667 O   0  0  0  0  0  0  0  0  0  0  0  0
    0.1655    0.3657    0.6295 C   0  0  0  0  0  0  0  0  0  0  0  0
    0.5123   -0.2327   -0.7187 C   0  0  0  0  0  0  0  0  0  0  0  0
    0.2415    0.4895   -2.0176 C   0  0  0  0  0  0  0  0  0  0  0  0
    1.2238    1.9501   -2.1715 S   0  0  0  0  0  6  0  0  0  0  0  0
    1.0911    2.4424   -3.5292 O   0  0  0  0  0  0  0  0  0  0  0  0
    0.8983    2.8076   -1.0462 O   0  0  0  0  0  0  0  0  0  0  0  0
    2.9027    1.4103   -1.9760 C   0  0  0  0  0  0  0  0  0  0  0  0
    3.6453    1.8279   -0.8681 C   0  0  0  0  0  0  0  0  0  0  0  0
    4.9567    1.3791   -0.7159 C   0  0  0  0  0  0  0  0  0  0  0  0
    5.5191    0.5275   -1.6681 C   0  0  0  0  0  0  0  0  0  0  0  0
    4.7773    0.1283   -2.7811 C   0  0  0  0  0  0  0  0  0  0  0  0
    3.4658    0.5731   -2.9429 C   0  0  0  0  0  0  0  0  0  0  0  0
    1.1632   -1.3506   -0.8387 N   0  0  0  0  0  0  0  0  0  0  0  0
    1.5829   -2.0700    0.2438 C   0  0  0  0  0  0  0  0  0  0  0  0
    2.3430   -3.0249    0.1490 O   0  0  0  0  0  0  0  0  0  0  0  0
    1.1223   -1.7074    1.4703 N   0  0  0  0  0  0  0  0  0  0  0  0
    0.0502   -0.7635    1.6534 C   0  0  0  0  0  0  0  0  0  0  0  0
   -1.2973   -1.4720    1.7253 C   0  0  0  0  0  0  0  0  0  0  0  0
   -2.1320   -1.2398    2.8333 C   0  0  0  0  0  0  0  0  0  0  0  0
   -3.3814   -1.8550    2.9336 C   0  0  0  0  0  0  0  0  0  0  0  0
   -3.8185   -2.7120    1.9286 C   0  0  0  0  0  0  0  0  0  0  0  0
   -3.0064   -2.9548    0.8245 C   0  0  0  0  0  0  0  0  0  0  0  0
   -1.7557   -2.3403    0.7218 C   0  0  0  0  0  0  0  0  0  0  0  0
   -5.0735    1.9552    0.7306 H   0  0  0  0  0  0  0  0  0  0  0  0
   -4.4012    0.3508    0.3534 H   0  0  0  0  0  0  0  0  0  0  0  0
   -3.8296    1.2292    1.7680 H   0  0  0  0  0  0  0  0  0  0  0  0
   -3.4504    2.1335   -1.1354 H   0  0  0  0  0  0  0  0  0  0  0  0
   -2.8182    2.9917    0.2673 H   0  0  0  0  0  0  0  0  0  0  0  0
    1.0501    0.9699    0.8796 H   0  0  0  0  0  0  0  0  0  0  0  0
    0.4876   -0.1589   -2.8658 H   0  0  0  0  0  0  0  0  0  0  0  0
   -0.8047    0.7669   -2.1299 H   0  0  0  0  0  0  0  0  0  0  0  0
    3.2217    2.4999   -0.1253 H   0  0  0  0  0  0  0  0  0  0  0  0
    5.5446    1.6941    0.1431 H   0  0  0  0  0  0  0  0  0  0  0  0
    6.5413    0.1768   -1.5454 H   0  0  0  0  0  0  0  0  0  0  0  0
    5.2243   -0.5308   -3.5219 H   0  0  0  0  0  0  0  0  0  0  0  0
    2.9003    0.2645   -3.8188 H   0  0  0  0  0  0  0  0  0  0  0  0
    1.3478   -2.3668    2.2040 H   0  0  0  0  0  0  0  0  0  0  0  0
    0.2427   -0.3320    2.6456 H   0  0  0  0  0  0  0  0  0  0  0  0
   -1.8208   -0.5660    3.6306 H   0  0  0  0  0  0  0  0  0  0  0  0
   -4.0140   -1.6622    3.7967 H   0  0  0  0  0  0  0  0  0  0  0  0
   -4.7901   -3.1930    2.0066 H   0  0  0  0  0  0  0  0  0  0  0  0
   -3.3440   -3.6298    0.0415 H   0  0  0  0  0  0  0  0  0  0  0  0
   -1.1503   -2.5674   -0.1518 H   0  0  0  0  0  0  0  0  0  0  0  0
  1  2  1  0
  2  3  1  0
  3  4  1  0
  4  5  2  0
  4  6  1  0
  6  7  1  0
  7  8  1  0
  8  9  1  0
  9 10  2  0
  9 11  2  0
  9 12  1  0
 12 13  2  0
 13 14  1  0
 14 15  2  0
 15 16  1  0
 16 17  2  0
  7 18  2  0
 18 19  1  0
 19 20  2  0
 19 21  1  0
 21 22  1  0
 22 23  1  0
 23 24  2  0
 24 25  1  0
 25 26  2  0
 26 27  1  0
 27 28  2  0
 22  6  1  0
 28 23  1  0
 17 12  1  0
  1 29  1  0
  1 30  1  0
  1 31  1  0
  2 32  1  0
  2 33  1  0
  6 34  1  0
  8 35  1  0
  8 36  1  0
 13 37  1  0
 14 38  1  0
 15 39  1  0
 16 40  1  0
 17 41  1  0
 21 42  1  0
 22 43  1  0
 24 44  1  0
 25 45  1  0
 26 46  1  0
 27 47  1  0
 28 48  1  0
M  END
$$$$
