
     RDKit          3D

 72 75  0  0  0  0  0  0  0  0999 V2000
   -3.0423    3.2990   -0.9880 C   0  0  0  0  0  0  0  0  0  0  0  0
   -4.0705    2.2314   -0.7519 C   0  0  0  0  0  0  0  0  0  0  0  0
   -5.2372    2.2502   -1.5299 C   0  0  0  0  0  0  0  0  0  0  0  0
   -6.2408    1.2882   -1.3639 C   0  0  0  0  0  0  0  0  0  0  0  0
   -6.1282    0.2623   -0.4120 C   0  0  0  0  0  0  0  0  0  0  0  0
   -7.2485   -0.7796   -0.2559 C   0  0  0  0  0  0  0  0  0  0  0  0
   -6.9655   -1.8459    0.8269 C   0  0  0  0  0  0  0  0  0  0  0  0
   -7.4480   -1.5308   -1.5906 C   0  0  0  0  0  0  0  0  0  0  0  0
   -8.5646   -0.0716    0.1308 C   0  0  0  0  0  0  0  0  0  0  0  0
   -4.9615    0.2461    0.3661 C   0  0  0  0  0  0  0  0  0  0  0  0
   -3.9406    1.2068    0.1972 C   0  0  0  0  0  0  0  0  0  0  0  0
   -2.5151    1.0076    1.2587 S   0  0  0  0  0  6  0  0  0  0  0  0
   -1.5146    2.0147    0.9776 O   0  0  0  0  0  0  0  0  0  0  0  0
   -3.0126    0.8218    2.6070 O   0  0  0  0  0  0  0  0  0  0  0  0
   -1.8700   -0.4922    0.7253 N   0  0  0  0  0  0  0  0  0  0  0  0
   -1.5006   -0.5439   -0.7196 C   0  0  0  0  0  0  0  0  0  0  0  0
   -0.5227   -1.6829   -0.9875 C   0  0  0  0  0  0  0  0  0  0  0  0
    0.8050   -1.4528   -0.2419 C   0  0  0  0  0  0  0  0  0  0  0  0
    1.7376   -0.5488   -1.0613 C   0  0  0  0  0  0  0  0  0  0  0  0
    1.3225    0.0357   -2.0650 O   0  0  0  0  0  0  0  0  0  0  0  0
    3.0454   -0.3924   -0.6329 N   0  0  0  0  0  0  0  0  0  0  0  0
    3.8958    0.5778   -1.3320 C   0  0  0  0  0  0  0  0  0  0  0  0
    5.0300    1.1331   -0.4516 C   0  0  0  0  0  0  0  0  0  0  0  0
    5.8528    0.0535    0.1239 N   0  0  0  0  0  0  0  0  0  0  0  0
    7.1608    0.2830    0.5209 C   0  0  0  0  0  0  0  0  0  0  0  0
    7.6289    1.5754    0.8143 C   0  0  0  0  0  0  0  0  0  0  0  0
    8.9483    1.8130    1.2190 C   0  0  0  0  0  0  0  0  0  0  0  0
    9.8321    0.7538    1.3348 C   0  0  0  0  0  0  0  0  0  0  0  0
   11.1083    1.0241    1.7282 O   0  0  0  0  0  0  0  0  0  0  0  0
    9.4150   -0.5382    1.0544 C   0  0  0  0  0  0  0  0  0  0  0  0
    8.0912   -0.7633    0.6529 C   0  0  0  0  0  0  0  0  0  0  0  0
    5.2278   -1.2702    0.2549 C   0  0  0  0  0  0  0  0  0  0  0  0
    3.7002   -1.1562    0.4357 C   0  0  0  0  0  0  0  0  0  0  0  0
    0.5573   -0.8462    1.1497 C   0  0  0  0  0  0  0  0  0  0  0  0
   -0.8625   -1.0826    1.6445 C   0  0  0  0  0  0  0  0  0  0  0  0
   -2.1083    2.8610   -1.3531 H   0  0  0  0  0  0  0  0  0  0  0  0
   -3.3760    4.0153   -1.7483 H   0  0  0  0  0  0  0  0  0  0  0  0
   -2.8681    3.8742   -0.0740 H   0  0  0  0  0  0  0  0  0  0  0  0
   -5.3818    3.0223   -2.2841 H   0  0  0  0  0  0  0  0  0  0  0  0
   -7.1227    1.3584   -1.9979 H   0  0  0  0  0  0  0  0  0  0  0  0
   -7.7850   -2.5733    0.8877 H   0  0  0  0  0  0  0  0  0  0  0  0
   -6.0509   -2.4103    0.6071 H   0  0  0  0  0  0  0  0  0  0  0  0
   -6.8586   -1.3956    1.8211 H   0  0  0  0  0  0  0  0  0  0  0  0
   -6.5210   -2.0234   -1.9074 H   0  0  0  0  0  0  0  0  0  0  0  0
   -7.7586   -0.8630   -2.4018 H   0  0  0  0  0  0  0  0  0  0  0  0
   -8.2216   -2.3022   -1.4978 H   0  0  0  0  0  0  0  0  0  0  0  0
   -8.9116    0.6110   -0.6525 H   0  0  0  0  0  0  0  0  0  0  0  0
   -8.4417    0.5164    1.0477 H   0  0  0  0  0  0  0  0  0  0  0  0
   -9.3679   -0.7965    0.3042 H   0  0  0  0  0  0  0  0  0  0  0  0
   -4.8113   -0.5214    1.1237 H   0  0  0  0  0  0  0  0  0  0  0  0
   -1.0719    0.4087   -1.0454 H   0  0  0  0  0  0  0  0  0  0  0  0
   -2.4114   -0.7224   -1.3008 H   0  0  0  0  0  0  0  0  0  0  0  0
   -0.9662   -2.6296   -0.6519 H   0  0  0  0  0  0  0  0  0  0  0  0
   -0.3601   -1.7900   -2.0664 H   0  0  0  0  0  0  0  0  0  0  0  0
    1.2818   -2.4353   -0.1514 H   0  0  0  0  0  0  0  0  0  0  0  0
    3.2861    1.4070   -1.7074 H   0  0  0  0  0  0  0  0  0  0  0  0
    4.3174    0.0575   -2.2007 H   0  0  0  0  0  0  0  0  0  0  0  0
    4.6005    1.7254    0.3657 H   0  0  0  0  0  0  0  0  0  0  0  0
    5.6383    1.7979   -1.0761 H   0  0  0  0  0  0  0  0  0  0  0  0
    6.9639    2.4325    0.7577 H   0  0  0  0  0  0  0  0  0  0  0  0
    9.2746    2.8227    1.4478 H   0  0  0  0  0  0  0  0  0  0  0  0
   11.6076    0.1917    1.7503 H   0  0  0  0  0  0  0  0  0  0  0  0
   10.0945   -1.3804    1.1351 H   0  0  0  0  0  0  0  0  0  0  0  0
    7.8073   -1.7851    0.4177 H   0  0  0  0  0  0  0  0  0  0  0  0
    5.6191   -1.8099    1.1251 H   0  0  0  0  0  0  0  0  0  0  0  0
    5.4494   -1.8593   -0.6422 H   0  0  0  0  0  0  0  0  0  0  0  0
    3.4858   -0.6285    1.3726 H   0  0  0  0  0  0  0  0  0  0  0  0
    3.2707   -2.1589    0.5049 H   0  0  0  0  0  0  0  0  0  0  0  0
    1.2548   -1.2890    1.8697 H   0  0  0  0  0  0  0  0  0  0  0  0
    0.7627    0.2323    1.1439 H   0  0  0  0  0  0  0  0  0  0  0  0
   -0.9668   -0.6834    2.6584 H   0  0  0  0  0  0  0  0  0  0  0  0
   -1.0662   -2.1568    1.7282 H   0  0  0  0  0  0  0  0  0  0  0  0
  1  2  1  0
  2  3  2  0
  3  4  1  0
  4  5  2  0
  5  6  1  0
  6  7  1  0
  6  8  1  0
  6  9  1  0
  5 10  1  0
 10 11  2  0
 11 12  1  0
 12 13  2  0
 12 14  2  0
 12 15  1  0
 15 16  1  0
 16 17  1  0
 17 18  1  0
 18 19  1  0
 19 20  2  0
 19 21  1  0
 21 22  1  0
 22 23  1  0
 23 24  1  0
 24 25  1  0
 25 26  2  0
 26 27  1  0
 27 28  2  0
 28 29  1  0
 28 30  1  0
 30 31  2  0
 24 32  1  0
 32 33  1  0
 18 34  1  0
 34 35  1  0
 11  2  1  0
 35 15  1  0
 33 21  1  0
 31 25  1  0
  1 36  1  0
  1 37  1  0
  1 38  1  0
  3 39  1  0
  4 40  1  0
  7 41  1  0
  7 42  1  0
  7 43  1  0
  8 44  1  0
  8 45  1  0
  8 46  1  0
  9 47  1  0
  9 48  1  0
  9 49  1  0
 10 50  1  0
 16 51  1  0
 16 52  1  0
 17 53  1  0
 17 54  1  0
 18 55  1  0
 22 56  1  0
 22 57  1  0
 23 58  1  0
 23 59  1  0
 26 60  1  0
 27 61  1  0
 29 62  1  0
 30 63  1  0
 31 64  1  0
 32 65  1  0
 32 66  1  0
 33 67  1  0
 33 68  1  0
 34 69  1  0
 34 70  1  0
 35 71  1  0
 35 72  1  0
M  END
$$$$
