
     RDKit          3D

 42 44  0  0  0  0  0  0  0  0999 V2000
   -6.6348    0.2124    0.3626 C   0  0  0  0  0  0  0  0  0  0  0  0
   -5.3829    0.6755   -0.2333 N   0  0  0  0  0  0  0  0  0  0  0  0
   -5.5267    1.3894   -1.5011 C   0  0  0  0  0  0  0  0  0  0  0  0
   -4.2202   -0.0746   -0.0089 C   0  0  0  0  0  0  0  0  0  0  0  0
   -4.0994   -0.9490    1.0851 C   0  0  0  0  0  0  0  0  0  0  0  0
   -2.9322   -1.6889    1.3302 C   0  0  0  0  0  0  0  0  0  0  0  0
   -1.8232   -1.5651    0.4969 C   0  0  0  0  0  0  0  0  0  0  0  0
   -0.6420   -2.3986    0.7414 C   0  0  0  0  0  0  0  0  0  0  0  0
    0.6421   -2.0310    0.8937 C   0  0  0  0  0  0  0  0  0  0  0  0
    1.1738   -0.6371    0.9103 C   0  0  0  0  0  0  0  0  0  0  0  0
    0.4358    0.3463    0.9556 O   0  0  0  0  0  0  0  0  0  0  0  0
    2.6485   -0.4363    0.7906 C   0  0  0  0  0  0  0  0  0  0  0  0
    3.0576    0.6647    0.1269 C   0  0  0  0  0  0  0  0  0  0  0  0
    2.2106    1.6228   -0.4064 O   0  0  0  0  0  0  0  0  0  0  0  0
    4.4817    0.9192   -0.0929 C   0  0  0  0  0  0  0  0  0  0  0  0
    4.9674    2.0321   -0.7884 C   0  0  0  0  0  0  0  0  0  0  0  0
    6.3433    2.2202   -0.9640 C   0  0  0  0  0  0  0  0  0  0  0  0
    7.2485    1.2931   -0.4482 C   0  0  0  0  0  0  0  0  0  0  0  0
    6.7793    0.1772    0.2408 C   0  0  0  0  0  0  0  0  0  0  0  0
    5.4042    0.0088    0.4074 C   0  0  0  0  0  0  0  0  0  0  0  0
    4.9807   -1.1251    1.1174 O   0  0  0  0  0  0  0  0  0  0  0  0
    3.6381   -1.3605    1.3830 C   0  0  0  0  0  0  0  0  0  0  0  0
    3.3092   -2.3050    2.0928 O   0  0  0  0  0  0  0  0  0  0  0  0
   -1.9129   -0.7088   -0.5979 C   0  0  0  0  0  0  0  0  0  0  0  0
   -3.0841    0.0298   -0.8317 C   0  0  0  0  0  0  0  0  0  0  0  0
   -7.4676    0.8717    0.0965 H   0  0  0  0  0  0  0  0  0  0  0  0
   -6.5861    0.2204    1.4577 H   0  0  0  0  0  0  0  0  0  0  0  0
   -6.8873   -0.7957    0.0112 H   0  0  0  0  0  0  0  0  0  0  0  0
   -4.7175    2.1130   -1.6510 H   0  0  0  0  0  0  0  0  0  0  0  0
   -6.4551    1.9702   -1.5220 H   0  0  0  0  0  0  0  0  0  0  0  0
   -5.5541    0.6878   -2.3423 H   0  0  0  0  0  0  0  0  0  0  0  0
   -4.9134   -1.0761    1.7909 H   0  0  0  0  0  0  0  0  0  0  0  0
   -2.9046   -2.3535    2.1908 H   0  0  0  0  0  0  0  0  0  0  0  0
   -0.8726   -3.4642    0.8030 H   0  0  0  0  0  0  0  0  0  0  0  0
    1.3578   -2.8366    1.0265 H   0  0  0  0  0  0  0  0  0  0  0  0
    1.3087    1.4945   -0.0252 H   0  0  0  0  0  0  0  0  0  0  0  0
    4.2783    2.7666   -1.2015 H   0  0  0  0  0  0  0  0  0  0  0  0
    6.7055    3.0927   -1.5043 H   0  0  0  0  0  0  0  0  0  0  0  0
    8.3170    1.4433   -0.5831 H   0  0  0  0  0  0  0  0  0  0  0  0
    7.4762   -0.5488    0.6480 H   0  0  0  0  0  0  0  0  0  0  0  0
   -1.0748   -0.5901   -1.2772 H   0  0  0  0  0  0  0  0  0  0  0  0
   -3.0727    0.6931   -1.6917 H   0  0  0  0  0  0  0  0  0  0  0  0
  1  2  1  0
  2  3  1  0
  2  4  1  0
  4  5  2  0
  5  6  1  0
  6  7  2  0
  7  8  1  0
  8  9  2  3
  9 10  1  0
 10 11  2  0
 10 12  1  0
 12 13  2  0
 13 14  1  0
 13 15  1  0
 15 16  2  0
 16 17  1  0
 17 18  2  0
 18 19  1  0
 19 20  2  0
 20 21  1  0
 21 22  1  0
 22 23  2  0
  7 24  1  0
 24 25  2  0
 25  4  1  0
 22 12  1  0
 20 15  1  0
  1 26  1  0
  1 27  1  0
  1 28  1  0
  3 29  1  0
  3 30  1  0
  3 31  1  0
  5 32  1  0
  6 33  1  0
  8 34  1  0
  9 35  1  0
 14 36  1  0
 16 37  1  0
 17 38  1  0
 18 39  1  0
 19 40  1  0
 24 41  1  0
 25 42  1  0
M  END
$$$$
