
     RDKit          3D

 48 53  0  0  0  0  0  0  0  0999 V2000
    2.6359    1.0313    1.9611 O   0  0  0  0  0  0  0  0  0  0  0  0
    3.1325    0.4841    0.9835 C   0  0  0  0  0  0  0  0  0  0  0  0
    2.4812    0.1755   -0.1936 N   0  0  0  0  0  0  0  0  0  0  0  0
    1.1280    0.1814   -0.1963 N   0  0  0  0  0  0  0  0  0  0  0  0
    0.3459   -0.7283    0.4724 C   0  0  0  0  0  0  0  0  0  0  0  0
    0.8658   -1.6336    1.2996 O   0  0  0  0  0  0  0  0  0  0  0  0
   -0.9559   -0.4168    0.1340 C   0  0  0  0  0  0  0  0  0  0  0  0
   -0.8984    0.5834   -0.9113 C   0  0  0  0  0  0  0  0  0  0  0  0
    0.4088    0.9387   -1.0950 C   0  0  0  0  0  0  0  0  0  0  0  0
    0.9611    1.8170   -1.9284 O   0  0  0  0  0  0  0  0  0  0  0  0
   -2.2242    1.0338   -1.4714 C   0  0  0  0  0  0  0  0  0  0  0  0
   -2.9076    1.5155   -0.1751 C   0  0  0  0  0  0  0  0  0  0  0  0
   -3.3908    2.8026    0.0172 C   0  0  0  0  0  0  0  0  0  0  0  0
   -3.9542    3.1260    1.2520 C   0  0  0  0  0  0  0  0  0  0  0  0
   -4.0293    2.1766    2.2794 C   0  0  0  0  0  0  0  0  0  0  0  0
   -3.5429    0.8787    2.1030 C   0  0  0  0  0  0  0  0  0  0  0  0
   -2.9754    0.5400    0.8801 C   0  0  0  0  0  0  0  0  0  0  0  0
   -2.3551   -0.8348    0.5453 C   0  0  0  0  0  0  0  0  0  0  0  0
   -2.9421   -1.2865   -0.8030 C   0  0  0  0  0  0  0  0  0  0  0  0
   -3.5676   -2.5122   -1.0199 C   0  0  0  0  0  0  0  0  0  0  0  0
   -4.0877   -2.7858   -2.2899 C   0  0  0  0  0  0  0  0  0  0  0  0
   -3.9944   -1.8426   -3.3257 C   0  0  0  0  0  0  0  0  0  0  0  0
   -3.3834   -0.5991   -3.1172 C   0  0  0  0  0  0  0  0  0  0  0  0
   -2.8648   -0.3129   -1.8575 C   0  0  0  0  0  0  0  0  0  0  0  0
    4.5512    0.0537    1.0337 C   0  0  0  0  0  0  0  0  0  0  0  0
    5.3986    0.2062   -0.0732 C   0  0  0  0  0  0  0  0  0  0  0  0
    6.7186   -0.2428    0.0013 C   0  0  0  0  0  0  0  0  0  0  0  0
    7.1861   -0.8382    1.1683 C   0  0  0  0  0  0  0  0  0  0  0  0
    8.8053   -1.4056    1.2397 Cl  0  0  0  0  0  0  0  0  0  0  0  0
    6.3504   -0.9851    2.2692 C   0  0  0  0  0  0  0  0  0  0  0  0
    5.0344   -0.5326    2.2072 C   0  0  0  0  0  0  0  0  0  0  0  0
    2.8795   -0.5011   -0.8338 H   0  0  0  0  0  0  0  0  0  0  0  0
    0.1219   -2.1312    1.6717 H   0  0  0  0  0  0  0  0  0  0  0  0
    1.8542    2.0375   -1.5856 H   0  0  0  0  0  0  0  0  0  0  0  0
   -2.1676    1.7684   -2.2759 H   0  0  0  0  0  0  0  0  0  0  0  0
   -3.3208    3.5458   -0.7684 H   0  0  0  0  0  0  0  0  0  0  0  0
   -4.3354    4.1252    1.4236 H   0  0  0  0  0  0  0  0  0  0  0  0
   -4.4692    2.4569    3.2354 H   0  0  0  0  0  0  0  0  0  0  0  0
   -3.6015    0.1621    2.9167 H   0  0  0  0  0  0  0  0  0  0  0  0
   -2.4038   -1.5689    1.3507 H   0  0  0  0  0  0  0  0  0  0  0  0
   -3.6716   -3.2374   -0.2210 H   0  0  0  0  0  0  0  0  0  0  0  0
   -4.5885   -3.7351   -2.4748 H   0  0  0  0  0  0  0  0  0  0  0  0
   -4.4133   -2.0810   -4.3028 H   0  0  0  0  0  0  0  0  0  0  0  0
   -3.3321    0.1209   -3.9239 H   0  0  0  0  0  0  0  0  0  0  0  0
    5.0502    0.6889   -0.9853 H   0  0  0  0  0  0  0  0  0  0  0  0
    7.3764   -0.1322   -0.8574 H   0  0  0  0  0  0  0  0  0  0  0  0
    6.7176   -1.4518    3.1787 H   0  0  0  0  0  0  0  0  0  0  0  0
    4.3741   -0.6544    3.0626 H   0  0  0  0  0  0  0  0  0  0  0  0
  1  2  2  0
  2  3  1  0
  3  4  1  0
  4  5  1  0
  5  6  1  0
  5  7  2  0
  7  8  1  0
  8  9  2  0
  9 10  1  0
  8 11  1  0
 11 12  1  0
 12 13  2  0
 13 14  1  0
 14 15  2  0
 15 16  1  0
 16 17  2  0
 17 18  1  0
 18 19  1  0
 19 20  2  0
 20 21  1  0
 21 22  2  0
 22 23  1  0
 23 24  2  0
  2 25  1  0
 25 26  2  0
 26 27  1  0
 27 28  2  0
 28 29  1  0
 28 30  1  0
 30 31  2  0
  9  4  1  0
 24 11  1  0
 31 25  1  0
 18  7  1  0
 24 19  1  0
 17 12  1  0
  3 32  1  0
  6 33  1  0
 10 34  1  0
 11 35  1  0
 13 36  1  0
 14 37  1  0
 15 38  1  0
 16 39  1  0
 18 40  1  0
 20 41  1  0
 21 42  1  0
 22 43  1  0
 23 44  1  0
 26 45  1  0
 27 46  1  0
 30 47  1  0
 31 48  1  0
M  END
$$$$
