
     RDKit          3D

 59 63  0  0  0  0  0  0  0  0999 V2000
   -5.3042   -2.7746   -1.1752 C   0  0  0  0  0  0  0  0  0  0  0  0
   -4.8140   -1.5754   -0.5926 O   0  0  0  0  0  0  0  0  0  0  0  0
   -4.3862   -1.6308    0.7106 C   0  0  0  0  0  0  0  0  0  0  0  0
   -4.3312   -2.8023    1.4754 C   0  0  0  0  0  0  0  0  0  0  0  0
   -3.8657   -2.7692    2.7936 C   0  0  0  0  0  0  0  0  0  0  0  0
   -3.4505   -1.5685    3.3614 C   0  0  0  0  0  0  0  0  0  0  0  0
   -3.4992   -0.3954    2.6111 C   0  0  0  0  0  0  0  0  0  0  0  0
   -3.9672   -0.4136    1.2867 C   0  0  0  0  0  0  0  0  0  0  0  0
   -3.9842    0.8456    0.5310 C   0  0  0  0  0  0  0  0  0  0  0  0
   -5.4229    1.7676    0.5206 S   0  0  0  0  0  0  0  0  0  0  0  0
   -4.7283    3.0006   -0.4551 C   0  0  0  0  0  0  0  0  0  0  0  0
   -5.3621    4.1744   -0.9101 C   0  0  0  0  0  0  0  0  0  0  0  0
   -4.6419    5.0726   -1.7002 C   0  0  0  0  0  0  0  0  0  0  0  0
   -3.3211    4.8131   -2.0344 C   0  0  0  0  0  0  0  0  0  0  0  0
   -2.6967    3.6475   -1.5809 C   0  0  0  0  0  0  0  0  0  0  0  0
   -3.3985    2.7145   -0.7730 C   0  0  0  0  0  0  0  0  0  0  0  0
   -2.9759    1.4597   -0.1928 C   0  0  0  0  0  0  0  0  0  0  0  0
   -1.6506    0.8646   -0.3113 C   0  0  0  0  0  0  0  0  0  0  0  0
   -1.4425   -0.2386   -1.1424 C   0  0  0  0  0  0  0  0  0  0  0  0
   -0.1682   -0.7998   -1.2499 C   0  0  0  0  0  0  0  0  0  0  0  0
    0.9086   -0.2668   -0.5361 C   0  0  0  0  0  0  0  0  0  0  0  0
    2.0979   -0.9123   -0.7334 O   0  0  0  0  0  0  0  0  0  0  0  0
    3.2373   -0.4084   -0.0290 C   0  0  0  0  0  0  0  0  0  0  0  0
    4.4434   -1.2918   -0.3916 C   0  0  0  0  0  0  0  0  0  0  0  0
    5.6785   -0.9346    0.3294 N   0  0  0  0  0  0  0  0  0  0  0  0
    6.7010   -2.0000    0.1996 C   0  0  0  0  0  0  0  0  0  0  0  0
    7.3698   -2.0629   -1.1843 C   0  0  0  0  0  0  0  0  0  0  0  0
    7.9537   -0.8028   -1.5369 O   0  0  0  0  0  0  0  0  0  0  0  0
    6.9677    0.2360   -1.5165 C   0  0  0  0  0  0  0  0  0  0  0  0
    6.2827    0.3329   -0.1415 C   0  0  0  0  0  0  0  0  0  0  0  0
    0.7010    0.8386    0.2903 C   0  0  0  0  0  0  0  0  0  0  0  0
   -0.5746    1.4040    0.4009 C   0  0  0  0  0  0  0  0  0  0  0  0
   -6.1710   -3.1568   -0.6256 H   0  0  0  0  0  0  0  0  0  0  0  0
   -5.6323   -2.5414   -2.1927 H   0  0  0  0  0  0  0  0  0  0  0  0
   -4.5138   -3.5285   -1.2463 H   0  0  0  0  0  0  0  0  0  0  0  0
   -4.6372   -3.7621    1.0740 H   0  0  0  0  0  0  0  0  0  0  0  0
   -3.8254   -3.6863    3.3762 H   0  0  0  0  0  0  0  0  0  0  0  0
   -3.0864   -1.5448    4.3850 H   0  0  0  0  0  0  0  0  0  0  0  0
   -3.1695    0.5389    3.0596 H   0  0  0  0  0  0  0  0  0  0  0  0
   -6.3976    4.3777   -0.6519 H   0  0  0  0  0  0  0  0  0  0  0  0
   -5.1236    5.9800   -2.0568 H   0  0  0  0  0  0  0  0  0  0  0  0
   -2.7678    5.5152   -2.6532 H   0  0  0  0  0  0  0  0  0  0  0  0
   -1.6624    3.4533   -1.8555 H   0  0  0  0  0  0  0  0  0  0  0  0
   -2.2685   -0.6684   -1.7043 H   0  0  0  0  0  0  0  0  0  0  0  0
   -0.0154   -1.6619   -1.8941 H   0  0  0  0  0  0  0  0  0  0  0  0
    3.4215    0.6274   -0.3333 H   0  0  0  0  0  0  0  0  0  0  0  0
    3.0626   -0.4600    1.0527 H   0  0  0  0  0  0  0  0  0  0  0  0
    4.1626   -2.3235   -0.1373 H   0  0  0  0  0  0  0  0  0  0  0  0
    4.5804   -1.2918   -1.4800 H   0  0  0  0  0  0  0  0  0  0  0  0
    7.4769   -1.7993    0.9500 H   0  0  0  0  0  0  0  0  0  0  0  0
    6.2760   -2.9771    0.4585 H   0  0  0  0  0  0  0  0  0  0  0  0
    8.1750   -2.8048   -1.1695 H   0  0  0  0  0  0  0  0  0  0  0  0
    6.6609   -2.3629   -1.9648 H   0  0  0  0  0  0  0  0  0  0  0  0
    7.4806    1.1777   -1.7378 H   0  0  0  0  0  0  0  0  0  0  0  0
    6.2438    0.0620   -2.3204 H   0  0  0  0  0  0  0  0  0  0  0  0
    7.0423    0.6195    0.5978 H   0  0  0  0  0  0  0  0  0  0  0  0
    5.5509    1.1466   -0.1430 H   0  0  0  0  0  0  0  0  0  0  0  0
    1.5057    1.2841    0.8654 H   0  0  0  0  0  0  0  0  0  0  0  0
   -0.7241    2.2631    1.0510 H   0  0  0  0  0  0  0  0  0  0  0  0
  1  2  1  0
  2  3  1  0
  3  4  2  0
  4  5  1  0
  5  6  2  0
  6  7  1  0
  7  8  2  0
  8  9  1  0
  9 10  1  0
 10 11  1  0
 11 12  2  0
 12 13  1  0
 13 14  2  0
 14 15  1  0
 15 16  2  0
 16 17  1  0
 17 18  1  0
 18 19  2  0
 19 20  1  0
 20 21  2  0
 21 22  1  0
 22 23  1  0
 23 24  1  0
 24 25  1  0
 25 26  1  0
 26 27  1  0
 27 28  1  0
 28 29  1  0
 29 30  1  0
 21 31  1  0
 31 32  2  0
  8  3  1  0
 17  9  2  0
 32 18  1  0
 16 11  1  0
 30 25  1  0
  1 33  1  0
  1 34  1  0
  1 35  1  0
  4 36  1  0
  5 37  1  0
  6 38  1  0
  7 39  1  0
 12 40  1  0
 13 41  1  0
 14 42  1  0
 15 43  1  0
 19 44  1  0
 20 45  1  0
 23 46  1  0
 23 47  1  0
 24 48  1  0
 24 49  1  0
 26 50  1  0
 26 51  1  0
 27 52  1  0
 27 53  1  0
 29 54  1  0
 29 55  1  0
 30 56  1  0
 30 57  1  0
 31 58  1  0
 32 59  1  0
M  END
$$$$
