
     RDKit          3D

 42 44  0  0  0  0  0  0  0  0999 V2000
    4.5323   -1.2400    1.9138 C   0  0  0  0  0  0  0  0  0  0  0  0
    3.3566   -0.2760    1.8994 C   0  0  0  0  0  0  0  0  0  0  0  0
    2.4327   -0.5375    0.7078 C   0  0  0  0  0  0  0  0  0  0  0  0
    1.2448    0.4288    0.7051 C   0  0  0  0  0  0  0  0  0  0  0  0
    0.3393    0.3577   -0.5539 C   0  0  0  0  0  0  0  0  0  0  0  0
   -0.4031   -0.9602   -0.6586 C   0  0  0  0  0  0  0  0  0  0  0  0
   -1.6972   -1.0748   -0.3020 C   0  0  0  0  0  0  0  0  0  0  0  0
   -2.4986   -2.3423   -0.3884 C   0  0  0  0  0  0  0  0  0  0  0  0
   -1.9023   -3.3364   -1.3773 C   0  0  0  0  0  0  0  0  0  0  0  0
   -0.4067   -3.4882   -1.1622 C   0  0  0  0  0  0  0  0  0  0  0  0
    0.2835   -2.1448   -1.2488 C   0  0  0  0  0  0  0  0  0  0  0  0
    1.3954   -2.0366   -1.7605 O   0  0  0  0  0  0  0  0  0  0  0  0
   -2.4358    0.0208    0.1310 O   0  0  0  0  0  0  0  0  0  0  0  0
   -1.9424    1.2945   -0.1252 C   0  0  0  0  0  0  0  0  0  0  0  0
   -0.6584    1.4982   -0.4720 C   0  0  0  0  0  0  0  0  0  0  0  0
   -0.2080    2.8754   -0.8230 C   0  0  0  0  0  0  0  0  0  0  0  0
    0.9507    3.0807   -1.1783 O   0  0  0  0  0  0  0  0  0  0  0  0
   -1.2268    3.9951   -0.8021 C   0  0  0  0  0  0  0  0  0  0  0  0
   -2.3009    3.7468    0.2442 C   0  0  0  0  0  0  0  0  0  0  0  0
   -2.9582    2.3864    0.0423 C   0  0  0  0  0  0  0  0  0  0  0  0
    4.1887   -2.2768    1.9872 H   0  0  0  0  0  0  0  0  0  0  0  0
    5.1324   -1.1403    1.0037 H   0  0  0  0  0  0  0  0  0  0  0  0
    5.1799   -1.0353    2.7721 H   0  0  0  0  0  0  0  0  0  0  0  0
    3.7360    0.7517    1.8592 H   0  0  0  0  0  0  0  0  0  0  0  0
    2.7952   -0.3787    2.8353 H   0  0  0  0  0  0  0  0  0  0  0  0
    3.0008   -0.4263   -0.2231 H   0  0  0  0  0  0  0  0  0  0  0  0
    2.0764   -1.5713    0.7640 H   0  0  0  0  0  0  0  0  0  0  0  0
    0.6425    0.2481    1.6067 H   0  0  0  0  0  0  0  0  0  0  0  0
    1.6418    1.4473    0.8075 H   0  0  0  0  0  0  0  0  0  0  0  0
    0.9451    0.4934   -1.4589 H   0  0  0  0  0  0  0  0  0  0  0  0
   -3.5266   -2.1163   -0.6959 H   0  0  0  0  0  0  0  0  0  0  0  0
   -2.5528   -2.7921    0.6103 H   0  0  0  0  0  0  0  0  0  0  0  0
   -2.3992   -4.3077   -1.2761 H   0  0  0  0  0  0  0  0  0  0  0  0
   -2.0898   -2.9853   -2.4006 H   0  0  0  0  0  0  0  0  0  0  0  0
   -0.1863   -3.9284   -0.1836 H   0  0  0  0  0  0  0  0  0  0  0  0
    0.0061   -4.1453   -1.9353 H   0  0  0  0  0  0  0  0  0  0  0  0
   -0.7092    4.9326   -0.5719 H   0  0  0  0  0  0  0  0  0  0  0  0
   -1.6652    4.0780   -1.8027 H   0  0  0  0  0  0  0  0  0  0  0  0
   -1.8512    3.7873    1.2451 H   0  0  0  0  0  0  0  0  0  0  0  0
   -3.0582    4.5376    0.2018 H   0  0  0  0  0  0  0  0  0  0  0  0
   -3.5979    2.1727    0.9067 H   0  0  0  0  0  0  0  0  0  0  0  0
   -3.6052    2.4077   -0.8428 H   0  0  0  0  0  0  0  0  0  0  0  0
  1  2  1  0
  2  3  1  0
  3  4  1  0
  4  5  1  0
  5  6  1  0
  6  7  2  0
  7  8  1  0
  8  9  1  0
  9 10  1  0
 10 11  1  0
 11 12  2  0
  7 13  1  0
 13 14  1  0
 14 15  2  0
 15 16  1  0
 16 17  2  0
 16 18  1  0
 18 19  1  0
 19 20  1  0
 15  5  1  0
 11  6  1  0
 20 14  1  0
  1 21  1  0
  1 22  1  0
  1 23  1  0
  2 24  1  0
  2 25  1  0
  3 26  1  0
  3 27  1  0
  4 28  1  0
  4 29  1  0
  5 30  1  0
  8 31  1  0
  8 32  1  0
  9 33  1  0
  9 34  1  0
 10 35  1  0
 10 36  1  0
 18 37  1  0
 18 38  1  0
 19 39  1  0
 19 40  1  0
 20 41  1  0
 20 42  1  0
M  END
$$$$
