
     RDKit          3D

 65 68  0  0  0  0  0  0  0  0999 V2000
   -7.8814    1.7234   -2.3849 C   0  0  0  0  0  0  0  0  0  0  0  0
   -7.3537    0.8750   -1.2662 C   0  0  0  0  0  0  0  0  0  0  0  0
   -6.0228    0.4478   -1.2684 C   0  0  0  0  0  0  0  0  0  0  0  0
   -5.5232   -0.3175   -0.2129 C   0  0  0  0  0  0  0  0  0  0  0  0
   -6.3439   -0.6601    0.8687 C   0  0  0  0  0  0  0  0  0  0  0  0
   -5.7899   -1.4684    2.0192 C   0  0  0  0  0  0  0  0  0  0  0  0
   -5.5335   -0.6229    3.2722 C   0  0  0  0  0  0  0  0  0  0  0  0
   -4.6002    0.4659    3.0454 N   0  0  0  0  0  0  0  0  0  0  0  0
   -3.2481    0.2323    2.9176 C   0  0  0  0  0  0  0  0  0  0  0  0
   -2.7338   -0.8630    3.1032 O   0  0  0  0  0  0  0  0  0  0  0  0
   -2.4688    1.4775    2.5450 C   0  0  0  0  0  0  0  0  0  0  0  0
   -1.0207    1.1977    2.1493 C   0  0  0  0  0  0  0  0  0  0  0  0
   -0.9151    0.4552    0.8146 C   0  0  0  0  0  0  0  0  0  0  0  0
    0.4464    0.4982    0.2882 N   0  0  0  0  0  0  0  0  0  0  0  0
    0.7687    1.6483   -0.4448 N   0  0  0  0  0  0  0  0  0  0  0  0
    1.9642    1.8203   -0.9353 C   0  0  0  0  0  0  0  0  0  0  0  0
    2.2374    3.0708   -1.7223 C   0  0  0  0  0  0  0  0  0  0  0  0
    2.9766    0.8197   -0.7052 C   0  0  0  0  0  0  0  0  0  0  0  0
    4.3214    0.7157   -1.0209 C   0  0  0  0  0  0  0  0  0  0  0  0
    5.2411    1.7186   -1.6168 C   0  0  0  0  0  0  0  0  0  0  0  0
    4.7028   -0.5637   -0.5969 N   0  0  0  0  0  0  0  0  0  0  0  0
    5.8953   -1.3113   -0.8490 C   0  0  0  0  0  0  0  0  0  0  0  0
    6.1799   -2.4261   -0.0431 C   0  0  0  0  0  0  0  0  0  0  0  0
    7.3312   -3.1892   -0.2591 C   0  0  0  0  0  0  0  0  0  0  0  0
    8.2170   -2.8596   -1.2881 C   0  0  0  0  0  0  0  0  0  0  0  0
    9.4299   -3.7037   -1.5441 C   0  0  0  0  0  0  0  0  0  0  0  0
    7.9147   -1.7753   -2.1177 C   0  0  0  0  0  0  0  0  0  0  0  0
    6.7631   -1.0071   -1.9031 C   0  0  0  0  0  0  0  0  0  0  0  0
    3.7300   -1.1302    0.1666 N   0  0  0  0  0  0  0  0  0  0  0  0
    2.6719   -0.3273    0.0351 C   0  0  0  0  0  0  0  0  0  0  0  0
    1.3454   -0.5441    0.6000 C   0  0  0  0  0  0  0  0  0  0  0  0
    1.0479   -1.5279    1.2722 O   0  0  0  0  0  0  0  0  0  0  0  0
   -7.6725   -0.2217    0.8766 C   0  0  0  0  0  0  0  0  0  0  0  0
   -8.1711    0.5442   -0.1797 C   0  0  0  0  0  0  0  0  0  0  0  0
   -8.9486    1.5391   -2.5459 H   0  0  0  0  0  0  0  0  0  0  0  0
   -7.3680    1.4956   -3.3246 H   0  0  0  0  0  0  0  0  0  0  0  0
   -7.7362    2.7823   -2.1507 H   0  0  0  0  0  0  0  0  0  0  0  0
   -5.3657    0.7024   -2.0970 H   0  0  0  0  0  0  0  0  0  0  0  0
   -4.4873   -0.6457   -0.2398 H   0  0  0  0  0  0  0  0  0  0  0  0
   -6.4974   -2.2708    2.2597 H   0  0  0  0  0  0  0  0  0  0  0  0
   -4.8647   -1.9675    1.7068 H   0  0  0  0  0  0  0  0  0  0  0  0
   -6.4625   -0.1724    3.6373 H   0  0  0  0  0  0  0  0  0  0  0  0
   -5.1342   -1.2621    4.0675 H   0  0  0  0  0  0  0  0  0  0  0  0
   -4.9779    1.3189    2.6519 H   0  0  0  0  0  0  0  0  0  0  0  0
   -2.4774    2.1387    3.4197 H   0  0  0  0  0  0  0  0  0  0  0  0
   -2.9849    1.9962    1.7284 H   0  0  0  0  0  0  0  0  0  0  0  0
   -0.4982    2.1597    2.0733 H   0  0  0  0  0  0  0  0  0  0  0  0
   -0.5068    0.6266    2.9320 H   0  0  0  0  0  0  0  0  0  0  0  0
   -1.2275   -0.5880    0.9275 H   0  0  0  0  0  0  0  0  0  0  0  0
   -1.5729    0.9113    0.0653 H   0  0  0  0  0  0  0  0  0  0  0  0
    2.7536    2.8278   -2.6545 H   0  0  0  0  0  0  0  0  0  0  0  0
    2.8520    3.7502   -1.1254 H   0  0  0  0  0  0  0  0  0  0  0  0
    1.2987    3.5773   -1.9673 H   0  0  0  0  0  0  0  0  0  0  0  0
    5.2383    1.6470   -2.7077 H   0  0  0  0  0  0  0  0  0  0  0  0
    6.2631    1.6114   -1.2436 H   0  0  0  0  0  0  0  0  0  0  0  0
    4.9379    2.7336   -1.3468 H   0  0  0  0  0  0  0  0  0  0  0  0
    5.5136   -2.7135    0.7702 H   0  0  0  0  0  0  0  0  0  0  0  0
    7.5257   -4.0457    0.3829 H   0  0  0  0  0  0  0  0  0  0  0  0
   10.2369   -3.1059   -1.9802 H   0  0  0  0  0  0  0  0  0  0  0  0
    9.1810   -4.5178   -2.2319 H   0  0  0  0  0  0  0  0  0  0  0  0
    9.8116   -4.1330   -0.6115 H   0  0  0  0  0  0  0  0  0  0  0  0
    8.5691   -1.5275   -2.9512 H   0  0  0  0  0  0  0  0  0  0  0  0
    6.5581   -0.2157   -2.6133 H   0  0  0  0  0  0  0  0  0  0  0  0
   -8.3302   -0.4734    1.7052 H   0  0  0  0  0  0  0  0  0  0  0  0
   -9.2053    0.8770   -0.1516 H   0  0  0  0  0  0  0  0  0  0  0  0
  1  2  1  0
  2  3  2  0
  3  4  1  0
  4  5  2  0
  5  6  1  0
  6  7  1  0
  7  8  1  0
  8  9  1  0
  9 10  2  0
  9 11  1  0
 11 12  1  0
 12 13  1  0
 13 14  1  0
 14 15  1  0
 15 16  2  0
 16 17  1  0
 16 18  1  0
 18 19  2  0
 19 20  1  0
 19 21  1  0
 21 22  1  0
 22 23  2  0
 23 24  1  0
 24 25  2  0
 25 26  1  0
 25 27  1  0
 27 28  2  0
 21 29  1  0
 29 30  2  0
 30 31  1  0
 31 32  2  0
  5 33  1  0
 33 34  2  0
 34  2  1  0
 31 14  1  0
 30 18  1  0
 28 22  1  0
  1 35  1  0
  1 36  1  0
  1 37  1  0
  3 38  1  0
  4 39  1  0
  6 40  1  0
  6 41  1  0
  7 42  1  0
  7 43  1  0
  8 44  1  0
 11 45  1  0
 11 46  1  0
 12 47  1  0
 12 48  1  0
 13 49  1  0
 13 50  1  0
 17 51  1  0
 17 52  1  0
 17 53  1  0
 20 54  1  0
 20 55  1  0
 20 56  1  0
 23 57  1  0
 24 58  1  0
 26 59  1  0
 26 60  1  0
 26 61  1  0
 27 62  1  0
 28 63  1  0
 33 64  1  0
 34 65  1  0
M  END
$$$$
