
     RDKit          3D

 46 50  0  0  0  0  0  0  0  0999 V2000
   -7.7496    0.8479   -0.2439 C   0  0  0  0  0  0  0  0  0  0  0  0
   -6.2718    0.8424    0.0478 C   0  0  0  0  0  0  0  0  0  0  0  0
   -5.6757    2.0227    0.5370 C   0  0  0  0  0  0  0  0  0  0  0  0
   -4.3013    2.0432    0.8125 C   0  0  0  0  0  0  0  0  0  0  0  0
   -3.5200    3.0765    1.2914 N   0  0  0  0  0  0  0  0  0  0  0  0
   -2.3307    2.5474    1.3560 C   0  0  0  0  0  0  0  0  0  0  0  0
   -0.8045    3.1645    1.8422 S   0  0  0  0  0  0  0  0  0  0  0  0
   -0.0573    1.5960    1.5164 C   0  0  0  0  0  0  0  0  0  0  0  0
    1.2588    1.4285    1.7102 C   0  0  0  0  0  0  0  0  0  0  0  0
    2.0067    0.2392    1.5031 C   0  0  0  0  0  0  0  0  0  0  0  0
    1.7234   -1.0991    1.7461 C   0  0  0  0  0  0  0  0  0  0  0  0
    2.8600   -1.8639    1.3856 C   0  0  0  0  0  0  0  0  0  0  0  0
    3.8021   -0.9652    0.9444 C   0  0  0  0  0  0  0  0  0  0  0  0
    5.1777   -1.0769    0.4772 C   0  0  0  0  0  0  0  0  0  0  0  0
    6.0455   -1.9610    1.1433 C   0  0  0  0  0  0  0  0  0  0  0  0
    7.3929   -2.0604    0.7822 C   0  0  0  0  0  0  0  0  0  0  0  0
    7.9000   -1.2749   -0.2491 C   0  0  0  0  0  0  0  0  0  0  0  0
    7.0559   -0.4009   -0.9315 C   0  0  0  0  0  0  0  0  0  0  0  0
    5.6981   -0.3146   -0.5839 C   0  0  0  0  0  0  0  0  0  0  0  0
    4.8723    0.5925   -1.4024 C   0  0  0  0  0  0  0  0  0  0  0  0
    5.1472    1.7407   -1.6959 O   0  0  0  0  0  0  0  0  0  0  0  0
    3.8053   -0.0433   -1.9169 O   0  0  0  0  0  0  0  0  0  0  0  0
    3.3042    0.2976    1.0412 O   0  0  0  0  0  0  0  0  0  0  0  0
   -1.0618    0.6115    1.0007 C   0  0  0  0  0  0  0  0  0  0  0  0
   -0.9404   -0.5449    0.6476 O   0  0  0  0  0  0  0  0  0  0  0  0
   -2.2812    1.2539    0.9614 N   0  0  0  0  0  0  0  0  0  0  0  0
   -3.5505    0.8852    0.5937 C   0  0  0  0  0  0  0  0  0  0  0  0
   -4.1056   -0.3023    0.1075 C   0  0  0  0  0  0  0  0  0  0  0  0
   -5.4865   -0.3121   -0.1694 C   0  0  0  0  0  0  0  0  0  0  0  0
   -6.1049   -1.5828   -0.6948 C   0  0  0  0  0  0  0  0  0  0  0  0
   -8.2555    0.0673    0.3330 H   0  0  0  0  0  0  0  0  0  0  0  0
   -7.9254    0.6869   -1.3121 H   0  0  0  0  0  0  0  0  0  0  0  0
   -8.2093    1.8042    0.0275 H   0  0  0  0  0  0  0  0  0  0  0  0
   -6.2595    2.9220    0.7066 H   0  0  0  0  0  0  0  0  0  0  0  0
    1.8572    2.2821    2.0239 H   0  0  0  0  0  0  0  0  0  0  0  0
    0.7990   -1.4911    2.1477 H   0  0  0  0  0  0  0  0  0  0  0  0
    2.9726   -2.9372    1.4416 H   0  0  0  0  0  0  0  0  0  0  0  0
    5.6826   -2.5662    1.9720 H   0  0  0  0  0  0  0  0  0  0  0  0
    8.0484   -2.7437    1.3173 H   0  0  0  0  0  0  0  0  0  0  0  0
    8.9498   -1.3443   -0.5237 H   0  0  0  0  0  0  0  0  0  0  0  0
    7.4511    0.2068   -1.7434 H   0  0  0  0  0  0  0  0  0  0  0  0
    3.3500    0.6417   -2.4472 H   0  0  0  0  0  0  0  0  0  0  0  0
   -3.4887   -1.1832   -0.0519 H   0  0  0  0  0  0  0  0  0  0  0  0
   -6.5844   -1.4018   -1.6620 H   0  0  0  0  0  0  0  0  0  0  0  0
   -6.8440   -1.9664    0.0155 H   0  0  0  0  0  0  0  0  0  0  0  0
   -5.3523   -2.3644   -0.8442 H   0  0  0  0  0  0  0  0  0  0  0  0
  1  2  1  0
  2  3  2  0
  3  4  1  0
  4  5  1  0
  5  6  2  0
  6  7  1  0
  7  8  1  0
  8  9  2  3
  9 10  1  0
 10 11  2  0
 11 12  1  0
 12 13  2  0
 13 14  1  0
 14 15  2  0
 15 16  1  0
 16 17  2  0
 17 18  1  0
 18 19  2  0
 19 20  1  0
 20 21  2  0
 20 22  1  0
 13 23  1  0
  8 24  1  0
 24 25  2  0
 24 26  1  0
 26 27  1  0
 27 28  1  0
 28 29  2  0
 29 30  1  0
 29  2  1  0
 27  4  2  0
 26  6  1  0
 23 10  1  0
 19 14  1  0
  1 31  1  0
  1 32  1  0
  1 33  1  0
  3 34  1  0
  9 35  1  0
 11 36  1  0
 12 37  1  0
 15 38  1  0
 16 39  1  0
 17 40  1  0
 18 41  1  0
 22 42  1  0
 28 43  1  0
 30 44  1  0
 30 45  1  0
 30 46  1  0
M  END
$$$$
