
     RDKit          3D

 39 41  0  0  0  0  0  0  0  0999 V2000
   -2.1313   -1.8987   -1.8105 C   0  0  0  0  0  0  0  0  0  0  0  0
   -2.7634   -0.8376   -0.9494 C   0  0  0  0  0  0  0  0  0  0  0  0
   -4.1624   -0.7086   -1.0409 C   0  0  0  0  0  0  0  0  0  0  0  0
   -4.8380    0.3050   -0.3709 C   0  0  0  0  0  0  0  0  0  0  0  0
   -4.1247    1.2133    0.4008 C   0  0  0  0  0  0  0  0  0  0  0  0
   -2.7313    1.0993    0.5387 C   0  0  0  0  0  0  0  0  0  0  0  0
   -2.0270    2.1049    1.4125 C   0  0  0  0  0  0  0  0  0  0  0  0
   -2.0450    0.0405   -0.1086 C   0  0  0  0  0  0  0  0  0  0  0  0
   -0.6402   -0.0372    0.0750 N   0  0  0  0  0  0  0  0  0  0  0  0
    0.0837   -1.1959    0.2725 C   0  0  0  0  0  0  0  0  0  0  0  0
   -0.3962   -2.3212    0.3922 O   0  0  0  0  0  0  0  0  0  0  0  0
    1.6028   -1.0207    0.3167 C   0  0  0  0  0  0  0  0  0  0  0  0
    2.2317   -0.7986   -1.0711 C   0  0  0  0  0  0  0  0  0  0  0  0
    3.2004    0.3738   -0.8281 C   0  0  0  0  0  0  0  0  0  0  0  0
    4.3217   -0.0692    0.1309 C   0  0  0  0  0  0  0  0  0  0  0  0
    3.6113   -0.1356    1.4944 C   0  0  0  0  0  0  0  0  0  0  0  0
    2.1474    0.1808    1.1288 C   0  0  0  0  0  0  0  0  0  0  0  0
    2.3600    1.2727    0.0713 C   0  0  0  0  0  0  0  0  0  0  0  0
   -2.6902   -2.0136   -2.7470 H   0  0  0  0  0  0  0  0  0  0  0  0
   -1.1126   -1.6320   -2.1059 H   0  0  0  0  0  0  0  0  0  0  0  0
   -2.1362   -2.8642   -1.2972 H   0  0  0  0  0  0  0  0  0  0  0  0
   -4.7324   -1.3966   -1.6627 H   0  0  0  0  0  0  0  0  0  0  0  0
   -5.9171    0.3934   -0.4627 H   0  0  0  0  0  0  0  0  0  0  0  0
   -4.6670    2.0090    0.9072 H   0  0  0  0  0  0  0  0  0  0  0  0
   -1.3220    2.6954    0.8184 H   0  0  0  0  0  0  0  0  0  0  0  0
   -1.4933    1.5985    2.2234 H   0  0  0  0  0  0  0  0  0  0  0  0
   -2.7317    2.8045    1.8750 H   0  0  0  0  0  0  0  0  0  0  0  0
   -0.2142    0.7891    0.4633 H   0  0  0  0  0  0  0  0  0  0  0  0
    1.9883   -1.9536    0.7512 H   0  0  0  0  0  0  0  0  0  0  0  0
    1.4793   -0.5300   -1.8215 H   0  0  0  0  0  0  0  0  0  0  0  0
    2.7553   -1.6934   -1.4237 H   0  0  0  0  0  0  0  0  0  0  0  0
    3.5659    0.8347   -1.7477 H   0  0  0  0  0  0  0  0  0  0  0  0
    5.1261    0.6740    0.1633 H   0  0  0  0  0  0  0  0  0  0  0  0
    4.7562   -1.0328   -0.1537 H   0  0  0  0  0  0  0  0  0  0  0  0
    3.7323   -1.1108    1.9763 H   0  0  0  0  0  0  0  0  0  0  0  0
    4.0165    0.6280    2.1685 H   0  0  0  0  0  0  0  0  0  0  0  0
    1.5364    0.4719    1.9858 H   0  0  0  0  0  0  0  0  0  0  0  0
    2.9128    2.1381    0.4532 H   0  0  0  0  0  0  0  0  0  0  0  0
    1.4481    1.6233   -0.4178 H   0  0  0  0  0  0  0  0  0  0  0  0
  1  2  1  0
  2  3  2  0
  3  4  1  0
  4  5  2  0
  5  6  1  0
  6  7  1  0
  6  8  2  0
  8  9  1  0
  9 10  1  0
 10 11  2  0
 10 12  1  0
 12 13  1  0
 13 14  1  0
 14 15  1  0
 15 16  1  0
 16 17  1  0
 17 18  1  0
  8  2  1  0
 17 12  1  0
 18 14  1  0
  1 19  1  0
  1 20  1  0
  1 21  1  0
  3 22  1  0
  4 23  1  0
  5 24  1  0
  7 25  1  0
  7 26  1  0
  7 27  1  0
  9 28  1  0
 12 29  1  0
 13 30  1  0
 13 31  1  0
 14 32  1  0
 15 33  1  0
 15 34  1  0
 16 35  1  0
 16 36  1  0
 17 37  1  0
 18 38  1  0
 18 39  1  0
M  END
$$$$
