
     RDKit          3D

 79 86  0  0  0  0  0  0  0  0999 V2000
    2.9937   -6.6676    2.7807 C   0  0  0  0  0  0  0  0  0  0  0  0
    2.0757   -5.5902    2.8891 O   0  0  0  0  0  0  0  0  0  0  0  0
    2.0672   -4.6682    1.8745 C   0  0  0  0  0  0  0  0  0  0  0  0
    3.0109   -4.6070    0.8398 C   0  0  0  0  0  0  0  0  0  0  0  0
    2.9593   -3.5896   -0.1270 C   0  0  0  0  0  0  0  0  0  0  0  0
    1.9378   -2.6382   -0.1026 C   0  0  0  0  0  0  0  0  0  0  0  0
    0.9506   -2.7585    0.8770 C   0  0  0  0  0  0  0  0  0  0  0  0
    1.0426   -3.7125    1.9103 C   0  0  0  0  0  0  0  0  0  0  0  0
    0.1785   -3.7357    3.0079 O   0  0  0  0  0  0  0  0  0  0  0  0
   -0.6585   -2.6472    3.1274 C   0  0  0  0  0  0  0  0  0  0  0  0
   -1.9872   -2.8118    2.7521 C   0  0  0  0  0  0  0  0  0  0  0  0
   -2.7374   -1.6822    2.4428 C   0  0  0  0  0  0  0  0  0  0  0  0
   -2.1436   -0.4085    2.4853 C   0  0  0  0  0  0  0  0  0  0  0  0
   -0.8760   -0.2546    3.0630 C   0  0  0  0  0  0  0  0  0  0  0  0
   -0.1357   -1.3814    3.4120 C   0  0  0  0  0  0  0  0  0  0  0  0
   -2.7747    0.7461    1.7286 C   0  0  0  0  0  0  0  0  0  0  0  0
   -2.7189    0.4855    0.1838 C   0  0  0  0  0  0  0  0  0  0  0  0
   -2.5169    1.7754   -0.5998 C   0  0  0  0  0  0  0  0  0  0  0  0
   -3.6538    2.5766   -0.8438 C   0  0  0  0  0  0  0  0  0  0  0  0
   -3.5456    3.7863   -1.5362 C   0  0  0  0  0  0  0  0  0  0  0  0
   -2.3133    4.1814   -2.0536 C   0  0  0  0  0  0  0  0  0  0  0  0
   -2.1002    5.3314   -2.7704 O   0  0  0  0  0  0  0  0  0  0  0  0
   -3.2407    6.0869   -3.1491 C   0  0  0  0  0  0  0  0  0  0  0  0
   -1.1873    3.3642   -1.8460 C   0  0  0  0  0  0  0  0  0  0  0  0
   -1.2694    2.1836   -1.1003 C   0  0  0  0  0  0  0  0  0  0  0  0
   -0.1551    1.4026   -0.8603 O   0  0  0  0  0  0  0  0  0  0  0  0
    1.0360    1.8315   -1.4110 C   0  0  0  0  0  0  0  0  0  0  0  0
    1.0793    2.9791   -2.2055 C   0  0  0  0  0  0  0  0  0  0  0  0
    2.2681    3.4148   -2.7859 C   0  0  0  0  0  0  0  0  0  0  0  0
    3.4475    2.7271   -2.5343 C   0  0  0  0  0  0  0  0  0  0  0  0
    3.4417    1.6023   -1.6971 C   0  0  0  0  0  0  0  0  0  0  0  0
    2.2287    1.1252   -1.1416 C   0  0  0  0  0  0  0  0  0  0  0  0
    2.2589   -0.0957   -0.2256 C   0  0  0  0  0  0  0  0  0  0  0  0
    1.9359   -1.4159   -1.0076 C   0  0  0  0  0  0  0  0  0  0  0  0
    3.5404   -0.2140    0.5242 N   0  0  0  0  0  0  0  0  0  0  0  0
    3.6514    0.7795    1.5890 C   0  0  0  0  0  0  0  0  0  0  0  0
    4.6934   -0.2058   -0.3794 C   0  0  0  0  0  0  0  0  0  0  0  0
    4.7748    1.0072   -1.3116 C   0  0  0  0  0  0  0  0  0  0  0  0
   -0.0157    3.7643   -2.4364 O   0  0  0  0  0  0  0  0  0  0  0  0
   -4.9887    2.0418   -0.3944 C   0  0  0  0  0  0  0  0  0  0  0  0
   -5.0403    0.5562   -0.7712 C   0  0  0  0  0  0  0  0  0  0  0  0
   -3.9399   -0.2662   -0.2327 N   0  0  0  0  0  0  0  0  0  0  0  0
   -3.6116   -1.3557   -1.1548 C   0  0  0  0  0  0  0  0  0  0  0  0
    2.8522   -7.2227    1.8469 H   0  0  0  0  0  0  0  0  0  0  0  0
    4.0251   -6.3152    2.8822 H   0  0  0  0  0  0  0  0  0  0  0  0
    2.7979   -7.3576    3.6071 H   0  0  0  0  0  0  0  0  0  0  0  0
    3.8352   -5.3109    0.7823 H   0  0  0  0  0  0  0  0  0  0  0  0
    3.7473   -3.5297   -0.8723 H   0  0  0  0  0  0  0  0  0  0  0  0
    0.1390   -2.0391    0.8500 H   0  0  0  0  0  0  0  0  0  0  0  0
   -2.3874   -3.8034    2.5721 H   0  0  0  0  0  0  0  0  0  0  0  0
   -3.7385   -1.8073    2.0379 H   0  0  0  0  0  0  0  0  0  0  0  0
   -0.4137    0.7264    3.1340 H   0  0  0  0  0  0  0  0  0  0  0  0
    0.8943   -1.2769    3.7398 H   0  0  0  0  0  0  0  0  0  0  0  0
   -3.8035    0.8816    2.0825 H   0  0  0  0  0  0  0  0  0  0  0  0
   -2.2452    1.6751    1.9793 H   0  0  0  0  0  0  0  0  0  0  0  0
   -1.8440   -0.1497   -0.0090 H   0  0  0  0  0  0  0  0  0  0  0  0
   -4.4401    4.3812   -1.6847 H   0  0  0  0  0  0  0  0  0  0  0  0
   -2.8987    6.9208   -3.7700 H   0  0  0  0  0  0  0  0  0  0  0  0
   -3.9316    5.4846   -3.7470 H   0  0  0  0  0  0  0  0  0  0  0  0
   -3.7391    6.5138   -2.2753 H   0  0  0  0  0  0  0  0  0  0  0  0
    2.2752    4.3083   -3.4041 H   0  0  0  0  0  0  0  0  0  0  0  0
    4.3819    3.0939   -2.9545 H   0  0  0  0  0  0  0  0  0  0  0  0
    1.4673    0.0307    0.5246 H   0  0  0  0  0  0  0  0  0  0  0  0
    2.6374   -1.5642   -1.8386 H   0  0  0  0  0  0  0  0  0  0  0  0
    0.9439   -1.3334   -1.4747 H   0  0  0  0  0  0  0  0  0  0  0  0
    2.8120    0.6829    2.2906 H   0  0  0  0  0  0  0  0  0  0  0  0
    3.6704    1.8129    1.2200 H   0  0  0  0  0  0  0  0  0  0  0  0
    4.5620    0.6099    2.1739 H   0  0  0  0  0  0  0  0  0  0  0  0
    4.6847   -1.1232   -0.9847 H   0  0  0  0  0  0  0  0  0  0  0  0
    5.6267   -0.2741    0.1971 H   0  0  0  0  0  0  0  0  0  0  0  0
    5.3453    1.7945   -0.7997 H   0  0  0  0  0  0  0  0  0  0  0  0
    5.3290    0.7329   -2.2174 H   0  0  0  0  0  0  0  0  0  0  0  0
   -5.1116    2.1916    0.6824 H   0  0  0  0  0  0  0  0  0  0  0  0
   -5.8085    2.5694   -0.8962 H   0  0  0  0  0  0  0  0  0  0  0  0
   -5.9926    0.1296   -0.4361 H   0  0  0  0  0  0  0  0  0  0  0  0
   -5.0435    0.5028   -1.8694 H   0  0  0  0  0  0  0  0  0  0  0  0
   -3.1612   -0.9891   -2.0840 H   0  0  0  0  0  0  0  0  0  0  0  0
   -4.5114   -1.9273   -1.4070 H   0  0  0  0  0  0  0  0  0  0  0  0
   -2.9184   -2.0617   -0.6873 H   0  0  0  0  0  0  0  0  0  0  0  0
  1  2  1  0
  2  3  1  0
  3  4  2  0
  4  5  1  0
  5  6  2  0
  6  7  1  0
  7  8  2  0
  8  9  1  0
  9 10  1  0
 10 11  2  0
 11 12  1  0
 12 13  2  0
 13 14  1  0
 14 15  2  0
 13 16  1  0
 16 17  1  0
 17 18  1  0
 18 19  2  0
 19 20  1  0
 20 21  2  0
 21 22  1  0
 22 23  1  0
 21 24  1  0
 24 25  2  0
 25 26  1  0
 26 27  1  0
 27 28  2  0
 28 29  1  0
 29 30  2  0
 30 31  1  0
 31 32  2  0
 32 33  1  0
 33 34  1  0
 33 35  1  0
 35 36  1  0
 35 37  1  0
 37 38  1  0
 28 39  1  0
 19 40  1  0
 40 41  1  0
 41 42  1  0
 42 43  1  0
  8  3  1  0
 15 10  1  0
 42 17  1  0
 34  6  1  0
 25 18  1  0
 32 27  1  0
 39 24  1  0
 38 31  1  0
  1 44  1  0
  1 45  1  0
  1 46  1  0
  4 47  1  0
  5 48  1  0
  7 49  1  0
 11 50  1  0
 12 51  1  0
 14 52  1  0
 15 53  1  0
 16 54  1  0
 16 55  1  0
 17 56  1  0
 20 57  1  0
 23 58  1  0
 23 59  1  0
 23 60  1  0
 29 61  1  0
 30 62  1  0
 33 63  1  0
 34 64  1  0
 34 65  1  0
 36 66  1  0
 36 67  1  0
 36 68  1  0
 37 69  1  0
 37 70  1  0
 38 71  1  0
 38 72  1  0
 40 73  1  0
 40 74  1  0
 41 75  1  0
 41 76  1  0
 43 77  1  0
 43 78  1  0
 43 79  1  0
M  END
$$$$
