
     RDKit          3D

 62 64  0  0  0  0  0  0  0  0999 V2000
    8.6473    3.8635    1.2027 C   0  0  0  0  0  0  0  0  0  0  0  0
    7.4998    3.7545    2.0352 O   0  0  0  0  0  0  0  0  0  0  0  0
    6.3429    3.3378    1.4365 C   0  0  0  0  0  0  0  0  0  0  0  0
    6.2031    2.9390    0.1065 C   0  0  0  0  0  0  0  0  0  0  0  0
    4.9556    2.5315   -0.3790 C   0  0  0  0  0  0  0  0  0  0  0  0
    3.8314    2.5230    0.4563 C   0  0  0  0  0  0  0  0  0  0  0  0
    2.4891    2.0794   -0.0725 C   0  0  0  0  0  0  0  0  0  0  0  0
    2.1438    0.6640    0.3773 C   0  0  0  0  0  0  0  0  0  0  0  0
    0.8169    0.2035   -0.1972 C   0  0  0  0  0  0  0  0  0  0  0  0
    0.1156    0.9266   -0.8965 O   0  0  0  0  0  0  0  0  0  0  0  0
    0.5140   -1.0849    0.1922 N   0  0  0  0  0  0  0  0  0  0  0  0
   -0.6127   -1.8538   -0.1607 C   0  0  0  0  0  0  0  0  0  0  0  0
   -1.5060   -1.4981   -1.1687 C   0  0  0  0  0  0  0  0  0  0  0  0
   -2.6237   -2.2994   -1.4111 C   0  0  0  0  0  0  0  0  0  0  0  0
   -3.7698   -1.8278   -2.6906 S   0  0  0  0  0  6  0  0  0  0  0  0
   -2.9892   -1.3741   -3.8211 O   0  0  0  0  0  0  0  0  0  0  0  0
   -4.7246   -2.9087   -2.8310 O   0  0  0  0  0  0  0  0  0  0  0  0
   -4.5939   -0.5054   -2.0173 N   0  0  0  0  0  0  0  0  0  0  0  0
   -3.8832    0.7855   -1.9234 C   0  0  0  0  0  0  0  0  0  0  0  0
   -4.9099    1.9133   -1.8467 C   0  0  0  0  0  0  0  0  0  0  0  0
   -5.9702    1.6882   -0.7657 C   0  0  0  0  0  0  0  0  0  0  0  0
   -5.7494    0.3937    0.0077 C   0  0  0  0  0  0  0  0  0  0  0  0
   -5.5566   -0.7959   -0.9284 C   0  0  0  0  0  0  0  0  0  0  0  0
   -2.8275   -3.4803   -0.6929 C   0  0  0  0  0  0  0  0  0  0  0  0
   -1.9139   -3.8553    0.2944 C   0  0  0  0  0  0  0  0  0  0  0  0
   -0.7986   -3.0508    0.5739 C   0  0  0  0  0  0  0  0  0  0  0  0
    0.1520   -3.3744    1.5868 N   0  0  0  0  0  0  0  0  0  0  0  0
   -0.4474   -3.2673    2.9229 C   0  0  0  0  0  0  0  0  0  0  0  0
    0.7997   -4.6686    1.3323 C   0  0  0  0  0  0  0  0  0  0  0  0
    3.9774    2.9218    1.7907 C   0  0  0  0  0  0  0  0  0  0  0  0
    5.2252    3.3219    2.2732 C   0  0  0  0  0  0  0  0  0  0  0  0
    8.4852    4.5922    0.4019 H   0  0  0  0  0  0  0  0  0  0  0  0
    8.9372    2.8875    0.7984 H   0  0  0  0  0  0  0  0  0  0  0  0
    9.4750    4.2253    1.8208 H   0  0  0  0  0  0  0  0  0  0  0  0
    7.0415    2.9335   -0.5810 H   0  0  0  0  0  0  0  0  0  0  0  0
    4.8676    2.2245   -1.4205 H   0  0  0  0  0  0  0  0  0  0  0  0
    2.4876    2.1364   -1.1686 H   0  0  0  0  0  0  0  0  0  0  0  0
    1.7204    2.7886    0.2609 H   0  0  0  0  0  0  0  0  0  0  0  0
    2.0795    0.6158    1.4717 H   0  0  0  0  0  0  0  0  0  0  0  0
    2.9237   -0.0381    0.0546 H   0  0  0  0  0  0  0  0  0  0  0  0
    1.0813   -1.5376    0.9066 H   0  0  0  0  0  0  0  0  0  0  0  0
   -1.3430   -0.6156   -1.7782 H   0  0  0  0  0  0  0  0  0  0  0  0
   -3.2336    0.8020   -1.0407 H   0  0  0  0  0  0  0  0  0  0  0  0
   -3.2564    0.9513   -2.8062 H   0  0  0  0  0  0  0  0  0  0  0  0
   -4.3944    2.8636   -1.6667 H   0  0  0  0  0  0  0  0  0  0  0  0
   -5.4137    2.0148   -2.8176 H   0  0  0  0  0  0  0  0  0  0  0  0
   -5.9823    2.5384   -0.0711 H   0  0  0  0  0  0  0  0  0  0  0  0
   -6.9617    1.6638   -1.2388 H   0  0  0  0  0  0  0  0  0  0  0  0
   -6.5983    0.2068    0.6747 H   0  0  0  0  0  0  0  0  0  0  0  0
   -4.8665    0.5007    0.6511 H   0  0  0  0  0  0  0  0  0  0  0  0
   -6.5163   -1.0517   -1.3912 H   0  0  0  0  0  0  0  0  0  0  0  0
   -5.2348   -1.6554   -0.3335 H   0  0  0  0  0  0  0  0  0  0  0  0
   -3.6861   -4.1157   -0.8995 H   0  0  0  0  0  0  0  0  0  0  0  0
   -2.0853   -4.7755    0.8447 H   0  0  0  0  0  0  0  0  0  0  0  0
   -1.2185   -4.0263    3.0919 H   0  0  0  0  0  0  0  0  0  0  0  0
   -0.8864   -2.2740    3.0765 H   0  0  0  0  0  0  0  0  0  0  0  0
    0.3279   -3.3991    3.6854 H   0  0  0  0  0  0  0  0  0  0  0  0
    1.2270   -4.7006    0.3232 H   0  0  0  0  0  0  0  0  0  0  0  0
    1.6264   -4.8060    2.0376 H   0  0  0  0  0  0  0  0  0  0  0  0
    0.1102   -5.5108    1.4582 H   0  0  0  0  0  0  0  0  0  0  0  0
    3.1234    2.9269    2.4627 H   0  0  0  0  0  0  0  0  0  0  0  0
    5.3261    3.6317    3.3106 H   0  0  0  0  0  0  0  0  0  0  0  0
  1  2  1  0
  2  3  1  0
  3  4  2  0
  4  5  1  0
  5  6  2  0
  6  7  1  0
  7  8  1  0
  8  9  1  0
  9 10  2  0
  9 11  1  0
 11 12  1  0
 12 13  2  0
 13 14  1  0
 14 15  1  0
 15 16  2  0
 15 17  2  0
 15 18  1  0
 18 19  1  0
 19 20  1  0
 20 21  1  0
 21 22  1  0
 22 23  1  0
 14 24  2  0
 24 25  1  0
 25 26  2  0
 26 27  1  0
 27 28  1  0
 27 29  1  0
  6 30  1  0
 30 31  2  0
 31  3  1  0
 26 12  1  0
 23 18  1  0
  1 32  1  0
  1 33  1  0
  1 34  1  0
  4 35  1  0
  5 36  1  0
  7 37  1  0
  7 38  1  0
  8 39  1  0
  8 40  1  0
 11 41  1  0
 13 42  1  0
 19 43  1  0
 19 44  1  0
 20 45  1  0
 20 46  1  0
 21 47  1  0
 21 48  1  0
 22 49  1  0
 22 50  1  0
 23 51  1  0
 23 52  1  0
 24 53  1  0
 25 54  1  0
 28 55  1  0
 28 56  1  0
 28 57  1  0
 29 58  1  0
 29 59  1  0
 29 60  1  0
 30 61  1  0
 31 62  1  0
M  END
$$$$
