
     RDKit          3D

 36 37  0  0  0  0  0  0  0  0999 V2000
   -6.7530    0.5636   -1.1713 C   0  0  0  0  0  0  0  0  0  0  0  0
   -5.2768    0.8636   -1.2642 C   0  0  0  0  0  0  0  0  0  0  0  0
   -4.8250    1.4679   -2.2318 O   0  0  0  0  0  0  0  0  0  0  0  0
   -4.5654    0.3707   -0.1859 N   0  0  0  0  0  0  0  0  0  0  0  0
   -3.1749    0.4500    0.0334 C   0  0  0  0  0  0  0  0  0  0  0  0
   -2.2733    1.0262   -0.8596 C   0  0  0  0  0  0  0  0  0  0  0  0
   -0.9033    1.0553   -0.5658 C   0  0  0  0  0  0  0  0  0  0  0  0
   -0.4108    0.5147    0.6274 C   0  0  0  0  0  0  0  0  0  0  0  0
    0.9798    0.5874    0.8431 N   0  0  0  0  0  0  0  0  0  0  0  0
    1.6949    0.1089    1.9288 C   0  0  0  0  0  0  0  0  0  0  0  0
    1.2324   -0.4531    2.9172 O   0  0  0  0  0  0  0  0  0  0  0  0
    3.1901    0.3787    1.8208 C   0  0  0  0  0  0  0  0  0  0  0  0
    3.8396   -0.2667    0.6165 C   0  0  0  0  0  0  0  0  0  0  0  0
    4.5669    0.5071   -0.3008 C   0  0  0  0  0  0  0  0  0  0  0  0
    5.1656   -0.0934   -1.4103 C   0  0  0  0  0  0  0  0  0  0  0  0
    5.0423   -1.4646   -1.6002 C   0  0  0  0  0  0  0  0  0  0  0  0
    5.6145   -2.0364   -2.6677 F   0  0  0  0  0  0  0  0  0  0  0  0
    4.3386   -2.2500   -0.6961 C   0  0  0  0  0  0  0  0  0  0  0  0
    3.7408   -1.6537    0.4152 C   0  0  0  0  0  0  0  0  0  0  0  0
   -1.3127   -0.0562    1.5224 C   0  0  0  0  0  0  0  0  0  0  0  0
   -2.6821   -0.0914    1.2250 C   0  0  0  0  0  0  0  0  0  0  0  0
   -6.9745   -0.3297   -1.7617 H   0  0  0  0  0  0  0  0  0  0  0  0
   -7.3169    1.4143   -1.5662 H   0  0  0  0  0  0  0  0  0  0  0  0
   -7.0698    0.4010   -0.1367 H   0  0  0  0  0  0  0  0  0  0  0  0
   -5.0968   -0.0965    0.5384 H   0  0  0  0  0  0  0  0  0  0  0  0
   -2.5986    1.4612   -1.7993 H   0  0  0  0  0  0  0  0  0  0  0  0
   -0.2339    1.5112   -1.2917 H   0  0  0  0  0  0  0  0  0  0  0  0
    1.5215    0.9969    0.0910 H   0  0  0  0  0  0  0  0  0  0  0  0
    3.6822    0.0062    2.7273 H   0  0  0  0  0  0  0  0  0  0  0  0
    3.3325    1.4667    1.8090 H   0  0  0  0  0  0  0  0  0  0  0  0
    4.6798    1.5798   -0.1564 H   0  0  0  0  0  0  0  0  0  0  0  0
    5.7293    0.4960   -2.1266 H   0  0  0  0  0  0  0  0  0  0  0  0
    4.2609   -3.3202   -0.8601 H   0  0  0  0  0  0  0  0  0  0  0  0
    3.1954   -2.2773    1.1226 H   0  0  0  0  0  0  0  0  0  0  0  0
   -0.9885   -0.4863    2.4646 H   0  0  0  0  0  0  0  0  0  0  0  0
   -3.3507   -0.5482    1.9494 H   0  0  0  0  0  0  0  0  0  0  0  0
  1  2  1  0
  2  3  2  0
  2  4  1  0
  4  5  1  0
  5  6  2  0
  6  7  1  0
  7  8  2  0
  8  9  1  0
  9 10  1  0
 10 11  2  0
 10 12  1  0
 12 13  1  0
 13 14  2  0
 14 15  1  0
 15 16  2  0
 16 17  1  0
 16 18  1  0
 18 19  2  0
  8 20  1  0
 20 21  2  0
 21  5  1  0
 19 13  1  0
  1 22  1  0
  1 23  1  0
  1 24  1  0
  4 25  1  0
  6 26  1  0
  7 27  1  0
  9 28  1  0
 12 29  1  0
 12 30  1  0
 14 31  1  0
 15 32  1  0
 18 33  1  0
 19 34  1  0
 20 35  1  0
 21 36  1  0
M  END
$$$$
