
     RDKit          3D

 51 52  0  0  0  0  0  0  0  0999 V2000
    2.3387   -2.2613    1.4662 C   0  0  0  0  0  0  0  0  0  0  0  0
    3.5967   -1.9381    0.7885 N   0  0  0  0  0  0  0  0  0  0  0  0
    4.4178   -0.9347    1.4727 C   0  0  0  0  0  0  0  0  0  0  0  0
    3.7083   -2.0374   -0.8769 S   0  0  0  0  0  6  0  0  0  0  0  0
    5.1055   -1.9786   -1.2424 O   0  0  0  0  0  0  0  0  0  0  0  0
    2.8629   -3.1036   -1.3582 O   0  0  0  0  0  0  0  0  0  0  0  0
    3.0631   -0.5548   -1.3797 N   0  0  0  0  0  0  0  0  0  0  0  0
    1.6452   -0.4030   -1.3458 C   0  0  0  0  0  0  0  0  0  0  0  0
    0.8336   -0.9765   -2.3187 C   0  0  0  0  0  0  0  0  0  0  0  0
   -0.5567   -0.8299   -2.2456 C   0  0  0  0  0  0  0  0  0  0  0  0
   -1.1605   -0.1430   -1.1840 C   0  0  0  0  0  0  0  0  0  0  0  0
   -2.5839   -0.0034   -1.1570 N   0  0  0  0  0  0  0  0  0  0  0  0
   -3.6141   -1.3358   -1.2213 S   0  0  0  0  0  6  0  0  0  0  0  0
   -4.9472   -0.7792   -1.2208 O   0  0  0  0  0  0  0  0  0  0  0  0
   -3.1927   -2.2734   -2.2338 O   0  0  0  0  0  0  0  0  0  0  0  0
   -3.3252   -2.0148    0.3079 N   0  0  0  0  0  0  0  0  0  0  0  0
   -2.2197   -2.9938    0.3802 C   0  0  0  0  0  0  0  0  0  0  0  0
   -4.5475   -2.5245    0.9739 C   0  0  0  0  0  0  0  0  0  0  0  0
   -0.3227    0.4734   -0.2452 C   0  0  0  0  0  0  0  0  0  0  0  0
   -0.9451    1.4305    1.1113 S   0  0  0  0  0  6  0  0  0  0  0  0
   -0.2326    0.9638    2.2881 O   0  0  0  0  0  0  0  0  0  0  0  0
   -2.3965    1.4006    1.0686 O   0  0  0  0  0  0  0  0  0  0  0  0
   -0.4687    3.1138    0.8072 C   0  0  0  0  0  0  0  0  0  0  0  0
    0.3739    3.7744    1.7077 C   0  0  0  0  0  0  0  0  0  0  0  0
    0.7431    5.0944    1.4538 C   0  0  0  0  0  0  0  0  0  0  0  0
    0.2698    5.7452    0.3138 C   0  0  0  0  0  0  0  0  0  0  0  0
   -0.5716    5.0805   -0.5806 C   0  0  0  0  0  0  0  0  0  0  0  0
   -0.9479    3.7605   -0.3358 C   0  0  0  0  0  0  0  0  0  0  0  0
    1.0745    0.3383   -0.3201 C   0  0  0  0  0  0  0  0  0  0  0  0
    2.5533   -2.8904    2.3364 H   0  0  0  0  0  0  0  0  0  0  0  0
    1.8307   -1.3575    1.8136 H   0  0  0  0  0  0  0  0  0  0  0  0
    1.6515   -2.8211    0.8276 H   0  0  0  0  0  0  0  0  0  0  0  0
    4.4909   -1.1778    2.5377 H   0  0  0  0  0  0  0  0  0  0  0  0
    3.9751    0.0613    1.3737 H   0  0  0  0  0  0  0  0  0  0  0  0
    5.4388   -0.9192    1.0819 H   0  0  0  0  0  0  0  0  0  0  0  0
    3.4419   -0.4060   -2.3170 H   0  0  0  0  0  0  0  0  0  0  0  0
    1.2620   -1.5517   -3.1367 H   0  0  0  0  0  0  0  0  0  0  0  0
   -1.1578   -1.2695   -3.0396 H   0  0  0  0  0  0  0  0  0  0  0  0
   -2.9643    0.6111   -0.4208 H   0  0  0  0  0  0  0  0  0  0  0  0
   -1.2824   -2.5835   -0.0090 H   0  0  0  0  0  0  0  0  0  0  0  0
   -2.4713   -3.9095   -0.1678 H   0  0  0  0  0  0  0  0  0  0  0  0
   -2.0317   -3.2539    1.4280 H   0  0  0  0  0  0  0  0  0  0  0  0
   -4.2930   -2.9625    1.9444 H   0  0  0  0  0  0  0  0  0  0  0  0
   -5.2467   -1.7059    1.1708 H   0  0  0  0  0  0  0  0  0  0  0  0
   -5.0334   -3.2914    0.3632 H   0  0  0  0  0  0  0  0  0  0  0  0
    0.7329    3.2809    2.6062 H   0  0  0  0  0  0  0  0  0  0  0  0
    1.3925    5.6220    2.1488 H   0  0  0  0  0  0  0  0  0  0  0  0
    0.5547    6.7762    0.1210 H   0  0  0  0  0  0  0  0  0  0  0  0
   -0.9432    5.5985   -1.4627 H   0  0  0  0  0  0  0  0  0  0  0  0
   -1.6185    3.2568   -1.0296 H   0  0  0  0  0  0  0  0  0  0  0  0
    1.7175    0.8041    0.4235 H   0  0  0  0  0  0  0  0  0  0  0  0
  1  2  1  0
  2  3  1  0
  2  4  1  0
  4  5  2  0
  4  6  2  0
  4  7  1  0
  7  8  1  0
  8  9  2  0
  9 10  1  0
 10 11  2  0
 11 12  1  0
 12 13  1  0
 13 14  2  0
 13 15  2  0
 13 16  1  0
 16 17  1  0
 16 18  1  0
 11 19  1  0
 19 20  1  0
 20 21  2  0
 20 22  2  0
 20 23  1  0
 23 24  2  0
 24 25  1  0
 25 26  2  0
 26 27  1  0
 27 28  2  0
 19 29  2  0
 29  8  1  0
 28 23  1  0
  1 30  1  0
  1 31  1  0
  1 32  1  0
  3 33  1  0
  3 34  1  0
  3 35  1  0
  7 36  1  0
  9 37  1  0
 10 38  1  0
 12 39  1  0
 17 40  1  0
 17 41  1  0
 17 42  1  0
 18 43  1  0
 18 44  1  0
 18 45  1  0
 24 46  1  0
 25 47  1  0
 26 48  1  0
 27 49  1  0
 28 50  1  0
 29 51  1  0
M  END
$$$$
