
     RDKit          3D

 52 55  0  0  0  0  0  0  0  0999 V2000
    4.8837    3.1116   -1.6008 C   0  0  0  0  0  0  0  0  0  0  0  0
    4.2313    2.0366   -0.9413 O   0  0  0  0  0  0  0  0  0  0  0  0
    5.0137    0.9928   -0.4990 C   0  0  0  0  0  0  0  0  0  0  0  0
    6.3572    0.8262   -0.8647 C   0  0  0  0  0  0  0  0  0  0  0  0
    7.1032   -0.2364   -0.3564 C   0  0  0  0  0  0  0  0  0  0  0  0
    6.5139   -1.1394    0.5188 C   0  0  0  0  0  0  0  0  0  0  0  0
    5.1735   -0.9876    0.8826 C   0  0  0  0  0  0  0  0  0  0  0  0
    4.3890    0.0665    0.3806 C   0  0  0  0  0  0  0  0  0  0  0  0
    3.0321    0.2168    0.7350 N   0  0  0  0  0  0  0  0  0  0  0  0
    2.1086   -0.0771   -0.3804 C   0  0  0  0  0  0  0  0  0  0  0  0
    0.6710    0.3781   -0.0193 C   0  0  0  0  0  0  0  0  0  0  0  0
    0.1317   -0.1030    1.2868 N   0  0  0  0  0  0  0  0  0  0  0  0
   -0.1787   -1.5566    1.2412 C   0  0  0  0  0  0  0  0  0  0  0  0
   -1.4948   -1.8223    0.4904 C   0  0  0  0  0  0  0  0  0  0  0  0
   -1.7069   -2.9047   -0.0474 O   0  0  0  0  0  0  0  0  0  0  0  0
   -2.3629   -0.7475    0.5623 N   0  0  0  0  0  0  0  0  0  0  0  0
   -3.6578   -0.6301    0.0352 C   0  0  0  0  0  0  0  0  0  0  0  0
   -4.3043    0.6011    0.1946 C   0  0  0  0  0  0  0  0  0  0  0  0
   -5.5987    0.8054   -0.2998 C   0  0  0  0  0  0  0  0  0  0  0  0
   -6.2633   -0.2325   -0.9634 C   0  0  0  0  0  0  0  0  0  0  0  0
   -7.5716   -0.0554   -1.4737 N   0  0  0  0  0  0  0  0  0  0  0  0
   -8.3828    1.0511   -1.4333 C   0  0  0  0  0  0  0  0  0  0  0  0
   -9.5212    0.7806   -2.0294 N   0  0  0  0  0  0  0  0  0  0  0  0
   -9.4192   -0.5185   -2.4499 N   0  0  0  0  0  0  0  0  0  0  0  0
   -8.2442   -1.0358   -2.1198 N   0  0  0  0  0  0  0  0  0  0  0  0
   -5.6195   -1.4670   -1.1230 C   0  0  0  0  0  0  0  0  0  0  0  0
   -4.3250   -1.6611   -0.6249 C   0  0  0  0  0  0  0  0  0  0  0  0
    1.1489    0.1828    2.3327 C   0  0  0  0  0  0  0  0  0  0  0  0
    2.5797   -0.3223    2.0258 C   0  0  0  0  0  0  0  0  0  0  0  0
    4.1420    3.8979   -1.7713 H   0  0  0  0  0  0  0  0  0  0  0  0
    5.2637    2.7983   -2.5785 H   0  0  0  0  0  0  0  0  0  0  0  0
    5.6811    3.5367   -0.9820 H   0  0  0  0  0  0  0  0  0  0  0  0
    6.8521    1.5092   -1.5462 H   0  0  0  0  0  0  0  0  0  0  0  0
    8.1443   -0.3569   -0.6440 H   0  0  0  0  0  0  0  0  0  0  0  0
    7.0925   -1.9690    0.9168 H   0  0  0  0  0  0  0  0  0  0  0  0
    4.7495   -1.7280    1.5530 H   0  0  0  0  0  0  0  0  0  0  0  0
    2.3975    0.4376   -1.3032 H   0  0  0  0  0  0  0  0  0  0  0  0
    2.1204   -1.1524   -0.5977 H   0  0  0  0  0  0  0  0  0  0  0  0
   -0.0081    0.1049   -0.8355 H   0  0  0  0  0  0  0  0  0  0  0  0
    0.6597    1.4760    0.0145 H   0  0  0  0  0  0  0  0  0  0  0  0
    0.6198   -2.1446    0.7785 H   0  0  0  0  0  0  0  0  0  0  0  0
   -0.3405   -1.9377    2.2572 H   0  0  0  0  0  0  0  0  0  0  0  0
   -1.9487    0.0683    1.0106 H   0  0  0  0  0  0  0  0  0  0  0  0
   -3.8059    1.4212    0.7074 H   0  0  0  0  0  0  0  0  0  0  0  0
   -6.0478    1.7822   -0.1462 H   0  0  0  0  0  0  0  0  0  0  0  0
   -8.1147    1.9908   -0.9792 H   0  0  0  0  0  0  0  0  0  0  0  0
   -6.1042   -2.2990   -1.6326 H   0  0  0  0  0  0  0  0  0  0  0  0
   -3.8664   -2.6351   -0.7694 H   0  0  0  0  0  0  0  0  0  0  0  0
    1.1855    1.2721    2.4685 H   0  0  0  0  0  0  0  0  0  0  0  0
    0.8154   -0.2222    3.2960 H   0  0  0  0  0  0  0  0  0  0  0  0
    2.5829   -1.4189    2.0170 H   0  0  0  0  0  0  0  0  0  0  0  0
    3.2434    0.0164    2.8308 H   0  0  0  0  0  0  0  0  0  0  0  0
  1  2  1  0
  2  3  1  0
  3  4  2  0
  4  5  1  0
  5  6  2  0
  6  7  1  0
  7  8  2  0
  8  9  1  0
  9 10  1  0
 10 11  1  0
 11 12  1  0
 12 13  1  0
 13 14  1  0
 14 15  2  0
 14 16  1  0
 16 17  1  0
 17 18  2  0
 18 19  1  0
 19 20  2  0
 20 21  1  0
 21 22  1  0
 22 23  2  0
 23 24  1  0
 24 25  2  0
 20 26  1  0
 26 27  2  0
 12 28  1  0
 28 29  1  0
  8  3  1  0
 29  9  1  0
 27 17  1  0
 25 21  1  0
  1 30  1  0
  1 31  1  0
  1 32  1  0
  4 33  1  0
  5 34  1  0
  6 35  1  0
  7 36  1  0
 10 37  1  0
 10 38  1  0
 11 39  1  0
 11 40  1  0
 13 41  1  0
 13 42  1  0
 16 43  1  0
 18 44  1  0
 19 45  1  0
 22 46  1  0
 26 47  1  0
 27 48  1  0
 28 49  1  0
 28 50  1  0
 29 51  1  0
 29 52  1  0
M  END
$$$$
