
     RDKit          3D

 37 40  0  0  0  0  0  0  0  0999 V2000
    6.2544   -0.6326   -1.3592 C   0  0  0  0  0  0  0  0  0  0  0  0
    4.8283   -0.6701   -0.8889 C   0  0  0  0  0  0  0  0  0  0  0  0
    3.8927   -1.4710   -1.5488 C   0  0  0  0  0  0  0  0  0  0  0  0
    2.5530   -1.4950   -1.1429 C   0  0  0  0  0  0  0  0  0  0  0  0
    2.1337   -0.6944   -0.0627 C   0  0  0  0  0  0  0  0  0  0  0  0
    0.8469   -0.6194    0.4446 N   0  0  0  0  0  0  0  0  0  0  0  0
    0.8148    0.2369    1.4375 C   0  0  0  0  0  0  0  0  0  0  0  0
   -0.3520    0.4820    2.1125 N   0  0  0  0  0  0  0  0  0  0  0  0
   -0.5807    1.4328    3.0814 C   0  0  0  0  0  0  0  0  0  0  0  0
    0.2257    2.2531    3.5117 O   0  0  0  0  0  0  0  0  0  0  0  0
   -1.9990    1.3863    3.6325 C   0  0  0  0  0  0  0  0  0  0  0  0
   -3.1058    2.4617    2.6832 S   0  0  0  0  0  0  0  0  0  0  0  0
   -3.4043    1.4858    1.2746 C   0  0  0  0  0  0  0  0  0  0  0  0
   -2.8808    0.2847    1.0951 N   0  0  0  0  0  0  0  0  0  0  0  0
   -3.3490   -0.0935   -0.1394 C   0  0  0  0  0  0  0  0  0  0  0  0
   -3.1301   -1.2541   -0.8914 C   0  0  0  0  0  0  0  0  0  0  0  0
   -3.7573   -1.3555   -2.1430 C   0  0  0  0  0  0  0  0  0  0  0  0
   -4.5776   -0.3284   -2.6288 C   0  0  0  0  0  0  0  0  0  0  0  0
   -4.8020    0.8386   -1.8881 C   0  0  0  0  0  0  0  0  0  0  0  0
   -4.1621    0.8999   -0.6569 C   0  0  0  0  0  0  0  0  0  0  0  0
   -4.2036    1.9171    0.2488 O   0  0  0  0  0  0  0  0  0  0  0  0
    2.2912    0.9743    1.8433 S   0  0  0  0  0  0  0  0  0  0  0  0
    3.0749    0.1117    0.5781 C   0  0  0  0  0  0  0  0  0  0  0  0
    4.4225    0.1446    0.1801 C   0  0  0  0  0  0  0  0  0  0  0  0
    6.5555   -1.6023   -1.7693 H   0  0  0  0  0  0  0  0  0  0  0  0
    6.3726    0.1323   -2.1328 H   0  0  0  0  0  0  0  0  0  0  0  0
    6.9335   -0.4061   -0.5304 H   0  0  0  0  0  0  0  0  0  0  0  0
    4.1974   -2.0901   -2.3905 H   0  0  0  0  0  0  0  0  0  0  0  0
    1.8316   -2.1229   -1.6558 H   0  0  0  0  0  0  0  0  0  0  0  0
   -1.1503   -0.0132    1.7205 H   0  0  0  0  0  0  0  0  0  0  0  0
   -2.3712    0.3572    3.6739 H   0  0  0  0  0  0  0  0  0  0  0  0
   -1.9671    1.7470    4.6664 H   0  0  0  0  0  0  0  0  0  0  0  0
   -2.4895   -2.0459   -0.5183 H   0  0  0  0  0  0  0  0  0  0  0  0
   -3.5998   -2.2473   -2.7470 H   0  0  0  0  0  0  0  0  0  0  0  0
   -5.0482   -0.4378   -3.6047 H   0  0  0  0  0  0  0  0  0  0  0  0
   -5.4285    1.6447   -2.2487 H   0  0  0  0  0  0  0  0  0  0  0  0
    5.1302    0.7887    0.6947 H   0  0  0  0  0  0  0  0  0  0  0  0
  1  2  1  0
  2  3  2  0
  3  4  1  0
  4  5  2  0
  5  6  1  0
  6  7  2  0
  7  8  1  0
  8  9  1  0
  9 10  2  0
  9 11  1  0
 11 12  1  0
 12 13  1  0
 13 14  2  0
 14 15  1  0
 15 16  2  0
 16 17  1  0
 17 18  2  0
 18 19  1  0
 19 20  2  0
 20 21  1  0
  7 22  1  0
 22 23  1  0
 23 24  2  0
 24  2  1  0
 23  5  1  0
 21 13  1  0
 20 15  1  0
  1 25  1  0
  1 26  1  0
  1 27  1  0
  3 28  1  0
  4 29  1  0
  8 30  1  0
 11 31  1  0
 11 32  1  0
 16 33  1  0
 17 34  1  0
 18 35  1  0
 19 36  1  0
 24 37  1  0
M  END
$$$$
