
     RDKit          3D

 53 56  0  0  0  0  0  0  0  0999 V2000
   -7.1704   -1.7857   -1.4080 C   0  0  0  0  0  0  0  0  0  0  0  0
   -6.2506   -0.8579   -0.8475 O   0  0  0  0  0  0  0  0  0  0  0  0
   -5.8934   -1.1931    0.4872 C   0  0  0  0  0  0  0  0  0  0  0  0
   -4.9118   -0.1685    1.0700 C   0  0  0  0  0  0  0  0  0  0  0  0
   -5.4661    1.2601    1.0923 C   0  0  0  0  0  0  0  0  0  0  0  0
   -5.0299    1.8581   -0.2348 C   0  0  0  0  0  0  0  0  0  0  0  0
   -3.7771    1.1969   -0.5361 N   0  0  0  0  0  0  0  0  0  0  0  0
   -3.0957    1.5203   -1.7069 C   0  0  0  0  0  0  0  0  0  0  0  0
   -3.5065    2.4047   -2.4584 O   0  0  0  0  0  0  0  0  0  0  0  0
   -1.8534    0.7913   -1.9894 C   0  0  0  0  0  0  0  0  0  0  0  0
   -0.7848    0.4823   -1.1062 C   0  0  0  0  0  0  0  0  0  0  0  0
    0.1397   -0.1723   -1.8828 C   0  0  0  0  0  0  0  0  0  0  0  0
    1.4732   -0.7710   -1.6451 C   0  0  0  0  0  0  0  0  0  0  0  0
    1.9739   -0.2084   -0.4327 O   0  0  0  0  0  0  0  0  0  0  0  0
    3.3052   -0.4152   -0.1609 C   0  0  0  0  0  0  0  0  0  0  0  0
    4.0086   -1.5324   -0.6127 C   0  0  0  0  0  0  0  0  0  0  0  0
    5.3526   -1.7021   -0.2796 C   0  0  0  0  0  0  0  0  0  0  0  0
    6.0107   -0.7614    0.5146 C   0  0  0  0  0  0  0  0  0  0  0  0
    7.3293   -0.8689    0.8895 O   0  0  0  0  0  0  0  0  0  0  0  0
    8.1013   -1.9132    0.3112 C   0  0  0  0  0  0  0  0  0  0  0  0
    5.3109    0.3741    0.9958 C   0  0  0  0  0  0  0  0  0  0  0  0
    5.9316    1.3520    1.8056 C   0  0  0  0  0  0  0  0  0  0  0  0
    5.2398    2.4725    2.2687 C   0  0  0  0  0  0  0  0  0  0  0  0
    3.9046    2.6419    1.9366 C   0  0  0  0  0  0  0  0  0  0  0  0
    3.2654    1.6897    1.1426 C   0  0  0  0  0  0  0  0  0  0  0  0
    3.9437    0.5474    0.6573 C   0  0  0  0  0  0  0  0  0  0  0  0
   -0.3340   -0.2544   -3.1544 O   0  0  0  0  0  0  0  0  0  0  0  0
   -1.5699    0.3551   -3.2299 N   0  0  0  0  0  0  0  0  0  0  0  0
   -3.6311   -0.0296    0.2368 C   0  0  0  0  0  0  0  0  0  0  0  0
   -7.4231   -1.4510   -2.4177 H   0  0  0  0  0  0  0  0  0  0  0  0
   -6.7198   -2.7811   -1.4727 H   0  0  0  0  0  0  0  0  0  0  0  0
   -8.0878   -1.8230   -0.8143 H   0  0  0  0  0  0  0  0  0  0  0  0
   -5.4339   -2.1896    0.4997 H   0  0  0  0  0  0  0  0  0  0  0  0
   -6.7967   -1.2227    1.1078 H   0  0  0  0  0  0  0  0  0  0  0  0
   -4.6668   -0.4969    2.0874 H   0  0  0  0  0  0  0  0  0  0  0  0
   -6.5487    1.3112    1.2410 H   0  0  0  0  0  0  0  0  0  0  0  0
   -4.9904    1.8146    1.9108 H   0  0  0  0  0  0  0  0  0  0  0  0
   -5.7443    1.6470   -1.0361 H   0  0  0  0  0  0  0  0  0  0  0  0
   -4.8854    2.9417   -0.1806 H   0  0  0  0  0  0  0  0  0  0  0  0
   -0.6877    0.7344   -0.0628 H   0  0  0  0  0  0  0  0  0  0  0  0
    1.3597   -1.8558   -1.5408 H   0  0  0  0  0  0  0  0  0  0  0  0
    2.1378   -0.5388   -2.4848 H   0  0  0  0  0  0  0  0  0  0  0  0
    3.5349   -2.3040   -1.2098 H   0  0  0  0  0  0  0  0  0  0  0  0
    5.8543   -2.5918   -0.6456 H   0  0  0  0  0  0  0  0  0  0  0  0
    8.1158   -1.8360   -0.7784 H   0  0  0  0  0  0  0  0  0  0  0  0
    9.1303   -1.8062    0.6658 H   0  0  0  0  0  0  0  0  0  0  0  0
    7.7426   -2.8935    0.6374 H   0  0  0  0  0  0  0  0  0  0  0  0
    6.9794    1.2441    2.0807 H   0  0  0  0  0  0  0  0  0  0  0  0
    5.7484    3.2082    2.8860 H   0  0  0  0  0  0  0  0  0  0  0  0
    3.3597    3.5147    2.2856 H   0  0  0  0  0  0  0  0  0  0  0  0
    2.2183    1.8498    0.8925 H   0  0  0  0  0  0  0  0  0  0  0  0
   -2.7707    0.1015    0.9013 H   0  0  0  0  0  0  0  0  0  0  0  0
   -3.4415   -0.8891   -0.4147 H   0  0  0  0  0  0  0  0  0  0  0  0
  1  2  1  0
  2  3  1  0
  3  4  1  0
  4  5  1  0
  5  6  1  0
  6  7  1  0
  7  8  1  0
  8  9  2  0
  8 10  1  0
 10 11  1  0
 11 12  2  0
 12 13  1  0
 13 14  1  0
 14 15  1  0
 15 16  2  0
 16 17  1  0
 17 18  2  0
 18 19  1  0
 19 20  1  0
 18 21  1  0
 21 22  2  0
 22 23  1  0
 23 24  2  0
 24 25  1  0
 25 26  2  0
 12 27  1  0
 27 28  1  0
  7 29  1  0
 29  4  1  0
 28 10  2  0
 26 15  1  0
 26 21  1  0
  1 30  1  0
  1 31  1  0
  1 32  1  0
  3 33  1  0
  3 34  1  0
  4 35  1  0
  5 36  1  0
  5 37  1  0
  6 38  1  0
  6 39  1  0
 11 40  1  0
 13 41  1  0
 13 42  1  0
 16 43  1  0
 17 44  1  0
 20 45  1  0
 20 46  1  0
 20 47  1  0
 22 48  1  0
 23 49  1  0
 24 50  1  0
 25 51  1  0
 29 52  1  0
 29 53  1  0
M  END
$$$$
