
     RDKit          3D

 50 53  0  0  0  0  0  0  0  0999 V2000
   -0.6469   -1.0832   -5.1213 C   0  0  0  0  0  0  0  0  0  0  0  0
   -0.3188   -0.4394   -3.8895 O   0  0  0  0  0  0  0  0  0  0  0  0
   -0.8827   -1.0223   -2.8017 C   0  0  0  0  0  0  0  0  0  0  0  0
   -1.6065   -2.0038   -2.8072 O   0  0  0  0  0  0  0  0  0  0  0  0
   -0.4812   -0.2702   -1.5903 C   0  0  0  0  0  0  0  0  0  0  0  0
   -1.3627    0.1139   -0.6361 C   0  0  0  0  0  0  0  0  0  0  0  0
   -2.8108   -0.1208   -0.7011 C   0  0  0  0  0  0  0  0  0  0  0  0
   -3.6647    0.8948   -1.1479 C   0  0  0  0  0  0  0  0  0  0  0  0
   -5.0420    0.6794   -1.2112 C   0  0  0  0  0  0  0  0  0  0  0  0
   -5.5736   -0.5536   -0.8296 C   0  0  0  0  0  0  0  0  0  0  0  0
   -4.7277   -1.5751   -0.3856 C   0  0  0  0  0  0  0  0  0  0  0  0
   -5.2740   -2.8424    0.0019 C   0  0  0  0  0  0  0  0  0  0  0  0
   -5.7266   -3.8607    0.3277 N   0  0  0  0  0  0  0  0  0  0  0  0
   -3.3476   -1.3560   -0.3189 C   0  0  0  0  0  0  0  0  0  0  0  0
   -0.8743    0.8635    0.5971 C   0  0  0  0  0  0  0  0  0  0  0  0
    0.6311    1.2079    0.5170 C   0  0  0  0  0  0  0  0  0  0  0  0
    0.9115    2.2951   -0.5417 C   0  0  0  0  0  0  0  0  0  0  0  0
    1.2477    1.5199   -1.8324 C   0  0  0  0  0  0  0  0  0  0  0  0
    0.9984    0.0490   -1.4679 C   0  0  0  0  0  0  0  0  0  0  0  0
    1.3202    0.0482   -0.0438 N   0  0  0  0  0  0  0  0  0  0  0  0
    2.5397   -0.4273    0.3882 C   0  0  0  0  0  0  0  0  0  0  0  0
    3.3541   -0.9637   -0.3556 O   0  0  0  0  0  0  0  0  0  0  0  0
    2.7491   -0.2556    1.7321 N   0  0  0  0  0  0  0  0  0  0  0  0
    3.9377   -0.7971    2.3480 C   0  0  0  0  0  0  0  0  0  0  0  0
    4.1781   -0.2646    3.7287 C   0  0  0  0  0  0  0  0  0  0  0  0
    3.0797    0.0862    4.7054 C   0  0  0  0  0  0  0  0  0  0  0  0
    3.9094    1.1795    4.0820 C   0  0  0  0  0  0  0  0  0  0  0  0
   -1.7218   -1.0133   -5.3123 H   0  0  0  0  0  0  0  0  0  0  0  0
   -0.3206   -2.1285   -5.1096 H   0  0  0  0  0  0  0  0  0  0  0  0
   -0.1187   -0.5657   -5.9262 H   0  0  0  0  0  0  0  0  0  0  0  0
   -3.2622    1.8577   -1.4563 H   0  0  0  0  0  0  0  0  0  0  0  0
   -5.6998    1.4697   -1.5657 H   0  0  0  0  0  0  0  0  0  0  0  0
   -6.6485   -0.7141   -0.8889 H   0  0  0  0  0  0  0  0  0  0  0  0
   -2.6849   -2.1560    0.0072 H   0  0  0  0  0  0  0  0  0  0  0  0
   -1.0352    0.2159    1.4699 H   0  0  0  0  0  0  0  0  0  0  0  0
   -1.4556    1.7800    0.7569 H   0  0  0  0  0  0  0  0  0  0  0  0
    1.0072    1.5143    1.4976 H   0  0  0  0  0  0  0  0  0  0  0  0
    0.0690    2.9809   -0.6774 H   0  0  0  0  0  0  0  0  0  0  0  0
    1.7813    2.8958   -0.2476 H   0  0  0  0  0  0  0  0  0  0  0  0
    2.3067    1.6711   -2.0748 H   0  0  0  0  0  0  0  0  0  0  0  0
    0.6602    1.8703   -2.6874 H   0  0  0  0  0  0  0  0  0  0  0  0
    1.6248   -0.6456   -2.0364 H   0  0  0  0  0  0  0  0  0  0  0  0
    1.9029   -0.3421    2.2702 H   0  0  0  0  0  0  0  0  0  0  0  0
    4.8034   -0.5711    1.7145 H   0  0  0  0  0  0  0  0  0  0  0  0
    3.8270   -1.8866    2.3864 H   0  0  0  0  0  0  0  0  0  0  0  0
    5.0785   -0.7089    4.1464 H   0  0  0  0  0  0  0  0  0  0  0  0
    3.2479   -0.1448    5.7522 H   0  0  0  0  0  0  0  0  0  0  0  0
    2.0407    0.0112    4.4111 H   0  0  0  0  0  0  0  0  0  0  0  0
    3.4446    1.8199    3.3392 H   0  0  0  0  0  0  0  0  0  0  0  0
    4.6367    1.6883    4.7061 H   0  0  0  0  0  0  0  0  0  0  0  0
  1  2  1  0
  2  3  1  0
  3  4  2  0
  3  5  1  0
  5  6  2  0
  6  7  1  0
  7  8  2  0
  8  9  1  0
  9 10  2  0
 10 11  1  0
 11 12  1  0
 12 13  3  0
 11 14  2  0
  6 15  1  0
 15 16  1  0
 16 17  1  0
 17 18  1  0
 18 19  1  0
 19 20  1  0
 20 21  1  0
 21 22  2  0
 21 23  1  0
 23 24  1  0
 24 25  1  0
 25 26  1  0
 26 27  1  0
 19  5  1  0
 27 25  1  0
 14  7  1  0
 20 16  1  0
  1 28  1  0
  1 29  1  0
  1 30  1  0
  8 31  1  0
  9 32  1  0
 10 33  1  0
 14 34  1  0
 15 35  1  0
 15 36  1  0
 16 37  1  0
 17 38  1  0
 17 39  1  0
 18 40  1  0
 18 41  1  0
 19 42  1  0
 23 43  1  0
 24 44  1  0
 24 45  1  0
 25 46  1  0
 26 47  1  0
 26 48  1  0
 27 49  1  0
 27 50  1  0
M  END
$$$$
