
     RDKit          3D

 47 49  0  0  0  0  0  0  0  0999 V2000
    6.9926    0.9456   -0.2378 C   0  0  0  0  0  0  0  0  0  0  0  0
    5.8384   -0.0001   -0.5325 C   0  0  0  0  0  0  0  0  0  0  0  0
    5.3114   -0.6523    0.7462 C   0  0  0  0  0  0  0  0  0  0  0  0
    4.2065   -1.6837    0.4930 C   0  0  0  0  0  0  0  0  0  0  0  0
    2.9825   -1.1269   -0.0798 N   0  0  0  0  0  0  0  0  0  0  0  0
    2.1840   -0.2468    0.7586 C   0  0  0  0  0  0  0  0  0  0  0  0
    0.8333    0.0445    0.1994 C   0  0  0  0  0  0  0  0  0  0  0  0
   -0.2012    0.5843    0.9683 C   0  0  0  0  0  0  0  0  0  0  0  0
   -1.4147    0.8985    0.3552 C   0  0  0  0  0  0  0  0  0  0  0  0
   -2.5095    1.4773    1.1580 C   0  0  0  0  0  0  0  0  0  0  0  0
   -2.2268    2.2635    2.0616 O   0  0  0  0  0  0  0  0  0  0  0  0
   -3.9392    1.1643    0.9053 C   0  0  0  0  0  0  0  0  0  0  0  0
   -4.3313   -0.0749    0.3719 C   0  0  0  0  0  0  0  0  0  0  0  0
   -5.6816   -0.3349    0.1247 C   0  0  0  0  0  0  0  0  0  0  0  0
   -6.1938   -1.4883   -0.4013 O   0  0  0  0  0  0  0  0  0  0  0  0
   -5.2703   -2.5039   -0.7739 C   0  0  0  0  0  0  0  0  0  0  0  0
   -6.6376    0.6381    0.4300 C   0  0  0  0  0  0  0  0  0  0  0  0
   -6.2591    1.8583    0.9896 C   0  0  0  0  0  0  0  0  0  0  0  0
   -4.9157    2.1132    1.2379 C   0  0  0  0  0  0  0  0  0  0  0  0
   -4.6181    3.3186    1.8137 O   0  0  0  0  0  0  0  0  0  0  0  0
   -1.5218    0.7107   -1.0161 C   0  0  0  0  0  0  0  0  0  0  0  0
   -0.5351    0.1853   -1.7809 N   0  0  0  0  0  0  0  0  0  0  0  0
    0.6143   -0.1394   -1.1539 C   0  0  0  0  0  0  0  0  0  0  0  0
    1.6187   -0.6901   -1.9230 N   0  0  0  0  0  0  0  0  0  0  0  0
    2.7753   -1.2179   -1.4424 C   0  0  0  0  0  0  0  0  0  0  0  0
    3.5565   -1.7704   -2.2142 O   0  0  0  0  0  0  0  0  0  0  0  0
    7.8289    0.4121    0.2252 H   0  0  0  0  0  0  0  0  0  0  0  0
    6.6795    1.7476    0.4382 H   0  0  0  0  0  0  0  0  0  0  0  0
    7.3532    1.4034   -1.1642 H   0  0  0  0  0  0  0  0  0  0  0  0
    5.0403    0.5645   -1.0267 H   0  0  0  0  0  0  0  0  0  0  0  0
    6.1773   -0.7721   -1.2328 H   0  0  0  0  0  0  0  0  0  0  0  0
    6.1397   -1.1601    1.2560 H   0  0  0  0  0  0  0  0  0  0  0  0
    4.9520    0.1237    1.4322 H   0  0  0  0  0  0  0  0  0  0  0  0
    3.9327   -2.1620    1.4409 H   0  0  0  0  0  0  0  0  0  0  0  0
    4.5915   -2.4783   -0.1566 H   0  0  0  0  0  0  0  0  0  0  0  0
    2.7303    0.6955    0.8775 H   0  0  0  0  0  0  0  0  0  0  0  0
    2.0789   -0.7244    1.7394 H   0  0  0  0  0  0  0  0  0  0  0  0
   -0.0631    0.7676    2.0319 H   0  0  0  0  0  0  0  0  0  0  0  0
   -3.5839   -0.8341    0.1707 H   0  0  0  0  0  0  0  0  0  0  0  0
   -4.5792   -2.1461   -1.5443 H   0  0  0  0  0  0  0  0  0  0  0  0
   -4.7283   -2.8815    0.0993 H   0  0  0  0  0  0  0  0  0  0  0  0
   -5.8409   -3.3359   -1.1978 H   0  0  0  0  0  0  0  0  0  0  0  0
   -7.6902    0.4388    0.2404 H   0  0  0  0  0  0  0  0  0  0  0  0
   -7.0107    2.6025    1.2392 H   0  0  0  0  0  0  0  0  0  0  0  0
   -3.6865    3.2822    2.1268 H   0  0  0  0  0  0  0  0  0  0  0  0
   -2.4145    0.9903   -1.5695 H   0  0  0  0  0  0  0  0  0  0  0  0
    1.4353   -0.8065   -2.9081 H   0  0  0  0  0  0  0  0  0  0  0  0
  1  2  1  0
  2  3  1  0
  3  4  1  0
  4  5  1  0
  5  6  1  0
  6  7  1  0
  7  8  2  0
  8  9  1  0
  9 10  1  0
 10 11  2  0
 10 12  1  0
 12 13  2  0
 13 14  1  0
 14 15  1  0
 15 16  1  0
 14 17  2  0
 17 18  1  0
 18 19  2  0
 19 20  1  0
  9 21  2  0
 21 22  1  0
 22 23  2  0
 23 24  1  0
 24 25  1  0
 25 26  2  0
 25  5  1  0
 23  7  1  0
 19 12  1  0
  1 27  1  0
  1 28  1  0
  1 29  1  0
  2 30  1  0
  2 31  1  0
  3 32  1  0
  3 33  1  0
  4 34  1  0
  4 35  1  0
  6 36  1  0
  6 37  1  0
  8 38  1  0
 13 39  1  0
 16 40  1  0
 16 41  1  0
 16 42  1  0
 17 43  1  0
 18 44  1  0
 20 45  1  0
 21 46  1  0
 24 47  1  0
M  END
$$$$
