
     RDKit          3D

 43 46  0  0  0  0  0  0  0  0999 V2000
    7.9142    1.3537   -0.3860 C   0  0  0  0  0  0  0  0  0  0  0  0
    6.5556    0.9782    0.1291 C   0  0  0  0  0  0  0  0  0  0  0  0
    6.2343    1.1678    1.4785 C   0  0  0  0  0  0  0  0  0  0  0  0
    4.9828    0.7864    1.9676 C   0  0  0  0  0  0  0  0  0  0  0  0
    4.0369    0.2106    1.1119 C   0  0  0  0  0  0  0  0  0  0  0  0
    2.7121   -0.1785    1.6762 C   0  0  0  0  0  0  0  0  0  0  0  0
    2.6648   -0.5405    2.8449 O   0  0  0  0  0  0  0  0  0  0  0  0
    1.6591   -0.0474    0.8066 N   0  0  0  0  0  0  0  0  0  0  0  0
    0.3354   -0.3562    1.0734 C   0  0  0  0  0  0  0  0  0  0  0  0
   -0.0490   -0.9032    2.2304 N   0  0  0  0  0  0  0  0  0  0  0  0
   -1.3629   -1.1697    2.3822 C   0  0  0  0  0  0  0  0  0  0  0  0
   -2.2977   -0.9052    1.4105 C   0  0  0  0  0  0  0  0  0  0  0  0
   -1.8190   -0.3387    0.2470 C   0  0  0  0  0  0  0  0  0  0  0  0
   -0.5047   -0.0688    0.0610 N   0  0  0  0  0  0  0  0  0  0  0  0
   -2.7451   -0.0295   -0.8978 C   0  0  0  0  0  0  0  0  0  0  0  0
   -4.1615    0.2635   -0.3922 C   0  0  0  0  0  0  0  0  0  0  0  0
   -5.0814    0.5468   -1.5328 C   0  0  0  0  0  0  0  0  0  0  0  0
   -5.6525   -0.2243   -2.5252 C   0  0  0  0  0  0  0  0  0  0  0  0
   -6.4328    0.6548   -3.3143 C   0  0  0  0  0  0  0  0  0  0  0  0
   -6.2861    1.9027   -2.7572 C   0  0  0  0  0  0  0  0  0  0  0  0
   -5.4658    1.8466   -1.6776 O   0  0  0  0  0  0  0  0  0  0  0  0
   -4.6727   -0.8976    0.4626 C   0  0  0  0  0  0  0  0  0  0  0  0
   -3.7243   -1.2122    1.5974 C   0  0  0  0  0  0  0  0  0  0  0  0
   -4.1022   -1.7584    2.6287 O   0  0  0  0  0  0  0  0  0  0  0  0
    4.3651   -0.0109   -0.2316 C   0  0  0  0  0  0  0  0  0  0  0  0
    5.6193    0.3712   -0.7173 C   0  0  0  0  0  0  0  0  0  0  0  0
    8.3139    2.2153    0.1590 H   0  0  0  0  0  0  0  0  0  0  0  0
    7.8670    1.6325   -1.4440 H   0  0  0  0  0  0  0  0  0  0  0  0
    8.6034    0.5114   -0.2720 H   0  0  0  0  0  0  0  0  0  0  0  0
    6.9576    1.6100    2.1606 H   0  0  0  0  0  0  0  0  0  0  0  0
    4.7467    0.9373    3.0195 H   0  0  0  0  0  0  0  0  0  0  0  0
    1.7848    0.3734   -0.0988 H   0  0  0  0  0  0  0  0  0  0  0  0
   -1.6360   -1.6147    3.3357 H   0  0  0  0  0  0  0  0  0  0  0  0
   -2.3604    0.8334   -1.4562 H   0  0  0  0  0  0  0  0  0  0  0  0
   -2.7419   -0.8863   -1.5840 H   0  0  0  0  0  0  0  0  0  0  0  0
   -4.1180    1.1577    0.2477 H   0  0  0  0  0  0  0  0  0  0  0  0
   -5.5260   -1.2891   -2.6651 H   0  0  0  0  0  0  0  0  0  0  0  0
   -7.0294    0.4110   -4.1822 H   0  0  0  0  0  0  0  0  0  0  0  0
   -6.6775    2.8818   -2.9967 H   0  0  0  0  0  0  0  0  0  0  0  0
   -5.6461   -0.6352    0.8949 H   0  0  0  0  0  0  0  0  0  0  0  0
   -4.8009   -1.8127   -0.1281 H   0  0  0  0  0  0  0  0  0  0  0  0
    3.6741   -0.5083   -0.9062 H   0  0  0  0  0  0  0  0  0  0  0  0
    5.8669    0.1827   -1.7601 H   0  0  0  0  0  0  0  0  0  0  0  0
  1  2  1  0
  2  3  2  0
  3  4  1  0
  4  5  2  0
  5  6  1  0
  6  7  2  0
  6  8  1  0
  8  9  1  0
  9 10  2  0
 10 11  1  0
 11 12  2  0
 12 13  1  0
 13 14  2  0
 13 15  1  0
 15 16  1  0
 16 17  1  0
 17 18  2  0
 18 19  1  0
 19 20  2  0
 20 21  1  0
 16 22  1  0
 22 23  1  0
 23 24  2  0
  5 25  1  0
 25 26  2  0
 26  2  1  0
 14  9  1  0
 21 17  1  0
 23 12  1  0
  1 27  1  0
  1 28  1  0
  1 29  1  0
  3 30  1  0
  4 31  1  0
  8 32  1  0
 11 33  1  0
 15 34  1  0
 15 35  1  0
 16 36  1  0
 18 37  1  0
 19 38  1  0
 20 39  1  0
 22 40  1  0
 22 41  1  0
 25 42  1  0
 26 43  1  0
M  END
$$$$
