
     RDKit          3D

 54 58  0  0  0  0  0  0  0  0999 V2000
   -3.9161    2.6934    4.5251 O   0  0  0  0  0  0  0  0  0  0  0  0
   -4.1852    1.6546    3.9514 C   0  0  0  0  0  0  0  0  0  0  0  0
   -5.1843    0.8616    4.3773 O   0  0  0  0  0  0  0  0  0  0  0  0
   -3.4979    1.1194    2.7518 C   0  0  0  0  0  0  0  0  0  0  0  0
   -3.8842   -0.0746    2.1414 C   0  0  0  0  0  0  0  0  0  0  0  0
   -3.2047   -0.5388    1.0061 C   0  0  0  0  0  0  0  0  0  0  0  0
   -2.1323    0.1749    0.4491 C   0  0  0  0  0  0  0  0  0  0  0  0
   -1.4416   -0.2957   -0.7134 N   0  0  0  0  0  0  0  0  0  0  0  0
   -0.0662   -0.0036   -0.9408 C   0  0  0  0  0  0  0  0  0  0  0  0
    0.6971    0.6813   -0.2854 O   0  0  0  0  0  0  0  0  0  0  0  0
    0.2639   -0.7524   -2.2099 C   0  0  0  0  0  0  0  0  0  0  0  0
    1.4109   -0.8570   -2.8961 C   0  0  0  0  0  0  0  0  0  0  0  0
    2.6596   -0.3075   -2.5041 C   0  0  0  0  0  0  0  0  0  0  0  0
    3.7121    0.0987   -3.3156 C   0  0  0  0  0  0  0  0  0  0  0  0
    4.7611    0.5503   -2.4775 C   0  0  0  0  0  0  0  0  0  0  0  0
    4.3171    0.3927   -1.1838 C   0  0  0  0  0  0  0  0  0  0  0  0
    4.8776    0.6595    0.1376 C   0  0  0  0  0  0  0  0  0  0  0  0
    4.0650    0.6386    1.2844 C   0  0  0  0  0  0  0  0  0  0  0  0
    4.5954    0.8959    2.5532 C   0  0  0  0  0  0  0  0  0  0  0  0
    5.9583    1.1801    2.6826 C   0  0  0  0  0  0  0  0  0  0  0  0
    6.5253    1.4492    4.0095 N   0  0  0  0  0  4  0  0  0  0  0  0
    5.7680    1.3790    4.9878 O   0  0  0  0  0  0  0  0  0  0  0  0
    7.7311    1.7297    4.0742 O   0  0  0  0  0  1  0  0  0  0  0  0
    6.7865    1.2100    1.5541 C   0  0  0  0  0  0  0  0  0  0  0  0
    6.2426    0.9511    0.2904 C   0  0  0  0  0  0  0  0  0  0  0  0
    3.0679   -0.1488   -1.2048 O   0  0  0  0  0  0  0  0  0  0  0  0
   -0.9632   -1.3811   -2.6393 C   0  0  0  0  0  0  0  0  0  0  0  0
   -1.9225   -1.1030   -1.7448 C   0  0  0  0  0  0  0  0  0  0  0  0
   -3.3134   -1.5002   -1.9709 C   0  0  0  0  0  0  0  0  0  0  0  0
   -3.6688   -2.8560   -2.0182 C   0  0  0  0  0  0  0  0  0  0  0  0
   -4.9936   -3.2317   -2.2507 C   0  0  0  0  0  0  0  0  0  0  0  0
   -5.9714   -2.2576   -2.4455 C   0  0  0  0  0  0  0  0  0  0  0  0
   -5.6273   -0.9073   -2.4107 C   0  0  0  0  0  0  0  0  0  0  0  0
   -4.3034   -0.5294   -2.1784 C   0  0  0  0  0  0  0  0  0  0  0  0
   -1.7516    1.3666    1.0861 C   0  0  0  0  0  0  0  0  0  0  0  0
   -2.4259    1.8379    2.2209 C   0  0  0  0  0  0  0  0  0  0  0  0
   -5.5356    1.3328    5.1620 H   0  0  0  0  0  0  0  0  0  0  0  0
   -4.7064   -0.6631    2.5416 H   0  0  0  0  0  0  0  0  0  0  0  0
   -3.5159   -1.4967    0.6019 H   0  0  0  0  0  0  0  0  0  0  0  0
    1.4118   -1.4078   -3.8330 H   0  0  0  0  0  0  0  0  0  0  0  0
    3.7134    0.0807   -4.3969 H   0  0  0  0  0  0  0  0  0  0  0  0
    5.7161    0.9496   -2.7862 H   0  0  0  0  0  0  0  0  0  0  0  0
    2.9984    0.4290    1.1942 H   0  0  0  0  0  0  0  0  0  0  0  0
    3.9327    0.8724    3.4157 H   0  0  0  0  0  0  0  0  0  0  0  0
    7.8487    1.4299    1.6377 H   0  0  0  0  0  0  0  0  0  0  0  0
    6.9025    0.9745   -0.5740 H   0  0  0  0  0  0  0  0  0  0  0  0
   -1.0835   -1.9462   -3.5510 H   0  0  0  0  0  0  0  0  0  0  0  0
   -2.9192   -3.6288   -1.8628 H   0  0  0  0  0  0  0  0  0  0  0  0
   -5.2630   -4.2845   -2.2790 H   0  0  0  0  0  0  0  0  0  0  0  0
   -7.0028   -2.5505   -2.6257 H   0  0  0  0  0  0  0  0  0  0  0  0
   -6.3895   -0.1474   -2.5643 H   0  0  0  0  0  0  0  0  0  0  0  0
   -4.0494    0.5285   -2.1557 H   0  0  0  0  0  0  0  0  0  0  0  0
   -0.9389    1.9778    0.7006 H   0  0  0  0  0  0  0  0  0  0  0  0
   -2.1054    2.7703    2.6820 H   0  0  0  0  0  0  0  0  0  0  0  0
  1  2  2  0
  2  3  1  0
  2  4  1  0
  4  5  2  0
  5  6  1  0
  6  7  2  0
  7  8  1  0
  8  9  1  0
  9 10  2  0
  9 11  1  0
 11 12  2  3
 12 13  1  0
 13 14  2  0
 14 15  1  0
 15 16  2  0
 16 17  1  0
 17 18  2  0
 18 19  1  0
 19 20  2  0
 20 21  1  0
 21 22  2  0
 21 23  1  0
 20 24  1  0
 24 25  2  0
 16 26  1  0
 11 27  1  0
 27 28  2  0
 28 29  1  0
 29 30  2  0
 30 31  1  0
 31 32  2  0
 32 33  1  0
 33 34  2  0
  7 35  1  0
 35 36  2  0
 36  4  1  0
 28  8  1  0
 34 29  1  0
 26 13  1  0
 25 17  1  0
  3 37  1  0
  5 38  1  0
  6 39  1  0
 12 40  1  0
 14 41  1  0
 15 42  1  0
 18 43  1  0
 19 44  1  0
 24 45  1  0
 25 46  1  0
 27 47  1  0
 30 48  1  0
 31 49  1  0
 32 50  1  0
 33 51  1  0
 34 52  1  0
 35 53  1  0
 36 54  1  0
M  CHG  2  21   1  23  -1
M  END
$$$$
