
     RDKit          3D

 39 41  0  0  0  0  0  0  0  0999 V2000
   -2.3545    1.1194   -2.6513 C   0  0  0  0  0  0  0  0  0  0  0  0
   -2.8861    0.6614   -1.3168 C   0  0  0  0  0  0  0  0  0  0  0  0
   -4.2741    0.7349   -1.1104 C   0  0  0  0  0  0  0  0  0  0  0  0
   -4.8364    0.3069    0.0841 C   0  0  0  0  0  0  0  0  0  0  0  0
   -4.0135   -0.1680    1.0982 C   0  0  0  0  0  0  0  0  0  0  0  0
   -2.6145   -0.2294    0.9396 C   0  0  0  0  0  0  0  0  0  0  0  0
   -1.8322   -0.6490    2.1549 C   0  0  0  0  0  0  0  0  0  0  0  0
   -2.0451    0.1374   -0.2995 C   0  0  0  0  0  0  0  0  0  0  0  0
   -0.6572    0.0683   -0.5858 N   0  0  0  0  0  0  0  0  0  0  0  0
    0.2304   -0.9197   -0.1876 C   0  0  0  0  0  0  0  0  0  0  0  0
   -0.0506   -1.9372    0.4341 O   0  0  0  0  0  0  0  0  0  0  0  0
    1.6403   -0.6653   -0.7212 C   0  0  0  0  0  0  0  0  0  0  0  0
    2.7160   -1.6478   -0.2093 C   0  0  0  0  0  0  0  0  0  0  0  0
    3.8134   -0.7117    0.3303 C   0  0  0  0  0  0  0  0  0  0  0  0
    3.3242   -0.0855    1.6459 C   0  0  0  0  0  0  0  0  0  0  0  0
    2.2592    0.9135    1.1742 C   0  0  0  0  0  0  0  0  0  0  0  0
    2.2425    0.7117   -0.3522 C   0  0  0  0  0  0  0  0  0  0  0  0
    3.7278    0.4705   -0.6335 C   0  0  0  0  0  0  0  0  0  0  0  0
   -1.6845    1.9750   -2.5192 H   0  0  0  0  0  0  0  0  0  0  0  0
   -3.1603    1.4364   -3.3222 H   0  0  0  0  0  0  0  0  0  0  0  0
   -1.8203    0.3038   -3.1495 H   0  0  0  0  0  0  0  0  0  0  0  0
   -4.9297    1.1172   -1.8898 H   0  0  0  0  0  0  0  0  0  0  0  0
   -5.9118    0.3554    0.2322 H   0  0  0  0  0  0  0  0  0  0  0  0
   -4.4677   -0.4751    2.0389 H   0  0  0  0  0  0  0  0  0  0  0  0
   -1.7442   -1.7380    2.1995 H   0  0  0  0  0  0  0  0  0  0  0  0
   -2.3386   -0.3182    3.0697 H   0  0  0  0  0  0  0  0  0  0  0  0
   -0.8445   -0.1830    2.1842 H   0  0  0  0  0  0  0  0  0  0  0  0
   -0.3498    0.5981   -1.3888 H   0  0  0  0  0  0  0  0  0  0  0  0
    1.5836   -0.7591   -1.8149 H   0  0  0  0  0  0  0  0  0  0  0  0
    3.1046   -2.2369   -1.0486 H   0  0  0  0  0  0  0  0  0  0  0  0
    2.3655   -2.3470    0.5555 H   0  0  0  0  0  0  0  0  0  0  0  0
    4.7929   -1.1872    0.4093 H   0  0  0  0  0  0  0  0  0  0  0  0
    4.1383    0.4436    2.1540 H   0  0  0  0  0  0  0  0  0  0  0  0
    2.9145   -0.8277    2.3383 H   0  0  0  0  0  0  0  0  0  0  0  0
    2.5710    1.9350    1.4220 H   0  0  0  0  0  0  0  0  0  0  0  0
    1.2911    0.7387    1.6490 H   0  0  0  0  0  0  0  0  0  0  0  0
    1.8014    1.5497   -0.8965 H   0  0  0  0  0  0  0  0  0  0  0  0
    3.9330    0.1968   -1.6739 H   0  0  0  0  0  0  0  0  0  0  0  0
    4.3656    1.3121   -0.3430 H   0  0  0  0  0  0  0  0  0  0  0  0
  1  2  1  0
  2  3  2  0
  3  4  1  0
  4  5  2  0
  5  6  1  0
  6  7  1  0
  6  8  2  0
  8  9  1  0
  9 10  1  0
 10 11  2  0
 10 12  1  0
 12 13  1  0
 13 14  1  0
 14 15  1  0
 15 16  1  0
 16 17  1  0
 17 18  1  0
  8  2  1  0
 17 12  1  0
 18 14  1  0
  1 19  1  0
  1 20  1  0
  1 21  1  0
  3 22  1  0
  4 23  1  0
  5 24  1  0
  7 25  1  0
  7 26  1  0
  7 27  1  0
  9 28  1  0
 12 29  1  0
 13 30  1  0
 13 31  1  0
 14 32  1  0
 15 33  1  0
 15 34  1  0
 16 35  1  0
 16 36  1  0
 17 37  1  0
 18 38  1  0
 18 39  1  0
M  END
$$$$
