
     RDKit          3D

 39 40  0  0  0  0  0  0  0  0999 V2000
    7.5623    0.2600    0.3832 C   0  0  0  0  0  0  0  0  0  0  0  0
    6.8075   -0.8467   -0.0936 O   0  0  0  0  0  0  0  0  0  0  0  0
    5.4478   -0.7655    0.0305 C   0  0  0  0  0  0  0  0  0  0  0  0
    4.7341    0.3072    0.5639 C   0  0  0  0  0  0  0  0  0  0  0  0
    3.3371    0.2594    0.6304 C   0  0  0  0  0  0  0  0  0  0  0  0
    2.6374   -0.8623    0.1682 C   0  0  0  0  0  0  0  0  0  0  0  0
    1.1330   -0.8958    0.2232 C   0  0  0  0  0  0  0  0  0  0  0  0
    0.5023   -0.2352   -1.0016 C   0  0  0  0  0  0  0  0  0  0  0  0
   -0.9324   -0.3204   -0.9375 O   0  0  0  0  0  0  0  0  0  0  0  0
   -1.5401    0.6414   -0.2010 C   0  0  0  0  0  0  0  0  0  0  0  0
   -0.9828    1.5395    0.4084 O   0  0  0  0  0  0  0  0  0  0  0  0
   -3.0173    0.4629   -0.2186 C   0  0  0  0  0  0  0  0  0  0  0  0
   -3.6445   -0.5434   -0.9618 C   0  0  0  0  0  0  0  0  0  0  0  0
   -5.0397   -0.6698   -0.9482 C   0  0  0  0  0  0  0  0  0  0  0  0
   -5.8486    0.2223   -0.2300 C   0  0  0  0  0  0  0  0  0  0  0  0
   -7.2234   -0.0555   -0.1531 N   0  0  0  0  0  0  0  0  0  0  0  0
   -5.1975    1.1957    0.5535 C   0  0  0  0  0  0  0  0  0  0  0  0
   -5.9672    2.1207    1.3857 N   0  0  0  0  0  4  0  0  0  0  0  0
   -7.0940    2.4569    0.9875 O   0  0  0  0  0  0  0  0  0  0  0  0
   -5.4370    2.5278    2.4293 O   0  0  0  0  0  1  0  0  0  0  0  0
   -3.7982    1.3329    0.5491 C   0  0  0  0  0  0  0  0  0  0  0  0
    3.3567   -1.9337   -0.3706 C   0  0  0  0  0  0  0  0  0  0  0  0
    4.7512   -1.8825   -0.4357 C   0  0  0  0  0  0  0  0  0  0  0  0
    8.6212    0.0371    0.2207 H   0  0  0  0  0  0  0  0  0  0  0  0
    7.4141    0.4058    1.4583 H   0  0  0  0  0  0  0  0  0  0  0  0
    7.3243    1.1705   -0.1767 H   0  0  0  0  0  0  0  0  0  0  0  0
    5.2303    1.1968    0.9365 H   0  0  0  0  0  0  0  0  0  0  0  0
    2.7969    1.1076    1.0479 H   0  0  0  0  0  0  0  0  0  0  0  0
    0.7800   -1.9318    0.3066 H   0  0  0  0  0  0  0  0  0  0  0  0
    0.7872   -0.4103    1.1444 H   0  0  0  0  0  0  0  0  0  0  0  0
    0.8080   -0.7602   -1.9140 H   0  0  0  0  0  0  0  0  0  0  0  0
    0.8230    0.8075   -1.1206 H   0  0  0  0  0  0  0  0  0  0  0  0
   -3.0628   -1.2501   -1.5503 H   0  0  0  0  0  0  0  0  0  0  0  0
   -5.4935   -1.4858   -1.5084 H   0  0  0  0  0  0  0  0  0  0  0  0
   -7.6102   -0.5271   -0.9658 H   0  0  0  0  0  0  0  0  0  0  0  0
   -7.7924    0.7540    0.1129 H   0  0  0  0  0  0  0  0  0  0  0  0
   -3.3160    2.1080    1.1445 H   0  0  0  0  0  0  0  0  0  0  0  0
    2.8417   -2.8163   -0.7423 H   0  0  0  0  0  0  0  0  0  0  0  0
    5.3014   -2.7220   -0.8537 H   0  0  0  0  0  0  0  0  0  0  0  0
  1  2  1  0
  2  3  1  0
  3  4  2  0
  4  5  1  0
  5  6  2  0
  6  7  1  0
  7  8  1  0
  8  9  1  0
  9 10  1  0
 10 11  2  0
 10 12  1  0
 12 13  2  0
 13 14  1  0
 14 15  2  0
 15 16  1  0
 15 17  1  0
 17 18  1  0
 18 19  2  0
 18 20  1  0
 17 21  2  0
  6 22  1  0
 22 23  2  0
 23  3  1  0
 21 12  1  0
  1 24  1  0
  1 25  1  0
  1 26  1  0
  4 27  1  0
  5 28  1  0
  7 29  1  0
  7 30  1  0
  8 31  1  0
  8 32  1  0
 13 33  1  0
 14 34  1  0
 16 35  1  0
 16 36  1  0
 21 37  1  0
 22 38  1  0
 23 39  1  0
M  CHG  2  18   1  20  -1
M  END
$$$$
