
     RDKit          3D

 53 56  0  0  0  0  0  0  0  0999 V2000
    6.1232    2.2018    1.6324 C   0  0  0  0  0  0  0  0  0  0  0  0
    5.4363    1.0557    0.9497 C   0  0  0  0  0  0  0  0  0  0  0  0
    4.0628    0.9290    1.0099 C   0  0  0  0  0  0  0  0  0  0  0  0
    3.4747   -0.1631    0.3720 C   0  0  0  0  0  0  0  0  0  0  0  0
    1.9927   -0.2209    0.4107 C   0  0  0  0  0  0  0  0  0  0  0  0
    1.4371   -0.1317    1.4965 O   0  0  0  0  0  0  0  0  0  0  0  0
    1.3955   -0.2925   -0.8332 N   0  0  0  0  0  0  0  0  0  0  0  0
    0.0198   -0.4076   -1.1164 C   0  0  0  0  0  0  0  0  0  0  0  0
   -0.3573   -0.3643   -2.4607 C   0  0  0  0  0  0  0  0  0  0  0  0
   -1.6999   -0.4774   -2.8314 C   0  0  0  0  0  0  0  0  0  0  0  0
   -2.7054   -0.6319   -1.8666 C   0  0  0  0  0  0  0  0  0  0  0  0
   -4.1297   -0.7631   -2.3287 C   0  0  0  0  0  0  0  0  0  0  0  0
   -2.3204   -0.6787   -0.5139 C   0  0  0  0  0  0  0  0  0  0  0  0
   -3.5213   -0.8800    0.7943 S   0  0  0  0  0  6  0  0  0  0  0  0
   -2.8354   -0.9352    2.0674 O   0  0  0  0  0  0  0  0  0  0  0  0
   -4.4363   -1.9328    0.4084 O   0  0  0  0  0  0  0  0  0  0  0  0
   -4.3687    0.6031    0.7610 N   0  0  0  0  0  0  0  0  0  0  0  0
   -5.6653    0.5414    1.5129 C   0  0  0  0  0  0  0  0  0  0  0  0
   -6.1776    1.9528    1.8082 C   0  0  0  0  0  0  0  0  0  0  0  0
   -5.2951    2.7112    2.6478 O   0  0  0  0  0  0  0  0  0  0  0  0
   -3.9248    2.3054    2.5383 C   0  0  0  0  0  0  0  0  0  0  0  0
   -3.5625    1.8132    1.1348 C   0  0  0  0  0  0  0  0  0  0  0  0
   -0.9663   -0.5759   -0.1459 C   0  0  0  0  0  0  0  0  0  0  0  0
    4.2629   -1.1419   -0.2774 C   0  0  0  0  0  0  0  0  0  0  0  0
    3.7664   -2.3298   -0.8767 C   0  0  0  0  0  0  0  0  0  0  0  0
    4.6216   -3.2290   -1.5121 C   0  0  0  0  0  0  0  0  0  0  0  0
    5.9823   -2.9647   -1.5479 C   0  0  0  0  0  0  0  0  0  0  0  0
    6.4796   -1.8110   -0.9377 C   0  0  0  0  0  0  0  0  0  0  0  0
    5.6503   -0.9022   -0.2943 C   0  0  0  0  0  0  0  0  0  0  0  0
    6.2152    0.1684    0.2911 N   0  0  0  0  0  0  0  0  0  0  0  0
    5.9252    2.1740    2.7073 H   0  0  0  0  0  0  0  0  0  0  0  0
    5.7705    3.1530    1.2246 H   0  0  0  0  0  0  0  0  0  0  0  0
    7.2047    2.1484    1.4849 H   0  0  0  0  0  0  0  0  0  0  0  0
    3.4561    1.6583    1.5394 H   0  0  0  0  0  0  0  0  0  0  0  0
    2.0114   -0.2233   -1.6351 H   0  0  0  0  0  0  0  0  0  0  0  0
    0.3858   -0.2372   -3.2434 H   0  0  0  0  0  0  0  0  0  0  0  0
   -1.9543   -0.4462   -3.8898 H   0  0  0  0  0  0  0  0  0  0  0  0
   -4.2149   -0.5984   -3.4085 H   0  0  0  0  0  0  0  0  0  0  0  0
   -4.5066   -1.7698   -2.1282 H   0  0  0  0  0  0  0  0  0  0  0  0
   -4.7692   -0.0180   -1.8493 H   0  0  0  0  0  0  0  0  0  0  0  0
   -5.5208    0.0055    2.4576 H   0  0  0  0  0  0  0  0  0  0  0  0
   -6.3998    0.0047    0.9048 H   0  0  0  0  0  0  0  0  0  0  0  0
   -7.1462    1.9052    2.3144 H   0  0  0  0  0  0  0  0  0  0  0  0
   -6.3186    2.5157    0.8788 H   0  0  0  0  0  0  0  0  0  0  0  0
   -3.3077    3.1691    2.8059 H   0  0  0  0  0  0  0  0  0  0  0  0
   -3.7409    1.5273    3.2877 H   0  0  0  0  0  0  0  0  0  0  0  0
   -2.4883    1.6179    1.0791 H   0  0  0  0  0  0  0  0  0  0  0  0
   -3.7863    2.5887    0.3921 H   0  0  0  0  0  0  0  0  0  0  0  0
   -0.7029   -0.6348    0.9069 H   0  0  0  0  0  0  0  0  0  0  0  0
    2.7075   -2.5782   -0.8339 H   0  0  0  0  0  0  0  0  0  0  0  0
    4.2265   -4.1352   -1.9645 H   0  0  0  0  0  0  0  0  0  0  0  0
    6.6635   -3.6567   -2.0355 H   0  0  0  0  0  0  0  0  0  0  0  0
    7.5505   -1.6184   -0.9549 H   0  0  0  0  0  0  0  0  0  0  0  0
  1  2  1  0
  2  3  2  0
  3  4  1  0
  4  5  1  0
  5  6  2  0
  5  7  1  0
  7  8  1  0
  8  9  2  0
  9 10  1  0
 10 11  2  0
 11 12  1  0
 11 13  1  0
 13 14  1  0
 14 15  2  0
 14 16  2  0
 14 17  1  0
 17 18  1  0
 18 19  1  0
 19 20  1  0
 20 21  1  0
 21 22  1  0
 13 23  2  0
  4 24  2  0
 24 25  1  0
 25 26  2  0
 26 27  1  0
 27 28  2  0
 28 29  1  0
 29 30  2  0
 30  2  1  0
 23  8  1  0
 29 24  1  0
 22 17  1  0
  1 31  1  0
  1 32  1  0
  1 33  1  0
  3 34  1  0
  7 35  1  0
  9 36  1  0
 10 37  1  0
 12 38  1  0
 12 39  1  0
 12 40  1  0
 18 41  1  0
 18 42  1  0
 19 43  1  0
 19 44  1  0
 21 45  1  0
 21 46  1  0
 22 47  1  0
 22 48  1  0
 23 49  1  0
 25 50  1  0
 26 51  1  0
 27 52  1  0
 28 53  1  0
M  END
$$$$
