
     RDKit          3D

 41 44  0  0  0  0  0  0  0  0999 V2000
   -2.9790    0.1148   -2.9282 C   0  0  0  0  0  0  0  0  0  0  0  0
   -2.0863   -0.1893   -1.7288 C   0  0  0  0  0  0  0  0  0  0  0  0
   -2.7100   -1.2934   -0.8320 C   0  0  0  0  0  0  0  0  0  0  0  0
   -2.7654   -0.6253    0.5039 C   0  0  0  0  0  0  0  0  0  0  0  0
   -3.1854   -1.1732    1.7072 C   0  0  0  0  0  0  0  0  0  0  0  0
   -3.1392   -0.3722    2.8465 C   0  0  0  0  0  0  0  0  0  0  0  0
   -2.6818    0.9493    2.7615 C   0  0  0  0  0  0  0  0  0  0  0  0
   -2.2637    1.4839    1.5371 C   0  0  0  0  0  0  0  0  0  0  0  0
   -2.3065    0.6898    0.4043 C   0  0  0  0  0  0  0  0  0  0  0  0
   -1.9255    1.0092   -0.8847 N   0  0  0  0  0  0  0  0  0  0  0  0
   -1.0862    2.1425   -1.2822 C   0  0  0  0  0  0  0  0  0  0  0  0
    0.4258    1.8527   -1.2748 C   0  0  0  0  0  0  0  0  0  0  0  0
    1.1868    2.5174   -1.9757 O   0  0  0  0  0  0  0  0  0  0  0  0
    0.8000    0.8501   -0.4010 N   0  0  0  0  0  0  0  0  0  0  0  0
    2.0855    0.3464   -0.1356 C   0  0  0  0  0  0  0  0  0  0  0  0
    3.2523    0.8058   -0.7757 C   0  0  0  0  0  0  0  0  0  0  0  0
    4.5061    0.2609   -0.4672 C   0  0  0  0  0  0  0  0  0  0  0  0
    4.5591   -0.7349    0.4811 C   0  0  0  0  0  0  0  0  0  0  0  0
    3.4258   -1.1884    1.1106 C   0  0  0  0  0  0  0  0  0  0  0  0
    2.1786   -0.6719    0.8249 C   0  0  0  0  0  0  0  0  0  0  0  0
    3.6918   -2.1700    2.0144 O   0  0  0  0  0  0  0  0  0  0  0  0
    5.1248   -2.2790    1.8815 C   0  0  0  0  0  0  0  0  0  0  0  0
    5.6812   -1.3733    0.9062 O   0  0  0  0  0  0  0  0  0  0  0  0
   -2.5172    0.8585   -3.5852 H   0  0  0  0  0  0  0  0  0  0  0  0
   -3.9509    0.5106   -2.6127 H   0  0  0  0  0  0  0  0  0  0  0  0
   -3.1533   -0.7904   -3.5192 H   0  0  0  0  0  0  0  0  0  0  0  0
   -1.1082   -0.5316   -2.0897 H   0  0  0  0  0  0  0  0  0  0  0  0
   -3.7117   -1.5875   -1.1615 H   0  0  0  0  0  0  0  0  0  0  0  0
   -2.0613   -2.1746   -0.7998 H   0  0  0  0  0  0  0  0  0  0  0  0
   -3.5407   -2.1971    1.7636 H   0  0  0  0  0  0  0  0  0  0  0  0
   -3.4623   -0.7704    3.8051 H   0  0  0  0  0  0  0  0  0  0  0  0
   -2.6550    1.5677    3.6556 H   0  0  0  0  0  0  0  0  0  0  0  0
   -1.9211    2.5120    1.4962 H   0  0  0  0  0  0  0  0  0  0  0  0
   -1.2660    3.0145   -0.6444 H   0  0  0  0  0  0  0  0  0  0  0  0
   -1.3520    2.4364   -2.3036 H   0  0  0  0  0  0  0  0  0  0  0  0
    0.0291    0.4238    0.1021 H   0  0  0  0  0  0  0  0  0  0  0  0
    3.2152    1.5917   -1.5243 H   0  0  0  0  0  0  0  0  0  0  0  0
    5.4047    0.6145   -0.9604 H   0  0  0  0  0  0  0  0  0  0  0  0
    1.3060   -1.0528    1.3441 H   0  0  0  0  0  0  0  0  0  0  0  0
    5.5837   -2.0716    2.8552 H   0  0  0  0  0  0  0  0  0  0  0  0
    5.3723   -3.3057    1.5887 H   0  0  0  0  0  0  0  0  0  0  0  0
  1  2  1  0
  2  3  1  0
  3  4  1  0
  4  5  2  0
  5  6  1  0
  6  7  2  0
  7  8  1  0
  8  9  2  0
  9 10  1  0
 10 11  1  0
 11 12  1  0
 12 13  2  0
 12 14  1  0
 14 15  1  0
 15 16  2  0
 16 17  1  0
 17 18  2  0
 18 19  1  0
 19 20  2  0
 19 21  1  0
 21 22  1  0
 22 23  1  0
 10  2  1  0
 20 15  1  0
  9  4  1  0
 23 18  1  0
  1 24  1  0
  1 25  1  0
  1 26  1  0
  2 27  1  0
  3 28  1  0
  3 29  1  0
  5 30  1  0
  6 31  1  0
  7 32  1  0
  8 33  1  0
 11 34  1  0
 11 35  1  0
 14 36  1  0
 16 37  1  0
 17 38  1  0
 20 39  1  0
 22 40  1  0
 22 41  1  0
M  END
$$$$
