
     RDKit          3D

 98 98  0  0  0  0  0  0  0  0999 V2000
   10.0858   -3.9260    0.5687 C   0  0  0  0  0  0  0  0  0  0  0  0
   11.0031   -2.7253    0.7482 C   0  0  0  0  0  0  0  0  0  0  0  0
   10.5048   -1.8041    1.8632 C   0  0  0  0  0  0  0  0  0  0  0  0
   11.4279   -0.5916    2.0391 C   0  0  0  0  0  0  0  0  0  0  0  0
   10.9629    0.3529    3.1543 C   0  0  0  0  0  0  0  0  0  0  0  0
   10.1445    1.5608    2.6786 C   0  0  0  0  0  0  0  0  0  0  0  0
    8.8358    1.1933    1.9778 C   0  0  0  0  0  0  0  0  0  0  0  0
    7.9831    2.4349    1.7039 C   0  0  0  0  0  0  0  0  0  0  0  0
    6.6213    2.1090    1.0800 C   0  0  0  0  0  0  0  0  0  0  0  0
    6.7231    1.5874   -0.3558 C   0  0  0  0  0  0  0  0  0  0  0  0
    5.3652    1.2137   -0.9633 C   0  0  0  0  0  0  0  0  0  0  0  0
    4.4396    2.4138   -1.1791 C   0  0  0  0  0  0  0  0  0  0  0  0
    3.0888    2.0294   -1.7904 C   0  0  0  0  0  0  0  0  0  0  0  0
    3.1885    1.5854   -3.2530 C   0  0  0  0  0  0  0  0  0  0  0  0
    1.8207    1.3511   -3.8850 C   0  0  0  0  0  0  0  0  0  0  0  0
    1.2003    0.0629   -3.4121 C   0  0  0  0  0  0  0  0  0  0  0  0
    1.3783   -1.0223   -3.9483 O   0  0  0  0  0  0  0  0  0  0  0  0
    0.4434    0.2777   -2.3055 O   0  0  0  0  0  0  0  0  0  0  0  0
   -0.1738   -0.9015   -1.7911 C   0  0  0  0  0  0  0  0  0  0  0  0
   -0.8483   -0.5357   -0.5026 C   0  0  0  0  0  0  0  0  0  0  0  0
   -2.1480   -0.2406   -0.2880 C   0  0  0  0  0  0  0  0  0  0  0  0
   -2.6253    0.0290    1.1199 C   0  0  0  0  0  0  0  0  0  0  0  0
   -3.1159   -0.1289   -1.3751 C   0  0  0  0  0  0  0  0  0  0  0  0
   -4.4509   -0.0480   -1.2451 C   0  0  0  0  0  0  0  0  0  0  0  0
   -5.3467    0.0625   -2.3831 C   0  0  0  0  0  0  0  0  0  0  0  0
   -6.6969    0.0720   -2.3730 C   0  0  0  0  0  0  0  0  0  0  0  0
   -7.4464    0.1630   -3.6819 C   0  0  0  0  0  0  0  0  0  0  0  0
   -7.4944    0.0322   -1.1503 C   0  0  0  0  0  0  0  0  0  0  0  0
   -8.7677   -0.3880   -1.0540 C   0  0  0  0  0  0  0  0  0  0  0  0
   -9.5785   -0.4419    0.1649 C   0  0  0  0  0  0  0  0  0  0  0  0
  -10.8480    0.0484    0.1356 C   0  0  0  0  0  0  0  0  0  0  0  0
  -11.4825    0.7473   -1.0472 C   0  0  0  0  0  0  0  0  0  0  0  0
  -11.7981   -0.0513    1.3123 C   0  0  0  0  0  0  0  0  0  0  0  0
  -11.1523   -0.4947    2.6158 C   0  0  0  0  0  0  0  0  0  0  0  0
  -10.1623   -1.6180    2.3538 C   0  0  0  0  0  0  0  0  0  0  0  0
   -9.0077   -1.1662    1.4133 C   0  0  0  0  0  0  0  0  0  0  0  0
   -8.2297   -2.4533    1.0441 C   0  0  0  0  0  0  0  0  0  0  0  0
   -8.0695   -0.2344    2.2163 C   0  0  0  0  0  0  0  0  0  0  0  0
    9.0711   -3.6064    0.3111 H   0  0  0  0  0  0  0  0  0  0  0  0
   10.0363   -4.5193    1.4872 H   0  0  0  0  0  0  0  0  0  0  0  0
   10.4572   -4.5713   -0.2336 H   0  0  0  0  0  0  0  0  0  0  0  0
   11.0588   -2.1716   -0.1968 H   0  0  0  0  0  0  0  0  0  0  0  0
   12.0139   -3.0779    0.9799 H   0  0  0  0  0  0  0  0  0  0  0  0
   10.4588   -2.3652    2.8045 H   0  0  0  0  0  0  0  0  0  0  0  0
    9.4845   -1.4817    1.6342 H   0  0  0  0  0  0  0  0  0  0  0  0
   11.5368   -0.0494    1.0933 H   0  0  0  0  0  0  0  0  0  0  0  0
   12.4249   -0.9649    2.3021 H   0  0  0  0  0  0  0  0  0  0  0  0
   10.4014   -0.1979    3.9193 H   0  0  0  0  0  0  0  0  0  0  0  0
   11.8583    0.7506    3.6513 H   0  0  0  0  0  0  0  0  0  0  0  0
   10.7570    2.1781    2.0092 H   0  0  0  0  0  0  0  0  0  0  0  0
    9.9232    2.1809    3.5563 H   0  0  0  0  0  0  0  0  0  0  0  0
    8.2702    0.4930    2.6038 H   0  0  0  0  0  0  0  0  0  0  0  0
    9.0610    0.6900    1.0327 H   0  0  0  0  0  0  0  0  0  0  0  0
    8.5317    3.1303    1.0569 H   0  0  0  0  0  0  0  0  0  0  0  0
    7.8035    2.9560    2.6526 H   0  0  0  0  0  0  0  0  0  0  0  0
    6.0936    1.3779    1.7045 H   0  0  0  0  0  0  0  0  0  0  0  0
    6.0243    3.0269    1.0927 H   0  0  0  0  0  0  0  0  0  0  0  0
    7.2189    2.3343   -0.9880 H   0  0  0  0  0  0  0  0  0  0  0  0
    7.3498    0.6896   -0.3774 H   0  0  0  0  0  0  0  0  0  0  0  0
    4.8703    0.4725   -0.3228 H   0  0  0  0  0  0  0  0  0  0  0  0
    5.5576    0.7259   -1.9264 H   0  0  0  0  0  0  0  0  0  0  0  0
    4.9338    3.1625   -1.8097 H   0  0  0  0  0  0  0  0  0  0  0  0
    4.2366    2.8957   -0.2168 H   0  0  0  0  0  0  0  0  0  0  0  0
    2.6355    1.2398   -1.1819 H   0  0  0  0  0  0  0  0  0  0  0  0
    2.4238    2.8994   -1.7263 H   0  0  0  0  0  0  0  0  0  0  0  0
    3.7047    2.3638   -3.8272 H   0  0  0  0  0  0  0  0  0  0  0  0
    3.7884    0.6723   -3.3308 H   0  0  0  0  0  0  0  0  0  0  0  0
    1.1334    2.1843   -3.7029 H   0  0  0  0  0  0  0  0  0  0  0  0
    1.9230    1.2748   -4.9735 H   0  0  0  0  0  0  0  0  0  0  0  0
   -0.8730   -1.3123   -2.5261 H   0  0  0  0  0  0  0  0  0  0  0  0
    0.5850   -1.6634   -1.5776 H   0  0  0  0  0  0  0  0  0  0  0  0
   -0.1746   -0.5538    0.3523 H   0  0  0  0  0  0  0  0  0  0  0  0
   -1.8143   -0.0387    1.8522 H   0  0  0  0  0  0  0  0  0  0  0  0
   -3.3834   -0.7035    1.4184 H   0  0  0  0  0  0  0  0  0  0  0  0
   -3.0480    1.0354    1.2029 H   0  0  0  0  0  0  0  0  0  0  0  0
   -2.7032   -0.1051   -2.3830 H   0  0  0  0  0  0  0  0  0  0  0  0
   -4.9004   -0.0884   -0.2602 H   0  0  0  0  0  0  0  0  0  0  0  0
   -4.8466    0.1102   -3.3510 H   0  0  0  0  0  0  0  0  0  0  0  0
   -6.7757    0.3468   -4.5295 H   0  0  0  0  0  0  0  0  0  0  0  0
   -8.1647    0.9914   -3.6589 H   0  0  0  0  0  0  0  0  0  0  0  0
   -7.9853   -0.7679   -3.8921 H   0  0  0  0  0  0  0  0  0  0  0  0
   -7.0034    0.4003   -0.2597 H   0  0  0  0  0  0  0  0  0  0  0  0
   -9.2825   -0.7506   -1.9404 H   0  0  0  0  0  0  0  0  0  0  0  0
  -11.8545    1.7309   -0.7453 H   0  0  0  0  0  0  0  0  0  0  0  0
  -10.8015    0.9193   -1.8847 H   0  0  0  0  0  0  0  0  0  0  0  0
  -12.3272    0.1598   -1.4213 H   0  0  0  0  0  0  0  0  0  0  0  0
  -12.5829   -0.7687    1.0467 H   0  0  0  0  0  0  0  0  0  0  0  0
  -12.2953    0.9112    1.4788 H   0  0  0  0  0  0  0  0  0  0  0  0
  -10.6506    0.3542    3.0911 H   0  0  0  0  0  0  0  0  0  0  0  0
  -11.9251   -0.8329    3.3155 H   0  0  0  0  0  0  0  0  0  0  0  0
   -9.7625   -1.9791    3.3111 H   0  0  0  0  0  0  0  0  0  0  0  0
  -10.6998   -2.4682    1.9096 H   0  0  0  0  0  0  0  0  0  0  0  0
   -7.3144   -2.2434    0.4818 H   0  0  0  0  0  0  0  0  0  0  0  0
   -7.9257   -2.9974    1.9470 H   0  0  0  0  0  0  0  0  0  0  0  0
   -8.8440   -3.1280    0.4384 H   0  0  0  0  0  0  0  0  0  0  0  0
   -7.0749   -0.1612    1.7698 H   0  0  0  0  0  0  0  0  0  0  0  0
   -7.9184   -0.6092    3.2359 H   0  0  0  0  0  0  0  0  0  0  0  0
   -8.4692    0.7809    2.2948 H   0  0  0  0  0  0  0  0  0  0  0  0
  1  2  1  0
  2  3  1  0
  3  4  1  0
  4  5  1  0
  5  6  1  0
  6  7  1  0
  7  8  1  0
  8  9  1  0
  9 10  1  0
 10 11  1  0
 11 12  1  0
 12 13  1  0
 13 14  1  0
 14 15  1  0
 15 16  1  0
 16 17  2  0
 16 18  1  0
 18 19  1  0
 19 20  1  0
 20 21  2  3
 21 22  1  0
 21 23  1  0
 23 24  2  3
 24 25  1  0
 25 26  2  3
 26 27  1  0
 26 28  1  0
 28 29  2  3
 29 30  1  0
 30 31  2  0
 31 32  1  0
 31 33  1  0
 33 34  1  0
 34 35  1  0
 35 36  1  0
 36 37  1  0
 36 38  1  0
 36 30  1  0
  1 39  1  0
  1 40  1  0
  1 41  1  0
  2 42  1  0
  2 43  1  0
  3 44  1  0
  3 45  1  0
  4 46  1  0
  4 47  1  0
  5 48  1  0
  5 49  1  0
  6 50  1  0
  6 51  1  0
  7 52  1  0
  7 53  1  0
  8 54  1  0
  8 55  1  0
  9 56  1  0
  9 57  1  0
 10 58  1  0
 10 59  1  0
 11 60  1  0
 11 61  1  0
 12 62  1  0
 12 63  1  0
 13 64  1  0
 13 65  1  0
 14 66  1  0
 14 67  1  0
 15 68  1  0
 15 69  1  0
 19 70  1  0
 19 71  1  0
 20 72  1  0
 22 73  1  0
 22 74  1  0
 22 75  1  0
 23 76  1  0
 24 77  1  0
 25 78  1  0
 27 79  1  0
 27 80  1  0
 27 81  1  0
 28 82  1  0
 29 83  1  0
 32 84  1  0
 32 85  1  0
 32 86  1  0
 33 87  1  0
 33 88  1  0
 34 89  1  0
 34 90  1  0
 35 91  1  0
 35 92  1  0
 37 93  1  0
 37 94  1  0
 37 95  1  0
 38 96  1  0
 38 97  1  0
 38 98  1  0
M  END
$$$$
