
     RDKit          3D

 44 46  0  0  0  0  0  0  0  0999 V2000
   -1.9346    1.9180    2.0177 N   0  0  0  0  0  0  0  0  0  0  0  0
   -1.2637    1.1099    1.5233 C   0  0  0  0  0  0  0  0  0  0  0  0
   -0.4981    0.0886    0.9057 C   0  0  0  0  0  0  0  0  0  0  0  0
    0.8415    0.1172    0.7731 C   0  0  0  0  0  0  0  0  0  0  0  0
    1.7222    1.1419    1.2270 C   0  0  0  0  0  0  0  0  0  0  0  0
    1.6173    2.1163    2.2129 C   0  0  0  0  0  0  0  0  0  0  0  0
    2.8242    2.8600    2.2294 C   0  0  0  0  0  0  0  0  0  0  0  0
    3.6355    2.3097    1.2642 C   0  0  0  0  0  0  0  0  0  0  0  0
    4.9842    2.5883    0.7750 C   0  0  0  0  0  0  0  0  0  0  0  0
    5.7362    3.6437    1.3151 C   0  0  0  0  0  0  0  0  0  0  0  0
    7.0283    3.9178    0.8526 C   0  0  0  0  0  0  0  0  0  0  0  0
    7.5816    3.1359   -0.1574 C   0  0  0  0  0  0  0  0  0  0  0  0
    9.3262    3.5046   -0.7829 Br  0  0  0  0  0  0  0  0  0  0  0  0
    6.8558    2.0843   -0.7086 C   0  0  0  0  0  0  0  0  0  0  0  0
    5.5645    1.8142   -0.2432 C   0  0  0  0  0  0  0  0  0  0  0  0
    2.9771    1.2746    0.6708 O   0  0  0  0  0  0  0  0  0  0  0  0
   -1.1990   -1.1083    0.3274 C   0  0  0  0  0  0  0  0  0  0  0  0
   -0.5732   -2.0299   -0.1908 O   0  0  0  0  0  0  0  0  0  0  0  0
   -2.5763   -1.1106    0.4091 N   0  0  0  0  0  0  0  0  0  0  0  0
   -3.3761   -2.1660   -0.2038 C   0  0  0  0  0  0  0  0  0  0  0  0
   -3.5765   -1.8923   -1.7005 C   0  0  0  0  0  0  0  0  0  0  0  0
   -4.4705   -2.9448   -2.3513 C   0  0  0  0  0  0  0  0  0  0  0  0
   -5.8064   -3.0767   -1.6262 C   0  0  0  0  0  0  0  0  0  0  0  0
   -5.6133   -3.3490   -0.1375 C   0  0  0  0  0  0  0  0  0  0  0  0
   -4.7237   -2.2946    0.5155 C   0  0  0  0  0  0  0  0  0  0  0  0
    1.3399   -0.6935    0.2424 H   0  0  0  0  0  0  0  0  0  0  0  0
    0.7757    2.2847    2.8705 H   0  0  0  0  0  0  0  0  0  0  0  0
    3.0647    3.6902    2.8779 H   0  0  0  0  0  0  0  0  0  0  0  0
    5.3272    4.2698    2.1043 H   0  0  0  0  0  0  0  0  0  0  0  0
    7.5896    4.7407    1.2873 H   0  0  0  0  0  0  0  0  0  0  0  0
    7.2795    1.4685   -1.4974 H   0  0  0  0  0  0  0  0  0  0  0  0
    5.0134    0.9872   -0.6871 H   0  0  0  0  0  0  0  0  0  0  0  0
   -3.0786   -0.2947    0.7392 H   0  0  0  0  0  0  0  0  0  0  0  0
   -2.8286   -3.1110   -0.0920 H   0  0  0  0  0  0  0  0  0  0  0  0
   -2.6086   -1.8698   -2.2154 H   0  0  0  0  0  0  0  0  0  0  0  0
   -4.0233   -0.8990   -1.8395 H   0  0  0  0  0  0  0  0  0  0  0  0
   -4.6452   -2.6818   -3.4006 H   0  0  0  0  0  0  0  0  0  0  0  0
   -3.9554   -3.9134   -2.3462 H   0  0  0  0  0  0  0  0  0  0  0  0
   -6.3921   -3.8860   -2.0764 H   0  0  0  0  0  0  0  0  0  0  0  0
   -6.3842   -2.1533   -1.7560 H   0  0  0  0  0  0  0  0  0  0  0  0
   -5.1632   -4.3402   -0.0027 H   0  0  0  0  0  0  0  0  0  0  0  0
   -6.5880   -3.3701    0.3628 H   0  0  0  0  0  0  0  0  0  0  0  0
   -5.2445   -1.3279    0.5108 H   0  0  0  0  0  0  0  0  0  0  0  0
   -4.5613   -2.5532    1.5690 H   0  0  0  0  0  0  0  0  0  0  0  0
  1  2  3  0
  2  3  1  0
  3  4  2  3
  4  5  1  0
  5  6  2  0
  6  7  1  0
  7  8  2  0
  8  9  1  0
  9 10  2  0
 10 11  1  0
 11 12  2  0
 12 13  1  0
 12 14  1  0
 14 15  2  0
  8 16  1  0
  3 17  1  0
 17 18  2  0
 17 19  1  0
 19 20  1  0
 20 21  1  0
 21 22  1  0
 22 23  1  0
 23 24  1  0
 24 25  1  0
 16  5  1  0
 25 20  1  0
 15  9  1  0
  4 26  1  0
  6 27  1  0
  7 28  1  0
 10 29  1  0
 11 30  1  0
 14 31  1  0
 15 32  1  0
 19 33  1  0
 20 34  1  0
 21 35  1  0
 21 36  1  0
 22 37  1  0
 22 38  1  0
 23 39  1  0
 23 40  1  0
 24 41  1  0
 24 42  1  0
 25 43  1  0
 25 44  1  0
M  END
$$$$
