
     RDKit          3D

 49 51  0  0  0  0  0  0  0  0999 V2000
   -8.1735   -1.3544   -0.3510 C   0  0  0  0  0  0  0  0  0  0  0  0
   -7.5537   -0.0818    0.1678 C   0  0  0  0  0  0  0  0  0  0  0  0
   -8.2652    0.8008    0.6480 O   0  0  0  0  0  0  0  0  0  0  0  0
   -6.1713    0.0251    0.0943 N   0  0  0  0  0  0  0  0  0  0  0  0
   -5.5745    1.3244    0.4272 C   0  0  0  0  0  0  0  0  0  0  0  0
   -4.1204    1.2073    0.9143 C   0  0  0  0  0  0  0  0  0  0  0  0
   -3.3120    0.4269   -0.0485 N   0  0  0  0  0  0  0  0  0  0  0  0
   -1.9184    0.4230    0.1224 C   0  0  0  0  0  0  0  0  0  0  0  0
   -1.0957    0.0255   -0.9391 C   0  0  0  0  0  0  0  0  0  0  0  0
    0.3003    0.0106   -0.8217 C   0  0  0  0  0  0  0  0  0  0  0  0
    0.9314    0.4015    0.3643 C   0  0  0  0  0  0  0  0  0  0  0  0
    2.3414    0.3401    0.3653 N   0  0  0  0  0  0  0  0  0  0  0  0
    3.3116    0.6672    1.2819 C   0  0  0  0  0  0  0  0  0  0  0  0
    3.1782    1.3245    2.8107 S   0  0  0  0  0  0  0  0  0  0  0  0
    4.6106    0.4054    0.8627 N   0  0  0  0  0  0  0  0  0  0  0  0
    5.0554   -0.1211   -0.3436 C   0  0  0  0  0  0  0  0  0  0  0  0
    4.3132   -0.3670   -1.2907 O   0  0  0  0  0  0  0  0  0  0  0  0
    6.5218   -0.3399   -0.4633 C   0  0  0  0  0  0  0  0  0  0  0  0
    7.1088   -0.2184   -1.7291 C   0  0  0  0  0  0  0  0  0  0  0  0
    8.4817   -0.4138   -1.8868 C   0  0  0  0  0  0  0  0  0  0  0  0
    9.2699   -0.7411   -0.7843 C   0  0  0  0  0  0  0  0  0  0  0  0
    8.6876   -0.8820    0.4755 C   0  0  0  0  0  0  0  0  0  0  0  0
    7.3141   -0.6866    0.6394 C   0  0  0  0  0  0  0  0  0  0  0  0
    0.1263    0.8058    1.4225 C   0  0  0  0  0  0  0  0  0  0  0  0
   -1.2750    0.8216    1.2992 C   0  0  0  0  0  0  0  0  0  0  0  0
   -3.8749   -0.9238   -0.2837 C   0  0  0  0  0  0  0  0  0  0  0  0
   -5.3376   -0.8308   -0.7609 C   0  0  0  0  0  0  0  0  0  0  0  0
   -8.0045   -1.4467   -1.4269 H   0  0  0  0  0  0  0  0  0  0  0  0
   -9.2535   -1.3282   -0.1759 H   0  0  0  0  0  0  0  0  0  0  0  0
   -7.7652   -2.2179    0.1807 H   0  0  0  0  0  0  0  0  0  0  0  0
   -6.1716    1.8321    1.1925 H   0  0  0  0  0  0  0  0  0  0  0  0
   -5.6179    1.9355   -0.4831 H   0  0  0  0  0  0  0  0  0  0  0  0
   -3.7149    2.2201    1.0267 H   0  0  0  0  0  0  0  0  0  0  0  0
   -4.1128    0.7162    1.8960 H   0  0  0  0  0  0  0  0  0  0  0  0
   -1.5380   -0.2546   -1.8919 H   0  0  0  0  0  0  0  0  0  0  0  0
    0.8850   -0.3040   -1.6835 H   0  0  0  0  0  0  0  0  0  0  0  0
    2.7367   -0.0014   -0.5133 H   0  0  0  0  0  0  0  0  0  0  0  0
    5.3016    0.6826    1.5462 H   0  0  0  0  0  0  0  0  0  0  0  0
    6.4993    0.0317   -2.5956 H   0  0  0  0  0  0  0  0  0  0  0  0
    8.9350   -0.3145   -2.8703 H   0  0  0  0  0  0  0  0  0  0  0  0
   10.3391   -0.8969   -0.9093 H   0  0  0  0  0  0  0  0  0  0  0  0
    9.3048   -1.1551    1.3285 H   0  0  0  0  0  0  0  0  0  0  0  0
    6.8827   -0.8395    1.6246 H   0  0  0  0  0  0  0  0  0  0  0  0
    0.5307    1.1166    2.3757 H   0  0  0  0  0  0  0  0  0  0  0  0
   -1.8432    1.1411    2.1677 H   0  0  0  0  0  0  0  0  0  0  0  0
   -3.8332   -1.5009    0.6497 H   0  0  0  0  0  0  0  0  0  0  0  0
   -3.3106   -1.4789   -1.0416 H   0  0  0  0  0  0  0  0  0  0  0  0
   -5.3753   -0.3992   -1.7688 H   0  0  0  0  0  0  0  0  0  0  0  0
   -5.7540   -1.8396   -0.8211 H   0  0  0  0  0  0  0  0  0  0  0  0
  1  2  1  0
  2  3  2  0
  2  4  1  0
  4  5  1  0
  5  6  1  0
  6  7  1  0
  7  8  1  0
  8  9  2  0
  9 10  1  0
 10 11  2  0
 11 12  1  0
 12 13  1  0
 13 14  2  0
 13 15  1  0
 15 16  1  0
 16 17  2  0
 16 18  1  0
 18 19  2  0
 19 20  1  0
 20 21  2  0
 21 22  1  0
 22 23  2  0
 11 24  1  0
 24 25  2  0
  7 26  1  0
 26 27  1  0
 27  4  1  0
 25  8  1  0
 23 18  1  0
  1 28  1  0
  1 29  1  0
  1 30  1  0
  5 31  1  0
  5 32  1  0
  6 33  1  0
  6 34  1  0
  9 35  1  0
 10 36  1  0
 12 37  1  0
 15 38  1  0
 19 39  1  0
 20 40  1  0
 21 41  1  0
 22 42  1  0
 23 43  1  0
 24 44  1  0
 25 45  1  0
 26 46  1  0
 26 47  1  0
 27 48  1  0
 27 49  1  0
M  END
$$$$
