
     RDKit          3D

 30 31  0  0  0  0  0  0  0  0999 V2000
   -3.7999   -0.5011    0.7107 C   0  0  0  0  0  0  0  0  0  0  0  0
   -3.0401   -1.3194    1.5911 O   0  0  0  0  0  0  0  0  0  0  0  0
   -1.7671   -1.6391    1.2021 C   0  0  0  0  0  0  0  0  0  0  0  0
   -1.1528   -1.2235    0.0199 C   0  0  0  0  0  0  0  0  0  0  0  0
    0.1672   -1.6127   -0.2509 C   0  0  0  0  0  0  0  0  0  0  0  0
    0.9387   -1.1060   -1.7688 S   0  0  0  0  0  6  0  0  0  0  0  0
   -0.0425   -0.4719   -2.6235 O   0  0  0  0  0  0  0  0  0  0  0  0
    1.6884   -2.2505   -2.2506 O   0  0  0  0  0  0  0  0  0  0  0  0
    2.0888    0.0078   -1.2979 N   0  0  0  0  0  0  0  0  0  0  0  0
    1.6966    1.3151   -0.9623 C   0  0  0  0  0  0  0  0  0  0  0  0
    2.5383    2.3770   -1.2586 C   0  0  0  0  0  0  0  0  0  0  0  0
    2.1750    3.6505   -0.8282 C   0  0  0  0  0  0  0  0  0  0  0  0
    1.0028    3.8117   -0.0997 C   0  0  0  0  0  0  0  0  0  0  0  0
    0.2459    2.6851    0.1744 C   0  0  0  0  0  0  0  0  0  0  0  0
    0.5781    1.4399   -0.2307 N   0  0  0  0  0  0  0  0  0  0  0  0
    0.8741   -2.4369    0.6313 C   0  0  0  0  0  0  0  0  0  0  0  0
    0.2602   -2.8540    1.8095 C   0  0  0  0  0  0  0  0  0  0  0  0
   -1.0462   -2.4525    2.0861 C   0  0  0  0  0  0  0  0  0  0  0  0
   -1.6111   -2.8682    3.2302 F   0  0  0  0  0  0  0  0  0  0  0  0
   -3.3331    0.4813    0.5836 H   0  0  0  0  0  0  0  0  0  0  0  0
   -3.9532   -0.9953   -0.2544 H   0  0  0  0  0  0  0  0  0  0  0  0
   -4.7834   -0.3456    1.1645 H   0  0  0  0  0  0  0  0  0  0  0  0
   -1.6650   -0.5872   -0.6950 H   0  0  0  0  0  0  0  0  0  0  0  0
    2.9914   -0.1462   -1.7334 H   0  0  0  0  0  0  0  0  0  0  0  0
    3.4554    2.2321   -1.8172 H   0  0  0  0  0  0  0  0  0  0  0  0
    2.8032    4.5074   -1.0549 H   0  0  0  0  0  0  0  0  0  0  0  0
    0.6899    4.7887    0.2521 H   0  0  0  0  0  0  0  0  0  0  0  0
   -0.6734    2.7548    0.7493 H   0  0  0  0  0  0  0  0  0  0  0  0
    1.8898   -2.7522    0.4054 H   0  0  0  0  0  0  0  0  0  0  0  0
    0.7839   -3.4904    2.5159 H   0  0  0  0  0  0  0  0  0  0  0  0
  1  2  1  0
  2  3  1  0
  3  4  2  0
  4  5  1  0
  5  6  1  0
  6  7  2  0
  6  8  2  0
  6  9  1  0
  9 10  1  0
 10 11  2  0
 11 12  1  0
 12 13  2  0
 13 14  1  0
 14 15  2  0
  5 16  2  0
 16 17  1  0
 17 18  2  0
 18 19  1  0
 18  3  1  0
 15 10  1  0
  1 20  1  0
  1 21  1  0
  1 22  1  0
  4 23  1  0
  9 24  1  0
 11 25  1  0
 12 26  1  0
 13 27  1  0
 14 28  1  0
 16 29  1  0
 17 30  1  0
M  END
$$$$
