
     RDKit          3D

 43 46  0  0  0  0  0  0  0  0999 V2000
   -3.5510    5.8881   -4.5823 N   0  0  0  0  0  0  0  0  0  0  0  0
   -3.2158    4.8752   -4.1311 C   0  0  0  0  0  0  0  0  0  0  0  0
   -2.7806    3.6080   -3.5426 C   0  0  0  0  0  0  0  0  0  0  0  0
   -1.3698    3.7470   -2.9860 C   0  0  0  0  0  0  0  0  0  0  0  0
   -0.9388    2.5375   -2.3117 N   0  0  0  0  0  0  0  0  0  0  0  0
   -0.6582    2.3964   -0.9866 C   0  0  0  0  0  0  0  0  0  0  0  0
   -0.2840    1.0819   -0.8206 C   0  0  0  0  0  0  0  0  0  0  0  0
    0.0521    0.4533    0.4187 C   0  0  0  0  0  0  0  0  0  0  0  0
    0.8623    0.9178    1.3956 C   0  0  0  0  0  0  0  0  0  0  0  0
    1.5333    2.1746    1.2840 C   0  0  0  0  0  0  0  0  0  0  0  0
    2.0667    3.2034    1.2000 N   0  0  0  0  0  0  0  0  0  0  0  0
    1.0430    0.0933    2.5578 C   0  0  0  0  0  0  0  0  0  0  0  0
    0.1527   -0.7539    3.0473 N   0  0  0  0  0  0  0  0  0  0  0  0
    0.6450   -1.4091    4.1638 C   0  0  0  0  0  0  0  0  0  0  0  0
   -0.0502   -2.3597    4.9361 C   0  0  0  0  0  0  0  0  0  0  0  0
    0.5737   -2.9505    6.0393 C   0  0  0  0  0  0  0  0  0  0  0  0
    1.8784   -2.6140    6.3722 C   0  0  0  0  0  0  0  0  0  0  0  0
    2.5896   -1.6707    5.6225 C   0  0  0  0  0  0  0  0  0  0  0  0
    1.9479   -1.0747    4.5248 C   0  0  0  0  0  0  0  0  0  0  0  0
    2.5410    0.1166    3.4387 S   0  0  0  0  0  0  0  0  0  0  0  0
   -0.3841    0.4923   -2.1195 C   0  0  0  0  0  0  0  0  0  0  0  0
   -0.0908   -0.8794   -2.5385 C   0  0  0  0  0  0  0  0  0  0  0  0
   -0.9423   -1.5340   -3.4442 C   0  0  0  0  0  0  0  0  0  0  0  0
   -0.6712   -2.8410   -3.8548 C   0  0  0  0  0  0  0  0  0  0  0  0
    0.4552   -3.4910   -3.3667 C   0  0  0  0  0  0  0  0  0  0  0  0
    0.7172   -4.7425   -3.7636 F   0  0  0  0  0  0  0  0  0  0  0  0
    1.3181   -2.8586   -2.4781 C   0  0  0  0  0  0  0  0  0  0  0  0
    1.0483   -1.5510   -2.0664 C   0  0  0  0  0  0  0  0  0  0  0  0
   -0.8136    1.4006   -3.0132 N   0  0  0  0  0  0  0  0  0  0  0  0
   -3.4749    3.3142   -2.7464 H   0  0  0  0  0  0  0  0  0  0  0  0
   -2.8205    2.8178   -4.3022 H   0  0  0  0  0  0  0  0  0  0  0  0
   -0.6398    3.9492   -3.7810 H   0  0  0  0  0  0  0  0  0  0  0  0
   -1.3092    4.5722   -2.2632 H   0  0  0  0  0  0  0  0  0  0  0  0
   -0.7557    3.2233   -0.2950 H   0  0  0  0  0  0  0  0  0  0  0  0
   -0.3985   -0.5319    0.5556 H   0  0  0  0  0  0  0  0  0  0  0  0
   -1.0703   -2.6191    4.6749 H   0  0  0  0  0  0  0  0  0  0  0  0
    0.0319   -3.6769    6.6398 H   0  0  0  0  0  0  0  0  0  0  0  0
    2.3537   -3.0832    7.2310 H   0  0  0  0  0  0  0  0  0  0  0  0
    3.6098   -1.4079    5.8838 H   0  0  0  0  0  0  0  0  0  0  0  0
   -1.8198   -1.0227   -3.8368 H   0  0  0  0  0  0  0  0  0  0  0  0
   -1.3280   -3.3502   -4.5537 H   0  0  0  0  0  0  0  0  0  0  0  0
    2.1991   -3.3822   -2.1188 H   0  0  0  0  0  0  0  0  0  0  0  0
    1.7482   -1.0587   -1.3957 H   0  0  0  0  0  0  0  0  0  0  0  0
  1  2  3  0
  2  3  1  0
  3  4  1  0
  4  5  1  0
  5  6  1  0
  6  7  2  0
  7  8  1  0
  8  9  2  3
  9 10  1  0
 10 11  3  0
  9 12  1  0
 12 13  2  0
 13 14  1  0
 14 15  2  0
 15 16  1  0
 16 17  2  0
 17 18  1  0
 18 19  2  0
 19 20  1  0
  7 21  1  0
 21 22  1  0
 22 23  2  0
 23 24  1  0
 24 25  2  0
 25 26  1  0
 25 27  1  0
 27 28  2  0
 21 29  2  0
 29  5  1  0
 20 12  1  0
 28 22  1  0
 19 14  1  0
  3 30  1  0
  3 31  1  0
  4 32  1  0
  4 33  1  0
  6 34  1  0
  8 35  1  0
 15 36  1  0
 16 37  1  0
 17 38  1  0
 18 39  1  0
 23 40  1  0
 24 41  1  0
 27 42  1  0
 28 43  1  0
M  END
$$$$
