
     RDKit          3D

 33 36  0  0  0  0  0  0  0  0999 V2000
    5.9419   -0.8662   -1.4066 C   0  0  0  0  0  0  0  0  0  0  0  0
    5.4697    0.1647   -0.4623 C   0  0  0  0  0  0  0  0  0  0  0  0
    6.0983    1.1353    0.2774 C   0  0  0  0  0  0  0  0  0  0  0  0
    5.0735    1.8025    0.9892 C   0  0  0  0  0  0  0  0  0  0  0  0
    3.8575    1.2126    0.6564 C   0  0  0  0  0  0  0  0  0  0  0  0
    2.5625    1.5602    1.1336 C   0  0  0  0  0  0  0  0  0  0  0  0
    1.4134    0.9604    0.7914 C   0  0  0  0  0  0  0  0  0  0  0  0
    1.1401   -0.3830   -0.3023 S   0  0  0  0  0  0  0  0  0  0  0  0
   -0.5409   -0.2998    0.0143 C   0  0  0  0  0  0  0  0  0  0  0  0
   -1.5965   -0.9466   -0.3867 N   0  0  0  0  0  0  0  0  0  0  0  0
   -2.6091   -0.3100    0.3273 C   0  0  0  0  0  0  0  0  0  0  0  0
   -4.0046   -0.6973    0.1636 C   0  0  0  0  0  0  0  0  0  0  0  0
   -4.4631   -0.9475   -1.1436 C   0  0  0  0  0  0  0  0  0  0  0  0
   -5.7909   -1.3062   -1.3859 C   0  0  0  0  0  0  0  0  0  0  0  0
   -6.6805   -1.4267   -0.3235 C   0  0  0  0  0  0  0  0  0  0  0  0
   -6.2401   -1.1987    0.9803 C   0  0  0  0  0  0  0  0  0  0  0  0
   -4.9073   -0.8398    1.2293 C   0  0  0  0  0  0  0  0  0  0  0  0
   -4.4154   -0.6407    3.0571 Br  0  0  0  0  0  0  0  0  0  0  0  0
   -2.1908    0.7208    1.0931 N   0  0  0  0  0  0  0  0  0  0  0  0
   -0.8658    0.6762    0.8816 N   0  0  0  0  0  0  0  0  0  0  0  0
    0.1398    1.4646    1.3959 C   0  0  0  0  0  0  0  0  0  0  0  0
   -0.0371    2.3787    2.1811 O   0  0  0  0  0  0  0  0  0  0  0  0
    4.1310    0.2062   -0.2403 O   0  0  0  0  0  0  0  0  0  0  0  0
    5.6754   -1.8650   -1.0477 H   0  0  0  0  0  0  0  0  0  0  0  0
    7.0293   -0.8243   -1.5225 H   0  0  0  0  0  0  0  0  0  0  0  0
    5.4881   -0.7198   -2.3915 H   0  0  0  0  0  0  0  0  0  0  0  0
    7.1599    1.3377    0.3021 H   0  0  0  0  0  0  0  0  0  0  0  0
    5.2017    2.6286    1.6759 H   0  0  0  0  0  0  0  0  0  0  0  0
    2.5250    2.3898    1.8388 H   0  0  0  0  0  0  0  0  0  0  0  0
   -3.7796   -0.8578   -1.9870 H   0  0  0  0  0  0  0  0  0  0  0  0
   -6.1268   -1.4906   -2.4034 H   0  0  0  0  0  0  0  0  0  0  0  0
   -7.7150   -1.7062   -0.5072 H   0  0  0  0  0  0  0  0  0  0  0  0
   -6.9438   -1.3120    1.8021 H   0  0  0  0  0  0  0  0  0  0  0  0
  1  2  1  0
  2  3  2  0
  3  4  1  0
  4  5  2  0
  5  6  1  0
  6  7  2  3
  7  8  1  0
  8  9  1  0
  9 10  2  0
 10 11  1  0
 11 12  1  0
 12 13  2  0
 13 14  1  0
 14 15  2  0
 15 16  1  0
 16 17  2  0
 17 18  1  0
 11 19  2  0
 19 20  1  0
 20 21  1  0
 21 22  2  0
  5 23  1  0
 23  2  1  0
 21  7  1  0
 20  9  1  0
 17 12  1  0
  1 24  1  0
  1 25  1  0
  1 26  1  0
  3 27  1  0
  4 28  1  0
  6 29  1  0
 13 30  1  0
 14 31  1  0
 15 32  1  0
 16 33  1  0
M  END
$$$$
