
     RDKit          3D

 55 57  0  0  0  0  0  0  0  0999 V2000
    1.3945   -1.3640   -3.7593 N   0  0  0  0  0  0  0  0  0  0  0  0
    2.1120   -0.2993   -3.3578 C   0  0  0  0  0  0  0  0  0  0  0  0
    2.8526    0.4063   -4.1580 N   0  0  0  0  0  0  0  0  0  0  0  0
    3.3857    1.4913   -3.2876 C   0  0  0  0  0  0  0  0  0  0  0  0
    3.0095    1.1380   -1.8306 C   0  0  0  0  0  0  0  0  0  0  0  0
    4.2505    0.6937   -1.0376 C   0  0  0  0  0  0  0  0  0  0  0  0
    3.9757    0.4655    0.4319 C   0  0  0  0  0  0  0  0  0  0  0  0
    3.8275   -0.8367    0.9318 C   0  0  0  0  0  0  0  0  0  0  0  0
    3.5536   -1.0514    2.2842 C   0  0  0  0  0  0  0  0  0  0  0  0
    3.4270    0.0396    3.1372 C   0  0  0  0  0  0  0  0  0  0  0  0
    3.1584   -0.1232    4.4640 O   0  0  0  0  0  0  0  0  0  0  0  0
    3.5703    1.3367    2.6604 C   0  0  0  0  0  0  0  0  0  0  0  0
    3.8452    1.5515    1.3093 C   0  0  0  0  0  0  0  0  0  0  0  0
    2.0851    0.0218   -2.0378 N   0  0  0  0  0  0  0  0  0  0  0  0
    0.8948   -0.0663   -1.1985 C   0  0  0  0  0  0  0  0  0  0  0  0
   -0.2191    0.8639   -1.6894 C   0  0  0  0  0  0  0  0  0  0  0  0
   -1.4101    0.9360   -0.7282 C   0  0  0  0  0  0  0  0  0  0  0  0
   -2.1513   -0.3973   -0.5824 C   0  0  0  0  0  0  0  0  0  0  0  0
   -3.4497   -0.2761    0.2378 C   0  0  0  0  0  0  0  0  0  0  0  0
   -4.2119   -1.6069    0.2430 C   0  0  0  0  0  0  0  0  0  0  0  0
   -5.5741   -1.4844    0.9312 C   0  0  0  0  0  0  0  0  0  0  0  0
   -5.6156   -0.4133    2.0212 C   0  0  0  0  0  0  0  0  0  0  0  0
   -4.2577   -0.2315    2.6822 C   0  0  0  0  0  0  0  0  0  0  0  0
   -3.1838    0.2004    1.6797 C   0  0  0  0  0  0  0  0  0  0  0  0
    1.6520   -1.6252   -4.7049 H   0  0  0  0  0  0  0  0  0  0  0  0
    1.4739   -2.1460   -3.1237 H   0  0  0  0  0  0  0  0  0  0  0  0
    4.4660    1.5910   -3.4349 H   0  0  0  0  0  0  0  0  0  0  0  0
    2.9145    2.4354   -3.5846 H   0  0  0  0  0  0  0  0  0  0  0  0
    2.5275    1.9991   -1.3525 H   0  0  0  0  0  0  0  0  0  0  0  0
    4.6810   -0.2167   -1.4757 H   0  0  0  0  0  0  0  0  0  0  0  0
    5.0326    1.4607   -1.1156 H   0  0  0  0  0  0  0  0  0  0  0  0
    3.9170   -1.6909    0.2636 H   0  0  0  0  0  0  0  0  0  0  0  0
    3.4417   -2.0677    2.6479 H   0  0  0  0  0  0  0  0  0  0  0  0
    3.1134   -1.0742    4.6553 H   0  0  0  0  0  0  0  0  0  0  0  0
    3.4703    2.1785    3.3396 H   0  0  0  0  0  0  0  0  0  0  0  0
    3.9575    2.5711    0.9487 H   0  0  0  0  0  0  0  0  0  0  0  0
    1.1519    0.1875   -0.1644 H   0  0  0  0  0  0  0  0  0  0  0  0
    0.5456   -1.1045   -1.1804 H   0  0  0  0  0  0  0  0  0  0  0  0
    0.1768    1.8789   -1.8160 H   0  0  0  0  0  0  0  0  0  0  0  0
   -0.5677    0.5459   -2.6794 H   0  0  0  0  0  0  0  0  0  0  0  0
   -2.1075    1.6946   -1.1043 H   0  0  0  0  0  0  0  0  0  0  0  0
   -1.0602    1.2845    0.2503 H   0  0  0  0  0  0  0  0  0  0  0  0
   -1.4962   -1.1406   -0.1127 H   0  0  0  0  0  0  0  0  0  0  0  0
   -2.3960   -0.7774   -1.5823 H   0  0  0  0  0  0  0  0  0  0  0  0
   -4.0886    0.4696   -0.2560 H   0  0  0  0  0  0  0  0  0  0  0  0
   -4.3597   -1.9758   -0.7791 H   0  0  0  0  0  0  0  0  0  0  0  0
   -3.6130   -2.3667    0.7622 H   0  0  0  0  0  0  0  0  0  0  0  0
   -6.3467   -1.2570    0.1867 H   0  0  0  0  0  0  0  0  0  0  0  0
   -5.8400   -2.4593    1.3578 H   0  0  0  0  0  0  0  0  0  0  0  0
   -6.3712   -0.6788    2.7692 H   0  0  0  0  0  0  0  0  0  0  0  0
   -5.9332    0.5412    1.5826 H   0  0  0  0  0  0  0  0  0  0  0  0
   -3.9568   -1.1780    3.1491 H   0  0  0  0  0  0  0  0  0  0  0  0
   -4.3237    0.5060    3.4902 H   0  0  0  0  0  0  0  0  0  0  0  0
   -3.1172    1.2959    1.6777 H   0  0  0  0  0  0  0  0  0  0  0  0
   -2.2130   -0.1634    2.0388 H   0  0  0  0  0  0  0  0  0  0  0  0
  1  2  1  0
  2  3  2  0
  3  4  1  0
  4  5  1  0
  5  6  1  0
  6  7  1  0
  7  8  2  0
  8  9  1  0
  9 10  2  0
 10 11  1  0
 10 12  1  0
 12 13  2  0
  5 14  1  0
 14 15  1  0
 15 16  1  0
 16 17  1  0
 17 18  1  0
 18 19  1  0
 19 20  1  0
 20 21  1  0
 21 22  1  0
 22 23  1  0
 23 24  1  0
 14  2  1  0
 24 19  1  0
 13  7  1  0
  1 25  1  0
  1 26  1  0
  4 27  1  0
  4 28  1  0
  5 29  1  0
  6 30  1  0
  6 31  1  0
  8 32  1  0
  9 33  1  0
 11 34  1  0
 12 35  1  0
 13 36  1  0
 15 37  1  0
 15 38  1  0
 16 39  1  0
 16 40  1  0
 17 41  1  0
 17 42  1  0
 18 43  1  0
 18 44  1  0
 19 45  1  0
 20 46  1  0
 20 47  1  0
 21 48  1  0
 21 49  1  0
 22 50  1  0
 22 51  1  0
 23 52  1  0
 23 53  1  0
 24 54  1  0
 24 55  1  0
M  END
$$$$
