
     RDKit          3D

 57 58  0  0  0  0  0  0  0  0999 V2000
    3.3740    2.0894    1.7299 C   0  0  0  0  0  0  0  0  0  0  0  0
    4.5485    2.1805    0.7968 C   0  0  0  0  0  0  0  0  0  0  0  0
    5.0068    3.4366    0.3729 C   0  0  0  0  0  0  0  0  0  0  0  0
    6.0995    3.5398   -0.4872 C   0  0  0  0  0  0  0  0  0  0  0  0
    6.7495    2.3893   -0.9246 C   0  0  0  0  0  0  0  0  0  0  0  0
    6.2993    1.1326   -0.5156 C   0  0  0  0  0  0  0  0  0  0  0  0
    5.1865    1.0218    0.3227 C   0  0  0  0  0  0  0  0  0  0  0  0
    4.7010   -0.1785    0.7725 O   0  0  0  0  0  0  0  0  0  0  0  0
    4.6076   -1.2351   -0.1905 C   0  0  0  0  0  0  0  0  0  0  0  0
    3.4527   -1.0257   -1.1596 C   0  0  0  0  0  0  0  0  0  0  0  0
    2.1267   -1.1394   -0.4599 C   0  0  0  0  0  0  0  0  0  0  0  0
    1.3063   -0.2345   -0.3743 O   0  0  0  0  0  0  0  0  0  0  0  0
    1.9396   -2.3981    0.0283 O   0  0  0  0  0  0  0  0  0  0  0  0
    0.6651   -2.5887    0.6516 C   0  0  0  0  0  0  0  0  0  0  0  0
   -0.4753   -2.6209   -0.3682 C   0  0  0  0  0  0  0  0  0  0  0  0
   -0.2863   -2.9884   -1.5339 O   0  0  0  0  0  0  0  0  0  0  0  0
   -1.8302   -2.1511    0.0695 C   0  0  0  0  0  0  0  0  0  0  0  0
   -2.6396   -1.4975   -0.7952 C   0  0  0  0  0  0  0  0  0  0  0  0
   -2.2664   -1.2753   -2.1185 N   0  0  0  0  0  0  0  0  0  0  0  0
   -3.8724   -1.0245   -0.3442 N   0  0  0  0  0  0  0  0  0  0  0  0
   -4.7298   -0.1961   -1.2111 C   0  0  0  0  0  0  0  0  0  0  0  0
   -4.5986    1.3198   -0.9428 C   0  0  0  0  0  0  0  0  0  0  0  0
   -5.6859    2.0768   -1.7093 C   0  0  0  0  0  0  0  0  0  0  0  0
   -3.2233    1.8647   -1.3282 C   0  0  0  0  0  0  0  0  0  0  0  0
   -4.3286   -1.1909    0.9652 C   0  0  0  0  0  0  0  0  0  0  0  0
   -5.4290   -0.7777    1.3379 O   0  0  0  0  0  0  0  0  0  0  0  0
   -3.4777   -1.8503    1.8326 N   0  0  0  0  0  0  0  0  0  0  0  0
   -3.9428   -2.0532    3.1930 C   0  0  0  0  0  0  0  0  0  0  0  0
   -2.2799   -2.4038    1.4523 C   0  0  0  0  0  0  0  0  0  0  0  0
   -1.5934   -3.1062    2.1942 O   0  0  0  0  0  0  0  0  0  0  0  0
    2.5296    1.6053    1.2313 H   0  0  0  0  0  0  0  0  0  0  0  0
    3.6427    1.5212    2.6264 H   0  0  0  0  0  0  0  0  0  0  0  0
    3.0439    3.0812    2.0571 H   0  0  0  0  0  0  0  0  0  0  0  0
    4.5158    4.3447    0.7154 H   0  0  0  0  0  0  0  0  0  0  0  0
    6.4496    4.5182   -0.8056 H   0  0  0  0  0  0  0  0  0  0  0  0
    7.6155    2.4705   -1.5762 H   0  0  0  0  0  0  0  0  0  0  0  0
    6.8521    0.2591   -0.8428 H   0  0  0  0  0  0  0  0  0  0  0  0
    5.5476   -1.3785   -0.7318 H   0  0  0  0  0  0  0  0  0  0  0  0
    4.4598   -2.1571    0.3836 H   0  0  0  0  0  0  0  0  0  0  0  0
    3.4772   -1.7721   -1.9610 H   0  0  0  0  0  0  0  0  0  0  0  0
    3.5008   -0.0382   -1.6306 H   0  0  0  0  0  0  0  0  0  0  0  0
    0.5081   -1.8112    1.4075 H   0  0  0  0  0  0  0  0  0  0  0  0
    0.7003   -3.5604    1.1531 H   0  0  0  0  0  0  0  0  0  0  0  0
   -1.4219   -1.8027   -2.3778 H   0  0  0  0  0  0  0  0  0  0  0  0
   -3.0045   -1.5307   -2.7671 H   0  0  0  0  0  0  0  0  0  0  0  0
   -4.5641   -0.4139   -2.2703 H   0  0  0  0  0  0  0  0  0  0  0  0
   -5.7695   -0.4977   -1.0246 H   0  0  0  0  0  0  0  0  0  0  0  0
   -4.7477    1.5145    0.1261 H   0  0  0  0  0  0  0  0  0  0  0  0
   -5.5847    1.9318   -2.7901 H   0  0  0  0  0  0  0  0  0  0  0  0
   -6.6821    1.7339   -1.4119 H   0  0  0  0  0  0  0  0  0  0  0  0
   -5.6297    3.1510   -1.5051 H   0  0  0  0  0  0  0  0  0  0  0  0
   -2.9968    1.6652   -2.3804 H   0  0  0  0  0  0  0  0  0  0  0  0
   -3.1789    2.9482   -1.1759 H   0  0  0  0  0  0  0  0  0  0  0  0
   -2.4343    1.4199   -0.7148 H   0  0  0  0  0  0  0  0  0  0  0  0
   -4.7287   -2.8151    3.1802 H   0  0  0  0  0  0  0  0  0  0  0  0
   -4.3653   -1.1226    3.5846 H   0  0  0  0  0  0  0  0  0  0  0  0
   -3.1387   -2.3801    3.8578 H   0  0  0  0  0  0  0  0  0  0  0  0
  1  2  1  0
  2  3  2  0
  3  4  1  0
  4  5  2  0
  5  6  1  0
  6  7  2  0
  7  8  1  0
  8  9  1  0
  9 10  1  0
 10 11  1  0
 11 12  2  0
 11 13  1  0
 13 14  1  0
 14 15  1  0
 15 16  2  0
 15 17  1  0
 17 18  2  0
 18 19  1  0
 18 20  1  0
 20 21  1  0
 21 22  1  0
 22 23  1  0
 22 24  1  0
 20 25  1  0
 25 26  2  0
 25 27  1  0
 27 28  1  0
 27 29  1  0
 29 30  2  0
  7  2  1  0
 29 17  1  0
  1 31  1  0
  1 32  1  0
  1 33  1  0
  3 34  1  0
  4 35  1  0
  5 36  1  0
  6 37  1  0
  9 38  1  0
  9 39  1  0
 10 40  1  0
 10 41  1  0
 14 42  1  0
 14 43  1  0
 19 44  1  0
 19 45  1  0
 21 46  1  0
 21 47  1  0
 22 48  1  0
 23 49  1  0
 23 50  1  0
 23 51  1  0
 24 52  1  0
 24 53  1  0
 24 54  1  0
 28 55  1  0
 28 56  1  0
 28 57  1  0
M  END
$$$$
