
     RDKit          3D

 41 42  0  0  0  0  0  0  0  0999 V2000
   -4.6015   -0.6875    0.5635 C   0  0  0  0  0  0  0  0  0  0  0  0
   -3.8534    0.1090   -0.4938 C   0  0  0  0  0  0  0  0  0  0  0  0
   -2.5978    0.6719    0.0441 N   0  0  0  0  0  0  0  0  0  0  0  0
   -2.7814    1.9231    0.8101 C   0  0  0  0  0  0  0  0  0  0  0  0
   -2.5351    1.7078    2.2973 C   0  0  0  0  0  0  0  0  0  0  0  0
   -1.3294    0.1028   -0.2185 C   0  0  0  0  0  0  0  0  0  0  0  0
   -0.1565    0.7295    0.0237 C   0  0  0  0  0  0  0  0  0  0  0  0
    1.1618    0.1818   -0.2653 C   0  0  0  0  0  0  0  0  0  0  0  0
    2.2783    0.8174    0.1396 C   0  0  0  0  0  0  0  0  0  0  0  0
    3.6380    0.3321   -0.1257 C   0  0  0  0  0  0  0  0  0  0  0  0
    4.7464    0.9133    0.4011 C   0  0  0  0  0  0  0  0  0  0  0  0
    4.6758    2.0387    1.2747 C   0  0  0  0  0  0  0  0  0  0  0  0
    4.6068    2.9561    1.9826 N   0  0  0  0  0  0  0  0  0  0  0  0
    6.0545    0.4322    0.0982 C   0  0  0  0  0  0  0  0  0  0  0  0
    7.1133    0.0316   -0.1579 N   0  0  0  0  0  0  0  0  0  0  0  0
    3.7066   -0.8741   -1.0550 C   0  0  0  0  0  0  0  0  0  0  0  0
    2.5454   -1.8413   -0.8297 C   0  0  0  0  0  0  0  0  0  0  0  0
    1.2046   -1.1247   -1.0247 C   0  0  0  0  0  0  0  0  0  0  0  0
    0.0462   -2.0270   -0.6020 C   0  0  0  0  0  0  0  0  0  0  0  0
   -1.2920   -1.3108   -0.7931 C   0  0  0  0  0  0  0  0  0  0  0  0
   -5.4846   -1.1616    0.1238 H   0  0  0  0  0  0  0  0  0  0  0  0
   -3.9731   -1.4707    0.9982 H   0  0  0  0  0  0  0  0  0  0  0  0
   -4.9428   -0.0411    1.3779 H   0  0  0  0  0  0  0  0  0  0  0  0
   -4.4965    0.9168   -0.8649 H   0  0  0  0  0  0  0  0  0  0  0  0
   -3.6653   -0.5242   -1.3672 H   0  0  0  0  0  0  0  0  0  0  0  0
   -3.8018    2.3063    0.6857 H   0  0  0  0  0  0  0  0  0  0  0  0
   -2.1264    2.7105    0.4206 H   0  0  0  0  0  0  0  0  0  0  0  0
   -1.5080    1.3910    2.5002 H   0  0  0  0  0  0  0  0  0  0  0  0
   -2.7125    2.6384    2.8457 H   0  0  0  0  0  0  0  0  0  0  0  0
   -3.2030    0.9427    2.7044 H   0  0  0  0  0  0  0  0  0  0  0  0
   -0.1605    1.7262    0.4533 H   0  0  0  0  0  0  0  0  0  0  0  0
    2.1671    1.7446    0.7011 H   0  0  0  0  0  0  0  0  0  0  0  0
    3.6892   -0.5183   -2.0935 H   0  0  0  0  0  0  0  0  0  0  0  0
    4.6366   -1.4381   -0.9265 H   0  0  0  0  0  0  0  0  0  0  0  0
    2.6132   -2.2656    0.1812 H   0  0  0  0  0  0  0  0  0  0  0  0
    2.6237   -2.6803   -1.5317 H   0  0  0  0  0  0  0  0  0  0  0  0
    1.0907   -0.8919   -2.0935 H   0  0  0  0  0  0  0  0  0  0  0  0
    0.1549   -2.3187    0.4517 H   0  0  0  0  0  0  0  0  0  0  0  0
    0.0497   -2.9537   -1.1885 H   0  0  0  0  0  0  0  0  0  0  0  0
   -2.0586   -1.9352   -0.3215 H   0  0  0  0  0  0  0  0  0  0  0  0
   -1.5222   -1.2588   -1.8647 H   0  0  0  0  0  0  0  0  0  0  0  0
  1  2  1  0
  2  3  1  0
  3  4  1  0
  4  5  1  0
  3  6  1  0
  6  7  2  0
  7  8  1  0
  8  9  2  0
  9 10  1  0
 10 11  2  3
 11 12  1  0
 12 13  3  0
 11 14  1  0
 14 15  3  0
 10 16  1  0
 16 17  1  0
 17 18  1  0
 18 19  1  0
 19 20  1  0
 20  6  1  0
 18  8  1  0
  1 21  1  0
  1 22  1  0
  1 23  1  0
  2 24  1  0
  2 25  1  0
  4 26  1  0
  4 27  1  0
  5 28  1  0
  5 29  1  0
  5 30  1  0
  7 31  1  0
  9 32  1  0
 16 33  1  0
 16 34  1  0
 17 35  1  0
 17 36  1  0
 18 37  1  0
 19 38  1  0
 19 39  1  0
 20 40  1  0
 20 41  1  0
M  END
$$$$
