
     RDKit          3D

 43 46  0  0  0  0  0  0  0  0999 V2000
    7.8762    1.4283    1.3611 C   0  0  0  0  0  0  0  0  0  0  0  0
    6.5956    0.6820    1.1194 C   0  0  0  0  0  0  0  0  0  0  0  0
    6.6097   -0.7019    0.8764 C   0  0  0  0  0  0  0  0  0  0  0  0
    5.4314   -1.4184    0.6238 C   0  0  0  0  0  0  0  0  0  0  0  0
    4.2420   -0.6872    0.6171 C   0  0  0  0  0  0  0  0  0  0  0  0
    2.9342   -1.0484    0.4034 N   0  0  0  0  0  0  0  0  0  0  0  0
    2.1535    0.0892    0.4796 C   0  0  0  0  0  0  0  0  0  0  0  0
    0.7558   -0.0162    0.2289 C   0  0  0  0  0  0  0  0  0  0  0  0
   -0.0200   -0.9368    1.0053 C   0  0  0  0  0  0  0  0  0  0  0  0
   -0.5891   -1.7093    1.6671 N   0  0  0  0  0  0  0  0  0  0  0  0
    0.2567    0.7865   -0.7348 C   0  0  0  0  0  0  0  0  0  0  0  0
   -1.1032    0.8112   -1.1545 C   0  0  0  0  0  0  0  0  0  0  0  0
   -1.6663    1.5591   -2.1840 C   0  0  0  0  0  0  0  0  0  0  0  0
   -3.0425    1.2374   -2.2474 C   0  0  0  0  0  0  0  0  0  0  0  0
   -3.2774    0.3288   -1.2409 C   0  0  0  0  0  0  0  0  0  0  0  0
   -4.3911   -0.3124   -0.8188 N   0  0  0  0  0  0  0  0  0  0  0  0
   -5.6833   -0.1182   -1.4856 C   0  0  0  0  0  0  0  0  0  0  0  0
   -6.6661   -1.1979   -1.0091 C   0  0  0  0  0  0  0  0  0  0  0  0
   -6.9369   -1.0975    0.4033 O   0  0  0  0  0  0  0  0  0  0  0  0
   -5.7806   -0.7065    1.1684 C   0  0  0  0  0  0  0  0  0  0  0  0
   -4.4343   -1.0071    0.4786 C   0  0  0  0  0  0  0  0  0  0  0  0
   -2.1137    0.0672   -0.5932 O   0  0  0  0  0  0  0  0  0  0  0  0
    2.9003    1.1509    0.7253 N   0  0  0  0  0  0  0  0  0  0  0  0
    4.1899    0.6869    0.8328 C   0  0  0  0  0  0  0  0  0  0  0  0
    5.3772    1.3881    1.0881 C   0  0  0  0  0  0  0  0  0  0  0  0
    7.7420    2.1729    2.1552 H   0  0  0  0  0  0  0  0  0  0  0  0
    8.1942    1.9395    0.4423 H   0  0  0  0  0  0  0  0  0  0  0  0
    8.6776    0.7496    1.6770 H   0  0  0  0  0  0  0  0  0  0  0  0
    7.5587   -1.2435    0.8707 H   0  0  0  0  0  0  0  0  0  0  0  0
    5.4554   -2.4876    0.4257 H   0  0  0  0  0  0  0  0  0  0  0  0
    2.6092   -1.9798    0.1797 H   0  0  0  0  0  0  0  0  0  0  0  0
    0.9314    1.4624   -1.2636 H   0  0  0  0  0  0  0  0  0  0  0  0
   -1.1354    2.2560   -2.8221 H   0  0  0  0  0  0  0  0  0  0  0  0
   -3.7770    1.6371   -2.9325 H   0  0  0  0  0  0  0  0  0  0  0  0
   -5.5802   -0.1723   -2.5753 H   0  0  0  0  0  0  0  0  0  0  0  0
   -6.0702    0.8712   -1.2160 H   0  0  0  0  0  0  0  0  0  0  0  0
   -7.6225   -1.1189   -1.5407 H   0  0  0  0  0  0  0  0  0  0  0  0
   -6.2674   -2.2053   -1.1914 H   0  0  0  0  0  0  0  0  0  0  0  0
   -5.8700    0.3779    1.3358 H   0  0  0  0  0  0  0  0  0  0  0  0
   -5.8408   -1.1951    2.1506 H   0  0  0  0  0  0  0  0  0  0  0  0
   -4.3372   -2.0833    0.2950 H   0  0  0  0  0  0  0  0  0  0  0  0
   -3.6245   -0.7020    1.1493 H   0  0  0  0  0  0  0  0  0  0  0  0
    5.3388    2.4633    1.2500 H   0  0  0  0  0  0  0  0  0  0  0  0
  1  2  1  0
  2  3  2  0
  3  4  1  0
  4  5  2  0
  5  6  1  0
  6  7  1  0
  7  8  1  0
  8  9  1  0
  9 10  3  0
  8 11  2  3
 11 12  1  0
 12 13  2  0
 13 14  1  0
 14 15  2  0
 15 16  1  0
 16 17  1  0
 17 18  1  0
 18 19  1  0
 19 20  1  0
 20 21  1  0
 15 22  1  0
  7 23  2  0
 23 24  1  0
 24 25  2  0
 25  2  1  0
 24  5  1  0
 22 12  1  0
 21 16  1  0
  1 26  1  0
  1 27  1  0
  1 28  1  0
  3 29  1  0
  4 30  1  0
  6 31  1  0
 11 32  1  0
 13 33  1  0
 14 34  1  0
 17 35  1  0
 17 36  1  0
 18 37  1  0
 18 38  1  0
 20 39  1  0
 20 40  1  0
 21 41  1  0
 21 42  1  0
 25 43  1  0
M  END
$$$$
