
     RDKit          3D

 43 44  0  0  0  0  0  0  0  0999 V2000
   -2.5917   -0.6596    2.2537 O   0  0  0  0  0  0  0  0  0  0  0  0
   -2.1257    0.2091    1.5195 C   0  0  0  0  0  0  0  0  0  0  0  0
   -0.7310    0.7948    1.7656 C   0  0  0  0  0  0  0  0  0  0  0  0
   -0.3959    1.8213    0.8297 O   0  0  0  0  0  0  0  0  0  0  0  0
    0.9106    2.3407    1.0345 C   0  0  0  0  0  0  0  0  0  0  0  0
    2.0823    1.4638    0.5583 C   0  0  0  0  0  0  0  0  0  0  0  0
    1.9171    0.3390    0.0935 O   0  0  0  0  0  0  0  0  0  0  0  0
    3.3103    2.1073    0.7305 N   0  0  0  0  0  0  0  0  0  0  0  0
    4.5372    1.5227    0.5447 N   0  0  0  0  0  0  0  0  0  0  0  0
    4.6706    0.6795   -0.4309 C   0  0  0  0  0  0  0  0  0  0  0  0
    5.9439   -0.0319   -0.6709 C   0  0  0  0  0  0  0  0  0  0  0  0
    7.0590    0.1900    0.1466 C   0  0  0  0  0  0  0  0  0  0  0  0
    8.2490   -0.4952   -0.1046 C   0  0  0  0  0  0  0  0  0  0  0  0
    8.3131   -1.3930   -1.1653 C   0  0  0  0  0  0  0  0  0  0  0  0
    9.4557   -2.0491   -1.4048 F   0  0  0  0  0  0  0  0  0  0  0  0
    7.2094   -1.6211   -1.9816 C   0  0  0  0  0  0  0  0  0  0  0  0
    6.0165   -0.9384   -1.7354 C   0  0  0  0  0  0  0  0  0  0  0  0
   -2.7443    0.7779    0.4108 N   0  0  0  0  0  0  0  0  0  0  0  0
   -3.9026    0.3476   -0.1807 N   0  0  0  0  0  0  0  0  0  0  0  0
   -4.8329   -0.1393    0.5776 C   0  0  0  0  0  0  0  0  0  0  0  0
   -6.0919   -0.6690    0.0119 C   0  0  0  0  0  0  0  0  0  0  0  0
   -6.3213   -0.6588   -1.3695 C   0  0  0  0  0  0  0  0  0  0  0  0
   -7.5197   -1.1643   -1.8763 C   0  0  0  0  0  0  0  0  0  0  0  0
   -8.4735   -1.6743   -1.0015 C   0  0  0  0  0  0  0  0  0  0  0  0
   -9.6229   -2.1587   -1.4892 F   0  0  0  0  0  0  0  0  0  0  0  0
   -8.2532   -1.6902    0.3726 C   0  0  0  0  0  0  0  0  0  0  0  0
   -7.0564   -1.1856    0.8852 C   0  0  0  0  0  0  0  0  0  0  0  0
   -0.7252    1.2148    2.7775 H   0  0  0  0  0  0  0  0  0  0  0  0
   -0.0159   -0.0308    1.7012 H   0  0  0  0  0  0  0  0  0  0  0  0
    0.9640    3.2775    0.4682 H   0  0  0  0  0  0  0  0  0  0  0  0
    1.0539    2.5870    2.0935 H   0  0  0  0  0  0  0  0  0  0  0  0
    3.3460    2.8957    1.3707 H   0  0  0  0  0  0  0  0  0  0  0  0
    3.8620    0.4670   -1.1510 H   0  0  0  0  0  0  0  0  0  0  0  0
    7.0062    0.8908    0.9762 H   0  0  0  0  0  0  0  0  0  0  0  0
    9.1230   -0.3357    0.5190 H   0  0  0  0  0  0  0  0  0  0  0  0
    7.2854   -2.3293   -2.8009 H   0  0  0  0  0  0  0  0  0  0  0  0
    5.1542   -1.1224   -2.3716 H   0  0  0  0  0  0  0  0  0  0  0  0
   -2.1236    1.3066   -0.2025 H   0  0  0  0  0  0  0  0  0  0  0  0
   -4.7588   -0.1611    1.6777 H   0  0  0  0  0  0  0  0  0  0  0  0
   -5.5726   -0.2613   -2.0507 H   0  0  0  0  0  0  0  0  0  0  0  0
   -7.7133   -1.1644   -2.9442 H   0  0  0  0  0  0  0  0  0  0  0  0
   -9.0129   -2.0964    1.0330 H   0  0  0  0  0  0  0  0  0  0  0  0
   -6.8842   -1.2031    1.9585 H   0  0  0  0  0  0  0  0  0  0  0  0
  1  2  2  0
  2  3  1  0
  3  4  1  0
  4  5  1  0
  5  6  1  0
  6  7  2  0
  6  8  1  0
  8  9  1  0
  9 10  2  3
 10 11  1  0
 11 12  2  0
 12 13  1  0
 13 14  2  0
 14 15  1  0
 14 16  1  0
 16 17  2  0
  2 18  1  0
 18 19  1  0
 19 20  2  3
 20 21  1  0
 21 22  2  0
 22 23  1  0
 23 24  2  0
 24 25  1  0
 24 26  1  0
 26 27  2  0
 17 11  1  0
 27 21  1  0
  3 28  1  0
  3 29  1  0
  5 30  1  0
  5 31  1  0
  8 32  1  0
 10 33  1  0
 12 34  1  0
 13 35  1  0
 16 36  1  0
 17 37  1  0
 18 38  1  0
 20 39  1  0
 22 40  1  0
 23 41  1  0
 26 42  1  0
 27 43  1  0
M  END
$$$$
