
     RDKit          3D

 37 39  0  0  0  0  0  0  0  0999 V2000
   -3.5938   -0.7282    3.2396 C   0  0  0  0  0  0  0  0  0  0  0  0
   -3.7534   -0.5970    1.7540 C   0  0  0  0  0  0  0  0  0  0  0  0
   -4.9325   -0.8180    1.1543 C   0  0  0  0  0  0  0  0  0  0  0  0
   -5.1399   -0.7029   -0.2977 C   0  0  0  0  0  0  0  0  0  0  0  0
   -6.2419   -0.9161   -0.7901 O   0  0  0  0  0  0  0  0  0  0  0  0
   -4.0418   -0.3467   -1.0600 O   0  0  0  0  0  0  0  0  0  0  0  0
   -2.7899   -0.1073   -0.4614 C   0  0  0  0  0  0  0  0  0  0  0  0
   -1.7494    0.2452   -1.3220 C   0  0  0  0  0  0  0  0  0  0  0  0
   -0.4807    0.5056   -0.8074 C   0  0  0  0  0  0  0  0  0  0  0  0
    0.4578    0.8305   -1.7448 O   0  0  0  0  0  0  0  0  0  0  0  0
    1.7019    1.3993   -1.3153 C   0  0  0  0  0  0  0  0  0  0  0  0
    2.2658    2.2882   -2.4312 C   0  0  0  0  0  0  0  0  0  0  0  0
    2.9768    3.2714   -2.2658 O   0  0  0  0  0  0  0  0  0  0  0  0
    1.9572    1.8929   -3.6856 O   0  0  0  0  0  0  0  0  0  0  0  0
    2.7273    0.3430   -0.9299 C   0  0  0  0  0  0  0  0  0  0  0  0
    2.7446   -0.9185   -1.5450 C   0  0  0  0  0  0  0  0  0  0  0  0
    3.7022   -1.8691   -1.1885 C   0  0  0  0  0  0  0  0  0  0  0  0
    4.6590   -1.5680   -0.2216 C   0  0  0  0  0  0  0  0  0  0  0  0
    4.6629   -0.3149    0.3874 C   0  0  0  0  0  0  0  0  0  0  0  0
    3.7057    0.6375    0.0340 C   0  0  0  0  0  0  0  0  0  0  0  0
   -0.2709    0.3898    0.5664 C   0  0  0  0  0  0  0  0  0  0  0  0
   -1.3264    0.0329    1.4205 C   0  0  0  0  0  0  0  0  0  0  0  0
   -2.6072   -0.2193    0.9166 C   0  0  0  0  0  0  0  0  0  0  0  0
   -4.5335   -1.0124    3.7265 H   0  0  0  0  0  0  0  0  0  0  0  0
   -2.8562   -1.4997    3.4850 H   0  0  0  0  0  0  0  0  0  0  0  0
   -3.2748    0.2215    3.6821 H   0  0  0  0  0  0  0  0  0  0  0  0
   -5.8176   -1.0998    1.7135 H   0  0  0  0  0  0  0  0  0  0  0  0
   -1.9301    0.3184   -2.3912 H   0  0  0  0  0  0  0  0  0  0  0  0
    1.5103    2.0839   -0.4776 H   0  0  0  0  0  0  0  0  0  0  0  0
    2.4113    2.5406   -4.2626 H   0  0  0  0  0  0  0  0  0  0  0  0
    2.0087   -1.1688   -2.3076 H   0  0  0  0  0  0  0  0  0  0  0  0
    3.7024   -2.8442   -1.6689 H   0  0  0  0  0  0  0  0  0  0  0  0
    5.4059   -2.3086    0.0525 H   0  0  0  0  0  0  0  0  0  0  0  0
    5.4164   -0.0772    1.1342 H   0  0  0  0  0  0  0  0  0  0  0  0
    3.7340    1.6152    0.5117 H   0  0  0  0  0  0  0  0  0  0  0  0
    0.7050    0.5495    1.0137 H   0  0  0  0  0  0  0  0  0  0  0  0
   -1.1150   -0.0488    2.4838 H   0  0  0  0  0  0  0  0  0  0  0  0
  1  2  1  0
  2  3  2  0
  3  4  1  0
  4  5  2  0
  4  6  1  0
  6  7  1  0
  7  8  2  0
  8  9  1  0
  9 10  1  0
 10 11  1  0
 11 12  1  0
 12 13  2  0
 12 14  1  0
 11 15  1  0
 15 16  2  0
 16 17  1  0
 17 18  2  0
 18 19  1  0
 19 20  2  0
  9 21  2  0
 21 22  1  0
 22 23  2  0
 23  2  1  0
 23  7  1  0
 20 15  1  0
  1 24  1  0
  1 25  1  0
  1 26  1  0
  3 27  1  0
  8 28  1  0
 11 29  1  0
 14 30  1  0
 16 31  1  0
 17 32  1  0
 18 33  1  0
 19 34  1  0
 20 35  1  0
 21 36  1  0
 22 37  1  0
M  END
$$$$
