
     RDKit          3D

 41 43  0  0  0  0  0  0  0  0999 V2000
    2.3777    0.7248   -3.6656 Cl  0  0  0  0  0  0  0  0  0  0  0  0
    2.6924    0.4332   -1.9945 C   0  0  0  0  0  0  0  0  0  0  0  0
    2.6617    1.5442   -1.1423 C   0  0  0  0  0  0  0  0  0  0  0  0
    2.9358    1.4023    0.2158 C   0  0  0  0  0  0  0  0  0  0  0  0
    3.2479    0.1493    0.7290 C   0  0  0  0  0  0  0  0  0  0  0  0
    3.2744   -0.9646   -0.1171 C   0  0  0  0  0  0  0  0  0  0  0  0
    2.9735   -0.8484   -1.4904 C   0  0  0  0  0  0  0  0  0  0  0  0
    2.9653   -2.0952   -2.3486 C   0  0  0  0  0  0  0  0  0  0  0  0
    1.7015   -3.3070   -1.8409 S   0  0  0  0  0  0  0  0  0  0  0  0
    0.2542   -2.4358   -2.2231 C   0  0  0  0  0  0  0  0  0  0  0  0
   -0.0056   -1.7836   -3.3315 N   0  0  0  0  0  0  0  0  0  0  0  0
   -1.2701   -1.2388   -3.2088 N   0  0  0  0  0  0  0  0  0  0  0  0
   -1.7373   -1.5843   -2.0302 C   0  0  0  0  0  0  0  0  0  0  0  0
   -0.8134   -2.3404   -1.3674 N   0  0  0  0  0  0  0  0  0  0  0  0
   -0.9929   -2.9682   -0.0768 N   0  0  0  0  0  0  0  0  0  0  0  0
   -0.4628   -2.1246    0.9934 C   0  0  0  0  0  0  0  0  0  0  0  0
   -1.3790   -0.9819    1.3134 C   0  0  0  0  0  0  0  0  0  0  0  0
   -1.0173    0.3099    1.2332 C   0  0  0  0  0  0  0  0  0  0  0  0
   -1.8952    1.4350    1.5791 C   0  0  0  0  0  0  0  0  0  0  0  0
   -1.3429    2.5532    2.2163 C   0  0  0  0  0  0  0  0  0  0  0  0
   -2.1422    3.6538    2.5363 C   0  0  0  0  0  0  0  0  0  0  0  0
   -3.4977    3.6515    2.2130 C   0  0  0  0  0  0  0  0  0  0  0  0
   -4.0549    2.5527    1.5657 C   0  0  0  0  0  0  0  0  0  0  0  0
   -3.2553    1.4509    1.2463 C   0  0  0  0  0  0  0  0  0  0  0  0
    2.4278    2.5290   -1.5396 H   0  0  0  0  0  0  0  0  0  0  0  0
    2.9099    2.2705    0.8699 H   0  0  0  0  0  0  0  0  0  0  0  0
    3.4664    0.0348    1.7885 H   0  0  0  0  0  0  0  0  0  0  0  0
    3.5209   -1.9371    0.3077 H   0  0  0  0  0  0  0  0  0  0  0  0
    3.9461   -2.5761   -2.2468 H   0  0  0  0  0  0  0  0  0  0  0  0
    2.8458   -1.8897   -3.4157 H   0  0  0  0  0  0  0  0  0  0  0  0
   -2.7026   -1.3299   -1.6197 H   0  0  0  0  0  0  0  0  0  0  0  0
   -0.4864   -3.8537   -0.0651 H   0  0  0  0  0  0  0  0  0  0  0  0
   -0.3822   -2.7399    1.8984 H   0  0  0  0  0  0  0  0  0  0  0  0
    0.5521   -1.7824    0.7679 H   0  0  0  0  0  0  0  0  0  0  0  0
   -2.3747   -1.2534    1.6617 H   0  0  0  0  0  0  0  0  0  0  0  0
   -0.0144    0.5755    0.9115 H   0  0  0  0  0  0  0  0  0  0  0  0
   -0.2852    2.5733    2.4754 H   0  0  0  0  0  0  0  0  0  0  0  0
   -1.7079    4.5144    3.0345 H   0  0  0  0  0  0  0  0  0  0  0  0
   -4.1191    4.5094    2.4583 H   0  0  0  0  0  0  0  0  0  0  0  0
   -5.1084    2.5541    1.2991 H   0  0  0  0  0  0  0  0  0  0  0  0
   -3.7057    0.6130    0.7209 H   0  0  0  0  0  0  0  0  0  0  0  0
  1  2  1  0
  2  3  2  0
  3  4  1  0
  4  5  2  0
  5  6  1  0
  6  7  2  0
  7  8  1  0
  8  9  1  0
  9 10  1  0
 10 11  2  0
 11 12  1  0
 12 13  2  0
 13 14  1  0
 14 15  1  0
 15 16  1  0
 16 17  1  0
 17 18  2  3
 18 19  1  0
 19 20  2  0
 20 21  1  0
 21 22  2  0
 22 23  1  0
 23 24  2  0
  7  2  1  0
 14 10  1  0
 24 19  1  0
  3 25  1  0
  4 26  1  0
  5 27  1  0
  6 28  1  0
  8 29  1  0
  8 30  1  0
 13 31  1  0
 15 32  1  0
 16 33  1  0
 16 34  1  0
 17 35  1  0
 18 36  1  0
 20 37  1  0
 21 38  1  0
 22 39  1  0
 23 40  1  0
 24 41  1  0
M  END
$$$$
