
     RDKit          3D

 55 57  0  0  0  0  0  0  0  0999 V2000
   -7.3575   -1.7519   -2.1413 C   0  0  0  0  0  0  0  0  0  0  0  0
   -6.5756   -0.5809   -1.9533 O   0  0  0  0  0  0  0  0  0  0  0  0
   -6.0150   -0.3905   -0.7182 C   0  0  0  0  0  0  0  0  0  0  0  0
   -6.1413   -1.2623    0.3656 C   0  0  0  0  0  0  0  0  0  0  0  0
   -5.5275   -0.9650    1.5899 C   0  0  0  0  0  0  0  0  0  0  0  0
   -4.7825    0.2086    1.7485 C   0  0  0  0  0  0  0  0  0  0  0  0
   -4.1724    0.5067    3.0460 C   0  0  0  0  0  0  0  0  0  0  0  0
   -2.8593    0.5418    3.3169 C   0  0  0  0  0  0  0  0  0  0  0  0
   -2.2596    0.9087    4.8935 S   0  0  0  0  0  0  0  0  0  0  0  0
   -0.5800    0.7601    4.4004 C   0  0  0  0  0  0  0  0  0  0  0  0
    0.6793    1.0430    5.4591 S   0  0  0  0  0  0  0  0  0  0  0  0
   -0.5126    0.3983    3.0719 N   0  0  0  0  0  0  0  0  0  0  0  0
    0.7366    0.2050    2.3291 C   0  0  0  0  0  0  0  0  0  0  0  0
    1.1970    1.5073    1.6611 C   0  0  0  0  0  0  0  0  0  0  0  0
    2.6782    1.4965    1.2820 C   0  0  0  0  0  0  0  0  0  0  0  0
    3.0341    0.5092    0.1814 C   0  0  0  0  0  0  0  0  0  0  0  0
    2.1963   -0.2229   -0.3300 O   0  0  0  0  0  0  0  0  0  0  0  0
    4.3842    0.5604   -0.1257 N   0  0  0  0  0  0  0  0  0  0  0  0
    5.0765   -0.2086   -1.0849 C   0  0  0  0  0  0  0  0  0  0  0  0
    4.4763   -1.1743   -1.8953 C   0  0  0  0  0  0  0  0  0  0  0  0
    5.2333   -1.8957   -2.8245 C   0  0  0  0  0  0  0  0  0  0  0  0
    6.6002   -1.6580   -2.9541 C   0  0  0  0  0  0  0  0  0  0  0  0
    7.2138   -0.6936   -2.1498 C   0  0  0  0  0  0  0  0  0  0  0  0
    8.6624   -0.3945   -2.2451 C   0  0  0  0  0  0  0  0  0  0  0  0
    9.2630    0.4260   -1.5755 O   0  0  0  0  0  0  0  0  0  0  0  0
    9.2901   -1.1350   -3.1750 O   0  0  0  0  0  0  0  0  0  0  0  0
    6.4508    0.0263   -1.2186 C   0  0  0  0  0  0  0  0  0  0  0  0
   -1.7167    0.2807    2.3928 C   0  0  0  0  0  0  0  0  0  0  0  0
   -1.8321    0.0149    1.2055 O   0  0  0  0  0  0  0  0  0  0  0  0
   -4.6657    1.0922    0.6744 C   0  0  0  0  0  0  0  0  0  0  0  0
   -5.2559    0.7777   -0.5521 C   0  0  0  0  0  0  0  0  0  0  0  0
   -5.1143    1.6820   -1.5770 O   0  0  0  0  0  0  0  0  0  0  0  0
   -4.0014    1.3089   -2.3907 C   0  0  0  0  0  0  0  0  0  0  0  0
   -7.7336   -1.7421   -3.1691 H   0  0  0  0  0  0  0  0  0  0  0  0
   -6.7509   -2.6552   -2.0182 H   0  0  0  0  0  0  0  0  0  0  0  0
   -8.2231   -1.7619   -1.4707 H   0  0  0  0  0  0  0  0  0  0  0  0
   -6.7087   -2.1840    0.2949 H   0  0  0  0  0  0  0  0  0  0  0  0
   -5.6372   -1.6630    2.4172 H   0  0  0  0  0  0  0  0  0  0  0  0
   -4.8961    0.6991    3.8361 H   0  0  0  0  0  0  0  0  0  0  0  0
    0.5741   -0.5716    1.5738 H   0  0  0  0  0  0  0  0  0  0  0  0
    1.5068   -0.1711    3.0095 H   0  0  0  0  0  0  0  0  0  0  0  0
    0.5783    1.7028    0.7767 H   0  0  0  0  0  0  0  0  0  0  0  0
    1.0324    2.3503    2.3431 H   0  0  0  0  0  0  0  0  0  0  0  0
    2.9549    2.4983    0.9308 H   0  0  0  0  0  0  0  0  0  0  0  0
    3.2873    1.2711    2.1653 H   0  0  0  0  0  0  0  0  0  0  0  0
    4.9437    1.2295    0.3908 H   0  0  0  0  0  0  0  0  0  0  0  0
    3.4146   -1.3937   -1.8341 H   0  0  0  0  0  0  0  0  0  0  0  0
    4.7490   -2.6437   -3.4483 H   0  0  0  0  0  0  0  0  0  0  0  0
    7.1733   -2.2264   -3.6825 H   0  0  0  0  0  0  0  0  0  0  0  0
   10.2221   -0.8339   -3.1328 H   0  0  0  0  0  0  0  0  0  0  0  0
    6.9453    0.7737   -0.6012 H   0  0  0  0  0  0  0  0  0  0  0  0
   -4.1054    2.0178    0.7704 H   0  0  0  0  0  0  0  0  0  0  0  0
   -4.1083    0.2950   -2.7916 H   0  0  0  0  0  0  0  0  0  0  0  0
   -3.0631    1.3976   -1.8309 H   0  0  0  0  0  0  0  0  0  0  0  0
   -3.9576    2.0026   -3.2362 H   0  0  0  0  0  0  0  0  0  0  0  0
  1  2  1  0
  2  3  1  0
  3  4  2  0
  4  5  1  0
  5  6  2  0
  6  7  1  0
  7  8  2  3
  8  9  1  0
  9 10  1  0
 10 11  2  0
 10 12  1  0
 12 13  1  0
 13 14  1  0
 14 15  1  0
 15 16  1  0
 16 17  2  0
 16 18  1  0
 18 19  1  0
 19 20  2  0
 20 21  1  0
 21 22  2  0
 22 23  1  0
 23 24  1  0
 24 25  2  0
 24 26  1  0
 23 27  2  0
 12 28  1  0
 28 29  2  0
  6 30  1  0
 30 31  2  0
 31 32  1  0
 32 33  1  0
 31  3  1  0
 28  8  1  0
 27 19  1  0
  1 34  1  0
  1 35  1  0
  1 36  1  0
  4 37  1  0
  5 38  1  0
  7 39  1  0
 13 40  1  0
 13 41  1  0
 14 42  1  0
 14 43  1  0
 15 44  1  0
 15 45  1  0
 18 46  1  0
 20 47  1  0
 21 48  1  0
 22 49  1  0
 26 50  1  0
 27 51  1  0
 30 52  1  0
 33 53  1  0
 33 54  1  0
 33 55  1  0
M  END
$$$$
