
     RDKit          3D

 48 50  0  0  0  0  0  0  0  0999 V2000
    3.6474   -5.0678    0.3390 C   0  0  0  0  0  0  0  0  0  0  0  0
    3.4737   -3.8341   -0.3429 O   0  0  0  0  0  0  0  0  0  0  0  0
    2.4954   -2.9853    0.1131 C   0  0  0  0  0  0  0  0  0  0  0  0
    1.6202   -3.2805    1.1652 C   0  0  0  0  0  0  0  0  0  0  0  0
    0.6521   -2.3537    1.5595 C   0  0  0  0  0  0  0  0  0  0  0  0
    0.5616   -1.1255    0.9048 C   0  0  0  0  0  0  0  0  0  0  0  0
   -0.4654   -0.1609    1.3455 C   0  0  0  0  0  0  0  0  0  0  0  0
   -0.6017    0.9996    0.7822 N   0  0  0  0  0  0  0  0  0  0  0  0
   -1.6171    1.7782    1.2749 N   0  0  0  0  0  0  0  0  0  0  0  0
   -2.9358    1.4232    1.3196 C   0  0  0  0  0  0  0  0  0  0  0  0
   -3.4216    0.2030    1.2070 N   0  0  0  0  0  0  0  0  0  0  0  0
   -4.7846    0.2392    1.2841 C   0  0  0  0  0  0  0  0  0  0  0  0
   -5.5154   -0.8771    1.1779 O   0  0  0  0  0  0  0  0  0  0  0  0
   -5.3652    1.4690    1.4810 C   0  0  0  0  0  0  0  0  0  0  0  0
   -6.8073    1.8217    1.6134 C   0  0  0  0  0  0  0  0  0  0  0  0
   -7.4710    1.8765    0.2589 C   0  0  0  0  0  0  0  0  0  0  0  0
   -6.9480    1.9326   -0.8415 O   0  0  0  0  0  0  0  0  0  0  0  0
   -8.8186    1.9099    0.3621 O   0  0  0  0  0  0  0  0  0  0  0  0
   -4.1303    2.6527    1.5596 S   0  0  0  0  0  0  0  0  0  0  0  0
    1.4292   -0.8184   -0.1475 C   0  0  0  0  0  0  0  0  0  0  0  0
    2.3902   -1.7477   -0.5567 C   0  0  0  0  0  0  0  0  0  0  0  0
    3.2923   -1.5339   -1.5695 O   0  0  0  0  0  0  0  0  0  0  0  0
    3.0297   -0.4954   -2.5147 C   0  0  0  0  0  0  0  0  0  0  0  0
    3.6339    0.8306   -2.1063 C   0  0  0  0  0  0  0  0  0  0  0  0
    4.8751    0.8883   -1.4539 C   0  0  0  0  0  0  0  0  0  0  0  0
    5.4369    2.1177   -1.1022 C   0  0  0  0  0  0  0  0  0  0  0  0
    4.7651    3.2980   -1.4101 C   0  0  0  0  0  0  0  0  0  0  0  0
    5.4558    4.8136   -0.9773 Cl  0  0  0  0  0  0  0  0  0  0  0  0
    3.5388    3.2597   -2.0699 C   0  0  0  0  0  0  0  0  0  0  0  0
    2.9772    2.0299   -2.4218 C   0  0  0  0  0  0  0  0  0  0  0  0
    4.4799   -5.5972   -0.1344 H   0  0  0  0  0  0  0  0  0  0  0  0
    2.7571   -5.6982    0.2456 H   0  0  0  0  0  0  0  0  0  0  0  0
    3.9108   -4.9063    1.3895 H   0  0  0  0  0  0  0  0  0  0  0  0
    1.6649   -4.2247    1.6977 H   0  0  0  0  0  0  0  0  0  0  0  0
   -0.0205   -2.5995    2.3772 H   0  0  0  0  0  0  0  0  0  0  0  0
   -1.1049   -0.4755    2.1903 H   0  0  0  0  0  0  0  0  0  0  0  0
   -1.4750    2.7741    1.1130 H   0  0  0  0  0  0  0  0  0  0  0  0
   -4.8798   -1.5911    0.9951 H   0  0  0  0  0  0  0  0  0  0  0  0
   -6.9401    2.7933    2.1015 H   0  0  0  0  0  0  0  0  0  0  0  0
   -7.3116    1.0606    2.2201 H   0  0  0  0  0  0  0  0  0  0  0  0
   -9.1209    1.9500   -0.5701 H   0  0  0  0  0  0  0  0  0  0  0  0
    1.3444    0.1547   -0.6183 H   0  0  0  0  0  0  0  0  0  0  0  0
    1.9578   -0.4163   -2.7352 H   0  0  0  0  0  0  0  0  0  0  0  0
    3.5089   -0.7970   -3.4540 H   0  0  0  0  0  0  0  0  0  0  0  0
    5.4070   -0.0301   -1.2101 H   0  0  0  0  0  0  0  0  0  0  0  0
    6.3947    2.1448   -0.5901 H   0  0  0  0  0  0  0  0  0  0  0  0
    3.0156    4.1805   -2.3129 H   0  0  0  0  0  0  0  0  0  0  0  0
    2.0192    2.0146   -2.9380 H   0  0  0  0  0  0  0  0  0  0  0  0
  1  2  1  0
  2  3  1  0
  3  4  2  0
  4  5  1  0
  5  6  2  0
  6  7  1  0
  7  8  2  3
  8  9  1  0
  9 10  1  0
 10 11  2  0
 11 12  1  0
 12 13  1  0
 12 14  2  0
 14 15  1  0
 15 16  1  0
 16 17  2  0
 16 18  1  0
 14 19  1  0
  6 20  1  0
 20 21  2  0
 21 22  1  0
 22 23  1  0
 23 24  1  0
 24 25  2  0
 25 26  1  0
 26 27  2  0
 27 28  1  0
 27 29  1  0
 29 30  2  0
 21  3  1  0
 30 24  1  0
 19 10  1  0
  1 31  1  0
  1 32  1  0
  1 33  1  0
  4 34  1  0
  5 35  1  0
  7 36  1  0
  9 37  1  0
 13 38  1  0
 15 39  1  0
 15 40  1  0
 18 41  1  0
 20 42  1  0
 23 43  1  0
 23 44  1  0
 25 45  1  0
 26 46  1  0
 29 47  1  0
 30 48  1  0
M  END
$$$$
