
     RDKit          3D

 53 56  0  0  0  0  0  0  0  0999 V2000
    2.9706    1.9106   -0.2512 C   0  0  0  0  0  0  0  0  0  0  0  0
    3.1961    0.8322    0.7245 N   0  0  0  0  0  0  0  0  0  0  0  0
    4.5148    0.3178    0.8362 C   0  0  0  0  0  0  0  0  0  0  0  0
    4.7655   -0.8072    1.6468 C   0  0  0  0  0  0  0  0  0  0  0  0
    6.0510   -1.3387    1.7977 C   0  0  0  0  0  0  0  0  0  0  0  0
    7.1273   -0.7494    1.1467 C   0  0  0  0  0  0  0  0  0  0  0  0
    6.9163    0.3726    0.3539 C   0  0  0  0  0  0  0  0  0  0  0  0
    5.6273    0.9018    0.2072 C   0  0  0  0  0  0  0  0  0  0  0  0
    2.0281    0.0403    0.8749 C   0  0  0  0  0  0  0  0  0  0  0  0
    1.7771   -1.0229   -0.0058 C   0  0  0  0  0  0  0  0  0  0  0  0
    0.6306   -1.8162    0.1276 C   0  0  0  0  0  0  0  0  0  0  0  0
   -0.2972   -1.5691    1.1471 C   0  0  0  0  0  0  0  0  0  0  0  0
   -1.5050   -2.3921    1.2983 C   0  0  0  0  0  0  0  0  0  0  0  0
   -2.5229   -2.4872    0.4179 C   0  0  0  0  0  0  0  0  0  0  0  0
   -3.6346   -3.3328    0.7121 C   0  0  0  0  0  0  0  0  0  0  0  0
   -4.5524   -3.9845    0.9935 N   0  0  0  0  0  0  0  0  0  0  0  0
   -2.5090   -1.7669   -0.8043 C   0  0  0  0  0  0  0  0  0  0  0  0
   -1.9745   -2.0978   -1.9613 N   0  0  0  0  0  0  0  0  0  0  0  0
   -2.1846   -1.0721   -2.8405 N   0  0  0  0  0  0  0  0  0  0  0  0
   -2.8536   -0.1240   -2.2198 C   0  0  0  0  0  0  0  0  0  0  0  0
   -3.0977   -0.5212   -0.9288 N   0  0  0  0  0  0  0  0  0  0  0  0
   -3.8300    0.1771    0.1061 C   0  0  0  0  0  0  0  0  0  0  0  0
   -4.4873    1.5143   -0.2397 C   0  0  0  0  0  0  0  0  0  0  0  0
   -5.4342    1.4292   -1.4333 C   0  0  0  0  0  0  0  0  0  0  0  0
   -4.7608    1.3972   -2.8101 C   0  0  0  0  0  0  0  0  0  0  0  0
   -3.2534    1.1728   -2.8197 C   0  0  0  0  0  0  0  0  0  0  0  0
   -0.0595   -0.5292    2.0476 C   0  0  0  0  0  0  0  0  0  0  0  0
    1.0876    0.2638    1.8911 C   0  0  0  0  0  0  0  0  0  0  0  0
    1.2836    1.3406    2.8373 N   0  0  0  0  0  4  0  0  0  0  0  0
    1.4736    1.0200    4.0187 O   0  0  0  0  0  0  0  0  0  0  0  0
    1.1627    2.4983    2.4132 O   0  0  0  0  0  1  0  0  0  0  0  0
    3.5755    2.7904   -0.0045 H   0  0  0  0  0  0  0  0  0  0  0  0
    3.2072    1.5801   -1.2697 H   0  0  0  0  0  0  0  0  0  0  0  0
    1.9284    2.2550   -0.2518 H   0  0  0  0  0  0  0  0  0  0  0  0
    3.9545   -1.2861    2.1900 H   0  0  0  0  0  0  0  0  0  0  0  0
    6.2059   -2.2087    2.4305 H   0  0  0  0  0  0  0  0  0  0  0  0
    8.1275   -1.1574    1.2632 H   0  0  0  0  0  0  0  0  0  0  0  0
    7.7550    0.8457   -0.1508 H   0  0  0  0  0  0  0  0  0  0  0  0
    5.5268    1.7841   -0.4170 H   0  0  0  0  0  0  0  0  0  0  0  0
    2.4789   -1.2396   -0.8097 H   0  0  0  0  0  0  0  0  0  0  0  0
    0.4709   -2.6259   -0.5847 H   0  0  0  0  0  0  0  0  0  0  0  0
   -1.5451   -2.9523    2.2330 H   0  0  0  0  0  0  0  0  0  0  0  0
   -4.6099   -0.5109    0.4545 H   0  0  0  0  0  0  0  0  0  0  0  0
   -3.1306    0.3372    0.9349 H   0  0  0  0  0  0  0  0  0  0  0  0
   -5.0682    1.8294    0.6367 H   0  0  0  0  0  0  0  0  0  0  0  0
   -3.7334    2.2947   -0.3897 H   0  0  0  0  0  0  0  0  0  0  0  0
   -6.1120    2.2921   -1.4066 H   0  0  0  0  0  0  0  0  0  0  0  0
   -6.0782    0.5466   -1.3258 H   0  0  0  0  0  0  0  0  0  0  0  0
   -4.9604    2.3530   -3.3122 H   0  0  0  0  0  0  0  0  0  0  0  0
   -5.2545    0.6323   -3.4240 H   0  0  0  0  0  0  0  0  0  0  0  0
   -2.9119    1.1948   -3.8624 H   0  0  0  0  0  0  0  0  0  0  0  0
   -2.7271    1.9948   -2.3222 H   0  0  0  0  0  0  0  0  0  0  0  0
   -0.7546   -0.3268    2.8599 H   0  0  0  0  0  0  0  0  0  0  0  0
  1  2  1  0
  2  3  1  0
  3  4  2  0
  4  5  1  0
  5  6  2  0
  6  7  1  0
  7  8  2  0
  2  9  1  0
  9 10  2  0
 10 11  1  0
 11 12  2  0
 12 13  1  0
 13 14  2  3
 14 15  1  0
 15 16  3  0
 14 17  1  0
 17 18  2  0
 18 19  1  0
 19 20  2  0
 20 21  1  0
 21 22  1  0
 22 23  1  0
 23 24  1  0
 24 25  1  0
 25 26  1  0
 12 27  1  0
 27 28  2  0
 28 29  1  0
 29 30  2  0
 29 31  1  0
  8  3  1  0
 28  9  1  0
 21 17  1  0
 26 20  1  0
  1 32  1  0
  1 33  1  0
  1 34  1  0
  4 35  1  0
  5 36  1  0
  6 37  1  0
  7 38  1  0
  8 39  1  0
 10 40  1  0
 11 41  1  0
 13 42  1  0
 22 43  1  0
 22 44  1  0
 23 45  1  0
 23 46  1  0
 24 47  1  0
 24 48  1  0
 25 49  1  0
 25 50  1  0
 26 51  1  0
 26 52  1  0
 27 53  1  0
M  CHG  2  29   1  31  -1
M  END
$$$$
