
     RDKit          3D

 36 37  0  0  0  0  0  0  0  0999 V2000
    4.9683   -0.4378   -2.2585 C   0  0  0  0  0  0  0  0  0  0  0  0
    3.7692   -0.6560   -1.4696 N   0  0  0  0  0  0  0  0  0  0  0  0
    3.5051   -0.0936   -0.2327 C   0  0  0  0  0  0  0  0  0  0  0  0
    4.5672    0.9599    0.5334 S   0  0  0  0  0  0  0  0  0  0  0  0
    2.2693   -0.4868    0.2945 N   0  0  0  0  0  0  0  0  0  0  0  0
    1.9142   -0.3300    1.7112 C   0  0  0  0  0  0  0  0  0  0  0  0
    0.8265    0.7275    1.8745 C   0  0  0  0  0  0  0  0  0  0  0  0
   -0.3579    0.4130    0.9923 C   0  0  0  0  0  0  0  0  0  0  0  0
   -1.6199    0.9427    1.3015 C   0  0  0  0  0  0  0  0  0  0  0  0
   -2.7269    0.6751    0.4889 C   0  0  0  0  0  0  0  0  0  0  0  0
   -3.9954    1.1454    0.7255 O   0  0  0  0  0  0  0  0  0  0  0  0
   -4.1834    2.0036    1.8411 C   0  0  0  0  0  0  0  0  0  0  0  0
   -2.5695   -0.1290   -0.6563 C   0  0  0  0  0  0  0  0  0  0  0  0
   -3.7044   -0.3506   -1.3974 O   0  0  0  0  0  0  0  0  0  0  0  0
   -3.5792   -1.1103   -2.5900 C   0  0  0  0  0  0  0  0  0  0  0  0
   -1.3063   -0.6444   -0.9711 C   0  0  0  0  0  0  0  0  0  0  0  0
   -0.1910   -0.3720   -0.1608 C   0  0  0  0  0  0  0  0  0  0  0  0
    1.1574   -0.9508   -0.5463 C   0  0  0  0  0  0  0  0  0  0  0  0
    5.1423    0.6324   -2.3953 H   0  0  0  0  0  0  0  0  0  0  0  0
    4.8245   -0.9101   -3.2335 H   0  0  0  0  0  0  0  0  0  0  0  0
    5.8213   -0.8971   -1.7516 H   0  0  0  0  0  0  0  0  0  0  0  0
    3.3295   -1.5522   -1.6190 H   0  0  0  0  0  0  0  0  0  0  0  0
    2.7802   -0.0833    2.3302 H   0  0  0  0  0  0  0  0  0  0  0  0
    1.5549   -1.3073    2.0601 H   0  0  0  0  0  0  0  0  0  0  0  0
    1.2113    1.7162    1.5978 H   0  0  0  0  0  0  0  0  0  0  0  0
    0.5170    0.7616    2.9253 H   0  0  0  0  0  0  0  0  0  0  0  0
   -1.7119    1.5617    2.1881 H   0  0  0  0  0  0  0  0  0  0  0  0
   -3.5853    2.9157    1.7447 H   0  0  0  0  0  0  0  0  0  0  0  0
   -5.2369    2.2987    1.8621 H   0  0  0  0  0  0  0  0  0  0  0  0
   -3.9660    1.4836    2.7798 H   0  0  0  0  0  0  0  0  0  0  0  0
   -2.9015   -0.6246   -3.2998 H   0  0  0  0  0  0  0  0  0  0  0  0
   -3.2590   -2.1347   -2.3733 H   0  0  0  0  0  0  0  0  0  0  0  0
   -4.5669   -1.1638   -3.0580 H   0  0  0  0  0  0  0  0  0  0  0  0
   -1.1608   -1.2628   -1.8510 H   0  0  0  0  0  0  0  0  0  0  0  0
    1.3454   -0.6981   -1.5950 H   0  0  0  0  0  0  0  0  0  0  0  0
    1.1183   -2.0418   -0.4458 H   0  0  0  0  0  0  0  0  0  0  0  0
  1  2  1  0
  2  3  1  0
  3  4  2  0
  3  5  1  0
  5  6  1  0
  6  7  1  0
  7  8  1  0
  8  9  2  0
  9 10  1  0
 10 11  1  0
 11 12  1  0
 10 13  2  0
 13 14  1  0
 14 15  1  0
 13 16  1  0
 16 17  2  0
 17 18  1  0
 18  5  1  0
 17  8  1  0
  1 19  1  0
  1 20  1  0
  1 21  1  0
  2 22  1  0
  6 23  1  0
  6 24  1  0
  7 25  1  0
  7 26  1  0
  9 27  1  0
 12 28  1  0
 12 29  1  0
 12 30  1  0
 15 31  1  0
 15 32  1  0
 15 33  1  0
 16 34  1  0
 18 35  1  0
 18 36  1  0
M  END
$$$$
