
     RDKit          3D

 46 50  0  0  0  0  0  0  0  0999 V2000
   -7.8852    0.9736    0.1739 C   0  0  0  0  0  0  0  0  0  0  0  0
   -6.4112    0.8239    0.4454 C   0  0  0  0  0  0  0  0  0  0  0  0
   -5.9059    1.2570    1.6882 C   0  0  0  0  0  0  0  0  0  0  0  0
   -4.5374    1.1282    1.9638 C   0  0  0  0  0  0  0  0  0  0  0  0
   -3.8362    1.4830    3.0996 N   0  0  0  0  0  0  0  0  0  0  0  0
   -2.6108    1.1441    2.8129 C   0  0  0  0  0  0  0  0  0  0  0  0
   -1.1361    1.2550    3.6844 S   0  0  0  0  0  0  0  0  0  0  0  0
   -0.2729    0.5104    2.3338 C   0  0  0  0  0  0  0  0  0  0  0  0
    1.0522    0.3200    2.4092 C   0  0  0  0  0  0  0  0  0  0  0  0
    1.8855   -0.2636    1.4186 C   0  0  0  0  0  0  0  0  0  0  0  0
    1.7057   -1.3452    0.5665 C   0  0  0  0  0  0  0  0  0  0  0  0
    2.8898   -1.5101   -0.1929 C   0  0  0  0  0  0  0  0  0  0  0  0
    3.7664   -0.5434    0.2425 C   0  0  0  0  0  0  0  0  0  0  0  0
    5.1304   -0.1546   -0.1047 C   0  0  0  0  0  0  0  0  0  0  0  0
    5.4637    1.2129   -0.1201 C   0  0  0  0  0  0  0  0  0  0  0  0
    6.7319    1.6486   -0.5173 C   0  0  0  0  0  0  0  0  0  0  0  0
    7.6944    0.7253   -0.9139 C   0  0  0  0  0  0  0  0  0  0  0  0
    7.3938   -0.6350   -0.8974 C   0  0  0  0  0  0  0  0  0  0  0  0
    6.1263   -1.0736   -0.4796 C   0  0  0  0  0  0  0  0  0  0  0  0
    5.9253   -2.5318   -0.4504 C   0  0  0  0  0  0  0  0  0  0  0  0
    6.1199   -3.2981   -1.3740 O   0  0  0  0  0  0  0  0  0  0  0  0
    5.5829   -2.9560    0.7772 O   0  0  0  0  0  0  0  0  0  0  0  0
    3.1661    0.2027    1.2127 O   0  0  0  0  0  0  0  0  0  0  0  0
   -1.1999    0.2044    1.1974 C   0  0  0  0  0  0  0  0  0  0  0  0
   -0.9911   -0.2829    0.1040 O   0  0  0  0  0  0  0  0  0  0  0  0
   -2.4640    0.5959    1.5844 N   0  0  0  0  0  0  0  0  0  0  0  0
   -3.7019    0.5688    0.9934 C   0  0  0  0  0  0  0  0  0  0  0  0
   -4.1663    0.1277   -0.2493 C   0  0  0  0  0  0  0  0  0  0  0  0
   -5.5427    0.2604   -0.5165 C   0  0  0  0  0  0  0  0  0  0  0  0
   -6.0636   -0.2065   -1.8521 C   0  0  0  0  0  0  0  0  0  0  0  0
   -8.3431   -0.0075    0.0131 H   0  0  0  0  0  0  0  0  0  0  0  0
   -8.4033    1.4455    1.0157 H   0  0  0  0  0  0  0  0  0  0  0  0
   -8.0483    1.6036   -0.7062 H   0  0  0  0  0  0  0  0  0  0  0  0
   -6.5554    1.6917    2.4415 H   0  0  0  0  0  0  0  0  0  0  0  0
    1.5853    0.6691    3.2918 H   0  0  0  0  0  0  0  0  0  0  0  0
    0.8172   -1.9574    0.4933 H   0  0  0  0  0  0  0  0  0  0  0  0
    3.0719   -2.2477   -0.9621 H   0  0  0  0  0  0  0  0  0  0  0  0
    4.7211    1.9575    0.1638 H   0  0  0  0  0  0  0  0  0  0  0  0
    6.9604    2.7118   -0.5257 H   0  0  0  0  0  0  0  0  0  0  0  0
    8.6778    1.0635   -1.2315 H   0  0  0  0  0  0  0  0  0  0  0  0
    8.1496   -1.3570   -1.2005 H   0  0  0  0  0  0  0  0  0  0  0  0
    5.5246   -3.9300    0.6964 H   0  0  0  0  0  0  0  0  0  0  0  0
   -3.4851   -0.3009   -0.9803 H   0  0  0  0  0  0  0  0  0  0  0  0
   -6.8279   -0.9779   -1.7141 H   0  0  0  0  0  0  0  0  0  0  0  0
   -6.4875    0.6353   -2.4089 H   0  0  0  0  0  0  0  0  0  0  0  0
   -5.2664   -0.6408   -2.4652 H   0  0  0  0  0  0  0  0  0  0  0  0
  1  2  1  0
  2  3  2  0
  3  4  1  0
  4  5  1  0
  5  6  2  0
  6  7  1  0
  7  8  1  0
  8  9  2  3
  9 10  1  0
 10 11  2  0
 11 12  1  0
 12 13  2  0
 13 14  1  0
 14 15  2  0
 15 16  1  0
 16 17  2  0
 17 18  1  0
 18 19  2  0
 19 20  1  0
 20 21  2  0
 20 22  1  0
 13 23  1  0
  8 24  1  0
 24 25  2  0
 24 26  1  0
 26 27  1  0
 27 28  1  0
 28 29  2  0
 29 30  1  0
 29  2  1  0
 27  4  2  0
 26  6  1  0
 23 10  1  0
 19 14  1  0
  1 31  1  0
  1 32  1  0
  1 33  1  0
  3 34  1  0
  9 35  1  0
 11 36  1  0
 12 37  1  0
 15 38  1  0
 16 39  1  0
 17 40  1  0
 18 41  1  0
 22 42  1  0
 28 43  1  0
 30 44  1  0
 30 45  1  0
 30 46  1  0
M  END
$$$$
