
     RDKit          3D

 58 61  0  0  0  0  0  0  0  0999 V2000
   -0.0088   -2.0087   -0.8654 O   0  0  0  0  0  0  0  0  0  0  0  0
   -0.6206   -0.9504   -0.9823 C   0  0  0  0  0  0  0  0  0  0  0  0
    0.0694    0.3821   -1.3463 C   0  0  0  0  0  0  0  0  0  0  0  0
    1.4887    0.4165   -0.9347 N   0  0  0  0  0  0  0  0  0  0  0  0
    2.1521    1.6188   -1.4843 C   0  0  0  0  0  0  0  0  0  0  0  0
    3.6390    1.6959   -1.0832 C   0  0  0  0  0  0  0  0  0  0  0  0
    3.7664    1.6703    0.4003 N   0  0  0  0  0  0  0  0  0  0  0  0
    5.2676    2.1101    1.0543 S   0  0  0  0  0  6  0  0  0  0  0  0
    5.1226    2.1005    2.4979 O   0  0  0  0  0  0  0  0  0  0  0  0
    5.7354    3.3033    0.3831 O   0  0  0  0  0  0  0  0  0  0  0  0
    6.3433    0.7722    0.6346 C   0  0  0  0  0  0  0  0  0  0  0  0
    6.6611   -0.1948    1.5970 C   0  0  0  0  0  0  0  0  0  0  0  0
    7.5424   -1.2290    1.2741 C   0  0  0  0  0  0  0  0  0  0  0  0
    8.1119   -1.2908    0.0008 C   0  0  0  0  0  0  0  0  0  0  0  0
    7.8031   -0.3164   -0.9490 C   0  0  0  0  0  0  0  0  0  0  0  0
    6.9244    0.7160   -0.6261 C   0  0  0  0  0  0  0  0  0  0  0  0
    6.6380    1.6192   -1.5726 F   0  0  0  0  0  0  0  0  0  0  0  0
    3.1039    0.4703    0.9839 C   0  0  0  0  0  0  0  0  0  0  0  0
    1.6279    0.4121    0.5391 C   0  0  0  0  0  0  0  0  0  0  0  0
   -1.9883   -0.7884   -0.8265 N   0  0  0  0  0  0  0  0  0  0  0  0
   -2.9778   -1.7681   -0.5650 C   0  0  0  0  0  0  0  0  0  0  0  0
   -2.6747   -3.1284   -0.4454 C   0  0  0  0  0  0  0  0  0  0  0  0
   -3.6845   -4.0730   -0.2349 C   0  0  0  0  0  0  0  0  0  0  0  0
   -5.0138   -3.6740   -0.1495 C   0  0  0  0  0  0  0  0  0  0  0  0
   -5.3383   -2.3232   -0.2542 C   0  0  0  0  0  0  0  0  0  0  0  0
   -4.3281   -1.3624   -0.4349 C   0  0  0  0  0  0  0  0  0  0  0  0
   -4.6925    0.0852   -0.5136 C   0  0  0  0  0  0  0  0  0  0  0  0
   -3.9868    0.8568   -1.1641 O   0  0  0  0  0  0  0  0  0  0  0  0
   -5.8710    0.6374    0.1974 C   0  0  0  0  0  0  0  0  0  0  0  0
   -6.1874    0.2450    1.5040 C   0  0  0  0  0  0  0  0  0  0  0  0
   -7.2989    0.7980    2.1442 C   0  0  0  0  0  0  0  0  0  0  0  0
   -8.0821    1.7493    1.4890 C   0  0  0  0  0  0  0  0  0  0  0  0
   -7.7530    2.1591    0.1963 C   0  0  0  0  0  0  0  0  0  0  0  0
   -6.6440    1.6091   -0.4483 C   0  0  0  0  0  0  0  0  0  0  0  0
   -0.0015    0.4644   -2.4380 H   0  0  0  0  0  0  0  0  0  0  0  0
   -0.4793    1.2235   -0.9054 H   0  0  0  0  0  0  0  0  0  0  0  0
    2.0954    1.6012   -2.5793 H   0  0  0  0  0  0  0  0  0  0  0  0
    1.6382    2.5270   -1.1417 H   0  0  0  0  0  0  0  0  0  0  0  0
    4.0567    2.6251   -1.4835 H   0  0  0  0  0  0  0  0  0  0  0  0
    4.1776    0.8489   -1.5217 H   0  0  0  0  0  0  0  0  0  0  0  0
    6.2341   -0.1481    2.5975 H   0  0  0  0  0  0  0  0  0  0  0  0
    7.7905   -1.9831    2.0182 H   0  0  0  0  0  0  0  0  0  0  0  0
    8.7997   -2.0956   -0.2501 H   0  0  0  0  0  0  0  0  0  0  0  0
    8.2434   -0.3536   -1.9417 H   0  0  0  0  0  0  0  0  0  0  0  0
    3.6255   -0.4380    0.6617 H   0  0  0  0  0  0  0  0  0  0  0  0
    3.1304    0.5176    2.0773 H   0  0  0  0  0  0  0  0  0  0  0  0
    1.1905   -0.4986    0.9630 H   0  0  0  0  0  0  0  0  0  0  0  0
    1.0893    1.2657    0.9718 H   0  0  0  0  0  0  0  0  0  0  0  0
   -2.3652    0.1476   -0.9959 H   0  0  0  0  0  0  0  0  0  0  0  0
   -1.6562   -3.4951   -0.5262 H   0  0  0  0  0  0  0  0  0  0  0  0
   -3.4252   -5.1264   -0.1545 H   0  0  0  0  0  0  0  0  0  0  0  0
   -5.7962   -4.4159   -0.0067 H   0  0  0  0  0  0  0  0  0  0  0  0
   -6.3865   -2.0389   -0.2059 H   0  0  0  0  0  0  0  0  0  0  0  0
   -5.5729   -0.4746    2.0394 H   0  0  0  0  0  0  0  0  0  0  0  0
   -7.5499    0.4947    3.1586 H   0  0  0  0  0  0  0  0  0  0  0  0
   -8.9451    2.1820    1.9910 H   0  0  0  0  0  0  0  0  0  0  0  0
   -8.3562    2.9114   -0.3066 H   0  0  0  0  0  0  0  0  0  0  0  0
   -6.3837    1.9396   -1.4520 H   0  0  0  0  0  0  0  0  0  0  0  0
  1  2  2  0
  2  3  1  0
  3  4  1  0
  4  5  1  0
  5  6  1  0
  6  7  1  0
  7  8  1  0
  8  9  2  0
  8 10  2  0
  8 11  1  0
 11 12  2  0
 12 13  1  0
 13 14  2  0
 14 15  1  0
 15 16  2  0
 16 17  1  0
  7 18  1  0
 18 19  1  0
  2 20  1  0
 20 21  1  0
 21 22  2  0
 22 23  1  0
 23 24  2  0
 24 25  1  0
 25 26  2  0
 26 27  1  0
 27 28  2  0
 27 29  1  0
 29 30  2  0
 30 31  1  0
 31 32  2  0
 32 33  1  0
 33 34  2  0
 19  4  1  0
 26 21  1  0
 34 29  1  0
 16 11  1  0
  3 35  1  0
  3 36  1  0
  5 37  1  0
  5 38  1  0
  6 39  1  0
  6 40  1  0
 12 41  1  0
 13 42  1  0
 14 43  1  0
 15 44  1  0
 18 45  1  0
 18 46  1  0
 19 47  1  0
 19 48  1  0
 20 49  1  0
 22 50  1  0
 23 51  1  0
 24 52  1  0
 25 53  1  0
 30 54  1  0
 31 55  1  0
 32 56  1  0
 33 57  1  0
 34 58  1  0
M  END
$$$$
