
     RDKit          3D

112123  0  0  0  0  0  0  0  0999 V2000
   -2.4245   -3.6832   -1.8726 O   0  0  0  0  0  0  0  0  0  0  0  0
   -2.3390   -2.8883   -0.9432 C   0  0  0  0  0  0  0  0  0  0  0  0
   -2.5812   -3.2778    0.3506 N   0  0  0  0  0  0  0  0  0  0  0  0
   -3.0316   -2.3105    1.3576 C   0  0  0  0  0  0  0  0  0  0  0  0
   -4.5036   -1.9051    1.1933 C   0  0  0  0  0  0  0  0  0  0  0  0
   -5.4475   -3.0256    1.5670 C   0  0  0  0  0  0  0  0  0  0  0  0
   -5.8468   -3.9749    0.6171 C   0  0  0  0  0  0  0  0  0  0  0  0
   -6.6925   -5.0279    0.9806 C   0  0  0  0  0  0  0  0  0  0  0  0
   -7.1479   -5.1351    2.2918 C   0  0  0  0  0  0  0  0  0  0  0  0
   -6.7653   -4.1952    3.2420 C   0  0  0  0  0  0  0  0  0  0  0  0
   -5.9161   -3.1444    2.8837 C   0  0  0  0  0  0  0  0  0  0  0  0
   -2.1453   -1.0462    1.3272 C   0  0  0  0  0  0  0  0  0  0  0  0
   -2.0075   -0.3338    2.3145 O   0  0  0  0  0  0  0  0  0  0  0  0
   -1.6271   -0.7378    0.0863 N   0  0  0  0  0  0  0  0  0  0  0  0
   -2.0803   -1.3931   -1.1293 C   0  0  0  0  0  0  0  0  0  0  0  0
   -0.9411   -1.1129   -2.0976 C   0  0  0  0  0  0  0  0  0  0  0  0
   -0.4531    0.3257   -1.7306 C   0  0  0  0  0  0  0  0  0  0  0  0
    1.0912    0.5395   -2.0598 C   0  0  0  0  0  0  0  0  0  0  0  0
    1.6738    1.9656   -1.8476 C   0  0  0  0  0  0  0  0  0  0  0  0
    2.3672    1.9331   -0.5009 C   0  0  0  0  0  0  0  0  0  0  0  0
    3.7070    2.6677   -0.3688 C   0  0  0  0  0  0  0  0  0  0  0  0
    4.0346    3.6534   -1.0145 O   0  0  0  0  0  0  0  0  0  0  0  0
    4.4855    2.1823    0.6718 N   0  0  0  0  0  0  0  0  0  0  0  0
    3.8746    1.3435    1.7284 C   0  0  0  0  0  0  0  0  0  0  0  0
    4.9284    0.7264    2.6563 C   0  0  0  0  0  0  0  0  0  0  0  0
    5.7594    1.7705    3.3707 C   0  0  0  0  0  0  0  0  0  0  0  0
    5.2076    2.5249    4.4141 C   0  0  0  0  0  0  0  0  0  0  0  0
    5.9595    3.5212    5.0405 C   0  0  0  0  0  0  0  0  0  0  0  0
    7.2716    3.7660    4.6353 C   0  0  0  0  0  0  0  0  0  0  0  0
    7.8324    3.0141    3.6069 C   0  0  0  0  0  0  0  0  0  0  0  0
    7.0829    2.0202    2.9768 C   0  0  0  0  0  0  0  0  0  0  0  0
    3.0322    0.2130    1.0736 C   0  0  0  0  0  0  0  0  0  0  0  0
    2.6641   -0.8071    1.6485 O   0  0  0  0  0  0  0  0  0  0  0  0
    2.6030    0.5401   -0.1991 N   0  0  0  0  0  0  0  0  0  0  0  0
    2.0013   -0.3705   -1.1270 C   0  0  0  0  0  0  0  0  0  0  0  0
    2.9934   -1.0240   -2.0218 N   0  0  0  0  0  0  0  0  0  0  0  0
    3.7602   -2.4434   -1.4968 S   0  0  0  0  0  6  0  0  0  0  0  0
    4.3055   -2.2148   -0.1771 O   0  0  0  0  0  0  0  0  0  0  0  0
    4.6304   -2.9618   -2.5347 O   0  0  0  0  0  0  0  0  0  0  0  0
    2.4118   -3.5993   -1.3334 C   0  0  0  0  0  0  0  0  0  0  0  0
    1.9421   -4.2742   -2.4633 C   0  0  0  0  0  0  0  0  0  0  0  0
    0.9031   -5.1924   -2.3298 C   0  0  0  0  0  0  0  0  0  0  0  0
    0.3519   -5.4447   -1.0719 C   0  0  0  0  0  0  0  0  0  0  0  0
    0.8394   -4.7859    0.0580 C   0  0  0  0  0  0  0  0  0  0  0  0
    1.8750   -3.8626   -0.0688 C   0  0  0  0  0  0  0  0  0  0  0  0
    2.5651   -0.8603   -3.3734 C   0  0  0  0  0  0  0  0  0  0  0  0
    3.1839   -1.3189   -4.5277 C   0  0  0  0  0  0  0  0  0  0  0  0
    2.7363   -0.8704   -5.7685 C   0  0  0  0  0  0  0  0  0  0  0  0
    1.7331    0.0944   -5.8435 C   0  0  0  0  0  0  0  0  0  0  0  0
    1.1538    0.5955   -4.6769 C   0  0  0  0  0  0  0  0  0  0  0  0
    1.5335    0.0754   -3.4438 C   0  0  0  0  0  0  0  0  0  0  0  0
   -1.4464    1.3350   -2.3110 C   0  0  0  0  0  0  0  0  0  0  0  0
   -1.8976    1.4721   -3.6205 C   0  0  0  0  0  0  0  0  0  0  0  0
   -2.8505    2.4472   -3.9212 C   0  0  0  0  0  0  0  0  0  0  0  0
   -3.3926    3.2468   -2.9123 C   0  0  0  0  0  0  0  0  0  0  0  0
   -3.0036    3.0586   -1.5860 C   0  0  0  0  0  0  0  0  0  0  0  0
   -2.0328    2.1089   -1.3059 C   0  0  0  0  0  0  0  0  0  0  0  0
   -1.6092    1.6801   -0.0111 N   0  0  0  0  0  0  0  0  0  0  0  0
   -0.9554    2.8694    1.0195 S   0  0  0  0  0  6  0  0  0  0  0  0
   -0.2533    2.2267    2.1079 O   0  0  0  0  0  0  0  0  0  0  0  0
   -0.2554    3.8354    0.1933 O   0  0  0  0  0  0  0  0  0  0  0  0
   -2.3763    3.6741    1.7151 C   0  0  0  0  0  0  0  0  0  0  0  0
   -3.2543    2.9381    2.5147 C   0  0  0  0  0  0  0  0  0  0  0  0
   -4.3601    3.5723    3.0818 C   0  0  0  0  0  0  0  0  0  0  0  0
   -4.5883    4.9267    2.8452 C   0  0  0  0  0  0  0  0  0  0  0  0
   -3.7051    5.6623    2.0516 C   0  0  0  0  0  0  0  0  0  0  0  0
   -2.5892    5.0389    1.4899 C   0  0  0  0  0  0  0  0  0  0  0  0
   -0.8080    0.4406   -0.1799 C   0  0  0  0  0  0  0  0  0  0  0  0
   -2.8884   -4.2364    0.4507 H   0  0  0  0  0  0  0  0  0  0  0  0
   -2.8602   -2.7940    2.3280 H   0  0  0  0  0  0  0  0  0  0  0  0
   -4.7293   -1.0321    1.8222 H   0  0  0  0  0  0  0  0  0  0  0  0
   -4.7197   -1.5852    0.1654 H   0  0  0  0  0  0  0  0  0  0  0  0
   -5.4987   -3.9099   -0.4144 H   0  0  0  0  0  0  0  0  0  0  0  0
   -6.9893   -5.7642    0.2369 H   0  0  0  0  0  0  0  0  0  0  0  0
   -7.8003   -5.9553    2.5707 H   0  0  0  0  0  0  0  0  0  0  0  0
   -7.1217   -4.2786    4.2664 H   0  0  0  0  0  0  0  0  0  0  0  0
   -5.6214   -2.4239    3.6426 H   0  0  0  0  0  0  0  0  0  0  0  0
   -3.0153   -0.9201   -1.4499 H   0  0  0  0  0  0  0  0  0  0  0  0
   -0.1449   -1.8486   -1.9364 H   0  0  0  0  0  0  0  0  0  0  0  0
   -1.2572   -1.2213   -3.1423 H   0  0  0  0  0  0  0  0  0  0  0  0
    0.9092    2.7450   -1.8926 H   0  0  0  0  0  0  0  0  0  0  0  0
    2.4065    2.2339   -2.6224 H   0  0  0  0  0  0  0  0  0  0  0  0
    1.7204    2.3365    0.2775 H   0  0  0  0  0  0  0  0  0  0  0  0
    5.2633    2.7854    0.9165 H   0  0  0  0  0  0  0  0  0  0  0  0
    3.1798    1.9839    2.2875 H   0  0  0  0  0  0  0  0  0  0  0  0
    4.4456    0.0915    3.4087 H   0  0  0  0  0  0  0  0  0  0  0  0
    5.5852    0.0601    2.0851 H   0  0  0  0  0  0  0  0  0  0  0  0
    4.1869    2.3443    4.7476 H   0  0  0  0  0  0  0  0  0  0  0  0
    5.5228    4.1084    5.8446 H   0  0  0  0  0  0  0  0  0  0  0  0
    7.8530    4.5386    5.1288 H   0  0  0  0  0  0  0  0  0  0  0  0
    8.8556    3.2025    3.2904 H   0  0  0  0  0  0  0  0  0  0  0  0
    7.5341    1.4420    2.1743 H   0  0  0  0  0  0  0  0  0  0  0  0
    1.4243   -1.1204   -0.5838 H   0  0  0  0  0  0  0  0  0  0  0  0
    2.3813   -4.0997   -3.4409 H   0  0  0  0  0  0  0  0  0  0  0  0
    0.5230   -5.7227   -3.1992 H   0  0  0  0  0  0  0  0  0  0  0  0
   -0.4598   -6.1654   -0.9735 H   0  0  0  0  0  0  0  0  0  0  0  0
    0.4146   -5.0003    1.0361 H   0  0  0  0  0  0  0  0  0  0  0  0
    2.2590   -3.3632    0.8186 H   0  0  0  0  0  0  0  0  0  0  0  0
    4.0400   -1.9783   -4.5061 H   0  0  0  0  0  0  0  0  0  0  0  0
    3.2155   -1.2248   -6.6785 H   0  0  0  0  0  0  0  0  0  0  0  0
    1.4406    0.4964   -6.8114 H   0  0  0  0  0  0  0  0  0  0  0  0
    0.4714    1.4363   -4.7536 H   0  0  0  0  0  0  0  0  0  0  0  0
   -1.5595    0.8147   -4.4124 H   0  0  0  0  0  0  0  0  0  0  0  0
   -3.2001    2.5686   -4.9416 H   0  0  0  0  0  0  0  0  0  0  0  0
   -4.1506    3.9906   -3.1528 H   0  0  0  0  0  0  0  0  0  0  0  0
   -3.4963    3.6261   -0.8052 H   0  0  0  0  0  0  0  0  0  0  0  0
   -3.0702    1.8867    2.7117 H   0  0  0  0  0  0  0  0  0  0  0  0
   -5.0385    3.0106    3.7179 H   0  0  0  0  0  0  0  0  0  0  0  0
   -5.4463    5.4211    3.2941 H   0  0  0  0  0  0  0  0  0  0  0  0
   -3.8805    6.7239    1.8782 H   0  0  0  0  0  0  0  0  0  0  0  0
   -1.8958    5.6216    0.8815 H   0  0  0  0  0  0  0  0  0  0  0  0
    0.0456    0.3921    0.4936 H   0  0  0  0  0  0  0  0  0  0  0  0
  1  2  2  0
  2  3  1  0
  3  4  1  0
  4  5  1  0
  5  6  1  0
  6  7  2  0
  7  8  1  0
  8  9  2  0
  9 10  1  0
 10 11  2  0
  4 12  1  0
 12 13  2  0
 12 14  1  0
 14 15  1  0
 15 16  1  0
 16 17  1  0
 17 18  1  0
 18 19  1  0
 19 20  1  0
 20 21  1  0
 21 22  2  0
 21 23  1  0
 23 24  1  0
 24 25  1  0
 25 26  1  0
 26 27  2  0
 27 28  1  0
 28 29  2  0
 29 30  1  0
 30 31  2  0
 24 32  1  0
 32 33  2  0
 32 34  1  0
 34 35  1  0
 35 36  1  0
 36 37  1  0
 37 38  2  0
 37 39  2  0
 37 40  1  0
 40 41  2  0
 41 42  1  0
 42 43  2  0
 43 44  1  0
 44 45  2  0
 36 46  1  0
 46 47  2  0
 47 48  1  0
 48 49  2  0
 49 50  1  0
 50 51  2  0
 17 52  1  0
 52 53  2  0
 53 54  1  0
 54 55  2  0
 55 56  1  0
 56 57  2  0
 57 58  1  0
 58 59  1  0
 59 60  2  0
 59 61  2  0
 59 62  1  0
 62 63  2  0
 63 64  1  0
 64 65  2  0
 65 66  1  0
 66 67  2  0
 58 68  1  0
 15  2  1  0
 68 17  1  0
 11  6  1  0
 68 14  1  0
 35 18  1  0
 45 40  1  0
 51 46  1  0
 57 52  1  0
 67 62  1  0
 51 18  1  0
 34 20  1  0
 31 26  1  0
  3 69  1  0
  4 70  1  0
  5 71  1  0
  5 72  1  0
  7 73  1  0
  8 74  1  0
  9 75  1  0
 10 76  1  0
 11 77  1  0
 15 78  1  0
 16 79  1  0
 16 80  1  0
 19 81  1  0
 19 82  1  0
 20 83  1  0
 23 84  1  0
 24 85  1  0
 25 86  1  0
 25 87  1  0
 27 88  1  0
 28 89  1  0
 29 90  1  0
 30 91  1  0
 31 92  1  0
 35 93  1  0
 41 94  1  0
 42 95  1  0
 43 96  1  0
 44 97  1  0
 45 98  1  0
 47 99  1  0
 48100  1  0
 49101  1  0
 50102  1  0
 53103  1  0
 54104  1  0
 55105  1  0
 56106  1  0
 63107  1  0
 64108  1  0
 65109  1  0
 66110  1  0
 67111  1  0
 68112  1  0
M  END
$$$$
