
     RDKit          3D

 48 50  0  0  0  0  0  0  0  0999 V2000
    0.6937   -0.3576    0.1640 C   0  0  0  0  0  0  0  0  0  0  0  0
    0.4524    0.3657   -0.9387 C   0  0  0  0  0  0  0  0  0  0  0  0
    1.4460    1.0003   -1.8365 C   0  0  0  0  0  0  0  0  0  0  0  0
    2.7742    1.1914   -1.7529 C   0  0  0  0  0  0  0  0  0  0  0  0
    3.5917    0.8350   -0.6520 C   0  0  0  0  0  0  0  0  0  0  0  0
    4.7598   -0.4217   -0.8030 S   0  0  0  0  0  0  0  0  0  0  0  0
    5.2449   -0.1683    0.8083 C   0  0  0  0  0  0  0  0  0  0  0  0
    6.2214   -0.9087    1.4251 N   0  0  0  0  0  0  0  0  0  0  0  0
    6.9684   -1.9243    0.8756 C   0  0  0  0  0  0  0  0  0  0  0  0
    7.9496   -2.5085    1.8626 C   0  0  0  0  0  0  0  0  0  0  0  0
    6.9254   -2.3460   -0.2741 O   0  0  0  0  0  0  0  0  0  0  0  0
    4.6275    0.7924    1.4557 N   0  0  0  0  0  0  0  0  0  0  0  0
    3.7077    1.3699    0.6189 C   0  0  0  0  0  0  0  0  0  0  0  0
    2.9610    2.4043    1.0305 O   0  0  0  0  0  0  0  0  0  0  0  0
    0.7088    1.5148   -2.9922 C   0  0  0  0  0  0  0  0  0  0  0  0
   -0.5992    1.2712   -2.7819 C   0  0  0  0  0  0  0  0  0  0  0  0
   -1.7025    1.7248   -3.6768 C   0  0  0  0  0  0  0  0  0  0  0  0
   -0.7933    0.5980   -1.5589 N   0  0  0  0  0  0  0  0  0  0  0  0
   -2.0575    0.2832   -1.0016 C   0  0  0  0  0  0  0  0  0  0  0  0
   -2.4285    0.7637    0.2616 C   0  0  0  0  0  0  0  0  0  0  0  0
   -3.6776    0.4582    0.8183 C   0  0  0  0  0  0  0  0  0  0  0  0
   -4.5846   -0.3394    0.1225 C   0  0  0  0  0  0  0  0  0  0  0  0
   -5.8587   -0.6972    0.6091 N   0  0  0  0  0  0  0  0  0  0  0  0
   -6.4315   -0.3373    1.8156 C   0  0  0  0  0  0  0  0  0  0  0  0
   -7.8175   -0.9099    1.9813 C   0  0  0  0  0  0  0  0  0  0  0  0
   -5.9432    0.3781    2.6826 O   0  0  0  0  0  0  0  0  0  0  0  0
   -4.2220   -0.8263   -1.1385 C   0  0  0  0  0  0  0  0  0  0  0  0
   -2.9740   -0.5177   -1.6927 C   0  0  0  0  0  0  0  0  0  0  0  0
   -0.1155   -0.8259    0.7129 H   0  0  0  0  0  0  0  0  0  0  0  0
    1.6854   -0.5454    0.5467 H   0  0  0  0  0  0  0  0  0  0  0  0
    3.2883    1.6831   -2.5756 H   0  0  0  0  0  0  0  0  0  0  0  0
    6.3811   -0.6298    2.3825 H   0  0  0  0  0  0  0  0  0  0  0  0
    7.5921   -2.4056    2.8912 H   0  0  0  0  0  0  0  0  0  0  0  0
    8.9106   -1.9977    1.7592 H   0  0  0  0  0  0  0  0  0  0  0  0
    8.0772   -3.5750    1.6555 H   0  0  0  0  0  0  0  0  0  0  0  0
    3.2143    2.5758    1.9527 H   0  0  0  0  0  0  0  0  0  0  0  0
    1.1397    2.0404   -3.8289 H   0  0  0  0  0  0  0  0  0  0  0  0
   -1.3251    2.3759   -4.4730 H   0  0  0  0  0  0  0  0  0  0  0  0
   -2.1915    0.8729   -4.1576 H   0  0  0  0  0  0  0  0  0  0  0  0
   -2.4505    2.2959   -3.1177 H   0  0  0  0  0  0  0  0  0  0  0  0
   -1.7451    1.4004    0.8194 H   0  0  0  0  0  0  0  0  0  0  0  0
   -3.9060    0.8651    1.7982 H   0  0  0  0  0  0  0  0  0  0  0  0
   -6.4152   -1.2812   -0.0018 H   0  0  0  0  0  0  0  0  0  0  0  0
   -7.8785   -1.9175    1.5599 H   0  0  0  0  0  0  0  0  0  0  0  0
   -8.5402   -0.2583    1.4832 H   0  0  0  0  0  0  0  0  0  0  0  0
   -8.0589   -0.9736    3.0463 H   0  0  0  0  0  0  0  0  0  0  0  0
   -4.8973   -1.4577   -1.7093 H   0  0  0  0  0  0  0  0  0  0  0  0
   -2.7074   -0.9300   -2.6625 H   0  0  0  0  0  0  0  0  0  0  0  0
  1  2  2  0
  2  3  1  0
  3  4  2  3
  4  5  1  0
  5  6  1  0
  6  7  1  0
  7  8  1  0
  8  9  1  0
  9 10  1  0
  9 11  2  0
  7 12  2  0
 12 13  1  0
 13 14  1  0
  3 15  1  0
 15 16  2  0
 16 17  1  0
 16 18  1  0
 18 19  1  0
 19 20  2  0
 20 21  1  0
 21 22  2  0
 22 23  1  0
 23 24  1  0
 24 25  1  0
 24 26  2  0
 22 27  1  0
 27 28  2  0
 18  2  1  0
 28 19  1  0
 13  5  2  0
  1 29  1  0
  1 30  1  0
  4 31  1  0
  8 32  1  0
 10 33  1  0
 10 34  1  0
 10 35  1  0
 14 36  1  0
 15 37  1  0
 17 38  1  0
 17 39  1  0
 17 40  1  0
 20 41  1  0
 21 42  1  0
 23 43  1  0
 25 44  1  0
 25 45  1  0
 25 46  1  0
 27 47  1  0
 28 48  1  0
M  END
$$$$
