
     RDKit          3D

 68 71  0  0  0  0  0  0  0  0999 V2000
    1.3077    3.2460    2.4713 C   0  0  0  0  0  0  0  0  0  0  0  0
   -0.0455    3.1461    1.7626 C   0  0  0  0  0  0  0  0  0  0  0  0
   -0.8913    4.0536    2.4790 O   0  0  0  0  0  0  0  0  0  0  0  0
   -1.9348    4.6309    1.8113 C   0  0  0  0  0  0  0  0  0  0  0  0
   -2.5524    4.1286    0.6675 C   0  0  0  0  0  0  0  0  0  0  0  0
   -3.6219    4.8176    0.0865 C   0  0  0  0  0  0  0  0  0  0  0  0
   -4.0829    6.0056    0.6506 C   0  0  0  0  0  0  0  0  0  0  0  0
   -3.4809    6.5023    1.8039 C   0  0  0  0  0  0  0  0  0  0  0  0
   -2.4150    5.8120    2.3842 C   0  0  0  0  0  0  0  0  0  0  0  0
   -0.5512    1.6765    1.8086 C   0  0  0  0  0  0  0  0  0  0  0  0
   -1.5421    1.3745    2.4830 O   0  0  0  0  0  0  0  0  0  0  0  0
    0.1975    0.6829    1.1484 N   0  0  0  0  0  0  0  0  0  0  0  0
   -0.3214   -0.7006    1.2570 C   0  0  0  0  0  0  0  0  0  0  0  0
   -1.4969   -0.9719    0.3037 C   0  0  0  0  0  0  0  0  0  0  0  0
   -2.0199   -2.3869    0.4198 C   0  0  0  0  0  0  0  0  0  0  0  0
   -3.2051   -2.6507    1.0004 C   0  0  0  0  0  0  0  0  0  0  0  0
   -3.7705   -4.0322    1.1583 C   0  0  0  0  0  0  0  0  0  0  0  0
   -2.7526   -5.1373    0.8744 C   0  0  0  0  0  0  0  0  0  0  0  0
   -1.9112   -4.8075   -0.3531 C   0  0  0  0  0  0  0  0  0  0  0  0
   -1.1634   -3.4826   -0.1738 C   0  0  0  0  0  0  0  0  0  0  0  0
    1.0806    0.9310    0.0890 C   0  0  0  0  0  0  0  0  0  0  0  0
    2.3184    0.3764    0.0202 C   0  0  0  0  0  0  0  0  0  0  0  0
    2.8225   -0.3462    1.1000 N   0  0  0  0  0  0  0  0  0  0  0  0
    3.0905    0.5588   -1.1259 N   0  0  0  0  0  0  0  0  0  0  0  0
    4.2353   -0.3184   -1.4030 C   0  0  0  0  0  0  0  0  0  0  0  0
    3.8124   -1.6182   -2.0579 C   0  0  0  0  0  0  0  0  0  0  0  0
    3.7004   -1.7092   -3.4531 C   0  0  0  0  0  0  0  0  0  0  0  0
    3.2816   -2.8961   -4.0569 C   0  0  0  0  0  0  0  0  0  0  0  0
    2.9671   -4.0047   -3.2738 C   0  0  0  0  0  0  0  0  0  0  0  0
    3.0712   -3.9279   -1.8869 C   0  0  0  0  0  0  0  0  0  0  0  0
    3.4869   -2.7401   -1.2816 C   0  0  0  0  0  0  0  0  0  0  0  0
    2.7174    1.4237   -2.1490 C   0  0  0  0  0  0  0  0  0  0  0  0
    3.3344    1.5721   -3.2017 O   0  0  0  0  0  0  0  0  0  0  0  0
    1.5713    2.1311   -1.9487 N   0  0  0  0  0  0  0  0  0  0  0  0
    0.6104    1.7339   -1.0779 C   0  0  0  0  0  0  0  0  0  0  0  0
   -0.5699    2.0195   -1.2445 O   0  0  0  0  0  0  0  0  0  0  0  0
    1.6586    4.2841    2.4760 H   0  0  0  0  0  0  0  0  0  0  0  0
    2.0805    2.6305    2.0090 H   0  0  0  0  0  0  0  0  0  0  0  0
    1.2146    2.9416    3.5195 H   0  0  0  0  0  0  0  0  0  0  0  0
    0.0765    3.4948    0.7335 H   0  0  0  0  0  0  0  0  0  0  0  0
   -2.2478    3.1916    0.2146 H   0  0  0  0  0  0  0  0  0  0  0  0
   -4.1005    4.4155   -0.8029 H   0  0  0  0  0  0  0  0  0  0  0  0
   -4.9165    6.5350    0.1976 H   0  0  0  0  0  0  0  0  0  0  0  0
   -3.8427    7.4211    2.2560 H   0  0  0  0  0  0  0  0  0  0  0  0
   -1.9519    6.1974    3.2889 H   0  0  0  0  0  0  0  0  0  0  0  0
   -0.6387   -0.8700    2.2937 H   0  0  0  0  0  0  0  0  0  0  0  0
    0.4856   -1.4156    1.0663 H   0  0  0  0  0  0  0  0  0  0  0  0
   -2.3030   -0.2528    0.4974 H   0  0  0  0  0  0  0  0  0  0  0  0
   -1.1907   -0.7933   -0.7344 H   0  0  0  0  0  0  0  0  0  0  0  0
   -3.8112   -1.8363    1.3950 H   0  0  0  0  0  0  0  0  0  0  0  0
   -4.1535   -4.1533    2.1781 H   0  0  0  0  0  0  0  0  0  0  0  0
   -4.6264   -4.1334    0.4797 H   0  0  0  0  0  0  0  0  0  0  0  0
   -3.2750   -6.0901    0.7309 H   0  0  0  0  0  0  0  0  0  0  0  0
   -2.0942   -5.2631    1.7434 H   0  0  0  0  0  0  0  0  0  0  0  0
   -1.1928   -5.6129   -0.5451 H   0  0  0  0  0  0  0  0  0  0  0  0
   -2.5623   -4.7445   -1.2346 H   0  0  0  0  0  0  0  0  0  0  0  0
   -0.2967   -3.6442    0.4787 H   0  0  0  0  0  0  0  0  0  0  0  0
   -0.7770   -3.1692   -1.1513 H   0  0  0  0  0  0  0  0  0  0  0  0
    2.2612   -0.2105    1.9424 H   0  0  0  0  0  0  0  0  0  0  0  0
    3.7941   -0.1175    1.2896 H   0  0  0  0  0  0  0  0  0  0  0  0
    4.8028   -0.5197   -0.4880 H   0  0  0  0  0  0  0  0  0  0  0  0
    4.9461    0.1980   -2.0613 H   0  0  0  0  0  0  0  0  0  0  0  0
    3.9343   -0.8507   -4.0811 H   0  0  0  0  0  0  0  0  0  0  0  0
    3.1948   -2.9511   -5.1384 H   0  0  0  0  0  0  0  0  0  0  0  0
    2.6359   -4.9258   -3.7455 H   0  0  0  0  0  0  0  0  0  0  0  0
    2.8229   -4.7906   -1.2745 H   0  0  0  0  0  0  0  0  0  0  0  0
    3.5498   -2.6953   -0.1968 H   0  0  0  0  0  0  0  0  0  0  0  0
    1.2468    2.6374   -2.7591 H   0  0  0  0  0  0  0  0  0  0  0  0
  1  2  1  0
  2  3  1  0
  3  4  1  0
  4  5  2  0
  5  6  1  0
  6  7  2  0
  7  8  1  0
  8  9  2  0
  2 10  1  0
 10 11  2  0
 10 12  1  0
 12 13  1  0
 13 14  1  0
 14 15  1  0
 15 16  2  0
 16 17  1  0
 17 18  1  0
 18 19  1  0
 19 20  1  0
 12 21  1  0
 21 22  2  0
 22 23  1  0
 22 24  1  0
 24 25  1  0
 25 26  1  0
 26 27  2  0
 27 28  1  0
 28 29  2  0
 29 30  1  0
 30 31  2  0
 24 32  1  0
 32 33  2  0
 32 34  1  0
 34 35  1  0
 35 36  2  0
  9  4  1  0
 20 15  1  0
 35 21  1  0
 31 26  1  0
  1 37  1  0
  1 38  1  0
  1 39  1  0
  2 40  1  0
  5 41  1  0
  6 42  1  0
  7 43  1  0
  8 44  1  0
  9 45  1  0
 13 46  1  0
 13 47  1  0
 14 48  1  0
 14 49  1  0
 16 50  1  0
 17 51  1  0
 17 52  1  0
 18 53  1  0
 18 54  1  0
 19 55  1  0
 19 56  1  0
 20 57  1  0
 20 58  1  0
 23 59  1  0
 23 60  1  0
 25 61  1  0
 25 62  1  0
 27 63  1  0
 28 64  1  0
 29 65  1  0
 30 66  1  0
 31 67  1  0
 34 68  1  0
M  END
$$$$
