
     RDKit          3D

 69 71  0  0  0  0  0  0  0  0999 V2000
   -5.2226   -1.1830    3.4982 C   0  0  0  0  0  0  0  0  0  0  0  0
   -6.4109   -0.4411    2.9069 C   0  0  0  0  0  0  0  0  0  0  0  0
   -6.2736   -0.1580    1.4072 C   0  0  0  0  0  0  0  0  0  0  0  0
   -5.1705    0.7530    1.0804 N   0  0  0  0  0  0  0  0  0  0  0  0
   -5.3690    2.1775    1.3657 C   0  0  0  0  0  0  0  0  0  0  0  0
   -5.9744    2.9149    0.1702 C   0  0  0  0  0  0  0  0  0  0  0  0
   -6.1705    4.3920    0.4698 C   0  0  0  0  0  0  0  0  0  0  0  0
   -3.9842    0.3820    0.4401 C   0  0  0  0  0  0  0  0  0  0  0  0
   -3.1275    1.2202    0.1434 O   0  0  0  0  0  0  0  0  0  0  0  0
   -3.8120   -1.0977    0.0634 C   0  0  0  0  0  0  0  0  0  0  0  0
   -2.4471   -1.3831   -0.3808 N   0  0  0  0  0  0  0  0  0  0  0  0
   -1.5145   -1.7155    0.6082 C   0  0  0  0  0  0  0  0  0  0  0  0
   -1.8554   -1.8238    1.7905 O   0  0  0  0  0  0  0  0  0  0  0  0
   -0.1904   -1.9351    0.2041 N   0  0  0  0  0  0  0  0  0  0  0  0
    0.7756   -2.2840    1.2449 C   0  0  0  0  0  0  0  0  0  0  0  0
    1.2809   -1.0635    2.0298 C   0  0  0  0  0  0  0  0  0  0  0  0
    2.1646   -0.1011    1.2300 C   0  0  0  0  0  0  0  0  0  0  0  0
    3.5484   -0.6769    0.9208 C   0  0  0  0  0  0  0  0  0  0  0  0
    4.3546    0.2676    0.0311 C   0  0  0  0  0  0  0  0  0  0  0  0
    5.7673   -0.2386   -0.2261 C   0  0  0  0  0  0  0  0  0  0  0  0
    6.2363   -1.1991    0.3732 O   0  0  0  0  0  0  0  0  0  0  0  0
    6.4142    0.5411   -1.1728 N   0  0  0  0  0  0  0  0  0  0  0  0
    7.7308    0.3954   -1.6558 C   0  0  0  0  0  0  0  0  0  0  0  0
    8.1598    1.3101   -2.6274 C   0  0  0  0  0  0  0  0  0  0  0  0
    9.4507    1.2365   -3.1577 C   0  0  0  0  0  0  0  0  0  0  0  0
   10.3263    0.2466   -2.7212 C   0  0  0  0  0  0  0  0  0  0  0  0
    9.9094   -0.6671   -1.7565 C   0  0  0  0  0  0  0  0  0  0  0  0
    8.6171   -0.5932   -1.2257 C   0  0  0  0  0  0  0  0  0  0  0  0
    0.2801   -1.8172   -1.1098 C   0  0  0  0  0  0  0  0  0  0  0  0
    1.4552   -2.0112   -1.4178 O   0  0  0  0  0  0  0  0  0  0  0  0
   -0.7373   -1.4399   -2.0501 C   0  0  0  0  0  0  0  0  0  0  0  0
   -0.4335   -1.2050   -3.7043 S   0  0  0  0  0  0  0  0  0  0  0  0
   -2.0679   -0.7824   -3.9904 C   0  0  0  0  0  0  0  0  0  0  0  0
   -2.8215   -0.8289   -2.8350 C   0  0  0  0  0  0  0  0  0  0  0  0
   -2.0438   -1.2220   -1.7059 C   0  0  0  0  0  0  0  0  0  0  0  0
   -4.2986   -0.6062    3.3957 H   0  0  0  0  0  0  0  0  0  0  0  0
   -5.3866   -1.3646    4.5652 H   0  0  0  0  0  0  0  0  0  0  0  0
   -5.0849   -2.1536    3.0121 H   0  0  0  0  0  0  0  0  0  0  0  0
   -6.5583    0.4914    3.4621 H   0  0  0  0  0  0  0  0  0  0  0  0
   -7.3124   -1.0449    3.0655 H   0  0  0  0  0  0  0  0  0  0  0  0
   -6.1711   -1.1018    0.8660 H   0  0  0  0  0  0  0  0  0  0  0  0
   -7.1980    0.3035    1.0406 H   0  0  0  0  0  0  0  0  0  0  0  0
   -4.4038    2.6281    1.6261 H   0  0  0  0  0  0  0  0  0  0  0  0
   -6.0129    2.2829    2.2447 H   0  0  0  0  0  0  0  0  0  0  0  0
   -5.3267    2.8073   -0.7077 H   0  0  0  0  0  0  0  0  0  0  0  0
   -6.9400    2.4691   -0.0954 H   0  0  0  0  0  0  0  0  0  0  0  0
   -5.2160    4.8747    0.7028 H   0  0  0  0  0  0  0  0  0  0  0  0
   -6.8446    4.5336    1.3206 H   0  0  0  0  0  0  0  0  0  0  0  0
   -6.6055    4.9003   -0.3964 H   0  0  0  0  0  0  0  0  0  0  0  0
   -4.0393   -1.7248    0.9286 H   0  0  0  0  0  0  0  0  0  0  0  0
   -4.5184   -1.3535   -0.7325 H   0  0  0  0  0  0  0  0  0  0  0  0
    1.6125   -2.8434    0.8156 H   0  0  0  0  0  0  0  0  0  0  0  0
    0.2865   -2.9680    1.9497 H   0  0  0  0  0  0  0  0  0  0  0  0
    0.4235   -0.4994    2.4163 H   0  0  0  0  0  0  0  0  0  0  0  0
    1.8401   -1.4165    2.9051 H   0  0  0  0  0  0  0  0  0  0  0  0
    1.6589    0.2023    0.3072 H   0  0  0  0  0  0  0  0  0  0  0  0
    2.2960    0.8139    1.8216 H   0  0  0  0  0  0  0  0  0  0  0  0
    4.0840   -0.8541    1.8618 H   0  0  0  0  0  0  0  0  0  0  0  0
    3.4657   -1.6479    0.4216 H   0  0  0  0  0  0  0  0  0  0  0  0
    3.8438    0.3884   -0.9317 H   0  0  0  0  0  0  0  0  0  0  0  0
    4.4329    1.2531    0.5052 H   0  0  0  0  0  0  0  0  0  0  0  0
    5.8769    1.2973   -1.5772 H   0  0  0  0  0  0  0  0  0  0  0  0
    7.4967    2.0925   -2.9866 H   0  0  0  0  0  0  0  0  0  0  0  0
    9.7709    1.9514   -3.9109 H   0  0  0  0  0  0  0  0  0  0  0  0
   11.3308    0.1851   -3.1312 H   0  0  0  0  0  0  0  0  0  0  0  0
   10.5876   -1.4435   -1.4116 H   0  0  0  0  0  0  0  0  0  0  0  0
    8.3348   -1.3263   -0.4768 H   0  0  0  0  0  0  0  0  0  0  0  0
   -2.3944   -0.5156   -4.9865 H   0  0  0  0  0  0  0  0  0  0  0  0
   -3.8746   -0.5804   -2.8219 H   0  0  0  0  0  0  0  0  0  0  0  0
  1  2  1  0
  2  3  1  0
  3  4  1  0
  4  5  1  0
  5  6  1  0
  6  7  1  0
  4  8  1  0
  8  9  2  0
  8 10  1  0
 10 11  1  0
 11 12  1  0
 12 13  2  0
 12 14  1  0
 14 15  1  0
 15 16  1  0
 16 17  1  0
 17 18  1  0
 18 19  1  0
 19 20  1  0
 20 21  2  0
 20 22  1  0
 22 23  1  0
 23 24  2  0
 24 25  1  0
 25 26  2  0
 26 27  1  0
 27 28  2  0
 14 29  1  0
 29 30  2  0
 29 31  1  0
 31 32  1  0
 32 33  1  0
 33 34  2  0
 34 35  1  0
 35 11  1  0
 28 23  1  0
 35 31  2  0
  1 36  1  0
  1 37  1  0
  1 38  1  0
  2 39  1  0
  2 40  1  0
  3 41  1  0
  3 42  1  0
  5 43  1  0
  5 44  1  0
  6 45  1  0
  6 46  1  0
  7 47  1  0
  7 48  1  0
  7 49  1  0
 10 50  1  0
 10 51  1  0
 15 52  1  0
 15 53  1  0
 16 54  1  0
 16 55  1  0
 17 56  1  0
 17 57  1  0
 18 58  1  0
 18 59  1  0
 19 60  1  0
 19 61  1  0
 22 62  1  0
 24 63  1  0
 25 64  1  0
 26 65  1  0
 27 66  1  0
 28 67  1  0
 33 68  1  0
 34 69  1  0
M  END
$$$$
