
     RDKit          3D

 43 45  0  0  0  0  0  0  0  0999 V2000
    7.3640    0.6473   -1.1831 C   0  0  0  0  0  0  0  0  0  0  0  0
    6.8214   -0.6325   -0.8831 O   0  0  0  0  0  0  0  0  0  0  0  0
    5.4915   -0.6820   -0.5715 C   0  0  0  0  0  0  0  0  0  0  0  0
    4.6186    0.4020   -0.5166 C   0  0  0  0  0  0  0  0  0  0  0  0
    3.2711    0.2065   -0.1824 C   0  0  0  0  0  0  0  0  0  0  0  0
    2.7732   -1.0675    0.1124 C   0  0  0  0  0  0  0  0  0  0  0  0
    1.4156   -1.3095    0.4185 N   0  0  0  0  0  0  0  0  0  0  0  0
    0.3039   -0.6021    0.0999 C   0  0  0  0  0  0  0  0  0  0  0  0
    0.1133    0.2466   -1.0092 C   0  0  0  0  0  0  0  0  0  0  0  0
   -1.1968    0.6749   -0.9907 C   0  0  0  0  0  0  0  0  0  0  0  0
   -1.8315    1.4952   -1.8273 O   0  0  0  0  0  0  0  0  0  0  0  0
   -1.8197    0.1356    0.1354 N   0  0  0  0  0  0  0  0  0  0  0  0
   -3.1868    0.3352    0.5033 C   0  0  0  0  0  0  0  0  0  0  0  0
   -4.1544    0.2257   -0.5130 C   0  0  0  0  0  0  0  0  0  0  0  0
   -5.5123    0.3610   -0.2035 C   0  0  0  0  0  0  0  0  0  0  0  0
   -6.5188    0.2279   -1.2635 N   0  0  0  0  0  4  0  0  0  0  0  0
   -7.7029    0.4415   -0.9638 O   0  0  0  0  0  0  0  0  0  0  0  0
   -6.1305   -0.0924   -2.3961 O   0  0  0  0  0  1  0  0  0  0  0  0
   -5.9207    0.6082    1.1092 C   0  0  0  0  0  0  0  0  0  0  0  0
   -4.9587    0.7407    2.1117 C   0  0  0  0  0  0  0  0  0  0  0  0
   -3.5832    0.6316    1.8261 C   0  0  0  0  0  0  0  0  0  0  0  0
   -2.6294    0.8951    2.9612 C   0  0  0  0  0  0  0  0  0  0  0  0
   -0.8944   -0.6837    0.7820 C   0  0  0  0  0  0  0  0  0  0  0  0
   -1.2201   -1.4142    1.8493 O   0  0  0  0  0  0  0  0  0  0  0  0
    3.6598   -2.1498    0.0472 C   0  0  0  0  0  0  0  0  0  0  0  0
    5.0039   -1.9576   -0.2884 C   0  0  0  0  0  0  0  0  0  0  0  0
    7.2896    1.3193   -0.3217 H   0  0  0  0  0  0  0  0  0  0  0  0
    8.4261    0.5150   -1.4111 H   0  0  0  0  0  0  0  0  0  0  0  0
    6.8853    1.0819   -2.0669 H   0  0  0  0  0  0  0  0  0  0  0  0
    4.9487    1.4145   -0.7226 H   0  0  0  0  0  0  0  0  0  0  0  0
    2.6231    1.0767   -0.1235 H   0  0  0  0  0  0  0  0  0  0  0  0
    1.3051   -2.1834    0.9229 H   0  0  0  0  0  0  0  0  0  0  0  0
    0.8405    0.4913   -1.7709 H   0  0  0  0  0  0  0  0  0  0  0  0
   -1.2022    1.7502   -2.5256 H   0  0  0  0  0  0  0  0  0  0  0  0
   -3.8503    0.0013   -1.5340 H   0  0  0  0  0  0  0  0  0  0  0  0
   -6.9727    0.7085    1.3673 H   0  0  0  0  0  0  0  0  0  0  0  0
   -5.2878    0.9540    3.1282 H   0  0  0  0  0  0  0  0  0  0  0  0
   -2.4784   -0.0113    3.5541 H   0  0  0  0  0  0  0  0  0  0  0  0
   -1.6665    1.2760    2.6092 H   0  0  0  0  0  0  0  0  0  0  0  0
   -3.0326    1.6695    3.6244 H   0  0  0  0  0  0  0  0  0  0  0  0
   -0.3918   -1.7740    2.2084 H   0  0  0  0  0  0  0  0  0  0  0  0
    3.3133   -3.1609    0.2440 H   0  0  0  0  0  0  0  0  0  0  0  0
    5.6746   -2.8122   -0.3344 H   0  0  0  0  0  0  0  0  0  0  0  0
  1  2  1  0
  2  3  1  0
  3  4  2  0
  4  5  1  0
  5  6  2  0
  6  7  1  0
  7  8  1  0
  8  9  1  0
  9 10  2  0
 10 11  1  0
 10 12  1  0
 12 13  1  0
 13 14  2  0
 14 15  1  0
 15 16  1  0
 16 17  2  0
 16 18  1  0
 15 19  2  0
 19 20  1  0
 20 21  2  0
 21 22  1  0
 12 23  1  0
 23 24  1  0
  6 25  1  0
 25 26  2  0
 26  3  1  0
 23  8  2  0
 21 13  1  0
  1 27  1  0
  1 28  1  0
  1 29  1  0
  4 30  1  0
  5 31  1  0
  7 32  1  0
  9 33  1  0
 11 34  1  0
 14 35  1  0
 19 36  1  0
 20 37  1  0
 22 38  1  0
 22 39  1  0
 22 40  1  0
 24 41  1  0
 25 42  1  0
 26 43  1  0
M  CHG  2  16   1  18  -1
M  END
$$$$
