
     RDKit          3D

 30 30  0  0  0  0  0  0  0  0999 V2000
    2.2050    1.4355   -0.5077 C   0  0  0  0  0  0  0  0  0  0  0  0
    2.2504    0.4029    0.5279 N   0  0  0  0  0  0  0  0  0  0  0  0
    2.7874   -0.8747    0.0500 C   0  0  0  0  0  0  0  0  0  0  0  0
    1.9225    0.6802    1.8614 C   0  0  0  0  0  0  0  0  0  0  0  0
    1.5885    2.2087    2.4863 S   0  0  0  0  0  0  0  0  0  0  0  0
    1.8270   -0.7014    2.9584 S   0  0  0  0  0  0  0  0  0  0  0  0
    0.0354   -1.0007    2.9078 C   0  0  0  0  0  0  0  0  0  0  0  0
   -0.4309   -1.2817    1.4857 C   0  0  0  0  0  0  0  0  0  0  0  0
   -0.2153   -2.3658    0.9502 O   0  0  0  0  0  0  0  0  0  0  0  0
   -1.0712   -0.2017    0.9001 N   0  0  0  0  0  0  0  0  0  0  0  0
   -1.5868   -0.1031   -0.4148 C   0  0  0  0  0  0  0  0  0  0  0  0
   -1.5929   -1.1677   -1.3198 C   0  0  0  0  0  0  0  0  0  0  0  0
   -2.1142   -1.0023   -2.6086 C   0  0  0  0  0  0  0  0  0  0  0  0
   -2.6340    0.2287   -3.0005 C   0  0  0  0  0  0  0  0  0  0  0  0
   -3.2707    0.4222   -4.5861 Cl  0  0  0  0  0  0  0  0  0  0  0  0
   -2.6404    1.3022   -2.1175 C   0  0  0  0  0  0  0  0  0  0  0  0
   -2.1197    1.1333   -0.8329 C   0  0  0  0  0  0  0  0  0  0  0  0
   -2.1411    2.4962    0.2354 Cl  0  0  0  0  0  0  0  0  0  0  0  0
    1.8880    0.9844   -1.4535 H   0  0  0  0  0  0  0  0  0  0  0  0
    1.5002    2.2347   -0.2708 H   0  0  0  0  0  0  0  0  0  0  0  0
    3.2084    1.8552   -0.6235 H   0  0  0  0  0  0  0  0  0  0  0  0
    2.0765   -1.2988   -0.6668 H   0  0  0  0  0  0  0  0  0  0  0  0
    3.7371   -0.6789   -0.4611 H   0  0  0  0  0  0  0  0  0  0  0  0
    2.9799   -1.6073    0.8361 H   0  0  0  0  0  0  0  0  0  0  0  0
   -0.5048   -0.1548    3.3439 H   0  0  0  0  0  0  0  0  0  0  0  0
   -0.1983   -1.8777    3.5209 H   0  0  0  0  0  0  0  0  0  0  0  0
   -1.1230    0.6618    1.4363 H   0  0  0  0  0  0  0  0  0  0  0  0
   -1.2036   -2.1470   -1.0573 H   0  0  0  0  0  0  0  0  0  0  0  0
   -2.1112   -1.8440   -3.2974 H   0  0  0  0  0  0  0  0  0  0  0  0
   -3.0479    2.2615   -2.4251 H   0  0  0  0  0  0  0  0  0  0  0  0
  1  2  1  0
  2  3  1  0
  2  4  1  0
  4  5  2  0
  4  6  1  0
  6  7  1  0
  7  8  1  0
  8  9  2  0
  8 10  1  0
 10 11  1  0
 11 12  2  0
 12 13  1  0
 13 14  2  0
 14 15  1  0
 14 16  1  0
 16 17  2  0
 17 18  1  0
 17 11  1  0
  1 19  1  0
  1 20  1  0
  1 21  1  0
  3 22  1  0
  3 23  1  0
  3 24  1  0
  7 25  1  0
  7 26  1  0
 10 27  1  0
 12 28  1  0
 13 29  1  0
 16 30  1  0
M  END
$$$$
