
     RDKit          3D

 29 31  0  0  0  0  0  0  0  0999 V2000
    0.1668    3.5324    3.5539 N   0  0  0  0  0  0  0  0  0  0  0  0
    0.4406    2.6657    2.8325 C   0  0  0  0  0  0  0  0  0  0  0  0
    0.7644    1.6272    1.9062 C   0  0  0  0  0  0  0  0  0  0  0  0
    2.0662    1.3661    1.6683 C   0  0  0  0  0  0  0  0  0  0  0  0
    2.5282    0.4208    0.7111 C   0  0  0  0  0  0  0  0  0  0  0  0
    3.5765   -0.4906    0.8165 C   0  0  0  0  0  0  0  0  0  0  0  0
    3.6394   -1.2314   -0.3916 C   0  0  0  0  0  0  0  0  0  0  0  0
    2.6473   -0.7083   -1.1796 C   0  0  0  0  0  0  0  0  0  0  0  0
    2.2117   -1.0264   -2.5014 N   0  0  0  0  0  4  0  0  0  0  0  0
    2.7584   -2.0012   -3.0370 O   0  0  0  0  0  0  0  0  0  0  0  0
    1.3499   -0.3051   -3.0202 O   0  0  0  0  0  1  0  0  0  0  0  0
    1.9916    0.2980   -0.5538 O   0  0  0  0  0  0  0  0  0  0  0  0
   -0.2840    0.8622    1.3159 C   0  0  0  0  0  0  0  0  0  0  0  0
   -0.4005   -0.4431    1.1478 N   0  0  0  0  0  0  0  0  0  0  0  0
   -1.6045   -0.6396    0.5187 C   0  0  0  0  0  0  0  0  0  0  0  0
   -2.2139   -1.8297    0.0976 C   0  0  0  0  0  0  0  0  0  0  0  0
   -3.4643   -1.7570   -0.5296 C   0  0  0  0  0  0  0  0  0  0  0  0
   -4.0933   -0.5257   -0.7313 C   0  0  0  0  0  0  0  0  0  0  0  0
   -3.4994    0.6722   -0.3162 C   0  0  0  0  0  0  0  0  0  0  0  0
   -2.2535    0.5692    0.3052 C   0  0  0  0  0  0  0  0  0  0  0  0
   -1.3984    1.5082    0.8236 N   0  0  0  0  0  0  0  0  0  0  0  0
    2.8344    1.9142    2.2098 H   0  0  0  0  0  0  0  0  0  0  0  0
    4.2033   -0.6240    1.6888 H   0  0  0  0  0  0  0  0  0  0  0  0
    4.3137   -2.0364   -0.6490 H   0  0  0  0  0  0  0  0  0  0  0  0
   -1.7201   -2.7815    0.2560 H   0  0  0  0  0  0  0  0  0  0  0  0
   -3.9482   -2.6715   -0.8645 H   0  0  0  0  0  0  0  0  0  0  0  0
   -5.0637   -0.4970   -1.2234 H   0  0  0  0  0  0  0  0  0  0  0  0
   -3.9882    1.6270   -0.4763 H   0  0  0  0  0  0  0  0  0  0  0  0
   -1.5603    2.5052    0.8212 H   0  0  0  0  0  0  0  0  0  0  0  0
  1  2  3  0
  2  3  1  0
  3  4  2  3
  4  5  1  0
  5  6  2  0
  6  7  1  0
  7  8  2  0
  8  9  1  0
  9 10  2  0
  9 11  1  0
  8 12  1  0
  3 13  1  0
 13 14  2  0
 14 15  1  0
 15 16  2  0
 16 17  1  0
 17 18  2  0
 18 19  1  0
 19 20  2  0
 20 21  1  0
 12  5  1  0
 21 13  1  0
 20 15  1  0
  4 22  1  0
  6 23  1  0
  7 24  1  0
 16 25  1  0
 17 26  1  0
 18 27  1  0
 19 28  1  0
 21 29  1  0
M  CHG  2   9   1  11  -1
M  END
$$$$
