
     RDKit          3D

 33 34  0  0  0  0  0  0  0  0999 V2000
    3.4517   -1.9464   -2.2527 C   0  0  0  0  0  0  0  0  0  0  0  0
    1.9387   -1.9781   -2.3879 C   0  0  0  0  0  0  0  0  0  0  0  0
    1.3108   -0.6023   -2.1952 C   0  0  0  0  0  0  0  0  0  0  0  0
    2.0010    0.4215   -2.1240 O   0  0  0  0  0  0  0  0  0  0  0  0
   -0.1938   -0.5031   -2.0276 C   0  0  0  0  0  0  0  0  0  0  0  0
   -0.9014   -1.3782   -2.9695 C   0  0  0  0  0  0  0  0  0  0  0  0
   -1.4401   -2.0316   -3.7646 N   0  0  0  0  0  0  0  0  0  0  0  0
   -0.5128   -0.8128   -0.6054 C   0  0  0  0  0  0  0  0  0  0  0  0
   -0.8036   -2.0022   -0.1211 N   0  0  0  0  0  0  0  0  0  0  0  0
   -1.0067   -1.8824    1.2239 N   0  0  0  0  0  0  0  0  0  0  0  0
   -0.8341   -0.6223    1.5647 C   0  0  0  0  0  0  0  0  0  0  0  0
   -0.4986    0.0881    0.4370 N   0  0  0  0  0  0  0  0  0  0  0  0
   -0.1513    1.4895    0.4002 C   0  0  0  0  0  0  0  0  0  0  0  0
   -1.3117    2.4114    0.7645 C   0  0  0  0  0  0  0  0  0  0  0  0
   -2.0148    2.1017    2.0913 C   0  0  0  0  0  0  0  0  0  0  0  0
   -1.1202    1.4211    3.1247 C   0  0  0  0  0  0  0  0  0  0  0  0
   -1.0102   -0.0942    2.9499 C   0  0  0  0  0  0  0  0  0  0  0  0
    3.8665   -2.9511   -2.3789 H   0  0  0  0  0  0  0  0  0  0  0  0
    3.7500   -1.5733   -1.2673 H   0  0  0  0  0  0  0  0  0  0  0  0
    3.9012   -1.2944   -3.0090 H   0  0  0  0  0  0  0  0  0  0  0  0
    1.5314   -2.6628   -1.6376 H   0  0  0  0  0  0  0  0  0  0  0  0
    1.6742   -2.3466   -3.3840 H   0  0  0  0  0  0  0  0  0  0  0  0
   -0.4892    0.5252   -2.2680 H   0  0  0  0  0  0  0  0  0  0  0  0
    0.2084    1.7489   -0.5983 H   0  0  0  0  0  0  0  0  0  0  0  0
    0.7027    1.6282    1.0727 H   0  0  0  0  0  0  0  0  0  0  0  0
   -0.9238    3.4372    0.8045 H   0  0  0  0  0  0  0  0  0  0  0  0
   -2.0611    2.4012   -0.0370 H   0  0  0  0  0  0  0  0  0  0  0  0
   -2.3898    3.0463    2.5046 H   0  0  0  0  0  0  0  0  0  0  0  0
   -2.9021    1.4837    1.9046 H   0  0  0  0  0  0  0  0  0  0  0  0
   -0.1253    1.8816    3.1331 H   0  0  0  0  0  0  0  0  0  0  0  0
   -1.5353    1.6076    4.1237 H   0  0  0  0  0  0  0  0  0  0  0  0
   -1.9242   -0.5484    3.3555 H   0  0  0  0  0  0  0  0  0  0  0  0
   -0.1865   -0.4629    3.5731 H   0  0  0  0  0  0  0  0  0  0  0  0
  1  2  1  0
  2  3  1  0
  3  4  2  0
  3  5  1  0
  5  6  1  0
  6  7  3  0
  5  8  1  0
  8  9  2  0
  9 10  1  0
 10 11  2  0
 11 12  1  0
 12 13  1  0
 13 14  1  0
 14 15  1  0
 15 16  1  0
 16 17  1  0
 12  8  1  0
 17 11  1  0
  1 18  1  0
  1 19  1  0
  1 20  1  0
  2 21  1  0
  2 22  1  0
  5 23  1  0
 13 24  1  0
 13 25  1  0
 14 26  1  0
 14 27  1  0
 15 28  1  0
 15 29  1  0
 16 30  1  0
 16 31  1  0
 17 32  1  0
 17 33  1  0
M  END
$$$$
