
     RDKit          3D

 37 38  0  0  0  0  0  0  0  0999 V2000
    3.8788    1.1506   -2.5155 C   0  0  0  0  0  0  0  0  0  0  0  0
    2.7380    0.9919   -1.6830 O   0  0  0  0  0  0  0  0  0  0  0  0
    2.8004    0.0421   -0.6949 C   0  0  0  0  0  0  0  0  0  0  0  0
    3.9462   -0.6909   -0.3727 C   0  0  0  0  0  0  0  0  0  0  0  0
    3.9098   -1.6443    0.6453 C   0  0  0  0  0  0  0  0  0  0  0  0
    2.7245   -1.8804    1.3399 C   0  0  0  0  0  0  0  0  0  0  0  0
    1.5575   -1.1630    1.0305 C   0  0  0  0  0  0  0  0  0  0  0  0
    0.3438   -1.5045    1.8201 C   0  0  0  0  0  0  0  0  0  0  0  0
    0.4229   -2.0366    2.9209 O   0  0  0  0  0  0  0  0  0  0  0  0
   -0.7885   -1.1896    1.1305 O   0  0  0  0  0  0  0  0  0  0  0  0
   -1.9234   -1.6751    1.8053 N   0  0  0  0  0  0  0  0  0  0  0  0
   -3.0319   -1.1383    1.3790 C   0  0  0  0  0  0  0  0  0  0  0  0
   -4.1959   -1.5302    1.9866 N   0  0  0  0  0  0  0  0  0  0  0  0
   -3.1213   -0.1245    0.2963 C   0  0  0  0  0  0  0  0  0  0  0  0
   -3.7030    1.1123    0.5653 C   0  0  0  0  0  0  0  0  0  0  0  0
   -3.7822    2.0200   -0.4741 C   0  0  0  0  0  0  0  0  0  0  0  0
   -3.3325    1.7713   -1.7230 N   0  0  0  0  0  0  0  0  0  0  0  0
   -2.7735    0.5600   -1.9465 C   0  0  0  0  0  0  0  0  0  0  0  0
   -2.6533   -0.4202   -0.9802 C   0  0  0  0  0  0  0  0  0  0  0  0
    1.6108   -0.1781    0.0311 C   0  0  0  0  0  0  0  0  0  0  0  0
    0.4917    0.5466   -0.3015 O   0  0  0  0  0  0  0  0  0  0  0  0
    0.4958    1.8109    0.3629 C   0  0  0  0  0  0  0  0  0  0  0  0
    4.7323    1.5291   -1.9439 H   0  0  0  0  0  0  0  0  0  0  0  0
    4.1283    0.2167   -3.0299 H   0  0  0  0  0  0  0  0  0  0  0  0
    3.6341    1.8954   -3.2790 H   0  0  0  0  0  0  0  0  0  0  0  0
    4.8865   -0.5429   -0.8940 H   0  0  0  0  0  0  0  0  0  0  0  0
    4.8048   -2.2103    0.8940 H   0  0  0  0  0  0  0  0  0  0  0  0
    2.7101   -2.6364    2.1245 H   0  0  0  0  0  0  0  0  0  0  0  0
   -4.0449   -2.0169    2.8647 H   0  0  0  0  0  0  0  0  0  0  0  0
   -4.9909   -0.9061    1.9760 H   0  0  0  0  0  0  0  0  0  0  0  0
   -4.0650    1.3704    1.5528 H   0  0  0  0  0  0  0  0  0  0  0  0
   -4.2187    3.0041   -0.3286 H   0  0  0  0  0  0  0  0  0  0  0  0
   -2.4121    0.3951   -2.9576 H   0  0  0  0  0  0  0  0  0  0  0  0
   -2.1995   -1.3771   -1.2099 H   0  0  0  0  0  0  0  0  0  0  0  0
    0.5019    1.6828    1.4509 H   0  0  0  0  0  0  0  0  0  0  0  0
   -0.4242    2.3355    0.0894 H   0  0  0  0  0  0  0  0  0  0  0  0
    1.3425    2.4305    0.0501 H   0  0  0  0  0  0  0  0  0  0  0  0
  1  2  1  0
  2  3  1  0
  3  4  2  0
  4  5  1  0
  5  6  2  0
  6  7  1  0
  7  8  1  0
  8  9  2  0
  8 10  1  0
 10 11  1  0
 11 12  2  3
 12 13  1  0
 12 14  1  0
 14 15  2  0
 15 16  1  0
 16 17  2  0
 17 18  1  0
 18 19  2  0
  7 20  2  0
 20 21  1  0
 21 22  1  0
 20  3  1  0
 19 14  1  0
  1 23  1  0
  1 24  1  0
  1 25  1  0
  4 26  1  0
  5 27  1  0
  6 28  1  0
 13 29  1  0
 13 30  1  0
 15 31  1  0
 16 32  1  0
 18 33  1  0
 19 34  1  0
 22 35  1  0
 22 36  1  0
 22 37  1  0
M  END
$$$$
