
     RDKit          3D

 45 47  0  0  0  0  0  0  0  0999 V2000
   -5.1986    2.2768   -0.4495 C   0  0  0  0  0  0  0  0  0  0  0  0
   -4.8718    1.1723   -1.4459 C   0  0  0  0  0  0  0  0  0  0  0  0
   -4.3592   -0.0303   -0.7746 N   0  0  0  0  0  0  0  0  0  0  0  0
   -5.2453   -1.2015   -0.7623 C   0  0  0  0  0  0  0  0  0  0  0  0
   -6.1862   -1.1701    0.4324 C   0  0  0  0  0  0  0  0  0  0  0  0
   -3.0775   -0.0851   -0.2347 C   0  0  0  0  0  0  0  0  0  0  0  0
   -2.6721   -1.1134    0.6326 C   0  0  0  0  0  0  0  0  0  0  0  0
   -1.3803   -1.1752    1.1796 C   0  0  0  0  0  0  0  0  0  0  0  0
   -0.4286   -0.2058    0.8693 C   0  0  0  0  0  0  0  0  0  0  0  0
    0.8922   -0.2761    1.5002 C   0  0  0  0  0  0  0  0  0  0  0  0
    2.0871   -0.1968    0.8995 C   0  0  0  0  0  0  0  0  0  0  0  0
    2.4498   -0.0309   -0.5349 C   0  0  0  0  0  0  0  0  0  0  0  0
    1.7369    0.0944   -1.5064 O   0  0  0  0  0  0  0  0  0  0  0  0
    3.9182   -0.0424   -0.5671 C   0  0  0  0  0  0  0  0  0  0  0  0
    4.7445    0.0799   -1.6696 C   0  0  0  0  0  0  0  0  0  0  0  0
    6.1265    0.0399   -1.4502 C   0  0  0  0  0  0  0  0  0  0  0  0
    6.6548   -0.1200   -0.1465 C   0  0  0  0  0  0  0  0  0  0  0  0
    8.1304   -0.1529    0.0056 C   0  0  0  0  0  0  0  0  0  0  0  0
    8.9395   -0.0529   -0.8968 O   0  0  0  0  0  0  0  0  0  0  0  0
    8.5143   -0.3096    1.2831 O   0  0  0  0  0  0  0  0  0  0  0  0
    5.7974   -0.2423    0.9572 C   0  0  0  0  0  0  0  0  0  0  0  0
    4.4347   -0.1998    0.7160 C   0  0  0  0  0  0  0  0  0  0  0  0
    3.3447   -0.3054    1.6913 C   0  0  0  0  0  0  0  0  0  0  0  0
    3.4706   -0.4520    2.8886 O   0  0  0  0  0  0  0  0  0  0  0  0
   -0.8064    0.8372    0.0296 C   0  0  0  0  0  0  0  0  0  0  0  0
   -2.1016    0.8868   -0.5124 C   0  0  0  0  0  0  0  0  0  0  0  0
   -5.6209    3.1409   -0.9722 H   0  0  0  0  0  0  0  0  0  0  0  0
   -5.9307    1.9384    0.2902 H   0  0  0  0  0  0  0  0  0  0  0  0
   -4.3116    2.6155    0.0936 H   0  0  0  0  0  0  0  0  0  0  0  0
   -4.1747    1.5282   -2.2124 H   0  0  0  0  0  0  0  0  0  0  0  0
   -5.7938    0.9354   -1.9917 H   0  0  0  0  0  0  0  0  0  0  0  0
   -4.6803   -2.1406   -0.7821 H   0  0  0  0  0  0  0  0  0  0  0  0
   -5.8448   -1.2236   -1.6812 H   0  0  0  0  0  0  0  0  0  0  0  0
   -6.8526   -0.3032    0.3857 H   0  0  0  0  0  0  0  0  0  0  0  0
   -5.6392   -1.1200    1.3787 H   0  0  0  0  0  0  0  0  0  0  0  0
   -6.8090   -2.0701    0.4456 H   0  0  0  0  0  0  0  0  0  0  0  0
   -3.3631   -1.8960    0.9298 H   0  0  0  0  0  0  0  0  0  0  0  0
   -1.1366   -1.9956    1.8507 H   0  0  0  0  0  0  0  0  0  0  0  0
    0.8588   -0.4333    2.5787 H   0  0  0  0  0  0  0  0  0  0  0  0
    4.3337    0.2017   -2.6681 H   0  0  0  0  0  0  0  0  0  0  0  0
    6.8029    0.1336   -2.3004 H   0  0  0  0  0  0  0  0  0  0  0  0
    9.4943   -0.3149    1.2430 H   0  0  0  0  0  0  0  0  0  0  0  0
    6.1734   -0.3664    1.9688 H   0  0  0  0  0  0  0  0  0  0  0  0
   -0.1059    1.6273   -0.2287 H   0  0  0  0  0  0  0  0  0  0  0  0
   -2.3141    1.7178   -1.1772 H   0  0  0  0  0  0  0  0  0  0  0  0
  1  2  1  0
  2  3  1  0
  3  4  1  0
  4  5  1  0
  3  6  1  0
  6  7  2  0
  7  8  1  0
  8  9  2  0
  9 10  1  0
 10 11  2  3
 11 12  1  0
 12 13  2  0
 12 14  1  0
 14 15  2  0
 15 16  1  0
 16 17  2  0
 17 18  1  0
 18 19  2  0
 18 20  1  0
 17 21  1  0
 21 22  2  0
 22 23  1  0
 23 24  2  0
  9 25  1  0
 25 26  2  0
 26  6  1  0
 23 11  1  0
 22 14  1  0
  1 27  1  0
  1 28  1  0
  1 29  1  0
  2 30  1  0
  2 31  1  0
  4 32  1  0
  4 33  1  0
  5 34  1  0
  5 35  1  0
  5 36  1  0
  7 37  1  0
  8 38  1  0
 10 39  1  0
 15 40  1  0
 16 41  1  0
 20 42  1  0
 21 43  1  0
 25 44  1  0
 26 45  1  0
M  END
$$$$
