
     RDKit          3D

 48 50  0  0  0  0  0  0  0  0999 V2000
    7.1847   -1.0912   -0.8155 C   0  0  0  0  0  0  0  0  0  0  0  0
    7.1714   -1.3271    0.6875 C   0  0  0  0  0  0  0  0  0  0  0  0
    6.4734   -0.2090    1.4562 C   0  0  0  0  0  0  0  0  0  0  0  0
    5.0759   -0.1819    1.1263 O   0  0  0  0  0  0  0  0  0  0  0  0
    4.6468    0.8624    0.3770 C   0  0  0  0  0  0  0  0  0  0  0  0
    5.3328    1.7793   -0.0463 O   0  0  0  0  0  0  0  0  0  0  0  0
    3.1866    0.7480    0.1117 C   0  0  0  0  0  0  0  0  0  0  0  0
    2.4029   -0.2881    0.6311 C   0  0  0  0  0  0  0  0  0  0  0  0
    1.0308   -0.3495    0.3506 C   0  0  0  0  0  0  0  0  0  0  0  0
    0.4236    0.6189   -0.4508 C   0  0  0  0  0  0  0  0  0  0  0  0
   -0.9473    0.6282   -0.7812 N   0  0  0  0  0  0  0  0  0  0  0  0
   -1.9227   -0.2749   -0.3792 C   0  0  0  0  0  0  0  0  0  0  0  0
   -1.7483   -1.2269    0.3701 O   0  0  0  0  0  0  0  0  0  0  0  0
   -3.3018    0.1048   -0.9344 C   0  0  0  0  0  0  0  0  0  0  0  0
   -3.8993    1.2453   -0.0676 C   0  0  0  0  0  0  0  0  0  0  0  0
   -5.0619    1.9040   -0.8315 C   0  0  0  0  0  0  0  0  0  0  0  0
   -6.1697    0.8427   -0.7592 C   0  0  0  0  0  0  0  0  0  0  0  0
   -5.4945   -0.3091    0.0088 C   0  0  0  0  0  0  0  0  0  0  0  0
   -4.6447    0.4635    1.0159 C   0  0  0  0  0  0  0  0  0  0  0  0
   -4.4292   -0.9554   -0.9132 C   0  0  0  0  0  0  0  0  0  0  0  0
   -4.0464   -2.3464   -0.4713 C   0  0  0  0  0  0  0  0  0  0  0  0
   -4.4349   -2.9427    0.5179 O   0  0  0  0  0  0  0  0  0  0  0  0
   -3.2311   -2.9438   -1.3657 O   0  0  0  0  0  0  0  0  0  0  0  0
    1.2111    1.6546   -0.9699 C   0  0  0  0  0  0  0  0  0  0  0  0
    2.5807    1.7207   -0.6911 C   0  0  0  0  0  0  0  0  0  0  0  0
    6.1712   -1.0898   -1.2281 H   0  0  0  0  0  0  0  0  0  0  0  0
    7.6589   -0.1353   -1.0591 H   0  0  0  0  0  0  0  0  0  0  0  0
    7.7473   -1.8857   -1.3163 H   0  0  0  0  0  0  0  0  0  0  0  0
    8.2029   -1.4196    1.0453 H   0  0  0  0  0  0  0  0  0  0  0  0
    6.6650   -2.2786    0.8855 H   0  0  0  0  0  0  0  0  0  0  0  0
    6.5384   -0.4168    2.5299 H   0  0  0  0  0  0  0  0  0  0  0  0
    6.9677    0.7544    1.2872 H   0  0  0  0  0  0  0  0  0  0  0  0
    2.8396   -1.0608    1.2596 H   0  0  0  0  0  0  0  0  0  0  0  0
    0.4674   -1.1735    0.7779 H   0  0  0  0  0  0  0  0  0  0  0  0
   -1.2494    1.3886   -1.3775 H   0  0  0  0  0  0  0  0  0  0  0  0
   -3.1564    0.4419   -1.9697 H   0  0  0  0  0  0  0  0  0  0  0  0
   -3.1697    1.9640    0.3131 H   0  0  0  0  0  0  0  0  0  0  0  0
   -5.3879    2.8217   -0.3291 H   0  0  0  0  0  0  0  0  0  0  0  0
   -4.7978    2.1560   -1.8633 H   0  0  0  0  0  0  0  0  0  0  0  0
   -6.5211    0.5439   -1.7516 H   0  0  0  0  0  0  0  0  0  0  0  0
   -7.0274    1.2325   -0.1988 H   0  0  0  0  0  0  0  0  0  0  0  0
   -6.2081   -1.0093    0.4489 H   0  0  0  0  0  0  0  0  0  0  0  0
   -3.9966   -0.1769    1.6217 H   0  0  0  0  0  0  0  0  0  0  0  0
   -5.2374    1.1051    1.6769 H   0  0  0  0  0  0  0  0  0  0  0  0
   -4.8597   -1.0719   -1.9175 H   0  0  0  0  0  0  0  0  0  0  0  0
   -2.9830   -3.7793   -0.9158 H   0  0  0  0  0  0  0  0  0  0  0  0
    0.7752    2.4273   -1.5982 H   0  0  0  0  0  0  0  0  0  0  0  0
    3.1724    2.5358   -1.1046 H   0  0  0  0  0  0  0  0  0  0  0  0
  1  2  1  0
  2  3  1  0
  3  4  1  0
  4  5  1  0
  5  6  2  0
  5  7  1  0
  7  8  2  0
  8  9  1  0
  9 10  2  0
 10 11  1  0
 11 12  1  0
 12 13  2  0
 12 14  1  0
 14 15  1  0
 15 16  1  0
 16 17  1  0
 17 18  1  0
 18 19  1  0
 18 20  1  0
 20 21  1  0
 21 22  2  0
 21 23  1  0
 10 24  1  0
 24 25  2  0
 25  7  1  0
 20 14  1  0
 19 15  1  0
  1 26  1  0
  1 27  1  0
  1 28  1  0
  2 29  1  0
  2 30  1  0
  3 31  1  0
  3 32  1  0
  8 33  1  0
  9 34  1  0
 11 35  1  0
 14 36  1  0
 15 37  1  0
 16 38  1  0
 16 39  1  0
 17 40  1  0
 17 41  1  0
 18 42  1  0
 19 43  1  0
 19 44  1  0
 20 45  1  0
 23 46  1  0
 24 47  1  0
 25 48  1  0
M  END
$$$$
