
     RDKit          3D

 49 51  0  0  0  0  0  0  0  0999 V2000
   -4.7641   -3.4413   -1.7809 C   0  0  0  0  0  0  0  0  0  0  0  0
   -5.3613   -2.1973   -1.4417 O   0  0  0  0  0  0  0  0  0  0  0  0
   -4.5737   -1.2504   -0.8406 C   0  0  0  0  0  0  0  0  0  0  0  0
   -3.1918   -1.3528   -0.6732 C   0  0  0  0  0  0  0  0  0  0  0  0
   -2.4870   -0.3211   -0.0352 C   0  0  0  0  0  0  0  0  0  0  0  0
   -1.0157   -0.3950    0.1652 C   0  0  0  0  0  0  0  0  0  0  0  0
   -0.3379    0.6287    0.1521 O   0  0  0  0  0  0  0  0  0  0  0  0
   -0.4915   -1.6575    0.4105 N   0  0  0  0  0  0  0  0  0  0  0  0
    0.8355   -2.0390    0.5659 C   0  0  0  0  0  0  0  0  0  0  0  0
    1.0764   -3.6587    0.8859 S   0  0  0  0  0  0  0  0  0  0  0  0
    1.7424   -1.0132    0.4373 N   0  0  0  0  0  0  0  0  0  0  0  0
    3.1525   -0.9414    0.4584 C   0  0  0  0  0  0  0  0  0  0  0  0
    4.0277   -2.0474    0.4901 C   0  0  0  0  0  0  0  0  0  0  0  0
    5.4228   -1.8833    0.5066 C   0  0  0  0  0  0  0  0  0  0  0  0
    5.9120   -0.5960    0.4841 C   0  0  0  0  0  0  0  0  0  0  0  0
    5.0687    0.4945    0.4432 C   0  0  0  0  0  0  0  0  0  0  0  0
    3.6931    0.3569    0.4262 C   0  0  0  0  0  0  0  0  0  0  0  0
    5.9003    1.6967    0.4307 C   0  0  0  0  0  0  0  0  0  0  0  0
    5.4608    2.8301    0.4166 O   0  0  0  0  0  0  0  0  0  0  0  0
    7.1987    1.2683    0.4470 N   0  0  0  0  0  0  0  0  0  0  0  0
    8.3424    2.1457    0.4769 C   0  0  0  0  0  0  0  0  0  0  0  0
    7.2855   -0.0960    0.4967 C   0  0  0  0  0  0  0  0  0  0  0  0
    8.2722   -0.8044    0.5503 O   0  0  0  0  0  0  0  0  0  0  0  0
   -3.1524    0.8304    0.4104 C   0  0  0  0  0  0  0  0  0  0  0  0
   -4.5323    0.9495    0.2489 C   0  0  0  0  0  0  0  0  0  0  0  0
   -5.2803    2.0211    0.6607 O   0  0  0  0  0  0  0  0  0  0  0  0
   -4.6125    3.0597    1.3649 C   0  0  0  0  0  0  0  0  0  0  0  0
   -5.2311   -0.0914   -0.3882 C   0  0  0  0  0  0  0  0  0  0  0  0
   -6.6015   -0.0097   -0.5078 O   0  0  0  0  0  0  0  0  0  0  0  0
   -6.9452    0.6341   -1.7340 C   0  0  0  0  0  0  0  0  0  0  0  0
   -5.5515   -4.0983   -2.1627 H   0  0  0  0  0  0  0  0  0  0  0  0
   -4.3238   -3.9239   -0.9021 H   0  0  0  0  0  0  0  0  0  0  0  0
   -4.0221   -3.3139   -2.5755 H   0  0  0  0  0  0  0  0  0  0  0  0
   -2.6531   -2.2100   -1.0609 H   0  0  0  0  0  0  0  0  0  0  0  0
   -1.1346   -2.4278    0.5372 H   0  0  0  0  0  0  0  0  0  0  0  0
    1.2838   -0.1029    0.3441 H   0  0  0  0  0  0  0  0  0  0  0  0
    3.6642   -3.0677    0.4873 H   0  0  0  0  0  0  0  0  0  0  0  0
    6.0912   -2.7384    0.5328 H   0  0  0  0  0  0  0  0  0  0  0  0
    3.0654    1.2434    0.3961 H   0  0  0  0  0  0  0  0  0  0  0  0
    8.0818    3.1295    0.0773 H   0  0  0  0  0  0  0  0  0  0  0  0
    8.6647    2.2534    1.5170 H   0  0  0  0  0  0  0  0  0  0  0  0
    9.1610    1.7073   -0.1005 H   0  0  0  0  0  0  0  0  0  0  0  0
   -2.5688    1.6147    0.8840 H   0  0  0  0  0  0  0  0  0  0  0  0
   -4.1564    2.6834    2.2865 H   0  0  0  0  0  0  0  0  0  0  0  0
   -3.8709    3.5528    0.7280 H   0  0  0  0  0  0  0  0  0  0  0  0
   -5.3603    3.8077    1.6450 H   0  0  0  0  0  0  0  0  0  0  0  0
   -6.5753    0.0714   -2.5980 H   0  0  0  0  0  0  0  0  0  0  0  0
   -8.0368    0.6704   -1.7980 H   0  0  0  0  0  0  0  0  0  0  0  0
   -6.5711    1.6631   -1.7645 H   0  0  0  0  0  0  0  0  0  0  0  0
  1  2  1  0
  2  3  1  0
  3  4  2  0
  4  5  1  0
  5  6  1  0
  6  7  2  0
  6  8  1  0
  8  9  1  0
  9 10  2  0
  9 11  1  0
 11 12  1  0
 12 13  2  0
 13 14  1  0
 14 15  2  0
 15 16  1  0
 16 17  2  0
 16 18  1  0
 18 19  2  0
 18 20  1  0
 20 21  1  0
 20 22  1  0
 22 23  2  0
  5 24  2  0
 24 25  1  0
 25 26  1  0
 26 27  1  0
 25 28  2  0
 28 29  1  0
 29 30  1  0
 28  3  1  0
 17 12  1  0
 22 15  1  0
  1 31  1  0
  1 32  1  0
  1 33  1  0
  4 34  1  0
  8 35  1  0
 11 36  1  0
 13 37  1  0
 14 38  1  0
 17 39  1  0
 21 40  1  0
 21 41  1  0
 21 42  1  0
 24 43  1  0
 27 44  1  0
 27 45  1  0
 27 46  1  0
 30 47  1  0
 30 48  1  0
 30 49  1  0
M  END
$$$$
