
     RDKit          3D

 45 46  0  0  0  0  0  0  0  0999 V2000
    5.8241   -0.7999    0.0958 C   0  0  0  0  0  0  0  0  0  0  0  0
    4.5390   -1.5723    0.1131 C   0  0  0  0  0  0  0  0  0  0  0  0
    4.5289   -2.9161    0.4955 C   0  0  0  0  0  0  0  0  0  0  0  0
    3.3266   -3.6188    0.5528 C   0  0  0  0  0  0  0  0  0  0  0  0
    2.1233   -2.9862    0.2280 C   0  0  0  0  0  0  0  0  0  0  0  0
    2.1126   -1.6502   -0.1724 C   0  0  0  0  0  0  0  0  0  0  0  0
    0.9356   -0.9269   -0.4749 N   0  0  0  0  0  0  0  0  0  0  0  0
   -0.3208   -1.3653   -0.8815 C   0  0  0  0  0  0  0  0  0  0  0  0
   -0.5648   -2.7939   -1.7435 S   0  0  0  0  0  0  0  0  0  0  0  0
   -1.3574   -0.4527   -0.5557 N   0  0  0  0  0  0  0  0  0  0  0  0
   -1.1139    0.7895    0.2102 C   0  0  0  0  0  0  0  0  0  0  0  0
   -0.8438    1.9918   -0.7206 C   0  0  0  0  0  0  0  0  0  0  0  0
   -0.2571    3.1556   -0.0322 N   0  0  0  0  0  0  0  0  0  0  0  0
   -1.1807    3.7395    0.9434 C   0  0  0  0  0  0  0  0  0  0  0  0
    0.1366    4.1738   -1.0109 C   0  0  0  0  0  0  0  0  0  0  0  0
   -2.7604   -0.6689   -0.9649 C   0  0  0  0  0  0  0  0  0  0  0  0
   -3.6283   -1.0057    0.2176 C   0  0  0  0  0  0  0  0  0  0  0  0
   -4.6435   -0.2456    0.7712 C   0  0  0  0  0  0  0  0  0  0  0  0
   -5.2630   -0.8873    1.8821 C   0  0  0  0  0  0  0  0  0  0  0  0
   -4.7060   -2.1193    2.1397 C   0  0  0  0  0  0  0  0  0  0  0  0
   -3.4529   -2.4992    1.0424 S   0  0  0  0  0  0  0  0  0  0  0  0
    3.3238   -0.9427   -0.1970 C   0  0  0  0  0  0  0  0  0  0  0  0
    6.6600   -1.4428   -0.1987 H   0  0  0  0  0  0  0  0  0  0  0  0
    5.7778    0.0229   -0.6251 H   0  0  0  0  0  0  0  0  0  0  0  0
    6.0272   -0.3878    1.0887 H   0  0  0  0  0  0  0  0  0  0  0  0
    5.4549   -3.4221    0.7590 H   0  0  0  0  0  0  0  0  0  0  0  0
    3.3197   -4.6601    0.8640 H   0  0  0  0  0  0  0  0  0  0  0  0
    1.2053   -3.5543    0.3345 H   0  0  0  0  0  0  0  0  0  0  0  0
    1.0809    0.0688   -0.5605 H   0  0  0  0  0  0  0  0  0  0  0  0
   -1.9795    0.9920    0.8483 H   0  0  0  0  0  0  0  0  0  0  0  0
   -0.2727    0.6399    0.8956 H   0  0  0  0  0  0  0  0  0  0  0  0
   -0.1486    1.6643   -1.5045 H   0  0  0  0  0  0  0  0  0  0  0  0
   -1.7720    2.2717   -1.2364 H   0  0  0  0  0  0  0  0  0  0  0  0
   -2.1287    4.0405    0.4830 H   0  0  0  0  0  0  0  0  0  0  0  0
   -0.7329    4.6217    1.4157 H   0  0  0  0  0  0  0  0  0  0  0  0
   -1.3912    3.0378    1.7561 H   0  0  0  0  0  0  0  0  0  0  0  0
   -0.7205    4.5529   -1.5791 H   0  0  0  0  0  0  0  0  0  0  0  0
    0.8692    3.7684   -1.7178 H   0  0  0  0  0  0  0  0  0  0  0  0
    0.6217    5.0203   -0.5114 H   0  0  0  0  0  0  0  0  0  0  0  0
   -2.8668   -1.4404   -1.7306 H   0  0  0  0  0  0  0  0  0  0  0  0
   -3.1111    0.2607   -1.4307 H   0  0  0  0  0  0  0  0  0  0  0  0
   -4.9306    0.7281    0.3946 H   0  0  0  0  0  0  0  0  0  0  0  0
   -6.0767   -0.4690    2.4610 H   0  0  0  0  0  0  0  0  0  0  0  0
   -4.9765   -2.8214    2.9161 H   0  0  0  0  0  0  0  0  0  0  0  0
    3.3332    0.1088   -0.4754 H   0  0  0  0  0  0  0  0  0  0  0  0
  1  2  1  0
  2  3  2  0
  3  4  1  0
  4  5  2  0
  5  6  1  0
  6  7  1  0
  7  8  1  0
  8  9  2  0
  8 10  1  0
 10 11  1  0
 11 12  1  0
 12 13  1  0
 13 14  1  0
 13 15  1  0
 10 16  1  0
 16 17  1  0
 17 18  2  0
 18 19  1  0
 19 20  2  0
 20 21  1  0
  6 22  2  0
 22  2  1  0
 21 17  1  0
  1 23  1  0
  1 24  1  0
  1 25  1  0
  3 26  1  0
  4 27  1  0
  5 28  1  0
  7 29  1  0
 11 30  1  0
 11 31  1  0
 12 32  1  0
 12 33  1  0
 14 34  1  0
 14 35  1  0
 14 36  1  0
 15 37  1  0
 15 38  1  0
 15 39  1  0
 16 40  1  0
 16 41  1  0
 18 42  1  0
 19 43  1  0
 20 44  1  0
 22 45  1  0
M  END
$$$$
