
     RDKit          3D

 45 49  0  0  0  0  0  0  0  0999 V2000
    0.8787   -1.2129   -0.8248 O   0  0  0  0  0  0  0  0  0  0  0  0
    0.7502   -0.0286   -1.1260 C   0  0  0  0  0  0  0  0  0  0  0  0
   -0.4443    0.5137   -1.8562 C   0  0  0  0  0  0  0  0  0  0  0  0
   -1.6760    0.2620   -1.1287 N   0  0  0  0  0  0  0  0  0  0  0  0
   -2.2553   -0.9893   -0.9229 C   0  0  0  0  0  0  0  0  0  0  0  0
   -1.6796   -2.1418   -1.2422 O   0  0  0  0  0  0  0  0  0  0  0  0
   -3.4728   -0.7429   -0.3643 C   0  0  0  0  0  0  0  0  0  0  0  0
   -3.6156    0.6451   -0.1621 C   0  0  0  0  0  0  0  0  0  0  0  0
   -2.4950    1.2669   -0.6238 C   0  0  0  0  0  0  0  0  0  0  0  0
   -2.1385    2.5424   -0.6609 O   0  0  0  0  0  0  0  0  0  0  0  0
   -4.9468    0.8585    0.4859 C   0  0  0  0  0  0  0  0  0  0  0  0
   -6.0447    0.5226   -0.5568 C   0  0  0  0  0  0  0  0  0  0  0  0
   -5.8834   -1.0174   -0.7795 C   0  0  0  0  0  0  0  0  0  0  0  0
   -4.7091   -1.4014    0.1579 C   0  0  0  0  0  0  0  0  0  0  0  0
   -5.0247   -0.4421    1.3531 C   0  0  0  0  0  0  0  0  0  0  0  0
    1.6639    0.9916   -0.8925 O   0  0  0  0  0  0  0  0  0  0  0  0
    2.7992    0.5926   -0.1819 C   0  0  0  0  0  0  0  0  0  0  0  0
    2.7118    0.2903    1.1738 C   0  0  0  0  0  0  0  0  0  0  0  0
    3.8703   -0.0585    1.8681 C   0  0  0  0  0  0  0  0  0  0  0  0
    5.1163   -0.0896    1.2177 C   0  0  0  0  0  0  0  0  0  0  0  0
    6.2894   -0.4391    1.9051 C   0  0  0  0  0  0  0  0  0  0  0  0
    7.5214   -0.4612    1.2492 C   0  0  0  0  0  0  0  0  0  0  0  0
    7.5974   -0.1335   -0.1013 C   0  0  0  0  0  0  0  0  0  0  0  0
    6.4413    0.2160   -0.8010 C   0  0  0  0  0  0  0  0  0  0  0  0
    5.1935    0.2415   -0.1574 C   0  0  0  0  0  0  0  0  0  0  0  0
    4.0230    0.5895   -0.8483 C   0  0  0  0  0  0  0  0  0  0  0  0
   -0.3380    1.5882   -2.0322 H   0  0  0  0  0  0  0  0  0  0  0  0
   -0.5206    0.0257   -2.8335 H   0  0  0  0  0  0  0  0  0  0  0  0
   -0.7098   -2.0696   -1.1145 H   0  0  0  0  0  0  0  0  0  0  0  0
   -2.8708    3.0464   -0.2613 H   0  0  0  0  0  0  0  0  0  0  0  0
   -5.0711    1.7967    1.0260 H   0  0  0  0  0  0  0  0  0  0  0  0
   -5.9173    1.0756   -1.4937 H   0  0  0  0  0  0  0  0  0  0  0  0
   -7.0423    0.7376   -0.1577 H   0  0  0  0  0  0  0  0  0  0  0  0
   -5.6749   -1.2478   -1.8298 H   0  0  0  0  0  0  0  0  0  0  0  0
   -6.8040   -1.5337   -0.4851 H   0  0  0  0  0  0  0  0  0  0  0  0
   -4.6216   -2.4584    0.4078 H   0  0  0  0  0  0  0  0  0  0  0  0
   -4.2541   -0.4743    2.1335 H   0  0  0  0  0  0  0  0  0  0  0  0
   -6.0113   -0.6105    1.7986 H   0  0  0  0  0  0  0  0  0  0  0  0
    1.7565    0.3169    1.6895 H   0  0  0  0  0  0  0  0  0  0  0  0
    3.7954   -0.3064    2.9246 H   0  0  0  0  0  0  0  0  0  0  0  0
    6.2515   -0.6981    2.9609 H   0  0  0  0  0  0  0  0  0  0  0  0
    8.4212   -0.7346    1.7943 H   0  0  0  0  0  0  0  0  0  0  0  0
    8.5567   -0.1508   -0.6121 H   0  0  0  0  0  0  0  0  0  0  0  0
    6.5221    0.4674   -1.8561 H   0  0  0  0  0  0  0  0  0  0  0  0
    4.0617    0.8553   -1.9007 H   0  0  0  0  0  0  0  0  0  0  0  0
  1  2  2  0
  2  3  1  0
  3  4  1  0
  4  5  1  0
  5  6  1  0
  5  7  2  0
  7  8  1  0
  8  9  2  0
  9 10  1  0
  8 11  1  0
 11 12  1  0
 12 13  1  0
 13 14  1  0
 14 15  1  0
  2 16  1  0
 16 17  1  0
 17 18  2  0
 18 19  1  0
 19 20  2  0
 20 21  1  0
 21 22  2  0
 22 23  1  0
 23 24  2  0
 24 25  1  0
 25 26  2  0
  9  4  1  0
 15 11  1  0
 26 17  1  0
 14  7  1  0
 25 20  1  0
  3 27  1  0
  3 28  1  0
  6 29  1  0
 10 30  1  0
 11 31  1  0
 12 32  1  0
 12 33  1  0
 13 34  1  0
 13 35  1  0
 14 36  1  0
 15 37  1  0
 15 38  1  0
 18 39  1  0
 19 40  1  0
 21 41  1  0
 22 42  1  0
 23 43  1  0
 24 44  1  0
 26 45  1  0
M  END
$$$$
