
     RDKit          3D

 53 56  0  0  0  0  0  0  0  0999 V2000
   -0.2342   -2.9671   -0.2815 C   0  0  0  0  0  0  0  0  0  0  0  0
   -0.7259   -1.5473   -0.2596 C   0  0  0  0  0  0  0  0  0  0  0  0
    0.1447   -0.4575   -0.1684 C   0  0  0  0  0  0  0  0  0  0  0  0
    1.5029   -0.5790   -0.0830 O   0  0  0  0  0  0  0  0  0  0  0  0
    1.9861   -1.0354    1.1957 C   0  0  0  0  0  0  0  0  0  0  0  0
    1.5323   -0.1576    2.3679 C   0  0  0  0  0  0  0  0  0  0  0  0
    3.5269   -1.0437    1.1428 C   0  0  0  0  0  0  0  0  0  0  0  0
    4.2298   -1.0165    2.1489 O   0  0  0  0  0  0  0  0  0  0  0  0
    4.0566   -1.1295   -0.1277 N   0  0  0  0  0  0  0  0  0  0  0  0
    5.4670   -0.8884   -0.3568 C   0  0  0  0  0  0  0  0  0  0  0  0
    5.7791    0.5918   -0.3859 C   0  0  0  0  0  0  0  0  0  0  0  0
    6.2948    1.2199    0.7476 C   0  0  0  0  0  0  0  0  0  0  0  0
    6.5429    2.5887    0.7046 C   0  0  0  0  0  0  0  0  0  0  0  0
    6.2603    3.2966   -0.4598 C   0  0  0  0  0  0  0  0  0  0  0  0
    5.7370    2.6012   -1.5387 C   0  0  0  0  0  0  0  0  0  0  0  0
    5.4851    1.2729   -1.5285 N   0  0  0  0  0  0  0  0  0  0  0  0
   -0.3433    0.8479   -0.2403 C   0  0  0  0  0  0  0  0  0  0  0  0
   -1.7181    1.0897   -0.3156 C   0  0  0  0  0  0  0  0  0  0  0  0
   -2.6286    0.0273   -0.3329 C   0  0  0  0  0  0  0  0  0  0  0  0
   -4.0897    0.2173   -0.3887 C   0  0  0  0  0  0  0  0  0  0  0  0
   -4.8927   -0.8625   -0.4521 C   0  0  0  0  0  0  0  0  0  0  0  0
   -4.3535   -2.2487   -0.4246 C   0  0  0  0  0  0  0  0  0  0  0  0
   -5.0882   -3.2310   -0.4556 O   0  0  0  0  0  0  0  0  0  0  0  0
   -2.9778   -2.3844   -0.3510 O   0  0  0  0  0  0  0  0  0  0  0  0
   -2.1073   -1.2714   -0.3112 C   0  0  0  0  0  0  0  0  0  0  0  0
   -6.3947   -0.7659   -0.5678 C   0  0  0  0  0  0  0  0  0  0  0  0
   -6.8860    0.6286   -0.9581 C   0  0  0  0  0  0  0  0  0  0  0  0
   -6.1643    1.6936   -0.1492 C   0  0  0  0  0  0  0  0  0  0  0  0
   -4.6510    1.6222   -0.3735 C   0  0  0  0  0  0  0  0  0  0  0  0
   -0.8826   -3.6092   -0.8900 H   0  0  0  0  0  0  0  0  0  0  0  0
    0.7666   -3.0344   -0.7288 H   0  0  0  0  0  0  0  0  0  0  0  0
   -0.2037   -3.3647    0.7359 H   0  0  0  0  0  0  0  0  0  0  0  0
    1.6876   -2.0758    1.3674 H   0  0  0  0  0  0  0  0  0  0  0  0
    1.9916   -0.4744    3.3122 H   0  0  0  0  0  0  0  0  0  0  0  0
    0.4482   -0.1953    2.5106 H   0  0  0  0  0  0  0  0  0  0  0  0
    1.8026    0.8892    2.1925 H   0  0  0  0  0  0  0  0  0  0  0  0
    3.4286   -0.8618   -0.8799 H   0  0  0  0  0  0  0  0  0  0  0  0
    6.0603   -1.3984    0.4089 H   0  0  0  0  0  0  0  0  0  0  0  0
    5.7246   -1.3327   -1.3249 H   0  0  0  0  0  0  0  0  0  0  0  0
    6.4895    0.6521    1.6543 H   0  0  0  0  0  0  0  0  0  0  0  0
    6.9469    3.0970    1.5764 H   0  0  0  0  0  0  0  0  0  0  0  0
    6.4435    4.3643   -0.5253 H   0  0  0  0  0  0  0  0  0  0  0  0
    5.4986    3.1123   -2.4698 H   0  0  0  0  0  0  0  0  0  0  0  0
    0.3506    1.6867   -0.2190 H   0  0  0  0  0  0  0  0  0  0  0  0
   -2.0495    2.1265   -0.3557 H   0  0  0  0  0  0  0  0  0  0  0  0
   -6.7690   -1.4752   -1.3162 H   0  0  0  0  0  0  0  0  0  0  0  0
   -6.8384   -1.0467    0.3960 H   0  0  0  0  0  0  0  0  0  0  0  0
   -6.7110    0.7990   -2.0301 H   0  0  0  0  0  0  0  0  0  0  0  0
   -7.9687    0.6998   -0.7957 H   0  0  0  0  0  0  0  0  0  0  0  0
   -6.3860    1.5572    0.9171 H   0  0  0  0  0  0  0  0  0  0  0  0
   -6.5304    2.6893   -0.4239 H   0  0  0  0  0  0  0  0  0  0  0  0
   -4.4110    2.1037   -1.3304 H   0  0  0  0  0  0  0  0  0  0  0  0
   -4.1792    2.2122    0.4213 H   0  0  0  0  0  0  0  0  0  0  0  0
  1  2  1  0
  2  3  2  0
  3  4  1  0
  4  5  1  0
  5  6  1  0
  5  7  1  0
  7  8  2  0
  7  9  1  0
  9 10  1  0
 10 11  1  0
 11 12  2  0
 12 13  1  0
 13 14  2  0
 14 15  1  0
 15 16  2  0
  3 17  1  0
 17 18  2  0
 18 19  1  0
 19 20  1  0
 20 21  2  0
 21 22  1  0
 22 23  2  0
 22 24  1  0
 24 25  1  0
 21 26  1  0
 26 27  1  0
 27 28  1  0
 28 29  1  0
 25  2  1  0
 16 11  1  0
 25 19  2  0
 29 20  1  0
  1 30  1  0
  1 31  1  0
  1 32  1  0
  5 33  1  0
  6 34  1  0
  6 35  1  0
  6 36  1  0
  9 37  1  0
 10 38  1  0
 10 39  1  0
 12 40  1  0
 13 41  1  0
 14 42  1  0
 15 43  1  0
 17 44  1  0
 18 45  1  0
 26 46  1  0
 26 47  1  0
 27 48  1  0
 27 49  1  0
 28 50  1  0
 28 51  1  0
 29 52  1  0
 29 53  1  0
M  END
$$$$
