
     RDKit          3D

 47 49  0  0  0  0  0  0  0  0999 V2000
    4.9572    1.8108    1.0568 C   0  0  0  0  0  0  0  0  0  0  0  0
    3.8138    1.1829    0.3078 C   0  0  0  0  0  0  0  0  0  0  0  0
    4.0020   -0.0572   -0.3189 C   0  0  0  0  0  0  0  0  0  0  0  0
    2.9630   -0.6724   -1.0197 C   0  0  0  0  0  0  0  0  0  0  0  0
    1.7096   -0.0591   -1.1174 C   0  0  0  0  0  0  0  0  0  0  0  0
    0.5788   -0.7529   -1.8562 C   0  0  0  0  0  0  0  0  0  0  0  0
    0.0345    0.1102   -2.9983 C   0  0  0  0  0  0  0  0  0  0  0  0
   -0.4678   -1.1068   -0.9134 N   0  0  0  0  0  0  0  0  0  0  0  0
   -1.4251   -2.0525   -1.1871 C   0  0  0  0  0  0  0  0  0  0  0  0
   -1.4491   -2.6826   -2.2396 O   0  0  0  0  0  0  0  0  0  0  0  0
   -2.3861   -2.2886   -0.1277 C   0  0  0  0  0  0  0  0  0  0  0  0
   -2.8659   -1.4555    0.9302 C   0  0  0  0  0  0  0  0  0  0  0  0
   -2.5544   -0.0595    1.2135 C   0  0  0  0  0  0  0  0  0  0  0  0
   -2.0514    0.3083    2.4676 C   0  0  0  0  0  0  0  0  0  0  0  0
   -1.7206    1.6393    2.7297 C   0  0  0  0  0  0  0  0  0  0  0  0
   -1.8990    2.6102    1.7449 C   0  0  0  0  0  0  0  0  0  0  0  0
   -2.4124    2.2546    0.4984 C   0  0  0  0  0  0  0  0  0  0  0  0
   -2.7409    0.9239    0.2321 C   0  0  0  0  0  0  0  0  0  0  0  0
   -3.7249   -2.1254    1.7142 N   0  0  0  0  0  0  0  0  0  0  0  0
   -3.8664   -3.3744    1.1509 O   0  0  0  0  0  0  0  0  0  0  0  0
   -3.0802   -3.4689    0.0500 C   0  0  0  0  0  0  0  0  0  0  0  0
   -3.1178   -4.7558   -0.6724 C   0  0  0  0  0  0  0  0  0  0  0  0
    1.5217    1.1836   -0.4890 C   0  0  0  0  0  0  0  0  0  0  0  0
    2.5582    1.8131    0.2201 C   0  0  0  0  0  0  0  0  0  0  0  0
    2.2968    3.1390    0.8808 C   0  0  0  0  0  0  0  0  0  0  0  0
    4.6823    1.9753    2.1034 H   0  0  0  0  0  0  0  0  0  0  0  0
    5.8448    1.1690    1.0480 H   0  0  0  0  0  0  0  0  0  0  0  0
    5.2343    2.7646    0.5965 H   0  0  0  0  0  0  0  0  0  0  0  0
    4.9654   -0.5603   -0.2617 H   0  0  0  0  0  0  0  0  0  0  0  0
    3.1429   -1.6391   -1.4855 H   0  0  0  0  0  0  0  0  0  0  0  0
    0.9511   -1.6872   -2.2958 H   0  0  0  0  0  0  0  0  0  0  0  0
    0.8376    0.4101   -3.6806 H   0  0  0  0  0  0  0  0  0  0  0  0
   -0.4521    1.0196   -2.6283 H   0  0  0  0  0  0  0  0  0  0  0  0
   -0.7131   -0.4374   -3.5818 H   0  0  0  0  0  0  0  0  0  0  0  0
   -0.4041   -0.7142    0.0160 H   0  0  0  0  0  0  0  0  0  0  0  0
   -1.9156   -0.4399    3.2465 H   0  0  0  0  0  0  0  0  0  0  0  0
   -1.3310    1.9187    3.7056 H   0  0  0  0  0  0  0  0  0  0  0  0
   -1.6484    3.6474    1.9541 H   0  0  0  0  0  0  0  0  0  0  0  0
   -2.5638    3.0146   -0.2643 H   0  0  0  0  0  0  0  0  0  0  0  0
   -3.1497    0.6641   -0.7424 H   0  0  0  0  0  0  0  0  0  0  0  0
   -2.1101   -5.1703   -0.7727 H   0  0  0  0  0  0  0  0  0  0  0  0
   -3.5387   -4.6202   -1.6733 H   0  0  0  0  0  0  0  0  0  0  0  0
   -3.7326   -5.4914   -0.1443 H   0  0  0  0  0  0  0  0  0  0  0  0
    0.5486    1.6688   -0.5454 H   0  0  0  0  0  0  0  0  0  0  0  0
    1.2851    3.5017    0.6699 H   0  0  0  0  0  0  0  0  0  0  0  0
    2.9974    3.8945    0.5115 H   0  0  0  0  0  0  0  0  0  0  0  0
    2.3961    3.0474    1.9669 H   0  0  0  0  0  0  0  0  0  0  0  0
  1  2  1  0
  2  3  2  0
  3  4  1  0
  4  5  2  0
  5  6  1  0
  6  7  1  0
  6  8  1  0
  8  9  1  0
  9 10  2  0
  9 11  1  0
 11 12  1  0
 12 13  1  0
 13 14  2  0
 14 15  1  0
 15 16  2  0
 16 17  1  0
 17 18  2  0
 12 19  2  0
 19 20  1  0
 20 21  1  0
 21 22  1  0
  5 23  1  0
 23 24  2  0
 24 25  1  0
 24  2  1  0
 21 11  2  0
 18 13  1  0
  1 26  1  0
  1 27  1  0
  1 28  1  0
  3 29  1  0
  4 30  1  0
  6 31  1  0
  7 32  1  0
  7 33  1  0
  7 34  1  0
  8 35  1  0
 14 36  1  0
 15 37  1  0
 16 38  1  0
 17 39  1  0
 18 40  1  0
 22 41  1  0
 22 42  1  0
 22 43  1  0
 23 44  1  0
 25 45  1  0
 25 46  1  0
 25 47  1  0
M  END
$$$$
