
     RDKit          3D

 45 47  0  0  0  0  0  0  0  0999 V2000
    7.5595   -0.8420    1.3152 N   0  0  0  0  0  0  0  0  0  0  0  0
    6.4383   -0.7216    1.5901 C   0  0  0  0  0  0  0  0  0  0  0  0
    5.0564   -0.5748    1.9108 C   0  0  0  0  0  0  0  0  0  0  0  0
    4.7285   -0.5746    3.2991 C   0  0  0  0  0  0  0  0  0  0  0  0
    4.4502   -0.5765    4.4260 N   0  0  0  0  0  0  0  0  0  0  0  0
    4.1131   -0.4531    0.9417 C   0  0  0  0  0  0  0  0  0  0  0  0
    2.6796   -0.3301    1.2325 C   0  0  0  0  0  0  0  0  0  0  0  0
    1.7439   -0.0743    0.2981 C   0  0  0  0  0  0  0  0  0  0  0  0
    0.3353    0.0133    0.6542 C   0  0  0  0  0  0  0  0  0  0  0  0
   -0.6531    0.4077   -0.1792 C   0  0  0  0  0  0  0  0  0  0  0  0
   -2.0199    0.4026    0.1880 N   0  0  0  0  0  0  0  0  0  0  0  0
   -3.0005    1.3271   -0.4018 C   0  0  0  0  0  0  0  0  0  0  0  0
   -3.7329    0.6639   -1.5656 C   0  0  0  0  0  0  0  0  0  0  0  0
   -4.8289   -0.3087   -1.1339 C   0  0  0  0  0  0  0  0  0  0  0  0
   -4.3772   -1.4059   -0.1704 C   0  0  0  0  0  0  0  0  0  0  0  0
   -3.9743   -0.8644    1.2008 C   0  0  0  0  0  0  0  0  0  0  0  0
   -2.5103   -0.4329    1.3023 C   0  0  0  0  0  0  0  0  0  0  0  0
   -0.2875    0.8536   -1.5925 C   0  0  0  0  0  0  0  0  0  0  0  0
    1.1901    1.2106   -1.7711 C   0  0  0  0  0  0  0  0  0  0  0  0
    2.0888    0.1369   -1.1587 C   0  0  0  0  0  0  0  0  0  0  0  0
    3.5659    0.5066   -1.3363 C   0  0  0  0  0  0  0  0  0  0  0  0
    4.4567   -0.4481   -0.5432 C   0  0  0  0  0  0  0  0  0  0  0  0
    2.3551   -0.4507    2.2657 H   0  0  0  0  0  0  0  0  0  0  0  0
    0.0888   -0.2623    1.6758 H   0  0  0  0  0  0  0  0  0  0  0  0
   -2.5034    2.2398   -0.7483 H   0  0  0  0  0  0  0  0  0  0  0  0
   -3.7102    1.6814    0.3557 H   0  0  0  0  0  0  0  0  0  0  0  0
   -3.0263    0.1405   -2.2199 H   0  0  0  0  0  0  0  0  0  0  0  0
   -4.2007    1.4467   -2.1752 H   0  0  0  0  0  0  0  0  0  0  0  0
   -5.2434   -0.7810   -2.0331 H   0  0  0  0  0  0  0  0  0  0  0  0
   -5.6525    0.2560   -0.6789 H   0  0  0  0  0  0  0  0  0  0  0  0
   -3.5677   -1.9992   -0.6113 H   0  0  0  0  0  0  0  0  0  0  0  0
   -5.2249   -2.0883   -0.0302 H   0  0  0  0  0  0  0  0  0  0  0  0
   -4.1339   -1.6536    1.9471 H   0  0  0  0  0  0  0  0  0  0  0  0
   -4.6386   -0.0436    1.4965 H   0  0  0  0  0  0  0  0  0  0  0  0
   -1.9148   -1.3537    1.3536 H   0  0  0  0  0  0  0  0  0  0  0  0
   -2.3580    0.1029    2.2469 H   0  0  0  0  0  0  0  0  0  0  0  0
   -0.5487    0.0414   -2.2828 H   0  0  0  0  0  0  0  0  0  0  0  0
   -0.8607    1.7311   -1.9032 H   0  0  0  0  0  0  0  0  0  0  0  0
    1.3860    2.1839   -1.3005 H   0  0  0  0  0  0  0  0  0  0  0  0
    1.4087    1.3269   -2.8395 H   0  0  0  0  0  0  0  0  0  0  0  0
    1.9051   -0.8112   -1.6850 H   0  0  0  0  0  0  0  0  0  0  0  0
    3.7485    1.5377   -1.0044 H   0  0  0  0  0  0  0  0  0  0  0  0
    3.8342    0.4635   -2.3988 H   0  0  0  0  0  0  0  0  0  0  0  0
    4.3388   -1.4674   -0.9340 H   0  0  0  0  0  0  0  0  0  0  0  0
    5.4969   -0.1563   -0.7225 H   0  0  0  0  0  0  0  0  0  0  0  0
  1  2  3  0
  2  3  1  0
  3  4  1  0
  4  5  3  0
  3  6  2  3
  6  7  1  0
  7  8  2  0
  8  9  1  0
  9 10  2  0
 10 11  1  0
 11 12  1  0
 12 13  1  0
 13 14  1  0
 14 15  1  0
 15 16  1  0
 16 17  1  0
 10 18  1  0
 18 19  1  0
 19 20  1  0
 20 21  1  0
 21 22  1  0
 22  6  1  0
 20  8  1  0
 17 11  1  0
  7 23  1  0
  9 24  1  0
 12 25  1  0
 12 26  1  0
 13 27  1  0
 13 28  1  0
 14 29  1  0
 14 30  1  0
 15 31  1  0
 15 32  1  0
 16 33  1  0
 16 34  1  0
 17 35  1  0
 17 36  1  0
 18 37  1  0
 18 38  1  0
 19 39  1  0
 19 40  1  0
 20 41  1  0
 21 42  1  0
 21 43  1  0
 22 44  1  0
 22 45  1  0
M  END
$$$$
