
     RDKit          3D

 64 67  0  0  0  0  0  0  0  0999 V2000
    4.2463   -3.1373    2.3630 C   0  0  0  0  0  0  0  0  0  0  0  0
    5.1101   -2.5923    1.2655 C   0  0  0  0  0  0  0  0  0  0  0  0
    4.9026   -1.3157    0.7876 C   0  0  0  0  0  0  0  0  0  0  0  0
    5.7514   -0.9054   -0.2111 C   0  0  0  0  0  0  0  0  0  0  0  0
    5.6584    0.3127   -0.9106 N   0  0  0  0  0  0  0  0  0  0  0  0
    5.1803    1.7280   -0.1752 S   0  0  0  0  0  6  0  0  0  0  0  0
    5.4953    1.6704    1.2367 O   0  0  0  0  0  0  0  0  0  0  0  0
    5.6476    2.8136   -1.0103 O   0  0  0  0  0  0  0  0  0  0  0  0
    3.4119    1.6835   -0.3531 C   0  0  0  0  0  0  0  0  0  0  0  0
    2.8557    1.5554   -1.6272 C   0  0  0  0  0  0  0  0  0  0  0  0
    1.4654    1.5029   -1.7748 C   0  0  0  0  0  0  0  0  0  0  0  0
    0.6300    1.5798   -0.6573 C   0  0  0  0  0  0  0  0  0  0  0  0
   -0.7764    1.5334   -0.7170 N   0  0  0  0  0  0  0  0  0  0  0  0
   -1.5765    1.3360   -1.8331 C   0  0  0  0  0  0  0  0  0  0  0  0
   -1.1723    1.1310   -2.9745 O   0  0  0  0  0  0  0  0  0  0  0  0
   -3.0935    1.3697   -1.5344 C   0  0  0  0  0  0  0  0  0  0  0  0
   -3.5172    2.7142   -0.9087 C   0  0  0  0  0  0  0  0  0  0  0  0
   -5.0110    3.0643   -1.0814 C   0  0  0  0  0  0  0  0  0  0  0  0
   -5.2597    4.4948   -0.5900 C   0  0  0  0  0  0  0  0  0  0  0  0
   -5.9458    2.1057   -0.3434 C   0  0  0  0  0  0  0  0  0  0  0  0
   -3.4358    0.1818   -0.7525 N   0  0  0  0  0  0  0  0  0  0  0  0
   -3.1187   -0.0265    0.5618 C   0  0  0  0  0  0  0  0  0  0  0  0
   -2.5036    0.7056    1.3169 O   0  0  0  0  0  0  0  0  0  0  0  0
   -3.5962   -1.3617    0.9094 C   0  0  0  0  0  0  0  0  0  0  0  0
   -3.5515   -2.0480    2.1072 C   0  0  0  0  0  0  0  0  0  0  0  0
   -4.0882   -3.3396    2.1218 C   0  0  0  0  0  0  0  0  0  0  0  0
   -4.6439   -3.9056    0.9553 C   0  0  0  0  0  0  0  0  0  0  0  0
   -4.6720   -3.1905   -0.2463 C   0  0  0  0  0  0  0  0  0  0  0  0
   -4.1381   -1.9171   -0.2342 C   0  0  0  0  0  0  0  0  0  0  0  0
   -4.0143   -0.9310   -1.3055 C   0  0  0  0  0  0  0  0  0  0  0  0
   -4.3865   -1.1199   -2.4467 O   0  0  0  0  0  0  0  0  0  0  0  0
    1.2046    1.7214    0.6147 C   0  0  0  0  0  0  0  0  0  0  0  0
    2.5918    1.7772    0.7718 C   0  0  0  0  0  0  0  0  0  0  0  0
    6.6864   -1.6885   -0.7653 N   0  0  0  0  0  0  0  0  0  0  0  0
    6.8166   -2.9165   -0.2383 C   0  0  0  0  0  0  0  0  0  0  0  0
    7.8608   -3.8202   -0.8139 C   0  0  0  0  0  0  0  0  0  0  0  0
    6.0608   -3.4044    0.7622 N   0  0  0  0  0  0  0  0  0  0  0  0
    3.2143   -3.2391    2.0119 H   0  0  0  0  0  0  0  0  0  0  0  0
    4.5993   -4.1225    2.6852 H   0  0  0  0  0  0  0  0  0  0  0  0
    4.2679   -2.4702    3.2310 H   0  0  0  0  0  0  0  0  0  0  0  0
    4.1177   -0.6978    1.1926 H   0  0  0  0  0  0  0  0  0  0  0  0
    6.3893    0.4351   -1.6078 H   0  0  0  0  0  0  0  0  0  0  0  0
    3.4918    1.5006   -2.5080 H   0  0  0  0  0  0  0  0  0  0  0  0
    1.0677    1.4071   -2.7800 H   0  0  0  0  0  0  0  0  0  0  0  0
   -1.2571    1.5907    0.1814 H   0  0  0  0  0  0  0  0  0  0  0  0
   -3.5853    1.2841   -2.5127 H   0  0  0  0  0  0  0  0  0  0  0  0
   -2.9331    3.5096   -1.3927 H   0  0  0  0  0  0  0  0  0  0  0  0
   -3.2566    2.7628    0.1544 H   0  0  0  0  0  0  0  0  0  0  0  0
   -5.2590    3.0318   -2.1502 H   0  0  0  0  0  0  0  0  0  0  0  0
   -4.6499    5.2114   -1.1521 H   0  0  0  0  0  0  0  0  0  0  0  0
   -5.0132    4.5988    0.4735 H   0  0  0  0  0  0  0  0  0  0  0  0
   -6.3095    4.7771   -0.7236 H   0  0  0  0  0  0  0  0  0  0  0  0
   -5.6584    1.9975    0.7081 H   0  0  0  0  0  0  0  0  0  0  0  0
   -6.9791    2.4679   -0.3744 H   0  0  0  0  0  0  0  0  0  0  0  0
   -5.9473    1.1163   -0.8083 H   0  0  0  0  0  0  0  0  0  0  0  0
   -3.1184   -1.6023    2.9970 H   0  0  0  0  0  0  0  0  0  0  0  0
   -4.0772   -3.9208    3.0424 H   0  0  0  0  0  0  0  0  0  0  0  0
   -5.0539   -4.9138    0.9918 H   0  0  0  0  0  0  0  0  0  0  0  0
   -5.0925   -3.6155   -1.1523 H   0  0  0  0  0  0  0  0  0  0  0  0
    0.5760    1.7912    1.5004 H   0  0  0  0  0  0  0  0  0  0  0  0
    3.0171    1.8953    1.7658 H   0  0  0  0  0  0  0  0  0  0  0  0
    7.3837   -4.6803   -1.2927 H   0  0  0  0  0  0  0  0  0  0  0  0
    8.5246   -4.1782   -0.0209 H   0  0  0  0  0  0  0  0  0  0  0  0
    8.4665   -3.2982   -1.5615 H   0  0  0  0  0  0  0  0  0  0  0  0
  1  2  1  0
  2  3  2  0
  3  4  1  0
  4  5  1  0
  5  6  1  0
  6  7  2  0
  6  8  2  0
  6  9  1  0
  9 10  2  0
 10 11  1  0
 11 12  2  0
 12 13  1  0
 13 14  1  0
 14 15  2  0
 14 16  1  0
 16 17  1  0
 17 18  1  0
 18 19  1  0
 18 20  1  0
 16 21  1  0
 21 22  1  0
 22 23  2  0
 22 24  1  0
 24 25  2  0
 25 26  1  0
 26 27  2  0
 27 28  1  0
 28 29  2  0
 29 30  1  0
 30 31  2  0
 12 32  1  0
 32 33  2  0
  4 34  2  0
 34 35  1  0
 35 36  1  0
 35 37  2  0
 37  2  1  0
 33  9  1  0
 30 21  1  0
 29 24  1  0
  1 38  1  0
  1 39  1  0
  1 40  1  0
  3 41  1  0
  5 42  1  0
 10 43  1  0
 11 44  1  0
 13 45  1  0
 16 46  1  0
 17 47  1  0
 17 48  1  0
 18 49  1  0
 19 50  1  0
 19 51  1  0
 19 52  1  0
 20 53  1  0
 20 54  1  0
 20 55  1  0
 25 56  1  0
 26 57  1  0
 27 58  1  0
 28 59  1  0
 32 60  1  0
 33 61  1  0
 36 62  1  0
 36 63  1  0
 36 64  1  0
M  END
$$$$
