
     RDKit          3D

 41 42  0  0  0  0  0  0  0  0999 V2000
   -6.8157   -1.1189    1.5122 C   0  0  0  0  0  0  0  0  0  0  0  0
   -5.3308   -0.8892    1.6804 C   0  0  0  0  0  0  0  0  0  0  0  0
   -4.7688   -1.4504    2.6235 O   0  0  0  0  0  0  0  0  0  0  0  0
   -4.7126   -0.0277    0.7549 N   0  0  0  0  0  0  0  0  0  0  0  0
   -5.5012    0.7714   -0.1894 C   0  0  0  0  0  0  0  0  0  0  0  0
   -3.2827    0.1945    0.7598 C   0  0  0  0  0  0  0  0  0  0  0  0
   -2.3863   -0.7235    1.3164 C   0  0  0  0  0  0  0  0  0  0  0  0
   -1.0003   -0.5021    1.2900 C   0  0  0  0  0  0  0  0  0  0  0  0
   -0.4533    0.6433    0.7011 C   0  0  0  0  0  0  0  0  0  0  0  0
    0.9545    0.7438    0.7321 N   0  0  0  0  0  0  0  0  0  0  0  0
    1.8578    1.6774    0.2785 C   0  0  0  0  0  0  0  0  0  0  0  0
    1.6057    3.1359   -0.4938 S   0  0  0  0  0  0  0  0  0  0  0  0
    3.1882    1.3438    0.4977 N   0  0  0  0  0  0  0  0  0  0  0  0
    3.7087    0.2004    1.0725 C   0  0  0  0  0  0  0  0  0  0  0  0
    3.0524   -0.7146    1.5573 O   0  0  0  0  0  0  0  0  0  0  0  0
    5.1810    0.1856    1.1005 C   0  0  0  0  0  0  0  0  0  0  0  0
    5.9804   -0.1740    0.0875 C   0  0  0  0  0  0  0  0  0  0  0  0
    5.5947   -0.6471   -1.2007 C   0  0  0  0  0  0  0  0  0  0  0  0
    4.3646   -0.9184   -1.7927 C   0  0  0  0  0  0  0  0  0  0  0  0
    4.6000   -1.4070   -3.1050 C   0  0  0  0  0  0  0  0  0  0  0  0
    5.9609   -1.4136   -3.2648 C   0  0  0  0  0  0  0  0  0  0  0  0
    6.5637   -0.9623   -2.1410 O   0  0  0  0  0  0  0  0  0  0  0  0
   -1.3322    1.5614    0.1406 C   0  0  0  0  0  0  0  0  0  0  0  0
   -2.7219    1.3388    0.1676 C   0  0  0  0  0  0  0  0  0  0  0  0
   -7.3666   -0.1845    1.6546 H   0  0  0  0  0  0  0  0  0  0  0  0
   -7.0237   -1.5638    0.5350 H   0  0  0  0  0  0  0  0  0  0  0  0
   -7.1590   -1.8256    2.2759 H   0  0  0  0  0  0  0  0  0  0  0  0
   -5.0055    0.7998   -1.1680 H   0  0  0  0  0  0  0  0  0  0  0  0
   -6.4982    0.3639   -0.3609 H   0  0  0  0  0  0  0  0  0  0  0  0
   -5.6182    1.7840    0.2144 H   0  0  0  0  0  0  0  0  0  0  0  0
   -2.7241   -1.6549    1.7626 H   0  0  0  0  0  0  0  0  0  0  0  0
   -0.3577   -1.2567    1.7397 H   0  0  0  0  0  0  0  0  0  0  0  0
    1.4025   -0.0400    1.2092 H   0  0  0  0  0  0  0  0  0  0  0  0
    3.8404    2.0320    0.1412 H   0  0  0  0  0  0  0  0  0  0  0  0
    5.6105    0.4822    2.0555 H   0  0  0  0  0  0  0  0  0  0  0  0
    7.0545   -0.1351    0.2597 H   0  0  0  0  0  0  0  0  0  0  0  0
    3.3890   -0.8085   -1.3378 H   0  0  0  0  0  0  0  0  0  0  0  0
    3.8665   -1.7294   -3.8314 H   0  0  0  0  0  0  0  0  0  0  0  0
    6.6244   -1.7052   -4.0687 H   0  0  0  0  0  0  0  0  0  0  0  0
   -0.9976    2.4784   -0.3276 H   0  0  0  0  0  0  0  0  0  0  0  0
   -3.3440    2.1158   -0.2705 H   0  0  0  0  0  0  0  0  0  0  0  0
  1  2  1  0
  2  3  2  0
  2  4  1  0
  4  5  1  0
  4  6  1  0
  6  7  2  0
  7  8  1  0
  8  9  2  0
  9 10  1  0
 10 11  1  0
 11 12  2  0
 11 13  1  0
 13 14  1  0
 14 15  2  0
 14 16  1  0
 16 17  2  3
 17 18  1  0
 18 19  2  0
 19 20  1  0
 20 21  2  0
 21 22  1  0
  9 23  1  0
 23 24  2  0
 24  6  1  0
 22 18  1  0
  1 25  1  0
  1 26  1  0
  1 27  1  0
  5 28  1  0
  5 29  1  0
  5 30  1  0
  7 31  1  0
  8 32  1  0
 10 33  1  0
 13 34  1  0
 16 35  1  0
 17 36  1  0
 19 37  1  0
 20 38  1  0
 21 39  1  0
 23 40  1  0
 24 41  1  0
M  END
$$$$
