
     RDKit          3D

 60 61  0  0  0  0  0  0  0  0999 V2000
   -6.4163    1.0168    1.3510 C   0  0  0  0  0  0  0  0  0  0  0  0
   -5.7057    0.6585    0.1723 O   0  0  0  0  0  0  0  0  0  0  0  0
   -4.4865    0.0573    0.3336 C   0  0  0  0  0  0  0  0  0  0  0  0
   -3.8621   -0.2130    1.5501 C   0  0  0  0  0  0  0  0  0  0  0  0
   -2.6064   -0.8325    1.5713 C   0  0  0  0  0  0  0  0  0  0  0  0
   -1.9325   -1.0524    2.7491 O   0  0  0  0  0  0  0  0  0  0  0  0
   -2.7281   -1.6328    3.7771 C   0  0  0  0  0  0  0  0  0  0  0  0
   -1.9557   -1.1578    0.3675 C   0  0  0  0  0  0  0  0  0  0  0  0
   -0.6285   -1.7682    0.3921 C   0  0  0  0  0  0  0  0  0  0  0  0
   -0.4599   -3.0332    0.8072 N   0  0  0  0  0  0  0  0  0  0  0  0
    0.8816   -3.3119    0.6438 O   0  0  0  0  0  0  0  0  0  0  0  0
    1.5297   -2.2134    0.1685 C   0  0  0  0  0  0  0  0  0  0  0  0
    2.9544   -2.3108    0.0162 C   0  0  0  0  0  0  0  0  0  0  0  0
    3.5755   -3.3408   -0.2015 O   0  0  0  0  0  0  0  0  0  0  0  0
    3.5126   -1.0858    0.2075 O   0  0  0  0  0  0  0  0  0  0  0  0
    4.9392   -0.8771    0.0644 C   0  0  0  0  0  0  0  0  0  0  0  0
    5.7271   -1.6712    1.1122 C   0  0  0  0  0  0  0  0  0  0  0  0
    5.1397    0.6226    0.3319 C   0  0  0  0  0  0  0  0  0  0  0  0
    5.4036   -1.1882   -1.3623 C   0  0  0  0  0  0  0  0  0  0  0  0
    0.6075   -1.2069   -0.0404 C   0  0  0  0  0  0  0  0  0  0  0  0
    0.8722    0.0904   -0.6127 C   0  0  0  0  0  0  0  0  0  0  0  0
    1.7691    0.2963   -1.4194 O   0  0  0  0  0  0  0  0  0  0  0  0
    0.0096    1.0356   -0.1511 O   0  0  0  0  0  0  0  0  0  0  0  0
    0.0570    2.4019   -0.6302 C   0  0  0  0  0  0  0  0  0  0  0  0
   -0.2368    2.4716   -2.1322 C   0  0  0  0  0  0  0  0  0  0  0  0
   -1.0751    3.1156    0.1241 C   0  0  0  0  0  0  0  0  0  0  0  0
    1.3854    3.0743   -0.2688 C   0  0  0  0  0  0  0  0  0  0  0  0
   -2.5850   -0.8817   -0.8627 C   0  0  0  0  0  0  0  0  0  0  0  0
   -1.8849   -1.2101   -1.9975 O   0  0  0  0  0  0  0  0  0  0  0  0
   -2.5530   -1.0765   -3.2454 C   0  0  0  0  0  0  0  0  0  0  0  0
   -3.8479   -0.2806   -0.8644 C   0  0  0  0  0  0  0  0  0  0  0  0
   -7.3695    1.4599    1.0445 H   0  0  0  0  0  0  0  0  0  0  0  0
   -5.8686    1.7710    1.9261 H   0  0  0  0  0  0  0  0  0  0  0  0
   -6.6390    0.1354    1.9622 H   0  0  0  0  0  0  0  0  0  0  0  0
   -4.3232    0.0776    2.4860 H   0  0  0  0  0  0  0  0  0  0  0  0
   -2.0540   -2.1148    4.4918 H   0  0  0  0  0  0  0  0  0  0  0  0
   -3.2816   -0.8565    4.3110 H   0  0  0  0  0  0  0  0  0  0  0  0
   -3.4098   -2.3977    3.3879 H   0  0  0  0  0  0  0  0  0  0  0  0
    5.6831   -2.7499    0.9285 H   0  0  0  0  0  0  0  0  0  0  0  0
    6.7834   -1.3836    1.1160 H   0  0  0  0  0  0  0  0  0  0  0  0
    5.3163   -1.5067    2.1157 H   0  0  0  0  0  0  0  0  0  0  0  0
    6.1921    0.9130    0.2472 H   0  0  0  0  0  0  0  0  0  0  0  0
    4.7868    0.8911    1.3345 H   0  0  0  0  0  0  0  0  0  0  0  0
    4.5549    1.2268   -0.3718 H   0  0  0  0  0  0  0  0  0  0  0  0
    4.7762   -0.6720   -2.0969 H   0  0  0  0  0  0  0  0  0  0  0  0
    5.3371   -2.2558   -1.5886 H   0  0  0  0  0  0  0  0  0  0  0  0
    6.4439   -0.8840   -1.5176 H   0  0  0  0  0  0  0  0  0  0  0  0
    0.5689    2.0301   -2.7268 H   0  0  0  0  0  0  0  0  0  0  0  0
   -1.1483    1.9150   -2.3764 H   0  0  0  0  0  0  0  0  0  0  0  0
   -0.3609    3.5077   -2.4656 H   0  0  0  0  0  0  0  0  0  0  0  0
   -2.0407    2.6365   -0.0760 H   0  0  0  0  0  0  0  0  0  0  0  0
   -0.9204    3.0530    1.2093 H   0  0  0  0  0  0  0  0  0  0  0  0
   -1.1498    4.1723   -0.1542 H   0  0  0  0  0  0  0  0  0  0  0  0
    2.2258    2.6509   -0.8287 H   0  0  0  0  0  0  0  0  0  0  0  0
    1.6142    2.9368    0.7922 H   0  0  0  0  0  0  0  0  0  0  0  0
    1.3587    4.1476   -0.4814 H   0  0  0  0  0  0  0  0  0  0  0  0
   -3.4645   -1.6819   -3.2757 H   0  0  0  0  0  0  0  0  0  0  0  0
   -1.8800   -1.4474   -4.0234 H   0  0  0  0  0  0  0  0  0  0  0  0
   -2.7669   -0.0261   -3.4653 H   0  0  0  0  0  0  0  0  0  0  0  0
   -4.3641   -0.0444   -1.7897 H   0  0  0  0  0  0  0  0  0  0  0  0
  1  2  1  0
  2  3  1  0
  3  4  2  0
  4  5  1  0
  5  6  1  0
  6  7  1  0
  5  8  2  0
  8  9  1  0
  9 10  2  0
 10 11  1  0
 11 12  1  0
 12 13  1  0
 13 14  2  0
 13 15  1  0
 15 16  1  0
 16 17  1  0
 16 18  1  0
 16 19  1  0
 12 20  2  0
 20 21  1  0
 21 22  2  0
 21 23  1  0
 23 24  1  0
 24 25  1  0
 24 26  1  0
 24 27  1  0
  8 28  1  0
 28 29  1  0
 29 30  1  0
 28 31  2  0
 31  3  1  0
 20  9  1  0
  1 32  1  0
  1 33  1  0
  1 34  1  0
  4 35  1  0
  7 36  1  0
  7 37  1  0
  7 38  1  0
 17 39  1  0
 17 40  1  0
 17 41  1  0
 18 42  1  0
 18 43  1  0
 18 44  1  0
 19 45  1  0
 19 46  1  0
 19 47  1  0
 25 48  1  0
 25 49  1  0
 25 50  1  0
 26 51  1  0
 26 52  1  0
 26 53  1  0
 27 54  1  0
 27 55  1  0
 27 56  1  0
 30 57  1  0
 30 58  1  0
 30 59  1  0
 31 60  1  0
M  END
$$$$
