
     RDKit          3D

 47 49  0  0  0  0  0  0  0  0999 V2000
    0.4050    2.4783    1.0706 C   0  0  0  0  0  0  0  0  0  0  0  0
   -0.4107    2.0456   -0.0721 N   0  0  0  0  0  0  0  0  0  0  0  0
   -0.7866    3.1665   -0.9442 C   0  0  0  0  0  0  0  0  0  0  0  0
   -0.2295    0.7526   -0.6476 C   0  0  0  0  0  0  0  0  0  0  0  0
   -1.5087    0.1036   -1.2017 C   0  0  0  0  0  0  0  0  0  0  0  0
   -2.1250   -0.8367   -0.2475 N   0  0  0  0  0  0  0  0  0  0  0  0
   -2.6199   -0.1382    0.9598 C   0  0  0  0  0  0  0  0  0  0  0  0
   -3.7369   -0.8977    1.6966 C   0  0  0  0  0  0  0  0  0  0  0  0
   -4.8825   -1.1360    0.8247 N   0  0  0  0  0  0  0  0  0  0  0  0
   -6.1650   -1.2204    1.3087 C   0  0  0  0  0  0  0  0  0  0  0  0
   -7.1740   -1.3688    0.6319 O   0  0  0  0  0  0  0  0  0  0  0  0
   -4.6174   -1.2314   -0.6073 C   0  0  0  0  0  0  0  0  0  0  0  0
   -3.1682   -1.6613   -0.8947 C   0  0  0  0  0  0  0  0  0  0  0  0
    0.9484    0.0812   -0.6947 C   0  0  0  0  0  0  0  0  0  0  0  0
    2.1505    0.5584   -0.2123 N   0  0  0  0  0  0  0  0  0  0  0  0
    2.9704   -0.4145   -0.4384 C   0  0  0  0  0  0  0  0  0  0  0  0
    4.4045   -0.4514   -0.1113 C   0  0  0  0  0  0  0  0  0  0  0  0
    5.1898   -1.5763   -0.3923 C   0  0  0  0  0  0  0  0  0  0  0  0
    6.5484   -1.5776   -0.0678 C   0  0  0  0  0  0  0  0  0  0  0  0
    7.1247   -0.4600    0.5357 C   0  0  0  0  0  0  0  0  0  0  0  0
    6.3463    0.6622    0.8172 C   0  0  0  0  0  0  0  0  0  0  0  0
    4.9880    0.6682    0.4949 C   0  0  0  0  0  0  0  0  0  0  0  0
    2.4844   -1.5187   -1.0416 O   0  0  0  0  0  0  0  0  0  0  0  0
    1.1611   -1.2861   -1.2752 C   0  0  0  0  0  0  0  0  0  0  0  0
    0.4084   -2.0391   -1.8583 O   0  0  0  0  0  0  0  0  0  0  0  0
    1.3698    2.8784    0.7420 H   0  0  0  0  0  0  0  0  0  0  0  0
   -0.1166    3.2667    1.6247 H   0  0  0  0  0  0  0  0  0  0  0  0
    0.5694    1.6547    1.7739 H   0  0  0  0  0  0  0  0  0  0  0  0
   -1.5490    2.8849   -1.6757 H   0  0  0  0  0  0  0  0  0  0  0  0
    0.0906    3.5320   -1.4892 H   0  0  0  0  0  0  0  0  0  0  0  0
   -1.1968    3.9920   -0.3525 H   0  0  0  0  0  0  0  0  0  0  0  0
   -2.2437    0.8661   -1.4864 H   0  0  0  0  0  0  0  0  0  0  0  0
   -1.2680   -0.3953   -2.1475 H   0  0  0  0  0  0  0  0  0  0  0  0
   -3.0193    0.8500    0.6941 H   0  0  0  0  0  0  0  0  0  0  0  0
   -1.7863    0.0168    1.6538 H   0  0  0  0  0  0  0  0  0  0  0  0
   -4.0635   -0.3396    2.5810 H   0  0  0  0  0  0  0  0  0  0  0  0
   -3.3766   -1.8757    2.0372 H   0  0  0  0  0  0  0  0  0  0  0  0
   -6.2135   -1.1414    2.4076 H   0  0  0  0  0  0  0  0  0  0  0  0
   -5.3217   -1.9378   -1.0603 H   0  0  0  0  0  0  0  0  0  0  0  0
   -4.8142   -0.2438   -1.0412 H   0  0  0  0  0  0  0  0  0  0  0  0
   -3.0155   -1.7370   -1.9781 H   0  0  0  0  0  0  0  0  0  0  0  0
   -3.0394   -2.6820   -0.5109 H   0  0  0  0  0  0  0  0  0  0  0  0
    4.7612   -2.4584   -0.8617 H   0  0  0  0  0  0  0  0  0  0  0  0
    7.1580   -2.4514   -0.2860 H   0  0  0  0  0  0  0  0  0  0  0  0
    8.1828   -0.4638    0.7871 H   0  0  0  0  0  0  0  0  0  0  0  0
    6.7970    1.5328    1.2875 H   0  0  0  0  0  0  0  0  0  0  0  0
    4.3901    1.5493    0.7183 H   0  0  0  0  0  0  0  0  0  0  0  0
  1  2  1  0
  2  3  1  0
  2  4  1  0
  4  5  1  0
  5  6  1  0
  6  7  1  0
  7  8  1  0
  8  9  1  0
  9 10  1  0
 10 11  2  0
  9 12  1  0
 12 13  1  0
  4 14  2  3
 14 15  1  0
 15 16  2  0
 16 17  1  0
 17 18  2  0
 18 19  1  0
 19 20  2  0
 20 21  1  0
 21 22  2  0
 16 23  1  0
 23 24  1  0
 24 25  2  0
 13  6  1  0
 24 14  1  0
 22 17  1  0
  1 26  1  0
  1 27  1  0
  1 28  1  0
  3 29  1  0
  3 30  1  0
  3 31  1  0
  5 32  1  0
  5 33  1  0
  7 34  1  0
  7 35  1  0
  8 36  1  0
  8 37  1  0
 10 38  1  0
 12 39  1  0
 12 40  1  0
 13 41  1  0
 13 42  1  0
 18 43  1  0
 19 44  1  0
 20 45  1  0
 21 46  1  0
 22 47  1  0
M  END
$$$$
