
     RDKit          3D

 60 64  0  0  0  0  0  0  0  0999 V2000
   -2.4127    4.2271    1.5337 C   0  0  0  0  0  0  0  0  0  0  0  0
   -2.9405    2.9544    2.1724 C   0  0  0  0  0  0  0  0  0  0  0  0
   -2.4966    1.7625    1.4695 N   0  0  0  0  0  0  0  0  0  0  0  0
   -1.3301    1.0703    1.7459 C   0  0  0  0  0  0  0  0  0  0  0  0
   -0.4934    1.4803    2.6906 O   0  0  0  0  0  0  0  0  0  0  0  0
   -1.2914    0.0118    0.8749 C   0  0  0  0  0  0  0  0  0  0  0  0
   -2.4254    0.0789    0.0462 C   0  0  0  0  0  0  0  0  0  0  0  0
   -3.1692    1.1688    0.4160 C   0  0  0  0  0  0  0  0  0  0  0  0
   -4.3055    1.6694   -0.0513 O   0  0  0  0  0  0  0  0  0  0  0  0
   -2.4492   -1.0610   -0.9239 C   0  0  0  0  0  0  0  0  0  0  0  0
   -2.7481   -0.5887   -2.3713 C   0  0  0  0  0  0  0  0  0  0  0  0
   -2.0778   -0.8471   -3.3658 O   0  0  0  0  0  0  0  0  0  0  0  0
   -3.9251    0.1214   -2.4215 O   0  0  0  0  0  0  0  0  0  0  0  0
   -4.2646    0.5795   -3.7326 C   0  0  0  0  0  0  0  0  0  0  0  0
   -3.4718   -2.1291   -0.4770 C   0  0  0  0  0  0  0  0  0  0  0  0
   -3.1764   -3.5069   -1.0580 C   0  0  0  0  0  0  0  0  0  0  0  0
   -1.7512   -3.9207   -0.7191 C   0  0  0  0  0  0  0  0  0  0  0  0
   -0.7516   -2.8933   -1.2393 C   0  0  0  0  0  0  0  0  0  0  0  0
   -1.0159   -1.5303   -0.8050 N   0  0  0  0  0  0  0  0  0  0  0  0
   -0.4697   -1.1740    0.5302 C   0  0  0  0  0  0  0  0  0  0  0  0
    0.9766   -0.7359    0.5157 C   0  0  0  0  0  0  0  0  0  0  0  0
    1.4932    0.1080   -0.4794 C   0  0  0  0  0  0  0  0  0  0  0  0
    2.8331    0.5084   -0.4576 C   0  0  0  0  0  0  0  0  0  0  0  0
    3.7020    0.0787    0.5565 C   0  0  0  0  0  0  0  0  0  0  0  0
    5.1131    0.4989    0.5765 C   0  0  0  0  0  0  0  0  0  0  0  0
    5.9355    0.3263   -0.5509 C   0  0  0  0  0  0  0  0  0  0  0  0
    7.2761    0.7220   -0.5365 C   0  0  0  0  0  0  0  0  0  0  0  0
    7.8185    1.2992    0.6093 C   0  0  0  0  0  0  0  0  0  0  0  0
    7.0172    1.4776    1.7337 C   0  0  0  0  0  0  0  0  0  0  0  0
    7.6839    2.1916    3.1510 Cl  0  0  0  0  0  0  0  0  0  0  0  0
    5.6782    1.0833    1.7224 C   0  0  0  0  0  0  0  0  0  0  0  0
    3.1837   -0.7673    1.5492 C   0  0  0  0  0  0  0  0  0  0  0  0
    1.8438   -1.1702    1.5301 C   0  0  0  0  0  0  0  0  0  0  0  0
   -2.7643    5.1034    2.0869 H   0  0  0  0  0  0  0  0  0  0  0  0
   -2.7520    4.3192    0.4966 H   0  0  0  0  0  0  0  0  0  0  0  0
   -1.3177    4.2428    1.5290 H   0  0  0  0  0  0  0  0  0  0  0  0
   -4.0358    2.9532    2.1834 H   0  0  0  0  0  0  0  0  0  0  0  0
   -2.6081    2.8779    3.2134 H   0  0  0  0  0  0  0  0  0  0  0  0
    0.3327    0.9755    2.5773 H   0  0  0  0  0  0  0  0  0  0  0  0
   -4.5359    1.1581   -0.8508 H   0  0  0  0  0  0  0  0  0  0  0  0
   -4.4296   -0.2693   -4.4033 H   0  0  0  0  0  0  0  0  0  0  0  0
   -5.1951    1.1490   -3.6599 H   0  0  0  0  0  0  0  0  0  0  0  0
   -3.4844    1.2405   -4.1226 H   0  0  0  0  0  0  0  0  0  0  0  0
   -4.4901   -1.8341   -0.7597 H   0  0  0  0  0  0  0  0  0  0  0  0
   -3.4776   -2.2168    0.6188 H   0  0  0  0  0  0  0  0  0  0  0  0
   -3.3162   -3.4952   -2.1455 H   0  0  0  0  0  0  0  0  0  0  0  0
   -3.8822   -4.2397   -0.6512 H   0  0  0  0  0  0  0  0  0  0  0  0
   -1.5378   -4.8986   -1.1656 H   0  0  0  0  0  0  0  0  0  0  0  0
   -1.6447   -4.0357    0.3663 H   0  0  0  0  0  0  0  0  0  0  0  0
    0.2657   -3.1978   -0.9647 H   0  0  0  0  0  0  0  0  0  0  0  0
   -0.7696   -2.9171   -2.3357 H   0  0  0  0  0  0  0  0  0  0  0  0
   -0.6531   -1.9720    1.2604 H   0  0  0  0  0  0  0  0  0  0  0  0
    0.8465    0.4631   -1.2809 H   0  0  0  0  0  0  0  0  0  0  0  0
    3.1900    1.1735   -1.2417 H   0  0  0  0  0  0  0  0  0  0  0  0
    5.5339   -0.1331   -1.4531 H   0  0  0  0  0  0  0  0  0  0  0  0
    7.8944    0.5766   -1.4187 H   0  0  0  0  0  0  0  0  0  0  0  0
    8.8606    1.6064    0.6193 H   0  0  0  0  0  0  0  0  0  0  0  0
    5.0674    1.2439    2.6079 H   0  0  0  0  0  0  0  0  0  0  0  0
    3.8301   -1.1354    2.3441 H   0  0  0  0  0  0  0  0  0  0  0  0
    1.4840   -1.8321    2.3155 H   0  0  0  0  0  0  0  0  0  0  0  0
  1  2  1  0
  2  3  1  0
  3  4  1  0
  4  5  1  0
  4  6  2  0
  6  7  1  0
  7  8  2  0
  8  9  1  0
  7 10  1  0
 10 11  1  0
 11 12  2  0
 11 13  1  0
 13 14  1  0
 10 15  1  0
 15 16  1  0
 16 17  1  0
 17 18  1  0
 18 19  1  0
 19 20  1  0
 20 21  1  0
 21 22  2  0
 22 23  1  0
 23 24  2  0
 24 25  1  0
 25 26  2  0
 26 27  1  0
 27 28  2  0
 28 29  1  0
 29 30  1  0
 29 31  2  0
 24 32  1  0
 32 33  2  0
  8  3  1  0
 19 10  1  0
 33 21  1  0
 20  6  1  0
 31 25  1  0
  1 34  1  0
  1 35  1  0
  1 36  1  0
  2 37  1  0
  2 38  1  0
  5 39  1  0
  9 40  1  0
 14 41  1  0
 14 42  1  0
 14 43  1  0
 15 44  1  0
 15 45  1  0
 16 46  1  0
 16 47  1  0
 17 48  1  0
 17 49  1  0
 18 50  1  0
 18 51  1  0
 20 52  1  0
 22 53  1  0
 23 54  1  0
 26 55  1  0
 27 56  1  0
 28 57  1  0
 31 58  1  0
 32 59  1  0
 33 60  1  0
M  END
$$$$
