
     RDKit          3D

 42 44  0  0  0  0  0  0  0  0999 V2000
   -3.8439   -2.3921    0.4060 C   0  0  0  0  0  0  0  0  0  0  0  0
   -2.7417   -1.5985   -0.2751 C   0  0  0  0  0  0  0  0  0  0  0  0
   -1.7020   -1.1960    0.6474 N   0  0  0  0  0  0  0  0  0  0  0  0
   -0.5837   -1.9009    0.9951 C   0  0  0  0  0  0  0  0  0  0  0  0
   -0.1133   -3.4041    0.2847 S   0  0  0  0  0  0  0  0  0  0  0  0
    1.5628   -2.9467   -0.2538 C   0  0  0  0  0  0  0  0  0  0  0  0
    1.5159   -1.7916   -1.2418 C   0  0  0  0  0  0  0  0  0  0  0  0
    0.7136   -1.7519   -2.1764 O   0  0  0  0  0  0  0  0  0  0  0  0
    2.5148   -0.6966   -1.1203 C   0  0  0  0  0  0  0  0  0  0  0  0
    2.9924   -0.2524    0.1166 C   0  0  0  0  0  0  0  0  0  0  0  0
    3.9271    0.7851    0.1727 C   0  0  0  0  0  0  0  0  0  0  0  0
    4.3901    1.3929   -1.0000 C   0  0  0  0  0  0  0  0  0  0  0  0
    5.3803    2.5151   -0.9196 C   0  0  0  0  0  0  0  0  0  0  0  0
    3.8862    0.9653   -2.2334 C   0  0  0  0  0  0  0  0  0  0  0  0
    2.9532   -0.0714   -2.2922 C   0  0  0  0  0  0  0  0  0  0  0  0
    0.1002   -1.2507    1.9033 N   0  0  0  0  0  0  0  0  0  0  0  0
   -0.5800   -0.0916    2.1742 N   0  0  0  0  0  0  0  0  0  0  0  0
   -1.6519   -0.0406    1.4028 C   0  0  0  0  0  0  0  0  0  0  0  0
   -2.6303    1.0399    1.4023 C   0  0  0  0  0  0  0  0  0  0  0  0
   -2.8774    1.7979    0.2580 C   0  0  0  0  0  0  0  0  0  0  0  0
   -3.8221    2.8084    0.3294 C   0  0  0  0  0  0  0  0  0  0  0  0
   -4.5099    3.1132    1.4480 N   0  0  0  0  0  0  0  0  0  0  0  0
   -4.2291    2.3887    2.5514 C   0  0  0  0  0  0  0  0  0  0  0  0
   -3.3091    1.3553    2.5788 C   0  0  0  0  0  0  0  0  0  0  0  0
   -3.4550   -3.3139    0.8473 H   0  0  0  0  0  0  0  0  0  0  0  0
   -4.6184   -2.6617   -0.3202 H   0  0  0  0  0  0  0  0  0  0  0  0
   -4.3149   -1.8141    1.2060 H   0  0  0  0  0  0  0  0  0  0  0  0
   -2.2895   -2.1815   -1.0829 H   0  0  0  0  0  0  0  0  0  0  0  0
   -3.1595   -0.7063   -0.7447 H   0  0  0  0  0  0  0  0  0  0  0  0
    2.0130   -3.8043   -0.7654 H   0  0  0  0  0  0  0  0  0  0  0  0
    2.1748   -2.7355    0.6223 H   0  0  0  0  0  0  0  0  0  0  0  0
    2.6300   -0.6665    1.0515 H   0  0  0  0  0  0  0  0  0  0  0  0
    4.2822    1.1267    1.1431 H   0  0  0  0  0  0  0  0  0  0  0  0
    6.2246    2.2340   -0.2786 H   0  0  0  0  0  0  0  0  0  0  0  0
    4.9018    3.4090   -0.5073 H   0  0  0  0  0  0  0  0  0  0  0  0
    5.7859    2.7623   -1.9041 H   0  0  0  0  0  0  0  0  0  0  0  0
    4.2110    1.4400   -3.1550 H   0  0  0  0  0  0  0  0  0  0  0  0
    2.5672   -0.3881   -3.2598 H   0  0  0  0  0  0  0  0  0  0  0  0
   -2.3413    1.6205   -0.6674 H   0  0  0  0  0  0  0  0  0  0  0  0
   -4.0547    3.4202   -0.5360 H   0  0  0  0  0  0  0  0  0  0  0  0
   -4.7778    2.6707    3.4444 H   0  0  0  0  0  0  0  0  0  0  0  0
   -3.1214    0.8119    3.4991 H   0  0  0  0  0  0  0  0  0  0  0  0
  1  2  1  0
  2  3  1  0
  3  4  1  0
  4  5  1  0
  5  6  1  0
  6  7  1  0
  7  8  2  0
  7  9  1  0
  9 10  2  0
 10 11  1  0
 11 12  2  0
 12 13  1  0
 12 14  1  0
 14 15  2  0
  4 16  2  0
 16 17  1  0
 17 18  2  0
 18 19  1  0
 19 20  2  0
 20 21  1  0
 21 22  2  0
 22 23  1  0
 23 24  2  0
 18  3  1  0
 24 19  1  0
 15  9  1  0
  1 25  1  0
  1 26  1  0
  1 27  1  0
  2 28  1  0
  2 29  1  0
  6 30  1  0
  6 31  1  0
 10 32  1  0
 11 33  1  0
 13 34  1  0
 13 35  1  0
 13 36  1  0
 14 37  1  0
 15 38  1  0
 20 39  1  0
 21 40  1  0
 23 41  1  0
 24 42  1  0
M  END
$$$$
