
     RDKit          3D

 56 59  0  0  0  0  0  0  0  0999 V2000
   -0.0085   -0.4535    1.7474 O   0  0  0  0  0  0  0  0  0  0  0  0
   -0.3615   -0.6029    0.3627 C   0  0  0  0  0  0  0  0  0  0  0  0
   -1.4944   -1.6394    0.2797 C   0  0  0  0  0  0  0  0  0  0  0  0
   -2.6013   -1.2154    1.0910 O   0  0  0  0  0  0  0  0  0  0  0  0
   -3.5254   -0.3666    0.4017 C   0  0  0  0  0  0  0  0  0  0  0  0
   -4.6314   -1.1830   -0.2871 C   0  0  0  0  0  0  0  0  0  0  0  0
   -5.5303   -1.9301    0.6975 C   0  0  0  0  0  0  0  0  0  0  0  0
   -6.2785   -1.0319    1.5230 O   0  0  0  0  0  0  0  0  0  0  0  0
   -6.8587   -0.0408    0.7754 C   0  0  0  0  0  0  0  0  0  0  0  0
   -7.8963    0.6705    1.3751 C   0  0  0  0  0  0  0  0  0  0  0  0
   -8.5409    1.6876    0.6695 C   0  0  0  0  0  0  0  0  0  0  0  0
   -8.1431    1.9948   -0.6324 C   0  0  0  0  0  0  0  0  0  0  0  0
   -7.0932    1.2926   -1.2267 C   0  0  0  0  0  0  0  0  0  0  0  0
   -6.4424    0.2835   -0.5185 C   0  0  0  0  0  0  0  0  0  0  0  0
   -5.4010   -0.3376   -1.1569 O   0  0  0  0  0  0  0  0  0  0  0  0
    0.8605   -1.0623   -0.4658 C   0  0  0  0  0  0  0  0  0  0  0  0
    1.8215    0.0128   -0.7891 N   0  0  0  0  0  0  0  0  0  0  0  0
    2.4084    0.6146    0.4320 C   0  0  0  0  0  0  0  0  0  0  0  0
    3.7646    1.3253    0.2055 C   0  0  0  0  0  0  0  0  0  0  0  0
    4.7699    0.3853   -0.3193 N   0  0  0  0  0  0  0  0  0  0  0  0
    6.1238    0.5691   -0.0967 C   0  0  0  0  0  0  0  0  0  0  0  0
    7.0449   -0.4864   -0.2019 C   0  0  0  0  0  0  0  0  0  0  0  0
    8.4158   -0.3039    0.0220 C   0  0  0  0  0  0  0  0  0  0  0  0
    8.9061    0.9515    0.3576 C   0  0  0  0  0  0  0  0  0  0  0  0
    8.0240    2.0185    0.4685 C   0  0  0  0  0  0  0  0  0  0  0  0
    6.6549    1.8244    0.2442 C   0  0  0  0  0  0  0  0  0  0  0  0
    4.2515   -0.7800   -1.0496 C   0  0  0  0  0  0  0  0  0  0  0  0
    2.8854   -0.4616   -1.7031 C   0  0  0  0  0  0  0  0  0  0  0  0
   -0.8578   -0.4005    2.2286 H   0  0  0  0  0  0  0  0  0  0  0  0
   -0.7184    0.3721    0.0133 H   0  0  0  0  0  0  0  0  0  0  0  0
   -1.1529   -2.5890    0.7063 H   0  0  0  0  0  0  0  0  0  0  0  0
   -1.8104   -1.8233   -0.7528 H   0  0  0  0  0  0  0  0  0  0  0  0
   -3.9557    0.3123    1.1458 H   0  0  0  0  0  0  0  0  0  0  0  0
   -3.0097    0.2742   -0.3237 H   0  0  0  0  0  0  0  0  0  0  0  0
   -4.1590   -1.9354   -0.9292 H   0  0  0  0  0  0  0  0  0  0  0  0
   -6.2423   -2.5715    0.1616 H   0  0  0  0  0  0  0  0  0  0  0  0
   -4.9392   -2.5754    1.3556 H   0  0  0  0  0  0  0  0  0  0  0  0
   -8.2079    0.4264    2.3869 H   0  0  0  0  0  0  0  0  0  0  0  0
   -9.3549    2.2382    1.1343 H   0  0  0  0  0  0  0  0  0  0  0  0
   -8.6474    2.7852   -1.1828 H   0  0  0  0  0  0  0  0  0  0  0  0
   -6.7770    1.5390   -2.2364 H   0  0  0  0  0  0  0  0  0  0  0  0
    0.4819   -1.4598   -1.4160 H   0  0  0  0  0  0  0  0  0  0  0  0
    1.3755   -1.8801    0.0552 H   0  0  0  0  0  0  0  0  0  0  0  0
    1.7029    1.3460    0.8418 H   0  0  0  0  0  0  0  0  0  0  0  0
    2.5715   -0.1585    1.1952 H   0  0  0  0  0  0  0  0  0  0  0  0
    4.0812    1.7356    1.1721 H   0  0  0  0  0  0  0  0  0  0  0  0
    3.6397    2.1594   -0.4956 H   0  0  0  0  0  0  0  0  0  0  0  0
    6.7073   -1.4908   -0.4397 H   0  0  0  0  0  0  0  0  0  0  0  0
    9.0938   -1.1487   -0.0631 H   0  0  0  0  0  0  0  0  0  0  0  0
    9.9682    1.0974    0.5317 H   0  0  0  0  0  0  0  0  0  0  0  0
    8.3937    3.0074    0.7250 H   0  0  0  0  0  0  0  0  0  0  0  0
    6.0075    2.6935    0.3200 H   0  0  0  0  0  0  0  0  0  0  0  0
    4.1502   -1.6305   -0.3648 H   0  0  0  0  0  0  0  0  0  0  0  0
    4.9363   -1.0694   -1.8559 H   0  0  0  0  0  0  0  0  0  0  0  0
    3.0449    0.3398   -2.4369 H   0  0  0  0  0  0  0  0  0  0  0  0
    2.5533   -1.3283   -2.2881 H   0  0  0  0  0  0  0  0  0  0  0  0
  1  2  1  0
  2  3  1  0
  3  4  1  0
  4  5  1  0
  5  6  1  0
  6  7  1  0
  7  8  1  0
  8  9  1  0
  9 10  2  0
 10 11  1  0
 11 12  2  0
 12 13  1  0
 13 14  2  0
 14 15  1  0
  2 16  1  0
 16 17  1  0
 17 18  1  0
 18 19  1  0
 19 20  1  0
 20 21  1  0
 21 22  2  0
 22 23  1  0
 23 24  2  0
 24 25  1  0
 25 26  2  0
 20 27  1  0
 27 28  1  0
 15  6  1  0
 28 17  1  0
 14  9  1  0
 26 21  1  0
  1 29  1  0
  2 30  1  0
  3 31  1  0
  3 32  1  0
  5 33  1  0
  5 34  1  0
  6 35  1  0
  7 36  1  0
  7 37  1  0
 10 38  1  0
 11 39  1  0
 12 40  1  0
 13 41  1  0
 16 42  1  0
 16 43  1  0
 18 44  1  0
 18 45  1  0
 19 46  1  0
 19 47  1  0
 22 48  1  0
 23 49  1  0
 24 50  1  0
 25 51  1  0
 26 52  1  0
 27 53  1  0
 27 54  1  0
 28 55  1  0
 28 56  1  0
M  END
$$$$
