
     RDKit          3D

 57 60  0  0  0  0  0  0  0  0999 V2000
   -2.0151    6.3868   -0.4609 C   0  0  0  0  0  0  0  0  0  0  0  0
   -1.6367    4.9816    0.0021 C   0  0  0  0  0  0  0  0  0  0  0  0
   -0.5617    4.3710   -0.9206 C   0  0  0  0  0  0  0  0  0  0  0  0
   -0.0859    2.9974   -0.4186 C   0  0  0  0  0  0  0  0  0  0  0  0
   -1.2282    2.1249    0.0143 C   0  0  0  0  0  0  0  0  0  0  0  0
   -2.4887    2.6452    0.2461 C   0  0  0  0  0  0  0  0  0  0  0  0
   -3.6005    1.4664    0.7571 S   0  0  0  0  0  0  0  0  0  0  0  0
   -2.4126    0.2455    0.7134 C   0  0  0  0  0  0  0  0  0  0  0  0
   -2.7252   -1.0097    1.0671 N   0  0  0  0  0  0  0  0  0  0  0  0
   -1.6922   -1.8580    1.0023 C   0  0  0  0  0  0  0  0  0  0  0  0
   -1.9634   -3.3130    1.3882 C   0  0  0  0  0  0  0  0  0  0  0  0
   -0.6764   -4.1630    1.3776 C   0  0  0  0  0  0  0  0  0  0  0  0
   -2.9575   -3.9206    0.3832 C   0  0  0  0  0  0  0  0  0  0  0  0
   -2.5628   -3.3658    2.8053 C   0  0  0  0  0  0  0  0  0  0  0  0
   -0.4469   -1.5324    0.6045 N   0  0  0  0  0  0  0  0  0  0  0  0
   -0.1546   -0.2607    0.2414 C   0  0  0  0  0  0  0  0  0  0  0  0
    1.1541    0.0465   -0.1900 N   0  0  0  0  0  0  0  0  0  0  0  0
    1.3051   -0.4222   -1.5884 C   0  0  0  0  0  0  0  0  0  0  0  0
    2.7875   -0.5802   -1.9712 C   0  0  0  0  0  0  0  0  0  0  0  0
    3.4982   -1.5146   -1.0875 N   0  0  0  0  0  0  0  0  0  0  0  0
    4.6751   -2.1834   -1.4126 C   0  0  0  0  0  0  0  0  0  0  0  0
    5.1620   -3.0184   -0.6495 O   0  0  0  0  0  0  0  0  0  0  0  0
    5.2966   -1.8398   -2.7605 C   0  0  0  0  0  0  0  0  0  0  0  0
    6.9990   -2.3380   -2.8435 Cl  0  0  0  0  0  0  0  0  0  0  0  0
    2.8798   -1.7497    0.2258 C   0  0  0  0  0  0  0  0  0  0  0  0
    2.1656   -0.4951    0.7550 C   0  0  0  0  0  0  0  0  0  0  0  0
   -1.1760    0.7075    0.2929 C   0  0  0  0  0  0  0  0  0  0  0  0
   -2.8869    4.0772    0.0599 C   0  0  0  0  0  0  0  0  0  0  0  0
   -2.4282    6.3747   -1.4752 H   0  0  0  0  0  0  0  0  0  0  0  0
   -1.1393    7.0443   -0.4605 H   0  0  0  0  0  0  0  0  0  0  0  0
   -2.7646    6.8260    0.2058 H   0  0  0  0  0  0  0  0  0  0  0  0
   -1.2137    5.0598    1.0132 H   0  0  0  0  0  0  0  0  0  0  0  0
    0.3024    5.0416   -0.9985 H   0  0  0  0  0  0  0  0  0  0  0  0
   -0.9719    4.2635   -1.9338 H   0  0  0  0  0  0  0  0  0  0  0  0
    0.4882    2.5164   -1.2167 H   0  0  0  0  0  0  0  0  0  0  0  0
    0.5877    3.1379    0.4357 H   0  0  0  0  0  0  0  0  0  0  0  0
   -0.8853   -5.1997    1.6661 H   0  0  0  0  0  0  0  0  0  0  0  0
    0.0696   -3.7694    2.0783 H   0  0  0  0  0  0  0  0  0  0  0  0
   -0.2175   -4.1866    0.3820 H   0  0  0  0  0  0  0  0  0  0  0  0
   -2.5631   -3.8789   -0.6391 H   0  0  0  0  0  0  0  0  0  0  0  0
   -3.1663   -4.9704    0.6188 H   0  0  0  0  0  0  0  0  0  0  0  0
   -3.9150   -3.3867    0.3864 H   0  0  0  0  0  0  0  0  0  0  0  0
   -2.7464   -4.3999    3.1187 H   0  0  0  0  0  0  0  0  0  0  0  0
   -3.5190   -2.8330    2.8636 H   0  0  0  0  0  0  0  0  0  0  0  0
   -1.8873   -2.9087    3.5382 H   0  0  0  0  0  0  0  0  0  0  0  0
    0.8352    0.3011   -2.2653 H   0  0  0  0  0  0  0  0  0  0  0  0
    0.8094   -1.3908   -1.7454 H   0  0  0  0  0  0  0  0  0  0  0  0
    2.8660   -0.9247   -3.0069 H   0  0  0  0  0  0  0  0  0  0  0  0
    3.3024    0.3846   -1.8940 H   0  0  0  0  0  0  0  0  0  0  0  0
    5.2764   -0.7611   -2.9308 H   0  0  0  0  0  0  0  0  0  0  0  0
    4.7508   -2.3575   -3.5536 H   0  0  0  0  0  0  0  0  0  0  0  0
    2.1715   -2.5769    0.1016 H   0  0  0  0  0  0  0  0  0  0  0  0
    3.6387   -2.0703    0.9473 H   0  0  0  0  0  0  0  0  0  0  0  0
    1.7486   -0.6868    1.7524 H   0  0  0  0  0  0  0  0  0  0  0  0
    2.9158    0.2943    0.8932 H   0  0  0  0  0  0  0  0  0  0  0  0
   -3.5395    4.4089    0.8765 H   0  0  0  0  0  0  0  0  0  0  0  0
   -3.4575    4.1631   -0.8739 H   0  0  0  0  0  0  0  0  0  0  0  0
  1  2  1  0
  2  3  1  0
  3  4  1  0
  4  5  1  0
  5  6  2  0
  6  7  1  0
  7  8  1  0
  8  9  2  0
  9 10  1  0
 10 11  1  0
 11 12  1  0
 11 13  1  0
 11 14  1  0
 10 15  2  0
 15 16  1  0
 16 17  1  0
 17 18  1  0
 18 19  1  0
 19 20  1  0
 20 21  1  0
 21 22  2  0
 21 23  1  0
 23 24  1  0
 20 25  1  0
 25 26  1  0
 16 27  2  0
  6 28  1  0
 28  2  1  0
 27  5  1  0
 27  8  1  0
 26 17  1  0
  1 29  1  0
  1 30  1  0
  1 31  1  0
  2 32  1  0
  3 33  1  0
  3 34  1  0
  4 35  1  0
  4 36  1  0
 12 37  1  0
 12 38  1  0
 12 39  1  0
 13 40  1  0
 13 41  1  0
 13 42  1  0
 14 43  1  0
 14 44  1  0
 14 45  1  0
 18 46  1  0
 18 47  1  0
 19 48  1  0
 19 49  1  0
 23 50  1  0
 23 51  1  0
 25 52  1  0
 25 53  1  0
 26 54  1  0
 26 55  1  0
 28 56  1  0
 28 57  1  0
M  END
$$$$
