
     RDKit          3D

 45 47  0  0  0  0  0  0  0  0999 V2000
    2.5343   -0.9578   -0.6229 O   0  0  0  0  0  0  0  0  0  0  0  0
    1.8655   -0.0199   -1.0652 C   0  0  0  0  0  0  0  0  0  0  0  0
    2.3792    0.7906   -2.2478 C   0  0  0  0  0  0  0  0  0  0  0  0
    3.2651    2.2874   -1.6939 S   0  0  0  0  0  0  0  0  0  0  0  0
    4.6503    1.5674   -0.8317 C   0  0  0  0  0  0  0  0  0  0  0  0
    4.8718    1.9184    0.5048 C   0  0  0  0  0  0  0  0  0  0  0  0
    5.9561    1.3846    1.2068 C   0  0  0  0  0  0  0  0  0  0  0  0
    6.8270    0.5057    0.5668 C   0  0  0  0  0  0  0  0  0  0  0  0
    8.2948   -0.2183    1.5128 Br  0  0  0  0  0  0  0  0  0  0  0  0
    6.6261    0.1603   -0.7682 C   0  0  0  0  0  0  0  0  0  0  0  0
    5.5411    0.6962   -1.4679 C   0  0  0  0  0  0  0  0  0  0  0  0
    0.6335    0.3130   -0.5189 N   0  0  0  0  0  0  0  0  0  0  0  0
   -0.2381    1.3893   -1.0064 C   0  0  0  0  0  0  0  0  0  0  0  0
   -1.3666    1.7255   -0.0231 C   0  0  0  0  0  0  0  0  0  0  0  0
   -2.1994    0.5245    0.3111 N   0  0  0  0  0  0  0  0  0  0  0  0
   -3.6197    0.3994   -0.6327 S   0  0  0  0  0  6  0  0  0  0  0  0
   -3.2214   -0.0852   -1.9380 O   0  0  0  0  0  0  0  0  0  0  0  0
   -4.3607    1.6344   -0.4918 O   0  0  0  0  0  0  0  0  0  0  0  0
   -4.5331   -0.8716    0.2005 C   0  0  0  0  0  0  0  0  0  0  0  0
   -5.0556   -0.6071    1.4704 C   0  0  0  0  0  0  0  0  0  0  0  0
   -5.7757   -1.5991    2.1348 C   0  0  0  0  0  0  0  0  0  0  0  0
   -5.9751   -2.8410    1.5286 C   0  0  0  0  0  0  0  0  0  0  0  0
   -5.4588   -3.0957    0.2560 C   0  0  0  0  0  0  0  0  0  0  0  0
   -4.7372   -2.1091   -0.4157 C   0  0  0  0  0  0  0  0  0  0  0  0
   -1.4003   -0.7450    0.4302 C   0  0  0  0  0  0  0  0  0  0  0  0
    0.1030   -0.4851    0.5900 C   0  0  0  0  0  0  0  0  0  0  0  0
    1.5524    1.0836   -2.9004 H   0  0  0  0  0  0  0  0  0  0  0  0
    3.0339    0.1564   -2.8542 H   0  0  0  0  0  0  0  0  0  0  0  0
    4.1994    2.6057    1.0137 H   0  0  0  0  0  0  0  0  0  0  0  0
    6.1092    1.6603    2.2466 H   0  0  0  0  0  0  0  0  0  0  0  0
    7.3050   -0.5217   -1.2735 H   0  0  0  0  0  0  0  0  0  0  0  0
    5.4072    0.4270   -2.5121 H   0  0  0  0  0  0  0  0  0  0  0  0
    0.3589    2.2854   -1.1922 H   0  0  0  0  0  0  0  0  0  0  0  0
   -0.6521    1.0570   -1.9651 H   0  0  0  0  0  0  0  0  0  0  0  0
   -1.9819    2.5355   -0.4280 H   0  0  0  0  0  0  0  0  0  0  0  0
   -0.9484    2.1055    0.9174 H   0  0  0  0  0  0  0  0  0  0  0  0
   -4.9053    0.3633    1.9385 H   0  0  0  0  0  0  0  0  0  0  0  0
   -6.1875   -1.4039    3.1222 H   0  0  0  0  0  0  0  0  0  0  0  0
   -6.5413   -3.6114    2.0473 H   0  0  0  0  0  0  0  0  0  0  0  0
   -5.6262   -4.0622   -0.2137 H   0  0  0  0  0  0  0  0  0  0  0  0
   -4.3459   -2.3103   -1.4102 H   0  0  0  0  0  0  0  0  0  0  0  0
   -1.5475   -1.3711   -0.4571 H   0  0  0  0  0  0  0  0  0  0  0  0
   -1.7657   -1.2977    1.3023 H   0  0  0  0  0  0  0  0  0  0  0  0
    0.6313   -1.4403    0.6731 H   0  0  0  0  0  0  0  0  0  0  0  0
    0.2984    0.0769    1.5113 H   0  0  0  0  0  0  0  0  0  0  0  0
  1  2  2  0
  2  3  1  0
  3  4  1  0
  4  5  1  0
  5  6  2  0
  6  7  1  0
  7  8  2  0
  8  9  1  0
  8 10  1  0
 10 11  2  0
  2 12  1  0
 12 13  1  0
 13 14  1  0
 14 15  1  0
 15 16  1  0
 16 17  2  0
 16 18  2  0
 16 19  1  0
 19 20  2  0
 20 21  1  0
 21 22  2  0
 22 23  1  0
 23 24  2  0
 15 25  1  0
 25 26  1  0
 11  5  1  0
 26 12  1  0
 24 19  1  0
  3 27  1  0
  3 28  1  0
  6 29  1  0
  7 30  1  0
 10 31  1  0
 11 32  1  0
 13 33  1  0
 13 34  1  0
 14 35  1  0
 14 36  1  0
 20 37  1  0
 21 38  1  0
 22 39  1  0
 23 40  1  0
 24 41  1  0
 25 42  1  0
 25 43  1  0
 26 44  1  0
 26 45  1  0
M  END
$$$$
