
     RDKit          3D

 22 22  0  0  0  0  0  0  0  0999 V2000
    3.0369    1.1368   -0.1807 C   0  0  0  0  0  0  0  0  0  0  0  0
    1.5543    0.8890   -0.1985 C   0  0  0  0  0  0  0  0  0  0  0  0
    0.8064    1.8108   -0.8585 N   0  0  0  0  0  0  0  0  0  0  0  0
   -0.5337    1.6316   -0.8847 C   0  0  0  0  0  0  0  0  0  0  0  0
   -1.1765    0.5487   -0.3118 C   0  0  0  0  0  0  0  0  0  0  0  0
   -2.6464    0.4981   -0.3077 C   0  0  0  0  0  0  0  0  0  0  0  0
   -3.3509    0.0583    0.5798 O   0  0  0  0  0  0  0  0  0  0  0  0
   -3.1681    1.0248   -1.4294 O   0  0  0  0  0  0  0  0  0  0  0  0
   -0.3880   -0.4155    0.3207 C   0  0  0  0  0  0  0  0  0  0  0  0
   -0.9867   -1.6589    0.8369 C   0  0  0  0  0  0  0  0  0  0  0  0
   -0.6990   -2.2097    1.8832 O   0  0  0  0  0  0  0  0  0  0  0  0
   -1.8057   -2.2222   -0.0684 O   0  0  0  0  0  0  0  0  0  0  0  0
    1.0038   -0.2294    0.4490 C   0  0  0  0  0  0  0  0  0  0  0  0
    1.8520   -1.2053    1.0254 N   0  0  0  0  0  0  0  0  0  0  0  0
    3.3963    1.2276    0.8491 H   0  0  0  0  0  0  0  0  0  0  0  0
    3.5662    0.3204   -0.6818 H   0  0  0  0  0  0  0  0  0  0  0  0
    3.2810    2.0670   -0.7045 H   0  0  0  0  0  0  0  0  0  0  0  0
   -1.0840    2.4225   -1.3887 H   0  0  0  0  0  0  0  0  0  0  0  0
   -4.1374    0.9156   -1.3208 H   0  0  0  0  0  0  0  0  0  0  0  0
   -2.1620   -3.0166    0.3832 H   0  0  0  0  0  0  0  0  0  0  0  0
    1.3487   -1.8035    1.6907 H   0  0  0  0  0  0  0  0  0  0  0  0
    2.2928   -1.7897    0.3174 H   0  0  0  0  0  0  0  0  0  0  0  0
  1  2  1  0
  2  3  2  0
  3  4  1  0
  4  5  2  0
  5  6  1  0
  6  7  2  0
  6  8  1  0
  5  9  1  0
  9 10  1  0
 10 11  2  0
 10 12  1  0
  9 13  2  0
 13 14  1  0
 13  2  1  0
  1 15  1  0
  1 16  1  0
  1 17  1  0
  4 18  1  0
  8 19  1  0
 12 20  1  0
 14 21  1  0
 14 22  1  0
M  END
$$$$
