
     RDKit          3D

 48 50  0  0  0  0  0  0  0  0999 V2000
   -0.8308   -0.6534    1.8645 O   0  0  0  0  0  0  0  0  0  0  0  0
   -1.1499   -0.2785    0.7326 C   0  0  0  0  0  0  0  0  0  0  0  0
   -0.3567    0.8092    0.0072 C   0  0  0  0  0  0  0  0  0  0  0  0
    1.0883    0.6976    0.3545 N   0  0  0  0  0  0  0  0  0  0  0  0
    1.6582    1.8577    0.9758 C   0  0  0  0  0  0  0  0  0  0  0  0
    1.5598    1.9604    2.3623 C   0  0  0  0  0  0  0  0  0  0  0  0
    2.0223    3.1039    3.0132 C   0  0  0  0  0  0  0  0  0  0  0  0
    2.5628    4.1629    2.2770 C   0  0  0  0  0  0  0  0  0  0  0  0
    3.1087    5.5444    3.1556 Cl  0  0  0  0  0  0  0  0  0  0  0  0
    2.6359    4.0930    0.8800 C   0  0  0  0  0  0  0  0  0  0  0  0
    3.1941    5.2274    0.0644 C   0  0  0  0  0  0  0  0  0  0  0  0
    3.1710    4.9820   -1.2780 F   0  0  0  0  0  0  0  0  0  0  0  0
    4.4915    5.5126    0.3576 F   0  0  0  0  0  0  0  0  0  0  0  0
    2.4967    6.3862    0.2247 F   0  0  0  0  0  0  0  0  0  0  0  0
    2.1635    2.9309    0.2362 C   0  0  0  0  0  0  0  0  0  0  0  0
    2.0724   -0.1023   -0.7837 S   0  0  0  0  0  6  0  0  0  0  0  0
    1.8345    0.5235   -2.0708 O   0  0  0  0  0  0  0  0  0  0  0  0
    3.4142   -0.2255   -0.2550 O   0  0  0  0  0  0  0  0  0  0  0  0
    1.3821   -1.7381   -0.8386 C   0  0  0  0  0  0  0  0  0  0  0  0
    1.4422   -2.5376    0.3064 C   0  0  0  0  0  0  0  0  0  0  0  0
    0.9005   -3.8219    0.2744 C   0  0  0  0  0  0  0  0  0  0  0  0
    0.3146   -4.3040   -0.8975 C   0  0  0  0  0  0  0  0  0  0  0  0
    0.2680   -3.5053   -2.0419 C   0  0  0  0  0  0  0  0  0  0  0  0
    0.8038   -2.2177   -2.0175 C   0  0  0  0  0  0  0  0  0  0  0  0
   -2.2441   -0.8215    0.0766 N   0  0  0  0  0  0  0  0  0  0  0  0
   -2.8041   -0.3394   -1.1894 C   0  0  0  0  0  0  0  0  0  0  0  0
   -4.2719   -0.7504   -1.3424 C   0  0  0  0  0  0  0  0  0  0  0  0
   -4.4766   -2.1661   -1.2731 O   0  0  0  0  0  0  0  0  0  0  0  0
   -3.5612   -2.8521   -0.4061 C   0  0  0  0  0  0  0  0  0  0  0  0
   -2.9405   -1.9624    0.6753 C   0  0  0  0  0  0  0  0  0  0  0  0
   -0.4846    0.7402   -1.0755 H   0  0  0  0  0  0  0  0  0  0  0  0
   -0.7708    1.7762    0.3159 H   0  0  0  0  0  0  0  0  0  0  0  0
    1.1337    1.1431    2.9415 H   0  0  0  0  0  0  0  0  0  0  0  0
    1.9559    3.1622    4.0975 H   0  0  0  0  0  0  0  0  0  0  0  0
    2.1993    2.8721   -0.8512 H   0  0  0  0  0  0  0  0  0  0  0  0
    1.8969   -2.1619    1.2213 H   0  0  0  0  0  0  0  0  0  0  0  0
    0.9384   -4.4478    1.1630 H   0  0  0  0  0  0  0  0  0  0  0  0
   -0.0993   -5.3096   -0.9212 H   0  0  0  0  0  0  0  0  0  0  0  0
   -0.1793   -3.8918   -2.9550 H   0  0  0  0  0  0  0  0  0  0  0  0
    0.7750   -1.6068   -2.9169 H   0  0  0  0  0  0  0  0  0  0  0  0
   -2.2026   -0.7865   -1.9886 H   0  0  0  0  0  0  0  0  0  0  0  0
   -2.7111    0.7495   -1.2445 H   0  0  0  0  0  0  0  0  0  0  0  0
   -4.6619   -0.4067   -2.3055 H   0  0  0  0  0  0  0  0  0  0  0  0
   -4.8818   -0.2869   -0.5587 H   0  0  0  0  0  0  0  0  0  0  0  0
   -2.7770   -3.2809   -1.0394 H   0  0  0  0  0  0  0  0  0  0  0  0
   -4.1025   -3.6855    0.0528 H   0  0  0  0  0  0  0  0  0  0  0  0
   -3.7231   -1.5485    1.3219 H   0  0  0  0  0  0  0  0  0  0  0  0
   -2.2544   -2.5458    1.2981 H   0  0  0  0  0  0  0  0  0  0  0  0
  1  2  2  0
  2  3  1  0
  3  4  1  0
  4  5  1  0
  5  6  2  0
  6  7  1  0
  7  8  2  0
  8  9  1  0
  8 10  1  0
 10 11  1  0
 11 12  1  0
 11 13  1  0
 11 14  1  0
 10 15  2  0
  4 16  1  0
 16 17  2  0
 16 18  2  0
 16 19  1  0
 19 20  2  0
 20 21  1  0
 21 22  2  0
 22 23  1  0
 23 24  2  0
  2 25  1  0
 25 26  1  0
 26 27  1  0
 27 28  1  0
 28 29  1  0
 29 30  1  0
 15  5  1  0
 24 19  1  0
 30 25  1  0
  3 31  1  0
  3 32  1  0
  6 33  1  0
  7 34  1  0
 15 35  1  0
 20 36  1  0
 21 37  1  0
 22 38  1  0
 23 39  1  0
 24 40  1  0
 26 41  1  0
 26 42  1  0
 27 43  1  0
 27 44  1  0
 29 45  1  0
 29 46  1  0
 30 47  1  0
 30 48  1  0
M  END
$$$$
