
     RDKit          3D

 62 64  0  0  0  0  0  0  0  0999 V2000
   -3.4930    2.2215   -2.0810 C   0  0  0  0  0  0  0  0  0  0  0  0
   -2.7483    1.0826   -1.4297 C   0  0  0  0  0  0  0  0  0  0  0  0
   -1.4023    0.9404   -1.8458 C   0  0  0  0  0  0  0  0  0  0  0  0
   -0.5723   -0.0416   -1.3210 C   0  0  0  0  0  0  0  0  0  0  0  0
    0.7179   -0.1205   -1.8667 O   0  0  0  0  0  0  0  0  0  0  0  0
    1.5760   -1.1432   -1.5070 C   0  0  0  0  0  0  0  0  0  0  0  0
    2.6462   -1.3096   -2.0897 O   0  0  0  0  0  0  0  0  0  0  0  0
    1.1667   -2.0216   -0.3731 C   0  0  0  0  0  0  0  0  0  0  0  0
    2.2498   -2.9991    0.0131 C   0  0  0  0  0  0  0  0  0  0  0  0
    3.3308   -2.2679    0.7965 C   0  0  0  0  0  0  0  0  0  0  0  0
    3.0804   -1.6030    1.7997 O   0  0  0  0  0  0  0  0  0  0  0  0
    4.6061   -2.4263    0.2875 N   0  0  0  0  0  0  0  0  0  0  0  0
    5.7555   -1.7534    0.8609 C   0  0  0  0  0  0  0  0  0  0  0  0
    6.1487   -0.4867    0.0992 C   0  0  0  0  0  0  0  0  0  0  0  0
    5.0987    0.6300    0.2178 C   0  0  0  0  0  0  0  0  0  0  0  0
    5.5165    1.8582   -0.4892 N   0  0  0  0  0  0  0  0  0  0  0  0
    4.3495    2.7199   -0.7126 C   0  0  0  0  0  0  0  0  0  0  0  0
    6.5374    2.5950    0.2590 C   0  0  0  0  0  0  0  0  0  0  0  0
   -0.0451   -1.9114    0.2173 C   0  0  0  0  0  0  0  0  0  0  0  0
   -0.4533   -2.7073    1.4307 C   0  0  0  0  0  0  0  0  0  0  0  0
   -0.9857   -0.9177   -0.3310 C   0  0  0  0  0  0  0  0  0  0  0  0
   -2.3275   -0.7721    0.0676 C   0  0  0  0  0  0  0  0  0  0  0  0
   -2.9390   -1.5559    0.9917 O   0  0  0  0  0  0  0  0  0  0  0  0
   -4.2050   -1.1362    1.1209 C   0  0  0  0  0  0  0  0  0  0  0  0
   -4.4894   -0.0643    0.2896 C   0  0  0  0  0  0  0  0  0  0  0  0
   -5.8704    0.6003    0.2163 C   0  0  0  0  0  0  0  0  0  0  0  0
   -6.8316    0.0385    1.3065 C   0  0  0  0  0  0  0  0  0  0  0  0
   -5.7984    2.1125    0.4872 C   0  0  0  0  0  0  0  0  0  0  0  0
   -6.5498    0.2967   -1.1344 C   0  0  0  0  0  0  0  0  0  0  0  0
   -3.2372    0.1841   -0.4290 C   0  0  0  0  0  0  0  0  0  0  0  0
   -3.3685    3.1321   -1.4870 H   0  0  0  0  0  0  0  0  0  0  0  0
   -3.1047    2.4201   -3.0877 H   0  0  0  0  0  0  0  0  0  0  0  0
   -4.5501    2.0065   -2.2090 H   0  0  0  0  0  0  0  0  0  0  0  0
   -0.9958    1.6081   -2.6065 H   0  0  0  0  0  0  0  0  0  0  0  0
    2.6671   -3.4753   -0.8815 H   0  0  0  0  0  0  0  0  0  0  0  0
    1.8917   -3.8277    0.6294 H   0  0  0  0  0  0  0  0  0  0  0  0
    4.7038   -2.7813   -0.6621 H   0  0  0  0  0  0  0  0  0  0  0  0
    5.5694   -1.5259    1.9164 H   0  0  0  0  0  0  0  0  0  0  0  0
    6.5836   -2.4707    0.8155 H   0  0  0  0  0  0  0  0  0  0  0  0
    6.3068   -0.7273   -0.9627 H   0  0  0  0  0  0  0  0  0  0  0  0
    7.1142   -0.1514    0.4981 H   0  0  0  0  0  0  0  0  0  0  0  0
    4.8689    0.8401    1.2718 H   0  0  0  0  0  0  0  0  0  0  0  0
    4.1705    0.2622   -0.2402 H   0  0  0  0  0  0  0  0  0  0  0  0
    3.8674    3.0141    0.2262 H   0  0  0  0  0  0  0  0  0  0  0  0
    3.6038    2.2113   -1.3377 H   0  0  0  0  0  0  0  0  0  0  0  0
    4.6399    3.6274   -1.2554 H   0  0  0  0  0  0  0  0  0  0  0  0
    6.8283    3.5021   -0.2845 H   0  0  0  0  0  0  0  0  0  0  0  0
    6.1878    2.8880    1.2561 H   0  0  0  0  0  0  0  0  0  0  0  0
    7.4543    2.0076    0.3747 H   0  0  0  0  0  0  0  0  0  0  0  0
   -1.2196   -3.4453    1.1720 H   0  0  0  0  0  0  0  0  0  0  0  0
   -0.8308   -2.0480    2.2207 H   0  0  0  0  0  0  0  0  0  0  0  0
    0.3738   -3.2518    1.8901 H   0  0  0  0  0  0  0  0  0  0  0  0
   -4.7891   -1.6962    1.8383 H   0  0  0  0  0  0  0  0  0  0  0  0
   -7.0003   -1.0377    1.1829 H   0  0  0  0  0  0  0  0  0  0  0  0
   -7.8135    0.5233    1.2588 H   0  0  0  0  0  0  0  0  0  0  0  0
   -6.4338    0.2015    2.3155 H   0  0  0  0  0  0  0  0  0  0  0  0
   -5.3482    2.3142    1.4678 H   0  0  0  0  0  0  0  0  0  0  0  0
   -5.2116    2.6546   -0.2500 H   0  0  0  0  0  0  0  0  0  0  0  0
   -6.8001    2.5630    0.4845 H   0  0  0  0  0  0  0  0  0  0  0  0
   -6.7255   -0.7801   -1.2469 H   0  0  0  0  0  0  0  0  0  0  0  0
   -5.9516    0.5993   -1.9940 H   0  0  0  0  0  0  0  0  0  0  0  0
   -7.5202    0.8013   -1.2130 H   0  0  0  0  0  0  0  0  0  0  0  0
  1  2  1  0
  2  3  2  0
  3  4  1  0
  4  5  1  0
  5  6  1  0
  6  7  2  0
  6  8  1  0
  8  9  1  0
  9 10  1  0
 10 11  2  0
 10 12  1  0
 12 13  1  0
 13 14  1  0
 14 15  1  0
 15 16  1  0
 16 17  1  0
 16 18  1  0
  8 19  2  0
 19 20  1  0
 19 21  1  0
 21 22  1  0
 22 23  1  0
 23 24  1  0
 24 25  2  0
 25 26  1  0
 26 27  1  0
 26 28  1  0
 26 29  1  0
 25 30  1  0
 30  2  1  0
 21  4  2  0
 30 22  2  0
  1 31  1  0
  1 32  1  0
  1 33  1  0
  3 34  1  0
  9 35  1  0
  9 36  1  0
 12 37  1  0
 13 38  1  0
 13 39  1  0
 14 40  1  0
 14 41  1  0
 15 42  1  0
 15 43  1  0
 17 44  1  0
 17 45  1  0
 17 46  1  0
 18 47  1  0
 18 48  1  0
 18 49  1  0
 20 50  1  0
 20 51  1  0
 20 52  1  0
 24 53  1  0
 27 54  1  0
 27 55  1  0
 27 56  1  0
 28 57  1  0
 28 58  1  0
 28 59  1  0
 29 60  1  0
 29 61  1  0
 29 62  1  0
M  END
$$$$
