
     RDKit          3D

 33 34  0  0  0  0  0  0  0  0999 V2000
    6.4950   -0.2920   -1.1193 C   0  0  0  0  0  0  0  0  0  0  0  0
    5.8544   -0.5475    0.2383 C   0  0  0  0  0  0  0  0  0  0  0  0
    5.4844    0.7274    0.9991 C   0  0  0  0  0  0  0  0  0  0  0  0
    4.2076    1.7352    0.1837 S   0  0  0  0  0  0  0  0  0  0  0  0
    2.7594    0.8149    0.5187 C   0  0  0  0  0  0  0  0  0  0  0  0
    2.7282   -0.2029    1.3521 N   0  0  0  0  0  0  0  0  0  0  0  0
    1.4667   -0.7584    1.4391 N   0  0  0  0  0  0  0  0  0  0  0  0
    0.5961   -0.1243    0.6836 C   0  0  0  0  0  0  0  0  0  0  0  0
   -0.7163   -0.5209    0.6059 N   0  0  0  0  0  0  0  0  0  0  0  0
   -1.7485    0.1533   -0.0151 C   0  0  0  0  0  0  0  0  0  0  0  0
   -1.6529    1.2516   -0.5445 O   0  0  0  0  0  0  0  0  0  0  0  0
   -2.9160   -0.5975    0.0476 N   0  0  0  0  0  0  0  0  0  0  0  0
   -4.2050   -0.2269   -0.3923 C   0  0  0  0  0  0  0  0  0  0  0  0
   -5.2040   -1.2090   -0.3405 C   0  0  0  0  0  0  0  0  0  0  0  0
   -6.5093   -0.9231   -0.7500 C   0  0  0  0  0  0  0  0  0  0  0  0
   -6.8299    0.3498   -1.2124 C   0  0  0  0  0  0  0  0  0  0  0  0
   -5.8461    1.3340   -1.2623 C   0  0  0  0  0  0  0  0  0  0  0  0
   -4.5395    1.0478   -0.8522 C   0  0  0  0  0  0  0  0  0  0  0  0
    1.2512    1.1679   -0.2112 S   0  0  0  0  0  0  0  0  0  0  0  0
    7.3688    0.3604   -1.0245 H   0  0  0  0  0  0  0  0  0  0  0  0
    6.8267   -1.2378   -1.5601 H   0  0  0  0  0  0  0  0  0  0  0  0
    5.7921    0.1693   -1.8190 H   0  0  0  0  0  0  0  0  0  0  0  0
    4.9801   -1.1959    0.1126 H   0  0  0  0  0  0  0  0  0  0  0  0
    6.5693   -1.1113    0.8503 H   0  0  0  0  0  0  0  0  0  0  0  0
    5.1622    0.4796    2.0162 H   0  0  0  0  0  0  0  0  0  0  0  0
    6.3757    1.3565    1.1021 H   0  0  0  0  0  0  0  0  0  0  0  0
   -0.9337   -1.2939    1.2134 H   0  0  0  0  0  0  0  0  0  0  0  0
   -2.8158   -1.5577    0.3395 H   0  0  0  0  0  0  0  0  0  0  0  0
   -4.9836   -2.2115    0.0161 H   0  0  0  0  0  0  0  0  0  0  0  0
   -7.2744   -1.6939   -0.7079 H   0  0  0  0  0  0  0  0  0  0  0  0
   -7.8436    0.5766   -1.5323 H   0  0  0  0  0  0  0  0  0  0  0  0
   -6.0907    2.3312   -1.6200 H   0  0  0  0  0  0  0  0  0  0  0  0
   -3.8088    1.8491   -0.9014 H   0  0  0  0  0  0  0  0  0  0  0  0
  1  2  1  0
  2  3  1  0
  3  4  1  0
  4  5  1  0
  5  6  2  0
  6  7  1  0
  7  8  2  0
  8  9  1  0
  9 10  1  0
 10 11  2  0
 10 12  1  0
 12 13  1  0
 13 14  2  0
 14 15  1  0
 15 16  2  0
 16 17  1  0
 17 18  2  0
  8 19  1  0
 19  5  1  0
 18 13  1  0
  1 20  1  0
  1 21  1  0
  1 22  1  0
  2 23  1  0
  2 24  1  0
  3 25  1  0
  3 26  1  0
  9 27  1  0
 12 28  1  0
 14 29  1  0
 15 30  1  0
 16 31  1  0
 17 32  1  0
 18 33  1  0
M  END
$$$$
