
     RDKit          3D

 44 47  0  0  0  0  0  0  0  0999 V2000
    1.0355   -1.0961    2.4391 O   0  0  0  0  0  0  0  0  0  0  0  0
    1.6585   -1.6162    1.2423 S   0  0  0  0  0  6  0  0  0  0  0  0
    2.0754   -3.0078    1.2175 O   0  0  0  0  0  0  0  0  0  0  0  0
    3.0755   -0.6551    0.7721 C   0  0  0  0  0  0  0  0  0  0  0  0
    4.1319   -1.3373    0.1384 C   0  0  0  0  0  0  0  0  0  0  0  0
    5.2953   -0.6619   -0.2009 C   0  0  0  0  0  0  0  0  0  0  0  0
    5.4067    0.6893    0.1003 C   0  0  0  0  0  0  0  0  0  0  0  0
    4.3545    1.3703    0.7346 C   0  0  0  0  0  0  0  0  0  0  0  0
    4.4833    2.7340    1.0315 C   0  0  0  0  0  0  0  0  0  0  0  0
    3.4502    3.4126    1.6609 C   0  0  0  0  0  0  0  0  0  0  0  0
    2.3107    2.7015    1.9601 C   0  0  0  0  0  0  0  0  0  0  0  0
    2.1485    1.3922    1.6694 N   0  0  0  0  0  0  0  0  0  0  0  0
    3.1550    0.7044    1.0854 C   0  0  0  0  0  0  0  0  0  0  0  0
    0.5678   -1.4236   -0.0637 N   0  0  0  0  0  0  0  0  0  0  0  0
    0.0894   -0.0168   -0.2886 C   0  0  0  0  0  0  0  0  0  0  0  0
   -1.1691    0.0414   -1.1768 C   0  0  0  0  0  0  0  0  0  0  0  0
   -2.2832   -0.7109   -0.5758 N   0  0  0  0  0  0  0  0  0  0  0  0
   -3.5983   -0.3252   -0.7691 C   0  0  0  0  0  0  0  0  0  0  0  0
   -3.9922    0.4006   -1.9062 C   0  0  0  0  0  0  0  0  0  0  0  0
   -5.3215    0.7870   -2.1191 C   0  0  0  0  0  0  0  0  0  0  0  0
   -6.3006    0.4537   -1.1917 C   0  0  0  0  0  0  0  0  0  0  0  0
   -5.9458   -0.2639   -0.0561 C   0  0  0  0  0  0  0  0  0  0  0  0
   -4.6135   -0.6473    0.1462 C   0  0  0  0  0  0  0  0  0  0  0  0
   -1.9121   -1.7762    0.3694 C   0  0  0  0  0  0  0  0  0  0  0  0
   -0.5687   -2.4126   -0.0325 C   0  0  0  0  0  0  0  0  0  0  0  0
    4.0510   -2.3996   -0.0867 H   0  0  0  0  0  0  0  0  0  0  0  0
    6.1137   -1.1877   -0.6869 H   0  0  0  0  0  0  0  0  0  0  0  0
    6.3245    1.2118   -0.1634 H   0  0  0  0  0  0  0  0  0  0  0  0
    5.3937    3.2739    0.7816 H   0  0  0  0  0  0  0  0  0  0  0  0
    3.5360    4.4637    1.9130 H   0  0  0  0  0  0  0  0  0  0  0  0
    1.4682    3.1715    2.4610 H   0  0  0  0  0  0  0  0  0  0  0  0
    0.8854    0.5474   -0.7846 H   0  0  0  0  0  0  0  0  0  0  0  0
   -0.1442    0.4588    0.6702 H   0  0  0  0  0  0  0  0  0  0  0  0
   -0.9480   -0.3760   -2.1665 H   0  0  0  0  0  0  0  0  0  0  0  0
   -1.4298    1.0992   -1.3019 H   0  0  0  0  0  0  0  0  0  0  0  0
   -3.2667    0.6577   -2.6728 H   0  0  0  0  0  0  0  0  0  0  0  0
   -5.5863    1.3406   -3.0162 H   0  0  0  0  0  0  0  0  0  0  0  0
   -7.3335    0.7483   -1.3546 H   0  0  0  0  0  0  0  0  0  0  0  0
   -6.7010   -0.5281    0.6793 H   0  0  0  0  0  0  0  0  0  0  0  0
   -4.3830   -1.1900    1.0591 H   0  0  0  0  0  0  0  0  0  0  0  0
   -1.8495   -1.3639    1.3839 H   0  0  0  0  0  0  0  0  0  0  0  0
   -2.6646   -2.5737    0.3678 H   0  0  0  0  0  0  0  0  0  0  0  0
   -0.6448   -2.8416   -1.0401 H   0  0  0  0  0  0  0  0  0  0  0  0
   -0.3542   -3.2482    0.6416 H   0  0  0  0  0  0  0  0  0  0  0  0
  1  2  2  0
  2  3  2  0
  2  4  1  0
  4  5  2  0
  5  6  1  0
  6  7  2  0
  7  8  1  0
  8  9  2  0
  9 10  1  0
 10 11  2  0
 11 12  1  0
 12 13  2  0
  2 14  1  0
 14 15  1  0
 15 16  1  0
 16 17  1  0
 17 18  1  0
 18 19  2  0
 19 20  1  0
 20 21  2  0
 21 22  1  0
 22 23  2  0
 17 24  1  0
 24 25  1  0
 13  4  1  0
 25 14  1  0
 13  8  1  0
 23 18  1  0
  5 26  1  0
  6 27  1  0
  7 28  1  0
  9 29  1  0
 10 30  1  0
 11 31  1  0
 15 32  1  0
 15 33  1  0
 16 34  1  0
 16 35  1  0
 19 36  1  0
 20 37  1  0
 21 38  1  0
 22 39  1  0
 23 40  1  0
 24 41  1  0
 24 42  1  0
 25 43  1  0
 25 44  1  0
M  END
$$$$
