
     RDKit          3D

 46 49  0  0  0  0  0  0  0  0999 V2000
    5.6277   -1.0319   -1.6303 C   0  0  0  0  0  0  0  0  0  0  0  0
    5.3999   -0.3880   -0.2961 C   0  0  0  0  0  0  0  0  0  0  0  0
    3.9761   -0.1468    0.0823 C   0  0  0  0  0  0  0  0  0  0  0  0
    2.9871   -0.3934   -0.7143 N   0  0  0  0  0  0  0  0  0  0  0  0
    1.7531   -0.1109   -0.2107 N   0  0  0  0  0  0  0  0  0  0  0  0
    0.5998   -0.3221   -0.9491 C   0  0  0  0  0  0  0  0  0  0  0  0
    0.5467   -0.7639   -2.0932 O   0  0  0  0  0  0  0  0  0  0  0  0
   -0.6071    0.0509   -0.1926 C   0  0  0  0  0  0  0  0  0  0  0  0
   -1.9512   -0.0316   -0.6369 C   0  0  0  0  0  0  0  0  0  0  0  0
   -2.7315    0.4308    0.4040 C   0  0  0  0  0  0  0  0  0  0  0  0
   -4.1797    0.5703    0.5425 C   0  0  0  0  0  0  0  0  0  0  0  0
   -4.7395    1.5921    1.3179 C   0  0  0  0  0  0  0  0  0  0  0  0
   -6.1273    1.7126    1.4443 C   0  0  0  0  0  0  0  0  0  0  0  0
   -6.9880    0.8149    0.7968 C   0  0  0  0  0  0  0  0  0  0  0  0
   -8.3833    0.9223    0.9147 C   0  0  0  0  0  0  0  0  0  0  0  0
   -9.2252    0.0208    0.2618 C   0  0  0  0  0  0  0  0  0  0  0  0
   -8.6834   -0.9976   -0.5166 C   0  0  0  0  0  0  0  0  0  0  0  0
   -7.2985   -1.1165   -0.6439 C   0  0  0  0  0  0  0  0  0  0  0  0
   -6.4372   -0.2176    0.0065 C   0  0  0  0  0  0  0  0  0  0  0  0
   -5.0397   -0.3239   -0.1117 C   0  0  0  0  0  0  0  0  0  0  0  0
   -1.8352    0.7373    1.3950 N   0  0  0  0  0  0  0  0  0  0  0  0
   -0.5458    0.5327    1.0672 N   0  0  0  0  0  0  0  0  0  0  0  0
    6.3058   -0.0305    0.6313 C   0  0  0  0  0  0  0  0  0  0  0  0
    7.7174   -0.1285    0.4845 C   0  0  0  0  0  0  0  0  0  0  0  0
    8.5485    0.0316   -0.6201 C   0  0  0  0  0  0  0  0  0  0  0  0
    9.8868   -0.1468   -0.1952 C   0  0  0  0  0  0  0  0  0  0  0  0
    9.8202   -0.3867    1.1518 C   0  0  0  0  0  0  0  0  0  0  0  0
    8.5333   -0.3633    1.5718 O   0  0  0  0  0  0  0  0  0  0  0  0
    5.5405   -0.2903   -2.4305 H   0  0  0  0  0  0  0  0  0  0  0  0
    4.8943   -1.8250   -1.8136 H   0  0  0  0  0  0  0  0  0  0  0  0
    6.6058   -1.5135   -1.7052 H   0  0  0  0  0  0  0  0  0  0  0  0
    3.8061    0.2701    1.0922 H   0  0  0  0  0  0  0  0  0  0  0  0
    1.6303    0.2597    0.7293 H   0  0  0  0  0  0  0  0  0  0  0  0
   -2.2869   -0.3781   -1.6054 H   0  0  0  0  0  0  0  0  0  0  0  0
   -4.1126    2.3257    1.8179 H   0  0  0  0  0  0  0  0  0  0  0  0
   -6.5326    2.5210    2.0492 H   0  0  0  0  0  0  0  0  0  0  0  0
   -8.8260    1.7120    1.5175 H   0  0  0  0  0  0  0  0  0  0  0  0
  -10.3035    0.1149    0.3608 H   0  0  0  0  0  0  0  0  0  0  0  0
   -9.3375   -1.7002   -1.0265 H   0  0  0  0  0  0  0  0  0  0  0  0
   -6.8947   -1.9187   -1.2579 H   0  0  0  0  0  0  0  0  0  0  0  0
   -4.6202   -1.1258   -0.7167 H   0  0  0  0  0  0  0  0  0  0  0  0
   -2.0444    1.0790    2.3266 H   0  0  0  0  0  0  0  0  0  0  0  0
    5.9845    0.3598    1.5940 H   0  0  0  0  0  0  0  0  0  0  0  0
    8.2234    0.2649   -1.6246 H   0  0  0  0  0  0  0  0  0  0  0  0
   10.7843   -0.0953   -0.7949 H   0  0  0  0  0  0  0  0  0  0  0  0
   10.5590   -0.5764    1.9179 H   0  0  0  0  0  0  0  0  0  0  0  0
  1  2  1  0
  2  3  1  0
  3  4  2  3
  4  5  1  0
  5  6  1  0
  6  7  2  0
  6  8  1  0
  8  9  1  0
  9 10  2  0
 10 11  1  0
 11 12  2  0
 12 13  1  0
 13 14  2  0
 14 15  1  0
 15 16  2  0
 16 17  1  0
 17 18  2  0
 18 19  1  0
 19 20  2  0
 10 21  1  0
 21 22  1  0
  2 23  2  3
 23 24  1  0
 24 25  2  0
 25 26  1  0
 26 27  2  0
 27 28  1  0
 22  8  2  0
 28 24  1  0
 20 11  1  0
 19 14  1  0
  1 29  1  0
  1 30  1  0
  1 31  1  0
  3 32  1  0
  5 33  1  0
  9 34  1  0
 12 35  1  0
 13 36  1  0
 15 37  1  0
 16 38  1  0
 17 39  1  0
 18 40  1  0
 20 41  1  0
 21 42  1  0
 23 43  1  0
 25 44  1  0
 26 45  1  0
 27 46  1  0
M  END
$$$$
