
     RDKit          3D

 41 43  0  0  0  0  0  0  0  0999 V2000
   -1.8775    2.7639    1.2199 O   0  0  0  0  0  0  0  0  0  0  0  0
   -2.6597    1.8210    1.3361 C   0  0  0  0  0  0  0  0  0  0  0  0
   -4.1649    2.0096    1.2598 C   0  0  0  0  0  0  0  0  0  0  0  0
   -4.8928    0.9323    0.4915 C   0  0  0  0  0  0  0  0  0  0  0  0
   -5.8391    0.1195    1.1291 C   0  0  0  0  0  0  0  0  0  0  0  0
   -6.5018   -0.8813    0.4183 C   0  0  0  0  0  0  0  0  0  0  0  0
   -6.2232   -1.0805   -0.9329 C   0  0  0  0  0  0  0  0  0  0  0  0
   -5.2848   -0.2769   -1.5765 C   0  0  0  0  0  0  0  0  0  0  0  0
   -4.6258    0.7293   -0.8717 C   0  0  0  0  0  0  0  0  0  0  0  0
   -2.2479    0.5293    1.6269 N   0  0  0  0  0  0  0  0  0  0  0  0
   -0.8625    0.2874    1.5356 N   0  0  0  0  0  0  0  0  0  0  0  0
   -0.3283   -0.0726    0.3097 C   0  0  0  0  0  0  0  0  0  0  0  0
   -0.9552   -0.3041   -0.7173 O   0  0  0  0  0  0  0  0  0  0  0  0
    1.1511   -0.1768    0.4404 C   0  0  0  0  0  0  0  0  0  0  0  0
    1.9287   -0.4879   -0.6064 C   0  0  0  0  0  0  0  0  0  0  0  0
    3.3903   -0.5938   -0.5831 C   0  0  0  0  0  0  0  0  0  0  0  0
    4.1569    0.3468   -1.2803 C   0  0  0  0  0  0  0  0  0  0  0  0
    5.5531    0.2684   -1.2708 C   0  0  0  0  0  0  0  0  0  0  0  0
    6.1928   -0.7578   -0.5679 C   0  0  0  0  0  0  0  0  0  0  0  0
    7.6694   -0.8825   -0.5293 C   0  0  0  0  0  0  0  0  0  0  0  0
    8.2947   -1.8219   -0.0725 O   0  0  0  0  0  0  0  0  0  0  0  0
    8.2952    0.1861   -1.0536 O   0  0  0  0  0  0  0  0  0  0  0  0
    5.4269   -1.7101    0.1163 C   0  0  0  0  0  0  0  0  0  0  0  0
    4.0314   -1.6280    0.1082 C   0  0  0  0  0  0  0  0  0  0  0  0
    1.6400    0.1718    2.0596 S   0  0  0  0  0  0  0  0  0  0  0  0
   -0.0102    0.4610    2.6076 C   0  0  0  0  0  0  0  0  0  0  0  0
   -0.4010    0.8353    4.1868 S   0  0  0  0  0  0  0  0  0  0  0  0
   -4.5376    2.0723    2.2905 H   0  0  0  0  0  0  0  0  0  0  0  0
   -4.3723    2.9780    0.7839 H   0  0  0  0  0  0  0  0  0  0  0  0
   -6.0709    0.2566    2.1841 H   0  0  0  0  0  0  0  0  0  0  0  0
   -7.2383   -1.5061    0.9171 H   0  0  0  0  0  0  0  0  0  0  0  0
   -6.7426   -1.8568   -1.4891 H   0  0  0  0  0  0  0  0  0  0  0  0
   -5.0661   -0.4331   -2.6312 H   0  0  0  0  0  0  0  0  0  0  0  0
   -3.8959    1.3464   -1.3945 H   0  0  0  0  0  0  0  0  0  0  0  0
   -2.8321   -0.2370    1.2940 H   0  0  0  0  0  0  0  0  0  0  0  0
    1.4777   -0.6594   -1.5841 H   0  0  0  0  0  0  0  0  0  0  0  0
    3.6768    1.1538   -1.8304 H   0  0  0  0  0  0  0  0  0  0  0  0
    6.1310    1.0131   -1.8132 H   0  0  0  0  0  0  0  0  0  0  0  0
    9.2464   -0.0260   -0.9513 H   0  0  0  0  0  0  0  0  0  0  0  0
    5.9130   -2.5143    0.6659 H   0  0  0  0  0  0  0  0  0  0  0  0
    3.4552   -2.3749    0.6492 H   0  0  0  0  0  0  0  0  0  0  0  0
  1  2  2  0
  2  3  1  0
  3  4  1  0
  4  5  2  0
  5  6  1  0
  6  7  2  0
  7  8  1  0
  8  9  2  0
  2 10  1  0
 10 11  1  0
 11 12  1  0
 12 13  2  0
 12 14  1  0
 14 15  2  3
 15 16  1  0
 16 17  2  0
 17 18  1  0
 18 19  2  0
 19 20  1  0
 20 21  2  0
 20 22  1  0
 19 23  1  0
 23 24  2  0
 14 25  1  0
 25 26  1  0
 26 27  2  0
  9  4  1  0
 26 11  1  0
 24 16  1  0
  3 28  1  0
  3 29  1  0
  5 30  1  0
  6 31  1  0
  7 32  1  0
  8 33  1  0
  9 34  1  0
 10 35  1  0
 15 36  1  0
 17 37  1  0
 18 38  1  0
 22 39  1  0
 23 40  1  0
 24 41  1  0
M  END
$$$$
