
     RDKit          3D

 52 55  0  0  0  0  0  0  0  0999 V2000
   -7.6644   -4.1839    0.3874 C   0  0  0  0  0  0  0  0  0  0  0  0
   -6.3284   -4.6165    0.1705 O   0  0  0  0  0  0  0  0  0  0  0  0
   -5.4334   -3.6735   -0.2528 C   0  0  0  0  0  0  0  0  0  0  0  0
   -4.1270   -4.1398   -0.4171 C   0  0  0  0  0  0  0  0  0  0  0  0
   -3.1118   -3.2833   -0.8510 C   0  0  0  0  0  0  0  0  0  0  0  0
   -3.3946   -1.9427   -1.1214 C   0  0  0  0  0  0  0  0  0  0  0  0
   -2.3560   -1.0363   -1.6154 C   0  0  0  0  0  0  0  0  0  0  0  0
   -1.2978   -0.5803   -0.9286 C   0  0  0  0  0  0  0  0  0  0  0  0
   -0.1305    0.4609   -1.6586 S   0  0  0  0  0  0  0  0  0  0  0  0
    0.9836    0.2402   -0.3230 C   0  0  0  0  0  0  0  0  0  0  0  0
    2.3061    0.4858   -0.4654 C   0  0  0  0  0  0  0  0  0  0  0  0
    3.3188    0.0558    0.4331 C   0  0  0  0  0  0  0  0  0  0  0  0
    4.1633   -0.2761    1.1588 N   0  0  0  0  0  0  0  0  0  0  0  0
    2.8310    1.0946   -1.7157 C   0  0  0  0  0  0  0  0  0  0  0  0
    3.4800    0.4354   -2.5180 O   0  0  0  0  0  0  0  0  0  0  0  0
    2.5675    2.4370   -1.8469 N   0  0  0  0  0  0  0  0  0  0  0  0
    3.1630    3.2145   -2.9112 C   0  0  0  0  0  0  0  0  0  0  0  0
    4.4527    3.7586   -2.4231 C   0  0  0  0  0  0  0  0  0  0  0  0
    5.7430    3.2698   -2.4233 C   0  0  0  0  0  0  0  0  0  0  0  0
    6.5442    4.2557   -1.7987 C   0  0  0  0  0  0  0  0  0  0  0  0
    5.6939    5.2815   -1.4589 C   0  0  0  0  0  0  0  0  0  0  0  0
    4.4183    4.9852   -1.8264 O   0  0  0  0  0  0  0  0  0  0  0  0
    0.3277   -0.3271    0.7755 N   0  0  0  0  0  0  0  0  0  0  0  0
    0.7687   -0.2884    2.1388 C   0  0  0  0  0  0  0  0  0  0  0  0
    0.5789   -1.3855    2.9899 C   0  0  0  0  0  0  0  0  0  0  0  0
    1.0050   -1.3421    4.3204 C   0  0  0  0  0  0  0  0  0  0  0  0
    1.6130   -0.1950    4.8224 C   0  0  0  0  0  0  0  0  0  0  0  0
    1.7864    0.9129    3.9982 C   0  0  0  0  0  0  0  0  0  0  0  0
    1.3616    0.8702    2.6668 C   0  0  0  0  0  0  0  0  0  0  0  0
   -0.9582   -0.8415    0.5009 C   0  0  0  0  0  0  0  0  0  0  0  0
   -1.7296   -1.3731    1.2870 O   0  0  0  0  0  0  0  0  0  0  0  0
   -4.7028   -1.4751   -0.9620 C   0  0  0  0  0  0  0  0  0  0  0  0
   -5.7176   -2.3360   -0.5262 C   0  0  0  0  0  0  0  0  0  0  0  0
   -7.7099   -3.4208    1.1705 H   0  0  0  0  0  0  0  0  0  0  0  0
   -8.2448   -5.0467    0.7289 H   0  0  0  0  0  0  0  0  0  0  0  0
   -8.1183   -3.8246   -0.5419 H   0  0  0  0  0  0  0  0  0  0  0  0
   -3.8959   -5.1785   -0.2012 H   0  0  0  0  0  0  0  0  0  0  0  0
   -2.1050   -3.6750   -0.9697 H   0  0  0  0  0  0  0  0  0  0  0  0
   -2.4986   -0.7402   -2.6526 H   0  0  0  0  0  0  0  0  0  0  0  0
    2.1549    2.9587   -1.0853 H   0  0  0  0  0  0  0  0  0  0  0  0
    2.4656    4.0225   -3.1606 H   0  0  0  0  0  0  0  0  0  0  0  0
    3.3088    2.5946   -3.8021 H   0  0  0  0  0  0  0  0  0  0  0  0
    6.0577    2.3147   -2.8226 H   0  0  0  0  0  0  0  0  0  0  0  0
    7.6107    4.2219   -1.6220 H   0  0  0  0  0  0  0  0  0  0  0  0
    5.8313    6.2399   -0.9760 H   0  0  0  0  0  0  0  0  0  0  0  0
    0.1153   -2.3007    2.6273 H   0  0  0  0  0  0  0  0  0  0  0  0
    0.8608   -2.2075    4.9622 H   0  0  0  0  0  0  0  0  0  0  0  0
    1.9469   -0.1650    5.8563 H   0  0  0  0  0  0  0  0  0  0  0  0
    2.2519    1.8123    4.3943 H   0  0  0  0  0  0  0  0  0  0  0  0
    1.4759    1.7683    2.0680 H   0  0  0  0  0  0  0  0  0  0  0  0
   -4.9456   -0.4356   -1.1692 H   0  0  0  0  0  0  0  0  0  0  0  0
   -6.7162   -1.9278   -0.4100 H   0  0  0  0  0  0  0  0  0  0  0  0
  1  2  1  0
  2  3  1  0
  3  4  2  0
  4  5  1  0
  5  6  2  0
  6  7  1  0
  7  8  2  3
  8  9  1  0
  9 10  1  0
 10 11  2  3
 11 12  1  0
 12 13  3  0
 11 14  1  0
 14 15  2  0
 14 16  1  0
 16 17  1  0
 17 18  1  0
 18 19  2  0
 19 20  1  0
 20 21  2  0
 21 22  1  0
 10 23  1  0
 23 24  1  0
 24 25  2  0
 25 26  1  0
 26 27  2  0
 27 28  1  0
 28 29  2  0
 23 30  1  0
 30 31  2  0
  6 32  1  0
 32 33  2  0
 33  3  1  0
 30  8  1  0
 22 18  1  0
 29 24  1  0
  1 34  1  0
  1 35  1  0
  1 36  1  0
  4 37  1  0
  5 38  1  0
  7 39  1  0
 16 40  1  0
 17 41  1  0
 17 42  1  0
 19 43  1  0
 20 44  1  0
 21 45  1  0
 25 46  1  0
 26 47  1  0
 27 48  1  0
 28 49  1  0
 29 50  1  0
 32 51  1  0
 33 52  1  0
M  END
$$$$
