
     RDKit          3D

 54 58  0  0  0  0  0  0  0  0999 V2000
   -8.4443    0.1997    2.4327 O   0  0  0  0  0  0  0  0  0  0  0  0
   -7.7980   -0.0299    1.4277 C   0  0  0  0  0  0  0  0  0  0  0  0
   -8.3861   -0.4971    0.3123 O   0  0  0  0  0  0  0  0  0  0  0  0
   -6.3354    0.1551    1.2728 C   0  0  0  0  0  0  0  0  0  0  0  0
   -5.6695   -0.1302    0.0799 C   0  0  0  0  0  0  0  0  0  0  0  0
   -4.2835    0.0599   -0.0178 C   0  0  0  0  0  0  0  0  0  0  0  0
   -3.5287    0.5301    1.0677 C   0  0  0  0  0  0  0  0  0  0  0  0
   -2.1139    0.7224    0.9749 N   0  0  0  0  0  0  0  0  0  0  0  0
   -1.4379    1.6958    1.7558 C   0  0  0  0  0  0  0  0  0  0  0  0
   -1.8445    2.4826    2.5938 O   0  0  0  0  0  0  0  0  0  0  0  0
   -0.0104    1.6078    1.3001 C   0  0  0  0  0  0  0  0  0  0  0  0
    0.9299    2.4008    1.8293 C   0  0  0  0  0  0  0  0  0  0  0  0
    2.3054    2.3701    1.4686 C   0  0  0  0  0  0  0  0  0  0  0  0
    3.3020    3.2715    1.8227 C   0  0  0  0  0  0  0  0  0  0  0  0
    4.5166    2.8342    1.2413 C   0  0  0  0  0  0  0  0  0  0  0  0
    4.2260    1.6724    0.5619 C   0  0  0  0  0  0  0  0  0  0  0  0
    5.0036    0.7266   -0.2354 C   0  0  0  0  0  0  0  0  0  0  0  0
    4.4556   -0.5017   -0.6441 C   0  0  0  0  0  0  0  0  0  0  0  0
    5.2001   -1.4104   -1.4044 C   0  0  0  0  0  0  0  0  0  0  0  0
    6.5132   -1.0919   -1.7651 C   0  0  0  0  0  0  0  0  0  0  0  0
    7.3013   -2.0396   -2.5625 N   0  0  0  0  0  4  0  0  0  0  0  0
    6.7755   -3.1226   -2.8570 O   0  0  0  0  0  0  0  0  0  0  0  0
    8.4461   -1.7003   -2.8945 O   0  0  0  0  0  1  0  0  0  0  0  0
    7.0806    0.1245   -1.3692 C   0  0  0  0  0  0  0  0  0  0  0  0
    6.3248    1.0240   -0.6075 C   0  0  0  0  0  0  0  0  0  0  0  0
    2.8978    1.3971    0.6970 O   0  0  0  0  0  0  0  0  0  0  0  0
    0.0440    0.5864    0.2925 C   0  0  0  0  0  0  0  0  0  0  0  0
   -1.1945    0.0955    0.1284 C   0  0  0  0  0  0  0  0  0  0  0  0
   -1.4440   -1.0528   -0.7439 C   0  0  0  0  0  0  0  0  0  0  0  0
   -1.8483   -2.2806   -0.2018 C   0  0  0  0  0  0  0  0  0  0  0  0
   -2.0617   -3.3832   -1.0313 C   0  0  0  0  0  0  0  0  0  0  0  0
   -1.8680   -3.2696   -2.4069 C   0  0  0  0  0  0  0  0  0  0  0  0
   -1.4573   -2.0561   -2.9555 C   0  0  0  0  0  0  0  0  0  0  0  0
   -1.2413   -0.9525   -2.1279 C   0  0  0  0  0  0  0  0  0  0  0  0
   -4.2205    0.8248    2.2535 C   0  0  0  0  0  0  0  0  0  0  0  0
   -5.6053    0.6373    2.3597 C   0  0  0  0  0  0  0  0  0  0  0  0
   -9.3323   -0.5648    0.5585 H   0  0  0  0  0  0  0  0  0  0  0  0
   -6.2148   -0.4923   -0.7886 H   0  0  0  0  0  0  0  0  0  0  0  0
   -3.8275   -0.1317   -0.9837 H   0  0  0  0  0  0  0  0  0  0  0  0
    0.6362    3.1267    2.5850 H   0  0  0  0  0  0  0  0  0  0  0  0
    3.1601    4.1519    2.4349 H   0  0  0  0  0  0  0  0  0  0  0  0
    5.4835    3.3098    1.3223 H   0  0  0  0  0  0  0  0  0  0  0  0
    3.4370   -0.7677   -0.3660 H   0  0  0  0  0  0  0  0  0  0  0  0
    4.7422   -2.3525   -1.6999 H   0  0  0  0  0  0  0  0  0  0  0  0
    8.1010    0.3879   -1.6407 H   0  0  0  0  0  0  0  0  0  0  0  0
    6.7842    1.9651   -0.3123 H   0  0  0  0  0  0  0  0  0  0  0  0
    0.9343    0.2476   -0.2115 H   0  0  0  0  0  0  0  0  0  0  0  0
   -1.9992   -2.3850    0.8707 H   0  0  0  0  0  0  0  0  0  0  0  0
   -2.3768   -4.3312   -0.6029 H   0  0  0  0  0  0  0  0  0  0  0  0
   -2.0339   -4.1292   -3.0517 H   0  0  0  0  0  0  0  0  0  0  0  0
   -1.3022   -1.9698   -4.0283 H   0  0  0  0  0  0  0  0  0  0  0  0
   -0.9205   -0.0123   -2.5714 H   0  0  0  0  0  0  0  0  0  0  0  0
   -3.6967    1.1783    3.1389 H   0  0  0  0  0  0  0  0  0  0  0  0
   -6.1041    0.8695    3.2989 H   0  0  0  0  0  0  0  0  0  0  0  0
  1  2  2  0
  2  3  1  0
  2  4  1  0
  4  5  2  0
  5  6  1  0
  6  7  2  0
  7  8  1  0
  8  9  1  0
  9 10  2  0
  9 11  1  0
 11 12  2  3
 12 13  1  0
 13 14  2  0
 14 15  1  0
 15 16  2  0
 16 17  1  0
 17 18  2  0
 18 19  1  0
 19 20  2  0
 20 21  1  0
 21 22  2  0
 21 23  1  0
 20 24  1  0
 24 25  2  0
 16 26  1  0
 11 27  1  0
 27 28  2  0
 28 29  1  0
 29 30  2  0
 30 31  1  0
 31 32  2  0
 32 33  1  0
 33 34  2  0
  7 35  1  0
 35 36  2  0
 36  4  1  0
 28  8  1  0
 34 29  1  0
 26 13  1  0
 25 17  1  0
  3 37  1  0
  5 38  1  0
  6 39  1  0
 12 40  1  0
 14 41  1  0
 15 42  1  0
 18 43  1  0
 19 44  1  0
 24 45  1  0
 25 46  1  0
 27 47  1  0
 30 48  1  0
 31 49  1  0
 32 50  1  0
 33 51  1  0
 34 52  1  0
 35 53  1  0
 36 54  1  0
M  CHG  2  21   1  23  -1
M  END
$$$$
