
     RDKit          3D

 45 48  0  0  0  0  0  0  0  0999 V2000
   -4.3351   -1.0844    2.6238 C   0  0  0  0  0  0  0  0  0  0  0  0
   -3.2851   -0.6645    1.7597 O   0  0  0  0  0  0  0  0  0  0  0  0
   -3.0429   -1.4033    0.6277 C   0  0  0  0  0  0  0  0  0  0  0  0
   -3.7435   -2.5775    0.3085 C   0  0  0  0  0  0  0  0  0  0  0  0
   -3.4271   -3.3104   -0.8368 C   0  0  0  0  0  0  0  0  0  0  0  0
   -2.4043   -2.8850   -1.6729 C   0  0  0  0  0  0  0  0  0  0  0  0
   -1.7041   -1.7182   -1.3673 C   0  0  0  0  0  0  0  0  0  0  0  0
   -2.0072   -0.9468   -0.2221 C   0  0  0  0  0  0  0  0  0  0  0  0
   -1.2347    0.2833    0.0365 C   0  0  0  0  0  0  0  0  0  0  0  0
   -1.8896    1.3633    0.5166 N   0  0  0  0  0  0  0  0  0  0  0  0
   -1.1520    2.4816    0.7178 C   0  0  0  0  0  0  0  0  0  0  0  0
   -1.8712    3.6690    1.2551 C   0  0  0  0  0  0  0  0  0  0  0  0
   -3.2030    3.4808    1.5102 N   0  0  0  0  0  0  0  0  0  0  0  0
   -1.3142    4.7408    1.4578 O   0  0  0  0  0  0  0  0  0  0  0  0
    0.1787    2.5289    0.4331 C   0  0  0  0  0  0  0  0  0  0  0  0
    1.1240    3.5376    0.5217 N   0  0  0  0  0  0  0  0  0  0  0  0
    2.3502    3.0428    0.0559 C   0  0  0  0  0  0  0  0  0  0  0  0
    3.3672    3.7154    0.0165 O   0  0  0  0  0  0  0  0  0  0  0  0
    2.1258    1.6803   -0.3109 N   0  0  0  0  0  0  0  0  0  0  0  0
    3.0746    0.7726   -0.8562 C   0  0  0  0  0  0  0  0  0  0  0  0
    4.3267    1.2324   -1.2952 C   0  0  0  0  0  0  0  0  0  0  0  0
    5.2810    0.3647   -1.8391 C   0  0  0  0  0  0  0  0  0  0  0  0
    5.0059   -0.9919   -1.9597 C   0  0  0  0  0  0  0  0  0  0  0  0
    3.7719   -1.4877   -1.5407 C   0  0  0  0  0  0  0  0  0  0  0  0
    3.4735   -2.9563   -1.6233 C   0  0  0  0  0  0  0  0  0  0  0  0
    2.8283   -0.6056   -0.9804 C   0  0  0  0  0  0  0  0  0  0  0  0
    0.7593    1.3881   -0.0659 C   0  0  0  0  0  0  0  0  0  0  0  0
    0.0788    0.2587   -0.2876 N   0  0  0  0  0  0  0  0  0  0  0  0
   -4.1217   -2.0681    3.0579 H   0  0  0  0  0  0  0  0  0  0  0  0
   -5.3004   -1.0774    2.1045 H   0  0  0  0  0  0  0  0  0  0  0  0
   -4.3986   -0.3654    3.4471 H   0  0  0  0  0  0  0  0  0  0  0  0
   -4.5420   -2.9569    0.9380 H   0  0  0  0  0  0  0  0  0  0  0  0
   -3.9772   -4.2191   -1.0698 H   0  0  0  0  0  0  0  0  0  0  0  0
   -2.1493   -3.4562   -2.5625 H   0  0  0  0  0  0  0  0  0  0  0  0
   -0.9052   -1.4010   -2.0380 H   0  0  0  0  0  0  0  0  0  0  0  0
   -3.6238    2.5709    1.3506 H   0  0  0  0  0  0  0  0  0  0  0  0
   -3.7555    4.2399    1.8814 H   0  0  0  0  0  0  0  0  0  0  0  0
    0.9578    4.4817    0.8504 H   0  0  0  0  0  0  0  0  0  0  0  0
    4.5975    2.2834   -1.2435 H   0  0  0  0  0  0  0  0  0  0  0  0
    6.2397    0.7580   -2.1690 H   0  0  0  0  0  0  0  0  0  0  0  0
    5.7577   -1.6559   -2.3794 H   0  0  0  0  0  0  0  0  0  0  0  0
    4.0339   -3.4248   -2.4397 H   0  0  0  0  0  0  0  0  0  0  0  0
    3.7425   -3.4472   -0.6828 H   0  0  0  0  0  0  0  0  0  0  0  0
    2.4099   -3.1252   -1.8224 H   0  0  0  0  0  0  0  0  0  0  0  0
    1.9030   -1.0454   -0.6246 H   0  0  0  0  0  0  0  0  0  0  0  0
  1  2  1  0
  2  3  1  0
  3  4  2  0
  4  5  1  0
  5  6  2  0
  6  7  1  0
  7  8  2  0
  8  9  1  0
  9 10  2  0
 10 11  1  0
 11 12  1  0
 12 13  1  0
 12 14  2  0
 11 15  2  0
 15 16  1  0
 16 17  1  0
 17 18  2  0
 17 19  1  0
 19 20  1  0
 20 21  2  0
 21 22  1  0
 22 23  2  0
 23 24  1  0
 24 25  1  0
 24 26  2  0
 19 27  1  0
 27 28  2  0
  8  3  1  0
 28  9  1  0
 27 15  1  0
 26 20  1  0
  1 29  1  0
  1 30  1  0
  1 31  1  0
  4 32  1  0
  5 33  1  0
  6 34  1  0
  7 35  1  0
 13 36  1  0
 13 37  1  0
 16 38  1  0
 21 39  1  0
 22 40  1  0
 23 41  1  0
 25 42  1  0
 25 43  1  0
 25 44  1  0
 26 45  1  0
M  END
$$$$
