
     RDKit          3D

 58 61  0  0  0  0  0  0  0  0999 V2000
    7.4381   -1.6949   -0.9357 C   0  0  0  0  0  0  0  0  0  0  0  0
    6.7270   -1.7672    0.2955 O   0  0  0  0  0  0  0  0  0  0  0  0
    5.6020   -0.9977    0.4042 C   0  0  0  0  0  0  0  0  0  0  0  0
    4.9645   -1.0696    1.6481 C   0  0  0  0  0  0  0  0  0  0  0  0
    3.7943   -0.3442    1.8928 C   0  0  0  0  0  0  0  0  0  0  0  0
    3.2304    0.4673    0.8942 C   0  0  0  0  0  0  0  0  0  0  0  0
    1.9830    1.1837    1.1585 C   0  0  0  0  0  0  0  0  0  0  0  0
    0.7565    0.6590    0.7980 C   0  0  0  0  0  0  0  0  0  0  0  0
   -0.3862    1.3913    1.1196 C   0  0  0  0  0  0  0  0  0  0  0  0
   -1.6968    0.7991    0.7655 C   0  0  0  0  0  0  0  0  0  0  0  0
   -2.4948    1.4061    0.0643 O   0  0  0  0  0  0  0  0  0  0  0  0
   -1.9224   -0.4572    1.2888 N   0  0  0  0  0  0  0  0  0  0  0  0
   -3.1598   -1.1766    1.0336 C   0  0  0  0  0  0  0  0  0  0  0  0
   -3.1648   -1.8422   -0.3570 C   0  0  0  0  0  0  0  0  0  0  0  0
   -4.3529   -2.6841   -0.5904 N   0  0  0  0  0  0  0  0  0  0  0  0
   -5.5738   -1.8837   -0.8491 C   0  0  0  0  0  0  0  0  0  0  0  0
   -5.9212   -1.7583   -2.3429 C   0  0  0  0  0  0  0  0  0  0  0  0
   -6.1555   -3.0267   -2.9713 O   0  0  0  0  0  0  0  0  0  0  0  0
   -5.4055   -4.0948   -2.3733 C   0  0  0  0  0  0  0  0  0  0  0  0
   -4.1029   -3.6129   -1.7189 C   0  0  0  0  0  0  0  0  0  0  0  0
   -0.2935    2.6443    1.7673 C   0  0  0  0  0  0  0  0  0  0  0  0
   -1.3975    3.4608    2.1210 C   0  0  0  0  0  0  0  0  0  0  0  0
   -1.2129    4.6802    2.7713 C   0  0  0  0  0  0  0  0  0  0  0  0
    0.0720    5.1008    3.0827 C   0  0  0  0  0  0  0  0  0  0  0  0
    1.1628    4.2989    2.7404 C   0  0  0  0  0  0  0  0  0  0  0  0
    1.0065    3.0806    2.0908 C   0  0  0  0  0  0  0  0  0  0  0  0
    2.1092    2.3653    1.8089 N   0  0  0  0  0  0  0  0  0  0  0  0
    3.8905    0.5414   -0.3456 C   0  0  0  0  0  0  0  0  0  0  0  0
    3.3579    1.2792   -1.3764 O   0  0  0  0  0  0  0  0  0  0  0  0
    3.9651    2.5744   -1.4095 C   0  0  0  0  0  0  0  0  0  0  0  0
    5.0559   -0.1949   -0.5999 C   0  0  0  0  0  0  0  0  0  0  0  0
    8.3334   -2.3171   -0.8371 H   0  0  0  0  0  0  0  0  0  0  0  0
    6.8339   -2.1023   -1.7584 H   0  0  0  0  0  0  0  0  0  0  0  0
    7.7671   -0.6718   -1.1531 H   0  0  0  0  0  0  0  0  0  0  0  0
    5.3725   -1.7151    2.4286 H   0  0  0  0  0  0  0  0  0  0  0  0
    3.3104   -0.4270    2.8678 H   0  0  0  0  0  0  0  0  0  0  0  0
    0.6939   -0.2897    0.2729 H   0  0  0  0  0  0  0  0  0  0  0  0
   -1.2289   -0.8943    1.8805 H   0  0  0  0  0  0  0  0  0  0  0  0
   -3.2527   -1.9364    1.8185 H   0  0  0  0  0  0  0  0  0  0  0  0
   -3.9905   -0.4724    1.1425 H   0  0  0  0  0  0  0  0  0  0  0  0
   -2.2657   -2.4713   -0.4106 H   0  0  0  0  0  0  0  0  0  0  0  0
   -3.0576   -1.0873   -1.1476 H   0  0  0  0  0  0  0  0  0  0  0  0
   -6.4022   -2.4001   -0.3444 H   0  0  0  0  0  0  0  0  0  0  0  0
   -5.5172   -0.8852   -0.4018 H   0  0  0  0  0  0  0  0  0  0  0  0
   -5.1151   -1.2478   -2.8845 H   0  0  0  0  0  0  0  0  0  0  0  0
   -6.8288   -1.1590   -2.4690 H   0  0  0  0  0  0  0  0  0  0  0  0
   -5.1838   -4.8201   -3.1628 H   0  0  0  0  0  0  0  0  0  0  0  0
   -6.0478   -4.5984   -1.6411 H   0  0  0  0  0  0  0  0  0  0  0  0
   -3.4972   -3.1199   -2.4917 H   0  0  0  0  0  0  0  0  0  0  0  0
   -3.5377   -4.4759   -1.3497 H   0  0  0  0  0  0  0  0  0  0  0  0
   -2.4142    3.1526    1.8814 H   0  0  0  0  0  0  0  0  0  0  0  0
   -2.0702    5.2966    3.0282 H   0  0  0  0  0  0  0  0  0  0  0  0
    0.2319    6.0491    3.5894 H   0  0  0  0  0  0  0  0  0  0  0  0
    2.1674    4.6349    2.9894 H   0  0  0  0  0  0  0  0  0  0  0  0
    3.5236    3.1259   -2.2461 H   0  0  0  0  0  0  0  0  0  0  0  0
    5.0446    2.5055   -1.5843 H   0  0  0  0  0  0  0  0  0  0  0  0
    3.7637    3.1358   -0.4911 H   0  0  0  0  0  0  0  0  0  0  0  0
    5.4918   -0.1366   -1.5914 H   0  0  0  0  0  0  0  0  0  0  0  0
  1  2  1  0
  2  3  1  0
  3  4  2  0
  4  5  1  0
  5  6  2  0
  6  7  1  0
  7  8  2  0
  8  9  1  0
  9 10  1  0
 10 11  2  0
 10 12  1  0
 12 13  1  0
 13 14  1  0
 14 15  1  0
 15 16  1  0
 16 17  1  0
 17 18  1  0
 18 19  1  0
 19 20  1  0
  9 21  2  0
 21 22  1  0
 22 23  2  0
 23 24  1  0
 24 25  2  0
 25 26  1  0
 26 27  2  0
  6 28  1  0
 28 29  1  0
 29 30  1  0
 28 31  2  0
 31  3  1  0
 27  7  1  0
 20 15  1  0
 26 21  1  0
  1 32  1  0
  1 33  1  0
  1 34  1  0
  4 35  1  0
  5 36  1  0
  8 37  1  0
 12 38  1  0
 13 39  1  0
 13 40  1  0
 14 41  1  0
 14 42  1  0
 16 43  1  0
 16 44  1  0
 17 45  1  0
 17 46  1  0
 19 47  1  0
 19 48  1  0
 20 49  1  0
 20 50  1  0
 22 51  1  0
 23 52  1  0
 24 53  1  0
 25 54  1  0
 30 55  1  0
 30 56  1  0
 30 57  1  0
 31 58  1  0
M  END
$$$$
