
     RDKit          3D

 41 44  0  0  0  0  0  0  0  0999 V2000
   -0.8155    0.5065    3.8234 O   0  0  0  0  0  0  0  0  0  0  0  0
   -1.3373   -0.2716    3.0422 C   0  0  0  0  0  0  0  0  0  0  0  0
   -2.4025   -1.0134    3.4373 O   0  0  0  0  0  0  0  0  0  0  0  0
   -0.8888   -0.5923    1.6181 C   0  0  0  0  0  0  0  0  0  0  0  0
    0.2534   -1.6160    1.6586 C   0  0  0  0  0  0  0  0  0  0  0  0
    1.5939   -0.9813    1.8630 C   0  0  0  0  0  0  0  0  0  0  0  0
    2.2417   -0.8038    3.0692 C   0  0  0  0  0  0  0  0  0  0  0  0
    3.4279   -0.1635    2.8312 N   0  0  0  0  0  0  0  0  0  0  0  0
    3.5779    0.0750    1.4854 C   0  0  0  0  0  0  0  0  0  0  0  0
    4.6219    0.6982    0.7916 C   0  0  0  0  0  0  0  0  0  0  0  0
    4.5023    0.8092   -0.5965 C   0  0  0  0  0  0  0  0  0  0  0  0
    3.3828    0.3156   -1.2615 C   0  0  0  0  0  0  0  0  0  0  0  0
    2.3483   -0.3050   -0.5518 C   0  0  0  0  0  0  0  0  0  0  0  0
    2.4434   -0.4295    0.8498 C   0  0  0  0  0  0  0  0  0  0  0  0
   -2.0318   -1.1880    0.8467 N   0  0  0  0  0  0  0  0  0  0  0  0
   -3.1701   -0.0866    0.2406 S   0  0  0  0  0  6  0  0  0  0  0  0
   -4.3876   -0.8512    0.0946 O   0  0  0  0  0  0  0  0  0  0  0  0
   -3.0779    1.0986    1.0604 O   0  0  0  0  0  0  0  0  0  0  0  0
   -2.5844    0.2703   -1.3718 C   0  0  0  0  0  0  0  0  0  0  0  0
   -1.6131   -0.5318   -2.0122 C   0  0  0  0  0  0  0  0  0  0  0  0
   -1.1202   -0.2551   -3.3088 C   0  0  0  0  0  0  0  0  0  0  0  0
   -1.5573    0.8381   -4.0748 C   0  0  0  0  0  0  0  0  0  0  0  0
   -2.5434    1.6651   -3.4841 C   0  0  0  0  0  0  0  0  0  0  0  0
   -3.0939    2.7468   -4.0546 N   0  0  0  0  0  0  0  0  0  0  0  0
   -4.1883    3.3489   -2.9617 S   0  0  0  0  0  0  0  0  0  0  0  0
   -4.0129    2.2632   -1.7215 N   0  0  0  0  0  0  0  0  0  0  0  0
   -3.0772    1.3774   -2.0993 C   0  0  0  0  0  0  0  0  0  0  0  0
   -2.6128   -0.6537    4.3264 H   0  0  0  0  0  0  0  0  0  0  0  0
   -0.5698    0.3322    1.1231 H   0  0  0  0  0  0  0  0  0  0  0  0
    0.2843   -2.1807    0.7171 H   0  0  0  0  0  0  0  0  0  0  0  0
    0.0775   -2.3605    2.4466 H   0  0  0  0  0  0  0  0  0  0  0  0
    1.9526   -1.0610    4.0802 H   0  0  0  0  0  0  0  0  0  0  0  0
    4.0968    0.1062    3.5391 H   0  0  0  0  0  0  0  0  0  0  0  0
    5.4946    1.0859    1.3069 H   0  0  0  0  0  0  0  0  0  0  0  0
    5.2960    1.2899   -1.1641 H   0  0  0  0  0  0  0  0  0  0  0  0
    3.3110    0.4137   -2.3418 H   0  0  0  0  0  0  0  0  0  0  0  0
    1.4830   -0.6862   -1.0832 H   0  0  0  0  0  0  0  0  0  0  0  0
   -2.5360   -1.9113    1.3718 H   0  0  0  0  0  0  0  0  0  0  0  0
   -1.2243   -1.4148   -1.5050 H   0  0  0  0  0  0  0  0  0  0  0  0
   -0.3710   -0.9229   -3.7366 H   0  0  0  0  0  0  0  0  0  0  0  0
   -1.1733    1.0392   -5.0681 H   0  0  0  0  0  0  0  0  0  0  0  0
  1  2  2  0
  2  3  1  0
  2  4  1  0
  4  5  1  0
  5  6  1  0
  6  7  2  0
  7  8  1  0
  8  9  1  0
  9 10  2  0
 10 11  1  0
 11 12  2  0
 12 13  1  0
 13 14  2  0
  4 15  1  0
 15 16  1  0
 16 17  2  0
 16 18  2  0
 16 19  1  0
 19 20  2  0
 20 21  1  0
 21 22  2  0
 22 23  1  0
 23 24  2  0
 24 25  1  0
 25 26  1  0
 26 27  2  0
 14  6  1  0
 27 19  1  0
 14  9  1  0
 27 23  1  0
  3 28  1  0
  4 29  1  0
  5 30  1  0
  5 31  1  0
  7 32  1  0
  8 33  1  0
 10 34  1  0
 11 35  1  0
 12 36  1  0
 13 37  1  0
 15 38  1  0
 20 39  1  0
 21 40  1  0
 22 41  1  0
M  END
$$$$
