
     RDKit          3D

 52 54  0  0  0  0  0  0  0  0999 V2000
   -6.7159    2.5223    0.7425 C   0  0  0  0  0  0  0  0  0  0  0  0
   -6.3485    1.0664    0.5033 C   0  0  0  0  0  0  0  0  0  0  0  0
   -4.8328    0.8779    0.4152 C   0  0  0  0  0  0  0  0  0  0  0  0
   -4.4736   -0.5936    0.1787 C   0  0  0  0  0  0  0  0  0  0  0  0
   -2.9601   -0.8838    0.0183 C   0  0  0  0  0  0  0  0  0  0  0  0
   -2.3967   -0.1680   -1.2295 C   0  0  0  0  0  0  0  0  0  0  0  0
   -1.2921   -0.9490   -1.9301 C   0  0  0  0  0  0  0  0  0  0  0  0
   -2.2097   -0.5215    1.3243 C   0  0  0  0  0  0  0  0  0  0  0  0
   -0.8522   -1.0629    1.4142 N   0  0  0  0  0  0  0  0  0  0  0  0
    0.2222   -0.2203    1.1797 C   0  0  0  0  0  0  0  0  0  0  0  0
    0.1579    0.9647    0.8818 O   0  0  0  0  0  0  0  0  0  0  0  0
    1.5054   -0.9574    1.3326 C   0  0  0  0  0  0  0  0  0  0  0  0
    2.6808   -0.3539    1.1036 C   0  0  0  0  0  0  0  0  0  0  0  0
    3.9998   -0.8980    1.1776 C   0  0  0  0  0  0  0  0  0  0  0  0
    4.4742   -1.7711    2.1286 C   0  0  0  0  0  0  0  0  0  0  0  0
    5.7912   -1.9597    1.8402 N   0  0  0  0  0  0  0  0  0  0  0  0
    6.2203   -1.2496    0.7894 N   0  0  0  0  0  0  0  0  0  0  0  0
    5.1293   -0.5975    0.3499 C   0  0  0  0  0  0  0  0  0  0  0  0
    5.2102    0.2794   -0.8205 C   0  0  0  0  0  0  0  0  0  0  0  0
    6.3097    1.1347   -0.9806 C   0  0  0  0  0  0  0  0  0  0  0  0
    6.3958    1.9825   -2.0873 C   0  0  0  0  0  0  0  0  0  0  0  0
    5.3865    1.9781   -3.0483 C   0  0  0  0  0  0  0  0  0  0  0  0
    4.2953    1.1223   -2.9080 C   0  0  0  0  0  0  0  0  0  0  0  0
    4.2086    0.2734   -1.8013 C   0  0  0  0  0  0  0  0  0  0  0  0
    1.1956   -2.5899    1.7585 S   0  0  0  0  0  0  0  0  0  0  0  0
   -0.5480   -2.3610    1.7709 C   0  0  0  0  0  0  0  0  0  0  0  0
   -1.5936   -3.5954    2.1805 S   0  0  0  0  0  0  0  0  0  0  0  0
   -7.8030    2.6341    0.8019 H   0  0  0  0  0  0  0  0  0  0  0  0
   -6.2852    2.8866    1.6806 H   0  0  0  0  0  0  0  0  0  0  0  0
   -6.3531    3.1574   -0.0720 H   0  0  0  0  0  0  0  0  0  0  0  0
   -6.7532    0.4550    1.3183 H   0  0  0  0  0  0  0  0  0  0  0  0
   -6.8211    0.7247   -0.4249 H   0  0  0  0  0  0  0  0  0  0  0  0
   -4.3753    1.2317    1.3457 H   0  0  0  0  0  0  0  0  0  0  0  0
   -4.4392    1.4987   -0.3974 H   0  0  0  0  0  0  0  0  0  0  0  0
   -4.9947   -0.9505   -0.7195 H   0  0  0  0  0  0  0  0  0  0  0  0
   -4.8617   -1.1944    1.0116 H   0  0  0  0  0  0  0  0  0  0  0  0
   -2.8799   -1.9650   -0.1489 H   0  0  0  0  0  0  0  0  0  0  0  0
   -3.1970   -0.0261   -1.9666 H   0  0  0  0  0  0  0  0  0  0  0  0
   -2.0327    0.8326   -0.9701 H   0  0  0  0  0  0  0  0  0  0  0  0
   -0.9642   -0.4098   -2.8249 H   0  0  0  0  0  0  0  0  0  0  0  0
   -0.4177   -1.0961   -1.2954 H   0  0  0  0  0  0  0  0  0  0  0  0
   -1.6526   -1.9331   -2.2467 H   0  0  0  0  0  0  0  0  0  0  0  0
   -2.7730   -0.8977    2.1864 H   0  0  0  0  0  0  0  0  0  0  0  0
   -2.1665    0.5677    1.4389 H   0  0  0  0  0  0  0  0  0  0  0  0
    2.6431    0.6913    0.7906 H   0  0  0  0  0  0  0  0  0  0  0  0
    4.0167   -2.2568    2.9783 H   0  0  0  0  0  0  0  0  0  0  0  0
    6.4613   -2.5449    2.3279 H   0  0  0  0  0  0  0  0  0  0  0  0
    7.1060    1.1409   -0.2389 H   0  0  0  0  0  0  0  0  0  0  0  0
    7.2526    2.6416   -2.1987 H   0  0  0  0  0  0  0  0  0  0  0  0
    5.4549    2.6360   -3.9108 H   0  0  0  0  0  0  0  0  0  0  0  0
    3.5144    1.1100   -3.6639 H   0  0  0  0  0  0  0  0  0  0  0  0
    3.3614   -0.4029   -1.7252 H   0  0  0  0  0  0  0  0  0  0  0  0
  1  2  1  0
  2  3  1  0
  3  4  1  0
  4  5  1  0
  5  6  1  0
  6  7  1  0
  5  8  1  0
  8  9  1  0
  9 10  1  0
 10 11  2  0
 10 12  1  0
 12 13  2  3
 13 14  1  0
 14 15  2  0
 15 16  1  0
 16 17  1  0
 17 18  2  0
 18 19  1  0
 19 20  2  0
 20 21  1  0
 21 22  2  0
 22 23  1  0
 23 24  2  0
 12 25  1  0
 25 26  1  0
 26 27  2  0
 26  9  1  0
 18 14  1  0
 24 19  1  0
  1 28  1  0
  1 29  1  0
  1 30  1  0
  2 31  1  0
  2 32  1  0
  3 33  1  0
  3 34  1  0
  4 35  1  0
  4 36  1  0
  5 37  1  0
  6 38  1  0
  6 39  1  0
  7 40  1  0
  7 41  1  0
  7 42  1  0
  8 43  1  0
  8 44  1  0
 13 45  1  0
 15 46  1  0
 16 47  1  0
 20 48  1  0
 21 49  1  0
 22 50  1  0
 23 51  1  0
 24 52  1  0
M  END
$$$$
