
     RDKit          3D

 45 47  0  0  0  0  0  0  0  0999 V2000
    5.5388    4.6865   -0.7678 C   0  0  0  0  0  0  0  0  0  0  0  0
    4.8959    3.4314   -1.3032 C   0  0  0  0  0  0  0  0  0  0  0  0
    5.1765    3.0078   -2.4184 O   0  0  0  0  0  0  0  0  0  0  0  0
    3.9834    2.8930   -0.4136 N   0  0  0  0  0  0  0  0  0  0  0  0
    3.2073    1.7280   -0.5810 C   0  0  0  0  0  0  0  0  0  0  0  0
    2.3140    1.4021    0.4492 C   0  0  0  0  0  0  0  0  0  0  0  0
    1.5035    0.2663    0.3619 C   0  0  0  0  0  0  0  0  0  0  0  0
    1.5737   -0.5443   -0.7715 C   0  0  0  0  0  0  0  0  0  0  0  0
    0.5653   -2.0063   -0.8839 S   0  0  0  0  0  6  0  0  0  0  0  0
    1.2974   -2.9672   -1.6848 O   0  0  0  0  0  0  0  0  0  0  0  0
    0.1384   -2.3574    0.4540 O   0  0  0  0  0  0  0  0  0  0  0  0
   -0.7441   -1.4923   -1.7736 N   0  0  0  0  0  0  0  0  0  0  0  0
   -0.6326   -1.4752   -3.2332 C   0  0  0  0  0  0  0  0  0  0  0  0
   -2.0171   -0.9360   -3.6049 C   0  0  0  0  0  0  0  0  0  0  0  0
   -2.6008   -0.3303   -2.3768 N   0  0  0  0  0  0  0  0  0  0  0  0
   -1.8367   -0.7067   -1.4024 C   0  0  0  0  0  0  0  0  0  0  0  0
   -2.1502   -0.2306    0.2159 S   0  0  0  0  0  0  0  0  0  0  0  0
   -3.2028   -1.6301    0.6781 C   0  0  0  0  0  0  0  0  0  0  0  0
   -3.4861   -1.6365    2.1595 C   0  0  0  0  0  0  0  0  0  0  0  0
   -2.5933   -2.2604    3.0477 C   0  0  0  0  0  0  0  0  0  0  0  0
   -2.8440   -2.2555    4.4203 C   0  0  0  0  0  0  0  0  0  0  0  0
   -3.9822   -1.6241    4.9062 C   0  0  0  0  0  0  0  0  0  0  0  0
   -4.2216   -1.6182    6.2242 F   0  0  0  0  0  0  0  0  0  0  0  0
   -4.8729   -0.9925    4.0464 C   0  0  0  0  0  0  0  0  0  0  0  0
   -4.6246   -0.9948    2.6728 C   0  0  0  0  0  0  0  0  0  0  0  0
    2.4825   -0.2507   -1.7897 C   0  0  0  0  0  0  0  0  0  0  0  0
    3.2892    0.8888   -1.6951 C   0  0  0  0  0  0  0  0  0  0  0  0
    6.4614    4.8875   -1.3200 H   0  0  0  0  0  0  0  0  0  0  0  0
    4.8521    5.5278   -0.8919 H   0  0  0  0  0  0  0  0  0  0  0  0
    5.7937    4.5695    0.2895 H   0  0  0  0  0  0  0  0  0  0  0  0
    3.8401    3.4015    0.4503 H   0  0  0  0  0  0  0  0  0  0  0  0
    2.2359    2.0248    1.3374 H   0  0  0  0  0  0  0  0  0  0  0  0
    0.8299    0.0265    1.1820 H   0  0  0  0  0  0  0  0  0  0  0  0
    0.1458   -0.7818   -3.5632 H   0  0  0  0  0  0  0  0  0  0  0  0
   -0.4678   -2.4670   -3.6605 H   0  0  0  0  0  0  0  0  0  0  0  0
   -1.9492   -0.1898   -4.4027 H   0  0  0  0  0  0  0  0  0  0  0  0
   -2.6735   -1.7449   -3.9446 H   0  0  0  0  0  0  0  0  0  0  0  0
   -4.1430   -1.5774    0.1172 H   0  0  0  0  0  0  0  0  0  0  0  0
   -2.7224   -2.5744    0.3964 H   0  0  0  0  0  0  0  0  0  0  0  0
   -1.6948   -2.7478    2.6711 H   0  0  0  0  0  0  0  0  0  0  0  0
   -2.1583   -2.7362    5.1102 H   0  0  0  0  0  0  0  0  0  0  0  0
   -5.7504   -0.4987    4.4509 H   0  0  0  0  0  0  0  0  0  0  0  0
   -5.3202   -0.4899    2.0059 H   0  0  0  0  0  0  0  0  0  0  0  0
    2.5816   -0.8995   -2.6569 H   0  0  0  0  0  0  0  0  0  0  0  0
    3.9821    1.0868   -2.5077 H   0  0  0  0  0  0  0  0  0  0  0  0
  1  2  1  0
  2  3  2  0
  2  4  1  0
  4  5  1  0
  5  6  2  0
  6  7  1  0
  7  8  2  0
  8  9  1  0
  9 10  2  0
  9 11  2  0
  9 12  1  0
 12 13  1  0
 13 14  1  0
 14 15  1  0
 15 16  2  0
 16 17  1  0
 17 18  1  0
 18 19  1  0
 19 20  2  0
 20 21  1  0
 21 22  2  0
 22 23  1  0
 22 24  1  0
 24 25  2  0
  8 26  1  0
 26 27  2  0
 27  5  1  0
 16 12  1  0
 25 19  1  0
  1 28  1  0
  1 29  1  0
  1 30  1  0
  4 31  1  0
  6 32  1  0
  7 33  1  0
 13 34  1  0
 13 35  1  0
 14 36  1  0
 14 37  1  0
 18 38  1  0
 18 39  1  0
 20 40  1  0
 21 41  1  0
 24 42  1  0
 25 43  1  0
 26 44  1  0
 27 45  1  0
M  END
$$$$
