
     RDKit          3D

 39 41  0  0  0  0  0  0  0  0999 V2000
   -5.0853    2.7240    0.5834 C   0  0  0  0  0  0  0  0  0  0  0  0
   -4.2759    1.4768    0.3923 C   0  0  0  0  0  0  0  0  0  0  0  0
   -2.9167    1.4831    0.6348 C   0  0  0  0  0  0  0  0  0  0  0  0
   -2.2075    0.2986    0.4336 C   0  0  0  0  0  0  0  0  0  0  0  0
   -0.7441    0.3725    0.6543 C   0  0  0  0  0  0  0  0  0  0  0  0
   -0.3327    0.8247    1.7168 O   0  0  0  0  0  0  0  0  0  0  0  0
    0.0162   -0.0264   -0.4380 N   0  0  0  0  0  0  0  0  0  0  0  0
    1.3762    0.0884   -0.5548 N   0  0  0  0  0  0  0  0  0  0  0  0
    2.0988   -0.0046    0.5156 C   0  0  0  0  0  0  0  0  0  0  0  0
    3.5667    0.1635    0.4673 C   0  0  0  0  0  0  0  0  0  0  0  0
    4.2913    0.0646    1.6607 C   0  0  0  0  0  0  0  0  0  0  0  0
    5.6792    0.2195    1.6507 C   0  0  0  0  0  0  0  0  0  0  0  0
    6.3454    0.4734    0.4504 C   0  0  0  0  0  0  0  0  0  0  0  0
    5.6128    0.5726   -0.7420 C   0  0  0  0  0  0  0  0  0  0  0  0
    6.3146    0.8393   -2.0037 N   0  0  0  0  0  4  0  0  0  0  0  0
    5.6398    0.8894   -3.0414 O   0  0  0  0  0  0  0  0  0  0  0  0
    7.5431    0.9964   -1.9565 O   0  0  0  0  0  1  0  0  0  0  0  0
    4.2211    0.4190   -0.7417 C   0  0  0  0  0  0  0  0  0  0  0  0
   -2.8645   -0.8891    0.0376 C   0  0  0  0  0  0  0  0  0  0  0  0
   -2.2447   -2.1567   -0.1204 C   0  0  0  0  0  0  0  0  0  0  0  0
   -2.9766   -3.2716   -0.5254 C   0  0  0  0  0  0  0  0  0  0  0  0
   -4.3356   -3.1433   -0.7695 C   0  0  0  0  0  0  0  0  0  0  0  0
   -4.9546   -1.9038   -0.5958 C   0  0  0  0  0  0  0  0  0  0  0  0
   -4.2500   -0.7784   -0.1901 C   0  0  0  0  0  0  0  0  0  0  0  0
   -4.9289    0.3704   -0.0283 N   0  0  0  0  0  0  0  0  0  0  0  0
   -4.7250    3.5143   -0.0826 H   0  0  0  0  0  0  0  0  0  0  0  0
   -5.0137    3.0665    1.6204 H   0  0  0  0  0  0  0  0  0  0  0  0
   -6.1408    2.5422    0.3569 H   0  0  0  0  0  0  0  0  0  0  0  0
   -2.4111    2.3859    0.9648 H   0  0  0  0  0  0  0  0  0  0  0  0
   -0.4570   -0.1308   -1.3325 H   0  0  0  0  0  0  0  0  0  0  0  0
    1.6783   -0.2399    1.5075 H   0  0  0  0  0  0  0  0  0  0  0  0
    3.7837   -0.1279    2.6040 H   0  0  0  0  0  0  0  0  0  0  0  0
    6.2413    0.1444    2.5795 H   0  0  0  0  0  0  0  0  0  0  0  0
    7.4275    0.5922    0.4604 H   0  0  0  0  0  0  0  0  0  0  0  0
    3.6468    0.4969   -1.6627 H   0  0  0  0  0  0  0  0  0  0  0  0
   -1.1852   -2.2934    0.0876 H   0  0  0  0  0  0  0  0  0  0  0  0
   -2.4873   -4.2355   -0.6423 H   0  0  0  0  0  0  0  0  0  0  0  0
   -4.9215   -4.0032   -1.0839 H   0  0  0  0  0  0  0  0  0  0  0  0
   -6.0240   -1.8140   -0.7762 H   0  0  0  0  0  0  0  0  0  0  0  0
  1  2  1  0
  2  3  2  0
  3  4  1  0
  4  5  1  0
  5  6  2  0
  5  7  1  0
  7  8  1  0
  8  9  2  3
  9 10  1  0
 10 11  2  0
 11 12  1  0
 12 13  2  0
 13 14  1  0
 14 15  1  0
 15 16  2  0
 15 17  1  0
 14 18  2  0
  4 19  2  0
 19 20  1  0
 20 21  2  0
 21 22  1  0
 22 23  2  0
 23 24  1  0
 24 25  2  0
 25  2  1  0
 18 10  1  0
 24 19  1  0
  1 26  1  0
  1 27  1  0
  1 28  1  0
  3 29  1  0
  7 30  1  0
  9 31  1  0
 11 32  1  0
 12 33  1  0
 13 34  1  0
 18 35  1  0
 20 36  1  0
 21 37  1  0
 22 38  1  0
 23 39  1  0
M  CHG  2  15   1  17  -1
M  END
$$$$
