
     RDKit          3D

 47 49  0  0  0  0  0  0  0  0999 V2000
    6.0772   -2.3006   -0.3549 C   0  0  0  0  0  0  0  0  0  0  0  0
    5.2965   -1.5761    0.7371 C   0  0  0  0  0  0  0  0  0  0  0  0
    3.9228   -2.0752    0.8823 N   0  0  0  0  0  0  0  0  0  0  0  0
    3.2488   -1.4832    2.0575 C   0  0  0  0  0  0  0  0  0  0  0  0
    2.3435   -0.2648    1.7641 C   0  0  0  0  0  0  0  0  0  0  0  0
    1.2827   -0.5790    0.7785 N   0  0  0  0  0  0  0  0  0  0  0  0
    0.1280    0.2083    0.6109 C   0  0  0  0  0  0  0  0  0  0  0  0
   -0.9738   -0.2263   -0.0383 C   0  0  0  0  0  0  0  0  0  0  0  0
   -2.1559    0.5802   -0.3033 C   0  0  0  0  0  0  0  0  0  0  0  0
   -3.2691    0.0277   -0.8224 C   0  0  0  0  0  0  0  0  0  0  0  0
   -4.4862    0.7849   -1.1382 C   0  0  0  0  0  0  0  0  0  0  0  0
   -5.6446    0.1939   -1.5289 C   0  0  0  0  0  0  0  0  0  0  0  0
   -6.7995    0.9640   -1.8565 C   0  0  0  0  0  0  0  0  0  0  0  0
   -7.7312    1.6032   -2.1218 N   0  0  0  0  0  0  0  0  0  0  0  0
   -5.7771   -1.2215   -1.6471 C   0  0  0  0  0  0  0  0  0  0  0  0
   -5.8730   -2.3742   -1.7438 N   0  0  0  0  0  0  0  0  0  0  0  0
   -4.3384    2.2962   -1.0069 C   0  0  0  0  0  0  0  0  0  0  0  0
   -3.4484    2.6860    0.1720 C   0  0  0  0  0  0  0  0  0  0  0  0
   -2.0597    2.0517    0.0317 C   0  0  0  0  0  0  0  0  0  0  0  0
   -1.2460    2.2578    1.3091 C   0  0  0  0  0  0  0  0  0  0  0  0
    0.1401    1.6201    1.1879 C   0  0  0  0  0  0  0  0  0  0  0  0
    1.5975   -1.7401   -0.0908 C   0  0  0  0  0  0  0  0  0  0  0  0
    3.1186   -1.8567   -0.3408 C   0  0  0  0  0  0  0  0  0  0  0  0
    6.0704   -3.3835   -0.1920 H   0  0  0  0  0  0  0  0  0  0  0  0
    7.1204   -1.9677   -0.3507 H   0  0  0  0  0  0  0  0  0  0  0  0
    5.6705   -2.0974   -1.3504 H   0  0  0  0  0  0  0  0  0  0  0  0
    5.3069   -0.4961    0.5443 H   0  0  0  0  0  0  0  0  0  0  0  0
    5.8380   -1.7389    1.6774 H   0  0  0  0  0  0  0  0  0  0  0  0
    2.6221   -2.2720    2.4950 H   0  0  0  0  0  0  0  0  0  0  0  0
    3.9710   -1.2216    2.8409 H   0  0  0  0  0  0  0  0  0  0  0  0
    2.9474    0.5721    1.3939 H   0  0  0  0  0  0  0  0  0  0  0  0
    1.8904    0.0334    2.7160 H   0  0  0  0  0  0  0  0  0  0  0  0
   -1.0068   -1.2506   -0.3993 H   0  0  0  0  0  0  0  0  0  0  0  0
   -3.2682   -1.0442   -1.0182 H   0  0  0  0  0  0  0  0  0  0  0  0
   -5.3050    2.7926   -0.8704 H   0  0  0  0  0  0  0  0  0  0  0  0
   -3.9061    2.6887   -1.9367 H   0  0  0  0  0  0  0  0  0  0  0  0
   -3.3548    3.7778    0.2175 H   0  0  0  0  0  0  0  0  0  0  0  0
   -3.9247    2.3691    1.1098 H   0  0  0  0  0  0  0  0  0  0  0  0
   -1.5358    2.5486   -0.7978 H   0  0  0  0  0  0  0  0  0  0  0  0
   -1.7712    1.8167    2.1675 H   0  0  0  0  0  0  0  0  0  0  0  0
   -1.1358    3.3277    1.5236 H   0  0  0  0  0  0  0  0  0  0  0  0
    0.7752    2.2454    0.5474 H   0  0  0  0  0  0  0  0  0  0  0  0
    0.5808    1.6360    2.1892 H   0  0  0  0  0  0  0  0  0  0  0  0
    1.2108   -2.6560    0.3719 H   0  0  0  0  0  0  0  0  0  0  0  0
    1.1168   -1.6316   -1.0701 H   0  0  0  0  0  0  0  0  0  0  0  0
    3.2968   -2.6890   -1.0312 H   0  0  0  0  0  0  0  0  0  0  0  0
    3.4381   -0.9359   -0.8482 H   0  0  0  0  0  0  0  0  0  0  0  0
  1  2  1  0
  2  3  1  0
  3  4  1  0
  4  5  1  0
  5  6  1  0
  6  7  1  0
  7  8  2  0
  8  9  1  0
  9 10  2  0
 10 11  1  0
 11 12  2  3
 12 13  1  0
 13 14  3  0
 12 15  1  0
 15 16  3  0
 11 17  1  0
 17 18  1  0
 18 19  1  0
 19 20  1  0
 20 21  1  0
  6 22  1  0
 22 23  1  0
 23  3  1  0
 21  7  1  0
 19  9  1  0
  1 24  1  0
  1 25  1  0
  1 26  1  0
  2 27  1  0
  2 28  1  0
  4 29  1  0
  4 30  1  0
  5 31  1  0
  5 32  1  0
  8 33  1  0
 10 34  1  0
 17 35  1  0
 17 36  1  0
 18 37  1  0
 18 38  1  0
 19 39  1  0
 20 40  1  0
 20 41  1  0
 21 42  1  0
 21 43  1  0
 22 44  1  0
 22 45  1  0
 23 46  1  0
 23 47  1  0
M  END
$$$$
