
     RDKit          3D

 42 44  0  0  0  0  0  0  0  0999 V2000
    1.3543    4.1184    1.7995 C   0  0  0  0  0  0  0  0  0  0  0  0
    0.0178    3.9867    0.5822 S   0  0  0  0  0  0  0  0  0  0  0  0
    0.0353    2.2187    0.2932 C   0  0  0  0  0  0  0  0  0  0  0  0
    1.2531    1.6410    0.3224 N   0  0  0  0  0  0  0  0  0  0  0  0
    1.3188    0.3341    0.0250 C   0  0  0  0  0  0  0  0  0  0  0  0
    2.6449   -0.3164    0.0441 C   0  0  0  0  0  0  0  0  0  0  0  0
    3.8158    0.4072    0.3427 C   0  0  0  0  0  0  0  0  0  0  0  0
    5.0724   -0.2064    0.3588 C   0  0  0  0  0  0  0  0  0  0  0  0
    5.1890   -1.5628    0.0736 C   0  0  0  0  0  0  0  0  0  0  0  0
    4.0515   -2.3053   -0.2243 C   0  0  0  0  0  0  0  0  0  0  0  0
    2.7962   -1.6882   -0.2375 C   0  0  0  0  0  0  0  0  0  0  0  0
    0.2521   -0.4206   -0.2979 N   0  0  0  0  0  0  0  0  0  0  0  0
   -0.9644    0.1591   -0.3154 C   0  0  0  0  0  0  0  0  0  0  0  0
   -2.0862   -0.6453   -0.6319 N   0  0  0  0  0  0  0  0  0  0  0  0
   -1.7543   -1.8513   -1.4355 C   0  0  0  0  0  0  0  0  0  0  0  0
   -1.5993   -3.0893   -0.5409 C   0  0  0  0  0  0  0  0  0  0  0  0
   -2.8049   -3.4221    0.1680 O   0  0  0  0  0  0  0  0  0  0  0  0
   -3.6402   -2.2828    0.4299 C   0  0  0  0  0  0  0  0  0  0  0  0
   -2.8505   -0.9752    0.6069 C   0  0  0  0  0  0  0  0  0  0  0  0
   -1.1082    1.5098   -0.0245 C   0  0  0  0  0  0  0  0  0  0  0  0
   -2.4223    2.1556   -0.0870 C   0  0  0  0  0  0  0  0  0  0  0  0
   -3.0187    2.3883   -1.4478 C   0  0  0  0  0  0  0  0  0  0  0  0
   -2.9934    2.4630    0.9553 O   0  0  0  0  0  0  0  0  0  0  0  0
    2.3221    3.9034    1.3374 H   0  0  0  0  0  0  0  0  0  0  0  0
    1.1866    3.4337    2.6365 H   0  0  0  0  0  0  0  0  0  0  0  0
    1.3823    5.1388    2.1910 H   0  0  0  0  0  0  0  0  0  0  0  0
    3.7563    1.4712    0.5674 H   0  0  0  0  0  0  0  0  0  0  0  0
    5.9575    0.3788    0.5919 H   0  0  0  0  0  0  0  0  0  0  0  0
    6.1650   -2.0407    0.0838 H   0  0  0  0  0  0  0  0  0  0  0  0
    4.1368   -3.3660   -0.4472 H   0  0  0  0  0  0  0  0  0  0  0  0
    1.9243   -2.2954   -0.4725 H   0  0  0  0  0  0  0  0  0  0  0  0
   -0.8692   -1.7071   -2.0674 H   0  0  0  0  0  0  0  0  0  0  0  0
   -2.5934   -2.0165   -2.1235 H   0  0  0  0  0  0  0  0  0  0  0  0
   -0.8064   -2.9456    0.2007 H   0  0  0  0  0  0  0  0  0  0  0  0
   -1.3273   -3.9603   -1.1457 H   0  0  0  0  0  0  0  0  0  0  0  0
   -4.2130   -2.5034    1.3368 H   0  0  0  0  0  0  0  0  0  0  0  0
   -4.3561   -2.1920   -0.3959 H   0  0  0  0  0  0  0  0  0  0  0  0
   -2.1687   -1.0968    1.4599 H   0  0  0  0  0  0  0  0  0  0  0  0
   -3.5526   -0.1681    0.8364 H   0  0  0  0  0  0  0  0  0  0  0  0
   -3.2410    3.4527   -1.5618 H   0  0  0  0  0  0  0  0  0  0  0  0
   -2.3268    2.0953   -2.2419 H   0  0  0  0  0  0  0  0  0  0  0  0
   -3.9353    1.8016   -1.5445 H   0  0  0  0  0  0  0  0  0  0  0  0
  1  2  1  0
  2  3  1  0
  3  4  2  0
  4  5  1  0
  5  6  1  0
  6  7  2  0
  7  8  1  0
  8  9  2  0
  9 10  1  0
 10 11  2  0
  5 12  2  0
 12 13  1  0
 13 14  1  0
 14 15  1  0
 15 16  1  0
 16 17  1  0
 17 18  1  0
 18 19  1  0
 13 20  2  0
 20 21  1  0
 21 22  1  0
 21 23  2  0
 20  3  1  0
 11  6  1  0
 19 14  1  0
  1 24  1  0
  1 25  1  0
  1 26  1  0
  7 27  1  0
  8 28  1  0
  9 29  1  0
 10 30  1  0
 11 31  1  0
 15 32  1  0
 15 33  1  0
 16 34  1  0
 16 35  1  0
 18 36  1  0
 18 37  1  0
 19 38  1  0
 19 39  1  0
 22 40  1  0
 22 41  1  0
 22 42  1  0
M  END
$$$$
