
     RDKit          3D

 56 59  0  0  0  0  0  0  0  0999 V2000
    5.4579   -1.7200   -3.4127 C   0  0  0  0  0  0  0  0  0  0  0  0
    5.7910   -1.3717   -2.0751 O   0  0  0  0  0  0  0  0  0  0  0  0
    4.9054   -0.5798   -1.3986 C   0  0  0  0  0  0  0  0  0  0  0  0
    5.2910   -0.2624   -0.0960 C   0  0  0  0  0  0  0  0  0  0  0  0
    4.4742    0.5282    0.7107 C   0  0  0  0  0  0  0  0  0  0  0  0
    3.2543    1.0059    0.2181 C   0  0  0  0  0  0  0  0  0  0  0  0
    2.4374    1.8058    1.1633 C   0  0  0  0  0  0  0  0  0  0  0  0
    2.9360    2.8387    1.6069 O   0  0  0  0  0  0  0  0  0  0  0  0
    1.0295    1.3334    1.5335 C   0  0  0  0  0  0  0  0  0  0  0  0
    0.5649    2.0387    2.8182 C   0  0  0  0  0  0  0  0  0  0  0  0
   -0.7947    1.5261    3.2806 C   0  0  0  0  0  0  0  0  0  0  0  0
   -0.8259   -0.0016    3.3600 C   0  0  0  0  0  0  0  0  0  0  0  0
   -0.3747   -0.6842    2.1362 N   0  0  0  0  0  0  0  0  0  0  0  0
   -1.3485   -0.5863    1.0281 C   0  0  0  0  0  0  0  0  0  0  0  0
   -2.5322   -1.4965    1.2068 C   0  0  0  0  0  0  0  0  0  0  0  0
   -2.6771   -2.5779    2.0635 C   0  0  0  0  0  0  0  0  0  0  0  0
   -3.9769   -3.0878    1.9175 C   0  0  0  0  0  0  0  0  0  0  0  0
   -4.5974   -2.3303    0.9523 C   0  0  0  0  0  0  0  0  0  0  0  0
   -3.7136   -1.3773    0.4644 N   0  0  0  0  0  0  0  0  0  0  0  0
   -3.9782   -0.4608   -0.6170 C   0  0  0  0  0  0  0  0  0  0  0  0
   -5.2613   -0.3633   -1.1581 C   0  0  0  0  0  0  0  0  0  0  0  0
   -5.4920    0.5291   -2.2064 C   0  0  0  0  0  0  0  0  0  0  0  0
   -4.4467    1.2988   -2.6947 C   0  0  0  0  0  0  0  0  0  0  0  0
   -3.2035    1.1431   -2.1129 C   0  0  0  0  0  0  0  0  0  0  0  0
   -2.9498    0.2883   -1.0964 N   0  0  0  0  0  0  0  0  0  0  0  0
    0.9531   -0.1901    1.7322 C   0  0  0  0  0  0  0  0  0  0  0  0
    2.8651    0.7352   -1.1049 C   0  0  0  0  0  0  0  0  0  0  0  0
    1.5930    1.2634   -1.7066 C   0  0  0  0  0  0  0  0  0  0  0  0
    3.6977   -0.0816   -1.8966 C   0  0  0  0  0  0  0  0  0  0  0  0
    5.3935   -0.8299   -4.0469 H   0  0  0  0  0  0  0  0  0  0  0  0
    4.5310   -2.3017   -3.4506 H   0  0  0  0  0  0  0  0  0  0  0  0
    6.2623   -2.3500   -3.8043 H   0  0  0  0  0  0  0  0  0  0  0  0
    6.2352   -0.6353    0.2942 H   0  0  0  0  0  0  0  0  0  0  0  0
    4.7899    0.7677    1.7240 H   0  0  0  0  0  0  0  0  0  0  0  0
    0.3628    1.6443    0.7214 H   0  0  0  0  0  0  0  0  0  0  0  0
    1.3007    1.8790    3.6174 H   0  0  0  0  0  0  0  0  0  0  0  0
    0.5097    3.1227    2.6603 H   0  0  0  0  0  0  0  0  0  0  0  0
   -1.5750    1.8884    2.6013 H   0  0  0  0  0  0  0  0  0  0  0  0
   -1.0246    1.9459    4.2669 H   0  0  0  0  0  0  0  0  0  0  0  0
   -0.1749   -0.3228    4.1838 H   0  0  0  0  0  0  0  0  0  0  0  0
   -1.8317   -0.3280    3.6483 H   0  0  0  0  0  0  0  0  0  0  0  0
   -1.6708    0.4519    0.9130 H   0  0  0  0  0  0  0  0  0  0  0  0
   -0.8609   -0.8942    0.0936 H   0  0  0  0  0  0  0  0  0  0  0  0
   -1.9136   -2.9350    2.7451 H   0  0  0  0  0  0  0  0  0  0  0  0
   -4.4163   -3.9190    2.4540 H   0  0  0  0  0  0  0  0  0  0  0  0
   -5.5964   -2.4357    0.5594 H   0  0  0  0  0  0  0  0  0  0  0  0
   -6.1006   -0.9401   -0.7901 H   0  0  0  0  0  0  0  0  0  0  0  0
   -6.4868    0.6225   -2.6333 H   0  0  0  0  0  0  0  0  0  0  0  0
   -4.5977    2.0024   -3.5056 H   0  0  0  0  0  0  0  0  0  0  0  0
   -2.3497    1.7202   -2.4558 H   0  0  0  0  0  0  0  0  0  0  0  0
    1.2661   -0.7250    0.8287 H   0  0  0  0  0  0  0  0  0  0  0  0
    1.6806   -0.4922    2.4982 H   0  0  0  0  0  0  0  0  0  0  0  0
    1.3886    2.2829   -1.3643 H   0  0  0  0  0  0  0  0  0  0  0  0
    0.7515    0.6143   -1.4502 H   0  0  0  0  0  0  0  0  0  0  0  0
    1.6652    1.3121   -2.7982 H   0  0  0  0  0  0  0  0  0  0  0  0
    3.3837   -0.3086   -2.9114 H   0  0  0  0  0  0  0  0  0  0  0  0
  1  2  1  0
  2  3  1  0
  3  4  2  0
  4  5  1  0
  5  6  2  0
  6  7  1  0
  7  8  2  0
  7  9  1  0
  9 10  1  0
 10 11  1  0
 11 12  1  0
 12 13  1  0
 13 14  1  0
 14 15  1  0
 15 16  2  0
 16 17  1  0
 17 18  2  0
 18 19  1  0
 19 20  1  0
 20 21  2  0
 21 22  1  0
 22 23  2  0
 23 24  1  0
 24 25  2  0
 13 26  1  0
  6 27  1  0
 27 28  1  0
 27 29  2  0
 29  3  1  0
 26  9  1  0
 19 15  1  0
 25 20  1  0
  1 30  1  0
  1 31  1  0
  1 32  1  0
  4 33  1  0
  5 34  1  0
  9 35  1  0
 10 36  1  0
 10 37  1  0
 11 38  1  0
 11 39  1  0
 12 40  1  0
 12 41  1  0
 14 42  1  0
 14 43  1  0
 16 44  1  0
 17 45  1  0
 18 46  1  0
 21 47  1  0
 22 48  1  0
 23 49  1  0
 24 50  1  0
 26 51  1  0
 26 52  1  0
 28 53  1  0
 28 54  1  0
 28 55  1  0
 29 56  1  0
M  END
$$$$
