
     RDKit          3D

 49 50  0  0  0  0  0  0  0  0999 V2000
   -3.7539    1.0278    3.4412 C   0  0  0  0  0  0  0  0  0  0  0  0
   -4.7627    0.8485    2.4543 O   0  0  0  0  0  0  0  0  0  0  0  0
   -4.4444    0.0075    1.4189 C   0  0  0  0  0  0  0  0  0  0  0  0
   -3.1436   -0.2910    1.0023 C   0  0  0  0  0  0  0  0  0  0  0  0
   -2.9270   -1.1414   -0.0962 C   0  0  0  0  0  0  0  0  0  0  0  0
   -1.5681   -1.4573   -0.5454 C   0  0  0  0  0  0  0  0  0  0  0  0
   -0.7432   -2.2083    0.1988 C   0  0  0  0  0  0  0  0  0  0  0  0
    0.6217   -2.5970   -0.2069 C   0  0  0  0  0  0  0  0  0  0  0  0
    1.2627   -3.4333    0.4074 O   0  0  0  0  0  0  0  0  0  0  0  0
    1.0392   -1.9085   -1.2986 O   0  0  0  0  0  0  0  0  0  0  0  0
    2.3581   -2.2510   -1.7355 C   0  0  0  0  0  0  0  0  0  0  0  0
    3.4751   -1.5709   -0.9395 C   0  0  0  0  0  0  0  0  0  0  0  0
    4.5947   -2.0624   -0.8302 O   0  0  0  0  0  0  0  0  0  0  0  0
    3.1192   -0.3414   -0.4133 N   0  0  0  0  0  0  0  0  0  0  0  0
    4.1012    0.5481    0.1844 C   0  0  0  0  0  0  0  0  0  0  0  0
    4.4704    1.7159   -0.7501 C   0  0  0  0  0  0  0  0  0  0  0  0
    5.5296    2.6269   -0.1494 C   0  0  0  0  0  0  0  0  0  0  0  0
    6.8113    1.9771   -0.5994 C   0  0  0  0  0  0  0  0  0  0  0  0
    6.4462    1.4720   -1.9767 C   0  0  0  0  0  0  0  0  0  0  0  0
    5.0341    1.2158   -1.9767 O   0  0  0  0  0  0  0  0  0  0  0  0
   -4.0176   -1.6908   -0.7769 C   0  0  0  0  0  0  0  0  0  0  0  0
   -5.3165   -1.4053   -0.3623 C   0  0  0  0  0  0  0  0  0  0  0  0
   -5.5225   -0.5451    0.7148 C   0  0  0  0  0  0  0  0  0  0  0  0
   -6.8160   -0.3234    1.1055 O   0  0  0  0  0  0  0  0  0  0  0  0
   -7.2863    0.9545    0.6427 C   0  0  0  0  0  0  0  0  0  0  0  0
   -8.5168    0.7604   -0.1496 C   0  0  0  0  0  0  0  0  0  0  0  0
   -9.4784    0.5954   -0.7851 N   0  0  0  0  0  0  0  0  0  0  0  0
   -3.3373    0.0689    3.7706 H   0  0  0  0  0  0  0  0  0  0  0  0
   -2.9667    1.6939    3.0732 H   0  0  0  0  0  0  0  0  0  0  0  0
   -4.2166    1.5029    4.3145 H   0  0  0  0  0  0  0  0  0  0  0  0
   -2.2840    0.1315    1.5090 H   0  0  0  0  0  0  0  0  0  0  0  0
   -1.2877   -1.0792   -1.5235 H   0  0  0  0  0  0  0  0  0  0  0  0
   -1.0562   -2.6247    1.1508 H   0  0  0  0  0  0  0  0  0  0  0  0
    2.4598   -1.9176   -2.7758 H   0  0  0  0  0  0  0  0  0  0  0  0
    2.5050   -3.3376   -1.7233 H   0  0  0  0  0  0  0  0  0  0  0  0
    2.2218    0.0383   -0.6875 H   0  0  0  0  0  0  0  0  0  0  0  0
    4.9907   -0.0315    0.4543 H   0  0  0  0  0  0  0  0  0  0  0  0
    3.6574    0.9373    1.1057 H   0  0  0  0  0  0  0  0  0  0  0  0
    3.5655    2.2801   -1.0006 H   0  0  0  0  0  0  0  0  0  0  0  0
    5.4542    3.6251   -0.6000 H   0  0  0  0  0  0  0  0  0  0  0  0
    5.4542    2.7388    0.9353 H   0  0  0  0  0  0  0  0  0  0  0  0
    7.6703    2.6525   -0.6093 H   0  0  0  0  0  0  0  0  0  0  0  0
    7.0535    1.1342    0.0571 H   0  0  0  0  0  0  0  0  0  0  0  0
    6.6485    2.2310   -2.7405 H   0  0  0  0  0  0  0  0  0  0  0  0
    6.9831    0.5593   -2.2439 H   0  0  0  0  0  0  0  0  0  0  0  0
   -3.8636   -2.3549   -1.6250 H   0  0  0  0  0  0  0  0  0  0  0  0
   -6.1675   -1.8348   -0.8843 H   0  0  0  0  0  0  0  0  0  0  0  0
   -6.5440    1.4940    0.0388 H   0  0  0  0  0  0  0  0  0  0  0  0
   -7.5070    1.5696    1.5245 H   0  0  0  0  0  0  0  0  0  0  0  0
  1  2  1  0
  2  3  1  0
  3  4  2  0
  4  5  1  0
  5  6  1  0
  6  7  2  3
  7  8  1  0
  8  9  2  0
  8 10  1  0
 10 11  1  0
 11 12  1  0
 12 13  2  0
 12 14  1  0
 14 15  1  0
 15 16  1  0
 16 17  1  0
 17 18  1  0
 18 19  1  0
 19 20  1  0
  5 21  2  0
 21 22  1  0
 22 23  2  0
 23 24  1  0
 24 25  1  0
 25 26  1  0
 26 27  3  0
 23  3  1  0
 20 16  1  0
  1 28  1  0
  1 29  1  0
  1 30  1  0
  4 31  1  0
  6 32  1  0
  7 33  1  0
 11 34  1  0
 11 35  1  0
 14 36  1  0
 15 37  1  0
 15 38  1  0
 16 39  1  0
 17 40  1  0
 17 41  1  0
 18 42  1  0
 18 43  1  0
 19 44  1  0
 19 45  1  0
 21 46  1  0
 22 47  1  0
 25 48  1  0
 25 49  1  0
M  END
$$$$
