
     RDKit          3D

 54 57  0  0  0  0  0  0  0  0999 V2000
   -3.5504   -4.6633   -2.6081 C   0  0  0  0  0  0  0  0  0  0  0  0
   -2.7880   -3.5112   -2.9440 O   0  0  0  0  0  0  0  0  0  0  0  0
   -2.9372   -2.4153   -2.1398 C   0  0  0  0  0  0  0  0  0  0  0  0
   -2.1941   -1.2992   -2.5294 C   0  0  0  0  0  0  0  0  0  0  0  0
   -2.2533   -0.1103   -1.7965 C   0  0  0  0  0  0  0  0  0  0  0  0
   -3.0590   -0.0203   -0.6560 C   0  0  0  0  0  0  0  0  0  0  0  0
   -3.1080    1.2233    0.1254 C   0  0  0  0  0  0  0  0  0  0  0  0
   -4.6115    2.0286    0.2772 S   0  0  0  0  0  0  0  0  0  0  0  0
   -3.9432    3.3000    1.2168 C   0  0  0  0  0  0  0  0  0  0  0  0
   -4.6331    4.4089    1.7473 C   0  0  0  0  0  0  0  0  0  0  0  0
   -3.9286    5.3511    2.4988 C   0  0  0  0  0  0  0  0  0  0  0  0
   -2.5689    5.1972    2.7222 C   0  0  0  0  0  0  0  0  0  0  0  0
   -1.8894    4.0961    2.1929 C   0  0  0  0  0  0  0  0  0  0  0  0
   -2.5736    3.1216    1.4188 C   0  0  0  0  0  0  0  0  0  0  0  0
   -2.0958    1.9156    0.7748 C   0  0  0  0  0  0  0  0  0  0  0  0
   -0.7156    1.4380    0.7834 C   0  0  0  0  0  0  0  0  0  0  0  0
   -0.3752    0.2527    1.4443 C   0  0  0  0  0  0  0  0  0  0  0  0
    0.9480   -0.2035    1.4447 C   0  0  0  0  0  0  0  0  0  0  0  0
    1.9404    0.5239    0.7872 C   0  0  0  0  0  0  0  0  0  0  0  0
    3.2646    0.1937    0.7135 O   0  0  0  0  0  0  0  0  0  0  0  0
    3.6429   -1.0942    1.2025 C   0  0  0  0  0  0  0  0  0  0  0  0
    5.1447   -1.3265    0.9416 C   0  0  0  0  0  0  0  0  0  0  0  0
    5.5523   -1.3552   -0.4793 N   0  0  0  0  0  0  0  0  0  0  0  0
    4.9450   -2.4650   -1.2121 C   0  0  0  0  0  0  0  0  0  0  0  0
    7.0110   -1.4224   -0.5832 C   0  0  0  0  0  0  0  0  0  0  0  0
    1.6009    1.7140    0.1391 C   0  0  0  0  0  0  0  0  0  0  0  0
    0.2813    2.1716    0.1334 C   0  0  0  0  0  0  0  0  0  0  0  0
   -3.8005   -1.1443   -0.2667 C   0  0  0  0  0  0  0  0  0  0  0  0
   -3.7417   -2.3339   -1.0038 C   0  0  0  0  0  0  0  0  0  0  0  0
   -3.3313   -5.4371   -3.3501 H   0  0  0  0  0  0  0  0  0  0  0  0
   -3.2634   -5.0534   -1.6260 H   0  0  0  0  0  0  0  0  0  0  0  0
   -4.6243   -4.4538   -2.6527 H   0  0  0  0  0  0  0  0  0  0  0  0
   -1.5619   -1.3536   -3.4123 H   0  0  0  0  0  0  0  0  0  0  0  0
   -1.6646    0.7429   -2.1254 H   0  0  0  0  0  0  0  0  0  0  0  0
   -5.6990    4.5297    1.5756 H   0  0  0  0  0  0  0  0  0  0  0  0
   -4.4526    6.2095    2.9123 H   0  0  0  0  0  0  0  0  0  0  0  0
   -2.0266    5.9327    3.3113 H   0  0  0  0  0  0  0  0  0  0  0  0
   -0.8237    3.9872    2.3818 H   0  0  0  0  0  0  0  0  0  0  0  0
   -1.1370   -0.3258    1.9617 H   0  0  0  0  0  0  0  0  0  0  0  0
    1.1673   -1.1266    1.9697 H   0  0  0  0  0  0  0  0  0  0  0  0
    3.0445   -1.8831    0.7335 H   0  0  0  0  0  0  0  0  0  0  0  0
    3.4828   -1.1266    2.2874 H   0  0  0  0  0  0  0  0  0  0  0  0
    5.4480   -2.2569    1.4389 H   0  0  0  0  0  0  0  0  0  0  0  0
    5.6824   -0.5039    1.4311 H   0  0  0  0  0  0  0  0  0  0  0  0
    3.8577   -2.3550   -1.2691 H   0  0  0  0  0  0  0  0  0  0  0  0
    5.1760   -3.4350   -0.7577 H   0  0  0  0  0  0  0  0  0  0  0  0
    5.2985   -2.4811   -2.2497 H   0  0  0  0  0  0  0  0  0  0  0  0
    7.4151   -2.3369   -0.1341 H   0  0  0  0  0  0  0  0  0  0  0  0
    7.4742   -0.5608   -0.0894 H   0  0  0  0  0  0  0  0  0  0  0  0
    7.3256   -1.3847   -1.6322 H   0  0  0  0  0  0  0  0  0  0  0  0
    2.3722    2.2847   -0.3728 H   0  0  0  0  0  0  0  0  0  0  0  0
    0.0395    3.0955   -0.3863 H   0  0  0  0  0  0  0  0  0  0  0  0
   -4.4285   -1.1052    0.6209 H   0  0  0  0  0  0  0  0  0  0  0  0
   -4.3348   -3.1745   -0.6603 H   0  0  0  0  0  0  0  0  0  0  0  0
  1  2  1  0
  2  3  1  0
  3  4  2  0
  4  5  1  0
  5  6  2  0
  6  7  1  0
  7  8  1  0
  8  9  1  0
  9 10  2  0
 10 11  1  0
 11 12  2  0
 12 13  1  0
 13 14  2  0
 14 15  1  0
 15 16  1  0
 16 17  2  0
 17 18  1  0
 18 19  2  0
 19 20  1  0
 20 21  1  0
 21 22  1  0
 22 23  1  0
 23 24  1  0
 23 25  1  0
 19 26  1  0
 26 27  2  0
  6 28  1  0
 28 29  2  0
 29  3  1  0
 15  7  2  0
 27 16  1  0
 14  9  1  0
  1 30  1  0
  1 31  1  0
  1 32  1  0
  4 33  1  0
  5 34  1  0
 10 35  1  0
 11 36  1  0
 12 37  1  0
 13 38  1  0
 17 39  1  0
 18 40  1  0
 21 41  1  0
 21 42  1  0
 22 43  1  0
 22 44  1  0
 24 45  1  0
 24 46  1  0
 24 47  1  0
 25 48  1  0
 25 49  1  0
 25 50  1  0
 26 51  1  0
 27 52  1  0
 28 53  1  0
 29 54  1  0
M  END
$$$$
