
     RDKit          3D

 46 48  0  0  0  0  0  0  0  0999 V2000
    8.1919   -0.3590   -0.2227 C   0  0  0  0  0  0  0  0  0  0  0  0
    7.2682   -1.3742    0.1491 O   0  0  0  0  0  0  0  0  0  0  0  0
    5.9479   -1.0251    0.1995 C   0  0  0  0  0  0  0  0  0  0  0  0
    5.0853   -2.0565    0.5737 C   0  0  0  0  0  0  0  0  0  0  0  0
    3.7083   -1.8364    0.6654 C   0  0  0  0  0  0  0  0  0  0  0  0
    3.1731   -0.5739    0.3834 C   0  0  0  0  0  0  0  0  0  0  0  0
    1.6936   -0.3873    0.4947 C   0  0  0  0  0  0  0  0  0  0  0  0
    0.9858   -1.3614    0.7536 O   0  0  0  0  0  0  0  0  0  0  0  0
    1.1237    1.0103    0.2686 C   0  0  0  0  0  0  0  0  0  0  0  0
   -0.2953    0.9965    0.5363 N   0  0  0  0  0  0  0  0  0  0  0  0
   -0.8443    1.1845    1.7634 C   0  0  0  0  0  0  0  0  0  0  0  0
   -0.2625    1.4539    2.8006 O   0  0  0  0  0  0  0  0  0  0  0  0
   -2.2067    1.0344    1.6586 N   0  0  0  0  0  0  0  0  0  0  0  0
   -2.6229    0.5939    0.3363 C   0  0  0  0  0  0  0  0  0  0  0  0
   -3.0784   -0.8713    0.4030 C   0  0  0  0  0  0  0  0  0  0  0  0
   -3.9391   -1.3422   -0.7690 C   0  0  0  0  0  0  0  0  0  0  0  0
   -5.4211   -1.0208   -0.5849 C   0  0  0  0  0  0  0  0  0  0  0  0
   -5.7967    0.4438   -0.7784 C   0  0  0  0  0  0  0  0  0  0  0  0
   -5.0481    1.4303    0.1150 C   0  0  0  0  0  0  0  0  0  0  0  0
   -3.5859    1.6053   -0.2924 C   0  0  0  0  0  0  0  0  0  0  0  0
   -1.2542    0.6698   -0.3796 C   0  0  0  0  0  0  0  0  0  0  0  0
   -1.0632    0.4554   -1.5701 O   0  0  0  0  0  0  0  0  0  0  0  0
    4.0378    0.4607    0.0058 C   0  0  0  0  0  0  0  0  0  0  0  0
    5.4189    0.2340   -0.0846 C   0  0  0  0  0  0  0  0  0  0  0  0
    7.9963   -0.0007   -1.2388 H   0  0  0  0  0  0  0  0  0  0  0  0
    8.1818    0.4664    0.4968 H   0  0  0  0  0  0  0  0  0  0  0  0
    9.1940   -0.7983   -0.2116 H   0  0  0  0  0  0  0  0  0  0  0  0
    5.4873   -3.0424    0.7966 H   0  0  0  0  0  0  0  0  0  0  0  0
    3.0589   -2.6593    0.9596 H   0  0  0  0  0  0  0  0  0  0  0  0
    1.2883    1.3009   -0.7734 H   0  0  0  0  0  0  0  0  0  0  0  0
    1.6031    1.7147    0.9551 H   0  0  0  0  0  0  0  0  0  0  0  0
   -2.7864    1.0436    2.4876 H   0  0  0  0  0  0  0  0  0  0  0  0
   -2.1939   -1.5218    0.4542 H   0  0  0  0  0  0  0  0  0  0  0  0
   -3.6217   -1.0533    1.3402 H   0  0  0  0  0  0  0  0  0  0  0  0
   -3.5671   -0.9518   -1.7227 H   0  0  0  0  0  0  0  0  0  0  0  0
   -3.8496   -2.4347   -0.8269 H   0  0  0  0  0  0  0  0  0  0  0  0
   -5.9936   -1.6123   -1.3106 H   0  0  0  0  0  0  0  0  0  0  0  0
   -5.7525   -1.3545    0.4063 H   0  0  0  0  0  0  0  0  0  0  0  0
   -5.6559    0.7193   -1.8311 H   0  0  0  0  0  0  0  0  0  0  0  0
   -6.8710    0.5456   -0.5795 H   0  0  0  0  0  0  0  0  0  0  0  0
   -5.1384    1.1498    1.1705 H   0  0  0  0  0  0  0  0  0  0  0  0
   -5.5430    2.4043    0.0094 H   0  0  0  0  0  0  0  0  0  0  0  0
   -3.2715    2.6192   -0.0068 H   0  0  0  0  0  0  0  0  0  0  0  0
   -3.5083    1.5806   -1.3872 H   0  0  0  0  0  0  0  0  0  0  0  0
    3.6737    1.4564   -0.2291 H   0  0  0  0  0  0  0  0  0  0  0  0
    6.0535    1.0634   -0.3809 H   0  0  0  0  0  0  0  0  0  0  0  0
  1  2  1  0
  2  3  1  0
  3  4  2  0
  4  5  1  0
  5  6  2  0
  6  7  1  0
  7  8  2  0
  7  9  1  0
  9 10  1  0
 10 11  1  0
 11 12  2  0
 11 13  1  0
 13 14  1  0
 14 15  1  0
 15 16  1  0
 16 17  1  0
 17 18  1  0
 18 19  1  0
 19 20  1  0
 14 21  1  0
 21 22  2  0
  6 23  1  0
 23 24  2  0
 24  3  1  0
 21 10  1  0
 20 14  1  0
  1 25  1  0
  1 26  1  0
  1 27  1  0
  4 28  1  0
  5 29  1  0
  9 30  1  0
  9 31  1  0
 13 32  1  0
 15 33  1  0
 15 34  1  0
 16 35  1  0
 16 36  1  0
 17 37  1  0
 17 38  1  0
 18 39  1  0
 18 40  1  0
 19 41  1  0
 19 42  1  0
 20 43  1  0
 20 44  1  0
 23 45  1  0
 24 46  1  0
M  END
$$$$
