
     RDKit          3D

 31 32  0  0  0  0  0  0  0  0999 V2000
    0.4106   -1.7860    1.9310 S   0  0  0  0  0  0  0  0  0  0  0  0
    0.0351   -0.6420    0.7584 C   0  0  0  0  0  0  0  0  0  0  0  0
    0.9642    0.1076    0.0479 N   0  0  0  0  0  0  0  0  0  0  0  0
    2.3502   -0.0673   -0.1827 C   0  0  0  0  0  0  0  0  0  0  0  0
    2.9818   -1.3135   -0.1539 C   0  0  0  0  0  0  0  0  0  0  0  0
    4.3517   -1.4244   -0.4200 C   0  0  0  0  0  0  0  0  0  0  0  0
    5.0957   -0.2909   -0.7362 C   0  0  0  0  0  0  0  0  0  0  0  0
    6.7774   -0.4367   -1.0657 Cl  0  0  0  0  0  0  0  0  0  0  0  0
    4.4838    0.9556   -0.8029 C   0  0  0  0  0  0  0  0  0  0  0  0
    3.1168    1.0616   -0.5367 C   0  0  0  0  0  0  0  0  0  0  0  0
    2.3890    2.6304   -0.6493 Cl  0  0  0  0  0  0  0  0  0  0  0  0
   -1.2913   -0.2510    0.4291 N   0  0  0  0  0  0  0  0  0  0  0  0
   -1.6348    0.0165   -0.9786 C   0  0  0  0  0  0  0  0  0  0  0  0
   -2.7946    0.9971   -1.1096 C   0  0  0  0  0  0  0  0  0  0  0  0
   -4.0056    0.5231   -0.3154 C   0  0  0  0  0  0  0  0  0  0  0  0
   -3.6188    0.2730    1.1367 C   0  0  0  0  0  0  0  0  0  0  0  0
   -2.4357   -0.6863    1.2481 C   0  0  0  0  0  0  0  0  0  0  0  0
    0.6346    1.0507   -0.1360 H   0  0  0  0  0  0  0  0  0  0  0  0
    2.4299   -2.2276    0.0400 H   0  0  0  0  0  0  0  0  0  0  0  0
    4.8251   -2.4030   -0.3865 H   0  0  0  0  0  0  0  0  0  0  0  0
    5.0636    1.8368   -1.0622 H   0  0  0  0  0  0  0  0  0  0  0  0
   -1.9000   -0.9485   -1.4291 H   0  0  0  0  0  0  0  0  0  0  0  0
   -0.7793    0.3935   -1.5452 H   0  0  0  0  0  0  0  0  0  0  0  0
   -3.0651    1.1144   -2.1647 H   0  0  0  0  0  0  0  0  0  0  0  0
   -2.4822    1.9826   -0.7425 H   0  0  0  0  0  0  0  0  0  0  0  0
   -4.4007   -0.3997   -0.7573 H   0  0  0  0  0  0  0  0  0  0  0  0
   -4.8024    1.2732   -0.3659 H   0  0  0  0  0  0  0  0  0  0  0  0
   -4.4760   -0.1295    1.6877 H   0  0  0  0  0  0  0  0  0  0  0  0
   -3.3537    1.2288    1.6062 H   0  0  0  0  0  0  0  0  0  0  0  0
   -2.7219   -1.6917    0.9159 H   0  0  0  0  0  0  0  0  0  0  0  0
   -2.1475   -0.7469    2.3019 H   0  0  0  0  0  0  0  0  0  0  0  0
  1  2  2  0
  2  3  1  0
  3  4  1  0
  4  5  2  0
  5  6  1  0
  6  7  2  0
  7  8  1  0
  7  9  1  0
  9 10  2  0
 10 11  1  0
  2 12  1  0
 12 13  1  0
 13 14  1  0
 14 15  1  0
 15 16  1  0
 16 17  1  0
 10  4  1  0
 17 12  1  0
  3 18  1  0
  5 19  1  0
  6 20  1  0
  9 21  1  0
 13 22  1  0
 13 23  1  0
 14 24  1  0
 14 25  1  0
 15 26  1  0
 15 27  1  0
 16 28  1  0
 16 29  1  0
 17 30  1  0
 17 31  1  0
M  END
$$$$
