
     RDKit          3D

 57 60  0  0  0  0  0  0  0  0999 V2000
   -1.1519    2.5406    0.5557 O   0  0  0  0  0  0  0  0  0  0  0  0
   -1.2824    1.3523    0.2769 C   0  0  0  0  0  0  0  0  0  0  0  0
   -2.2432    0.8209   -0.5576 N   0  0  0  0  0  0  0  0  0  0  0  0
   -3.2673    1.5002   -1.2612 C   0  0  0  0  0  0  0  0  0  0  0  0
   -3.4586    2.8835   -1.1797 C   0  0  0  0  0  0  0  0  0  0  0  0
   -4.4893    3.5110   -1.8904 C   0  0  0  0  0  0  0  0  0  0  0  0
   -5.3420    2.7655   -2.6985 C   0  0  0  0  0  0  0  0  0  0  0  0
   -5.1669    1.3875   -2.7958 C   0  0  0  0  0  0  0  0  0  0  0  0
   -4.1382    0.7608   -2.0836 C   0  0  0  0  0  0  0  0  0  0  0  0
   -3.9745   -0.9528   -2.2632 Cl  0  0  0  0  0  0  0  0  0  0  0  0
   -0.2906    0.3788    0.8483 C   0  0  0  0  0  0  0  0  0  0  0  0
    0.9511    0.9296    1.2222 C   0  0  0  0  0  0  0  0  0  0  0  0
    1.9706    0.1110    1.7061 C   0  0  0  0  0  0  0  0  0  0  0  0
    3.5243    0.8310    2.1987 S   0  0  0  0  0  6  0  0  0  0  0  0
    4.1749   -0.1153    3.0815 O   0  0  0  0  0  0  0  0  0  0  0  0
    3.2556    2.1876    2.6236 O   0  0  0  0  0  0  0  0  0  0  0  0
    4.3970    0.8820    0.7470 N   0  0  0  0  0  0  0  0  0  0  0  0
    4.0388    1.9289   -0.2365 C   0  0  0  0  0  0  0  0  0  0  0  0
    5.0309    1.9096   -1.3941 C   0  0  0  0  0  0  0  0  0  0  0  0
    5.0120    0.5727   -2.1348 C   0  0  0  0  0  0  0  0  0  0  0  0
    4.5144   -0.5756   -1.2587 C   0  0  0  0  0  0  0  0  0  0  0  0
    4.9189   -0.3915    0.1982 C   0  0  0  0  0  0  0  0  0  0  0  0
    1.7529   -1.2534    1.8707 C   0  0  0  0  0  0  0  0  0  0  0  0
    0.5168   -1.8033    1.5199 C   0  0  0  0  0  0  0  0  0  0  0  0
   -0.5298   -1.0132    1.0000 C   0  0  0  0  0  0  0  0  0  0  0  0
   -1.7942   -1.5800    0.7123 N   0  0  0  0  0  0  0  0  0  0  0  0
   -1.8358   -2.9732    0.1862 C   0  0  0  0  0  0  0  0  0  0  0  0
   -2.3633   -3.9656    1.2342 C   0  0  0  0  0  0  0  0  0  0  0  0
   -3.6844   -3.6550    1.7023 O   0  0  0  0  0  0  0  0  0  0  0  0
   -3.9803   -2.2493    1.6885 C   0  0  0  0  0  0  0  0  0  0  0  0
   -2.7343   -1.3677    1.8571 C   0  0  0  0  0  0  0  0  0  0  0  0
   -2.2352   -0.1970   -0.6459 H   0  0  0  0  0  0  0  0  0  0  0  0
   -2.8222    3.5127   -0.5647 H   0  0  0  0  0  0  0  0  0  0  0  0
   -4.6237    4.5867   -1.8026 H   0  0  0  0  0  0  0  0  0  0  0  0
   -6.1403    3.2573   -3.2495 H   0  0  0  0  0  0  0  0  0  0  0  0
   -5.8332    0.8065   -3.4289 H   0  0  0  0  0  0  0  0  0  0  0  0
    1.1190    2.0026    1.1281 H   0  0  0  0  0  0  0  0  0  0  0  0
    4.0815    2.9123    0.2437 H   0  0  0  0  0  0  0  0  0  0  0  0
    3.0241    1.7715   -0.6147 H   0  0  0  0  0  0  0  0  0  0  0  0
    4.8158    2.7243   -2.0953 H   0  0  0  0  0  0  0  0  0  0  0  0
    6.0422    2.0901   -1.0047 H   0  0  0  0  0  0  0  0  0  0  0  0
    4.3742    0.6443   -3.0242 H   0  0  0  0  0  0  0  0  0  0  0  0
    6.0243    0.3558   -2.4982 H   0  0  0  0  0  0  0  0  0  0  0  0
    3.4202   -0.6312   -1.3269 H   0  0  0  0  0  0  0  0  0  0  0  0
    4.8995   -1.5263   -1.6430 H   0  0  0  0  0  0  0  0  0  0  0  0
    4.5635   -1.2517    0.7737 H   0  0  0  0  0  0  0  0  0  0  0  0
    6.0117   -0.3784    0.2913 H   0  0  0  0  0  0  0  0  0  0  0  0
    2.5261   -1.8942    2.2894 H   0  0  0  0  0  0  0  0  0  0  0  0
    0.3766   -2.8657    1.6983 H   0  0  0  0  0  0  0  0  0  0  0  0
   -2.5276   -2.9724   -0.6625 H   0  0  0  0  0  0  0  0  0  0  0  0
   -0.8679   -3.2975   -0.2116 H   0  0  0  0  0  0  0  0  0  0  0  0
   -2.3978   -4.9746    0.8107 H   0  0  0  0  0  0  0  0  0  0  0  0
   -1.7027   -4.0021    2.1072 H   0  0  0  0  0  0  0  0  0  0  0  0
   -4.6905   -2.0575    2.4989 H   0  0  0  0  0  0  0  0  0  0  0  0
   -4.4898   -2.0244    0.7448 H   0  0  0  0  0  0  0  0  0  0  0  0
   -2.2417   -1.6321    2.8022 H   0  0  0  0  0  0  0  0  0  0  0  0
   -3.0373   -0.3168    1.9089 H   0  0  0  0  0  0  0  0  0  0  0  0
  1  2  2  0
  2  3  1  0
  3  4  1  0
  4  5  2  0
  5  6  1  0
  6  7  2  0
  7  8  1  0
  8  9  2  0
  9 10  1  0
  2 11  1  0
 11 12  2  0
 12 13  1  0
 13 14  1  0
 14 15  2  0
 14 16  2  0
 14 17  1  0
 17 18  1  0
 18 19  1  0
 19 20  1  0
 20 21  1  0
 21 22  1  0
 13 23  2  0
 23 24  1  0
 24 25  2  0
 25 26  1  0
 26 27  1  0
 27 28  1  0
 28 29  1  0
 29 30  1  0
 30 31  1  0
  9  4  1  0
 25 11  1  0
 31 26  1  0
 22 17  1  0
  3 32  1  0
  5 33  1  0
  6 34  1  0
  7 35  1  0
  8 36  1  0
 12 37  1  0
 18 38  1  0
 18 39  1  0
 19 40  1  0
 19 41  1  0
 20 42  1  0
 20 43  1  0
 21 44  1  0
 21 45  1  0
 22 46  1  0
 22 47  1  0
 23 48  1  0
 24 49  1  0
 27 50  1  0
 27 51  1  0
 28 52  1  0
 28 53  1  0
 30 54  1  0
 30 55  1  0
 31 56  1  0
 31 57  1  0
M  END
$$$$
