
     RDKit          3D

 52 53  0  0  0  0  0  0  0  0999 V2000
    4.6323    2.7691   -3.0604 C   0  0  0  0  0  0  0  0  0  0  0  0
    4.8738    3.5761   -1.9157 O   0  0  0  0  0  0  0  0  0  0  0  0
    4.5776    3.0287   -0.6959 C   0  0  0  0  0  0  0  0  0  0  0  0
    4.8528    3.8586    0.3920 C   0  0  0  0  0  0  0  0  0  0  0  0
    4.6287    3.4137    1.6941 C   0  0  0  0  0  0  0  0  0  0  0  0
    4.1399    2.1261    1.9173 C   0  0  0  0  0  0  0  0  0  0  0  0
    3.8544    1.2833    0.8423 C   0  0  0  0  0  0  0  0  0  0  0  0
    3.3759   -0.0348    0.9893 N   0  0  0  0  0  0  0  0  0  0  0  0
    3.2117   -0.7553    2.1621 C   0  0  0  0  0  0  0  0  0  0  0  0
    3.4035   -0.3563    3.3076 O   0  0  0  0  0  0  0  0  0  0  0  0
    2.6733   -2.1669    1.9049 C   0  0  0  0  0  0  0  0  0  0  0  0
    1.2194   -2.1312    1.7511 N   0  0  0  0  0  0  0  0  0  0  0  0
    0.4442   -2.0914    2.9830 C   0  0  0  0  0  0  0  0  0  0  0  0
    0.7372   -1.7715    0.4994 C   0  0  0  0  0  0  0  0  0  0  0  0
    1.4839   -1.6615   -0.4744 O   0  0  0  0  0  0  0  0  0  0  0  0
   -0.7105   -1.4668    0.3846 C   0  0  0  0  0  0  0  0  0  0  0  0
   -1.3032   -1.3843   -0.8177 C   0  0  0  0  0  0  0  0  0  0  0  0
   -2.7284   -1.0416   -0.9533 C   0  0  0  0  0  0  0  0  0  0  0  0
   -3.0487    0.0896   -1.7200 C   0  0  0  0  0  0  0  0  0  0  0  0
   -4.3736    0.5033   -1.8764 C   0  0  0  0  0  0  0  0  0  0  0  0
   -4.5358    1.6299   -2.6329 O   0  0  0  0  0  0  0  0  0  0  0  0
   -5.8542    2.1531   -2.7323 C   0  0  0  0  0  0  0  0  0  0  0  0
   -5.3914   -0.2343   -1.2747 C   0  0  0  0  0  0  0  0  0  0  0  0
   -5.0886   -1.3768   -0.5211 C   0  0  0  0  0  0  0  0  0  0  0  0
   -3.7628   -1.7903   -0.3536 C   0  0  0  0  0  0  0  0  0  0  0  0
   -3.3837   -2.9028    0.3556 O   0  0  0  0  0  0  0  0  0  0  0  0
   -4.3949   -3.6375    1.0321 C   0  0  0  0  0  0  0  0  0  0  0  0
    4.0596    1.7498   -0.4672 C   0  0  0  0  0  0  0  0  0  0  0  0
    3.5599    2.5830   -3.1904 H   0  0  0  0  0  0  0  0  0  0  0  0
    4.9879    3.3221   -3.9353 H   0  0  0  0  0  0  0  0  0  0  0  0
    5.1930    1.8303   -3.0127 H   0  0  0  0  0  0  0  0  0  0  0  0
    5.2490    4.8566    0.2242 H   0  0  0  0  0  0  0  0  0  0  0  0
    4.8367    4.0675    2.5377 H   0  0  0  0  0  0  0  0  0  0  0  0
    3.9779    1.8160    2.9451 H   0  0  0  0  0  0  0  0  0  0  0  0
    3.0680   -0.5053    0.1375 H   0  0  0  0  0  0  0  0  0  0  0  0
    2.9443   -2.8201    2.7388 H   0  0  0  0  0  0  0  0  0  0  0  0
    3.1466   -2.5820    1.0089 H   0  0  0  0  0  0  0  0  0  0  0  0
    0.3420   -1.0525    3.3050 H   0  0  0  0  0  0  0  0  0  0  0  0
    0.9468   -2.6702    3.7607 H   0  0  0  0  0  0  0  0  0  0  0  0
   -0.5448   -2.5285    2.8278 H   0  0  0  0  0  0  0  0  0  0  0  0
   -1.2809   -1.2746    1.2812 H   0  0  0  0  0  0  0  0  0  0  0  0
   -0.7488   -1.5386   -1.7394 H   0  0  0  0  0  0  0  0  0  0  0  0
   -2.2577    0.6712   -2.1909 H   0  0  0  0  0  0  0  0  0  0  0  0
   -6.5144    1.4586   -3.2632 H   0  0  0  0  0  0  0  0  0  0  0  0
   -5.8033    3.0772   -3.3171 H   0  0  0  0  0  0  0  0  0  0  0  0
   -6.2551    2.4063   -1.7441 H   0  0  0  0  0  0  0  0  0  0  0  0
   -6.4358    0.0449   -1.3747 H   0  0  0  0  0  0  0  0  0  0  0  0
   -5.9188   -1.9240   -0.0811 H   0  0  0  0  0  0  0  0  0  0  0  0
   -5.1120   -4.0665    0.3223 H   0  0  0  0  0  0  0  0  0  0  0  0
   -3.9101   -4.4669    1.5568 H   0  0  0  0  0  0  0  0  0  0  0  0
   -4.8981   -3.0191    1.7812 H   0  0  0  0  0  0  0  0  0  0  0  0
    3.8354    1.0891   -1.2981 H   0  0  0  0  0  0  0  0  0  0  0  0
  1  2  1  0
  2  3  1  0
  3  4  2  0
  4  5  1  0
  5  6  2  0
  6  7  1  0
  7  8  1  0
  8  9  1  0
  9 10  2  0
  9 11  1  0
 11 12  1  0
 12 13  1  0
 12 14  1  0
 14 15  2  0
 14 16  1  0
 16 17  2  3
 17 18  1  0
 18 19  2  0
 19 20  1  0
 20 21  1  0
 21 22  1  0
 20 23  2  0
 23 24  1  0
 24 25  2  0
 25 26  1  0
 26 27  1  0
  7 28  2  0
 28  3  1  0
 25 18  1  0
  1 29  1  0
  1 30  1  0
  1 31  1  0
  4 32  1  0
  5 33  1  0
  6 34  1  0
  8 35  1  0
 11 36  1  0
 11 37  1  0
 13 38  1  0
 13 39  1  0
 13 40  1  0
 16 41  1  0
 17 42  1  0
 19 43  1  0
 22 44  1  0
 22 45  1  0
 22 46  1  0
 23 47  1  0
 24 48  1  0
 27 49  1  0
 27 50  1  0
 27 51  1  0
 28 52  1  0
M  END
$$$$
