
     RDKit          3D

 50 53  0  0  0  0  0  0  0  0999 V2000
    7.5877    2.0586    0.0790 C   0  0  0  0  0  0  0  0  0  0  0  0
    6.8307    0.9348   -0.3532 O   0  0  0  0  0  0  0  0  0  0  0  0
    5.5172    0.8952    0.0224 C   0  0  0  0  0  0  0  0  0  0  0  0
    4.8179   -0.2319   -0.4110 C   0  0  0  0  0  0  0  0  0  0  0  0
    3.4622   -0.4082   -0.1017 C   0  0  0  0  0  0  0  0  0  0  0  0
    2.7790    0.5545    0.6446 C   0  0  0  0  0  0  0  0  0  0  0  0
    1.3966    0.4355    0.9931 N   0  0  0  0  0  0  0  0  0  0  0  0
    0.8772    1.2985    1.9174 N   0  0  0  0  0  0  0  0  0  0  0  0
   -0.3703    0.8902    2.1289 C   0  0  0  0  0  0  0  0  0  0  0  0
   -0.7272   -0.1749    1.2969 C   0  0  0  0  0  0  0  0  0  0  0  0
    0.4085   -0.4383    0.5508 C   0  0  0  0  0  0  0  0  0  0  0  0
    0.4960   -1.4826   -0.5131 C   0  0  0  0  0  0  0  0  0  0  0  0
   -0.9172   -1.9695   -0.9619 C   0  0  0  0  0  0  0  0  0  0  0  0
   -1.5097   -0.9885   -1.9937 C   0  0  0  0  0  0  0  0  0  0  0  0
   -0.7685   -3.3390   -1.6564 C   0  0  0  0  0  0  0  0  0  0  0  0
   -1.8637   -2.1448    0.2683 C   0  0  0  0  0  0  0  0  0  0  0  0
   -2.0255   -0.8896    1.1599 C   0  0  0  0  0  0  0  0  0  0  0  0
   -2.9876    0.0496    0.6238 N   0  0  0  0  0  0  0  0  0  0  0  0
   -4.3413   -0.1703    0.7180 C   0  0  0  0  0  0  0  0  0  0  0  0
   -4.8175   -1.1385    1.3007 O   0  0  0  0  0  0  0  0  0  0  0  0
   -5.1779    0.8236    0.0690 C   0  0  0  0  0  0  0  0  0  0  0  0
   -6.5908    0.8093   -0.0118 C   0  0  0  0  0  0  0  0  0  0  0  0
   -7.0855    1.8586   -0.6733 N   0  0  0  0  0  0  0  0  0  0  0  0
   -5.9945    2.5573   -1.0166 N   0  0  0  0  0  0  0  0  0  0  0  0
   -4.8269    1.9823   -0.5999 C   0  0  0  0  0  0  0  0  0  0  0  0
    3.4940    1.6803    1.0926 C   0  0  0  0  0  0  0  0  0  0  0  0
    4.8493    1.8517    0.7805 C   0  0  0  0  0  0  0  0  0  0  0  0
    7.1862    2.9886   -0.3370 H   0  0  0  0  0  0  0  0  0  0  0  0
    7.6393    2.1033    1.1719 H   0  0  0  0  0  0  0  0  0  0  0  0
    8.6081    1.9389   -0.2976 H   0  0  0  0  0  0  0  0  0  0  0  0
    5.3384   -0.9917   -0.9904 H   0  0  0  0  0  0  0  0  0  0  0  0
    3.0051   -1.3282   -0.4376 H   0  0  0  0  0  0  0  0  0  0  0  0
   -0.9745    1.4060    2.8649 H   0  0  0  0  0  0  0  0  0  0  0  0
    1.0536   -2.3344   -0.1037 H   0  0  0  0  0  0  0  0  0  0  0  0
    1.0364   -1.1047   -1.3882 H   0  0  0  0  0  0  0  0  0  0  0  0
   -0.9322   -1.0055   -2.9256 H   0  0  0  0  0  0  0  0  0  0  0  0
   -1.5004    0.0459   -1.6400 H   0  0  0  0  0  0  0  0  0  0  0  0
   -2.5432   -1.2541   -2.2422 H   0  0  0  0  0  0  0  0  0  0  0  0
   -0.0906   -3.2760   -2.5152 H   0  0  0  0  0  0  0  0  0  0  0  0
   -1.7357   -3.7052   -2.0186 H   0  0  0  0  0  0  0  0  0  0  0  0
   -0.3642   -4.0912   -0.9697 H   0  0  0  0  0  0  0  0  0  0  0  0
   -2.8449   -2.5080   -0.0627 H   0  0  0  0  0  0  0  0  0  0  0  0
   -1.4430   -2.9414    0.8995 H   0  0  0  0  0  0  0  0  0  0  0  0
   -2.3816   -1.2071    2.1479 H   0  0  0  0  0  0  0  0  0  0  0  0
   -2.6481    0.8266    0.0777 H   0  0  0  0  0  0  0  0  0  0  0  0
   -7.2715    0.0677    0.3894 H   0  0  0  0  0  0  0  0  0  0  0  0
   -6.1214    3.4205   -1.5358 H   0  0  0  0  0  0  0  0  0  0  0  0
   -3.8786    2.4523   -0.8140 H   0  0  0  0  0  0  0  0  0  0  0  0
    3.0047    2.4506    1.6879 H   0  0  0  0  0  0  0  0  0  0  0  0
    5.3459    2.7431    1.1490 H   0  0  0  0  0  0  0  0  0  0  0  0
  1  2  1  0
  2  3  1  0
  3  4  2  0
  4  5  1  0
  5  6  2  0
  6  7  1  0
  7  8  1  0
  8  9  2  0
  9 10  1  0
 10 11  2  0
 11 12  1  0
 12 13  1  0
 13 14  1  0
 13 15  1  0
 13 16  1  0
 16 17  1  0
 17 18  1  0
 18 19  1  0
 19 20  2  0
 19 21  1  0
 21 22  1  0
 22 23  2  0
 23 24  1  0
 24 25  1  0
  6 26  1  0
 26 27  2  0
 27  3  1  0
 11  7  1  0
 25 21  2  0
 17 10  1  0
  1 28  1  0
  1 29  1  0
  1 30  1  0
  4 31  1  0
  5 32  1  0
  9 33  1  0
 12 34  1  0
 12 35  1  0
 14 36  1  0
 14 37  1  0
 14 38  1  0
 15 39  1  0
 15 40  1  0
 15 41  1  0
 16 42  1  0
 16 43  1  0
 17 44  1  0
 18 45  1  0
 22 46  1  0
 24 47  1  0
 25 48  1  0
 26 49  1  0
 27 50  1  0
M  END
$$$$
