
     RDKit          3D

 43 45  0  0  0  0  0  0  0  0999 V2000
    3.7232    1.4392    2.2666 C   0  0  0  0  0  0  0  0  0  0  0  0
    3.7158   -0.0849    2.2129 C   0  0  0  0  0  0  0  0  0  0  0  0
    4.0859   -0.6141    0.8304 C   0  0  0  0  0  0  0  0  0  0  0  0
    2.1508   -0.8029    2.8617 S   0  0  0  0  0  0  0  0  0  0  0  0
    1.0215   -0.5609    1.5039 C   0  0  0  0  0  0  0  0  0  0  0  0
    0.3256   -1.6439    1.0160 C   0  0  0  0  0  0  0  0  0  0  0  0
   -0.5558   -1.4131   -0.0214 C   0  0  0  0  0  0  0  0  0  0  0  0
   -1.2857   -2.4916   -0.5617 N   0  0  0  0  0  0  0  0  0  0  0  0
   -1.9759   -2.1990   -1.8400 C   0  0  0  0  0  0  0  0  0  0  0  0
   -3.4517   -1.8573   -1.5929 C   0  0  0  0  0  0  0  0  0  0  0  0
   -4.1872   -2.9333   -0.9806 O   0  0  0  0  0  0  0  0  0  0  0  0
   -3.3570   -3.8284   -0.2237 C   0  0  0  0  0  0  0  0  0  0  0  0
   -2.1699   -3.1233    0.4514 C   0  0  0  0  0  0  0  0  0  0  0  0
   -0.7140   -0.1791   -0.5245 N   0  0  0  0  0  0  0  0  0  0  0  0
   -0.0114    0.8293    0.0266 C   0  0  0  0  0  0  0  0  0  0  0  0
   -0.2144    2.1870   -0.5204 C   0  0  0  0  0  0  0  0  0  0  0  0
   -0.9936    2.4070   -1.6735 C   0  0  0  0  0  0  0  0  0  0  0  0
   -1.1872    3.6911   -2.1936 C   0  0  0  0  0  0  0  0  0  0  0  0
   -0.6049    4.7901   -1.5700 C   0  0  0  0  0  0  0  0  0  0  0  0
    0.1687    4.6060   -0.4284 C   0  0  0  0  0  0  0  0  0  0  0  0
    0.3598    3.3202    0.0883 C   0  0  0  0  0  0  0  0  0  0  0  0
    0.8572    0.6832    1.0386 N   0  0  0  0  0  0  0  0  0  0  0  0
    4.7307    1.8160    2.0559 H   0  0  0  0  0  0  0  0  0  0  0  0
    3.4400    1.8077    3.2584 H   0  0  0  0  0  0  0  0  0  0  0  0
    3.0571    1.8875    1.5256 H   0  0  0  0  0  0  0  0  0  0  0  0
    4.4861   -0.4334    2.9113 H   0  0  0  0  0  0  0  0  0  0  0  0
    3.4077   -0.2528    0.0508 H   0  0  0  0  0  0  0  0  0  0  0  0
    5.0937   -0.2810    0.5577 H   0  0  0  0  0  0  0  0  0  0  0  0
    4.0884   -1.7093    0.8093 H   0  0  0  0  0  0  0  0  0  0  0  0
    0.4802   -2.6384    1.4120 H   0  0  0  0  0  0  0  0  0  0  0  0
   -1.4815   -1.4165   -2.4272 H   0  0  0  0  0  0  0  0  0  0  0  0
   -1.9203   -3.1089   -2.4511 H   0  0  0  0  0  0  0  0  0  0  0  0
   -3.5472   -0.9789   -0.9448 H   0  0  0  0  0  0  0  0  0  0  0  0
   -3.9487   -1.6235   -2.5396 H   0  0  0  0  0  0  0  0  0  0  0  0
   -3.9916   -4.3027    0.5316 H   0  0  0  0  0  0  0  0  0  0  0  0
   -3.0071   -4.6186   -0.8983 H   0  0  0  0  0  0  0  0  0  0  0  0
   -1.5984   -3.8542    1.0342 H   0  0  0  0  0  0  0  0  0  0  0  0
   -2.5703   -2.3639    1.1369 H   0  0  0  0  0  0  0  0  0  0  0  0
   -1.4602    1.5652   -2.1825 H   0  0  0  0  0  0  0  0  0  0  0  0
   -1.7933    3.8286   -3.0853 H   0  0  0  0  0  0  0  0  0  0  0  0
   -0.7546    5.7885   -1.9722 H   0  0  0  0  0  0  0  0  0  0  0  0
    0.6244    5.4605    0.0652 H   0  0  0  0  0  0  0  0  0  0  0  0
    0.9651    3.2069    0.9864 H   0  0  0  0  0  0  0  0  0  0  0  0
  1  2  1  0
  2  3  1  0
  2  4  1  0
  4  5  1  0
  5  6  2  0
  6  7  1  0
  7  8  1  0
  8  9  1  0
  9 10  1  0
 10 11  1  0
 11 12  1  0
 12 13  1  0
  7 14  2  0
 14 15  1  0
 15 16  1  0
 16 17  2  0
 17 18  1  0
 18 19  2  0
 19 20  1  0
 20 21  2  0
 15 22  2  0
 22  5  1  0
 13  8  1  0
 21 16  1  0
  1 23  1  0
  1 24  1  0
  1 25  1  0
  2 26  1  0
  3 27  1  0
  3 28  1  0
  3 29  1  0
  6 30  1  0
  9 31  1  0
  9 32  1  0
 10 33  1  0
 10 34  1  0
 12 35  1  0
 12 36  1  0
 13 37  1  0
 13 38  1  0
 17 39  1  0
 18 40  1  0
 19 41  1  0
 20 42  1  0
 21 43  1  0
M  END
$$$$
