
     RDKit          3D

 23 25  0  0  0  0  0  0  0  0999 V2000
    1.8735   -0.1278    2.3766 O   0  0  0  0  0  0  0  0  0  0  0  0
    1.3088    0.6834    1.6645 C   0  0  0  0  0  0  0  0  0  0  0  0
    1.8064    1.9178    1.4985 O   0  0  0  0  0  0  0  0  0  0  0  0
   -0.0430    0.5156    1.0230 C   0  0  0  0  0  0  0  0  0  0  0  0
   -0.4954   -0.9483    0.7810 C   0  0  0  0  0  0  0  0  0  0  0  0
   -1.8306   -0.6747    0.0669 C   0  0  0  0  0  0  0  0  0  0  0  0
   -1.1798    0.1252   -1.0535 C   0  0  0  0  0  0  0  0  0  0  0  0
   -0.0861   -0.7925   -1.5995 C   0  0  0  0  0  0  0  0  0  0  0  0
    0.9609    0.0880   -1.9951 O   0  0  0  0  0  0  0  0  0  0  0  0
    0.8873    1.2377   -1.2636 C   0  0  0  0  0  0  0  0  0  0  0  0
    1.6701    2.1649   -1.3681 O   0  0  0  0  0  0  0  0  0  0  0  0
   -0.3031    1.1690   -0.3463 C   0  0  0  0  0  0  0  0  0  0  0  0
    0.2494   -1.6731   -0.3711 C   0  0  0  0  0  0  0  0  0  0  0  0
    1.9673   -1.9741   -0.1227 Cl  0  0  0  0  0  0  0  0  0  0  0  0
    2.6817    1.9062    1.9407 H   0  0  0  0  0  0  0  0  0  0  0  0
   -0.7437    0.9621    1.7454 H   0  0  0  0  0  0  0  0  0  0  0  0
   -0.5838   -1.5444    1.6925 H   0  0  0  0  0  0  0  0  0  0  0  0
   -2.5312   -0.0831    0.6654 H   0  0  0  0  0  0  0  0  0  0  0  0
   -2.3303   -1.5827   -0.2866 H   0  0  0  0  0  0  0  0  0  0  0  0
   -1.8423    0.5412   -1.8157 H   0  0  0  0  0  0  0  0  0  0  0  0
   -0.4170   -1.3926   -2.4527 H   0  0  0  0  0  0  0  0  0  0  0  0
   -0.8019    2.1391   -0.2704 H   0  0  0  0  0  0  0  0  0  0  0  0
   -0.2171   -2.6568   -0.5093 H   0  0  0  0  0  0  0  0  0  0  0  0
  1  2  2  0
  2  3  1  0
  2  4  1  0
  4  5  1  0
  5  6  1  0
  6  7  1  0
  7  8  1  0
  8  9  1  0
  9 10  1  0
 10 11  2  0
 10 12  1  0
  8 13  1  0
 13 14  1  0
 12  4  1  0
 13  5  1  0
 12  7  1  0
  3 15  1  0
  4 16  1  0
  5 17  1  0
  6 18  1  0
  6 19  1  0
  7 20  1  0
  8 21  1  0
 12 22  1  0
 13 23  1  0
M  END
$$$$
