
     RDKit          3D

 77 83  0  0  0  0  0  0  0  0999 V2000
   -6.0186   -2.3402   -2.2159 C   0  0  0  0  0  0  0  0  0  0  0  0
   -5.5975   -2.6347   -0.7716 C   0  0  0  0  0  0  0  0  0  0  0  0
   -5.4774   -4.1561   -0.5970 C   0  0  0  0  0  0  0  0  0  0  0  0
   -6.6167   -2.1074    0.2453 C   0  0  0  0  0  0  0  0  0  0  0  0
   -4.2659   -2.1278   -0.4933 O   0  0  0  0  0  0  0  0  0  0  0  0
   -3.9946   -0.7994   -0.5466 C   0  0  0  0  0  0  0  0  0  0  0  0
   -4.8098    0.0625   -0.8492 O   0  0  0  0  0  0  0  0  0  0  0  0
   -2.6843   -0.5194   -0.2057 N   0  0  0  0  0  0  0  0  0  0  0  0
   -1.6587   -1.5490   -0.0287 C   0  0  0  0  0  0  0  0  0  0  0  0
   -0.6723   -1.1846    1.0927 C   0  0  0  0  0  0  0  0  0  0  0  0
   -0.1894    0.1835    1.0675 N   0  0  0  0  0  0  0  0  0  0  0  0
   -1.1767    1.2433    0.7325 C   0  0  2  0  0  0  0  0  0  0  0  0
   -2.1861    0.8446   -0.3639 C   0  0  0  0  0  0  0  0  0  0  0  0
   -0.2813    2.3490    0.3118 C   0  0  0  0  0  0  0  0  0  0  0  0
    1.0499    1.9303    0.2219 C   0  0  0  0  0  0  0  0  0  0  0  0
    1.8149    2.9911   -0.1924 C   0  0  0  0  0  0  0  0  0  0  0  0
    3.1116    3.0336   -0.4929 O   0  0  0  0  0  0  0  0  0  0  0  0
    0.9560    4.1056   -0.3377 N   0  0  0  0  0  0  0  0  0  0  0  0
    1.3417    5.4291   -0.7514 C   0  0  0  0  0  0  0  0  0  0  0  0
    0.4153    6.2956   -1.3496 C   0  0  0  0  0  0  0  0  0  0  0  0
    0.7948    7.5798   -1.7540 C   0  0  0  0  0  0  0  0  0  0  0  0
    2.1018    8.0185   -1.5635 C   0  0  0  0  0  0  0  0  0  0  0  0
    3.0305    7.1714   -0.9676 C   0  0  0  0  0  0  0  0  0  0  0  0
    2.6554    5.8855   -0.5648 C   0  0  0  0  0  0  0  0  0  0  0  0
   -0.3525    3.6759   -0.0167 C   0  0  0  0  0  0  0  0  0  0  0  0
   -1.4030    4.4920   -0.0084 O   0  0  0  0  0  0  0  0  0  0  0  0
    1.1712    0.4978    0.5743 C   0  0  1  0  0  0  0  0  0  0  0  0
    2.2355    0.1875    1.6600 C   0  0  0  0  0  0  0  0  0  0  0  0
    2.2646    0.5829    2.8176 O   0  0  0  0  0  0  0  0  0  0  0  0
    3.1747   -0.6702    1.0622 N   0  0  0  0  0  0  0  0  0  0  0  0
    4.2543   -1.2915    1.7961 C   0  0  0  0  0  0  0  0  0  0  0  0
    3.9058   -2.6854    2.2668 C   0  0  0  0  0  0  0  0  0  0  0  0
    4.5459   -3.8096    1.7236 C   0  0  0  0  0  0  0  0  0  0  0  0
    4.2099   -5.0949    2.1550 C   0  0  0  0  0  0  0  0  0  0  0  0
    3.2374   -5.2706    3.1373 C   0  0  0  0  0  0  0  0  0  0  0  0
    2.6003   -4.1626    3.6908 C   0  0  0  0  0  0  0  0  0  0  0  0
    2.9319   -2.8773    3.2591 C   0  0  0  0  0  0  0  0  0  0  0  0
    2.8556   -0.9210   -0.2807 C   0  0  0  0  0  0  0  0  0  0  0  0
    3.5456   -1.6971   -1.1952 C   0  0  0  0  0  0  0  0  0  0  0  0
    3.0533   -1.7715   -2.4999 C   0  0  0  0  0  0  0  0  0  0  0  0
    1.8952   -1.0717   -2.8692 C   0  0  0  0  0  0  0  0  0  0  0  0
    1.2056   -0.2940   -1.9369 C   0  0  0  0  0  0  0  0  0  0  0  0
    1.6877   -0.2322   -0.6354 C   0  0  0  0  0  0  0  0  0  0  0  0
   -5.2386   -2.6529   -2.9209 H   0  0  0  0  0  0  0  0  0  0  0  0
   -6.1844   -1.2719   -2.3847 H   0  0  0  0  0  0  0  0  0  0  0  0
   -6.9494   -2.8582   -2.4718 H   0  0  0  0  0  0  0  0  0  0  0  0
   -5.1372   -4.4074    0.4146 H   0  0  0  0  0  0  0  0  0  0  0  0
   -6.4313   -4.6625   -0.7767 H   0  0  0  0  0  0  0  0  0  0  0  0
   -4.7318   -4.5703   -1.2857 H   0  0  0  0  0  0  0  0  0  0  0  0
   -6.2610   -2.2677    1.2692 H   0  0  0  0  0  0  0  0  0  0  0  0
   -6.7843   -1.0314    0.1383 H   0  0  0  0  0  0  0  0  0  0  0  0
   -7.5874   -2.6013    0.1297 H   0  0  0  0  0  0  0  0  0  0  0  0
   -1.1401   -1.6511   -0.9872 H   0  0  0  0  0  0  0  0  0  0  0  0
   -2.1098   -2.5197    0.1978 H   0  0  0  0  0  0  0  0  0  0  0  0
   -1.2018   -1.3129    2.0459 H   0  0  0  0  0  0  0  0  0  0  0  0
    0.1486   -1.9099    1.1199 H   0  0  0  0  0  0  0  0  0  0  0  0
   -1.7170    1.5080    1.6495 H   0  0  0  0  0  0  0  0  0  0  0  0
   -3.0158    1.5615   -0.3654 H   0  0  0  0  0  0  0  0  0  0  0  0
   -1.7340    0.8965   -1.3625 H   0  0  0  0  0  0  0  0  0  0  0  0
    3.4713    2.1322   -0.4245 H   0  0  0  0  0  0  0  0  0  0  0  0
   -0.6074    5.9900   -1.5505 H   0  0  0  0  0  0  0  0  0  0  0  0
    0.0655    8.2347   -2.2237 H   0  0  0  0  0  0  0  0  0  0  0  0
    2.3936    9.0173   -1.8770 H   0  0  0  0  0  0  0  0  0  0  0  0
    4.0503    7.5109   -0.8050 H   0  0  0  0  0  0  0  0  0  0  0  0
    3.4063    5.2751   -0.0726 H   0  0  0  0  0  0  0  0  0  0  0  0
   -2.1706    4.0024    0.3353 H   0  0  0  0  0  0  0  0  0  0  0  0
    4.4922   -0.6810    2.6759 H   0  0  0  0  0  0  0  0  0  0  0  0
    5.1571   -1.2952    1.1736 H   0  0  0  0  0  0  0  0  0  0  0  0
    5.3132   -3.6954    0.9623 H   0  0  0  0  0  0  0  0  0  0  0  0
    4.7093   -5.9610    1.7284 H   0  0  0  0  0  0  0  0  0  0  0  0
    2.9801   -6.2710    3.4774 H   0  0  0  0  0  0  0  0  0  0  0  0
    1.8451   -4.2972    4.4620 H   0  0  0  0  0  0  0  0  0  0  0  0
    2.4276   -2.0218    3.7071 H   0  0  0  0  0  0  0  0  0  0  0  0
    4.4491   -2.2333   -0.9314 H   0  0  0  0  0  0  0  0  0  0  0  0
    3.5777   -2.3702   -3.2421 H   0  0  0  0  0  0  0  0  0  0  0  0
    1.5343   -1.1322   -3.8944 H   0  0  0  0  0  0  0  0  0  0  0  0
    0.3194    0.2552   -2.2376 H   0  0  0  0  0  0  0  0  0  0  0  0
  1  2  1  0
  2  3  1  0
  2  4  1  0
  2  5  1  0
  5  6  1  0
  6  7  2  0
  6  8  1  0
  8  9  1  0
  9 10  1  0
 10 11  1  0
 11 12  1  0
 12 13  1  0
 12 14  1  0
 14 15  1  0
 15 16  2  0
 16 17  1  0
 16 18  1  0
 18 19  1  0
 19 20  2  0
 20 21  1  0
 21 22  2  0
 22 23  1  0
 23 24  2  0
 18 25  1  0
 25 26  1  0
 15 27  1  0
 27 28  1  0
 28 29  2  0
 28 30  1  0
 30 31  1  0
 31 32  1  0
 32 33  2  0
 33 34  1  0
 34 35  2  0
 35 36  1  0
 36 37  2  0
 30 38  1  0
 38 39  2  0
 39 40  1  0
 40 41  2  0
 41 42  1  0
 42 43  2  0
 13  8  1  0
 25 14  2  0
 43 27  1  0
 27 11  1  1
 37 32  1  0
 43 38  1  0
 24 19  1  0
  1 44  1  0
  1 45  1  0
  1 46  1  0
  3 47  1  0
  3 48  1  0
  3 49  1  0
  4 50  1  0
  4 51  1  0
  4 52  1  0
  9 53  1  0
  9 54  1  0
 10 55  1  0
 10 56  1  0
 12 57  1  1
 13 58  1  0
 13 59  1  0
 17 60  1  0
 20 61  1  0
 21 62  1  0
 22 63  1  0
 23 64  1  0
 24 65  1  0
 26 66  1  0
 31 67  1  0
 31 68  1  0
 33 69  1  0
 34 70  1  0
 35 71  1  0
 36 72  1  0
 37 73  1  0
 39 74  1  0
 40 75  1  0
 41 76  1  0
 42 77  1  0
M  END
$$$$
