
     RDKit          3D

 52 54  0  0  0  0  0  0  0  0999 V2000
    4.2148   -1.1810    0.0768 C   0  0  0  0  0  0  0  0  0  0  0  0
    5.0437   -0.4898   -0.9000 N   0  0  0  0  0  0  0  0  0  0  0  0
    5.6065   -1.2956   -1.9874 C   0  0  0  0  0  0  0  0  0  0  0  0
    7.0300   -1.7661   -1.6929 C   0  0  0  0  0  0  0  0  0  0  0  0
    7.5042   -2.6544   -2.7584 C   0  0  0  0  0  0  0  0  0  0  0  0
    7.8648   -3.3748   -3.5935 N   0  0  0  0  0  0  0  0  0  0  0  0
    5.3651    0.8639   -0.8552 C   0  0  0  0  0  0  0  0  0  0  0  0
    6.2427    1.3344   -1.5830 O   0  0  0  0  0  0  0  0  0  0  0  0
    4.6367    1.7537    0.1625 C   0  0  0  0  0  0  0  0  0  0  0  0
    3.2192    1.5906    0.2156 O   0  0  0  0  0  0  0  0  0  0  0  0
    2.5522    2.0885   -0.8528 C   0  0  0  0  0  0  0  0  0  0  0  0
    3.0484    2.6615   -1.8067 O   0  0  0  0  0  0  0  0  0  0  0  0
    1.0906    1.8382   -0.7186 C   0  0  0  0  0  0  0  0  0  0  0  0
    0.2394    2.3174   -1.7475 C   0  0  0  0  0  0  0  0  0  0  0  0
   -1.1459    2.1154   -1.6973 C   0  0  0  0  0  0  0  0  0  0  0  0
   -1.6439    1.4333   -0.6056 C   0  0  0  0  0  0  0  0  0  0  0  0
   -0.8190    0.9630    0.3976 C   0  0  0  0  0  0  0  0  0  0  0  0
    0.5515    1.1456    0.3767 C   0  0  0  0  0  0  0  0  0  0  0  0
   -1.6612    0.2800    1.3751 C   0  0  0  0  0  0  0  0  0  0  0  0
   -1.2199   -0.2958    2.3511 O   0  0  0  0  0  0  0  0  0  0  0  0
   -2.9553    0.4125    0.9448 N   0  0  0  0  0  0  0  0  0  0  0  0
   -4.0900   -0.2098    1.6231 C   0  0  0  0  0  0  0  0  0  0  0  0
   -4.5638   -1.4768    0.8861 C   0  0  0  0  0  0  0  0  0  0  0  0
   -6.0258   -1.8335    1.1687 C   0  0  0  0  0  0  0  0  0  0  0  0
   -6.4671   -1.3784    2.5532 C   0  0  0  0  0  0  0  0  0  0  0  0
   -6.3449    0.1374    2.7237 C   0  0  0  0  0  0  0  0  0  0  0  0
   -5.2489    0.7649    1.8578 C   0  0  0  0  0  0  0  0  0  0  0  0
   -3.0135    1.0523   -0.2662 C   0  0  0  0  0  0  0  0  0  0  0  0
   -3.9672    1.2724   -0.9871 O   0  0  0  0  0  0  0  0  0  0  0  0
    4.1177   -0.6165    1.0052 H   0  0  0  0  0  0  0  0  0  0  0  0
    4.6708   -2.1468    0.3150 H   0  0  0  0  0  0  0  0  0  0  0  0
    3.2263   -1.3440   -0.3614 H   0  0  0  0  0  0  0  0  0  0  0  0
    4.9365   -2.1458   -2.1682 H   0  0  0  0  0  0  0  0  0  0  0  0
    5.6000   -0.6939   -2.9057 H   0  0  0  0  0  0  0  0  0  0  0  0
    7.7053   -0.9092   -1.5939 H   0  0  0  0  0  0  0  0  0  0  0  0
    7.0561   -2.2971   -0.7342 H   0  0  0  0  0  0  0  0  0  0  0  0
    5.0393    1.5257    1.1554 H   0  0  0  0  0  0  0  0  0  0  0  0
    4.8813    2.8040   -0.0393 H   0  0  0  0  0  0  0  0  0  0  0  0
    0.6657    2.8522   -2.5974 H   0  0  0  0  0  0  0  0  0  0  0  0
   -1.8021    2.4764   -2.4834 H   0  0  0  0  0  0  0  0  0  0  0  0
    1.1635    0.7592    1.1852 H   0  0  0  0  0  0  0  0  0  0  0  0
   -3.7301   -0.5246    2.6125 H   0  0  0  0  0  0  0  0  0  0  0  0
   -3.9180   -2.3126    1.1854 H   0  0  0  0  0  0  0  0  0  0  0  0
   -4.4363   -1.3820   -0.1992 H   0  0  0  0  0  0  0  0  0  0  0  0
   -6.1668   -2.9149    1.0617 H   0  0  0  0  0  0  0  0  0  0  0  0
   -6.6665   -1.3592    0.4145 H   0  0  0  0  0  0  0  0  0  0  0  0
   -5.8494   -1.8797    3.3091 H   0  0  0  0  0  0  0  0  0  0  0  0
   -7.5014   -1.6870    2.7431 H   0  0  0  0  0  0  0  0  0  0  0  0
   -6.1541    0.3575    3.7811 H   0  0  0  0  0  0  0  0  0  0  0  0
   -7.3012    0.6165    2.4806 H   0  0  0  0  0  0  0  0  0  0  0  0
   -5.6888    1.0663    0.8993 H   0  0  0  0  0  0  0  0  0  0  0  0
   -4.8909    1.6865    2.3324 H   0  0  0  0  0  0  0  0  0  0  0  0
  1  2  1  0
  2  3  1  0
  3  4  1  0
  4  5  1  0
  5  6  3  0
  2  7  1  0
  7  8  2  0
  7  9  1  0
  9 10  1  0
 10 11  1  0
 11 12  2  0
 11 13  1  0
 13 14  2  0
 14 15  1  0
 15 16  2  0
 16 17  1  0
 17 18  2  0
 17 19  1  0
 19 20  2  0
 19 21  1  0
 21 22  1  0
 22 23  1  0
 23 24  1  0
 24 25  1  0
 25 26  1  0
 26 27  1  0
 21 28  1  0
 28 29  2  0
 18 13  1  0
 27 22  1  0
 28 16  1  0
  1 30  1  0
  1 31  1  0
  1 32  1  0
  3 33  1  0
  3 34  1  0
  4 35  1  0
  4 36  1  0
  9 37  1  0
  9 38  1  0
 14 39  1  0
 15 40  1  0
 18 41  1  0
 22 42  1  0
 23 43  1  0
 23 44  1  0
 24 45  1  0
 24 46  1  0
 25 47  1  0
 25 48  1  0
 26 49  1  0
 26 50  1  0
 27 51  1  0
 27 52  1  0
M  END
$$$$
