
     RDKit          3D

 53 55  0  0  0  0  0  0  0  0999 V2000
    5.9137    2.6777   -2.1641 C   0  0  0  0  0  0  0  0  0  0  0  0
    5.1875    2.5871   -0.8786 C   0  0  0  0  0  0  0  0  0  0  0  0
    5.6653    3.3616    0.1357 O   0  0  0  0  0  0  0  0  0  0  0  0
    4.8568    3.1619    1.2044 C   0  0  0  0  0  0  0  0  0  0  0  0
    3.8693    2.2584    0.8951 C   0  0  0  0  0  0  0  0  0  0  0  0
    4.0920    1.8510   -0.4551 C   0  0  0  0  0  0  0  0  0  0  0  0
    3.3302    0.9403   -1.3012 C   0  0  0  0  0  0  0  0  0  0  0  0
    3.0941    1.2396   -2.4707 O   0  0  0  0  0  0  0  0  0  0  0  0
    2.8644   -0.2555   -0.7429 N   0  0  0  0  0  0  0  0  0  0  0  0
    3.2939   -0.7882    0.5425 C   0  0  0  0  0  0  0  0  0  0  0  0
    1.8802   -1.0406   -1.4920 C   0  0  0  0  0  0  0  0  0  0  0  0
    0.4695   -0.9903   -0.8780 C   0  0  0  0  0  0  0  0  0  0  0  0
   -0.4548   -1.9713   -1.6163 C   0  0  0  0  0  0  0  0  0  0  0  0
   -1.8950   -1.8534   -1.1263 C   0  0  0  0  0  0  0  0  0  0  0  0
   -2.3721   -0.4012   -1.1655 C   0  0  0  0  0  0  0  0  0  0  0  0
   -1.5062    0.5251   -0.4262 N   0  0  0  0  0  0  0  0  0  0  0  0
   -1.5724    0.3941    1.0410 C   0  0  0  0  0  0  0  0  0  0  0  0
   -2.9122    0.8227    1.6804 C   0  0  0  0  0  0  0  0  0  0  0  0
   -3.9590   -0.2563    1.8213 C   0  0  0  0  0  0  0  0  0  0  0  0
   -3.6879   -1.4524    2.5021 C   0  0  0  0  0  0  0  0  0  0  0  0
   -4.6747   -2.4340    2.6372 C   0  0  0  0  0  0  0  0  0  0  0  0
   -5.9478   -2.2281    2.1071 C   0  0  0  0  0  0  0  0  0  0  0  0
   -6.2366   -1.0367    1.4470 C   0  0  0  0  0  0  0  0  0  0  0  0
   -5.2491   -0.0633    1.3145 C   0  0  0  0  0  0  0  0  0  0  0  0
   -5.5595    1.0761    0.6802 F   0  0  0  0  0  0  0  0  0  0  0  0
   -0.1205    0.4335   -0.9269 C   0  0  0  0  0  0  0  0  0  0  0  0
    6.6305    3.5042   -2.1562 H   0  0  0  0  0  0  0  0  0  0  0  0
    6.4636    1.7516   -2.3553 H   0  0  0  0  0  0  0  0  0  0  0  0
    5.2201    2.8486   -2.9926 H   0  0  0  0  0  0  0  0  0  0  0  0
    5.1007    3.7350    2.0879 H   0  0  0  0  0  0  0  0  0  0  0  0
    3.0729    1.9456    1.5546 H   0  0  0  0  0  0  0  0  0  0  0  0
    4.2946   -0.4377    0.8050 H   0  0  0  0  0  0  0  0  0  0  0  0
    2.5780   -0.4830    1.3100 H   0  0  0  0  0  0  0  0  0  0  0  0
    3.3253   -1.8805    0.4943 H   0  0  0  0  0  0  0  0  0  0  0  0
    2.2439   -2.0754   -1.5199 H   0  0  0  0  0  0  0  0  0  0  0  0
    1.8359   -0.7055   -2.5341 H   0  0  0  0  0  0  0  0  0  0  0  0
    0.5366   -1.3112    0.1691 H   0  0  0  0  0  0  0  0  0  0  0  0
   -0.1027   -3.0005   -1.4778 H   0  0  0  0  0  0  0  0  0  0  0  0
   -0.4267   -1.7687   -2.6951 H   0  0  0  0  0  0  0  0  0  0  0  0
   -2.5456   -2.4695   -1.7577 H   0  0  0  0  0  0  0  0  0  0  0  0
   -1.9733   -2.2551   -0.1100 H   0  0  0  0  0  0  0  0  0  0  0  0
   -2.4069   -0.0728   -2.2129 H   0  0  0  0  0  0  0  0  0  0  0  0
   -3.4075   -0.3367   -0.8261 H   0  0  0  0  0  0  0  0  0  0  0  0
   -0.8251    1.0849    1.4556 H   0  0  0  0  0  0  0  0  0  0  0  0
   -1.2739   -0.6042    1.3757 H   0  0  0  0  0  0  0  0  0  0  0  0
   -2.7065    1.1912    2.6952 H   0  0  0  0  0  0  0  0  0  0  0  0
   -3.3125    1.6869    1.1359 H   0  0  0  0  0  0  0  0  0  0  0  0
   -2.7074   -1.6302    2.9364 H   0  0  0  0  0  0  0  0  0  0  0  0
   -4.4510   -3.3594    3.1628 H   0  0  0  0  0  0  0  0  0  0  0  0
   -6.7148   -2.9911    2.2141 H   0  0  0  0  0  0  0  0  0  0  0  0
   -7.2246   -0.8550    1.0354 H   0  0  0  0  0  0  0  0  0  0  0  0
    0.5141    1.1315   -0.3672 H   0  0  0  0  0  0  0  0  0  0  0  0
   -0.1069    0.7990   -1.9628 H   0  0  0  0  0  0  0  0  0  0  0  0
  1  2  1  0
  2  3  1  0
  3  4  1  0
  4  5  2  0
  5  6  1  0
  6  7  1  0
  7  8  2  0
  7  9  1  0
  9 10  1  0
  9 11  1  0
 11 12  1  0
 12 13  1  0
 13 14  1  0
 14 15  1  0
 15 16  1  0
 16 17  1  0
 17 18  1  0
 18 19  1  0
 19 20  2  0
 20 21  1  0
 21 22  2  0
 22 23  1  0
 23 24  2  0
 24 25  1  0
 16 26  1  0
  6  2  2  0
 26 12  1  0
 24 19  1  0
  1 27  1  0
  1 28  1  0
  1 29  1  0
  4 30  1  0
  5 31  1  0
 10 32  1  0
 10 33  1  0
 10 34  1  0
 11 35  1  0
 11 36  1  0
 12 37  1  0
 13 38  1  0
 13 39  1  0
 14 40  1  0
 14 41  1  0
 15 42  1  0
 15 43  1  0
 17 44  1  0
 17 45  1  0
 18 46  1  0
 18 47  1  0
 20 48  1  0
 21 49  1  0
 22 50  1  0
 23 51  1  0
 26 52  1  0
 26 53  1  0
M  END
$$$$
