
     RDKit          3D

 49 52  0  0  0  0  0  0  0  0999 V2000
   -1.4815    5.5031    0.9705 C   0  0  0  0  0  0  0  0  0  0  0  0
   -1.1741    4.0386    1.0715 C   0  0  0  0  0  0  0  0  0  0  0  0
   -0.9068    3.4528    2.3129 C   0  0  0  0  0  0  0  0  0  0  0  0
   -0.6484    2.0829    2.4099 C   0  0  0  0  0  0  0  0  0  0  0  0
   -0.6562    1.2678    1.2667 C   0  0  0  0  0  0  0  0  0  0  0  0
   -0.3986   -0.2248    1.4096 C   0  0  0  0  0  0  0  0  0  0  0  0
   -1.7150   -1.0006    1.4859 C   0  0  0  0  0  0  0  0  0  0  0  0
   -1.6687   -1.7459    0.1810 C   0  0  0  0  0  0  0  0  0  0  0  0
   -2.8165   -2.5511   -0.2990 C   0  0  0  0  0  0  0  0  0  0  0  0
   -3.9803   -2.6955    0.4647 C   0  0  0  0  0  0  0  0  0  0  0  0
   -5.0440   -3.4621   -0.0192 C   0  0  0  0  0  0  0  0  0  0  0  0
   -4.9497   -4.0861   -1.2626 C   0  0  0  0  0  0  0  0  0  0  0  0
   -3.7923   -3.9469   -2.0262 C   0  0  0  0  0  0  0  0  0  0  0  0
   -2.7276   -3.1819   -1.5464 C   0  0  0  0  0  0  0  0  0  0  0  0
   -0.5470   -1.6531   -0.4667 N   0  0  0  0  0  0  0  0  0  0  0  0
    0.2657   -0.8184    0.2466 N   0  0  0  0  0  0  0  0  0  0  0  0
    1.6145   -0.6852   -0.0804 C   0  0  0  0  0  0  0  0  0  0  0  0
    2.1565   -1.3712   -1.1842 C   0  0  0  0  0  0  0  0  0  0  0  0
    3.5046   -1.2580   -1.5415 C   0  0  0  0  0  0  0  0  0  0  0  0
    4.3416   -0.4336   -0.7945 C   0  0  0  0  0  0  0  0  0  0  0  0
    6.0512   -0.3022   -1.2171 S   0  0  0  0  0  6  0  0  0  0  0  0
    6.0458    0.9801   -2.3006 N   0  0  0  0  0  0  0  0  0  0  0  0
    6.7943    0.1570   -0.0664 O   0  0  0  0  0  0  0  0  0  0  0  0
    6.4483   -1.4630   -1.9795 O   0  0  0  0  0  0  0  0  0  0  0  0
    3.8450    0.2541    0.3111 C   0  0  0  0  0  0  0  0  0  0  0  0
    2.4931    0.1277    0.6559 C   0  0  0  0  0  0  0  0  0  0  0  0
   -0.9481    1.8589    0.0281 C   0  0  0  0  0  0  0  0  0  0  0  0
   -1.2056    3.2285   -0.0679 C   0  0  0  0  0  0  0  0  0  0  0  0
   -0.9531    6.0676    1.7460 H   0  0  0  0  0  0  0  0  0  0  0  0
   -2.5573    5.6682    1.0837 H   0  0  0  0  0  0  0  0  0  0  0  0
   -1.1612    5.9036    0.0029 H   0  0  0  0  0  0  0  0  0  0  0  0
   -0.8967    4.0614    3.2145 H   0  0  0  0  0  0  0  0  0  0  0  0
   -0.4406    1.6574    3.3894 H   0  0  0  0  0  0  0  0  0  0  0  0
    0.1856   -0.4161    2.3190 H   0  0  0  0  0  0  0  0  0  0  0  0
   -2.6040   -0.3691    1.5660 H   0  0  0  0  0  0  0  0  0  0  0  0
   -1.6960   -1.7255    2.3068 H   0  0  0  0  0  0  0  0  0  0  0  0
   -4.0837   -2.2257    1.4378 H   0  0  0  0  0  0  0  0  0  0  0  0
   -5.9479   -3.5739    0.5748 H   0  0  0  0  0  0  0  0  0  0  0  0
   -5.7784   -4.6824   -1.6368 H   0  0  0  0  0  0  0  0  0  0  0  0
   -3.7160   -4.4334   -2.9955 H   0  0  0  0  0  0  0  0  0  0  0  0
   -1.8291   -3.0810   -2.1520 H   0  0  0  0  0  0  0  0  0  0  0  0
    1.5136   -2.0148   -1.7819 H   0  0  0  0  0  0  0  0  0  0  0  0
    3.8809   -1.8132   -2.3969 H   0  0  0  0  0  0  0  0  0  0  0  0
    6.5938    1.7539   -1.9252 H   0  0  0  0  0  0  0  0  0  0  0  0
    6.3528    0.6590   -3.2187 H   0  0  0  0  0  0  0  0  0  0  0  0
    4.4931    0.8913    0.9082 H   0  0  0  0  0  0  0  0  0  0  0  0
    2.1414    0.6900    1.5158 H   0  0  0  0  0  0  0  0  0  0  0  0
   -0.9699    1.2533   -0.8771 H   0  0  0  0  0  0  0  0  0  0  0  0
   -1.4275    3.6573   -1.0427 H   0  0  0  0  0  0  0  0  0  0  0  0
  1  2  1  0
  2  3  2  0
  3  4  1  0
  4  5  2  0
  5  6  1  0
  6  7  1  0
  7  8  1  0
  8  9  1  0
  9 10  2  0
 10 11  1  0
 11 12  2  0
 12 13  1  0
 13 14  2  0
  8 15  2  0
 15 16  1  0
 16 17  1  0
 17 18  2  0
 18 19  1  0
 19 20  2  0
 20 21  1  0
 21 22  1  0
 21 23  2  0
 21 24  2  0
 20 25  1  0
 25 26  2  0
  5 27  1  0
 27 28  2  0
 28  2  1  0
 16  6  1  0
 26 17  1  0
 14  9  1  0
  1 29  1  0
  1 30  1  0
  1 31  1  0
  3 32  1  0
  4 33  1  0
  6 34  1  0
  7 35  1  0
  7 36  1  0
 10 37  1  0
 11 38  1  0
 12 39  1  0
 13 40  1  0
 14 41  1  0
 18 42  1  0
 19 43  1  0
 22 44  1  0
 22 45  1  0
 25 46  1  0
 26 47  1  0
 27 48  1  0
 28 49  1  0
M  END
$$$$
