
     RDKit          3D

 44 46  0  0  0  0  0  0  0  0999 V2000
    7.4477   -1.6940   -2.4032 C   0  0  0  0  0  0  0  0  0  0  0  0
    6.7567   -1.6755   -1.1604 O   0  0  0  0  0  0  0  0  0  0  0  0
    5.5475   -1.0382   -1.1376 C   0  0  0  0  0  0  0  0  0  0  0  0
    4.9331   -0.4006   -2.2136 C   0  0  0  0  0  0  0  0  0  0  0  0
    3.6847    0.2183   -2.0534 C   0  0  0  0  0  0  0  0  0  0  0  0
    3.0382    0.2072   -0.8176 C   0  0  0  0  0  0  0  0  0  0  0  0
    1.7873    0.8032   -0.5756 N   0  0  0  0  0  0  0  0  0  0  0  0
    0.9857    1.5000   -1.4599 C   0  0  0  0  0  0  0  0  0  0  0  0
    1.2470    1.7567   -2.6328 O   0  0  0  0  0  0  0  0  0  0  0  0
   -0.3121    2.0105   -0.8218 C   0  0  0  0  0  0  0  0  0  0  0  0
   -1.0891    0.9930   -0.2032 O   0  0  0  0  0  0  0  0  0  0  0  0
   -1.0589    1.0007    1.1542 C   0  0  0  0  0  0  0  0  0  0  0  0
    0.1182    1.2415    1.7402 N   0  0  0  0  0  0  0  0  0  0  0  0
   -0.1886    1.0326    3.3688 S   0  0  0  0  0  0  0  0  0  0  0  0
   -1.7891    0.5859    3.3202 N   0  0  0  0  0  0  0  0  0  0  0  0
   -2.1626    0.6180    2.0328 C   0  0  0  0  0  0  0  0  0  0  0  0
   -3.4287    0.2763    1.6171 N   0  0  0  0  0  0  0  0  0  0  0  0
   -4.0720    0.8997    0.4663 C   0  0  0  0  0  0  0  0  0  0  0  0
   -4.7999   -0.1725   -0.3457 C   0  0  0  0  0  0  0  0  0  0  0  0
   -5.5449   -1.1854    0.5298 C   0  0  0  0  0  0  0  0  0  0  0  0
   -5.6933   -0.6958    1.9656 C   0  0  0  0  0  0  0  0  0  0  0  0
   -4.3333   -0.3600    2.5864 C   0  0  0  0  0  0  0  0  0  0  0  0
    3.6575   -0.4350    0.2594 C   0  0  0  0  0  0  0  0  0  0  0  0
    4.9020   -1.0514    0.0988 C   0  0  0  0  0  0  0  0  0  0  0  0
    7.6991   -0.6797   -2.7305 H   0  0  0  0  0  0  0  0  0  0  0  0
    8.3857   -2.2380   -2.2559 H   0  0  0  0  0  0  0  0  0  0  0  0
    6.8713   -2.2256   -3.1677 H   0  0  0  0  0  0  0  0  0  0  0  0
    5.3920   -0.3621   -3.1959 H   0  0  0  0  0  0  0  0  0  0  0  0
    3.2447    0.7002   -2.9209 H   0  0  0  0  0  0  0  0  0  0  0  0
    1.4232    0.7207    0.3721 H   0  0  0  0  0  0  0  0  0  0  0  0
   -0.9287    2.4099   -1.6363 H   0  0  0  0  0  0  0  0  0  0  0  0
   -0.0890    2.8624   -0.1660 H   0  0  0  0  0  0  0  0  0  0  0  0
   -4.7885    1.6525    0.8206 H   0  0  0  0  0  0  0  0  0  0  0  0
   -3.3889    1.4410   -0.1920 H   0  0  0  0  0  0  0  0  0  0  0  0
   -5.5030    0.3163   -1.0304 H   0  0  0  0  0  0  0  0  0  0  0  0
   -4.0818   -0.7128   -0.9751 H   0  0  0  0  0  0  0  0  0  0  0  0
   -4.9931   -2.1339    0.5304 H   0  0  0  0  0  0  0  0  0  0  0  0
   -6.5288   -1.3992    0.0975 H   0  0  0  0  0  0  0  0  0  0  0  0
   -6.2018   -1.4507    2.5758 H   0  0  0  0  0  0  0  0  0  0  0  0
   -6.3332    0.1958    1.9777 H   0  0  0  0  0  0  0  0  0  0  0  0
   -4.4931    0.2901    3.4555 H   0  0  0  0  0  0  0  0  0  0  0  0
   -3.8742   -1.2906    2.9439 H   0  0  0  0  0  0  0  0  0  0  0  0
    3.1837   -0.4663    1.2370 H   0  0  0  0  0  0  0  0  0  0  0  0
    5.3711   -1.5466    0.9454 H   0  0  0  0  0  0  0  0  0  0  0  0
  1  2  1  0
  2  3  1  0
  3  4  2  0
  4  5  1  0
  5  6  2  0
  6  7  1  0
  7  8  1  0
  8  9  2  0
  8 10  1  0
 10 11  1  0
 11 12  1  0
 12 13  2  0
 13 14  1  0
 14 15  1  0
 15 16  2  0
 16 17  1  0
 17 18  1  0
 18 19  1  0
 19 20  1  0
 20 21  1  0
 21 22  1  0
  6 23  1  0
 23 24  2  0
 24  3  1  0
 16 12  1  0
 22 17  1  0
  1 25  1  0
  1 26  1  0
  1 27  1  0
  4 28  1  0
  5 29  1  0
  7 30  1  0
 10 31  1  0
 10 32  1  0
 18 33  1  0
 18 34  1  0
 19 35  1  0
 19 36  1  0
 20 37  1  0
 20 38  1  0
 21 39  1  0
 21 40  1  0
 22 41  1  0
 22 42  1  0
 23 43  1  0
 24 44  1  0
M  END
$$$$
