
     RDKit          3D

 49 51  0  0  0  0  0  0  0  0999 V2000
   -1.3234    1.7086    1.3924 N   0  0  0  0  0  0  0  0  0  0  0  0
   -0.1918    1.8461    0.6807 C   0  0  0  0  0  0  0  0  0  0  0  0
    0.2320    2.9998    0.2515 N   0  0  0  0  0  0  0  0  0  0  0  0
    1.4656    2.6643   -0.5160 C   0  0  0  0  0  0  0  0  0  0  0  0
    1.8310    1.2028   -0.1650 C   0  0  0  0  0  0  0  0  0  0  0  0
    2.9890    1.1759    0.8509 C   0  0  0  0  0  0  0  0  0  0  0  0
    3.5557   -0.2028    1.1044 C   0  0  0  0  0  0  0  0  0  0  0  0
    4.3446   -0.8413    0.1357 C   0  0  0  0  0  0  0  0  0  0  0  0
    4.8582   -2.1191    0.3693 C   0  0  0  0  0  0  0  0  0  0  0  0
    4.5828   -2.7579    1.5737 C   0  0  0  0  0  0  0  0  0  0  0  0
    5.0633   -4.0054    1.8426 O   0  0  0  0  0  0  0  0  0  0  0  0
    3.8069   -2.1400    2.5460 C   0  0  0  0  0  0  0  0  0  0  0  0
    3.2961   -0.8624    2.3143 C   0  0  0  0  0  0  0  0  0  0  0  0
    0.5746    0.7572    0.4277 N   0  0  0  0  0  0  0  0  0  0  0  0
    0.1780   -0.6386    0.3976 C   0  0  0  0  0  0  0  0  0  0  0  0
   -0.4237   -1.0538   -0.9540 C   0  0  0  0  0  0  0  0  0  0  0  0
   -1.8236   -0.5376   -1.1982 C   0  0  0  0  0  0  0  0  0  0  0  0
   -2.0273    0.6476   -1.9185 C   0  0  0  0  0  0  0  0  0  0  0  0
   -3.3192    1.1461   -2.1416 C   0  0  0  0  0  0  0  0  0  0  0  0
   -3.5306    2.4360   -2.9006 C   0  0  0  0  0  0  0  0  0  0  0  0
   -4.5942    2.3715   -3.7493 F   0  0  0  0  0  0  0  0  0  0  0  0
   -2.4661    2.7973   -3.6676 F   0  0  0  0  0  0  0  0  0  0  0  0
   -3.7787    3.4867   -2.0733 F   0  0  0  0  0  0  0  0  0  0  0  0
   -4.4176    0.4423   -1.6208 C   0  0  0  0  0  0  0  0  0  0  0  0
   -4.2373   -0.7434   -0.8906 C   0  0  0  0  0  0  0  0  0  0  0  0
   -5.4224   -1.5138   -0.3555 C   0  0  0  0  0  0  0  0  0  0  0  0
   -5.1929   -2.0357    0.8814 F   0  0  0  0  0  0  0  0  0  0  0  0
   -5.7575   -2.5650   -1.1511 F   0  0  0  0  0  0  0  0  0  0  0  0
   -6.5469   -0.7557   -0.2367 F   0  0  0  0  0  0  0  0  0  0  0  0
   -2.9340   -1.2258   -0.6901 C   0  0  0  0  0  0  0  0  0  0  0  0
   -1.8440    2.5794    1.3943 H   0  0  0  0  0  0  0  0  0  0  0  0
   -1.9072    0.9401    1.0968 H   0  0  0  0  0  0  0  0  0  0  0  0
    1.2381    2.7550   -1.5848 H   0  0  0  0  0  0  0  0  0  0  0  0
    2.2635    3.3743   -0.2767 H   0  0  0  0  0  0  0  0  0  0  0  0
    2.0844    0.6503   -1.0768 H   0  0  0  0  0  0  0  0  0  0  0  0
    2.6747    1.6260    1.8020 H   0  0  0  0  0  0  0  0  0  0  0  0
    3.8143    1.8012    0.4847 H   0  0  0  0  0  0  0  0  0  0  0  0
    4.5694   -0.3444   -0.8054 H   0  0  0  0  0  0  0  0  0  0  0  0
    5.4678   -2.5942   -0.3928 H   0  0  0  0  0  0  0  0  0  0  0  0
    5.6278   -4.2865    1.1046 H   0  0  0  0  0  0  0  0  0  0  0  0
    3.6021   -2.6490    3.4835 H   0  0  0  0  0  0  0  0  0  0  0  0
    2.6864   -0.3869    3.0801 H   0  0  0  0  0  0  0  0  0  0  0  0
   -0.5164   -0.8595    1.2169 H   0  0  0  0  0  0  0  0  0  0  0  0
    1.0541   -1.2694    0.5734 H   0  0  0  0  0  0  0  0  0  0  0  0
    0.2299   -0.7440   -1.7792 H   0  0  0  0  0  0  0  0  0  0  0  0
   -0.4545   -2.1506   -1.0017 H   0  0  0  0  0  0  0  0  0  0  0  0
   -1.1673    1.2003   -2.2995 H   0  0  0  0  0  0  0  0  0  0  0  0
   -5.4261    0.8248   -1.7889 H   0  0  0  0  0  0  0  0  0  0  0  0
   -2.7879   -2.1509   -0.1308 H   0  0  0  0  0  0  0  0  0  0  0  0
  1  2  1  0
  2  3  2  0
  3  4  1  0
  4  5  1  0
  5  6  1  0
  6  7  1  0
  7  8  2  0
  8  9  1  0
  9 10  2  0
 10 11  1  0
 10 12  1  0
 12 13  2  0
  5 14  1  0
 14 15  1  0
 15 16  1  0
 16 17  1  0
 17 18  2  0
 18 19  1  0
 19 20  1  0
 20 21  1  0
 20 22  1  0
 20 23  1  0
 19 24  2  0
 24 25  1  0
 25 26  1  0
 26 27  1  0
 26 28  1  0
 26 29  1  0
 25 30  2  0
 14  2  1  0
 30 17  1  0
 13  7  1  0
  1 31  1  0
  1 32  1  0
  4 33  1  0
  4 34  1  0
  5 35  1  0
  6 36  1  0
  6 37  1  0
  8 38  1  0
  9 39  1  0
 11 40  1  0
 12 41  1  0
 13 42  1  0
 15 43  1  0
 15 44  1  0
 16 45  1  0
 16 46  1  0
 18 47  1  0
 24 48  1  0
 30 49  1  0
M  END
$$$$
