
     RDKit          3D

 67 71  0  0  0  0  0  0  0  0999 V2000
   -7.4891    3.9766    1.5227 C   0  0  0  0  0  0  0  0  0  0  0  0
   -6.0906    4.2232    1.5280 O   0  0  0  0  0  0  0  0  0  0  0  0
   -5.2595    3.2016    1.1327 C   0  0  0  0  0  0  0  0  0  0  0  0
   -5.7056    1.9208    0.7837 C   0  0  0  0  0  0  0  0  0  0  0  0
   -4.7650    0.9450    0.3937 C   0  0  0  0  0  0  0  0  0  0  0  0
   -5.1023   -0.6759   -0.0712 S   0  0  0  0  0  0  0  0  0  0  0  0
   -3.4538   -1.0311   -0.3482 C   0  0  0  0  0  0  0  0  0  0  0  0
   -3.0977   -2.3858   -0.7896 C   0  0  0  0  0  0  0  0  0  0  0  0
   -2.7264   -3.3328    0.1786 C   0  0  0  0  0  0  0  0  0  0  0  0
   -2.3745   -4.6281   -0.1961 C   0  0  0  0  0  0  0  0  0  0  0  0
   -2.3883   -4.9864   -1.5408 C   0  0  0  0  0  0  0  0  0  0  0  0
   -2.7505   -4.0519   -2.5157 C   0  0  0  0  0  0  0  0  0  0  0  0
   -3.1062   -2.7472   -2.1530 C   0  0  0  0  0  0  0  0  0  0  0  0
   -3.4587   -1.7640   -3.0432 O   0  0  0  0  0  0  0  0  0  0  0  0
   -3.5328   -2.1165   -4.4175 C   0  0  0  0  0  0  0  0  0  0  0  0
   -2.6439    0.0597   -0.0826 C   0  0  0  0  0  0  0  0  0  0  0  0
   -1.1952   -0.0066   -0.2329 C   0  0  0  0  0  0  0  0  0  0  0  0
   -0.6161   -0.0288   -1.5039 C   0  0  0  0  0  0  0  0  0  0  0  0
    0.7734   -0.0731   -1.6363 C   0  0  0  0  0  0  0  0  0  0  0  0
    1.5975   -0.0876   -0.5080 C   0  0  0  0  0  0  0  0  0  0  0  0
    2.9370   -0.1252   -0.7812 O   0  0  0  0  0  0  0  0  0  0  0  0
    3.8309   -0.0543    0.3341 C   0  0  0  0  0  0  0  0  0  0  0  0
    5.2683   -0.0289   -0.2123 C   0  0  0  0  0  0  0  0  0  0  0  0
    6.3027    0.1383    0.8236 N   0  0  0  0  0  0  0  0  0  0  0  0
    7.6417    0.3468    0.2270 C   0  0  0  0  0  0  0  0  0  0  0  0
    8.5152   -0.9183    0.2175 C   0  0  0  0  0  0  0  0  0  0  0  0
    8.7454   -1.4576    1.5265 O   0  0  0  0  0  0  0  0  0  0  0  0
    7.6981   -1.1450    2.4547 C   0  0  0  0  0  0  0  0  0  0  0  0
    6.3294   -0.9979    1.7719 C   0  0  0  0  0  0  0  0  0  0  0  0
    1.0186   -0.0652    0.7618 C   0  0  0  0  0  0  0  0  0  0  0  0
   -0.3738   -0.0235    0.8991 C   0  0  0  0  0  0  0  0  0  0  0  0
   -3.3990    1.2164    0.3469 C   0  0  0  0  0  0  0  0  0  0  0  0
   -2.9705    2.5231    0.7027 C   0  0  0  0  0  0  0  0  0  0  0  0
   -3.8904    3.5053    1.0939 C   0  0  0  0  0  0  0  0  0  0  0  0
   -3.5450    4.7860    1.4521 O   0  0  0  0  0  0  0  0  0  0  0  0
   -2.1676    5.1313    1.4233 C   0  0  0  0  0  0  0  0  0  0  0  0
   -7.9918    4.8973    1.8345 H   0  0  0  0  0  0  0  0  0  0  0  0
   -7.7541    3.1940    2.2407 H   0  0  0  0  0  0  0  0  0  0  0  0
   -7.8442    3.7299    0.5168 H   0  0  0  0  0  0  0  0  0  0  0  0
   -6.7552    1.6522    0.8033 H   0  0  0  0  0  0  0  0  0  0  0  0
   -2.7112   -3.0594    1.2311 H   0  0  0  0  0  0  0  0  0  0  0  0
   -2.0897   -5.3550    0.5600 H   0  0  0  0  0  0  0  0  0  0  0  0
   -2.1129   -5.9964   -1.8353 H   0  0  0  0  0  0  0  0  0  0  0  0
   -2.7405   -4.3750   -3.5511 H   0  0  0  0  0  0  0  0  0  0  0  0
   -4.2760   -2.9028   -4.5869 H   0  0  0  0  0  0  0  0  0  0  0  0
   -3.8549   -1.2305   -4.9700 H   0  0  0  0  0  0  0  0  0  0  0  0
   -2.5510   -2.4094   -4.8027 H   0  0  0  0  0  0  0  0  0  0  0  0
   -1.2400   -0.0123   -2.3946 H   0  0  0  0  0  0  0  0  0  0  0  0
    1.2167   -0.0931   -2.6286 H   0  0  0  0  0  0  0  0  0  0  0  0
    3.6866   -0.9336    0.9728 H   0  0  0  0  0  0  0  0  0  0  0  0
    3.6463    0.8637    0.9065 H   0  0  0  0  0  0  0  0  0  0  0  0
    5.4492   -0.9328   -0.8107 H   0  0  0  0  0  0  0  0  0  0  0  0
    5.3257    0.8104   -0.9196 H   0  0  0  0  0  0  0  0  0  0  0  0
    8.1449    1.1077    0.8379 H   0  0  0  0  0  0  0  0  0  0  0  0
    7.5756    0.7642   -0.7852 H   0  0  0  0  0  0  0  0  0  0  0  0
    9.4938   -0.6953   -0.2196 H   0  0  0  0  0  0  0  0  0  0  0  0
    8.0559   -1.7011   -0.3974 H   0  0  0  0  0  0  0  0  0  0  0  0
    7.9720   -0.2271    2.9881 H   0  0  0  0  0  0  0  0  0  0  0  0
    7.6648   -1.9521    3.1932 H   0  0  0  0  0  0  0  0  0  0  0  0
    6.1102   -1.9379    1.2485 H   0  0  0  0  0  0  0  0  0  0  0  0
    5.5591   -0.8467    2.5355 H   0  0  0  0  0  0  0  0  0  0  0  0
    1.6183   -0.0800    1.6654 H   0  0  0  0  0  0  0  0  0  0  0  0
   -0.8117   -0.0063    1.8946 H   0  0  0  0  0  0  0  0  0  0  0  0
   -1.9077    2.7324    0.6557 H   0  0  0  0  0  0  0  0  0  0  0  0
   -1.7604    5.0498    0.4106 H   0  0  0  0  0  0  0  0  0  0  0  0
   -2.0789    6.1771    1.7319 H   0  0  0  0  0  0  0  0  0  0  0  0
   -1.5946    4.5257    2.1327 H   0  0  0  0  0  0  0  0  0  0  0  0
  1  2  1  0
  2  3  1  0
  3  4  2  0
  4  5  1  0
  5  6  1  0
  6  7  1  0
  7  8  1  0
  8  9  2  0
  9 10  1  0
 10 11  2  0
 11 12  1  0
 12 13  2  0
 13 14  1  0
 14 15  1  0
  7 16  2  0
 16 17  1  0
 17 18  2  0
 18 19  1  0
 19 20  2  0
 20 21  1  0
 21 22  1  0
 22 23  1  0
 23 24  1  0
 24 25  1  0
 25 26  1  0
 26 27  1  0
 27 28  1  0
 28 29  1  0
 20 30  1  0
 30 31  2  0
 16 32  1  0
 32 33  1  0
 33 34  2  0
 34 35  1  0
 35 36  1  0
 34  3  1  0
 32  5  2  0
 13  8  1  0
 31 17  1  0
 29 24  1  0
  1 37  1  0
  1 38  1  0
  1 39  1  0
  4 40  1  0
  9 41  1  0
 10 42  1  0
 11 43  1  0
 12 44  1  0
 15 45  1  0
 15 46  1  0
 15 47  1  0
 18 48  1  0
 19 49  1  0
 22 50  1  0
 22 51  1  0
 23 52  1  0
 23 53  1  0
 25 54  1  0
 25 55  1  0
 26 56  1  0
 26 57  1  0
 28 58  1  0
 28 59  1  0
 29 60  1  0
 29 61  1  0
 30 62  1  0
 31 63  1  0
 33 64  1  0
 36 65  1  0
 36 66  1  0
 36 67  1  0
M  END
$$$$
