
     RDKit          3D

 73 78  0  0  0  0  0  0  0  0999 V2000
  -10.0111    1.5308   -0.1236 C   0  0  0  0  0  0  0  0  0  0  0  0
   -8.8448    0.7408    0.3877 C   0  0  0  0  0  0  0  0  0  0  0  0
   -9.0076   -0.2024    1.3983 C   0  0  0  0  0  0  0  0  0  0  0  0
   -7.9144   -0.9524    1.8346 C   0  0  0  0  0  0  0  0  0  0  0  0
   -6.6347   -0.7923    1.2669 C   0  0  0  0  0  0  0  0  0  0  0  0
   -5.5316   -1.6573    1.8117 C   0  0  0  0  0  0  0  0  0  0  0  0
   -6.4503    0.1681    0.2538 C   0  0  0  0  0  0  0  0  0  0  0  0
   -5.2448    0.4649   -0.3938 N   0  0  0  0  0  0  0  0  0  0  0  0
   -4.0864    0.8305    0.4414 C   0  0  0  0  0  0  0  0  0  0  0  0
   -2.9889    1.4599   -0.4479 C   0  0  0  0  0  0  0  0  0  0  0  0
   -2.6387    0.5619   -1.5633 N   0  0  0  0  0  0  0  0  0  0  0  0
   -1.4415   -0.1256   -1.7147 C   0  0  0  0  0  0  0  0  0  0  0  0
   -1.3484   -1.0728   -2.4986 O   0  0  0  0  0  0  0  0  0  0  0  0
   -0.2334    0.3401   -0.8969 C   0  0  0  0  0  0  0  0  0  0  0  0
    0.1766    1.7839   -1.2582 C   0  0  0  0  0  0  0  0  0  0  0  0
    1.5432    1.8510   -1.9314 C   0  0  0  0  0  0  0  0  0  0  0  0
    2.6230    1.1883   -1.0734 C   0  0  0  0  0  0  0  0  0  0  0  0
    2.1529   -0.0768   -0.5018 N   0  0  0  0  0  0  0  0  0  0  0  0
    3.1303   -0.9639   -0.0363 C   0  0  0  0  0  0  0  0  0  0  0  0
    2.8019   -2.2826    0.1325 N   0  0  0  0  0  0  0  0  0  0  0  0
    3.7214   -3.1537    0.5953 C   0  0  0  0  0  0  0  0  0  0  0  0
    4.9913   -2.9086    0.9568 N   0  0  0  0  0  0  0  0  0  0  0  0
    5.2879   -1.6094    0.7957 C   0  0  0  0  0  0  0  0  0  0  0  0
    4.4597   -0.6037    0.3186 C   0  0  0  0  0  0  0  0  0  0  0  0
    5.1489    0.5996    0.2886 N   0  0  0  0  0  0  0  0  0  0  0  0
    6.3644    0.3331    0.7263 C   0  0  0  0  0  0  0  0  0  0  0  0
    6.4841   -0.9963    1.0576 N   0  0  0  0  0  0  0  0  0  0  0  0
    7.6667   -1.6341    1.5928 C   0  0  0  0  0  0  0  0  0  0  0  0
    8.8669   -1.5595    0.6502 C   0  0  0  0  0  0  0  0  0  0  0  0
    9.5434   -0.1863    0.6276 C   0  0  0  0  0  0  0  0  0  0  0  0
    8.6995    0.9390    0.0240 C   0  0  0  0  0  0  0  0  0  0  0  0
    7.4775    1.3156    0.8610 C   0  0  0  0  0  0  0  0  0  0  0  0
    0.9297   -0.6562   -1.0642 C   0  0  0  0  0  0  0  0  0  0  0  0
   -3.8001    0.1650   -2.3761 C   0  0  0  0  0  0  0  0  0  0  0  0
   -4.9197   -0.4515   -1.5101 C   0  0  0  0  0  0  0  0  0  0  0  0
   -7.5742    0.9027   -0.1805 C   0  0  0  0  0  0  0  0  0  0  0  0
  -10.4361    1.0417   -1.0064 H   0  0  0  0  0  0  0  0  0  0  0  0
   -9.7032    2.5479   -0.3893 H   0  0  0  0  0  0  0  0  0  0  0  0
  -10.7920    1.6151    0.6405 H   0  0  0  0  0  0  0  0  0  0  0  0
   -9.9827   -0.3614    1.8533 H   0  0  0  0  0  0  0  0  0  0  0  0
   -8.0692   -1.6805    2.6262 H   0  0  0  0  0  0  0  0  0  0  0  0
   -4.8873   -2.0369    1.0141 H   0  0  0  0  0  0  0  0  0  0  0  0
   -5.9368   -2.5404    2.3183 H   0  0  0  0  0  0  0  0  0  0  0  0
   -4.9365   -1.0973    2.5396 H   0  0  0  0  0  0  0  0  0  0  0  0
   -3.6627   -0.0484    0.9334 H   0  0  0  0  0  0  0  0  0  0  0  0
   -4.3776    1.5558    1.2098 H   0  0  0  0  0  0  0  0  0  0  0  0
   -2.1237    1.7025    0.1713 H   0  0  0  0  0  0  0  0  0  0  0  0
   -3.3552    2.3934   -0.8921 H   0  0  0  0  0  0  0  0  0  0  0  0
   -0.5259    0.3081    0.1614 H   0  0  0  0  0  0  0  0  0  0  0  0
    0.2165    2.3772   -0.3328 H   0  0  0  0  0  0  0  0  0  0  0  0
   -0.5632    2.2716   -1.9053 H   0  0  0  0  0  0  0  0  0  0  0  0
    1.4913    1.3533   -2.9075 H   0  0  0  0  0  0  0  0  0  0  0  0
    1.8172    2.8939   -2.1265 H   0  0  0  0  0  0  0  0  0  0  0  0
    3.5036    1.0411   -1.7114 H   0  0  0  0  0  0  0  0  0  0  0  0
    2.8911    1.8707   -0.2583 H   0  0  0  0  0  0  0  0  0  0  0  0
    3.3902   -4.1837    0.6828 H   0  0  0  0  0  0  0  0  0  0  0  0
    7.8822   -1.1643    2.5607 H   0  0  0  0  0  0  0  0  0  0  0  0
    7.4279   -2.6860    1.7881 H   0  0  0  0  0  0  0  0  0  0  0  0
    9.6118   -2.2894    0.9909 H   0  0  0  0  0  0  0  0  0  0  0  0
    8.5788   -1.8525   -0.3659 H   0  0  0  0  0  0  0  0  0  0  0  0
   10.4668   -0.2692    0.0429 H   0  0  0  0  0  0  0  0  0  0  0  0
    9.8485    0.0873    1.6439 H   0  0  0  0  0  0  0  0  0  0  0  0
    8.4038    0.6748   -1.0007 H   0  0  0  0  0  0  0  0  0  0  0  0
    9.3428    1.8256   -0.0535 H   0  0  0  0  0  0  0  0  0  0  0  0
    7.7497    1.4345    1.9165 H   0  0  0  0  0  0  0  0  0  0  0  0
    7.1111    2.2930    0.5243 H   0  0  0  0  0  0  0  0  0  0  0  0
    0.6338   -1.5833   -0.5569 H   0  0  0  0  0  0  0  0  0  0  0  0
    1.1045   -0.9152   -2.1165 H   0  0  0  0  0  0  0  0  0  0  0  0
   -4.1693    1.0748   -2.8627 H   0  0  0  0  0  0  0  0  0  0  0  0
   -3.5184   -0.5361   -3.1668 H   0  0  0  0  0  0  0  0  0  0  0  0
   -5.7998   -0.6151   -2.1476 H   0  0  0  0  0  0  0  0  0  0  0  0
   -4.5915   -1.4239   -1.1265 H   0  0  0  0  0  0  0  0  0  0  0  0
   -7.4394    1.6314   -0.9797 H   0  0  0  0  0  0  0  0  0  0  0  0
  1  2  1  0
  2  3  2  0
  3  4  1  0
  4  5  2  0
  5  6  1  0
  5  7  1  0
  7  8  1  0
  8  9  1  0
  9 10  1  0
 10 11  1  0
 11 12  1  0
 12 13  2  0
 12 14  1  0
 14 15  1  0
 15 16  1  0
 16 17  1  0
 17 18  1  0
 18 19  1  0
 19 20  2  0
 20 21  1  0
 21 22  2  0
 22 23  1  0
 23 24  2  0
 24 25  1  0
 25 26  2  0
 26 27  1  0
 27 28  1  0
 28 29  1  0
 29 30  1  0
 30 31  1  0
 31 32  1  0
 18 33  1  0
 11 34  1  0
 34 35  1  0
  7 36  2  0
 36  2  1  0
 35  8  1  0
 33 14  1  0
 24 19  1  0
 32 26  1  0
 27 23  1  0
  1 37  1  0
  1 38  1  0
  1 39  1  0
  3 40  1  0
  4 41  1  0
  6 42  1  0
  6 43  1  0
  6 44  1  0
  9 45  1  0
  9 46  1  0
 10 47  1  0
 10 48  1  0
 14 49  1  0
 15 50  1  0
 15 51  1  0
 16 52  1  0
 16 53  1  0
 17 54  1  0
 17 55  1  0
 21 56  1  0
 28 57  1  0
 28 58  1  0
 29 59  1  0
 29 60  1  0
 30 61  1  0
 30 62  1  0
 31 63  1  0
 31 64  1  0
 32 65  1  0
 32 66  1  0
 33 67  1  0
 33 68  1  0
 34 69  1  0
 34 70  1  0
 35 71  1  0
 35 72  1  0
 36 73  1  0
M  END
$$$$
