
     RDKit          3D

 49 52  0  0  0  0  0  0  0  0999 V2000
    0.9516   -3.0427    2.7718 N   0  0  0  0  0  0  0  0  0  0  0  0
    0.0188   -2.5006    1.9678 C   0  0  0  0  0  0  0  0  0  0  0  0
   -0.8629   -3.2279    1.3427 N   0  0  0  0  0  0  0  0  0  0  0  0
   -1.6787   -2.2364    0.5825 C   0  0  0  0  0  0  0  0  0  0  0  0
   -1.2535   -0.8392    1.0748 C   0  0  0  0  0  0  0  0  0  0  0  0
   -1.0424    0.1510   -0.0753 C   0  0  0  0  0  0  0  0  0  0  0  0
   -2.3413    0.7362   -0.5878 C   0  0  0  0  0  0  0  0  0  0  0  0
   -2.9056    0.2938   -1.7963 C   0  0  0  0  0  0  0  0  0  0  0  0
   -4.0871    0.8709   -2.2695 C   0  0  0  0  0  0  0  0  0  0  0  0
   -4.7047    1.8862   -1.5407 C   0  0  0  0  0  0  0  0  0  0  0  0
   -5.8358    2.4398   -2.0601 O   0  0  0  0  0  0  0  0  0  0  0  0
   -4.1702    2.3180   -0.3328 C   0  0  0  0  0  0  0  0  0  0  0  0
   -2.9901    1.7465    0.1441 C   0  0  0  0  0  0  0  0  0  0  0  0
   -0.0180   -1.1559    1.7965 N   0  0  0  0  0  0  0  0  0  0  0  0
    0.5936   -0.1439    2.6439 C   0  0  0  0  0  0  0  0  0  0  0  0
    2.0742    0.1006    2.3289 C   0  0  0  0  0  0  0  0  0  0  0  0
    2.3361    0.7181    0.9643 C   0  0  0  0  0  0  0  0  0  0  0  0
    2.2126    2.1171    0.8486 C   0  0  0  0  0  0  0  0  0  0  0  0
    2.4281    2.7568   -0.3691 C   0  0  0  0  0  0  0  0  0  0  0  0
    2.7784    2.0090   -1.4927 C   0  0  0  0  0  0  0  0  0  0  0  0
    2.9096    0.6147   -1.4188 C   0  0  0  0  0  0  0  0  0  0  0  0
    3.2642   -0.1161   -2.5684 C   0  0  0  0  0  0  0  0  0  0  0  0
    3.3926   -1.5028   -2.5269 C   0  0  0  0  0  0  0  0  0  0  0  0
    3.1662   -2.1792   -1.3333 C   0  0  0  0  0  0  0  0  0  0  0  0
    2.8201   -1.4652   -0.1812 C   0  0  0  0  0  0  0  0  0  0  0  0
    2.6840   -0.0557   -0.1851 C   0  0  0  0  0  0  0  0  0  0  0  0
    0.7661   -4.0331    2.8736 H   0  0  0  0  0  0  0  0  0  0  0  0
    1.0100   -2.6044    3.6799 H   0  0  0  0  0  0  0  0  0  0  0  0
   -2.7419   -2.4056    0.7786 H   0  0  0  0  0  0  0  0  0  0  0  0
   -1.4975   -2.3853   -0.4895 H   0  0  0  0  0  0  0  0  0  0  0  0
   -1.9979   -0.4671    1.7942 H   0  0  0  0  0  0  0  0  0  0  0  0
   -0.4309    0.9971    0.2565 H   0  0  0  0  0  0  0  0  0  0  0  0
   -0.4764   -0.3063   -0.9002 H   0  0  0  0  0  0  0  0  0  0  0  0
   -2.4221   -0.4759   -2.3885 H   0  0  0  0  0  0  0  0  0  0  0  0
   -4.5155    0.5457   -3.2182 H   0  0  0  0  0  0  0  0  0  0  0  0
   -6.1343    3.1425   -1.4607 H   0  0  0  0  0  0  0  0  0  0  0  0
   -4.6405    3.1218    0.2347 H   0  0  0  0  0  0  0  0  0  0  0  0
   -2.5636    2.0954    1.0793 H   0  0  0  0  0  0  0  0  0  0  0  0
    0.0492    0.8024    2.5548 H   0  0  0  0  0  0  0  0  0  0  0  0
    0.4934   -0.4352    3.6978 H   0  0  0  0  0  0  0  0  0  0  0  0
    2.6763   -0.8041    2.4702 H   0  0  0  0  0  0  0  0  0  0  0  0
    2.4595    0.7996    3.0853 H   0  0  0  0  0  0  0  0  0  0  0  0
    1.9487    2.7234    1.7202 H   0  0  0  0  0  0  0  0  0  0  0  0
    2.3312    3.8405   -0.4456 H   0  0  0  0  0  0  0  0  0  0  0  0
    2.9491    2.5251   -2.4362 H   0  0  0  0  0  0  0  0  0  0  0  0
    3.4406    0.3935   -3.5153 H   0  0  0  0  0  0  0  0  0  0  0  0
    3.6662   -2.0572   -3.4225 H   0  0  0  0  0  0  0  0  0  0  0  0
    3.2470   -3.2670   -1.2950 H   0  0  0  0  0  0  0  0  0  0  0  0
    2.6436   -2.0390    0.7219 H   0  0  0  0  0  0  0  0  0  0  0  0
  1  2  1  0
  2  3  2  0
  3  4  1  0
  4  5  1  0
  5  6  1  0
  6  7  1  0
  7  8  2  0
  8  9  1  0
  9 10  2  0
 10 11  1  0
 10 12  1  0
 12 13  2  0
  5 14  1  0
 14 15  1  0
 15 16  1  0
 16 17  1  0
 17 18  2  0
 18 19  1  0
 19 20  2  0
 20 21  1  0
 21 22  2  0
 22 23  1  0
 23 24  2  0
 24 25  1  0
 25 26  2  0
 14  2  1  0
 26 17  1  0
 13  7  1  0
 26 21  1  0
  1 27  1  0
  1 28  1  0
  4 29  1  0
  4 30  1  0
  5 31  1  0
  6 32  1  0
  6 33  1  0
  8 34  1  0
  9 35  1  0
 11 36  1  0
 12 37  1  0
 13 38  1  0
 15 39  1  0
 15 40  1  0
 16 41  1  0
 16 42  1  0
 18 43  1  0
 19 44  1  0
 20 45  1  0
 22 46  1  0
 23 47  1  0
 24 48  1  0
 25 49  1  0
M  END
$$$$
