
     RDKit          3D

 53 56  0  0  0  0  0  0  0  0999 V2000
   -3.1492   -3.5749   -0.4070 C   0  0  0  0  0  0  0  0  0  0  0  0
   -3.9943   -2.3646   -0.0259 C   0  0  0  0  0  0  0  0  0  0  0  0
   -3.2512   -1.3930    0.9102 C   0  0  0  0  0  0  0  0  0  0  0  0
   -4.1663   -0.2375    1.3784 C   0  0  0  0  0  0  0  0  0  0  0  0
   -5.2645   -0.6683    2.3208 C   0  0  0  0  0  0  0  0  0  0  0  0
   -4.9568   -1.0444    3.6357 C   0  0  0  0  0  0  0  0  0  0  0  0
   -5.9657   -1.4489    4.5107 C   0  0  0  0  0  0  0  0  0  0  0  0
   -7.2907   -1.4796    4.0811 C   0  0  0  0  0  0  0  0  0  0  0  0
   -7.6083   -1.1036    2.7771 C   0  0  0  0  0  0  0  0  0  0  0  0
   -6.6007   -0.6982    1.9003 C   0  0  0  0  0  0  0  0  0  0  0  0
   -2.0712   -0.8451    0.2369 N   0  0  0  0  0  0  0  0  0  0  0  0
   -0.9894   -0.3723    0.9503 C   0  0  0  0  0  0  0  0  0  0  0  0
   -0.9108   -0.4250    2.1722 O   0  0  0  0  0  0  0  0  0  0  0  0
    0.1350    0.1972    0.1574 C   0  0  0  0  0  0  0  0  0  0  0  0
   -0.0735    0.8349   -1.0683 C   0  0  0  0  0  0  0  0  0  0  0  0
    1.0091    1.3602   -1.7855 C   0  0  0  0  0  0  0  0  0  0  0  0
    2.3156    1.2545   -1.2662 C   0  0  0  0  0  0  0  0  0  0  0  0
    3.4659    1.7252   -1.8680 N   0  0  0  0  0  0  0  0  0  0  0  0
    4.5313    1.4790   -1.1344 C   0  0  0  0  0  0  0  0  0  0  0  0
    5.7953    1.8688   -1.4979 N   0  0  0  0  0  0  0  0  0  0  0  0
    6.9572    1.0787   -1.0478 C   0  0  0  0  0  0  0  0  0  0  0  0
    8.2657    1.8346   -1.3274 C   0  0  0  0  0  0  0  0  0  0  0  0
    8.3806    2.2044   -2.7082 O   0  0  0  0  0  0  0  0  0  0  0  0
    7.2892    3.0625   -3.0732 C   0  0  0  0  0  0  0  0  0  0  0  0
    5.9370    2.3629   -2.8839 C   0  0  0  0  0  0  0  0  0  0  0  0
    4.1706    0.6636    0.3519 S   0  0  0  0  0  0  0  0  0  0  0  0
    2.5000    0.6325   -0.0354 C   0  0  0  0  0  0  0  0  0  0  0  0
    1.4270    0.1003    0.6984 C   0  0  0  0  0  0  0  0  0  0  0  0
   -2.8225   -4.1204    0.4842 H   0  0  0  0  0  0  0  0  0  0  0  0
   -3.7343   -4.2606   -1.0282 H   0  0  0  0  0  0  0  0  0  0  0  0
   -2.2624   -3.2826   -0.9777 H   0  0  0  0  0  0  0  0  0  0  0  0
   -4.3043   -1.8449   -0.9410 H   0  0  0  0  0  0  0  0  0  0  0  0
   -4.9049   -2.7324    0.4598 H   0  0  0  0  0  0  0  0  0  0  0  0
   -2.8972   -1.9511    1.7865 H   0  0  0  0  0  0  0  0  0  0  0  0
   -3.5729    0.5312    1.8916 H   0  0  0  0  0  0  0  0  0  0  0  0
   -4.5956    0.2709    0.5047 H   0  0  0  0  0  0  0  0  0  0  0  0
   -3.9259   -1.0194    3.9856 H   0  0  0  0  0  0  0  0  0  0  0  0
   -5.7163   -1.7372    5.5286 H   0  0  0  0  0  0  0  0  0  0  0  0
   -8.0759   -1.7935    4.7637 H   0  0  0  0  0  0  0  0  0  0  0  0
   -8.6423   -1.1247    2.4433 H   0  0  0  0  0  0  0  0  0  0  0  0
   -6.8666   -0.4073    0.8869 H   0  0  0  0  0  0  0  0  0  0  0  0
   -2.0650   -0.8210   -0.7729 H   0  0  0  0  0  0  0  0  0  0  0  0
   -1.0726    0.9645   -1.4747 H   0  0  0  0  0  0  0  0  0  0  0  0
    0.8544    1.8613   -2.7365 H   0  0  0  0  0  0  0  0  0  0  0  0
    6.9668    0.1221   -1.5855 H   0  0  0  0  0  0  0  0  0  0  0  0
    6.9209    0.8726    0.0270 H   0  0  0  0  0  0  0  0  0  0  0  0
    9.1213    1.1970   -1.0822 H   0  0  0  0  0  0  0  0  0  0  0  0
    8.3368    2.7375   -0.7089 H   0  0  0  0  0  0  0  0  0  0  0  0
    7.4207    3.3374   -4.1246 H   0  0  0  0  0  0  0  0  0  0  0  0
    7.3437    3.9826   -2.4788 H   0  0  0  0  0  0  0  0  0  0  0  0
    5.8679    1.5117   -3.5735 H   0  0  0  0  0  0  0  0  0  0  0  0
    5.1456    3.0792   -3.1354 H   0  0  0  0  0  0  0  0  0  0  0  0
    1.5941   -0.3763    1.6613 H   0  0  0  0  0  0  0  0  0  0  0  0
  1  2  1  0
  2  3  1  0
  3  4  1  0
  4  5  1  0
  5  6  2  0
  6  7  1  0
  7  8  2  0
  8  9  1  0
  9 10  2  0
  3 11  1  0
 11 12  1  0
 12 13  2  0
 12 14  1  0
 14 15  2  0
 15 16  1  0
 16 17  2  0
 17 18  1  0
 18 19  2  0
 19 20  1  0
 20 21  1  0
 21 22  1  0
 22 23  1  0
 23 24  1  0
 24 25  1  0
 19 26  1  0
 26 27  1  0
 27 28  2  0
 10  5  1  0
 28 14  1  0
 27 17  1  0
 25 20  1  0
  1 29  1  0
  1 30  1  0
  1 31  1  0
  2 32  1  0
  2 33  1  0
  3 34  1  0
  4 35  1  0
  4 36  1  0
  6 37  1  0
  7 38  1  0
  8 39  1  0
  9 40  1  0
 10 41  1  0
 11 42  1  0
 15 43  1  0
 16 44  1  0
 21 45  1  0
 21 46  1  0
 22 47  1  0
 22 48  1  0
 24 49  1  0
 24 50  1  0
 25 51  1  0
 25 52  1  0
 28 53  1  0
M  END
$$$$
