
     RDKit          3D

 48 51  0  0  0  0  0  0  0  0999 V2000
    3.0009    2.3702    0.7683 O   0  0  0  0  0  0  0  0  0  0  0  0
    2.8847    1.0165    1.2713 S   0  0  0  0  0  6  0  0  0  0  0  0
    3.6349    0.5689    2.4267 O   0  0  0  0  0  0  0  0  0  0  0  0
    3.1560   -0.1383   -0.0855 C   0  0  0  0  0  0  0  0  0  0  0  0
    4.5923   -0.0608   -0.5326 C   0  0  0  0  0  0  0  0  0  0  0  0
    4.9852    0.8637   -1.5114 C   0  0  0  0  0  0  0  0  0  0  0  0
    6.3160    0.9337   -1.9256 C   0  0  0  0  0  0  0  0  0  0  0  0
    7.2671    0.0834   -1.3664 C   0  0  0  0  0  0  0  0  0  0  0  0
    6.8902   -0.8339   -0.3879 C   0  0  0  0  0  0  0  0  0  0  0  0
    5.5602   -0.9058    0.0291 C   0  0  0  0  0  0  0  0  0  0  0  0
    1.2508    0.7686    1.6264 N   0  0  0  0  0  0  0  0  0  0  0  0
    0.2412    1.3657    0.7146 C   0  0  0  0  0  0  0  0  0  0  0  0
   -1.1852    0.9501    1.1223 C   0  0  0  0  0  0  0  0  0  0  0  0
   -1.4225   -0.5100    1.1525 N   0  0  0  0  0  0  0  0  0  0  0  0
   -2.0878   -1.0144   -0.0577 C   0  0  0  0  0  0  0  0  0  0  0  0
   -3.5262   -0.5569   -0.1930 C   0  0  0  0  0  0  0  0  0  0  0  0
   -4.4335   -0.7112    0.8829 C   0  0  0  0  0  0  0  0  0  0  0  0
   -5.7695   -0.3155    0.7654 C   0  0  0  0  0  0  0  0  0  0  0  0
   -6.1736    0.2215   -0.4362 C   0  0  0  0  0  0  0  0  0  0  0  0
   -5.3044    0.3692   -1.4908 C   0  0  0  0  0  0  0  0  0  0  0  0
   -3.9815   -0.0114   -1.4049 C   0  0  0  0  0  0  0  0  0  0  0  0
   -5.9023    0.9149   -2.5837 O   0  0  0  0  0  0  0  0  0  0  0  0
   -7.2482    1.0932   -2.0948 C   0  0  0  0  0  0  0  0  0  0  0  0
   -7.4274    0.6561   -0.7320 O   0  0  0  0  0  0  0  0  0  0  0  0
   -0.1790   -1.2628    1.4131 C   0  0  0  0  0  0  0  0  0  0  0  0
    0.8409   -0.5022    2.2807 C   0  0  0  0  0  0  0  0  0  0  0  0
    2.4829    0.1237   -0.9064 H   0  0  0  0  0  0  0  0  0  0  0  0
    2.9145   -1.1456    0.2653 H   0  0  0  0  0  0  0  0  0  0  0  0
    4.2613    1.5480   -1.9499 H   0  0  0  0  0  0  0  0  0  0  0  0
    6.6125    1.6589   -2.6792 H   0  0  0  0  0  0  0  0  0  0  0  0
    8.3044    0.1426   -1.6861 H   0  0  0  0  0  0  0  0  0  0  0  0
    7.6349   -1.4883    0.0576 H   0  0  0  0  0  0  0  0  0  0  0  0
    5.2906   -1.6185    0.8063 H   0  0  0  0  0  0  0  0  0  0  0  0
    0.3161    2.4570    0.7682 H   0  0  0  0  0  0  0  0  0  0  0  0
    0.4313    1.0544   -0.3175 H   0  0  0  0  0  0  0  0  0  0  0  0
   -1.3721    1.3229    2.1381 H   0  0  0  0  0  0  0  0  0  0  0  0
   -1.9077    1.4705    0.4834 H   0  0  0  0  0  0  0  0  0  0  0  0
   -1.5119   -0.7340   -0.9495 H   0  0  0  0  0  0  0  0  0  0  0  0
   -2.1175   -2.1120   -0.0357 H   0  0  0  0  0  0  0  0  0  0  0  0
   -4.0864   -1.1380    1.8226 H   0  0  0  0  0  0  0  0  0  0  0  0
   -6.4630   -0.4271    1.5909 H   0  0  0  0  0  0  0  0  0  0  0  0
   -3.3241    0.1135   -2.2582 H   0  0  0  0  0  0  0  0  0  0  0  0
   -7.9315    0.5264   -2.7373 H   0  0  0  0  0  0  0  0  0  0  0  0
   -7.5065    2.1566   -2.1589 H   0  0  0  0  0  0  0  0  0  0  0  0
   -0.4378   -2.2059    1.9081 H   0  0  0  0  0  0  0  0  0  0  0  0
    0.3147   -1.5196    0.4657 H   0  0  0  0  0  0  0  0  0  0  0  0
    0.4111   -0.2633    3.2605 H   0  0  0  0  0  0  0  0  0  0  0  0
    1.7049   -1.1503    2.4610 H   0  0  0  0  0  0  0  0  0  0  0  0
  1  2  2  0
  2  3  2  0
  2  4  1  0
  4  5  1  0
  5  6  2  0
  6  7  1  0
  7  8  2  0
  8  9  1  0
  9 10  2  0
  2 11  1  0
 11 12  1  0
 12 13  1  0
 13 14  1  0
 14 15  1  0
 15 16  1  0
 16 17  2  0
 17 18  1  0
 18 19  2  0
 19 20  1  0
 20 21  2  0
 20 22  1  0
 22 23  1  0
 23 24  1  0
 14 25  1  0
 25 26  1  0
 10  5  1  0
 26 11  1  0
 21 16  1  0
 24 19  1  0
  4 27  1  0
  4 28  1  0
  6 29  1  0
  7 30  1  0
  8 31  1  0
  9 32  1  0
 10 33  1  0
 12 34  1  0
 12 35  1  0
 13 36  1  0
 13 37  1  0
 15 38  1  0
 15 39  1  0
 17 40  1  0
 18 41  1  0
 21 42  1  0
 23 43  1  0
 23 44  1  0
 25 45  1  0
 25 46  1  0
 26 47  1  0
 26 48  1  0
M  END
$$$$
