
     RDKit          3D

 38 40  0  0  0  0  0  0  0  0999 V2000
   -2.9974   -1.7008    1.7247 C   0  0  0  0  0  0  0  0  0  0  0  0
   -3.5715   -0.7387    0.7391 C   0  0  0  0  0  0  0  0  0  0  0  0
   -4.9109   -0.4584    0.5473 C   0  0  0  0  0  0  0  0  0  0  0  0
   -5.0040    0.5837   -0.3885 C   0  0  0  0  0  0  0  0  0  0  0  0
   -3.7220    0.9176   -0.7814 C   0  0  0  0  0  0  0  0  0  0  0  0
   -3.3437    1.9000   -1.8383 C   0  0  0  0  0  0  0  0  0  0  0  0
   -2.8252    0.1050   -0.0858 N   0  0  0  0  0  0  0  0  0  0  0  0
   -1.4087    0.1336   -0.1938 C   0  0  0  0  0  0  0  0  0  0  0  0
   -0.7060    1.3306   -0.2589 C   0  0  0  0  0  0  0  0  0  0  0  0
    0.6871    1.2984   -0.3619 C   0  0  0  0  0  0  0  0  0  0  0  0
    1.3669    0.0794   -0.3910 C   0  0  0  0  0  0  0  0  0  0  0  0
    2.7519    0.0381   -0.5105 N   0  0  0  0  0  0  0  0  0  0  0  0
    3.5608    0.9689    0.2963 C   0  0  0  0  0  0  0  0  0  0  0  0
    4.6328    0.2121    1.0996 C   0  0  0  0  0  0  0  0  0  0  0  0
    5.5159   -0.5716    0.2856 O   0  0  0  0  0  0  0  0  0  0  0  0
    4.8631   -1.1661   -0.8489 C   0  0  0  0  0  0  0  0  0  0  0  0
    3.3400   -1.2994   -0.6949 C   0  0  0  0  0  0  0  0  0  0  0  0
    0.6784   -1.0822   -0.3508 N   0  0  0  0  0  0  0  0  0  0  0  0
   -0.6738   -1.0382   -0.2506 C   0  0  0  0  0  0  0  0  0  0  0  0
   -3.7271   -1.9198    2.5124 H   0  0  0  0  0  0  0  0  0  0  0  0
   -2.7465   -2.6489    1.2402 H   0  0  0  0  0  0  0  0  0  0  0  0
   -2.1084   -1.2965    2.2179 H   0  0  0  0  0  0  0  0  0  0  0  0
   -5.7342   -0.9453    1.0552 H   0  0  0  0  0  0  0  0  0  0  0  0
   -5.9141    1.0357   -0.7629 H   0  0  0  0  0  0  0  0  0  0  0  0
   -3.0591    2.8579   -1.3934 H   0  0  0  0  0  0  0  0  0  0  0  0
   -2.5260    1.5305   -2.4642 H   0  0  0  0  0  0  0  0  0  0  0  0
   -4.1935    2.0892   -2.5038 H   0  0  0  0  0  0  0  0  0  0  0  0
   -1.2035    2.2924   -0.1945 H   0  0  0  0  0  0  0  0  0  0  0  0
    1.2312    2.2341   -0.4349 H   0  0  0  0  0  0  0  0  0  0  0  0
    4.0495    1.6684   -0.3918 H   0  0  0  0  0  0  0  0  0  0  0  0
    2.9573    1.5523    1.0009 H   0  0  0  0  0  0  0  0  0  0  0  0
    4.1636   -0.4577    1.8301 H   0  0  0  0  0  0  0  0  0  0  0  0
    5.2490    0.9218    1.6611 H   0  0  0  0  0  0  0  0  0  0  0  0
    5.3150   -2.1502   -1.0086 H   0  0  0  0  0  0  0  0  0  0  0  0
    5.1031   -0.5490   -1.7227 H   0  0  0  0  0  0  0  0  0  0  0  0
    2.9339   -1.7750   -1.5956 H   0  0  0  0  0  0  0  0  0  0  0  0
    3.1193   -1.9357    0.1719 H   0  0  0  0  0  0  0  0  0  0  0  0
   -1.1432   -2.0165   -0.2636 H   0  0  0  0  0  0  0  0  0  0  0  0
  1  2  1  0
  2  3  2  0
  3  4  1  0
  4  5  2  0
  5  6  1  0
  5  7  1  0
  7  8  1  0
  8  9  2  0
  9 10  1  0
 10 11  2  0
 11 12  1  0
 12 13  1  0
 13 14  1  0
 14 15  1  0
 15 16  1  0
 16 17  1  0
 11 18  1  0
 18 19  2  0
  7  2  1  0
 19  8  1  0
 17 12  1  0
  1 20  1  0
  1 21  1  0
  1 22  1  0
  3 23  1  0
  4 24  1  0
  6 25  1  0
  6 26  1  0
  6 27  1  0
  9 28  1  0
 10 29  1  0
 13 30  1  0
 13 31  1  0
 14 32  1  0
 14 33  1  0
 16 34  1  0
 16 35  1  0
 17 36  1  0
 17 37  1  0
 19 38  1  0
M  END
$$$$
