
     RDKit          3D

 41 42  0  0  0  0  0  0  0  0999 V2000
   -6.6295    2.7905   -2.4514 C   0  0  0  0  0  0  0  0  0  0  0  0
   -5.0272    3.4242   -3.0133 S   0  0  0  0  0  0  0  0  0  0  0  0
   -3.9360    2.3561   -2.0910 C   0  0  0  0  0  0  0  0  0  0  0  0
   -3.9913    0.9658   -2.2170 C   0  0  0  0  0  0  0  0  0  0  0  0
   -3.1160    0.1555   -1.4884 C   0  0  0  0  0  0  0  0  0  0  0  0
   -2.1613    0.7231   -0.6325 C   0  0  0  0  0  0  0  0  0  0  0  0
   -1.2188   -0.1566    0.1656 C   0  0  0  0  0  0  0  0  0  0  0  0
   -0.4230   -1.0639   -0.6829 N   0  0  0  0  0  0  0  0  0  0  0  0
    0.5732   -0.3360   -1.4678 C   0  0  0  0  0  0  0  0  0  0  0  0
    0.1701   -2.1621    0.1079 C   0  0  0  0  0  0  0  0  0  0  0  0
    1.1849   -1.6920    1.1623 C   0  0  0  0  0  0  0  0  0  0  0  0
    0.8119   -1.2263    2.2358 O   0  0  0  0  0  0  0  0  0  0  0  0
    2.4994   -1.8400    0.7441 N   0  0  0  0  0  0  0  0  0  0  0  0
    3.6719   -1.5011    1.4512 C   0  0  0  0  0  0  0  0  0  0  0  0
    3.6799   -0.9687    2.7426 C   0  0  0  0  0  0  0  0  0  0  0  0
    4.8877   -0.6576    3.3772 C   0  0  0  0  0  0  0  0  0  0  0  0
    6.0994   -0.8760    2.7262 C   0  0  0  0  0  0  0  0  0  0  0  0
    6.0962   -1.4070    1.4403 C   0  0  0  0  0  0  0  0  0  0  0  0
    7.7358   -1.7076    0.5470 Br  0  0  0  0  0  0  0  0  0  0  0  0
    4.8940   -1.7199    0.8022 C   0  0  0  0  0  0  0  0  0  0  0  0
   -2.1042    2.1182   -0.5167 C   0  0  0  0  0  0  0  0  0  0  0  0
   -2.9810    2.9273   -1.2457 C   0  0  0  0  0  0  0  0  0  0  0  0
   -7.4239    3.4270   -2.8506 H   0  0  0  0  0  0  0  0  0  0  0  0
   -6.6878    2.8072   -1.3596 H   0  0  0  0  0  0  0  0  0  0  0  0
   -6.7943    1.7714   -2.8100 H   0  0  0  0  0  0  0  0  0  0  0  0
   -4.7027    0.4968   -2.8909 H   0  0  0  0  0  0  0  0  0  0  0  0
   -3.1681   -0.9256   -1.6000 H   0  0  0  0  0  0  0  0  0  0  0  0
   -0.5683    0.4666    0.7921 H   0  0  0  0  0  0  0  0  0  0  0  0
   -1.8500   -0.7380    0.8512 H   0  0  0  0  0  0  0  0  0  0  0  0
    0.0935    0.3452   -2.1787 H   0  0  0  0  0  0  0  0  0  0  0  0
    1.1696   -1.0308   -2.0700 H   0  0  0  0  0  0  0  0  0  0  0  0
    1.2551    0.2517   -0.8435 H   0  0  0  0  0  0  0  0  0  0  0  0
   -0.6163   -2.7241    0.6273 H   0  0  0  0  0  0  0  0  0  0  0  0
    0.6390   -2.8875   -0.5684 H   0  0  0  0  0  0  0  0  0  0  0  0
    2.6368   -2.2109   -0.1880 H   0  0  0  0  0  0  0  0  0  0  0  0
    2.7613   -0.7816    3.2902 H   0  0  0  0  0  0  0  0  0  0  0  0
    4.8761   -0.2434    4.3826 H   0  0  0  0  0  0  0  0  0  0  0  0
    7.0318   -0.6308    3.2274 H   0  0  0  0  0  0  0  0  0  0  0  0
    4.9192   -2.1338   -0.2019 H   0  0  0  0  0  0  0  0  0  0  0  0
   -1.3738    2.5871    0.1389 H   0  0  0  0  0  0  0  0  0  0  0  0
   -2.9135    4.0078   -1.1435 H   0  0  0  0  0  0  0  0  0  0  0  0
  1  2  1  0
  2  3  1  0
  3  4  2  0
  4  5  1  0
  5  6  2  0
  6  7  1  0
  7  8  1  0
  8  9  1  0
  8 10  1  0
 10 11  1  0
 11 12  2  0
 11 13  1  0
 13 14  1  0
 14 15  2  0
 15 16  1  0
 16 17  2  0
 17 18  1  0
 18 19  1  0
 18 20  2  0
  6 21  1  0
 21 22  2  0
 22  3  1  0
 20 14  1  0
  1 23  1  0
  1 24  1  0
  1 25  1  0
  4 26  1  0
  5 27  1  0
  7 28  1  0
  7 29  1  0
  9 30  1  0
  9 31  1  0
  9 32  1  0
 10 33  1  0
 10 34  1  0
 13 35  1  0
 15 36  1  0
 16 37  1  0
 17 38  1  0
 20 39  1  0
 21 40  1  0
 22 41  1  0
M  END
$$$$
