
     RDKit          3D

 40 42  0  0  0  0  0  0  0  0999 V2000
    4.2167   -3.5191   -1.1957 C   0  0  0  0  0  0  0  0  0  0  0  0
    3.0120   -2.7305   -0.7842 C   0  0  0  0  0  0  0  0  0  0  0  0
    1.8553   -3.0805   -0.9696 O   0  0  0  0  0  0  0  0  0  0  0  0
    3.3927   -1.5664   -0.1919 O   0  0  0  0  0  0  0  0  0  0  0  0
    2.3175   -0.7401    0.2909 C   0  0  0  0  0  0  0  0  0  0  0  0
    1.6622    0.0489   -0.8475 C   0  0  0  0  0  0  0  0  0  0  0  0
    0.5967    0.9275   -0.3504 N   0  0  0  0  0  0  0  0  0  0  0  0
    0.8948    2.2189    0.0672 C   0  0  0  0  0  0  0  0  0  0  0  0
    2.0976    2.7089    0.0624 N   0  0  0  0  0  0  0  0  0  0  0  0
    2.3552    3.9842    0.4819 C   0  0  0  0  0  0  0  0  0  0  0  0
    3.4762    4.3416    0.8272 O   0  0  0  0  0  0  0  0  0  0  0  0
    1.3373    4.8906    0.5338 N   0  0  0  0  0  0  0  0  0  0  0  0
    0.0817    4.5181    0.9032 C   0  0  0  0  0  0  0  0  0  0  0  0
   -0.6898    5.2415    1.5101 O   0  0  0  0  0  0  0  0  0  0  0  0
   -0.2385    3.0899    0.5541 C   0  0  0  0  0  0  0  0  0  0  0  0
   -1.4535    2.6486    0.6673 N   0  0  0  0  0  0  0  0  0  0  0  0
   -1.7112    1.3075    0.3259 C   0  0  0  0  0  0  0  0  0  0  0  0
   -3.0232    0.8544    0.5085 C   0  0  0  0  0  0  0  0  0  0  0  0
   -3.3943   -0.4614    0.2069 C   0  0  0  0  0  0  0  0  0  0  0  0
   -4.8170   -0.8960    0.4249 C   0  0  0  0  0  0  0  0  0  0  0  0
   -2.4200   -1.3423   -0.2876 C   0  0  0  0  0  0  0  0  0  0  0  0
   -2.7553   -2.7712   -0.6245 C   0  0  0  0  0  0  0  0  0  0  0  0
   -1.1009   -0.8834   -0.4740 C   0  0  0  0  0  0  0  0  0  0  0  0
   -0.7170    0.4362   -0.1779 C   0  0  0  0  0  0  0  0  0  0  0  0
    4.7873   -2.9609   -1.9420 H   0  0  0  0  0  0  0  0  0  0  0  0
    3.8956   -4.4671   -1.6368 H   0  0  0  0  0  0  0  0  0  0  0  0
    4.8348   -3.7360   -0.3209 H   0  0  0  0  0  0  0  0  0  0  0  0
    1.5923   -1.3501    0.8429 H   0  0  0  0  0  0  0  0  0  0  0  0
    2.7559   -0.0499    1.0203 H   0  0  0  0  0  0  0  0  0  0  0  0
    1.3065   -0.6081   -1.6487 H   0  0  0  0  0  0  0  0  0  0  0  0
    2.4392    0.6408   -1.3501 H   0  0  0  0  0  0  0  0  0  0  0  0
    1.6233    5.7855    0.9039 H   0  0  0  0  0  0  0  0  0  0  0  0
   -3.7605    1.5550    0.8969 H   0  0  0  0  0  0  0  0  0  0  0  0
   -4.8592   -1.6998    1.1667 H   0  0  0  0  0  0  0  0  0  0  0  0
   -5.4373   -0.0725    0.7946 H   0  0  0  0  0  0  0  0  0  0  0  0
   -5.2580   -1.2423   -0.5151 H   0  0  0  0  0  0  0  0  0  0  0  0
   -1.8767   -3.3195   -0.9808 H   0  0  0  0  0  0  0  0  0  0  0  0
   -3.1300   -3.2927    0.2619 H   0  0  0  0  0  0  0  0  0  0  0  0
   -3.5097   -2.8070   -1.4167 H   0  0  0  0  0  0  0  0  0  0  0  0
   -0.3785   -1.6013   -0.8535 H   0  0  0  0  0  0  0  0  0  0  0  0
  1  2  1  0
  2  3  2  0
  2  4  1  0
  4  5  1  0
  5  6  1  0
  6  7  1  0
  7  8  1  0
  8  9  2  0
  9 10  1  0
 10 11  2  0
 10 12  1  0
 12 13  1  0
 13 14  2  0
 13 15  1  0
 15 16  2  0
 16 17  1  0
 17 18  2  0
 18 19  1  0
 19 20  1  0
 19 21  2  0
 21 22  1  0
 21 23  1  0
 23 24  2  0
 24  7  1  0
 15  8  1  0
 24 17  1  0
  1 25  1  0
  1 26  1  0
  1 27  1  0
  5 28  1  0
  5 29  1  0
  6 30  1  0
  6 31  1  0
 12 32  1  0
 18 33  1  0
 20 34  1  0
 20 35  1  0
 20 36  1  0
 22 37  1  0
 22 38  1  0
 22 39  1  0
 23 40  1  0
M  END
$$$$
