
     RDKit          3D

 98 98  0  0  0  0  0  0  0  0999 V2000
    9.8852   -3.2412    2.1058 C   0  0  0  0  0  0  0  0  0  0  0  0
   10.7478   -2.4120    3.0441 C   0  0  0  0  0  0  0  0  0  0  0  0
   10.8354   -0.9372    2.6448 C   0  0  0  0  0  0  0  0  0  0  0  0
    9.5031   -0.1959    2.7805 C   0  0  0  0  0  0  0  0  0  0  0  0
    9.6127    1.3025    2.4799 C   0  0  0  0  0  0  0  0  0  0  0  0
   10.1032    1.6662    1.0768 C   0  0  0  0  0  0  0  0  0  0  0  0
    9.3691    1.0299   -0.1081 C   0  0  0  0  0  0  0  0  0  0  0  0
    7.9687    1.5808   -0.3954 C   0  0  0  0  0  0  0  0  0  0  0  0
    6.8524    0.9251    0.4195 C   0  0  0  0  0  0  0  0  0  0  0  0
    5.4733    1.3623   -0.0829 C   0  0  0  0  0  0  0  0  0  0  0  0
    4.3542    0.7544    0.7664 C   0  0  0  0  0  0  0  0  0  0  0  0
    2.9518    1.1647    0.3054 C   0  0  0  0  0  0  0  0  0  0  0  0
    2.5733    0.7516   -1.1214 C   0  0  0  0  0  0  0  0  0  0  0  0
    2.5976   -0.7648   -1.3446 C   0  0  0  0  0  0  0  0  0  0  0  0
    2.2236   -1.1470   -2.7741 C   0  0  0  0  0  0  0  0  0  0  0  0
    0.7842   -0.8244   -3.0898 C   0  0  0  0  0  0  0  0  0  0  0  0
   -0.1708   -1.2599   -2.4607 O   0  0  0  0  0  0  0  0  0  0  0  0
    0.7200    0.0178   -4.1546 O   0  0  0  0  0  0  0  0  0  0  0  0
   -0.5924    0.4405   -4.5397 C   0  0  0  0  0  0  0  0  0  0  0  0
   -0.8142    1.8295   -4.0206 C   0  0  0  0  0  0  0  0  0  0  0  0
   -1.7747    2.2787   -3.1868 C   0  0  0  0  0  0  0  0  0  0  0  0
   -1.8238    3.7463   -2.8356 C   0  0  0  0  0  0  0  0  0  0  0  0
   -2.7610    1.3999   -2.5655 C   0  0  0  0  0  0  0  0  0  0  0  0
   -3.9280    1.7892   -2.0242 C   0  0  0  0  0  0  0  0  0  0  0  0
   -4.8554    0.8573   -1.4135 C   0  0  0  0  0  0  0  0  0  0  0  0
   -6.1160    1.1083   -0.9995 C   0  0  0  0  0  0  0  0  0  0  0  0
   -6.8094    2.4428   -1.1248 C   0  0  0  0  0  0  0  0  0  0  0  0
   -6.8726    0.0162   -0.3776 C   0  0  0  0  0  0  0  0  0  0  0  0
   -8.1718    0.0391   -0.0346 C   0  0  0  0  0  0  0  0  0  0  0  0
   -8.8611   -1.0718    0.6203 C   0  0  0  0  0  0  0  0  0  0  0  0
   -9.0233   -2.2771    0.0195 C   0  0  0  0  0  0  0  0  0  0  0  0
   -8.5498   -2.6196   -1.3736 C   0  0  0  0  0  0  0  0  0  0  0  0
   -9.7287   -3.4325    0.6978 C   0  0  0  0  0  0  0  0  0  0  0  0
  -10.5545   -3.0366    1.9147 C   0  0  0  0  0  0  0  0  0  0  0  0
   -9.7741   -2.0691    2.7903 C   0  0  0  0  0  0  0  0  0  0  0  0
   -9.3968   -0.7658    2.0367 C   0  0  0  0  0  0  0  0  0  0  0  0
   -8.3493   -0.0399    2.9141 C   0  0  0  0  0  0  0  0  0  0  0  0
  -10.6460    0.1378    1.9280 C   0  0  0  0  0  0  0  0  0  0  0  0
    9.9414   -4.3007    2.3790 H   0  0  0  0  0  0  0  0  0  0  0  0
   10.2244   -3.1419    1.0686 H   0  0  0  0  0  0  0  0  0  0  0  0
    8.8344   -2.9419    2.1563 H   0  0  0  0  0  0  0  0  0  0  0  0
   10.3681   -2.5012    4.0677 H   0  0  0  0  0  0  0  0  0  0  0  0
   11.7612   -2.8307    3.0467 H   0  0  0  0  0  0  0  0  0  0  0  0
   11.5827   -0.4502    3.2833 H   0  0  0  0  0  0  0  0  0  0  0  0
   11.2065   -0.8707    1.6157 H   0  0  0  0  0  0  0  0  0  0  0  0
    9.1353   -0.3125    3.8073 H   0  0  0  0  0  0  0  0  0  0  0  0
    8.7475   -0.6486    2.1314 H   0  0  0  0  0  0  0  0  0  0  0  0
   10.3004    1.7541    3.2070 H   0  0  0  0  0  0  0  0  0  0  0  0
    8.6417    1.7752    2.6617 H   0  0  0  0  0  0  0  0  0  0  0  0
   11.1641    1.3938    1.0005 H   0  0  0  0  0  0  0  0  0  0  0  0
   10.0740    2.7579    0.9715 H   0  0  0  0  0  0  0  0  0  0  0  0
    9.3452   -0.0614   -0.0232 H   0  0  0  0  0  0  0  0  0  0  0  0
    9.9790    1.2405   -0.9967 H   0  0  0  0  0  0  0  0  0  0  0  0
    7.7599    1.4067   -1.4599 H   0  0  0  0  0  0  0  0  0  0  0  0
    7.9528    2.6681   -0.2515 H   0  0  0  0  0  0  0  0  0  0  0  0
    6.9451    1.1895    1.4767 H   0  0  0  0  0  0  0  0  0  0  0  0
    6.9327   -0.1671    0.3455 H   0  0  0  0  0  0  0  0  0  0  0  0
    5.3974    2.4562   -0.0612 H   0  0  0  0  0  0  0  0  0  0  0  0
    5.3657    1.0496   -1.1274 H   0  0  0  0  0  0  0  0  0  0  0  0
    4.4800    1.0818    1.8054 H   0  0  0  0  0  0  0  0  0  0  0  0
    4.4437   -0.3373    0.7799 H   0  0  0  0  0  0  0  0  0  0  0  0
    2.2193    0.7388    1.0025 H   0  0  0  0  0  0  0  0  0  0  0  0
    2.8592    2.2552    0.3864 H   0  0  0  0  0  0  0  0  0  0  0  0
    3.2326    1.2456   -1.8442 H   0  0  0  0  0  0  0  0  0  0  0  0
    1.5636    1.1322   -1.3214 H   0  0  0  0  0  0  0  0  0  0  0  0
    3.6030   -1.1548   -1.1493 H   0  0  0  0  0  0  0  0  0  0  0  0
    1.9164   -1.2503   -0.6347 H   0  0  0  0  0  0  0  0  0  0  0  0
    2.8876   -0.6431   -3.4868 H   0  0  0  0  0  0  0  0  0  0  0  0
    2.3577   -2.2240   -2.9290 H   0  0  0  0  0  0  0  0  0  0  0  0
   -0.6027    0.4770   -5.6340 H   0  0  0  0  0  0  0  0  0  0  0  0
   -1.3650   -0.2802   -4.2586 H   0  0  0  0  0  0  0  0  0  0  0  0
   -0.1021    2.5514   -4.4193 H   0  0  0  0  0  0  0  0  0  0  0  0
   -2.7254    4.2149   -3.2455 H   0  0  0  0  0  0  0  0  0  0  0  0
   -1.8102    3.8876   -1.7487 H   0  0  0  0  0  0  0  0  0  0  0  0
   -0.9647    4.2954   -3.2379 H   0  0  0  0  0  0  0  0  0  0  0  0
   -2.5200    0.3381   -2.5500 H   0  0  0  0  0  0  0  0  0  0  0  0
   -4.2029    2.8376   -2.0362 H   0  0  0  0  0  0  0  0  0  0  0  0
   -4.4577   -0.1508   -1.2879 H   0  0  0  0  0  0  0  0  0  0  0  0
   -6.1841    3.2266   -1.5560 H   0  0  0  0  0  0  0  0  0  0  0  0
   -7.6922    2.3595   -1.7692 H   0  0  0  0  0  0  0  0  0  0  0  0
   -7.1270    2.8016   -0.1395 H   0  0  0  0  0  0  0  0  0  0  0  0
   -6.3111   -0.8947   -0.1726 H   0  0  0  0  0  0  0  0  0  0  0  0
   -8.7810    0.9242   -0.1936 H   0  0  0  0  0  0  0  0  0  0  0  0
   -7.6834   -3.2886   -1.3211 H   0  0  0  0  0  0  0  0  0  0  0  0
   -9.3419   -3.1304   -1.9321 H   0  0  0  0  0  0  0  0  0  0  0  0
   -8.2730   -1.7481   -1.9710 H   0  0  0  0  0  0  0  0  0  0  0  0
  -10.3947   -3.9387   -0.0115 H   0  0  0  0  0  0  0  0  0  0  0  0
   -8.9689   -4.1661    0.9988 H   0  0  0  0  0  0  0  0  0  0  0  0
  -11.5018   -2.5842    1.5954 H   0  0  0  0  0  0  0  0  0  0  0  0
  -10.8131   -3.9350    2.4895 H   0  0  0  0  0  0  0  0  0  0  0  0
   -8.8637   -2.5759    3.1413 H   0  0  0  0  0  0  0  0  0  0  0  0
  -10.3614   -1.8358    3.6878 H   0  0  0  0  0  0  0  0  0  0  0  0
   -8.7231    0.0944    3.9359 H   0  0  0  0  0  0  0  0  0  0  0  0
   -7.4168   -0.6117    2.9733 H   0  0  0  0  0  0  0  0  0  0  0  0
   -8.1077    0.9580    2.5298 H   0  0  0  0  0  0  0  0  0  0  0  0
  -11.3974   -0.2809    1.2510 H   0  0  0  0  0  0  0  0  0  0  0  0
  -11.1201    0.2814    2.9070 H   0  0  0  0  0  0  0  0  0  0  0  0
  -10.3908    1.1350    1.5502 H   0  0  0  0  0  0  0  0  0  0  0  0
  1  2  1  0
  2  3  1  0
  3  4  1  0
  4  5  1  0
  5  6  1  0
  6  7  1  0
  7  8  1  0
  8  9  1  0
  9 10  1  0
 10 11  1  0
 11 12  1  0
 12 13  1  0
 13 14  1  0
 14 15  1  0
 15 16  1  0
 16 17  2  0
 16 18  1  0
 18 19  1  0
 19 20  1  0
 20 21  2  3
 21 22  1  0
 21 23  1  0
 23 24  2  3
 24 25  1  0
 25 26  2  3
 26 27  1  0
 26 28  1  0
 28 29  2  3
 29 30  1  0
 30 31  2  0
 31 32  1  0
 31 33  1  0
 33 34  1  0
 34 35  1  0
 35 36  1  0
 36 37  1  0
 36 38  1  0
 36 30  1  0
  1 39  1  0
  1 40  1  0
  1 41  1  0
  2 42  1  0
  2 43  1  0
  3 44  1  0
  3 45  1  0
  4 46  1  0
  4 47  1  0
  5 48  1  0
  5 49  1  0
  6 50  1  0
  6 51  1  0
  7 52  1  0
  7 53  1  0
  8 54  1  0
  8 55  1  0
  9 56  1  0
  9 57  1  0
 10 58  1  0
 10 59  1  0
 11 60  1  0
 11 61  1  0
 12 62  1  0
 12 63  1  0
 13 64  1  0
 13 65  1  0
 14 66  1  0
 14 67  1  0
 15 68  1  0
 15 69  1  0
 19 70  1  0
 19 71  1  0
 20 72  1  0
 22 73  1  0
 22 74  1  0
 22 75  1  0
 23 76  1  0
 24 77  1  0
 25 78  1  0
 27 79  1  0
 27 80  1  0
 27 81  1  0
 28 82  1  0
 29 83  1  0
 32 84  1  0
 32 85  1  0
 32 86  1  0
 33 87  1  0
 33 88  1  0
 34 89  1  0
 34 90  1  0
 35 91  1  0
 35 92  1  0
 37 93  1  0
 37 94  1  0
 37 95  1  0
 38 96  1  0
 38 97  1  0
 38 98  1  0
M  END
$$$$
