
     RDKit          3D

 57 60  0  0  0  0  0  0  0  0999 V2000
    3.0578    2.8929   -1.5118 O   0  0  0  0  0  0  0  0  0  0  0  0
    3.4548    1.5066   -1.4069 S   0  0  0  0  0  6  0  0  0  0  0  0
    3.7510    0.7053   -2.5729 O   0  0  0  0  0  0  0  0  0  0  0  0
    4.7744    1.4637   -0.3909 N   0  0  0  0  0  0  0  0  0  0  0  0
    5.4412    0.2164   -0.0555 C   0  0  0  0  0  0  0  0  0  0  0  0
    6.9509    0.3631   -0.1858 C   0  0  0  0  0  0  0  0  0  0  0  0
    7.4942   -0.7799    0.6610 C   0  0  0  0  0  0  0  0  0  0  0  0
    6.4559   -1.0126    1.7588 C   0  0  0  0  0  0  0  0  0  0  0  0
    5.2658   -0.1180    1.4203 C   0  0  0  0  0  0  0  0  0  0  0  0
    2.2142    0.6675   -0.4499 C   0  0  0  0  0  0  0  0  0  0  0  0
    1.8819   -0.6584   -0.7473 C   0  0  0  0  0  0  0  0  0  0  0  0
    0.9036   -1.3072    0.0073 C   0  0  0  0  0  0  0  0  0  0  0  0
    0.2466   -0.6154    1.0324 C   0  0  0  0  0  0  0  0  0  0  0  0
   -0.9758   -1.4592    2.0220 S   0  0  0  0  0  6  0  0  0  0  0  0
   -1.0377   -0.7772    3.2973 O   0  0  0  0  0  0  0  0  0  0  0  0
   -0.6863   -2.8752    1.9427 O   0  0  0  0  0  0  0  0  0  0  0  0
   -2.4214   -1.1693    1.1994 N   0  0  0  0  0  0  0  0  0  0  0  0
   -2.9802    0.2169    1.2158 C   0  0  0  0  0  0  0  0  0  0  0  0
   -3.1374    0.7882   -0.2034 C   0  0  0  0  0  0  0  0  0  0  0  0
   -4.0178   -0.0517   -1.0414 N   0  0  0  0  0  0  0  0  0  0  0  0
   -5.3118    0.3949   -1.3475 C   0  0  0  0  0  0  0  0  0  0  0  0
   -5.9492   -0.0955   -2.4997 C   0  0  0  0  0  0  0  0  0  0  0  0
   -7.2401    0.3081   -2.8537 C   0  0  0  0  0  0  0  0  0  0  0  0
   -7.9259    1.2160   -2.0554 C   0  0  0  0  0  0  0  0  0  0  0  0
   -7.3187    1.7166   -0.9085 C   0  0  0  0  0  0  0  0  0  0  0  0
   -6.0254    1.3092   -0.5603 C   0  0  0  0  0  0  0  0  0  0  0  0
   -3.9768   -1.5053   -0.7351 C   0  0  0  0  0  0  0  0  0  0  0  0
   -2.6433   -1.9089   -0.0784 C   0  0  0  0  0  0  0  0  0  0  0  0
    0.5900    0.7076    1.3367 C   0  0  0  0  0  0  0  0  0  0  0  0
    1.5690    1.3565    0.5835 C   0  0  0  0  0  0  0  0  0  0  0  0
    5.0573    2.3458    0.0302 H   0  0  0  0  0  0  0  0  0  0  0  0
    5.0944   -0.6174   -0.6765 H   0  0  0  0  0  0  0  0  0  0  0  0
    7.2940    1.3238    0.2193 H   0  0  0  0  0  0  0  0  0  0  0  0
    7.2873    0.3042   -1.2256 H   0  0  0  0  0  0  0  0  0  0  0  0
    8.4820   -0.5480    1.0715 H   0  0  0  0  0  0  0  0  0  0  0  0
    7.5946   -1.6855    0.0508 H   0  0  0  0  0  0  0  0  0  0  0  0
    6.8560   -0.7702    2.7489 H   0  0  0  0  0  0  0  0  0  0  0  0
    6.1571   -2.0668    1.7754 H   0  0  0  0  0  0  0  0  0  0  0  0
    4.3117   -0.6141    1.6239 H   0  0  0  0  0  0  0  0  0  0  0  0
    5.2985    0.7883    2.0385 H   0  0  0  0  0  0  0  0  0  0  0  0
    2.3836   -1.1906   -1.5535 H   0  0  0  0  0  0  0  0  0  0  0  0
    0.6608   -2.3464   -0.2067 H   0  0  0  0  0  0  0  0  0  0  0  0
   -2.3529    0.8918    1.8048 H   0  0  0  0  0  0  0  0  0  0  0  0
   -3.9540    0.1720    1.7173 H   0  0  0  0  0  0  0  0  0  0  0  0
   -3.4617    1.8339   -0.1664 H   0  0  0  0  0  0  0  0  0  0  0  0
   -2.1524    0.8093   -0.6872 H   0  0  0  0  0  0  0  0  0  0  0  0
   -5.4240   -0.7876   -3.1533 H   0  0  0  0  0  0  0  0  0  0  0  0
   -7.7018   -0.0839   -3.7556 H   0  0  0  0  0  0  0  0  0  0  0  0
   -8.9288    1.5338   -2.3264 H   0  0  0  0  0  0  0  0  0  0  0  0
   -7.8510    2.4236   -0.2774 H   0  0  0  0  0  0  0  0  0  0  0  0
   -5.6052    1.7093    0.3564 H   0  0  0  0  0  0  0  0  0  0  0  0
   -4.7973   -1.7699   -0.0541 H   0  0  0  0  0  0  0  0  0  0  0  0
   -4.0998   -2.0845   -1.6575 H   0  0  0  0  0  0  0  0  0  0  0  0
   -1.8252   -1.7051   -0.7766 H   0  0  0  0  0  0  0  0  0  0  0  0
   -2.6656   -2.9839    0.1299 H   0  0  0  0  0  0  0  0  0  0  0  0
    0.1080    1.2338    2.1584 H   0  0  0  0  0  0  0  0  0  0  0  0
    1.8310    2.3887    0.8082 H   0  0  0  0  0  0  0  0  0  0  0  0
  1  2  2  0
  2  3  2  0
  2  4  1  0
  4  5  1  0
  5  6  1  0
  6  7  1  0
  7  8  1  0
  8  9  1  0
  2 10  1  0
 10 11  2  0
 11 12  1  0
 12 13  2  0
 13 14  1  0
 14 15  2  0
 14 16  2  0
 14 17  1  0
 17 18  1  0
 18 19  1  0
 19 20  1  0
 20 21  1  0
 21 22  2  0
 22 23  1  0
 23 24  2  0
 24 25  1  0
 25 26  2  0
 20 27  1  0
 27 28  1  0
 13 29  1  0
 29 30  2  0
  9  5  1  0
 30 10  1  0
 28 17  1  0
 26 21  1  0
  4 31  1  0
  5 32  1  0
  6 33  1  0
  6 34  1  0
  7 35  1  0
  7 36  1  0
  8 37  1  0
  8 38  1  0
  9 39  1  0
  9 40  1  0
 11 41  1  0
 12 42  1  0
 18 43  1  0
 18 44  1  0
 19 45  1  0
 19 46  1  0
 22 47  1  0
 23 48  1  0
 24 49  1  0
 25 50  1  0
 26 51  1  0
 27 52  1  0
 27 53  1  0
 28 54  1  0
 28 55  1  0
 29 56  1  0
 30 57  1  0
M  END
$$$$
