
     RDKit          3D

 66 68  0  0  0  0  0  0  0  0999 V2000
   -2.0708   -4.1957    2.3668 C   0  0  0  0  0  0  0  0  0  0  0  0
   -1.5855   -3.1229    1.3950 C   0  0  0  0  0  0  0  0  0  0  0  0
   -2.6655   -2.5814    0.5768 N   0  0  0  0  0  0  0  0  0  0  0  0
   -3.7658   -1.9069    1.2627 C   0  0  0  0  0  0  0  0  0  0  0  0
   -3.3833   -0.8666    2.3121 C   0  0  0  0  0  0  0  0  0  0  0  0
   -2.2726   -2.0281   -0.7201 C   0  0  0  0  0  0  0  0  0  0  0  0
   -1.9071   -0.5367   -0.8271 C   0  0  0  0  0  0  0  0  0  0  0  0
   -0.5536   -0.1413   -0.1872 C   0  0  0  0  0  0  0  0  0  0  0  0
    0.6419   -0.6964   -0.9558 C   0  0  0  0  0  0  0  0  0  0  0  0
    1.5403   -1.5650   -0.3279 C   0  0  0  0  0  0  0  0  0  0  0  0
    2.6551   -2.0730   -1.0126 C   0  0  0  0  0  0  0  0  0  0  0  0
    2.9368   -1.7323   -2.3454 C   0  0  0  0  0  0  0  0  0  0  0  0
    4.0445   -2.2467   -3.0353 N   0  0  0  0  0  0  0  0  0  0  0  0
    5.0490   -3.0094   -2.2969 C   0  0  0  0  0  0  0  0  0  0  0  0
    4.5445   -1.5012   -4.1898 C   0  0  0  0  0  0  0  0  0  0  0  0
    2.0118   -0.8701   -2.9619 C   0  0  0  0  0  0  0  0  0  0  0  0
    0.8943   -0.3555   -2.2859 C   0  0  0  0  0  0  0  0  0  0  0  0
   -0.3698    1.3499    0.1405 C   0  0  0  0  0  0  0  0  0  0  0  0
   -0.8758    2.4012   -0.6495 C   0  0  0  0  0  0  0  0  0  0  0  0
   -1.5480    2.0835   -1.8015 O   0  0  0  0  0  0  0  0  0  0  0  0
   -2.6478    2.9360   -2.1249 C   0  0  0  0  0  0  0  0  0  0  0  0
   -0.6324    3.7351   -0.2904 C   0  0  0  0  0  0  0  0  0  0  0  0
    0.0849    4.0462    0.8689 C   0  0  0  0  0  0  0  0  0  0  0  0
    0.3170    5.3666    1.1700 O   0  0  0  0  0  0  0  0  0  0  0  0
   -0.8537    5.9495    1.7505 C   0  0  0  0  0  0  0  0  0  0  0  0
    0.6273    3.0342    1.6588 C   0  0  0  0  0  0  0  0  0  0  0  0
    1.4492    3.3016    2.8344 C   0  0  0  0  0  0  0  0  0  0  0  0
    1.9717    2.2924    3.5377 C   0  0  0  0  0  0  0  0  0  0  0  0
    1.7267    0.8861    3.1840 C   0  0  0  0  0  0  0  0  0  0  0  0
    2.2211   -0.0275    3.8351 O   0  0  0  0  0  0  0  0  0  0  0  0
    0.9119    0.6601    2.0851 O   0  0  0  0  0  0  0  0  0  0  0  0
    0.3814    1.7088    1.2869 C   0  0  0  0  0  0  0  0  0  0  0  0
   -2.7445   -3.7852    3.1253 H   0  0  0  0  0  0  0  0  0  0  0  0
   -2.5962   -4.9989    1.8371 H   0  0  0  0  0  0  0  0  0  0  0  0
   -1.2178   -4.6444    2.8877 H   0  0  0  0  0  0  0  0  0  0  0  0
   -1.0633   -2.3420    1.9555 H   0  0  0  0  0  0  0  0  0  0  0  0
   -0.8360   -3.6014    0.7521 H   0  0  0  0  0  0  0  0  0  0  0  0
   -4.4381   -1.4391    0.5295 H   0  0  0  0  0  0  0  0  0  0  0  0
   -4.3835   -2.6721    1.7516 H   0  0  0  0  0  0  0  0  0  0  0  0
   -2.8597   -1.3205    3.1605 H   0  0  0  0  0  0  0  0  0  0  0  0
   -4.2863   -0.3884    2.7046 H   0  0  0  0  0  0  0  0  0  0  0  0
   -2.7468   -0.0799    1.9009 H   0  0  0  0  0  0  0  0  0  0  0  0
   -1.4771   -2.6394   -1.1644 H   0  0  0  0  0  0  0  0  0  0  0  0
   -3.1290   -2.1850   -1.3890 H   0  0  0  0  0  0  0  0  0  0  0  0
   -1.9043   -0.2944   -1.8972 H   0  0  0  0  0  0  0  0  0  0  0  0
   -2.7177    0.0616   -0.3952 H   0  0  0  0  0  0  0  0  0  0  0  0
   -0.5712   -0.6330    0.7885 H   0  0  0  0  0  0  0  0  0  0  0  0
    1.3890   -1.8590    0.7084 H   0  0  0  0  0  0  0  0  0  0  0  0
    3.3038   -2.7413   -0.4540 H   0  0  0  0  0  0  0  0  0  0  0  0
    5.8224   -3.3954   -2.9709 H   0  0  0  0  0  0  0  0  0  0  0  0
    4.6055   -3.8888   -1.8156 H   0  0  0  0  0  0  0  0  0  0  0  0
    5.5453   -2.3871   -1.5444 H   0  0  0  0  0  0  0  0  0  0  0  0
    4.7787   -0.4652   -3.9216 H   0  0  0  0  0  0  0  0  0  0  0  0
    3.8233   -1.5171   -5.0139 H   0  0  0  0  0  0  0  0  0  0  0  0
    5.4618   -1.9513   -4.5856 H   0  0  0  0  0  0  0  0  0  0  0  0
    2.1314   -0.5769   -3.9995 H   0  0  0  0  0  0  0  0  0  0  0  0
    0.2260    0.3165   -2.8190 H   0  0  0  0  0  0  0  0  0  0  0  0
   -3.2645    2.4147   -2.8626 H   0  0  0  0  0  0  0  0  0  0  0  0
   -3.2732    3.1401   -1.2482 H   0  0  0  0  0  0  0  0  0  0  0  0
   -2.2980    3.8667   -2.5847 H   0  0  0  0  0  0  0  0  0  0  0  0
   -0.9642    4.5514   -0.9240 H   0  0  0  0  0  0  0  0  0  0  0  0
   -1.0965    5.4627    2.7032 H   0  0  0  0  0  0  0  0  0  0  0  0
   -1.7098    5.9010    1.0694 H   0  0  0  0  0  0  0  0  0  0  0  0
   -0.6378    7.0041    1.9485 H   0  0  0  0  0  0  0  0  0  0  0  0
    1.6509    4.3315    3.1101 H   0  0  0  0  0  0  0  0  0  0  0  0
    2.5999    2.4609    4.4037 H   0  0  0  0  0  0  0  0  0  0  0  0
  1  2  1  0
  2  3  1  0
  3  4  1  0
  4  5  1  0
  3  6  1  0
  6  7  1  0
  7  8  1  0
  8  9  1  0
  9 10  2  0
 10 11  1  0
 11 12  2  0
 12 13  1  0
 13 14  1  0
 13 15  1  0
 12 16  1  0
 16 17  2  0
  8 18  1  0
 18 19  2  0
 19 20  1  0
 20 21  1  0
 19 22  1  0
 22 23  2  0
 23 24  1  0
 24 25  1  0
 23 26  1  0
 26 27  1  0
 27 28  2  0
 28 29  1  0
 29 30  2  0
 29 31  1  0
 31 32  1  0
 17  9  1  0
 32 18  1  0
 32 26  2  0
  1 33  1  0
  1 34  1  0
  1 35  1  0
  2 36  1  0
  2 37  1  0
  4 38  1  0
  4 39  1  0
  5 40  1  0
  5 41  1  0
  5 42  1  0
  6 43  1  0
  6 44  1  0
  7 45  1  0
  7 46  1  0
  8 47  1  0
 10 48  1  0
 11 49  1  0
 14 50  1  0
 14 51  1  0
 14 52  1  0
 15 53  1  0
 15 54  1  0
 15 55  1  0
 16 56  1  0
 17 57  1  0
 21 58  1  0
 21 59  1  0
 21 60  1  0
 22 61  1  0
 25 62  1  0
 25 63  1  0
 25 64  1  0
 27 65  1  0
 28 66  1  0
M  END
$$$$
