
     RDKit          3D

 56 59  0  0  0  0  0  0  0  0999 V2000
    6.6538    2.7703    1.6467 C   0  0  0  0  0  0  0  0  0  0  0  0
    5.4596    2.2082    0.9323 C   0  0  0  0  0  0  0  0  0  0  0  0
    5.6291    1.3669   -0.1754 C   0  0  0  0  0  0  0  0  0  0  0  0
    4.5210    0.8189   -0.8232 C   0  0  0  0  0  0  0  0  0  0  0  0
    3.2365    1.0880   -0.3414 C   0  0  0  0  0  0  0  0  0  0  0  0
    1.8216    0.4183   -1.1906 S   0  0  0  0  0  6  0  0  0  0  0  0
    0.7022    1.2951   -0.9183 O   0  0  0  0  0  0  0  0  0  0  0  0
    2.2240    0.1509   -2.5570 O   0  0  0  0  0  0  0  0  0  0  0  0
    1.5170   -1.0862   -0.4107 N   0  0  0  0  0  0  0  0  0  0  0  0
    0.8537   -0.9846    0.9210 C   0  0  0  0  0  0  0  0  0  0  0  0
   -0.6438   -0.7304    0.8263 C   0  0  0  0  0  0  0  0  0  0  0  0
   -1.2592   -0.2382    1.7712 O   0  0  0  0  0  0  0  0  0  0  0  0
   -1.2045   -1.2042   -0.3577 N   0  0  0  0  0  0  0  0  0  0  0  0
   -2.5464   -1.3198   -0.6041 N   0  0  0  0  0  0  0  0  0  0  0  0
   -3.3072   -0.3426   -0.2126 C   0  0  0  0  0  0  0  0  0  0  0  0
   -4.7762   -0.3877   -0.3910 C   0  0  0  0  0  0  0  0  0  0  0  0
   -5.3747   -1.5317   -0.9385 C   0  0  0  0  0  0  0  0  0  0  0  0
   -6.7580   -1.5849   -1.1168 C   0  0  0  0  0  0  0  0  0  0  0  0
   -7.5492   -0.5017   -0.7385 C   0  0  0  0  0  0  0  0  0  0  0  0
   -6.9590    0.6331   -0.1814 C   0  0  0  0  0  0  0  0  0  0  0  0
   -5.5673    0.7086   -0.0244 C   0  0  0  0  0  0  0  0  0  0  0  0
   -4.9511    1.8249    0.4865 O   0  0  0  0  0  0  0  0  0  0  0  0
   -5.8139    2.9660    0.4815 C   0  0  0  0  0  0  0  0  0  0  0  0
   -7.1786    2.5974    1.0324 C   0  0  0  0  0  0  0  0  0  0  0  0
   -7.8182    1.6411    0.1811 O   0  0  0  0  0  0  0  0  0  0  0  0
    2.5633   -2.0754   -0.5460 C   0  0  0  0  0  0  0  0  0  0  0  0
    2.6534   -2.7916   -1.7421 C   0  0  0  0  0  0  0  0  0  0  0  0
    3.6875   -3.7119   -1.9366 C   0  0  0  0  0  0  0  0  0  0  0  0
    4.6465   -3.9125   -0.9426 C   0  0  0  0  0  0  0  0  0  0  0  0
    4.5773   -3.1881    0.2460 C   0  0  0  0  0  0  0  0  0  0  0  0
    3.5457   -2.2728    0.4340 C   0  0  0  0  0  0  0  0  0  0  0  0
    3.5102   -1.5742    1.5788 F   0  0  0  0  0  0  0  0  0  0  0  0
    3.0526    1.9389    0.7514 C   0  0  0  0  0  0  0  0  0  0  0  0
    4.1654    2.4838    1.3943 C   0  0  0  0  0  0  0  0  0  0  0  0
    7.4885    2.9211    0.9541 H   0  0  0  0  0  0  0  0  0  0  0  0
    6.4209    3.7438    2.0905 H   0  0  0  0  0  0  0  0  0  0  0  0
    6.9709    2.0862    2.4396 H   0  0  0  0  0  0  0  0  0  0  0  0
    6.6272    1.1410   -0.5454 H   0  0  0  0  0  0  0  0  0  0  0  0
    4.6683    0.1853   -1.6952 H   0  0  0  0  0  0  0  0  0  0  0  0
    1.3114   -0.1983    1.5275 H   0  0  0  0  0  0  0  0  0  0  0  0
    0.9579   -1.9293    1.4692 H   0  0  0  0  0  0  0  0  0  0  0  0
   -0.6181   -1.8044   -0.9318 H   0  0  0  0  0  0  0  0  0  0  0  0
   -2.8916    0.5745    0.2388 H   0  0  0  0  0  0  0  0  0  0  0  0
   -4.7658   -2.3845   -1.2303 H   0  0  0  0  0  0  0  0  0  0  0  0
   -7.2172   -2.4722   -1.5451 H   0  0  0  0  0  0  0  0  0  0  0  0
   -8.6276   -0.5440   -0.8674 H   0  0  0  0  0  0  0  0  0  0  0  0
   -5.8822    3.3489   -0.5442 H   0  0  0  0  0  0  0  0  0  0  0  0
   -5.3487    3.7368    1.1038 H   0  0  0  0  0  0  0  0  0  0  0  0
   -7.1053    2.1730    2.0413 H   0  0  0  0  0  0  0  0  0  0  0  0
   -7.8210    3.4822    1.0794 H   0  0  0  0  0  0  0  0  0  0  0  0
    1.9254   -2.6327   -2.5349 H   0  0  0  0  0  0  0  0  0  0  0  0
    3.7482   -4.2665   -2.8708 H   0  0  0  0  0  0  0  0  0  0  0  0
    5.4512   -4.6273   -1.0995 H   0  0  0  0  0  0  0  0  0  0  0  0
    5.3227   -3.3249    1.0234 H   0  0  0  0  0  0  0  0  0  0  0  0
    2.0548    2.1856    1.1078 H   0  0  0  0  0  0  0  0  0  0  0  0
    4.0168    3.1339    2.2545 H   0  0  0  0  0  0  0  0  0  0  0  0
  1  2  1  0
  2  3  2  0
  3  4  1  0
  4  5  2  0
  5  6  1  0
  6  7  2  0
  6  8  2  0
  6  9  1  0
  9 10  1  0
 10 11  1  0
 11 12  2  0
 11 13  1  0
 13 14  1  0
 14 15  2  3
 15 16  1  0
 16 17  2  0
 17 18  1  0
 18 19  2  0
 19 20  1  0
 20 21  2  0
 21 22  1  0
 22 23  1  0
 23 24  1  0
 24 25  1  0
  9 26  1  0
 26 27  2  0
 27 28  1  0
 28 29  2  0
 29 30  1  0
 30 31  2  0
 31 32  1  0
  5 33  1  0
 33 34  2  0
 34  2  1  0
 21 16  1  0
 31 26  1  0
 25 20  1  0
  1 35  1  0
  1 36  1  0
  1 37  1  0
  3 38  1  0
  4 39  1  0
 10 40  1  0
 10 41  1  0
 13 42  1  0
 15 43  1  0
 17 44  1  0
 18 45  1  0
 19 46  1  0
 23 47  1  0
 23 48  1  0
 24 49  1  0
 24 50  1  0
 27 51  1  0
 28 52  1  0
 29 53  1  0
 30 54  1  0
 33 55  1  0
 34 56  1  0
M  END
$$$$
