
     RDKit          3D

 30 32  0  0  0  0  0  0  0  0999 V2000
    3.3880   -3.1218    1.0470 O   0  0  0  0  0  0  0  0  0  0  0  0
    4.1060   -2.1723    0.7045 N   0  0  0  0  0  4  0  0  0  0  0  0
    5.3447   -2.1764    0.7491 O   0  0  0  0  0  1  0  0  0  0  0  0
    3.4464   -0.9583    0.2076 C   0  0  0  0  0  0  0  0  0  0  0  0
    4.2240    0.1060   -0.2676 C   0  0  0  0  0  0  0  0  0  0  0  0
    3.5959    1.2588   -0.7385 C   0  0  0  0  0  0  0  0  0  0  0  0
    2.2009    1.3488   -0.7378 C   0  0  0  0  0  0  0  0  0  0  0  0
    1.4203    0.2812   -0.2706 C   0  0  0  0  0  0  0  0  0  0  0  0
   -0.0722    0.3639   -0.2377 C   0  0  0  0  0  0  0  0  0  0  0  0
   -0.7245   -0.4240    0.5760 N   0  0  0  0  0  0  0  0  0  0  0  0
   -2.1129   -0.2563    0.7423 C   0  0  0  0  0  0  0  0  0  0  0  0
   -2.8636   -1.3273    1.2293 C   0  0  0  0  0  0  0  0  0  0  0  0
   -4.2305   -1.1803    1.4770 C   0  0  0  0  0  0  0  0  0  0  0  0
   -4.8550    0.0463    1.2501 C   0  0  0  0  0  0  0  0  0  0  0  0
   -4.1160    1.1286    0.7713 C   0  0  0  0  0  0  0  0  0  0  0  0
   -2.7509    0.9762    0.5172 C   0  0  0  0  0  0  0  0  0  0  0  0
   -1.7827    2.3244   -0.1357 S   0  0  0  0  0  0  0  0  0  0  0  0
   -0.7652    1.3532   -1.1445 C   0  0  0  0  0  0  0  0  0  0  0  0
   -0.6840    1.4810   -2.4290 N   0  0  0  0  0  0  0  0  0  0  0  0
    0.1509    0.5084   -2.9921 O   0  0  0  0  0  0  0  0  0  0  0  0
    2.0481   -0.8759    0.2127 C   0  0  0  0  0  0  0  0  0  0  0  0
    5.3113    0.0532   -0.2760 H   0  0  0  0  0  0  0  0  0  0  0  0
    4.1929    2.0913   -1.1061 H   0  0  0  0  0  0  0  0  0  0  0  0
    1.7437    2.2649   -1.1058 H   0  0  0  0  0  0  0  0  0  0  0  0
   -2.3757   -2.2786    1.4254 H   0  0  0  0  0  0  0  0  0  0  0  0
   -4.8050   -2.0223    1.8556 H   0  0  0  0  0  0  0  0  0  0  0  0
   -5.9184    0.1591    1.4475 H   0  0  0  0  0  0  0  0  0  0  0  0
   -4.6103    2.0802    0.5937 H   0  0  0  0  0  0  0  0  0  0  0  0
    0.0493    0.6705   -3.9502 H   0  0  0  0  0  0  0  0  0  0  0  0
    1.4445   -1.7023    0.5853 H   0  0  0  0  0  0  0  0  0  0  0  0
  1  2  2  0
  2  3  1  0
  2  4  1  0
  4  5  2  0
  5  6  1  0
  6  7  2  0
  7  8  1  0
  8  9  1  0
  9 10  2  0
 10 11  1  0
 11 12  2  0
 12 13  1  0
 13 14  2  0
 14 15  1  0
 15 16  2  0
 16 17  1  0
 17 18  1  0
 18 19  2  3
 19 20  1  0
  8 21  2  0
 21  4  1  0
 18  9  1  0
 16 11  1  0
  5 22  1  0
  6 23  1  0
  7 24  1  0
 12 25  1  0
 13 26  1  0
 14 27  1  0
 15 28  1  0
 20 29  1  0
 21 30  1  0
M  CHG  2   2   1   3  -1
M  END
$$$$
