
     RDKit          3D

 47 50  0  0  0  0  0  0  0  0999 V2000
    2.8430   -0.4985   -3.1557 C   0  0  0  0  0  0  0  0  0  0  0  0
    3.2586   -0.5206   -1.7962 O   0  0  0  0  0  0  0  0  0  0  0  0
    2.3210   -0.8016   -0.8381 C   0  0  0  0  0  0  0  0  0  0  0  0
    0.9764   -1.0811   -1.1251 C   0  0  0  0  0  0  0  0  0  0  0  0
    0.0730   -1.4072   -0.1036 C   0  0  0  0  0  0  0  0  0  0  0  0
   -1.3207   -1.7006   -0.4361 C   0  0  0  0  0  0  0  0  0  0  0  0
   -2.3637   -0.8870   -0.2264 C   0  0  0  0  0  0  0  0  0  0  0  0
   -3.6523   -1.2166   -0.5634 N   0  0  0  0  0  0  0  0  0  0  0  0
   -4.3226   -0.1699   -0.2007 C   0  0  0  0  0  0  0  0  0  0  0  0
   -5.7743    0.0354   -0.3254 C   0  0  0  0  0  0  0  0  0  0  0  0
   -6.3836    1.2227    0.0992 C   0  0  0  0  0  0  0  0  0  0  0  0
   -7.7644    1.3851   -0.0357 C   0  0  0  0  0  0  0  0  0  0  0  0
   -8.5378    0.3669   -0.5927 C   0  0  0  0  0  0  0  0  0  0  0  0
   -7.9350   -0.8173   -1.0158 C   0  0  0  0  0  0  0  0  0  0  0  0
   -6.5555   -0.9850   -0.8829 C   0  0  0  0  0  0  0  0  0  0  0  0
   -3.6358    0.8553    0.3518 O   0  0  0  0  0  0  0  0  0  0  0  0
   -2.3258    0.4801    0.3735 C   0  0  0  0  0  0  0  0  0  0  0  0
   -1.3927    1.1380    0.7857 O   0  0  0  0  0  0  0  0  0  0  0  0
    0.5174   -1.4736    1.2162 C   0  0  0  0  0  0  0  0  0  0  0  0
    1.8500   -1.1941    1.5128 C   0  0  0  0  0  0  0  0  0  0  0  0
    2.7498   -0.8380    0.5005 C   0  0  0  0  0  0  0  0  0  0  0  0
    4.0172   -0.5955    0.9669 O   0  0  0  0  0  0  0  0  0  0  0  0
    4.7959    0.3713    0.2552 C   0  0  0  0  0  0  0  0  0  0  0  0
    5.7781    0.9857    1.1595 C   0  0  0  0  0  0  0  0  0  0  0  0
    5.6975    1.4463    2.4878 C   0  0  0  0  0  0  0  0  0  0  0  0
    4.5338    1.4199    3.4057 C   0  0  0  0  0  0  0  0  0  0  0  0
    6.8681    1.9490    2.8947 N   0  0  0  0  0  0  0  0  0  0  0  0
    7.7412    1.8293    1.8133 O   0  0  0  0  0  0  0  0  0  0  0  0
    7.0178    1.2186    0.7357 N   0  0  0  0  0  4  0  0  0  0  0  0
    7.6329    1.0633   -0.3431 O   0  0  0  0  0  1  0  0  0  0  0  0
    3.7176   -0.2575   -3.7680 H   0  0  0  0  0  0  0  0  0  0  0  0
    2.0929    0.2807   -3.3279 H   0  0  0  0  0  0  0  0  0  0  0  0
    2.4762   -1.4804   -3.4726 H   0  0  0  0  0  0  0  0  0  0  0  0
    0.6033   -1.0547   -2.1441 H   0  0  0  0  0  0  0  0  0  0  0  0
   -1.4914   -2.6663   -0.9040 H   0  0  0  0  0  0  0  0  0  0  0  0
   -5.8007    2.0301    0.5358 H   0  0  0  0  0  0  0  0  0  0  0  0
   -8.2375    2.3074    0.2936 H   0  0  0  0  0  0  0  0  0  0  0  0
   -9.6125    0.4968   -0.6975 H   0  0  0  0  0  0  0  0  0  0  0  0
   -8.5390   -1.6095   -1.4509 H   0  0  0  0  0  0  0  0  0  0  0  0
   -6.0965   -1.9137   -1.2166 H   0  0  0  0  0  0  0  0  0  0  0  0
   -0.1635   -1.7357    2.0221 H   0  0  0  0  0  0  0  0  0  0  0  0
    2.1898   -1.2425    2.5448 H   0  0  0  0  0  0  0  0  0  0  0  0
    4.1623    1.1740   -0.1431 H   0  0  0  0  0  0  0  0  0  0  0  0
    5.3060   -0.1407   -0.5683 H   0  0  0  0  0  0  0  0  0  0  0  0
    4.6821    2.0901    4.2601 H   0  0  0  0  0  0  0  0  0  0  0  0
    3.6228    1.7352    2.8861 H   0  0  0  0  0  0  0  0  0  0  0  0
    4.3806    0.4065    3.7906 H   0  0  0  0  0  0  0  0  0  0  0  0
  1  2  1  0
  2  3  1  0
  3  4  2  0
  4  5  1  0
  5  6  1  0
  6  7  2  3
  7  8  1  0
  8  9  2  0
  9 10  1  0
 10 11  2  0
 11 12  1  0
 12 13  2  0
 13 14  1  0
 14 15  2  0
  9 16  1  0
 16 17  1  0
 17 18  2  0
  5 19  2  0
 19 20  1  0
 20 21  2  0
 21 22  1  0
 22 23  1  0
 23 24  1  0
 24 25  1  0
 25 26  1  0
 25 27  2  0
 27 28  1  0
 28 29  1  0
 29 30  1  0
 21  3  1  0
 29 24  2  0
 17  7  1  0
 15 10  1  0
  1 31  1  0
  1 32  1  0
  1 33  1  0
  4 34  1  0
  6 35  1  0
 11 36  1  0
 12 37  1  0
 13 38  1  0
 14 39  1  0
 15 40  1  0
 19 41  1  0
 20 42  1  0
 23 43  1  0
 23 44  1  0
 26 45  1  0
 26 46  1  0
 26 47  1  0
M  CHG  2  29   1  30  -1
M  END
$$$$
