
     RDKit          3D

 43 45  0  0  0  0  0  0  0  0999 V2000
   -0.7426   -1.9913   -3.4943 C   0  0  0  0  0  0  0  0  0  0  0  0
    0.1717   -2.3840   -2.3642 C   0  0  0  0  0  0  0  0  0  0  0  0
    0.3058   -3.5568   -2.0162 O   0  0  0  0  0  0  0  0  0  0  0  0
    0.9055   -1.2966   -1.6751 C   0  0  0  0  0  0  0  0  0  0  0  0
    0.2640   -0.6001   -0.7104 C   0  0  0  0  0  0  0  0  0  0  0  0
   -1.0461   -0.8704   -0.3115 N   0  0  0  0  0  0  0  0  0  0  0  0
   -1.2929   -1.9930    0.6353 C   0  0  0  0  0  0  0  0  0  0  0  0
   -2.7912   -2.1252    0.9746 C   0  0  0  0  0  0  0  0  0  0  0  0
   -3.3457   -0.9220    1.6346 N   0  0  0  0  0  0  0  0  0  0  0  0
   -4.8019   -0.9041    1.5223 C   0  0  0  0  0  0  0  0  0  0  0  0
   -2.7338    0.3167    1.1131 C   0  0  0  0  0  0  0  0  0  0  0  0
   -2.0788    0.1913   -0.2783 C   0  0  0  0  0  0  0  0  0  0  0  0
    0.9517    0.4189   -0.1017 N   0  0  0  0  0  0  0  0  0  0  0  0
    2.2602    0.7080   -0.3808 C   0  0  0  0  0  0  0  0  0  0  0  0
    2.9739    1.7636    0.4047 C   0  0  0  0  0  0  0  0  0  0  0  0
    2.5808    2.0908    1.7089 C   0  0  0  0  0  0  0  0  0  0  0  0
    3.2611    3.0864    2.4153 C   0  0  0  0  0  0  0  0  0  0  0  0
    4.3351    3.7536    1.8270 C   0  0  0  0  0  0  0  0  0  0  0  0
    4.7382    3.4233    0.5343 C   0  0  0  0  0  0  0  0  0  0  0  0
    4.0624    2.4286   -0.1748 C   0  0  0  0  0  0  0  0  0  0  0  0
    2.9149    0.0963   -1.3223 N   0  0  0  0  0  0  0  0  0  0  0  0
    2.2947   -0.8888   -2.0730 C   0  0  0  0  0  0  0  0  0  0  0  0
    3.1094   -1.5558   -3.4015 S   0  0  0  0  0  0  0  0  0  0  0  0
   -0.6633   -0.9228   -3.7141 H   0  0  0  0  0  0  0  0  0  0  0  0
   -1.7754   -2.2170   -3.2162 H   0  0  0  0  0  0  0  0  0  0  0  0
   -0.4645   -2.5493   -4.3923 H   0  0  0  0  0  0  0  0  0  0  0  0
   -0.7191   -1.8241    1.5557 H   0  0  0  0  0  0  0  0  0  0  0  0
   -0.9462   -2.9352    0.1999 H   0  0  0  0  0  0  0  0  0  0  0  0
   -2.9339   -2.9868    1.6370 H   0  0  0  0  0  0  0  0  0  0  0  0
   -3.3328   -2.3372    0.0424 H   0  0  0  0  0  0  0  0  0  0  0  0
   -5.1348   -0.8052    0.4828 H   0  0  0  0  0  0  0  0  0  0  0  0
   -5.2320   -1.8220    1.9383 H   0  0  0  0  0  0  0  0  0  0  0  0
   -5.2206   -0.0722    2.0993 H   0  0  0  0  0  0  0  0  0  0  0  0
   -3.4530    1.1450    1.1051 H   0  0  0  0  0  0  0  0  0  0  0  0
   -1.9536    0.6100    1.8277 H   0  0  0  0  0  0  0  0  0  0  0  0
   -2.8431   -0.0490   -1.0275 H   0  0  0  0  0  0  0  0  0  0  0  0
   -1.6530    1.1602   -0.5655 H   0  0  0  0  0  0  0  0  0  0  0  0
    0.4586    0.8790    0.6479 H   0  0  0  0  0  0  0  0  0  0  0  0
    1.7726    1.5654    2.2069 H   0  0  0  0  0  0  0  0  0  0  0  0
    2.9614    3.3352    3.4306 H   0  0  0  0  0  0  0  0  0  0  0  0
    4.8659    4.5249    2.3800 H   0  0  0  0  0  0  0  0  0  0  0  0
    5.5817    3.9354    0.0778 H   0  0  0  0  0  0  0  0  0  0  0  0
    4.3888    2.1763   -1.1819 H   0  0  0  0  0  0  0  0  0  0  0  0
  1  2  1  0
  2  3  2  0
  2  4  1  0
  4  5  2  0
  5  6  1  0
  6  7  1  0
  7  8  1  0
  8  9  1  0
  9 10  1  0
  9 11  1  0
 11 12  1  0
  5 13  1  0
 13 14  1  0
 14 15  1  0
 15 16  2  0
 16 17  1  0
 17 18  2  0
 18 19  1  0
 19 20  2  0
 14 21  2  0
 21 22  1  0
 22 23  2  0
 22  4  1  0
 12  6  1  0
 20 15  1  0
  1 24  1  0
  1 25  1  0
  1 26  1  0
  7 27  1  0
  7 28  1  0
  8 29  1  0
  8 30  1  0
 10 31  1  0
 10 32  1  0
 10 33  1  0
 11 34  1  0
 11 35  1  0
 12 36  1  0
 12 37  1  0
 13 38  1  0
 16 39  1  0
 17 40  1  0
 18 41  1  0
 19 42  1  0
 20 43  1  0
M  END
$$$$
