
     RDKit          3D

 52 55  0  0  0  0  0  0  0  0999 V2000
    0.6185   -1.1577    0.8752 O   0  0  0  0  0  0  0  0  0  0  0  0
   -0.4188   -0.9057    0.2631 C   0  0  0  0  0  0  0  0  0  0  0  0
   -1.4529   -1.8271    0.1568 N   0  0  0  0  0  0  0  0  0  0  0  0
   -1.2880   -3.1874    0.6217 C   0  0  0  0  0  0  0  0  0  0  0  0
   -2.6154   -3.9234    0.7619 C   0  0  0  0  0  0  0  0  0  0  0  0
   -2.1864   -5.3810    0.8275 C   0  0  0  0  0  0  0  0  0  0  0  0
   -1.0050   -5.4868   -0.1350 C   0  0  0  0  0  0  0  0  0  0  0  0
   -0.5025   -4.0592   -0.3602 C   0  0  0  0  0  0  0  0  0  0  0  0
   -0.7070    0.4595   -0.4165 C   0  0  0  0  0  0  0  0  0  0  0  0
   -1.7494    1.3323    0.2822 C   0  0  0  0  0  0  0  0  0  0  0  0
   -2.2173    1.0845    1.5781 C   0  0  0  0  0  0  0  0  0  0  0  0
   -3.1773    1.9295    2.1168 C   0  0  0  0  0  0  0  0  0  0  0  0
   -3.7012    2.9880    1.4649 N   0  0  0  0  0  0  0  0  0  0  0  0
   -3.2369    3.2218    0.2206 C   0  0  0  0  0  0  0  0  0  0  0  0
   -2.2820    2.4350   -0.4043 C   0  0  0  0  0  0  0  0  0  0  0  0
    0.5637    1.1326   -0.7610 N   0  0  0  0  0  0  0  0  0  0  0  0
    1.1470    0.7381   -1.9865 C   0  0  0  0  0  0  0  0  0  0  0  0
    0.4580    0.1913   -2.8537 O   0  0  0  0  0  0  0  0  0  0  0  0
    2.5812    0.9095   -2.1681 C   0  0  0  0  0  0  0  0  0  0  0  0
    3.6601    0.8329   -1.3018 C   0  0  0  0  0  0  0  0  0  0  0  0
    4.8246    1.0693   -2.0715 C   0  0  0  0  0  0  0  0  0  0  0  0
    4.3951    1.2582   -3.3633 C   0  0  0  0  0  0  0  0  0  0  0  0
    3.0444    1.1529   -3.4363 O   0  0  0  0  0  0  0  0  0  0  0  0
    1.1158    2.1428    0.0892 C   0  0  0  0  0  0  0  0  0  0  0  0
    1.6635    3.3091   -0.4709 C   0  0  0  0  0  0  0  0  0  0  0  0
    2.1873    4.3203    0.3406 C   0  0  0  0  0  0  0  0  0  0  0  0
    2.1648    4.1838    1.7254 C   0  0  0  0  0  0  0  0  0  0  0  0
    1.6202    3.0368    2.2967 C   0  0  0  0  0  0  0  0  0  0  0  0
    1.0963    2.0249    1.4847 C   0  0  0  0  0  0  0  0  0  0  0  0
   -2.1737   -1.6514   -0.5349 H   0  0  0  0  0  0  0  0  0  0  0  0
   -0.7694   -3.1698    1.5893 H   0  0  0  0  0  0  0  0  0  0  0  0
   -3.1724   -3.6118    1.6505 H   0  0  0  0  0  0  0  0  0  0  0  0
   -3.2567   -3.7561   -0.1126 H   0  0  0  0  0  0  0  0  0  0  0  0
   -2.9985   -6.0666    0.5643 H   0  0  0  0  0  0  0  0  0  0  0  0
   -1.8572   -5.6279    1.8440 H   0  0  0  0  0  0  0  0  0  0  0  0
   -1.3186   -5.9282   -1.0887 H   0  0  0  0  0  0  0  0  0  0  0  0
   -0.2217   -6.1287    0.2805 H   0  0  0  0  0  0  0  0  0  0  0  0
    0.5779   -3.9775   -0.2022 H   0  0  0  0  0  0  0  0  0  0  0  0
   -0.6991   -3.7613   -1.3978 H   0  0  0  0  0  0  0  0  0  0  0  0
   -1.2009    0.1810   -1.3586 H   0  0  0  0  0  0  0  0  0  0  0  0
   -1.8485    0.2591    2.1796 H   0  0  0  0  0  0  0  0  0  0  0  0
   -3.5610    1.7700    3.1204 H   0  0  0  0  0  0  0  0  0  0  0  0
   -3.6653    4.0870   -0.2795 H   0  0  0  0  0  0  0  0  0  0  0  0
   -1.9537    2.6845   -1.4094 H   0  0  0  0  0  0  0  0  0  0  0  0
    3.6080    0.6209   -0.2408 H   0  0  0  0  0  0  0  0  0  0  0  0
    5.8494    1.0877   -1.7283 H   0  0  0  0  0  0  0  0  0  0  0  0
    4.8982    1.4576   -4.2992 H   0  0  0  0  0  0  0  0  0  0  0  0
    1.6677    3.4655   -1.5478 H   0  0  0  0  0  0  0  0  0  0  0  0
    2.6079    5.2156   -0.1131 H   0  0  0  0  0  0  0  0  0  0  0  0
    2.5692    4.9691    2.3588 H   0  0  0  0  0  0  0  0  0  0  0  0
    1.6043    2.9236    3.3784 H   0  0  0  0  0  0  0  0  0  0  0  0
    0.7138    1.1328    1.9706 H   0  0  0  0  0  0  0  0  0  0  0  0
  1  2  2  0
  2  3  1  0
  3  4  1  0
  4  5  1  0
  5  6  1  0
  6  7  1  0
  7  8  1  0
  2  9  1  0
  9 10  1  0
 10 11  2  0
 11 12  1  0
 12 13  2  0
 13 14  1  0
 14 15  2  0
  9 16  1  0
 16 17  1  0
 17 18  2  0
 17 19  1  0
 19 20  2  0
 20 21  1  0
 21 22  2  0
 22 23  1  0
 16 24  1  0
 24 25  2  0
 25 26  1  0
 26 27  2  0
 27 28  1  0
 28 29  2  0
  8  4  1  0
 15 10  1  0
 23 19  1  0
 29 24  1  0
  3 30  1  0
  4 31  1  0
  5 32  1  0
  5 33  1  0
  6 34  1  0
  6 35  1  0
  7 36  1  0
  7 37  1  0
  8 38  1  0
  8 39  1  0
  9 40  1  0
 11 41  1  0
 12 42  1  0
 14 43  1  0
 15 44  1  0
 20 45  1  0
 21 46  1  0
 22 47  1  0
 25 48  1  0
 26 49  1  0
 27 50  1  0
 28 51  1  0
 29 52  1  0
M  END
$$$$
