
     RDKit          3D

 41 42  0  0  0  0  0  0  0  0999 V2000
   -7.2326   -1.4240    2.4497 C   0  0  0  0  0  0  0  0  0  0  0  0
   -6.2564   -0.5355    2.9780 O   0  0  0  0  0  0  0  0  0  0  0  0
   -5.0460   -0.5012    2.3419 C   0  0  0  0  0  0  0  0  0  0  0  0
   -4.1450    0.4362    2.8507 C   0  0  0  0  0  0  0  0  0  0  0  0
   -2.8712    0.5788    2.2946 C   0  0  0  0  0  0  0  0  0  0  0  0
   -2.4757   -0.2254    1.2196 C   0  0  0  0  0  0  0  0  0  0  0  0
   -1.0992   -0.0803    0.6151 C   0  0  0  0  0  0  0  0  0  0  0  0
   -1.0623    0.6619   -0.7050 C   0  0  0  0  0  0  0  0  0  0  0  0
   -2.0364    1.0157   -1.3573 O   0  0  0  0  0  0  0  0  0  0  0  0
    0.2633    0.8300   -1.0458 O   0  0  0  0  0  0  0  0  0  0  0  0
    0.3722    1.5461   -2.2496 N   0  0  0  0  0  0  0  0  0  0  0  0
    1.6095    1.7272   -2.6172 C   0  0  0  0  0  0  0  0  0  0  0  0
    1.8359    2.4963   -3.7305 N   0  0  0  0  0  0  0  0  0  0  0  0
    2.7969    1.1527   -1.9276 C   0  0  0  0  0  0  0  0  0  0  0  0
    2.8927   -0.2244   -1.7100 C   0  0  0  0  0  0  0  0  0  0  0  0
    4.0294   -0.7568   -1.0920 C   0  0  0  0  0  0  0  0  0  0  0  0
    5.0732    0.0847   -0.7000 C   0  0  0  0  0  0  0  0  0  0  0  0
    6.2335   -0.3048   -0.0902 O   0  0  0  0  0  0  0  0  0  0  0  0
    6.3815   -1.6912    0.1898 C   0  0  0  0  0  0  0  0  0  0  0  0
    4.9735    1.4603   -0.9356 C   0  0  0  0  0  0  0  0  0  0  0  0
    3.8423    1.9979   -1.5529 C   0  0  0  0  0  0  0  0  0  0  0  0
   -3.3833   -1.1633    0.7094 C   0  0  0  0  0  0  0  0  0  0  0  0
   -4.6598   -1.3008    1.2671 C   0  0  0  0  0  0  0  0  0  0  0  0
   -7.4786   -1.1713    1.4130 H   0  0  0  0  0  0  0  0  0  0  0  0
   -8.1440   -1.3112    3.0447 H   0  0  0  0  0  0  0  0  0  0  0  0
   -6.9055   -2.4654    2.5367 H   0  0  0  0  0  0  0  0  0  0  0  0
   -4.4411    1.0671    3.6852 H   0  0  0  0  0  0  0  0  0  0  0  0
   -2.1975    1.3251    2.7091 H   0  0  0  0  0  0  0  0  0  0  0  0
   -0.6743   -1.0796    0.4608 H   0  0  0  0  0  0  0  0  0  0  0  0
   -0.4482    0.4479    1.3228 H   0  0  0  0  0  0  0  0  0  0  0  0
    0.9888    2.6397   -4.2730 H   0  0  0  0  0  0  0  0  0  0  0  0
    2.6355    2.2405   -4.2983 H   0  0  0  0  0  0  0  0  0  0  0  0
    2.0911   -0.8860   -2.0287 H   0  0  0  0  0  0  0  0  0  0  0  0
    4.0707   -1.8298   -0.9368 H   0  0  0  0  0  0  0  0  0  0  0  0
    7.3484   -1.8314    0.6828 H   0  0  0  0  0  0  0  0  0  0  0  0
    6.3895   -2.2810   -0.7328 H   0  0  0  0  0  0  0  0  0  0  0  0
    5.6036   -2.0407    0.8766 H   0  0  0  0  0  0  0  0  0  0  0  0
    5.7856    2.1178   -0.6336 H   0  0  0  0  0  0  0  0  0  0  0  0
    3.7756    3.0688   -1.7266 H   0  0  0  0  0  0  0  0  0  0  0  0
   -3.1088   -1.7883   -0.1379 H   0  0  0  0  0  0  0  0  0  0  0  0
   -5.3268   -2.0380    0.8336 H   0  0  0  0  0  0  0  0  0  0  0  0
  1  2  1  0
  2  3  1  0
  3  4  2  0
  4  5  1  0
  5  6  2  0
  6  7  1  0
  7  8  1  0
  8  9  2  0
  8 10  1  0
 10 11  1  0
 11 12  2  3
 12 13  1  0
 12 14  1  0
 14 15  2  0
 15 16  1  0
 16 17  2  0
 17 18  1  0
 18 19  1  0
 17 20  1  0
 20 21  2  0
  6 22  1  0
 22 23  2  0
 23  3  1  0
 21 14  1  0
  1 24  1  0
  1 25  1  0
  1 26  1  0
  4 27  1  0
  5 28  1  0
  7 29  1  0
  7 30  1  0
 13 31  1  0
 13 32  1  0
 15 33  1  0
 16 34  1  0
 19 35  1  0
 19 36  1  0
 19 37  1  0
 20 38  1  0
 21 39  1  0
 22 40  1  0
 23 41  1  0
M  END
$$$$
