
     RDKit          3D

 44 46  0  0  0  0  0  0  0  0999 V2000
   -4.0519   -2.0281    0.1067 C   0  0  0  0  0  0  0  0  0  0  0  0
   -5.0924   -0.9444    0.0430 C   0  0  0  0  0  0  0  0  0  0  0  0
   -6.4520   -1.2849    0.1086 C   0  0  0  0  0  0  0  0  0  0  0  0
   -7.4330   -0.2969    0.0514 C   0  0  0  0  0  0  0  0  0  0  0  0
   -7.0644    1.0390   -0.0717 C   0  0  0  0  0  0  0  0  0  0  0  0
   -5.7143    1.3920   -0.1381 C   0  0  0  0  0  0  0  0  0  0  0  0
   -4.7224    0.4078   -0.0815 C   0  0  0  0  0  0  0  0  0  0  0  0
   -3.3746    0.6494   -0.1384 O   0  0  0  0  0  0  0  0  0  0  0  0
   -2.9566    2.0077   -0.2644 C   0  0  0  0  0  0  0  0  0  0  0  0
   -1.4300    2.1030   -0.3135 C   0  0  0  0  0  0  0  0  0  0  0  0
   -0.8767    3.1930   -0.4201 O   0  0  0  0  0  0  0  0  0  0  0  0
   -0.8187    0.8741   -0.2267 N   0  0  0  0  0  0  0  0  0  0  0  0
    0.5353    0.7168   -0.2497 C   0  0  0  0  0  0  0  0  0  0  0  0
    1.4935    1.6028   -0.3499 N   0  0  0  0  0  0  0  0  0  0  0  0
    2.7426    1.0105   -0.3328 N   0  0  0  0  0  0  0  0  0  0  0  0
    2.6735   -0.3008   -0.2218 C   0  0  0  0  0  0  0  0  0  0  0  0
    3.8557   -1.2364   -0.1678 C   0  0  0  0  0  0  0  0  0  0  0  0
    4.5189   -1.2013    1.2161 C   0  0  0  0  0  0  0  0  0  0  0  0
    5.2997    0.0857    1.4935 C   0  0  0  0  0  0  0  0  0  0  0  0
    6.0250    0.6462    0.2702 C   0  0  0  0  0  0  0  0  0  0  0  0
    6.2015   -0.3918   -0.8274 C   0  0  0  0  0  0  0  0  0  0  0  0
    4.8596   -0.9517   -1.3041 C   0  0  0  0  0  0  0  0  0  0  0  0
    1.0603   -0.9025   -0.1273 S   0  0  0  0  0  0  0  0  0  0  0  0
   -3.4000   -1.8768    0.9733 H   0  0  0  0  0  0  0  0  0  0  0  0
   -3.4481   -2.0276   -0.8066 H   0  0  0  0  0  0  0  0  0  0  0  0
   -4.5075   -3.0192    0.2030 H   0  0  0  0  0  0  0  0  0  0  0  0
   -6.7556   -2.3251    0.2049 H   0  0  0  0  0  0  0  0  0  0  0  0
   -8.4840   -0.5699    0.1029 H   0  0  0  0  0  0  0  0  0  0  0  0
   -7.8295    1.8102   -0.1164 H   0  0  0  0  0  0  0  0  0  0  0  0
   -5.4766    2.4464   -0.2338 H   0  0  0  0  0  0  0  0  0  0  0  0
   -3.2874    2.5878    0.6046 H   0  0  0  0  0  0  0  0  0  0  0  0
   -3.3360    2.4354   -1.1995 H   0  0  0  0  0  0  0  0  0  0  0  0
   -1.3986    0.0495   -0.1416 H   0  0  0  0  0  0  0  0  0  0  0  0
    3.4806   -2.2578   -0.3233 H   0  0  0  0  0  0  0  0  0  0  0  0
    5.2150   -2.0482    1.2854 H   0  0  0  0  0  0  0  0  0  0  0  0
    3.7782   -1.3543    2.0110 H   0  0  0  0  0  0  0  0  0  0  0  0
    4.6262    0.8546    1.8912 H   0  0  0  0  0  0  0  0  0  0  0  0
    6.0266   -0.1145    2.2903 H   0  0  0  0  0  0  0  0  0  0  0  0
    5.4617    1.4987   -0.1286 H   0  0  0  0  0  0  0  0  0  0  0  0
    7.0012    1.0425    0.5729 H   0  0  0  0  0  0  0  0  0  0  0  0
    6.7358    0.0478   -1.6775 H   0  0  0  0  0  0  0  0  0  0  0  0
    6.8297   -1.2113   -0.4561 H   0  0  0  0  0  0  0  0  0  0  0  0
    5.0613   -1.8861   -1.8440 H   0  0  0  0  0  0  0  0  0  0  0  0
    4.4286   -0.2713   -2.0497 H   0  0  0  0  0  0  0  0  0  0  0  0
  1  2  1  0
  2  3  2  0
  3  4  1  0
  4  5  2  0
  5  6  1  0
  6  7  2  0
  7  8  1  0
  8  9  1  0
  9 10  1  0
 10 11  2  0
 10 12  1  0
 12 13  1  0
 13 14  2  0
 14 15  1  0
 15 16  2  0
 16 17  1  0
 17 18  1  0
 18 19  1  0
 19 20  1  0
 20 21  1  0
 21 22  1  0
 16 23  1  0
  7  2  1  0
 23 13  1  0
 22 17  1  0
  1 24  1  0
  1 25  1  0
  1 26  1  0
  3 27  1  0
  4 28  1  0
  5 29  1  0
  6 30  1  0
  9 31  1  0
  9 32  1  0
 12 33  1  0
 17 34  1  0
 18 35  1  0
 18 36  1  0
 19 37  1  0
 19 38  1  0
 20 39  1  0
 20 40  1  0
 21 41  1  0
 21 42  1  0
 22 43  1  0
 22 44  1  0
M  END
$$$$
