
     RDKit          3D

 55 58  0  0  0  0  0  0  0  0999 V2000
   -9.6391    1.5191   -0.4251 C   0  0  0  0  0  0  0  0  0  0  0  0
   -8.4138    2.0883    0.2721 C   0  0  0  0  0  0  0  0  0  0  0  0
   -7.1249    1.4728   -0.2698 C   0  0  0  0  0  0  0  0  0  0  0  0
   -5.8979    2.0418    0.4395 C   0  0  0  0  0  0  0  0  0  0  0  0
   -4.6685    1.4902   -0.0932 N   0  0  0  0  0  0  0  0  0  0  0  0
   -4.1943    0.2619    0.3218 C   0  0  0  0  0  0  0  0  0  0  0  0
   -4.7398   -0.4180    1.1832 O   0  0  0  0  0  0  0  0  0  0  0  0
   -2.9750   -0.2424   -0.3687 C   0  0  0  0  0  0  0  0  0  0  0  0
   -2.0136    0.6204   -0.9051 C   0  0  0  0  0  0  0  0  0  0  0  0
   -0.8828    0.1002   -1.5439 C   0  0  0  0  0  0  0  0  0  0  0  0
   -0.6868   -1.2861   -1.6475 C   0  0  0  0  0  0  0  0  0  0  0  0
    0.5458   -1.8480   -2.3348 C   0  0  0  0  0  0  0  0  0  0  0  0
    1.7661   -1.7104   -1.5294 N   0  0  0  0  0  0  0  0  0  0  0  0
    2.1574   -2.7010   -0.6040 C   0  0  0  0  0  0  0  0  0  0  0  0
    1.3910   -4.1662   -0.3036 S   0  0  0  0  0  0  0  0  0  0  0  0
    3.2981   -2.4657    0.1347 N   0  0  0  0  0  0  0  0  0  0  0  0
    4.0512   -1.3350   -0.0251 C   0  0  0  0  0  0  0  0  0  0  0  0
    3.6702   -0.4087   -0.9476 C   0  0  0  0  0  0  0  0  0  0  0  0
    4.5817    0.6097   -0.9212 N   0  0  0  0  0  0  0  0  0  0  0  0
    5.5513    0.3397    0.0243 C   0  0  0  0  0  0  0  0  0  0  0  0
    6.6733    1.0821    0.4052 C   0  0  0  0  0  0  0  0  0  0  0  0
    7.4964    0.5523    1.4089 C   0  0  0  0  0  0  0  0  0  0  0  0
    7.2094   -0.6739    2.0094 C   0  0  0  0  0  0  0  0  0  0  0  0
    7.9470   -1.2772    2.9933 O   0  0  0  0  0  0  0  0  0  0  0  0
    9.1021   -0.5851    3.4504 C   0  0  0  0  0  0  0  0  0  0  0  0
    6.0792   -1.4016    1.6119 C   0  0  0  0  0  0  0  0  0  0  0  0
    5.2350   -0.8925    0.6070 C   0  0  0  0  0  0  0  0  0  0  0  0
    2.5116   -0.5367   -1.7719 C   0  0  0  0  0  0  0  0  0  0  0  0
    2.2256    0.3121   -2.6123 O   0  0  0  0  0  0  0  0  0  0  0  0
   -1.6546   -2.1415   -1.1004 C   0  0  0  0  0  0  0  0  0  0  0  0
   -2.7846   -1.6248   -0.4596 C   0  0  0  0  0  0  0  0  0  0  0  0
  -10.5494    1.9758   -0.0241 H   0  0  0  0  0  0  0  0  0  0  0  0
   -9.6054    1.7163   -1.5013 H   0  0  0  0  0  0  0  0  0  0  0  0
   -9.7079    0.4368   -0.2757 H   0  0  0  0  0  0  0  0  0  0  0  0
   -8.3938    3.1756    0.1337 H   0  0  0  0  0  0  0  0  0  0  0  0
   -8.4927    1.8994    1.3491 H   0  0  0  0  0  0  0  0  0  0  0  0
   -7.1553    0.3832   -0.1469 H   0  0  0  0  0  0  0  0  0  0  0  0
   -7.0465    1.6637   -1.3476 H   0  0  0  0  0  0  0  0  0  0  0  0
   -5.8448    3.1271    0.3043 H   0  0  0  0  0  0  0  0  0  0  0  0
   -5.9460    1.8331    1.5141 H   0  0  0  0  0  0  0  0  0  0  0  0
   -4.3020    1.8955   -0.9427 H   0  0  0  0  0  0  0  0  0  0  0  0
   -2.1112    1.6982   -0.8129 H   0  0  0  0  0  0  0  0  0  0  0  0
   -0.1536    0.7934   -1.9595 H   0  0  0  0  0  0  0  0  0  0  0  0
    0.6667   -1.3342   -3.2970 H   0  0  0  0  0  0  0  0  0  0  0  0
    0.3834   -2.8986   -2.5982 H   0  0  0  0  0  0  0  0  0  0  0  0
    3.5886   -3.1615    0.8121 H   0  0  0  0  0  0  0  0  0  0  0  0
    4.5447    1.4327   -1.5086 H   0  0  0  0  0  0  0  0  0  0  0  0
    6.9065    2.0368   -0.0556 H   0  0  0  0  0  0  0  0  0  0  0  0
    8.3656    1.1343    1.6992 H   0  0  0  0  0  0  0  0  0  0  0  0
    8.8339    0.3776    3.8985 H   0  0  0  0  0  0  0  0  0  0  0  0
    9.8312   -0.4574    2.6434 H   0  0  0  0  0  0  0  0  0  0  0  0
    9.5709   -1.1951    4.2285 H   0  0  0  0  0  0  0  0  0  0  0  0
    5.8604   -2.3552    2.0832 H   0  0  0  0  0  0  0  0  0  0  0  0
   -1.5414   -3.2222   -1.1623 H   0  0  0  0  0  0  0  0  0  0  0  0
   -3.5184   -2.3060   -0.0319 H   0  0  0  0  0  0  0  0  0  0  0  0
  1  2  1  0
  2  3  1  0
  3  4  1  0
  4  5  1  0
  5  6  1  0
  6  7  2  0
  6  8  1  0
  8  9  2  0
  9 10  1  0
 10 11  2  0
 11 12  1  0
 12 13  1  0
 13 14  1  0
 14 15  2  0
 14 16  1  0
 16 17  1  0
 17 18  2  0
 18 19  1  0
 19 20  1  0
 20 21  2  0
 21 22  1  0
 22 23  2  0
 23 24  1  0
 24 25  1  0
 23 26  1  0
 26 27  2  0
 18 28  1  0
 28 29  2  0
 11 30  1  0
 30 31  2  0
 31  8  1  0
 28 13  1  0
 27 17  1  0
 27 20  1  0
  1 32  1  0
  1 33  1  0
  1 34  1  0
  2 35  1  0
  2 36  1  0
  3 37  1  0
  3 38  1  0
  4 39  1  0
  4 40  1  0
  5 41  1  0
  9 42  1  0
 10 43  1  0
 12 44  1  0
 12 45  1  0
 16 46  1  0
 19 47  1  0
 21 48  1  0
 22 49  1  0
 25 50  1  0
 25 51  1  0
 25 52  1  0
 26 53  1  0
 30 54  1  0
 31 55  1  0
M  END
$$$$
