
     RDKit          3D

 42 45  0  0  0  0  0  0  0  0999 V2000
   -3.6327   -1.9805    1.1857 O   0  0  0  0  0  0  0  0  0  0  0  0
   -3.2538   -0.9945    0.5645 C   0  0  0  0  0  0  0  0  0  0  0  0
   -1.9398   -0.5924    0.4865 N   0  0  0  0  0  0  0  0  0  0  0  0
   -0.8525   -1.3589    1.0515 C   0  0  0  0  0  0  0  0  0  0  0  0
   -0.4707   -2.5453    0.1353 C   0  0  0  0  0  0  0  0  0  0  0  0
    0.3387   -2.0907   -1.0952 C   0  0  0  0  0  0  0  0  0  0  0  0
    1.6639   -1.4103   -0.6983 C   0  0  0  0  0  0  0  0  0  0  0  0
    1.4441   -0.4527    0.4238 C   0  0  0  0  0  0  0  0  0  0  0  0
    0.3042   -0.4327    1.2094 C   0  0  0  0  0  0  0  0  0  0  0  0
    0.4924    0.6425    2.0809 C   0  0  0  0  0  0  0  0  0  0  0  0
    1.6462    1.2682    1.8664 N   0  0  0  0  0  0  0  0  0  0  0  0
    2.2612    0.5855    0.8615 N   0  0  0  0  0  0  0  0  0  0  0  0
    3.5688    0.9682    0.4430 C   0  0  0  0  0  0  0  0  0  0  0  0
    4.4192    0.0777   -0.2294 C   0  0  0  0  0  0  0  0  0  0  0  0
    5.7054    0.4734   -0.6188 C   0  0  0  0  0  0  0  0  0  0  0  0
    6.1613    1.7583   -0.3394 C   0  0  0  0  0  0  0  0  0  0  0  0
    5.3312    2.6480    0.3349 C   0  0  0  0  0  0  0  0  0  0  0  0
    4.0492    2.2553    0.7249 C   0  0  0  0  0  0  0  0  0  0  0  0
    3.2951    3.1849    1.3292 F   0  0  0  0  0  0  0  0  0  0  0  0
   -4.2080   -0.1221   -0.1935 C   0  0  0  0  0  0  0  0  0  0  0  0
   -5.5704   -0.3900   -0.1578 C   0  0  0  0  0  0  0  0  0  0  0  0
   -6.4203    0.4453   -0.8760 C   0  0  0  0  0  0  0  0  0  0  0  0
   -5.8836    1.5080   -1.5974 C   0  0  0  0  0  0  0  0  0  0  0  0
   -4.5096    1.6973   -1.5761 C   0  0  0  0  0  0  0  0  0  0  0  0
   -3.6523    0.9080   -0.8943 N   0  0  0  0  0  0  0  0  0  0  0  0
   -1.7475    0.1980   -0.1250 H   0  0  0  0  0  0  0  0  0  0  0  0
   -1.1712   -1.7467    2.0262 H   0  0  0  0  0  0  0  0  0  0  0  0
    0.1398   -3.2574    0.7063 H   0  0  0  0  0  0  0  0  0  0  0  0
   -1.3659   -3.0854   -0.1939 H   0  0  0  0  0  0  0  0  0  0  0  0
   -0.2669   -1.3959   -1.6910 H   0  0  0  0  0  0  0  0  0  0  0  0
    0.5537   -2.9531   -1.7367 H   0  0  0  0  0  0  0  0  0  0  0  0
    2.3628   -2.1900   -0.3748 H   0  0  0  0  0  0  0  0  0  0  0  0
    2.0790   -0.9078   -1.5779 H   0  0  0  0  0  0  0  0  0  0  0  0
   -0.1714    1.0139    2.8515 H   0  0  0  0  0  0  0  0  0  0  0  0
    4.1430   -0.9501   -0.4273 H   0  0  0  0  0  0  0  0  0  0  0  0
    6.3569   -0.2317   -1.1309 H   0  0  0  0  0  0  0  0  0  0  0  0
    7.1600    2.0640   -0.6401 H   0  0  0  0  0  0  0  0  0  0  0  0
    5.6669    3.6559    0.5603 H   0  0  0  0  0  0  0  0  0  0  0  0
   -5.9585   -1.2257    0.4155 H   0  0  0  0  0  0  0  0  0  0  0  0
   -7.4927    0.2695   -0.8716 H   0  0  0  0  0  0  0  0  0  0  0  0
   -6.5235    2.1762   -2.1644 H   0  0  0  0  0  0  0  0  0  0  0  0
   -4.0516    2.5159   -2.1250 H   0  0  0  0  0  0  0  0  0  0  0  0
  1  2  2  0
  2  3  1  0
  3  4  1  0
  4  5  1  0
  5  6  1  0
  6  7  1  0
  7  8  1  0
  8  9  2  0
  9 10  1  0
 10 11  2  0
 11 12  1  0
 12 13  1  0
 13 14  2  0
 14 15  1  0
 15 16  2  0
 16 17  1  0
 17 18  2  0
 18 19  1  0
  2 20  1  0
 20 21  2  0
 21 22  1  0
 22 23  2  0
 23 24  1  0
 24 25  2  0
  9  4  1  0
 18 13  1  0
 25 20  1  0
 12  8  1  0
  3 26  1  0
  4 27  1  0
  5 28  1  0
  5 29  1  0
  6 30  1  0
  6 31  1  0
  7 32  1  0
  7 33  1  0
 10 34  1  0
 14 35  1  0
 15 36  1  0
 16 37  1  0
 17 38  1  0
 21 39  1  0
 22 40  1  0
 23 41  1  0
 24 42  1  0
M  END
$$$$
