
     RDKit          3D

 44 46  0  0  0  0  0  0  0  0999 V2000
   -4.1923    1.8160   -1.4372 C   0  0  0  0  0  0  0  0  0  0  0  0
   -3.7621    0.7209   -0.5050 C   0  0  0  0  0  0  0  0  0  0  0  0
   -4.1297    0.7495    0.8420 C   0  0  0  0  0  0  0  0  0  0  0  0
   -3.7013   -0.2553    1.7087 C   0  0  0  0  0  0  0  0  0  0  0  0
   -2.8894   -1.2998    1.2448 C   0  0  0  0  0  0  0  0  0  0  0  0
   -2.4344   -2.3693    2.1992 C   0  0  0  0  0  0  0  0  0  0  0  0
   -2.5023   -1.3282   -0.1071 C   0  0  0  0  0  0  0  0  0  0  0  0
   -1.6868   -2.3727   -0.4614 O   0  0  0  0  0  0  0  0  0  0  0  0
   -1.2330   -2.4837   -1.8142 C   0  0  0  0  0  0  0  0  0  0  0  0
   -0.1039   -1.5509   -2.0302 C   0  0  0  0  0  0  0  0  0  0  0  0
    0.8772   -1.0234   -1.2285 C   0  0  0  0  0  0  0  0  0  0  0  0
    1.5934   -0.1375   -2.0739 C   0  0  0  0  0  0  0  0  0  0  0  0
    2.7294    0.7152   -1.7218 C   0  0  0  0  0  0  0  0  0  0  0  0
    3.8092    0.6082   -2.3035 O   0  0  0  0  0  0  0  0  0  0  0  0
    2.5492    1.6355   -0.6803 N   0  0  0  0  0  0  0  0  0  0  0  0
    1.2811    1.8760   -0.0035 C   0  0  0  0  0  0  0  0  0  0  0  0
    3.7582    2.1467   -0.0397 C   0  0  0  0  0  0  0  0  0  0  0  0
    4.2652    1.1809    1.0038 C   0  0  0  0  0  0  0  0  0  0  0  0
    3.5579    0.2225    1.5765 N   0  0  0  0  0  0  0  0  0  0  0  0
    4.3459   -0.4678    2.4757 C   0  0  0  0  0  0  0  0  0  0  0  0
    5.6434   -0.0231    2.5948 C   0  0  0  0  0  0  0  0  0  0  0  0
    5.8958    1.3116    1.5518 S   0  0  0  0  0  0  0  0  0  0  0  0
    1.1035   -0.1769   -3.3242 N   0  0  0  0  0  0  0  0  0  0  0  0
    0.0358   -1.0546   -3.2877 O   0  0  0  0  0  0  0  0  0  0  0  0
   -2.9390   -0.3162   -0.9697 C   0  0  0  0  0  0  0  0  0  0  0  0
   -4.4137    1.4131   -2.4314 H   0  0  0  0  0  0  0  0  0  0  0  0
   -5.1019    2.3072   -1.0756 H   0  0  0  0  0  0  0  0  0  0  0  0
   -3.3997    2.5657   -1.5240 H   0  0  0  0  0  0  0  0  0  0  0  0
   -4.7528    1.5534    1.2270 H   0  0  0  0  0  0  0  0  0  0  0  0
   -4.0042   -0.2165    2.7529 H   0  0  0  0  0  0  0  0  0  0  0  0
   -1.3421   -2.3690    2.2752 H   0  0  0  0  0  0  0  0  0  0  0  0
   -2.7761   -3.3519    1.8584 H   0  0  0  0  0  0  0  0  0  0  0  0
   -2.8374   -2.2097    3.2047 H   0  0  0  0  0  0  0  0  0  0  0  0
   -2.0526   -2.3505   -2.5287 H   0  0  0  0  0  0  0  0  0  0  0  0
   -0.8701   -3.5096   -1.9436 H   0  0  0  0  0  0  0  0  0  0  0  0
    1.0419   -1.2212   -0.1790 H   0  0  0  0  0  0  0  0  0  0  0  0
    0.4409    1.7394   -0.6887 H   0  0  0  0  0  0  0  0  0  0  0  0
    1.1775    1.1900    0.8411 H   0  0  0  0  0  0  0  0  0  0  0  0
    1.2549    2.9083    0.3584 H   0  0  0  0  0  0  0  0  0  0  0  0
    4.5286    2.3166   -0.8007 H   0  0  0  0  0  0  0  0  0  0  0  0
    3.5334    3.1151    0.4214 H   0  0  0  0  0  0  0  0  0  0  0  0
    3.9207   -1.3002    3.0236 H   0  0  0  0  0  0  0  0  0  0  0  0
    6.4312   -0.4062    3.2275 H   0  0  0  0  0  0  0  0  0  0  0  0
   -2.6492   -0.2979   -2.0159 H   0  0  0  0  0  0  0  0  0  0  0  0
  1  2  1  0
  2  3  2  0
  3  4  1  0
  4  5  2  0
  5  6  1  0
  5  7  1  0
  7  8  1  0
  8  9  1  0
  9 10  1  0
 10 11  2  0
 11 12  1  0
 12 13  1  0
 13 14  2  0
 13 15  1  0
 15 16  1  0
 15 17  1  0
 17 18  1  0
 18 19  2  0
 19 20  1  0
 20 21  2  0
 21 22  1  0
 12 23  2  0
 23 24  1  0
  7 25  2  0
 25  2  1  0
 24 10  1  0
 22 18  1  0
  1 26  1  0
  1 27  1  0
  1 28  1  0
  3 29  1  0
  4 30  1  0
  6 31  1  0
  6 32  1  0
  6 33  1  0
  9 34  1  0
  9 35  1  0
 11 36  1  0
 16 37  1  0
 16 38  1  0
 16 39  1  0
 17 40  1  0
 17 41  1  0
 20 42  1  0
 21 43  1  0
 25 44  1  0
M  END
$$$$
