
     RDKit          3D

 50 52  0  0  0  0  0  0  0  0999 V2000
   -2.6261   -2.8485   -2.2659 C   0  0  0  0  0  0  0  0  0  0  0  0
   -3.5209   -1.8245   -1.8524 O   0  0  0  0  0  0  0  0  0  0  0  0
   -3.2335   -1.1709   -0.6825 C   0  0  0  0  0  0  0  0  0  0  0  0
   -2.0287   -1.2762    0.0108 C   0  0  0  0  0  0  0  0  0  0  0  0
   -1.8381   -0.5398    1.1870 C   0  0  0  0  0  0  0  0  0  0  0  0
   -0.5664   -0.6418    1.9366 C   0  0  0  0  0  0  0  0  0  0  0  0
   -0.6261   -0.9614    3.1211 O   0  0  0  0  0  0  0  0  0  0  0  0
    0.6275   -0.3774    1.2774 N   0  0  0  0  0  0  0  0  0  0  0  0
    1.8789   -0.6103    2.0049 C   0  0  0  0  0  0  0  0  0  0  0  0
    3.0958   -0.7034    1.0715 C   0  0  0  0  0  0  0  0  0  0  0  0
    3.2352    0.5380    0.2880 N   0  0  0  0  0  0  0  0  0  0  0  0
    4.3306    0.5631   -0.5835 C   0  0  0  0  0  0  0  0  0  0  0  0
    5.4703    1.2554   -0.1356 C   0  0  0  0  0  0  0  0  0  0  0  0
    6.6197    1.3424   -0.9214 C   0  0  0  0  0  0  0  0  0  0  0  0
    7.9913    2.2023   -0.3395 Cl  0  0  0  0  0  0  0  0  0  0  0  0
    6.6647    0.7379   -2.1728 C   0  0  0  0  0  0  0  0  0  0  0  0
    5.5512    0.0388   -2.6373 C   0  0  0  0  0  0  0  0  0  0  0  0
    4.3936   -0.0522   -1.8520 C   0  0  0  0  0  0  0  0  0  0  0  0
    3.0807   -0.9668   -2.5096 Cl  0  0  0  0  0  0  0  0  0  0  0  0
    1.9877    1.1828   -0.1677 C   0  0  0  0  0  0  0  0  0  0  0  0
    0.7458    0.2770   -0.0358 C   0  0  0  0  0  0  0  0  0  0  0  0
   -2.8567    0.2631    1.7131 C   0  0  0  0  0  0  0  0  0  0  0  0
   -4.0699    0.3721    1.0359 C   0  0  0  0  0  0  0  0  0  0  0  0
   -5.1261    1.1409    1.4514 O   0  0  0  0  0  0  0  0  0  0  0  0
   -5.1151    1.5703    2.8071 C   0  0  0  0  0  0  0  0  0  0  0  0
   -4.2372   -0.3240   -0.1759 C   0  0  0  0  0  0  0  0  0  0  0  0
   -5.4460   -0.2487   -0.8336 O   0  0  0  0  0  0  0  0  0  0  0  0
   -5.4226    0.8287   -1.7677 C   0  0  0  0  0  0  0  0  0  0  0  0
   -2.5117   -3.6143   -1.4914 H   0  0  0  0  0  0  0  0  0  0  0  0
   -3.0545   -3.3301   -3.1501 H   0  0  0  0  0  0  0  0  0  0  0  0
   -1.6567   -2.4282   -2.5530 H   0  0  0  0  0  0  0  0  0  0  0  0
   -1.2289   -1.9230   -0.3326 H   0  0  0  0  0  0  0  0  0  0  0  0
    2.0020    0.2252    2.7050 H   0  0  0  0  0  0  0  0  0  0  0  0
    1.7872   -1.5284    2.5961 H   0  0  0  0  0  0  0  0  0  0  0  0
    3.9964   -0.8643    1.6761 H   0  0  0  0  0  0  0  0  0  0  0  0
    2.9769   -1.5690    0.4086 H   0  0  0  0  0  0  0  0  0  0  0  0
    5.4473    1.7352    0.8405 H   0  0  0  0  0  0  0  0  0  0  0  0
    7.5589    0.8033   -2.7870 H   0  0  0  0  0  0  0  0  0  0  0  0
    5.5916   -0.4389   -3.6134 H   0  0  0  0  0  0  0  0  0  0  0  0
    1.8377    2.0641    0.4686 H   0  0  0  0  0  0  0  0  0  0  0  0
    2.0620    1.5568   -1.1959 H   0  0  0  0  0  0  0  0  0  0  0  0
   -0.1499    0.8706   -0.2430 H   0  0  0  0  0  0  0  0  0  0  0  0
    0.7910   -0.5281   -0.7755 H   0  0  0  0  0  0  0  0  0  0  0  0
   -2.6698    0.7894    2.6440 H   0  0  0  0  0  0  0  0  0  0  0  0
   -6.0877    2.0233    3.0216 H   0  0  0  0  0  0  0  0  0  0  0  0
   -4.3494    2.3360    2.9666 H   0  0  0  0  0  0  0  0  0  0  0  0
   -4.9812    0.7277    3.4937 H   0  0  0  0  0  0  0  0  0  0  0  0
   -5.2697    1.7906   -1.2664 H   0  0  0  0  0  0  0  0  0  0  0  0
   -6.3958    0.8599   -2.2667 H   0  0  0  0  0  0  0  0  0  0  0  0
   -4.6552    0.6752   -2.5343 H   0  0  0  0  0  0  0  0  0  0  0  0
  1  2  1  0
  2  3  1  0
  3  4  2  0
  4  5  1  0
  5  6  1  0
  6  7  2  0
  6  8  1  0
  8  9  1  0
  9 10  1  0
 10 11  1  0
 11 12  1  0
 12 13  2  0
 13 14  1  0
 14 15  1  0
 14 16  2  0
 16 17  1  0
 17 18  2  0
 18 19  1  0
 11 20  1  0
 20 21  1  0
  5 22  2  0
 22 23  1  0
 23 24  1  0
 24 25  1  0
 23 26  2  0
 26 27  1  0
 27 28  1  0
 26  3  1  0
 21  8  1  0
 18 12  1  0
  1 29  1  0
  1 30  1  0
  1 31  1  0
  4 32  1  0
  9 33  1  0
  9 34  1  0
 10 35  1  0
 10 36  1  0
 13 37  1  0
 16 38  1  0
 17 39  1  0
 20 40  1  0
 20 41  1  0
 21 42  1  0
 21 43  1  0
 22 44  1  0
 25 45  1  0
 25 46  1  0
 25 47  1  0
 28 48  1  0
 28 49  1  0
 28 50  1  0
M  END
$$$$
