
     RDKit          3D

 92 93  0  0  0  0  0  0  0  0999 V2000
   10.7399    1.2995    2.1741 C   0  0  0  0  0  0  0  0  0  0  0  0
   10.0952    0.9359    0.8451 C   0  0  0  0  0  0  0  0  0  0  0  0
    9.3204    2.1188    0.2621 C   0  0  0  0  0  0  0  0  0  0  0  0
    8.7790    1.8598   -1.1459 C   0  0  0  0  0  0  0  0  0  0  0  0
    7.8297    0.6653   -1.2851 C   0  0  0  0  0  0  0  0  0  0  0  0
    6.5631    0.7934   -0.4335 C   0  0  0  0  0  0  0  0  0  0  0  0
    5.5236   -0.2874   -0.7512 C   0  0  0  0  0  0  0  0  0  0  0  0
    5.9136   -1.6740   -0.2306 C   0  0  0  0  0  0  0  0  0  0  0  0
    5.0140   -2.7955   -0.7607 C   0  0  0  0  0  0  0  0  0  0  0  0
    3.5142   -2.6488   -0.4884 C   0  0  0  0  0  0  0  0  0  0  0  0
    3.1554   -2.6930    0.9998 C   0  0  0  0  0  0  0  0  0  0  0  0
    1.6561   -2.5074    1.2723 C   0  0  0  0  0  0  0  0  0  0  0  0
    0.7847   -3.5963    0.6419 C   0  0  0  0  0  0  0  0  0  0  0  0
   -0.6800   -3.5472    1.0904 C   0  0  0  0  0  0  0  0  0  0  0  0
   -1.4336   -2.2432    0.7980 C   0  0  0  0  0  0  0  0  0  0  0  0
   -1.3723   -1.8379   -0.6753 C   0  0  0  0  0  0  0  0  0  0  0  0
   -2.3496   -0.6990   -1.0560 N   0  0  0  0  0  4  0  0  0  0  0  0
   -2.0408   -0.3267   -2.5088 C   0  0  0  0  0  0  0  0  0  0  0  0
   -3.7902   -1.2064   -1.0010 C   0  0  0  0  0  0  0  0  0  0  0  0
   -2.1481    0.5264   -0.1202 C   0  0  0  0  0  0  0  0  0  0  0  0
   -2.8773    1.8350   -0.5145 C   0  0  0  0  0  0  0  0  0  0  0  0
   -4.3327    1.7544   -0.2961 N   0  0  0  0  0  0  0  0  0  0  0  0
   -4.7833    2.2245    1.0301 C   0  0  0  0  0  0  0  0  0  0  0  0
   -6.1709    1.7371    1.3956 C   0  0  0  0  0  0  0  0  0  0  0  0
   -6.4549    0.3722    1.5421 C   0  0  0  0  0  0  0  0  0  0  0  0
   -7.7398   -0.0619    1.8937 C   0  0  0  0  0  0  0  0  0  0  0  0
   -8.7581    0.8643    2.1146 C   0  0  0  0  0  0  0  0  0  0  0  0
  -10.0450    0.5805    2.4737 O   0  0  0  0  0  0  0  0  0  0  0  0
  -10.4024   -0.7937    2.5749 C   0  0  0  0  0  0  0  0  0  0  0  0
   -8.4804    2.2239    1.9752 C   0  0  0  0  0  0  0  0  0  0  0  0
   -7.2008    2.6590    1.6206 C   0  0  0  0  0  0  0  0  0  0  0  0
   -4.9948    2.3952   -1.3623 C   0  0  0  0  0  0  0  0  0  0  0  0
   -5.7434    3.4845   -1.1419 N   0  0  0  0  0  0  0  0  0  0  0  0
   -6.3925    4.0276   -2.1900 C   0  0  0  0  0  0  0  0  0  0  0  0
   -6.3115    3.5319   -3.4646 C   0  0  0  0  0  0  0  0  0  0  0  0
   -5.4983    2.4369   -3.6087 C   0  0  0  0  0  0  0  0  0  0  0  0
   -4.8288    1.8617   -2.5880 N   0  0  0  0  0  0  0  0  0  0  0  0
    9.9850    1.6063    2.9040 H   0  0  0  0  0  0  0  0  0  0  0  0
   11.2791    0.4391    2.5828 H   0  0  0  0  0  0  0  0  0  0  0  0
   11.4525    2.1209    2.0523 H   0  0  0  0  0  0  0  0  0  0  0  0
    9.4252    0.0829    1.0025 H   0  0  0  0  0  0  0  0  0  0  0  0
   10.8747    0.6181    0.1431 H   0  0  0  0  0  0  0  0  0  0  0  0
    9.9821    2.9929    0.2137 H   0  0  0  0  0  0  0  0  0  0  0  0
    8.4993    2.3926    0.9344 H   0  0  0  0  0  0  0  0  0  0  0  0
    9.6243    1.7109   -1.8289 H   0  0  0  0  0  0  0  0  0  0  0  0
    8.2658    2.7653   -1.4915 H   0  0  0  0  0  0  0  0  0  0  0  0
    7.5434    0.5862   -2.3417 H   0  0  0  0  0  0  0  0  0  0  0  0
    8.3642   -0.2590   -1.0423 H   0  0  0  0  0  0  0  0  0  0  0  0
    6.8117    0.7597    0.6329 H   0  0  0  0  0  0  0  0  0  0  0  0
    6.1065    1.7725   -0.6245 H   0  0  0  0  0  0  0  0  0  0  0  0
    5.3521   -0.3234   -1.8335 H   0  0  0  0  0  0  0  0  0  0  0  0
    4.5746    0.0119   -0.2902 H   0  0  0  0  0  0  0  0  0  0  0  0
    6.9406   -1.9114   -0.5293 H   0  0  0  0  0  0  0  0  0  0  0  0
    5.9062   -1.6706    0.8658 H   0  0  0  0  0  0  0  0  0  0  0  0
    5.3606   -3.7482   -0.3422 H   0  0  0  0  0  0  0  0  0  0  0  0
    5.1569   -2.8692   -1.8460 H   0  0  0  0  0  0  0  0  0  0  0  0
    3.1346   -1.7251   -0.9382 H   0  0  0  0  0  0  0  0  0  0  0  0
    3.0101   -3.4729   -1.0064 H   0  0  0  0  0  0  0  0  0  0  0  0
    3.6921   -1.8999    1.5342 H   0  0  0  0  0  0  0  0  0  0  0  0
    3.4895   -3.6456    1.4281 H   0  0  0  0  0  0  0  0  0  0  0  0
    1.3472   -1.5197    0.9087 H   0  0  0  0  0  0  0  0  0  0  0  0
    1.5052   -2.5083    2.3591 H   0  0  0  0  0  0  0  0  0  0  0  0
    0.8279   -3.5319   -0.4504 H   0  0  0  0  0  0  0  0  0  0  0  0
    1.1896   -4.5801    0.9111 H   0  0  0  0  0  0  0  0  0  0  0  0
   -0.7295   -3.7418    2.1684 H   0  0  0  0  0  0  0  0  0  0  0  0
   -1.2136   -4.3741    0.6065 H   0  0  0  0  0  0  0  0  0  0  0  0
   -2.4702   -2.3858    1.1194 H   0  0  0  0  0  0  0  0  0  0  0  0
   -1.0183   -1.4473    1.4258 H   0  0  0  0  0  0  0  0  0  0  0  0
   -1.6084   -2.6895   -1.3235 H   0  0  0  0  0  0  0  0  0  0  0  0
   -0.3682   -1.4797   -0.9292 H   0  0  0  0  0  0  0  0  0  0  0  0
   -2.7964    0.3647   -2.8805 H   0  0  0  0  0  0  0  0  0  0  0  0
   -1.0467    0.1319   -2.5423 H   0  0  0  0  0  0  0  0  0  0  0  0
   -2.0608   -1.2421   -3.1107 H   0  0  0  0  0  0  0  0  0  0  0  0
   -4.4504   -0.4989   -1.4987 H   0  0  0  0  0  0  0  0  0  0  0  0
   -4.0767   -1.3375    0.0429 H   0  0  0  0  0  0  0  0  0  0  0  0
   -3.8376   -2.1642   -1.5283 H   0  0  0  0  0  0  0  0  0  0  0  0
   -2.4637    0.2150    0.8813 H   0  0  0  0  0  0  0  0  0  0  0  0
   -1.0684    0.7145   -0.1052 H   0  0  0  0  0  0  0  0  0  0  0  0
   -2.4702    2.6423    0.1099 H   0  0  0  0  0  0  0  0  0  0  0  0
   -2.5961    2.1121   -1.5374 H   0  0  0  0  0  0  0  0  0  0  0  0
   -4.7019    3.3161    1.1217 H   0  0  0  0  0  0  0  0  0  0  0  0
   -4.1068    1.8261    1.7988 H   0  0  0  0  0  0  0  0  0  0  0  0
   -5.6753   -0.3666    1.3925 H   0  0  0  0  0  0  0  0  0  0  0  0
   -7.9107   -1.1271    1.9997 H   0  0  0  0  0  0  0  0  0  0  0  0
  -10.3098   -1.2960    1.6057 H   0  0  0  0  0  0  0  0  0  0  0  0
  -11.4525   -0.8456    2.8775 H   0  0  0  0  0  0  0  0  0  0  0  0
   -9.8127   -1.3023    3.3462 H   0  0  0  0  0  0  0  0  0  0  0  0
   -9.2691    2.9537    2.1428 H   0  0  0  0  0  0  0  0  0  0  0  0
   -7.0215    3.7278    1.5085 H   0  0  0  0  0  0  0  0  0  0  0  0
   -7.0069    4.8932   -1.9575 H   0  0  0  0  0  0  0  0  0  0  0  0
   -6.8483    3.9738   -4.2934 H   0  0  0  0  0  0  0  0  0  0  0  0
   -5.3699    1.9642   -4.5777 H   0  0  0  0  0  0  0  0  0  0  0  0
  1  2  1  0
  2  3  1  0
  3  4  1  0
  4  5  1  0
  5  6  1  0
  6  7  1  0
  7  8  1  0
  8  9  1  0
  9 10  1  0
 10 11  1  0
 11 12  1  0
 12 13  1  0
 13 14  1  0
 14 15  1  0
 15 16  1  0
 16 17  1  0
 17 18  1  0
 17 19  1  0
 17 20  1  0
 20 21  1  0
 21 22  1  0
 22 23  1  0
 23 24  1  0
 24 25  2  0
 25 26  1  0
 26 27  2  0
 27 28  1  0
 28 29  1  0
 27 30  1  0
 30 31  2  0
 22 32  1  0
 32 33  2  0
 33 34  1  0
 34 35  2  0
 35 36  1  0
 36 37  2  0
 31 24  1  0
 37 32  1  0
  1 38  1  0
  1 39  1  0
  1 40  1  0
  2 41  1  0
  2 42  1  0
  3 43  1  0
  3 44  1  0
  4 45  1  0
  4 46  1  0
  5 47  1  0
  5 48  1  0
  6 49  1  0
  6 50  1  0
  7 51  1  0
  7 52  1  0
  8 53  1  0
  8 54  1  0
  9 55  1  0
  9 56  1  0
 10 57  1  0
 10 58  1  0
 11 59  1  0
 11 60  1  0
 12 61  1  0
 12 62  1  0
 13 63  1  0
 13 64  1  0
 14 65  1  0
 14 66  1  0
 15 67  1  0
 15 68  1  0
 16 69  1  0
 16 70  1  0
 18 71  1  0
 18 72  1  0
 18 73  1  0
 19 74  1  0
 19 75  1  0
 19 76  1  0
 20 77  1  0
 20 78  1  0
 21 79  1  0
 21 80  1  0
 23 81  1  0
 23 82  1  0
 25 83  1  0
 26 84  1  0
 29 85  1  0
 29 86  1  0
 29 87  1  0
 30 88  1  0
 31 89  1  0
 34 90  1  0
 35 91  1  0
 36 92  1  0
M  CHG  1  17   1
M  END
$$$$
