
     RDKit          3D

 54 56  0  0  0  0  0  0  0  0999 V2000
   -4.5885   -1.3154    2.3086 C   0  0  0  0  0  0  0  0  0  0  0  0
   -5.3523   -0.3957    1.3560 C   0  0  0  0  0  0  0  0  0  0  0  0
   -6.4679    0.3152    2.1311 C   0  0  0  0  0  0  0  0  0  0  0  0
   -4.4594    0.6562    0.6656 C   0  0  0  0  0  0  0  0  0  0  0  0
   -3.4752    0.1088   -0.3844 C   0  0  0  0  0  0  0  0  0  0  0  0
   -2.3717   -0.7084    0.1408 N   0  0  0  0  0  0  0  0  0  0  0  0
   -1.4060    0.0435    0.9574 C   0  0  0  0  0  0  0  0  0  0  0  0
   -0.5027    0.9763    0.1526 C   0  0  0  0  0  0  0  0  0  0  0  0
    0.2230    0.1954   -0.9478 C   0  0  0  0  0  0  0  0  0  0  0  0
    1.0836    1.0621   -1.7489 N   0  0  0  0  0  0  0  0  0  0  0  0
    0.4750    1.9399   -2.5895 N   0  0  0  0  0  0  0  0  0  0  0  0
    1.4466    2.3512   -3.3989 C   0  0  0  0  0  0  0  0  0  0  0  0
    2.6828    1.7759   -3.0779 C   0  0  0  0  0  0  0  0  0  0  0  0
    2.4522    1.0041   -1.9559 C   0  0  0  0  0  0  0  0  0  0  0  0
    3.4265    0.2996   -1.2635 N   0  0  0  0  0  0  0  0  0  0  0  0
    3.3804    0.0150    0.0923 C   0  0  0  0  0  0  0  0  0  0  0  0
    2.4749    0.3191    0.8593 O   0  0  0  0  0  0  0  0  0  0  0  0
    4.6040   -0.7549    0.5597 C   0  0  0  0  0  0  0  0  0  0  0  0
    5.9008    0.0148    0.4227 C   0  0  0  0  0  0  0  0  0  0  0  0
    6.7977   -0.6789    1.4237 C   0  0  0  0  0  0  0  0  0  0  0  0
    5.9541   -1.1760    2.4666 O   0  0  0  0  0  0  0  0  0  0  0  0
    4.5847   -1.0536    2.0483 C   0  0  0  0  0  0  0  0  0  0  0  0
   -0.7914   -0.5743   -1.8106 C   0  0  0  0  0  0  0  0  0  0  0  0
   -1.6832   -1.4473   -0.9280 C   0  0  0  0  0  0  0  0  0  0  0  0
   -5.2802   -1.9427    2.8819 H   0  0  0  0  0  0  0  0  0  0  0  0
   -3.9272   -1.9954    1.7658 H   0  0  0  0  0  0  0  0  0  0  0  0
   -3.9876   -0.7408    3.0213 H   0  0  0  0  0  0  0  0  0  0  0  0
   -5.8277   -1.0158    0.5857 H   0  0  0  0  0  0  0  0  0  0  0  0
   -6.0577    0.9524    2.9221 H   0  0  0  0  0  0  0  0  0  0  0  0
   -7.1440   -0.4104    2.5959 H   0  0  0  0  0  0  0  0  0  0  0  0
   -7.0670    0.9443    1.4642 H   0  0  0  0  0  0  0  0  0  0  0  0
   -5.1166    1.3589    0.1345 H   0  0  0  0  0  0  0  0  0  0  0  0
   -3.9378    1.2604    1.4163 H   0  0  0  0  0  0  0  0  0  0  0  0
   -4.0670   -0.4950   -1.0851 H   0  0  0  0  0  0  0  0  0  0  0  0
   -3.0915    0.9542   -0.9676 H   0  0  0  0  0  0  0  0  0  0  0  0
   -0.7771   -0.6813    1.4919 H   0  0  0  0  0  0  0  0  0  0  0  0
   -1.9102    0.6089    1.7474 H   0  0  0  0  0  0  0  0  0  0  0  0
    0.2177    1.4546    0.8256 H   0  0  0  0  0  0  0  0  0  0  0  0
   -1.0942    1.7938   -0.2780 H   0  0  0  0  0  0  0  0  0  0  0  0
    0.8618   -0.5694   -0.4990 H   0  0  0  0  0  0  0  0  0  0  0  0
    1.2103    3.0524   -4.1888 H   0  0  0  0  0  0  0  0  0  0  0  0
    3.6290    1.9495   -3.5688 H   0  0  0  0  0  0  0  0  0  0  0  0
    4.3378    0.2716   -1.7058 H   0  0  0  0  0  0  0  0  0  0  0  0
    4.6658   -1.6967   -0.0003 H   0  0  0  0  0  0  0  0  0  0  0  0
    5.7576    1.0650    0.7063 H   0  0  0  0  0  0  0  0  0  0  0  0
    6.3200   -0.0017   -0.5876 H   0  0  0  0  0  0  0  0  0  0  0  0
    7.5526   -0.0092    1.8454 H   0  0  0  0  0  0  0  0  0  0  0  0
    7.3074   -1.5353    0.9696 H   0  0  0  0  0  0  0  0  0  0  0  0
    4.0547   -1.9834    2.2765 H   0  0  0  0  0  0  0  0  0  0  0  0
    4.1342   -0.2508    2.6420 H   0  0  0  0  0  0  0  0  0  0  0  0
   -1.4120    0.1116   -2.4000 H   0  0  0  0  0  0  0  0  0  0  0  0
   -0.2608   -1.2073   -2.5328 H   0  0  0  0  0  0  0  0  0  0  0  0
   -2.4094   -1.9845   -1.5504 H   0  0  0  0  0  0  0  0  0  0  0  0
   -1.0689   -2.2305   -0.4641 H   0  0  0  0  0  0  0  0  0  0  0  0
  1  2  1  0
  2  3  1  0
  2  4  1  0
  4  5  1  0
  5  6  1  0
  6  7  1  0
  7  8  1  0
  8  9  1  0
  9 10  1  0
 10 11  1  0
 11 12  2  0
 12 13  1  0
 13 14  2  0
 14 15  1  0
 15 16  1  0
 16 17  2  0
 16 18  1  0
 18 19  1  0
 19 20  1  0
 20 21  1  0
 21 22  1  0
  9 23  1  0
 23 24  1  0
 24  6  1  0
 14 10  1  0
 22 18  1  0
  1 25  1  0
  1 26  1  0
  1 27  1  0
  2 28  1  0
  3 29  1  0
  3 30  1  0
  3 31  1  0
  4 32  1  0
  4 33  1  0
  5 34  1  0
  5 35  1  0
  7 36  1  0
  7 37  1  0
  8 38  1  0
  8 39  1  0
  9 40  1  0
 12 41  1  0
 13 42  1  0
 15 43  1  0
 18 44  1  0
 19 45  1  0
 19 46  1  0
 20 47  1  0
 20 48  1  0
 22 49  1  0
 22 50  1  0
 23 51  1  0
 23 52  1  0
 24 53  1  0
 24 54  1  0
M  END
$$$$
