
     RDKit          3D

 45 48  0  0  0  0  0  0  0  0999 V2000
   -4.5942    2.3141    0.1298 C   0  0  0  0  0  0  0  0  0  0  0  0
   -3.8012    1.1822   -0.1987 O   0  0  0  0  0  0  0  0  0  0  0  0
   -4.4150   -0.0468   -0.2033 C   0  0  0  0  0  0  0  0  0  0  0  0
   -5.7744   -0.2429    0.0771 C   0  0  0  0  0  0  0  0  0  0  0  0
   -6.3243   -1.5263    0.0737 C   0  0  0  0  0  0  0  0  0  0  0  0
   -5.5236   -2.6277   -0.2060 C   0  0  0  0  0  0  0  0  0  0  0  0
   -4.1713   -2.4446   -0.4892 C   0  0  0  0  0  0  0  0  0  0  0  0
   -3.5962   -1.1628   -0.5024 C   0  0  0  0  0  0  0  0  0  0  0  0
   -2.2151   -1.0952   -0.7969 N   0  0  0  0  0  0  0  0  0  0  0  0
   -1.8638   -0.2157   -1.9361 C   0  0  0  0  0  0  0  0  0  0  0  0
   -0.8667    0.8960   -1.5624 C   0  0  0  0  0  0  0  0  0  0  0  0
    0.3217    0.3836   -0.8703 N   0  0  0  0  0  0  0  0  0  0  0  0
    1.5434    1.0310   -1.0712 C   0  0  0  0  0  0  0  0  0  0  0  0
    1.5950    2.0745   -1.7276 O   0  0  0  0  0  0  0  0  0  0  0  0
    2.7898    0.4808   -0.5087 C   0  0  0  0  0  0  0  0  0  0  0  0
    4.0438    1.1527   -0.4822 C   0  0  0  0  0  0  0  0  0  0  0  0
    4.9385    0.2729    0.0886 C   0  0  0  0  0  0  0  0  0  0  0  0
    6.3426    0.4128    0.3622 C   0  0  0  0  0  0  0  0  0  0  0  0
    7.1729   -0.5529    0.9005 C   0  0  0  0  0  0  0  0  0  0  0  0
    8.5198   -0.1046    1.0401 C   0  0  0  0  0  0  0  0  0  0  0  0
    8.6750    1.1937    0.6119 C   0  0  0  0  0  0  0  0  0  0  0  0
    7.2065    1.8589    0.0433 S   0  0  0  0  0  0  0  0  0  0  0  0
    4.2456   -0.8705    0.3846 O   0  0  0  0  0  0  0  0  0  0  0  0
    2.9261   -0.7489    0.0088 N   0  0  0  0  0  0  0  0  0  0  0  0
    0.0826   -0.7215    0.0702 C   0  0  0  0  0  0  0  0  0  0  0  0
   -1.4060   -0.9032    0.4239 C   0  0  0  0  0  0  0  0  0  0  0  0
   -3.9446    3.1950    0.1029 H   0  0  0  0  0  0  0  0  0  0  0  0
   -5.0005    2.2328    1.1436 H   0  0  0  0  0  0  0  0  0  0  0  0
   -5.3896    2.4653   -0.6075 H   0  0  0  0  0  0  0  0  0  0  0  0
   -6.4370    0.5848    0.3048 H   0  0  0  0  0  0  0  0  0  0  0  0
   -7.3801   -1.6649    0.2923 H   0  0  0  0  0  0  0  0  0  0  0  0
   -5.9471   -3.6280   -0.2068 H   0  0  0  0  0  0  0  0  0  0  0  0
   -3.5491   -3.3083   -0.7120 H   0  0  0  0  0  0  0  0  0  0  0  0
   -1.3910   -0.8584   -2.6893 H   0  0  0  0  0  0  0  0  0  0  0  0
   -2.7435    0.2218   -2.4242 H   0  0  0  0  0  0  0  0  0  0  0  0
   -1.3306    1.6261   -0.8900 H   0  0  0  0  0  0  0  0  0  0  0  0
   -0.5742    1.4336   -2.4710 H   0  0  0  0  0  0  0  0  0  0  0  0
    4.2460    2.1494   -0.8487 H   0  0  0  0  0  0  0  0  0  0  0  0
    6.8321   -1.5440    1.1787 H   0  0  0  0  0  0  0  0  0  0  0  0
    9.3304   -0.7044    1.4358 H   0  0  0  0  0  0  0  0  0  0  0  0
    9.5809    1.7851    0.6023 H   0  0  0  0  0  0  0  0  0  0  0  0
    0.4599   -1.6349   -0.4036 H   0  0  0  0  0  0  0  0  0  0  0  0
    0.6404   -0.5384    0.9935 H   0  0  0  0  0  0  0  0  0  0  0  0
   -1.5094   -1.7782    1.0783 H   0  0  0  0  0  0  0  0  0  0  0  0
   -1.7447   -0.0242    0.9882 H   0  0  0  0  0  0  0  0  0  0  0  0
  1  2  1  0
  2  3  1  0
  3  4  2  0
  4  5  1  0
  5  6  2  0
  6  7  1  0
  7  8  2  0
  8  9  1  0
  9 10  1  0
 10 11  1  0
 11 12  1  0
 12 13  1  0
 13 14  2  0
 13 15  1  0
 15 16  1  0
 16 17  2  0
 17 18  1  0
 18 19  2  0
 19 20  1  0
 20 21  2  0
 21 22  1  0
 17 23  1  0
 23 24  1  0
 12 25  1  0
 25 26  1  0
  8  3  1  0
 26  9  1  0
 24 15  2  0
 22 18  1  0
  1 27  1  0
  1 28  1  0
  1 29  1  0
  4 30  1  0
  5 31  1  0
  6 32  1  0
  7 33  1  0
 10 34  1  0
 10 35  1  0
 11 36  1  0
 11 37  1  0
 16 38  1  0
 19 39  1  0
 20 40  1  0
 21 41  1  0
 25 42  1  0
 25 43  1  0
 26 44  1  0
 26 45  1  0
M  END
$$$$
