
     RDKit          3D

 55 58  0  0  0  0  0  0  0  0999 V2000
    0.7553   -3.9253    3.3898 C   0  0  0  0  0  0  0  0  0  0  0  0
    0.8830   -2.9034    2.2746 C   0  0  0  0  0  0  0  0  0  0  0  0
    2.2626   -2.5513    2.1591 O   0  0  0  0  0  0  0  0  0  0  0  0
    2.5463   -1.4442    1.4001 C   0  0  0  0  0  0  0  0  0  0  0  0
    1.7132   -0.9569    0.3870 C   0  0  0  0  0  0  0  0  0  0  0  0
    2.0640    0.1838   -0.3474 C   0  0  0  0  0  0  0  0  0  0  0  0
    1.2088    0.6998   -1.4257 C   0  0  0  0  0  0  0  0  0  0  0  0
   -0.0632    1.1383   -1.3427 C   0  0  0  0  0  0  0  0  0  0  0  0
   -0.6619    1.6908   -2.5977 C   0  0  0  0  0  0  0  0  0  0  0  0
   -0.9140    2.8962   -2.6453 O   0  0  0  0  0  0  0  0  0  0  0  0
   -0.9479    0.8121   -3.6260 N   0  0  0  0  0  0  0  0  0  0  0  0
   -0.7430   -0.6436   -3.6003 C   0  0  0  0  0  0  0  0  0  0  0  0
   -1.8952   -1.3789   -4.2947 C   0  0  0  0  0  0  0  0  0  0  0  0
   -2.1189   -0.8654   -5.6153 O   0  0  0  0  0  0  0  0  0  0  0  0
   -2.4653    0.5265   -5.5593 C   0  0  0  0  0  0  0  0  0  0  0  0
   -1.3352    1.3464   -4.9340 C   0  0  0  0  0  0  0  0  0  0  0  0
   -0.8120    1.2236   -0.1381 C   0  0  0  0  0  0  0  0  0  0  0  0
   -0.9301    0.3972    0.8854 N   0  0  0  0  0  0  0  0  0  0  0  0
   -1.8064    0.9951    1.7576 C   0  0  0  0  0  0  0  0  0  0  0  0
   -2.2820    0.5498    2.9989 C   0  0  0  0  0  0  0  0  0  0  0  0
   -3.1901    1.3557    3.6978 C   0  0  0  0  0  0  0  0  0  0  0  0
   -3.6135    2.5796    3.1716 C   0  0  0  0  0  0  0  0  0  0  0  0
   -3.1450    3.0415    1.9363 C   0  0  0  0  0  0  0  0  0  0  0  0
   -2.2429    2.2166    1.2621 C   0  0  0  0  0  0  0  0  0  0  0  0
   -1.5959    2.3415    0.0614 N   0  0  0  0  0  0  0  0  0  0  0  0
    3.2904    0.8079   -0.0995 C   0  0  0  0  0  0  0  0  0  0  0  0
    4.1428    0.3126    0.8892 C   0  0  0  0  0  0  0  0  0  0  0  0
    5.6525    1.1134    1.1428 Cl  0  0  0  0  0  0  0  0  0  0  0  0
    3.7678   -0.8002    1.6506 C   0  0  0  0  0  0  0  0  0  0  0  0
    4.6311   -1.2976    2.5987 O   0  0  0  0  0  0  0  0  0  0  0  0
    4.2537   -0.8417    3.8984 C   0  0  0  0  0  0  0  0  0  0  0  0
    1.1224   -3.5118    4.3352 H   0  0  0  0  0  0  0  0  0  0  0  0
   -0.2858   -4.2333    3.5193 H   0  0  0  0  0  0  0  0  0  0  0  0
    1.3619   -4.8107    3.1726 H   0  0  0  0  0  0  0  0  0  0  0  0
    0.2758   -2.0247    2.5258 H   0  0  0  0  0  0  0  0  0  0  0  0
    0.5302   -3.3507    1.3385 H   0  0  0  0  0  0  0  0  0  0  0  0
    0.7760   -1.4544    0.1556 H   0  0  0  0  0  0  0  0  0  0  0  0
    1.7212    0.7553   -2.3864 H   0  0  0  0  0  0  0  0  0  0  0  0
    0.1941   -0.8334   -4.1357 H   0  0  0  0  0  0  0  0  0  0  0  0
   -0.6415   -1.0178   -2.5789 H   0  0  0  0  0  0  0  0  0  0  0  0
   -1.6573   -2.4438   -4.3846 H   0  0  0  0  0  0  0  0  0  0  0  0
   -2.8216   -1.2884   -3.7159 H   0  0  0  0  0  0  0  0  0  0  0  0
   -2.6525    0.8659   -6.5828 H   0  0  0  0  0  0  0  0  0  0  0  0
   -3.3964    0.6401   -4.9913 H   0  0  0  0  0  0  0  0  0  0  0  0
   -0.4401    1.2864   -5.5648 H   0  0  0  0  0  0  0  0  0  0  0  0
   -1.6271    2.3987   -4.8645 H   0  0  0  0  0  0  0  0  0  0  0  0
   -1.9493   -0.4003    3.4022 H   0  0  0  0  0  0  0  0  0  0  0  0
   -3.5711    1.0217    4.6598 H   0  0  0  0  0  0  0  0  0  0  0  0
   -4.3196    3.1870    3.7348 H   0  0  0  0  0  0  0  0  0  0  0  0
   -3.4710    3.9929    1.5289 H   0  0  0  0  0  0  0  0  0  0  0  0
   -1.6754    3.1164   -0.5863 H   0  0  0  0  0  0  0  0  0  0  0  0
    3.5870    1.6811   -0.6759 H   0  0  0  0  0  0  0  0  0  0  0  0
    5.0108   -1.1930    4.6058 H   0  0  0  0  0  0  0  0  0  0  0  0
    4.2310    0.2530    3.9463 H   0  0  0  0  0  0  0  0  0  0  0  0
    3.2889   -1.2562    4.2070 H   0  0  0  0  0  0  0  0  0  0  0  0
  1  2  1  0
  2  3  1  0
  3  4  1  0
  4  5  2  0
  5  6  1  0
  6  7  1  0
  7  8  2  3
  8  9  1  0
  9 10  2  0
  9 11  1  0
 11 12  1  0
 12 13  1  0
 13 14  1  0
 14 15  1  0
 15 16  1  0
  8 17  1  0
 17 18  2  0
 18 19  1  0
 19 20  2  0
 20 21  1  0
 21 22  2  0
 22 23  1  0
 23 24  2  0
 24 25  1  0
  6 26  2  0
 26 27  1  0
 27 28  1  0
 27 29  2  0
 29 30  1  0
 30 31  1  0
 29  4  1  0
 16 11  1  0
 25 17  1  0
 24 19  1  0
  1 32  1  0
  1 33  1  0
  1 34  1  0
  2 35  1  0
  2 36  1  0
  5 37  1  0
  7 38  1  0
 12 39  1  0
 12 40  1  0
 13 41  1  0
 13 42  1  0
 15 43  1  0
 15 44  1  0
 16 45  1  0
 16 46  1  0
 20 47  1  0
 21 48  1  0
 22 49  1  0
 23 50  1  0
 25 51  1  0
 26 52  1  0
 31 53  1  0
 31 54  1  0
 31 55  1  0
M  END
$$$$
