
     RDKit          3D

 39 40  0  0  0  0  0  0  0  0999 V2000
   -4.7294    1.3750    1.6224 C   0  0  0  0  0  0  0  0  0  0  0  0
   -3.8062    0.1700    1.7070 C   0  0  0  0  0  0  0  0  0  0  0  0
   -2.8485    0.1131    0.5168 C   0  0  0  0  0  0  0  0  0  0  0  0
   -1.9226   -1.1029    0.6100 C   0  0  0  0  0  0  0  0  0  0  0  0
   -0.9952   -1.1737   -0.5120 N   0  0  0  0  0  0  0  0  0  0  0  0
   -1.3605   -1.3593   -1.8071 C   0  0  0  0  0  0  0  0  0  0  0  0
   -2.4608   -2.0920   -2.0585 N   0  0  0  0  0  0  0  0  0  0  0  0
   -0.6262   -0.8429   -2.7447 N   0  0  0  0  0  0  0  0  0  0  0  0
    0.4548   -0.1259   -2.0108 C   0  0  0  0  0  0  0  0  0  0  0  0
    0.1957   -0.3215   -0.4993 C   0  0  0  0  0  0  0  0  0  0  0  0
    1.3543   -1.0264    0.2203 C   0  0  0  0  0  0  0  0  0  0  0  0
    2.5675   -0.1422    0.3928 C   0  0  0  0  0  0  0  0  0  0  0  0
    2.5658    0.8856    1.3471 C   0  0  0  0  0  0  0  0  0  0  0  0
    3.6811    1.7104    1.4986 C   0  0  0  0  0  0  0  0  0  0  0  0
    4.7995    1.5105    0.6993 C   0  0  0  0  0  0  0  0  0  0  0  0
    5.8661    2.3401    0.8803 O   0  0  0  0  0  0  0  0  0  0  0  0
    4.8234    0.4955   -0.2509 C   0  0  0  0  0  0  0  0  0  0  0  0
    3.7072   -0.3306   -0.4023 C   0  0  0  0  0  0  0  0  0  0  0  0
   -4.1570    2.3081    1.6172 H   0  0  0  0  0  0  0  0  0  0  0  0
   -5.3380    1.3399    0.7132 H   0  0  0  0  0  0  0  0  0  0  0  0
   -5.4053    1.3959    2.4830 H   0  0  0  0  0  0  0  0  0  0  0  0
   -4.4106   -0.7439    1.7426 H   0  0  0  0  0  0  0  0  0  0  0  0
   -3.2359    0.2192    2.6419 H   0  0  0  0  0  0  0  0  0  0  0  0
   -3.4266    0.0766   -0.4142 H   0  0  0  0  0  0  0  0  0  0  0  0
   -2.2564    1.0353    0.4813 H   0  0  0  0  0  0  0  0  0  0  0  0
   -1.3566   -1.0626    1.5484 H   0  0  0  0  0  0  0  0  0  0  0  0
   -2.5165   -2.0235    0.6551 H   0  0  0  0  0  0  0  0  0  0  0  0
   -2.4967   -2.9382   -1.5067 H   0  0  0  0  0  0  0  0  0  0  0  0
   -2.5192   -2.2999   -3.0498 H   0  0  0  0  0  0  0  0  0  0  0  0
    1.4227   -0.5217   -2.3333 H   0  0  0  0  0  0  0  0  0  0  0  0
    0.4191    0.9376   -2.2714 H   0  0  0  0  0  0  0  0  0  0  0  0
   -0.0208    0.6499   -0.0391 H   0  0  0  0  0  0  0  0  0  0  0  0
    1.6297   -1.9477   -0.3103 H   0  0  0  0  0  0  0  0  0  0  0  0
    1.0336   -1.3565    1.2172 H   0  0  0  0  0  0  0  0  0  0  0  0
    1.6982    1.0501    1.9821 H   0  0  0  0  0  0  0  0  0  0  0  0
    3.6783    2.5058    2.2384 H   0  0  0  0  0  0  0  0  0  0  0  0
    6.5654    2.0845    0.2568 H   0  0  0  0  0  0  0  0  0  0  0  0
    5.6935    0.3316   -0.8786 H   0  0  0  0  0  0  0  0  0  0  0  0
    3.7332   -1.1231   -1.1479 H   0  0  0  0  0  0  0  0  0  0  0  0
  1  2  1  0
  2  3  1  0
  3  4  1  0
  4  5  1  0
  5  6  1  0
  6  7  1  0
  6  8  2  0
  8  9  1  0
  9 10  1  0
 10 11  1  0
 11 12  1  0
 12 13  2  0
 13 14  1  0
 14 15  2  0
 15 16  1  0
 15 17  1  0
 17 18  2  0
 10  5  1  0
 18 12  1  0
  1 19  1  0
  1 20  1  0
  1 21  1  0
  2 22  1  0
  2 23  1  0
  3 24  1  0
  3 25  1  0
  4 26  1  0
  4 27  1  0
  7 28  1  0
  7 29  1  0
  9 30  1  0
  9 31  1  0
 10 32  1  0
 11 33  1  0
 11 34  1  0
 13 35  1  0
 14 36  1  0
 16 37  1  0
 17 38  1  0
 18 39  1  0
M  END
$$$$
