
     RDKit          3D

 56 61  0  0  0  0  0  0  0  0999 V2000
    3.2125   -1.2423   -4.5013 C   0  0  0  0  0  0  0  0  0  0  0  0
    2.3832   -0.6740   -3.4963 O   0  0  0  0  0  0  0  0  0  0  0  0
    2.7027   -0.9534   -2.1965 C   0  0  0  0  0  0  0  0  0  0  0  0
    3.7854   -1.7164   -1.7640 C   0  0  0  0  0  0  0  0  0  0  0  0
    3.9955   -1.9235   -0.3991 C   0  0  0  0  0  0  0  0  0  0  0  0
    3.1262   -1.3678    0.5401 C   0  0  0  0  0  0  0  0  0  0  0  0
    2.0285   -0.5923    0.1298 C   0  0  0  0  0  0  0  0  0  0  0  0
    1.0845    0.0112    1.1690 C   0  0  0  0  0  0  0  0  0  0  0  0
   -0.1427   -0.8279    1.0938 C   0  0  0  0  0  0  0  0  0  0  0  0
   -0.4508   -2.1598    1.4184 C   0  0  0  0  0  0  0  0  0  0  0  0
    0.4396   -3.2177    1.9541 C   0  0  0  0  0  0  0  0  0  0  0  0
   -1.7375   -2.4333    1.1830 N   0  0  0  0  0  0  0  0  0  0  0  0
   -2.2795   -1.2735    0.6939 N   0  0  0  0  0  0  0  0  0  0  0  0
   -3.6594   -1.2445    0.3174 C   0  0  0  0  0  0  0  0  0  0  0  0
   -4.2662   -0.0914   -0.2009 C   0  0  0  0  0  0  0  0  0  0  0  0
   -5.6204   -0.1006   -0.5599 C   0  0  0  0  0  0  0  0  0  0  0  0
   -6.3746   -1.2687   -0.4016 C   0  0  0  0  0  0  0  0  0  0  0  0
   -7.7936   -1.2782   -0.7771 N   0  0  0  0  0  4  0  0  0  0  0  0
   -8.4204   -2.3388   -0.6373 O   0  0  0  0  0  0  0  0  0  0  0  0
   -8.2842   -0.2263   -1.2120 O   0  0  0  0  0  1  0  0  0  0  0  0
   -5.7844   -2.4280    0.1121 C   0  0  0  0  0  0  0  0  0  0  0  0
   -4.4318   -2.4121    0.4684 C   0  0  0  0  0  0  0  0  0  0  0  0
   -1.3212   -0.2645    0.6624 C   0  0  0  0  0  0  0  0  0  0  0  0
   -1.4987    1.0270    0.2885 N   0  0  0  0  0  0  0  0  0  0  0  0
   -0.4551    1.8067    0.4292 C   0  0  0  0  0  0  0  0  0  0  0  0
   -0.7018    3.2768    0.0117 C   0  0  0  0  0  0  0  0  0  0  0  0
   -1.7560    3.6433   -0.4889 O   0  0  0  0  0  0  0  0  0  0  0  0
    0.3320    4.1445    0.2416 N   0  0  0  0  0  0  0  0  0  0  0  0
    1.5566    3.7682    0.7992 C   0  0  0  0  0  0  0  0  0  0  0  0
    2.5115    4.7726    0.9995 C   0  0  0  0  0  0  0  0  0  0  0  0
    3.7454    4.4575    1.5566 C   0  0  0  0  0  0  0  0  0  0  0  0
    4.0194    3.1433    1.9127 C   0  0  0  0  0  0  0  0  0  0  0  0
    3.0621    2.1413    1.7084 C   0  0  0  0  0  0  0  0  0  0  0  0
    1.8078    2.4213    1.1398 C   0  0  0  0  0  0  0  0  0  0  0  0
    0.8181    1.4438    0.9098 N   0  0  0  0  0  0  0  0  0  0  0  0
    1.8338   -0.3987   -1.2515 C   0  0  0  0  0  0  0  0  0  0  0  0
    3.1919   -2.3364   -4.4590 H   0  0  0  0  0  0  0  0  0  0  0  0
    2.8142   -0.9393   -5.4744 H   0  0  0  0  0  0  0  0  0  0  0  0
    4.2369   -0.8626   -4.4277 H   0  0  0  0  0  0  0  0  0  0  0  0
    4.4843   -2.1644   -2.4623 H   0  0  0  0  0  0  0  0  0  0  0  0
    4.8417   -2.5218   -0.0691 H   0  0  0  0  0  0  0  0  0  0  0  0
    3.3151   -1.5473    1.5965 H   0  0  0  0  0  0  0  0  0  0  0  0
    1.4941   -0.1037    2.1812 H   0  0  0  0  0  0  0  0  0  0  0  0
    1.1604   -2.7979    2.6626 H   0  0  0  0  0  0  0  0  0  0  0  0
    0.9909   -3.6980    1.1397 H   0  0  0  0  0  0  0  0  0  0  0  0
   -0.1312   -3.9892    2.4812 H   0  0  0  0  0  0  0  0  0  0  0  0
   -3.7202    0.8367   -0.3455 H   0  0  0  0  0  0  0  0  0  0  0  0
   -6.0627    0.8104   -0.9596 H   0  0  0  0  0  0  0  0  0  0  0  0
   -6.3539   -3.3457    0.2421 H   0  0  0  0  0  0  0  0  0  0  0  0
   -3.9904   -3.3255    0.8659 H   0  0  0  0  0  0  0  0  0  0  0  0
    0.1575    5.1048   -0.0204 H   0  0  0  0  0  0  0  0  0  0  0  0
    2.3025    5.8035    0.7260 H   0  0  0  0  0  0  0  0  0  0  0  0
    4.4896    5.2341    1.7134 H   0  0  0  0  0  0  0  0  0  0  0  0
    4.9823    2.8906    2.3511 H   0  0  0  0  0  0  0  0  0  0  0  0
    3.3414    1.1391    2.0141 H   0  0  0  0  0  0  0  0  0  0  0  0
    0.9894    0.1890   -1.6086 H   0  0  0  0  0  0  0  0  0  0  0  0
  1  2  1  0
  2  3  1  0
  3  4  2  0
  4  5  1  0
  5  6  2  0
  6  7  1  0
  7  8  1  0
  8  9  1  0
  9 10  1  0
 10 11  1  0
 10 12  2  0
 12 13  1  0
 13 14  1  0
 14 15  2  0
 15 16  1  0
 16 17  2  0
 17 18  1  0
 18 19  2  0
 18 20  1  0
 17 21  1  0
 21 22  2  0
 13 23  1  0
 23 24  1  0
 24 25  2  0
 25 26  1  0
 26 27  2  0
 26 28  1  0
 28 29  1  0
 29 30  2  0
 30 31  1  0
 31 32  2  0
 32 33  1  0
 33 34  2  0
 34 35  1  0
  7 36  2  0
 36  3  1  0
 35  8  1  0
 23  9  2  0
 35 25  1  0
 22 14  1  0
 34 29  1  0
  1 37  1  0
  1 38  1  0
  1 39  1  0
  4 40  1  0
  5 41  1  0
  6 42  1  0
  8 43  1  0
 11 44  1  0
 11 45  1  0
 11 46  1  0
 15 47  1  0
 16 48  1  0
 21 49  1  0
 22 50  1  0
 28 51  1  0
 30 52  1  0
 31 53  1  0
 32 54  1  0
 33 55  1  0
 36 56  1  0
M  CHG  2  18   1  20  -1
M  END
$$$$
