
     RDKit          3D

 37 39  0  0  0  0  0  0  0  0999 V2000
    5.5024    0.5969   -1.2617 N   0  0  0  0  0  0  0  0  0  0  0  0
    4.8677   -0.3380   -0.4961 C   0  0  0  0  0  0  0  0  0  0  0  0
    5.0916   -1.5313   -0.6597 O   0  0  0  0  0  0  0  0  0  0  0  0
    3.9028    0.2265    0.5389 C   0  0  0  0  0  0  0  0  0  0  0  0
    3.3779   -0.8785    1.4646 C   0  0  0  0  0  0  0  0  0  0  0  0
    2.1581   -1.5823    0.8723 C   0  0  0  0  0  0  0  0  0  0  0  0
    1.0903   -0.6241    0.5954 N   0  0  0  0  0  0  0  0  0  0  0  0
   -0.2216   -0.9970    0.5198 C   0  0  0  0  0  0  0  0  0  0  0  0
   -1.2142   -0.1319    0.4740 N   0  0  0  0  0  0  0  0  0  0  0  0
   -2.4501   -0.7611    0.4026 C   0  0  0  0  0  0  0  0  0  0  0  0
   -3.6801    0.0235    0.3386 C   0  0  0  0  0  0  0  0  0  0  0  0
   -3.6084    1.3720   -0.0510 C   0  0  0  0  0  0  0  0  0  0  0  0
   -4.7594    2.1630   -0.1290 C   0  0  0  0  0  0  0  0  0  0  0  0
   -6.0027    1.6190    0.1843 C   0  0  0  0  0  0  0  0  0  0  0  0
   -6.0919    0.2864    0.5792 C   0  0  0  0  0  0  0  0  0  0  0  0
   -4.9399   -0.4985    0.6565 C   0  0  0  0  0  0  0  0  0  0  0  0
   -5.0852   -1.7698    1.0613 F   0  0  0  0  0  0  0  0  0  0  0  0
   -2.3813   -2.1366    0.3674 C   0  0  0  0  0  0  0  0  0  0  0  0
   -0.7517   -2.6466    0.4449 S   0  0  0  0  0  0  0  0  0  0  0  0
    1.4192    0.7954    0.5338 C   0  0  0  0  0  0  0  0  0  0  0  0
    2.7654    0.9881   -0.1587 C   0  0  0  0  0  0  0  0  0  0  0  0
    6.1949    0.2612   -1.9191 H   0  0  0  0  0  0  0  0  0  0  0  0
    5.4774    1.5845   -1.0518 H   0  0  0  0  0  0  0  0  0  0  0  0
    4.4829    0.9252    1.1570 H   0  0  0  0  0  0  0  0  0  0  0  0
    3.0950   -0.4287    2.4259 H   0  0  0  0  0  0  0  0  0  0  0  0
    4.1580   -1.6143    1.6921 H   0  0  0  0  0  0  0  0  0  0  0  0
    1.8333   -2.3348    1.6008 H   0  0  0  0  0  0  0  0  0  0  0  0
    2.4300   -2.1059   -0.0516 H   0  0  0  0  0  0  0  0  0  0  0  0
   -2.6455    1.8160   -0.2996 H   0  0  0  0  0  0  0  0  0  0  0  0
   -4.6800    3.2038   -0.4334 H   0  0  0  0  0  0  0  0  0  0  0  0
   -6.8982    2.2324    0.1245 H   0  0  0  0  0  0  0  0  0  0  0  0
   -7.0524   -0.1511    0.8334 H   0  0  0  0  0  0  0  0  0  0  0  0
   -3.1773   -2.8626    0.2941 H   0  0  0  0  0  0  0  0  0  0  0  0
    0.6712    1.3634   -0.0335 H   0  0  0  0  0  0  0  0  0  0  0  0
    1.4437    1.2158    1.5466 H   0  0  0  0  0  0  0  0  0  0  0  0
    2.6691    0.6629   -1.2034 H   0  0  0  0  0  0  0  0  0  0  0  0
    3.0090    2.0571   -0.1929 H   0  0  0  0  0  0  0  0  0  0  0  0
  1  2  1  0
  2  3  2  0
  2  4  1  0
  4  5  1  0
  5  6  1  0
  6  7  1  0
  7  8  1  0
  8  9  2  0
  9 10  1  0
 10 11  1  0
 11 12  2  0
 12 13  1  0
 13 14  2  0
 14 15  1  0
 15 16  2  0
 16 17  1  0
 10 18  2  0
 18 19  1  0
  7 20  1  0
 20 21  1  0
 21  4  1  0
 19  8  1  0
 16 11  1  0
  1 22  1  0
  1 23  1  0
  4 24  1  0
  5 25  1  0
  5 26  1  0
  6 27  1  0
  6 28  1  0
 12 29  1  0
 13 30  1  0
 14 31  1  0
 15 32  1  0
 18 33  1  0
 20 34  1  0
 20 35  1  0
 21 36  1  0
 21 37  1  0
M  END
$$$$
