
     RDKit          3D

 37 38  0  0  0  0  0  0  0  0999 V2000
   -3.0043   -1.9032   -1.1153 C   0  0  0  0  0  0  0  0  0  0  0  0
   -3.7193   -0.9162   -0.1805 C   0  0  0  0  0  0  0  0  0  0  0  0
   -4.3313   -1.7323    0.9719 C   0  0  0  0  0  0  0  0  0  0  0  0
   -2.7638    0.1832    0.3607 C   0  0  0  0  0  0  0  0  0  0  0  0
   -3.4100    1.4187    1.0025 C   0  0  0  0  0  0  0  0  0  0  0  0
   -2.8309    2.4618    1.2737 O   0  0  0  0  0  0  0  0  0  0  0  0
   -4.7190    1.2996    1.2842 O   0  0  0  0  0  0  0  0  0  0  0  0
   -1.7744    0.6929   -0.6209 N   0  0  0  0  0  0  0  0  0  0  0  0
   -0.4280    0.5186   -0.3300 C   0  0  0  0  0  0  0  0  0  0  0  0
    0.0071   -0.0677    0.6511 O   0  0  0  0  0  0  0  0  0  0  0  0
    0.4265    1.1212   -1.3926 C   0  0  0  0  0  0  0  0  0  0  0  0
    1.7657    1.1627   -1.4710 C   0  0  0  0  0  0  0  0  0  0  0  0
    2.7241    0.6257   -0.5251 C   0  0  0  0  0  0  0  0  0  0  0  0
    4.0508    0.7240   -0.7072 C   0  0  0  0  0  0  0  0  0  0  0  0
    4.9682    0.1864    0.2386 C   0  0  0  0  0  0  0  0  0  0  0  0
    6.3586    0.2102    0.2043 C   0  0  0  0  0  0  0  0  0  0  0  0
    6.8374   -0.4491    1.3613 C   0  0  0  0  0  0  0  0  0  0  0  0
    5.7221   -0.8468    2.0514 C   0  0  0  0  0  0  0  0  0  0  0  0
    4.6001   -0.4739    1.3914 O   0  0  0  0  0  0  0  0  0  0  0  0
   -0.5786    1.8106   -2.6140 S   0  0  0  0  0  0  0  0  0  0  0  0
   -2.0666    1.3847   -1.7799 C   0  0  0  0  0  0  0  0  0  0  0  0
   -3.5532    1.8232   -2.4001 S   0  0  0  0  0  0  0  0  0  0  0  0
   -2.6530   -1.4176   -2.0299 H   0  0  0  0  0  0  0  0  0  0  0  0
   -2.1417   -2.3624   -0.6202 H   0  0  0  0  0  0  0  0  0  0  0  0
   -3.6824   -2.7071   -1.4228 H   0  0  0  0  0  0  0  0  0  0  0  0
   -4.5490   -0.4607   -0.7315 H   0  0  0  0  0  0  0  0  0  0  0  0
   -3.5547   -2.2513    1.5449 H   0  0  0  0  0  0  0  0  0  0  0  0
   -4.8973   -1.1074    1.6668 H   0  0  0  0  0  0  0  0  0  0  0  0
   -5.0212   -2.4896    0.5831 H   0  0  0  0  0  0  0  0  0  0  0  0
   -2.2136   -0.2763    1.1923 H   0  0  0  0  0  0  0  0  0  0  0  0
   -4.9659    2.1707    1.6625 H   0  0  0  0  0  0  0  0  0  0  0  0
    2.2082    1.6539   -2.3383 H   0  0  0  0  0  0  0  0  0  0  0  0
    2.3445    0.1264    0.3646 H   0  0  0  0  0  0  0  0  0  0  0  0
    4.4610    1.2177   -1.5828 H   0  0  0  0  0  0  0  0  0  0  0  0
    6.9567    0.6589   -0.5770 H   0  0  0  0  0  0  0  0  0  0  0  0
    7.8647   -0.6124    1.6539 H   0  0  0  0  0  0  0  0  0  0  0  0
    5.5625   -1.3771    2.9797 H   0  0  0  0  0  0  0  0  0  0  0  0
  1  2  1  0
  2  3  1  0
  2  4  1  0
  4  5  1  0
  5  6  2  0
  5  7  1  0
  4  8  1  0
  8  9  1  0
  9 10  2  0
  9 11  1  0
 11 12  2  3
 12 13  1  0
 13 14  2  3
 14 15  1  0
 15 16  2  0
 16 17  1  0
 17 18  2  0
 18 19  1  0
 11 20  1  0
 20 21  1  0
 21 22  2  0
 21  8  1  0
 19 15  1  0
  1 23  1  0
  1 24  1  0
  1 25  1  0
  2 26  1  0
  3 27  1  0
  3 28  1  0
  3 29  1  0
  4 30  1  0
  7 31  1  0
 12 32  1  0
 13 33  1  0
 14 34  1  0
 16 35  1  0
 17 36  1  0
 18 37  1  0
M  END
$$$$
