
     RDKit          3D

 47 50  0  0  0  0  0  0  0  0999 V2000
   -2.3268   -0.5079   -3.5151 O   0  0  0  0  0  0  0  0  0  0  0  0
   -2.3509   -0.2743   -2.3222 C   0  0  0  0  0  0  0  0  0  0  0  0
   -3.5225   -0.4561   -1.4679 C   0  0  0  0  0  0  0  0  0  0  0  0
   -4.7751   -0.9592   -1.7581 C   0  0  0  0  0  0  0  0  0  0  0  0
   -5.7052   -0.9937   -0.7142 C   0  0  0  0  0  0  0  0  0  0  0  0
   -5.3665   -0.5273    0.5737 C   0  0  0  0  0  0  0  0  0  0  0  0
   -4.0916   -0.0181    0.8406 C   0  0  0  0  0  0  0  0  0  0  0  0
   -3.1904    0.0009   -0.2053 C   0  0  0  0  0  0  0  0  0  0  0  0
   -1.8086    0.4730   -0.2592 C   0  0  0  0  0  0  0  0  0  0  0  0
   -1.2307    1.0114    0.6649 O   0  0  0  0  0  0  0  0  0  0  0  0
   -1.3598    0.2221   -1.5242 N   0  0  0  0  0  0  0  0  0  0  0  0
   -0.0509    0.5999   -2.0043 C   0  0  0  0  0  0  0  0  0  0  0  0
    1.0553   -0.0970   -1.3299 N   0  0  0  0  0  0  0  0  0  0  0  0
    2.0814    0.6055   -0.6627 C   0  0  0  0  0  0  0  0  0  0  0  0
    3.1495    0.0821   -0.3310 O   0  0  0  0  0  0  0  0  0  0  0  0
    1.8575    2.1075   -0.3851 C   0  0  0  0  0  0  0  0  0  0  0  0
    2.8454    2.7401    0.4170 O   0  0  0  0  0  0  0  0  0  0  0  0
    2.7783    2.5759    1.7729 C   0  0  0  0  0  0  0  0  0  0  0  0
    3.7603    3.2678    2.4881 C   0  0  0  0  0  0  0  0  0  0  0  0
    3.8133    3.1963    3.8813 C   0  0  0  0  0  0  0  0  0  0  0  0
    2.8803    2.4273    4.5713 C   0  0  0  0  0  0  0  0  0  0  0  0
    1.9002    1.7316    3.8661 C   0  0  0  0  0  0  0  0  0  0  0  0
    1.8485    1.8037    2.4699 C   0  0  0  0  0  0  0  0  0  0  0  0
    1.1047   -1.5395   -1.4329 C   0  0  0  0  0  0  0  0  0  0  0  0
    1.7238   -2.3160   -0.4366 C   0  0  0  0  0  0  0  0  0  0  0  0
    1.7466   -3.7136   -0.5072 C   0  0  0  0  0  0  0  0  0  0  0  0
    1.1443   -4.3547   -1.5767 C   0  0  0  0  0  0  0  0  0  0  0  0
    1.1608   -5.6917   -1.6461 F   0  0  0  0  0  0  0  0  0  0  0  0
    0.5207   -3.6232   -2.5750 C   0  0  0  0  0  0  0  0  0  0  0  0
    0.4998   -2.2250   -2.5021 C   0  0  0  0  0  0  0  0  0  0  0  0
   -5.0246   -1.3116   -2.7537 H   0  0  0  0  0  0  0  0  0  0  0  0
   -6.7055   -1.3840   -0.8957 H   0  0  0  0  0  0  0  0  0  0  0  0
   -6.1099   -0.5637    1.3687 H   0  0  0  0  0  0  0  0  0  0  0  0
   -3.8198    0.3469    1.8258 H   0  0  0  0  0  0  0  0  0  0  0  0
    0.0201    1.6810   -1.8771 H   0  0  0  0  0  0  0  0  0  0  0  0
    0.0335    0.4330   -3.0841 H   0  0  0  0  0  0  0  0  0  0  0  0
    0.8601    2.3019    0.0175 H   0  0  0  0  0  0  0  0  0  0  0  0
    1.9158    2.6095   -1.3580 H   0  0  0  0  0  0  0  0  0  0  0  0
    4.4940    3.8652    1.9527 H   0  0  0  0  0  0  0  0  0  0  0  0
    4.5840    3.7373    4.4232 H   0  0  0  0  0  0  0  0  0  0  0  0
    2.9188    2.3662    5.6555 H   0  0  0  0  0  0  0  0  0  0  0  0
    1.1729    1.1264    4.4011 H   0  0  0  0  0  0  0  0  0  0  0  0
    1.0712    1.2389    1.9669 H   0  0  0  0  0  0  0  0  0  0  0  0
    2.1814   -1.8555    0.4363 H   0  0  0  0  0  0  0  0  0  0  0  0
    2.2297   -4.2960    0.2709 H   0  0  0  0  0  0  0  0  0  0  0  0
    0.0597   -4.1396   -3.4114 H   0  0  0  0  0  0  0  0  0  0  0  0
    0.0267   -1.7038   -3.3288 H   0  0  0  0  0  0  0  0  0  0  0  0
  1  2  2  0
  2  3  1  0
  3  4  2  0
  4  5  1  0
  5  6  2  0
  6  7  1  0
  7  8  2  0
  8  9  1  0
  9 10  2  0
  9 11  1  0
 11 12  1  0
 12 13  1  0
 13 14  1  0
 14 15  2  0
 14 16  1  0
 16 17  1  0
 17 18  1  0
 18 19  2  0
 19 20  1  0
 20 21  2  0
 21 22  1  0
 22 23  2  0
 13 24  1  0
 24 25  2  0
 25 26  1  0
 26 27  2  0
 27 28  1  0
 27 29  1  0
 29 30  2  0
 11  2  1  0
 23 18  1  0
 30 24  1  0
  8  3  1  0
  4 31  1  0
  5 32  1  0
  6 33  1  0
  7 34  1  0
 12 35  1  0
 12 36  1  0
 16 37  1  0
 16 38  1  0
 19 39  1  0
 20 40  1  0
 21 41  1  0
 22 42  1  0
 23 43  1  0
 25 44  1  0
 26 45  1  0
 29 46  1  0
 30 47  1  0
M  END
$$$$
