
     RDKit          3D

 43 45  0  0  0  0  0  0  0  0999 V2000
    2.2172   -2.8163    0.4911 C   0  0  0  0  0  0  0  0  0  0  0  0
    2.6831   -2.1362   -0.6757 O   0  0  0  0  0  0  0  0  0  0  0  0
    2.2322   -0.8397   -0.6818 C   0  0  0  0  0  0  0  0  0  0  0  0
    1.1567   -0.5517   -1.5288 C   0  0  0  0  0  0  0  0  0  0  0  0
    0.6218    0.7446   -1.6119 C   0  0  0  0  0  0  0  0  0  0  0  0
   -0.5360    0.9582   -2.5173 C   0  0  0  0  0  0  0  0  0  0  0  0
   -0.3448    1.7710   -3.6809 C   0  0  0  0  0  0  0  0  0  0  0  0
   -0.1728    2.4188   -4.6276 N   0  0  0  0  0  0  0  0  0  0  0  0
   -1.7493    0.3992   -2.3096 C   0  0  0  0  0  0  0  0  0  0  0  0
   -2.1130   -0.5073   -1.2032 C   0  0  0  0  0  0  0  0  0  0  0  0
   -2.0609   -1.8842   -1.4743 C   0  0  0  0  0  0  0  0  0  0  0  0
   -2.3235   -2.8136   -0.4736 C   0  0  0  0  0  0  0  0  0  0  0  0
   -2.6469   -2.3771    0.8082 C   0  0  0  0  0  0  0  0  0  0  0  0
   -2.7327   -1.0083    1.1036 C   0  0  0  0  0  0  0  0  0  0  0  0
   -3.0757   -0.5868    2.3990 C   0  0  0  0  0  0  0  0  0  0  0  0
   -3.1864    0.7680    2.7074 C   0  0  0  0  0  0  0  0  0  0  0  0
   -2.9653    1.7191    1.7209 C   0  0  0  0  0  0  0  0  0  0  0  0
   -2.6225    1.3152    0.4290 C   0  0  0  0  0  0  0  0  0  0  0  0
   -2.4799   -0.0491    0.0900 C   0  0  0  0  0  0  0  0  0  0  0  0
    1.2595    1.7482   -0.8538 C   0  0  0  0  0  0  0  0  0  0  0  0
    0.8187    3.1434   -0.8944 N   0  0  0  0  0  4  0  0  0  0  0  0
    1.6997    4.0138   -0.8652 O   0  0  0  0  0  0  0  0  0  0  0  0
   -0.3962    3.3699   -0.9320 O   0  0  0  0  0  1  0  0  0  0  0  0
    2.3674    1.4647   -0.0254 C   0  0  0  0  0  0  0  0  0  0  0  0
    2.8639    0.1653    0.0611 C   0  0  0  0  0  0  0  0  0  0  0  0
    3.9347   -0.2176    0.8213 O   0  0  0  0  0  0  0  0  0  0  0  0
    4.6957    0.8050    1.4516 C   0  0  0  0  0  0  0  0  0  0  0  0
    1.1269   -2.7512    0.5825 H   0  0  0  0  0  0  0  0  0  0  0  0
    2.4837   -3.8726    0.3893 H   0  0  0  0  0  0  0  0  0  0  0  0
    2.6980   -2.4341    1.3969 H   0  0  0  0  0  0  0  0  0  0  0  0
    0.7413   -1.3646   -2.1213 H   0  0  0  0  0  0  0  0  0  0  0  0
   -2.5662    0.5839   -3.0075 H   0  0  0  0  0  0  0  0  0  0  0  0
   -1.8019   -2.2422   -2.4687 H   0  0  0  0  0  0  0  0  0  0  0  0
   -2.2739   -3.8777   -0.6899 H   0  0  0  0  0  0  0  0  0  0  0  0
   -2.8459   -3.1194    1.5788 H   0  0  0  0  0  0  0  0  0  0  0  0
   -3.2671   -1.3168    3.1829 H   0  0  0  0  0  0  0  0  0  0  0  0
   -3.4565    1.0778    3.7133 H   0  0  0  0  0  0  0  0  0  0  0  0
   -3.0648    2.7777    1.9479 H   0  0  0  0  0  0  0  0  0  0  0  0
   -2.4843    2.0893   -0.3219 H   0  0  0  0  0  0  0  0  0  0  0  0
    2.8222    2.2728    0.5410 H   0  0  0  0  0  0  0  0  0  0  0  0
    4.1057    1.3145    2.2204 H   0  0  0  0  0  0  0  0  0  0  0  0
    5.5481    0.3301    1.9467 H   0  0  0  0  0  0  0  0  0  0  0  0
    5.0898    1.5162    0.7182 H   0  0  0  0  0  0  0  0  0  0  0  0
  1  2  1  0
  2  3  1  0
  3  4  2  0
  4  5  1  0
  5  6  1  0
  6  7  1  0
  7  8  3  0
  6  9  2  3
  9 10  1  0
 10 11  2  0
 11 12  1  0
 12 13  2  0
 13 14  1  0
 14 15  2  0
 15 16  1  0
 16 17  2  0
 17 18  1  0
 18 19  2  0
  5 20  2  0
 20 21  1  0
 21 22  2  0
 21 23  1  0
 20 24  1  0
 24 25  2  0
 25 26  1  0
 26 27  1  0
 25  3  1  0
 19 10  1  0
 19 14  1  0
  1 28  1  0
  1 29  1  0
  1 30  1  0
  4 31  1  0
  9 32  1  0
 11 33  1  0
 12 34  1  0
 13 35  1  0
 15 36  1  0
 16 37  1  0
 17 38  1  0
 18 39  1  0
 24 40  1  0
 27 41  1  0
 27 42  1  0
 27 43  1  0
M  CHG  2  21   1  23  -1
M  END
$$$$
