
     RDKit          3D

 58 60  0  0  0  0  0  0  0  0999 V2000
    7.8273   -1.2646    1.2388 C   0  0  0  0  0  0  0  0  0  0  0  0
    6.7132   -0.5207    1.9585 C   0  0  0  0  0  0  0  0  0  0  0  0
    6.1392    0.6461    1.1497 C   0  0  0  0  0  0  0  0  0  0  0  0
    5.4957    0.2466   -0.1787 C   0  0  0  0  0  0  0  0  0  0  0  0
    4.4903   -0.7497    0.0473 O   0  0  0  0  0  0  0  0  0  0  0  0
    3.2564   -0.3113   -0.3424 C   0  0  0  0  0  0  0  0  0  0  0  0
    2.4036    0.2421    0.6076 C   0  0  0  0  0  0  0  0  0  0  0  0
    1.1271    0.6592    0.2287 C   0  0  0  0  0  0  0  0  0  0  0  0
    0.7044    0.5117   -1.1010 C   0  0  0  0  0  0  0  0  0  0  0  0
   -0.6746    0.9092   -1.5223 C   0  0  0  0  0  0  0  0  0  0  0  0
   -1.0223    0.7962   -2.6913 O   0  0  0  0  0  0  0  0  0  0  0  0
   -1.4962    1.3823   -0.5324 N   0  0  0  0  0  0  0  0  0  0  0  0
   -2.5743    0.6995   -0.2777 C   0  0  0  0  0  0  0  0  0  0  0  0
   -3.0373   -0.5951   -0.9092 C   0  0  0  0  0  0  0  0  0  0  0  0
   -2.1051   -1.7550   -0.6331 C   0  0  0  0  0  0  0  0  0  0  0  0
   -1.8285   -2.1562    0.6836 C   0  0  0  0  0  0  0  0  0  0  0  0
   -0.9363   -3.2029    0.9333 C   0  0  0  0  0  0  0  0  0  0  0  0
   -0.3234   -3.8611   -0.1395 C   0  0  0  0  0  0  0  0  0  0  0  0
    0.6087   -4.9649    0.1191 N   0  0  0  0  0  4  0  0  0  0  0  0
    1.0195   -5.6114   -0.8572 O   0  0  0  0  0  0  0  0  0  0  0  0
    0.9189   -5.1929    1.2976 O   0  0  0  0  0  1  0  0  0  0  0  0
   -0.6021   -3.4826   -1.4571 C   0  0  0  0  0  0  0  0  0  0  0  0
   -1.4937   -2.4348   -1.6982 C   0  0  0  0  0  0  0  0  0  0  0  0
   -3.4809    1.2241    0.8114 C   0  0  0  0  0  0  0  0  0  0  0  0
   -3.2888    0.9702    1.9875 O   0  0  0  0  0  0  0  0  0  0  0  0
   -4.4717    1.9441    0.2589 O   0  0  0  0  0  0  0  0  0  0  0  0
   -5.3300    2.5368    1.2345 C   0  0  0  0  0  0  0  0  0  0  0  0
   -6.3180    3.3502    0.4869 C   0  0  0  0  0  0  0  0  0  0  0  0
   -7.4629    3.0440   -0.2216 C   0  0  0  0  0  0  0  0  0  0  0  0
   -7.9770    4.2741   -0.6989 C   0  0  0  0  0  0  0  0  0  0  0  0
   -7.1152    5.2494   -0.2527 C   0  0  0  0  0  0  0  0  0  0  0  0
   -6.1057    4.6979    0.4677 O   0  0  0  0  0  0  0  0  0  0  0  0
    1.5707   -0.0593   -2.0458 C   0  0  0  0  0  0  0  0  0  0  0  0
    2.8481   -0.4769   -1.6649 C   0  0  0  0  0  0  0  0  0  0  0  0
    7.4542   -1.7855    0.3520 H   0  0  0  0  0  0  0  0  0  0  0  0
    8.6222   -0.5783    0.9289 H   0  0  0  0  0  0  0  0  0  0  0  0
    8.2685   -2.0151    1.9024 H   0  0  0  0  0  0  0  0  0  0  0  0
    5.9167   -1.2261    2.2255 H   0  0  0  0  0  0  0  0  0  0  0  0
    7.1096   -0.1255    2.9022 H   0  0  0  0  0  0  0  0  0  0  0  0
    6.9260    1.3853    0.9594 H   0  0  0  0  0  0  0  0  0  0  0  0
    5.3809    1.1379    1.7712 H   0  0  0  0  0  0  0  0  0  0  0  0
    6.2433   -0.1835   -0.8542 H   0  0  0  0  0  0  0  0  0  0  0  0
    5.1010    1.1467   -0.6729 H   0  0  0  0  0  0  0  0  0  0  0  0
    2.7278    0.3430    1.6395 H   0  0  0  0  0  0  0  0  0  0  0  0
    0.4711    1.0943    0.9794 H   0  0  0  0  0  0  0  0  0  0  0  0
   -4.0330   -0.8572   -0.5303 H   0  0  0  0  0  0  0  0  0  0  0  0
   -3.1600   -0.4322   -1.9862 H   0  0  0  0  0  0  0  0  0  0  0  0
   -2.2946   -1.6542    1.5302 H   0  0  0  0  0  0  0  0  0  0  0  0
   -0.7301   -3.4880    1.9628 H   0  0  0  0  0  0  0  0  0  0  0  0
   -0.1316   -3.9824   -2.3017 H   0  0  0  0  0  0  0  0  0  0  0  0
   -1.6924   -2.1365   -2.7269 H   0  0  0  0  0  0  0  0  0  0  0  0
   -5.8437    1.7559    1.8076 H   0  0  0  0  0  0  0  0  0  0  0  0
   -4.7484    3.1694    1.9173 H   0  0  0  0  0  0  0  0  0  0  0  0
   -7.8788    2.0565   -0.3739 H   0  0  0  0  0  0  0  0  0  0  0  0
   -8.8648    4.4332   -1.2957 H   0  0  0  0  0  0  0  0  0  0  0  0
   -7.0845    6.3254   -0.3557 H   0  0  0  0  0  0  0  0  0  0  0  0
    1.2488   -0.1905   -3.0768 H   0  0  0  0  0  0  0  0  0  0  0  0
    3.5126   -0.9371   -2.3904 H   0  0  0  0  0  0  0  0  0  0  0  0
  1  2  1  0
  2  3  1  0
  3  4  1  0
  4  5  1  0
  5  6  1  0
  6  7  2  0
  7  8  1  0
  8  9  2  0
  9 10  1  0
 10 11  2  0
 10 12  1  0
 12 13  2  3
 13 14  1  0
 14 15  1  0
 15 16  2  0
 16 17  1  0
 17 18  2  0
 18 19  1  0
 19 20  2  0
 19 21  1  0
 18 22  1  0
 22 23  2  0
 13 24  1  0
 24 25  2  0
 24 26  1  0
 26 27  1  0
 27 28  1  0
 28 29  2  0
 29 30  1  0
 30 31  2  0
 31 32  1  0
  9 33  1  0
 33 34  2  0
 34  6  1  0
 23 15  1  0
 32 28  1  0
  1 35  1  0
  1 36  1  0
  1 37  1  0
  2 38  1  0
  2 39  1  0
  3 40  1  0
  3 41  1  0
  4 42  1  0
  4 43  1  0
  7 44  1  0
  8 45  1  0
 14 46  1  0
 14 47  1  0
 16 48  1  0
 17 49  1  0
 22 50  1  0
 23 51  1  0
 27 52  1  0
 27 53  1  0
 29 54  1  0
 30 55  1  0
 31 56  1  0
 33 57  1  0
 34 58  1  0
M  CHG  2  19   1  21  -1
M  END
$$$$
