
     RDKit          3D

 50 52  0  0  0  0  0  0  0  0999 V2000
   -3.2857   -2.8887   -0.2916 C   0  0  0  0  0  0  0  0  0  0  0  0
   -2.7111   -1.7024   -1.0587 C   0  0  0  0  0  0  0  0  0  0  0  0
   -2.7389   -0.3598   -0.2930 C   0  0  0  0  0  0  0  0  0  0  0  0
   -4.1289    0.0522    0.1853 C   0  0  0  0  0  0  0  0  0  0  0  0
   -5.1512    0.2820   -0.7587 C   0  0  0  0  0  0  0  0  0  0  0  0
   -6.4363    0.6577   -0.3607 C   0  0  0  0  0  0  0  0  0  0  0  0
   -6.7290    0.8100    0.9902 C   0  0  0  0  0  0  0  0  0  0  0  0
   -5.7381    0.5847    1.9407 C   0  0  0  0  0  0  0  0  0  0  0  0
   -4.4510    0.2090    1.5434 C   0  0  0  0  0  0  0  0  0  0  0  0
   -2.2028    0.6902   -1.1490 N   0  0  0  0  0  0  0  0  0  0  0  0
   -0.9811    1.1541   -0.7380 C   0  0  0  0  0  0  0  0  0  0  0  0
   -0.3281    1.9875   -1.3433 O   0  0  0  0  0  0  0  0  0  0  0  0
   -0.6557    0.5418    0.4256 N   0  0  0  0  0  0  0  0  0  0  0  0
    0.6074    0.7089    1.1055 C   0  0  0  0  0  0  0  0  0  0  0  0
    1.6309   -0.2796    0.5296 C   0  0  0  0  0  0  0  0  0  0  0  0
    1.3047   -1.1233   -0.3105 O   0  0  0  0  0  0  0  0  0  0  0  0
    2.9367   -0.1855    1.0106 N   0  0  0  0  0  0  0  0  0  0  0  0
    3.3927    0.8664    1.9089 C   0  0  0  0  0  0  0  0  0  0  0  0
    3.9708   -0.9945    0.3651 C   0  0  0  0  0  0  0  0  0  0  0  0
    4.7835   -0.2040   -0.6344 C   0  0  0  0  0  0  0  0  0  0  0  0
    4.2157    0.1949   -1.8534 C   0  0  0  0  0  0  0  0  0  0  0  0
    4.9580    0.9384   -2.7718 C   0  0  0  0  0  0  0  0  0  0  0  0
    6.2750    1.2898   -2.4830 C   0  0  0  0  0  0  0  0  0  0  0  0
    6.8512    0.8986   -1.2758 C   0  0  0  0  0  0  0  0  0  0  0  0
    6.1099    0.1561   -0.3547 C   0  0  0  0  0  0  0  0  0  0  0  0
   -1.6176   -0.3605    0.7830 C   0  0  0  0  0  0  0  0  0  0  0  0
   -1.5757   -1.0628    1.7874 O   0  0  0  0  0  0  0  0  0  0  0  0
   -3.2120   -3.7948   -0.9022 H   0  0  0  0  0  0  0  0  0  0  0  0
   -2.7399   -3.0724    0.6375 H   0  0  0  0  0  0  0  0  0  0  0  0
   -4.3423   -2.7406   -0.0501 H   0  0  0  0  0  0  0  0  0  0  0  0
   -1.6776   -1.9475   -1.3393 H   0  0  0  0  0  0  0  0  0  0  0  0
   -3.2607   -1.6068   -2.0043 H   0  0  0  0  0  0  0  0  0  0  0  0
   -4.9552    0.1676   -1.8229 H   0  0  0  0  0  0  0  0  0  0  0  0
   -7.2081    0.8300   -1.1064 H   0  0  0  0  0  0  0  0  0  0  0  0
   -7.7282    1.1009    1.3030 H   0  0  0  0  0  0  0  0  0  0  0  0
   -5.9653    0.6975    2.9981 H   0  0  0  0  0  0  0  0  0  0  0  0
   -3.7162    0.0349    2.3263 H   0  0  0  0  0  0  0  0  0  0  0  0
   -2.6190    1.0201   -2.0076 H   0  0  0  0  0  0  0  0  0  0  0  0
    0.9620    1.7321    0.9482 H   0  0  0  0  0  0  0  0  0  0  0  0
    0.4714    0.5013    2.1710 H   0  0  0  0  0  0  0  0  0  0  0  0
    4.2398    0.5041    2.4986 H   0  0  0  0  0  0  0  0  0  0  0  0
    3.6960    1.7332    1.3148 H   0  0  0  0  0  0  0  0  0  0  0  0
    2.6029    1.1700    2.5988 H   0  0  0  0  0  0  0  0  0  0  0  0
    3.5327   -1.8622   -0.1416 H   0  0  0  0  0  0  0  0  0  0  0  0
    4.6156   -1.4005    1.1542 H   0  0  0  0  0  0  0  0  0  0  0  0
    3.1873   -0.0725   -2.0920 H   0  0  0  0  0  0  0  0  0  0  0  0
    4.5055    1.2431   -3.7120 H   0  0  0  0  0  0  0  0  0  0  0  0
    6.8518    1.8682   -3.1998 H   0  0  0  0  0  0  0  0  0  0  0  0
    7.8790    1.1723   -1.0522 H   0  0  0  0  0  0  0  0  0  0  0  0
    6.5754   -0.1394    0.5826 H   0  0  0  0  0  0  0  0  0  0  0  0
  1  2  1  0
  2  3  1  0
  3  4  1  0
  4  5  2  0
  5  6  1  0
  6  7  2  0
  7  8  1  0
  8  9  2  0
  3 10  1  0
 10 11  1  0
 11 12  2  0
 11 13  1  0
 13 14  1  0
 14 15  1  0
 15 16  2  0
 15 17  1  0
 17 18  1  0
 17 19  1  0
 19 20  1  0
 20 21  2  0
 21 22  1  0
 22 23  2  0
 23 24  1  0
 24 25  2  0
 13 26  1  0
 26 27  2  0
 26  3  1  0
  9  4  1  0
 25 20  1  0
  1 28  1  0
  1 29  1  0
  1 30  1  0
  2 31  1  0
  2 32  1  0
  5 33  1  0
  6 34  1  0
  7 35  1  0
  8 36  1  0
  9 37  1  0
 10 38  1  0
 14 39  1  0
 14 40  1  0
 18 41  1  0
 18 42  1  0
 18 43  1  0
 19 44  1  0
 19 45  1  0
 21 46  1  0
 22 47  1  0
 23 48  1  0
 24 49  1  0
 25 50  1  0
M  END
$$$$
