
     RDKit          3D

 64 68  0  0  0  0  0  0  0  0999 V2000
   -4.2991    0.9808   -1.3580 C   0  0  0  0  0  0  0  0  0  0  0  0
   -5.1964    0.7941   -0.1245 C   0  0  0  0  0  0  0  0  0  0  0  0
   -6.5625    0.2472   -0.5649 C   0  0  0  0  0  0  0  0  0  0  0  0
   -5.3954    2.1708    0.5351 C   0  0  0  0  0  0  0  0  0  0  0  0
   -4.6169   -0.1642    0.9407 C   0  0  0  0  0  0  0  0  0  0  0  0
   -5.0746   -0.2170    2.0848 O   0  0  0  0  0  0  0  0  0  0  0  0
   -3.5191   -1.1058    0.5806 C   0  0  0  0  0  0  0  0  0  0  0  0
   -3.9110   -2.1767   -0.2629 C   0  0  0  0  0  0  0  0  0  0  0  0
   -4.2675   -3.0217   -0.9741 N   0  0  0  0  0  0  0  0  0  0  0  0
   -2.2589   -0.8536    0.9987 C   0  0  0  0  0  0  0  0  0  0  0  0
   -1.8462    0.6457    1.8138 S   0  0  0  0  0  0  0  0  0  0  0  0
   -0.1909    0.4882    1.3530 C   0  0  0  0  0  0  0  0  0  0  0  0
    0.6558    1.5303    1.3622 C   0  0  0  0  0  0  0  0  0  0  0  0
    1.9908    1.5670    0.8661 C   0  0  0  0  0  0  0  0  0  0  0  0
    3.0683    2.0459    1.5710 C   0  0  0  0  0  0  0  0  0  0  0  0
    4.1698    1.9198    0.7520 N   0  0  0  0  0  0  0  0  0  0  0  0
    5.5204    2.2671    1.0404 C   0  0  0  0  0  0  0  0  0  0  0  0
    5.8914    2.7753    2.2936 C   0  0  0  0  0  0  0  0  0  0  0  0
    7.2250    3.1118    2.5456 C   0  0  0  0  0  0  0  0  0  0  0  0
    8.1914    2.9436    1.5556 C   0  0  0  0  0  0  0  0  0  0  0  0
    7.8297    2.4383    0.3090 C   0  0  0  0  0  0  0  0  0  0  0  0
    6.5000    2.1002    0.0491 C   0  0  0  0  0  0  0  0  0  0  0  0
    3.8280    1.4177   -0.4624 N   0  0  0  0  0  0  0  0  0  0  0  0
    2.5068    1.2036   -0.4074 C   0  0  0  0  0  0  0  0  0  0  0  0
    1.7911    0.6841   -1.5642 C   0  0  0  0  0  0  0  0  0  0  0  0
    0.6527    1.3170   -2.0716 C   0  0  0  0  0  0  0  0  0  0  0  0
   -0.0238    0.7562   -3.1535 C   0  0  0  0  0  0  0  0  0  0  0  0
    0.4616   -0.4255   -3.6915 C   0  0  0  0  0  0  0  0  0  0  0  0
    1.5564   -1.0655   -3.2298 N   0  0  0  0  0  0  0  0  0  0  0  0
    2.2051   -0.4888   -2.1856 C   0  0  0  0  0  0  0  0  0  0  0  0
    0.1064   -0.9142    0.9460 C   0  0  0  0  0  0  0  0  0  0  0  0
    1.2427   -1.3592    0.8662 O   0  0  0  0  0  0  0  0  0  0  0  0
   -1.1061   -1.6058    0.7518 N   0  0  0  0  0  0  0  0  0  0  0  0
   -1.0459   -3.0087    0.4806 C   0  0  0  0  0  0  0  0  0  0  0  0
   -0.1571   -3.5147   -0.4806 C   0  0  0  0  0  0  0  0  0  0  0  0
   -0.0916   -4.8864   -0.7373 C   0  0  0  0  0  0  0  0  0  0  0  0
   -0.9017   -5.7574   -0.0218 C   0  0  0  0  0  0  0  0  0  0  0  0
   -0.8374   -7.0722   -0.2650 F   0  0  0  0  0  0  0  0  0  0  0  0
   -1.7721   -5.2831    0.9506 C   0  0  0  0  0  0  0  0  0  0  0  0
   -1.8426   -3.9113    1.2063 C   0  0  0  0  0  0  0  0  0  0  0  0
   -3.2867    1.2969   -1.0807 H   0  0  0  0  0  0  0  0  0  0  0  0
   -4.2099    0.0591   -1.9426 H   0  0  0  0  0  0  0  0  0  0  0  0
   -4.7091    1.7439   -2.0303 H   0  0  0  0  0  0  0  0  0  0  0  0
   -7.2399    0.1332    0.2887 H   0  0  0  0  0  0  0  0  0  0  0  0
   -7.0437    0.9158   -1.2871 H   0  0  0  0  0  0  0  0  0  0  0  0
   -6.4662   -0.7375   -1.0354 H   0  0  0  0  0  0  0  0  0  0  0  0
   -5.8322    2.8898   -0.1670 H   0  0  0  0  0  0  0  0  0  0  0  0
   -4.4416    2.5809    0.8846 H   0  0  0  0  0  0  0  0  0  0  0  0
   -6.0639    2.1117    1.4019 H   0  0  0  0  0  0  0  0  0  0  0  0
    0.2921    2.4789    1.7546 H   0  0  0  0  0  0  0  0  0  0  0  0
    3.1403    2.4404    2.5721 H   0  0  0  0  0  0  0  0  0  0  0  0
    5.1751    2.9214    3.0952 H   0  0  0  0  0  0  0  0  0  0  0  0
    7.5125    3.5060    3.5175 H   0  0  0  0  0  0  0  0  0  0  0  0
    9.2274    3.2050    1.7559 H   0  0  0  0  0  0  0  0  0  0  0  0
    8.5846    2.2982   -0.4619 H   0  0  0  0  0  0  0  0  0  0  0  0
    6.2442    1.7046   -0.9325 H   0  0  0  0  0  0  0  0  0  0  0  0
    0.3007    2.2517   -1.6442 H   0  0  0  0  0  0  0  0  0  0  0  0
   -0.9007    1.2348   -3.5763 H   0  0  0  0  0  0  0  0  0  0  0  0
   -0.0287   -0.9004   -4.5370 H   0  0  0  0  0  0  0  0  0  0  0  0
    3.0834   -1.0267   -1.8361 H   0  0  0  0  0  0  0  0  0  0  0  0
    0.4832   -2.8506   -1.0583 H   0  0  0  0  0  0  0  0  0  0  0  0
    0.5865   -5.2741   -1.4913 H   0  0  0  0  0  0  0  0  0  0  0  0
   -2.3822   -5.9857    1.5116 H   0  0  0  0  0  0  0  0  0  0  0  0
   -2.5012   -3.5703    2.0011 H   0  0  0  0  0  0  0  0  0  0  0  0
  1  2  1  0
  2  3  1  0
  2  4  1  0
  2  5  1  0
  5  6  2  0
  5  7  1  0
  7  8  1  0
  8  9  3  0
  7 10  2  3
 10 11  1  0
 11 12  1  0
 12 13  2  3
 13 14  1  0
 14 15  2  0
 15 16  1  0
 16 17  1  0
 17 18  2  0
 18 19  1  0
 19 20  2  0
 20 21  1  0
 21 22  2  0
 16 23  1  0
 23 24  2  0
 24 25  1  0
 25 26  2  0
 26 27  1  0
 27 28  2  0
 28 29  1  0
 29 30  2  0
 12 31  1  0
 31 32  2  0
 31 33  1  0
 33 34  1  0
 34 35  2  0
 35 36  1  0
 36 37  2  0
 37 38  1  0
 37 39  1  0
 39 40  2  0
 33 10  1  0
 40 34  1  0
 24 14  1  0
 30 25  1  0
 22 17  1  0
  1 41  1  0
  1 42  1  0
  1 43  1  0
  3 44  1  0
  3 45  1  0
  3 46  1  0
  4 47  1  0
  4 48  1  0
  4 49  1  0
 13 50  1  0
 15 51  1  0
 18 52  1  0
 19 53  1  0
 20 54  1  0
 21 55  1  0
 22 56  1  0
 26 57  1  0
 27 58  1  0
 28 59  1  0
 30 60  1  0
 35 61  1  0
 36 62  1  0
 39 63  1  0
 40 64  1  0
M  END
$$$$
