
     RDKit          3D

 54 59  0  0  0  0  0  0  0  0999 V2000
    4.7450   -1.9621    2.3164 C   0  0  0  0  0  0  0  0  0  0  0  0
    5.4634   -1.8292    1.0015 C   0  0  0  0  0  0  0  0  0  0  0  0
    6.6987   -2.4683    0.8162 C   0  0  0  0  0  0  0  0  0  0  0  0
    7.3784   -2.3567   -0.3950 C   0  0  0  0  0  0  0  0  0  0  0  0
    6.8299   -1.6062   -1.4303 C   0  0  0  0  0  0  0  0  0  0  0  0
    5.6003   -0.9648   -1.2586 C   0  0  0  0  0  0  0  0  0  0  0  0
    4.9098   -1.0708   -0.0469 C   0  0  0  0  0  0  0  0  0  0  0  0
    3.7022   -0.4834    0.2247 O   0  0  0  0  0  0  0  0  0  0  0  0
    3.0894    0.2861   -0.8143 C   0  0  0  0  0  0  0  0  0  0  0  0
    1.7733    0.8395   -0.3657 C   0  0  0  0  0  0  0  0  0  0  0  0
    0.5868    0.1680   -0.5706 N   0  0  0  0  0  0  0  0  0  0  0  0
   -0.3164    0.9567   -0.0273 C   0  0  0  0  0  0  0  0  0  0  0  0
   -1.7389    0.8897    0.1348 C   0  0  0  0  0  0  0  0  0  0  0  0
   -2.3089    1.9572    0.7747 C   0  0  0  0  0  0  0  0  0  0  0  0
   -1.6160    3.0669    1.2555 N   0  0  0  0  0  0  0  0  0  0  0  0
   -0.3282    3.0986    1.0964 C   0  0  0  0  0  0  0  0  0  0  0  0
    0.3173    2.0604    0.4641 N   0  0  0  0  0  0  0  0  0  0  0  0
    1.6452    2.0280    0.2477 N   0  0  0  0  0  0  0  0  0  0  0  0
   -3.7854    1.9818    0.9809 C   0  0  0  0  0  0  0  0  0  0  0  0
   -4.4605    3.1736    1.2892 C   0  0  0  0  0  0  0  0  0  0  0  0
   -5.8410    3.1842    1.5025 C   0  0  0  0  0  0  0  0  0  0  0  0
   -6.5668    1.9999    1.4195 C   0  0  0  0  0  0  0  0  0  0  0  0
   -5.9141    0.8061    1.1205 C   0  0  0  0  0  0  0  0  0  0  0  0
   -4.5306    0.7956    0.8908 C   0  0  0  0  0  0  0  0  0  0  0  0
   -3.8139   -0.4922    0.5992 C   0  0  0  0  0  0  0  0  0  0  0  0
   -2.6236   -0.2832   -0.3654 C   0  0  0  0  0  0  0  0  0  0  0  0
   -1.8857   -1.6383   -0.5257 C   0  0  0  0  0  0  0  0  0  0  0  0
   -1.4625   -1.7540   -1.9942 C   0  0  0  0  0  0  0  0  0  0  0  0
   -1.9813   -0.5079   -2.6969 C   0  0  0  0  0  0  0  0  0  0  0  0
   -3.1115   -0.0121   -1.8084 C   0  0  0  0  0  0  0  0  0  0  0  0
    5.3087   -2.5821    3.0215 H   0  0  0  0  0  0  0  0  0  0  0  0
    3.7678   -2.4330    2.1686 H   0  0  0  0  0  0  0  0  0  0  0  0
    4.6096   -0.9775    2.7757 H   0  0  0  0  0  0  0  0  0  0  0  0
    7.1381   -3.0578    1.6177 H   0  0  0  0  0  0  0  0  0  0  0  0
    8.3348   -2.8551   -0.5297 H   0  0  0  0  0  0  0  0  0  0  0  0
    7.3600   -1.5187   -2.3753 H   0  0  0  0  0  0  0  0  0  0  0  0
    5.2141   -0.3910   -2.0940 H   0  0  0  0  0  0  0  0  0  0  0  0
    3.7441    1.1199   -1.0967 H   0  0  0  0  0  0  0  0  0  0  0  0
    2.9123   -0.3486   -1.6914 H   0  0  0  0  0  0  0  0  0  0  0  0
    0.2701    3.9493    1.4577 H   0  0  0  0  0  0  0  0  0  0  0  0
   -3.9117    4.1098    1.3680 H   0  0  0  0  0  0  0  0  0  0  0  0
   -6.3445    4.1175    1.7399 H   0  0  0  0  0  0  0  0  0  0  0  0
   -7.6396    2.0058    1.5931 H   0  0  0  0  0  0  0  0  0  0  0  0
   -6.4884   -0.1159    1.0679 H   0  0  0  0  0  0  0  0  0  0  0  0
   -4.5170   -1.2216    0.1762 H   0  0  0  0  0  0  0  0  0  0  0  0
   -3.4604   -0.9063    1.5535 H   0  0  0  0  0  0  0  0  0  0  0  0
   -1.0353   -1.7493    0.1550 H   0  0  0  0  0  0  0  0  0  0  0  0
   -2.5564   -2.4783   -0.3014 H   0  0  0  0  0  0  0  0  0  0  0  0
   -1.9111   -2.6516   -2.4359 H   0  0  0  0  0  0  0  0  0  0  0  0
   -0.3780   -1.8526   -2.1033 H   0  0  0  0  0  0  0  0  0  0  0  0
   -2.3233   -0.7240   -3.7137 H   0  0  0  0  0  0  0  0  0  0  0  0
   -1.1909    0.2467   -2.7720 H   0  0  0  0  0  0  0  0  0  0  0  0
   -3.3388    1.0413   -2.0046 H   0  0  0  0  0  0  0  0  0  0  0  0
   -4.0187   -0.5899   -2.0274 H   0  0  0  0  0  0  0  0  0  0  0  0
  1  2  1  0
  2  3  2  0
  3  4  1  0
  4  5  2  0
  5  6  1  0
  6  7  2  0
  7  8  1  0
  8  9  1  0
  9 10  1  0
 10 11  1  0
 11 12  2  0
 12 13  1  0
 13 14  2  0
 14 15  1  0
 15 16  2  0
 16 17  1  0
 17 18  1  0
 14 19  1  0
 19 20  2  0
 20 21  1  0
 21 22  2  0
 22 23  1  0
 23 24  2  0
 24 25  1  0
 25 26  1  0
 26 27  1  0
 27 28  1  0
 28 29  1  0
 29 30  1  0
  7  2  1  0
 18 10  2  0
 24 19  1  0
 30 26  1  0
 17 12  1  0
 26 13  1  0
  1 31  1  0
  1 32  1  0
  1 33  1  0
  3 34  1  0
  4 35  1  0
  5 36  1  0
  6 37  1  0
  9 38  1  0
  9 39  1  0
 16 40  1  0
 20 41  1  0
 21 42  1  0
 22 43  1  0
 23 44  1  0
 25 45  1  0
 25 46  1  0
 27 47  1  0
 27 48  1  0
 28 49  1  0
 28 50  1  0
 29 51  1  0
 29 52  1  0
 30 53  1  0
 30 54  1  0
M  END
$$$$
