
     RDKit          3D

 32 32  0  0  0  0  0  0  0  0999 V2000
    5.6428   -0.8279    0.5084 C   0  0  0  0  0  0  0  0  0  0  0  0
    5.1729    0.3251   -0.3618 C   0  0  0  0  0  0  0  0  0  0  0  0
    3.8273   -0.1788   -1.4737 S   0  0  0  0  0  0  0  0  0  0  0  0
    2.4482   -0.1576   -0.3995 C   0  0  0  0  0  0  0  0  0  0  0  0
    2.5109    0.2429    0.8499 N   0  0  0  0  0  0  0  0  0  0  0  0
    1.2888    0.1556    1.4839 N   0  0  0  0  0  0  0  0  0  0  0  0
    0.3312   -0.2672    0.6887 C   0  0  0  0  0  0  0  0  0  0  0  0
   -0.9485   -0.4438    1.1290 N   0  0  0  0  0  0  0  0  0  0  0  0
   -2.0856    0.3197    0.4662 C   0  0  0  0  0  0  0  0  0  0  0  0
   -2.3280   -0.5148   -0.7223 N   0  0  0  0  0  0  0  0  0  0  0  0
   -3.2438   -0.1898   -1.6794 C   0  0  0  0  0  0  0  0  0  0  0  0
   -3.4355   -1.2257   -2.7522 C   0  0  0  0  0  0  0  0  0  0  0  0
   -3.8606    0.8651   -1.6622 O   0  0  0  0  0  0  0  0  0  0  0  0
   -1.7653    1.8350    0.2444 C   0  0  0  0  0  0  0  0  0  0  0  0
   -1.2129    2.3659    1.3681 F   0  0  0  0  0  0  0  0  0  0  0  0
   -2.8258    2.6065   -0.0565 F   0  0  0  0  0  0  0  0  0  0  0  0
   -0.8520    2.0080   -0.7453 F   0  0  0  0  0  0  0  0  0  0  0  0
   -3.3014    0.3634    1.4451 C   0  0  0  0  0  0  0  0  0  0  0  0
   -2.9349    0.8901    2.6413 F   0  0  0  0  0  0  0  0  0  0  0  0
   -3.7267   -0.9037    1.7131 F   0  0  0  0  0  0  0  0  0  0  0  0
   -4.3728    1.0464    1.0090 F   0  0  0  0  0  0  0  0  0  0  0  0
    0.8889   -0.6634   -0.8935 S   0  0  0  0  0  0  0  0  0  0  0  0
    6.4782   -0.5011    1.1366 H   0  0  0  0  0  0  0  0  0  0  0  0
    5.9961   -1.6688   -0.0979 H   0  0  0  0  0  0  0  0  0  0  0  0
    4.8532   -1.1890    1.1746 H   0  0  0  0  0  0  0  0  0  0  0  0
    6.0064    0.6600   -0.9881 H   0  0  0  0  0  0  0  0  0  0  0  0
    4.8707    1.1811    0.2499 H   0  0  0  0  0  0  0  0  0  0  0  0
   -0.9701   -0.2330    2.1332 H   0  0  0  0  0  0  0  0  0  0  0  0
   -1.9921   -1.4656   -0.6544 H   0  0  0  0  0  0  0  0  0  0  0  0
   -4.4348   -1.6587   -2.6562 H   0  0  0  0  0  0  0  0  0  0  0  0
   -2.6944   -2.0265   -2.6777 H   0  0  0  0  0  0  0  0  0  0  0  0
   -3.3306   -0.7495   -3.7309 H   0  0  0  0  0  0  0  0  0  0  0  0
  1  2  1  0
  2  3  1  0
  3  4  1  0
  4  5  2  0
  5  6  1  0
  6  7  2  0
  7  8  1  0
  8  9  1  0
  9 10  1  0
 10 11  1  0
 11 12  1  0
 11 13  2  0
  9 14  1  0
 14 15  1  0
 14 16  1  0
 14 17  1  0
  9 18  1  0
 18 19  1  0
 18 20  1  0
 18 21  1  0
  7 22  1  0
 22  4  1  0
  1 23  1  0
  1 24  1  0
  1 25  1  0
  2 26  1  0
  2 27  1  0
  8 28  1  0
 10 29  1  0
 12 30  1  0
 12 31  1  0
 12 32  1  0
M  END
$$$$
