
     RDKit          3D

 57 59  0  0  0  0  0  0  0  0999 V2000
   -2.8720   -4.0497   -1.5053 C   0  0  0  0  0  0  0  0  0  0  0  0
   -2.0046   -2.8112   -1.3671 C   0  0  0  0  0  0  0  0  0  0  0  0
   -1.4630   -2.6578    0.0520 C   0  0  0  0  0  0  0  0  0  0  0  0
   -0.6217   -1.5102    0.1521 O   0  0  0  0  0  0  0  0  0  0  0  0
   -1.1721   -0.2792    0.4067 C   0  0  0  0  0  0  0  0  0  0  0  0
   -2.5461   -0.0230    0.5554 C   0  0  0  0  0  0  0  0  0  0  0  0
   -3.0653    1.2590    0.8331 C   0  0  0  0  0  0  0  0  0  0  0  0
   -4.4310    1.4932    0.9756 N   0  0  0  0  0  0  0  0  0  0  0  0
   -4.9590    2.7927    1.4140 C   0  0  0  0  0  0  0  0  0  0  0  0
   -5.1800    3.7238    0.2302 C   0  0  0  0  0  0  0  0  0  0  0  0
   -5.4391    0.4714    0.6606 C   0  0  0  0  0  0  0  0  0  0  0  0
   -5.7423   -0.3903    1.8782 C   0  0  0  0  0  0  0  0  0  0  0  0
   -2.1145    2.2842    0.9605 C   0  0  0  0  0  0  0  0  0  0  0  0
   -0.7409    2.0584    0.8085 C   0  0  0  0  0  0  0  0  0  0  0  0
   -0.2620    0.7815    0.5207 C   0  0  0  0  0  0  0  0  0  0  0  0
    1.1919    0.6082    0.3674 C   0  0  0  0  0  0  0  0  0  0  0  0
    1.8265    0.2787   -0.7766 C   0  0  0  0  0  0  0  0  0  0  0  0
    1.1157    0.0759   -2.0011 C   0  0  0  0  0  0  0  0  0  0  0  0
    0.6299   -0.1038   -3.0407 N   0  0  0  0  0  0  0  0  0  0  0  0
    3.2514    0.1585   -0.7307 C   0  0  0  0  0  0  0  0  0  0  0  0
    4.0978    0.3969    0.2577 N   0  0  0  0  0  0  0  0  0  0  0  0
    5.3500    0.1188   -0.2312 C   0  0  0  0  0  0  0  0  0  0  0  0
    6.6001    0.2033    0.3991 C   0  0  0  0  0  0  0  0  0  0  0  0
    7.7547   -0.1488   -0.3225 C   0  0  0  0  0  0  0  0  0  0  0  0
    9.1049   -0.0334    0.3237 C   0  0  0  0  0  0  0  0  0  0  0  0
    7.6450   -0.5528   -1.6618 C   0  0  0  0  0  0  0  0  0  0  0  0
    6.4042   -0.6426   -2.3062 C   0  0  0  0  0  0  0  0  0  0  0  0
    5.2822   -0.2985   -1.5520 C   0  0  0  0  0  0  0  0  0  0  0  0
    3.9434   -0.2675   -1.8480 N   0  0  0  0  0  0  0  0  0  0  0  0
   -3.2410   -4.1419   -2.5316 H   0  0  0  0  0  0  0  0  0  0  0  0
   -2.3053   -4.9550   -1.2657 H   0  0  0  0  0  0  0  0  0  0  0  0
   -3.7372   -3.9979   -0.8366 H   0  0  0  0  0  0  0  0  0  0  0  0
   -2.5819   -1.9266   -1.6571 H   0  0  0  0  0  0  0  0  0  0  0  0
   -1.1663   -2.8642   -2.0722 H   0  0  0  0  0  0  0  0  0  0  0  0
   -0.8260   -3.5214    0.2778 H   0  0  0  0  0  0  0  0  0  0  0  0
   -2.2479   -2.6658    0.8165 H   0  0  0  0  0  0  0  0  0  0  0  0
   -3.2381   -0.8478    0.4588 H   0  0  0  0  0  0  0  0  0  0  0  0
   -4.3155    3.2610    2.1672 H   0  0  0  0  0  0  0  0  0  0  0  0
   -5.9208    2.6457    1.9222 H   0  0  0  0  0  0  0  0  0  0  0  0
   -5.5901    4.6789    0.5729 H   0  0  0  0  0  0  0  0  0  0  0  0
   -4.2486    3.9279   -0.3063 H   0  0  0  0  0  0  0  0  0  0  0  0
   -5.8857    3.2898   -0.4858 H   0  0  0  0  0  0  0  0  0  0  0  0
   -6.3705    0.9572    0.3423 H   0  0  0  0  0  0  0  0  0  0  0  0
   -5.1416   -0.1461   -0.1944 H   0  0  0  0  0  0  0  0  0  0  0  0
   -6.1156    0.2193    2.7077 H   0  0  0  0  0  0  0  0  0  0  0  0
   -4.8539   -0.9218    2.2322 H   0  0  0  0  0  0  0  0  0  0  0  0
   -6.5071   -1.1339    1.6333 H   0  0  0  0  0  0  0  0  0  0  0  0
   -2.4152    3.3062    1.1681 H   0  0  0  0  0  0  0  0  0  0  0  0
   -0.0554    2.8968    0.9111 H   0  0  0  0  0  0  0  0  0  0  0  0
    1.7579    0.7751    1.2832 H   0  0  0  0  0  0  0  0  0  0  0  0
    6.6553    0.5362    1.4300 H   0  0  0  0  0  0  0  0  0  0  0  0
    9.0378   -0.2059    1.4030 H   0  0  0  0  0  0  0  0  0  0  0  0
    9.7963   -0.7797   -0.0816 H   0  0  0  0  0  0  0  0  0  0  0  0
    9.5184    0.9647    0.1498 H   0  0  0  0  0  0  0  0  0  0  0  0
    8.5429   -0.8067   -2.2237 H   0  0  0  0  0  0  0  0  0  0  0  0
    6.3295   -0.9609   -3.3403 H   0  0  0  0  0  0  0  0  0  0  0  0
    3.5418   -0.5186   -2.7408 H   0  0  0  0  0  0  0  0  0  0  0  0
  1  2  1  0
  2  3  1  0
  3  4  1  0
  4  5  1  0
  5  6  2  0
  6  7  1  0
  7  8  1  0
  8  9  1  0
  9 10  1  0
  8 11  1  0
 11 12  1  0
  7 13  2  0
 13 14  1  0
 14 15  2  0
 15 16  1  0
 16 17  2  3
 17 18  1  0
 18 19  3  0
 17 20  1  0
 20 21  2  0
 21 22  1  0
 22 23  2  0
 23 24  1  0
 24 25  1  0
 24 26  2  0
 26 27  1  0
 27 28  2  0
 28 29  1  0
 15  5  1  0
 29 20  1  0
 28 22  1  0
  1 30  1  0
  1 31  1  0
  1 32  1  0
  2 33  1  0
  2 34  1  0
  3 35  1  0
  3 36  1  0
  6 37  1  0
  9 38  1  0
  9 39  1  0
 10 40  1  0
 10 41  1  0
 10 42  1  0
 11 43  1  0
 11 44  1  0
 12 45  1  0
 12 46  1  0
 12 47  1  0
 13 48  1  0
 14 49  1  0
 16 50  1  0
 23 51  1  0
 25 52  1  0
 25 53  1  0
 25 54  1  0
 26 55  1  0
 27 56  1  0
 29 57  1  0
M  END
$$$$
