
     RDKit          3D

 40 43  0  0  0  0  0  0  0  0999 V2000
   -4.5957    2.1626    2.3683 C   0  0  0  0  0  0  0  0  0  0  0  0
   -4.0028    1.3441    3.4570 C   0  0  0  0  0  0  0  0  0  0  0  0
   -4.6628    1.3088    4.6818 N   0  0  0  0  0  0  0  0  0  0  0  0
   -4.0220    0.5680    5.5679 N   0  0  0  0  0  0  0  0  0  0  0  0
   -2.6116   -0.0864    4.9646 S   0  0  0  0  0  0  0  0  0  0  0  0
   -2.8414    0.5826    3.4015 C   0  0  0  0  0  0  0  0  0  0  0  0
   -1.9306    0.4213    2.3159 C   0  0  0  0  0  0  0  0  0  0  0  0
   -1.6077    1.4006    1.4883 N   0  0  0  0  0  0  0  0  0  0  0  0
   -0.6594    0.9305    0.6078 N   0  0  0  0  0  0  0  0  0  0  0  0
   -0.4428   -0.3332    0.8951 C   0  0  0  0  0  0  0  0  0  0  0  0
    0.7048   -1.3696    0.1258 S   0  0  0  0  0  0  0  0  0  0  0  0
    1.4097   -0.2184   -1.0904 C   0  0  0  0  0  0  0  0  0  0  0  0
    2.4756   -0.8735   -1.9523 C   0  0  0  0  0  0  0  0  0  0  0  0
    2.8047   -2.0547   -1.8594 O   0  0  0  0  0  0  0  0  0  0  0  0
    3.1633   -0.0263   -2.9799 C   0  0  0  0  0  0  0  0  0  0  0  0
    4.1609   -0.6168   -3.7711 C   0  0  0  0  0  0  0  0  0  0  0  0
    4.8348    0.1285   -4.7442 C   0  0  0  0  0  0  0  0  0  0  0  0
    4.5180    1.4752   -4.9380 C   0  0  0  0  0  0  0  0  0  0  0  0
    5.2063    2.2428   -5.9347 C   0  0  0  0  0  0  0  0  0  0  0  0
    5.7607    2.8676   -6.7402 N   0  0  0  0  0  0  0  0  0  0  0  0
    3.5244    2.0702   -4.1535 C   0  0  0  0  0  0  0  0  0  0  0  0
    2.8487    1.3247   -3.1785 C   0  0  0  0  0  0  0  0  0  0  0  0
   -1.2631   -0.7139    1.9216 N   0  0  0  0  0  0  0  0  0  0  0  0
   -1.3943   -2.0770    2.4905 C   0  0  0  0  0  0  0  0  0  0  0  0
   -2.7313   -2.7634    2.6748 C   0  0  0  0  0  0  0  0  0  0  0  0
   -1.7761   -3.2722    1.6433 C   0  0  0  0  0  0  0  0  0  0  0  0
   -5.5992    2.5055    2.6398 H   0  0  0  0  0  0  0  0  0  0  0  0
   -3.9774    3.0444    2.1739 H   0  0  0  0  0  0  0  0  0  0  0  0
   -4.6789    1.5808    1.4450 H   0  0  0  0  0  0  0  0  0  0  0  0
    1.8619    0.6190   -0.5498 H   0  0  0  0  0  0  0  0  0  0  0  0
    0.6041    0.1350   -1.7417 H   0  0  0  0  0  0  0  0  0  0  0  0
    4.4214   -1.6661   -3.6343 H   0  0  0  0  0  0  0  0  0  0  0  0
    5.6050   -0.3525   -5.3453 H   0  0  0  0  0  0  0  0  0  0  0  0
    3.2680    3.1197   -4.2954 H   0  0  0  0  0  0  0  0  0  0  0  0
    2.0839    1.8299   -2.5944 H   0  0  0  0  0  0  0  0  0  0  0  0
   -0.6423   -2.2606    3.2547 H   0  0  0  0  0  0  0  0  0  0  0  0
   -3.6347   -2.2795    2.3196 H   0  0  0  0  0  0  0  0  0  0  0  0
   -2.8786   -3.3640    3.5664 H   0  0  0  0  0  0  0  0  0  0  0  0
   -2.0370   -3.1231    0.6011 H   0  0  0  0  0  0  0  0  0  0  0  0
   -1.2666   -4.2106    1.8350 H   0  0  0  0  0  0  0  0  0  0  0  0
  1  2  1  0
  2  3  1  0
  3  4  2  0
  4  5  1  0
  5  6  1  0
  6  7  1  0
  7  8  2  0
  8  9  1  0
  9 10  2  0
 10 11  1  0
 11 12  1  0
 12 13  1  0
 13 14  2  0
 13 15  1  0
 15 16  2  0
 16 17  1  0
 17 18  2  0
 18 19  1  0
 19 20  3  0
 18 21  1  0
 21 22  2  0
 10 23  1  0
 23 24  1  0
 24 25  1  0
 25 26  1  0
  6  2  2  0
 23  7  1  0
 26 24  1  0
 22 15  1  0
  1 27  1  0
  1 28  1  0
  1 29  1  0
 12 30  1  0
 12 31  1  0
 16 32  1  0
 17 33  1  0
 21 34  1  0
 22 35  1  0
 24 36  1  0
 25 37  1  0
 25 38  1  0
 26 39  1  0
 26 40  1  0
M  END
$$$$
