
     RDKit          3D

 56 60  0  0  0  0  0  0  0  0999 V2000
   -6.0465   -3.7817    0.1424 C   0  0  0  0  0  0  0  0  0  0  0  0
   -5.3434   -2.4959    0.4650 C   0  0  0  0  0  0  0  0  0  0  0  0
   -4.8655   -2.2581    1.7613 C   0  0  0  0  0  0  0  0  0  0  0  0
   -4.2416   -1.0497    2.0760 C   0  0  0  0  0  0  0  0  0  0  0  0
   -4.0910   -0.0754    1.0875 C   0  0  0  0  0  0  0  0  0  0  0  0
   -3.3346    1.4912    1.4799 S   0  0  0  0  0  6  0  0  0  0  0  0
   -4.1933    2.4858    0.8501 O   0  0  0  0  0  0  0  0  0  0  0  0
   -3.1427    1.5562    2.9190 O   0  0  0  0  0  0  0  0  0  0  0  0
   -1.8056    1.4558    0.6738 C   0  0  0  0  0  0  0  0  0  0  0  0
   -1.4558    2.4772   -0.1250 C   0  0  0  0  0  0  0  0  0  0  0  0
   -0.1757    2.5226   -0.8127 C   0  0  0  0  0  0  0  0  0  0  0  0
    0.1617    3.7039   -1.6575 C   0  0  0  0  0  0  0  0  0  0  0  0
   -0.6508    4.6226   -1.7799 O   0  0  0  0  0  0  0  0  0  0  0  0
    1.4036    3.6803   -2.2660 N   0  0  0  0  0  0  0  0  0  0  0  0
    1.7964    4.7502   -3.0637 C   0  0  0  0  0  0  0  0  0  0  0  0
    2.9864    4.7727   -3.6764 C   0  0  0  0  0  0  0  0  0  0  0  0
    3.8945    3.6688   -3.5166 C   0  0  0  0  0  0  0  0  0  0  0  0
    3.5568    2.6187   -2.7589 C   0  0  0  0  0  0  0  0  0  0  0  0
    2.2323    2.5912   -2.0752 C   0  0  0  0  0  0  0  0  0  0  0  0
    1.9329    1.5622   -1.3495 N   0  0  0  0  0  0  0  0  0  0  0  0
    0.7174    1.5126   -0.7041 C   0  0  0  0  0  0  0  0  0  0  0  0
    0.3850    0.3887    0.1017 N   0  0  0  0  0  0  0  0  0  0  0  0
    1.3620   -0.7149    0.1882 C   0  0  0  0  0  0  0  0  0  0  0  0
    2.3340   -0.4858    1.3504 C   0  0  0  0  0  0  0  0  0  0  0  0
    3.2953   -1.6378    1.5053 C   0  0  0  0  0  0  0  0  0  0  0  0
    3.0435   -2.6552    2.4351 C   0  0  0  0  0  0  0  0  0  0  0  0
    3.9238   -3.7311    2.5589 C   0  0  0  0  0  0  0  0  0  0  0  0
    5.0595   -3.8011    1.7542 C   0  0  0  0  0  0  0  0  0  0  0  0
    5.3174   -2.7952    0.8249 C   0  0  0  0  0  0  0  0  0  0  0  0
    4.4391   -1.7182    0.6992 C   0  0  0  0  0  0  0  0  0  0  0  0
   -0.8098    0.3559    0.8438 C   0  0  0  0  0  0  0  0  0  0  0  0
   -1.1124   -0.5806    1.6888 N   0  0  0  0  0  0  0  0  0  0  0  0
   -4.5907   -0.2856   -0.2017 C   0  0  0  0  0  0  0  0  0  0  0  0
   -5.2152   -1.4957   -0.5086 C   0  0  0  0  0  0  0  0  0  0  0  0
   -5.6484   -4.6059    0.7436 H   0  0  0  0  0  0  0  0  0  0  0  0
   -7.1178   -3.6826    0.3422 H   0  0  0  0  0  0  0  0  0  0  0  0
   -5.9055   -4.0504   -0.9098 H   0  0  0  0  0  0  0  0  0  0  0  0
   -4.9771   -3.0136    2.5361 H   0  0  0  0  0  0  0  0  0  0  0  0
   -3.8674   -0.8807    3.0834 H   0  0  0  0  0  0  0  0  0  0  0  0
   -2.1253    3.3226   -0.2773 H   0  0  0  0  0  0  0  0  0  0  0  0
    1.0936    5.5733   -3.1700 H   0  0  0  0  0  0  0  0  0  0  0  0
    3.2843    5.6123   -4.2964 H   0  0  0  0  0  0  0  0  0  0  0  0
    4.8538    3.7093   -4.0229 H   0  0  0  0  0  0  0  0  0  0  0  0
    4.2118    1.7689   -2.6140 H   0  0  0  0  0  0  0  0  0  0  0  0
    1.9160   -0.8202   -0.7541 H   0  0  0  0  0  0  0  0  0  0  0  0
    0.8462   -1.6778    0.2911 H   0  0  0  0  0  0  0  0  0  0  0  0
    1.7834   -0.3393    2.2882 H   0  0  0  0  0  0  0  0  0  0  0  0
    2.9028    0.4405    1.1992 H   0  0  0  0  0  0  0  0  0  0  0  0
    2.1638   -2.6163    3.0740 H   0  0  0  0  0  0  0  0  0  0  0  0
    3.7245   -4.5148    3.2855 H   0  0  0  0  0  0  0  0  0  0  0  0
    5.7448   -4.6389    1.8531 H   0  0  0  0  0  0  0  0  0  0  0  0
    6.2041   -2.8494    0.1987 H   0  0  0  0  0  0  0  0  0  0  0  0
    4.6532   -0.9400   -0.0304 H   0  0  0  0  0  0  0  0  0  0  0  0
   -0.3842   -1.2867    1.7716 H   0  0  0  0  0  0  0  0  0  0  0  0
   -4.5140    0.4875   -0.9624 H   0  0  0  0  0  0  0  0  0  0  0  0
   -5.6098   -1.6523   -1.5104 H   0  0  0  0  0  0  0  0  0  0  0  0
  1  2  1  0
  2  3  2  0
  3  4  1  0
  4  5  2  0
  5  6  1  0
  6  7  2  0
  6  8  2  0
  6  9  1  0
  9 10  2  0
 10 11  1  0
 11 12  1  0
 12 13  2  0
 12 14  1  0
 14 15  1  0
 15 16  2  0
 16 17  1  0
 17 18  2  0
 18 19  1  0
 19 20  2  0
 20 21  1  0
 21 22  1  0
 22 23  1  0
 23 24  1  0
 24 25  1  0
 25 26  2  0
 26 27  1  0
 27 28  2  0
 28 29  1  0
 29 30  2  0
 22 31  1  0
 31 32  2  3
  5 33  1  0
 33 34  2  0
 34  2  1  0
 31  9  1  0
 21 11  2  0
 30 25  1  0
 19 14  1  0
  1 35  1  0
  1 36  1  0
  1 37  1  0
  3 38  1  0
  4 39  1  0
 10 40  1  0
 15 41  1  0
 16 42  1  0
 17 43  1  0
 18 44  1  0
 23 45  1  0
 23 46  1  0
 24 47  1  0
 24 48  1  0
 26 49  1  0
 27 50  1  0
 28 51  1  0
 29 52  1  0
 30 53  1  0
 32 54  1  0
 33 55  1  0
 34 56  1  0
M  END
$$$$
