
     RDKit          3D

 41 44  0  0  0  0  0  0  0  0999 V2000
    4.0831   -4.4471    2.5148 C   0  0  0  0  0  0  0  0  0  0  0  0
    3.0322   -3.4881    2.5133 O   0  0  0  0  0  0  0  0  0  0  0  0
    2.7188   -2.9118    1.3113 C   0  0  0  0  0  0  0  0  0  0  0  0
    3.3397   -3.1720    0.0942 C   0  0  0  0  0  0  0  0  0  0  0  0
    2.9402   -2.5088   -1.0710 C   0  0  0  0  0  0  0  0  0  0  0  0
    1.8942   -1.5841   -0.9733 C   0  0  0  0  0  0  0  0  0  0  0  0
    1.3301   -0.7969   -1.9408 N   0  0  0  0  0  0  0  0  0  0  0  0
    0.3334    0.0066   -1.4260 C   0  0  0  0  0  0  0  0  0  0  0  0
   -0.4500    0.9783   -2.0788 C   0  0  0  0  0  0  0  0  0  0  0  0
   -0.2752    1.2739   -3.5491 C   0  0  0  0  0  0  0  0  0  0  0  0
   -1.3902    1.6889   -1.2840 C   0  0  0  0  0  0  0  0  0  0  0  0
   -2.1787    2.7165   -1.8326 C   0  0  0  0  0  0  0  0  0  0  0  0
   -3.0851    3.4184   -1.0532 C   0  0  0  0  0  0  0  0  0  0  0  0
   -3.2232    3.1245    0.2497 N   0  0  0  0  0  4  0  0  0  0  0  0
   -4.1735    3.8802    1.0836 C   0  0  0  0  0  0  0  0  0  0  0  0
   -2.4866    2.1448    0.8159 C   0  0  0  0  0  0  0  0  0  0  0  0
   -1.5566    1.3805    0.0878 C   0  0  0  0  0  0  0  0  0  0  0  0
   -0.7949    0.3306    0.6963 C   0  0  0  0  0  0  0  0  0  0  0  0
   -1.0352   -0.0588    2.1377 C   0  0  0  0  0  0  0  0  0  0  0  0
    0.2113   -0.3177   -0.0753 C   0  0  0  0  0  0  0  0  0  0  0  0
    1.2299   -1.3036    0.2160 C   0  0  0  0  0  0  0  0  0  0  0  0
    1.6713   -1.9803    1.3763 C   0  0  0  0  0  0  0  0  0  0  0  0
    4.2030   -4.8095    3.5404 H   0  0  0  0  0  0  0  0  0  0  0  0
    5.0315   -3.9933    2.2089 H   0  0  0  0  0  0  0  0  0  0  0  0
    3.8334   -5.3071    1.8846 H   0  0  0  0  0  0  0  0  0  0  0  0
    4.1525   -3.8871    0.0119 H   0  0  0  0  0  0  0  0  0  0  0  0
    3.4363   -2.7093   -2.0160 H   0  0  0  0  0  0  0  0  0  0  0  0
    1.6345   -0.7944   -2.9030 H   0  0  0  0  0  0  0  0  0  0  0  0
    0.0778    2.3008   -3.6888 H   0  0  0  0  0  0  0  0  0  0  0  0
    0.4538    0.6115   -4.0236 H   0  0  0  0  0  0  0  0  0  0  0  0
   -1.2233    1.1359   -4.0792 H   0  0  0  0  0  0  0  0  0  0  0  0
   -2.0953    2.9946   -2.8814 H   0  0  0  0  0  0  0  0  0  0  0  0
   -3.6945    4.2170   -1.4663 H   0  0  0  0  0  0  0  0  0  0  0  0
   -3.5907    4.4931    1.7760 H   0  0  0  0  0  0  0  0  0  0  0  0
   -4.7982    3.1632    1.6232 H   0  0  0  0  0  0  0  0  0  0  0  0
   -4.8026    4.5134    0.4536 H   0  0  0  0  0  0  0  0  0  0  0  0
   -2.6562    2.0008    1.8775 H   0  0  0  0  0  0  0  0  0  0  0  0
   -2.0916    0.0204    2.4104 H   0  0  0  0  0  0  0  0  0  0  0  0
   -0.4378    0.5707    2.8034 H   0  0  0  0  0  0  0  0  0  0  0  0
   -0.7898   -1.1081    2.3113 H   0  0  0  0  0  0  0  0  0  0  0  0
    1.2221   -1.7866    2.3442 H   0  0  0  0  0  0  0  0  0  0  0  0
  1  2  1  0
  2  3  1  0
  3  4  2  0
  4  5  1  0
  5  6  2  0
  6  7  1  0
  7  8  1  0
  8  9  2  0
  9 10  1  0
  9 11  1  0
 11 12  2  0
 12 13  1  0
 13 14  2  0
 14 15  1  0
 14 16  1  0
 16 17  2  0
 17 18  1  0
 18 19  1  0
 18 20  2  0
 20 21  1  0
 21 22  2  0
 22  3  1  0
 21  6  1  0
 20  8  1  0
 17 11  1  0
  1 23  1  0
  1 24  1  0
  1 25  1  0
  4 26  1  0
  5 27  1  0
  7 28  1  0
 10 29  1  0
 10 30  1  0
 10 31  1  0
 12 32  1  0
 13 33  1  0
 15 34  1  0
 15 35  1  0
 15 36  1  0
 16 37  1  0
 19 38  1  0
 19 39  1  0
 19 40  1  0
 22 41  1  0
M  CHG  1  14   1
M  END
$$$$
