
     RDKit          3D

 54 56  0  0  0  0  0  0  0  0999 V2000
    8.1260    0.1278   -2.8052 C   0  0  0  0  0  0  0  0  0  0  0  0
    7.8306    0.6821   -1.5295 O   0  0  0  0  0  0  0  0  0  0  0  0
    6.5182    0.6770   -1.1441 C   0  0  0  0  0  0  0  0  0  0  0  0
    6.2785    1.2240    0.1185 C   0  0  0  0  0  0  0  0  0  0  0  0
    4.9827    1.2823    0.6387 C   0  0  0  0  0  0  0  0  0  0  0  0
    3.9010    0.7939   -0.1031 C   0  0  0  0  0  0  0  0  0  0  0  0
    2.4944    0.8496    0.4471 C   0  0  0  0  0  0  0  0  0  0  0  0
    1.9882   -0.4984    0.7119 N   0  0  0  0  0  0  0  0  0  0  0  0
    0.6961   -0.4962    1.4029 C   0  0  0  0  0  0  0  0  0  0  0  0
   -0.4645   -0.0887    0.4844 C   0  0  0  0  0  0  0  0  0  0  0  0
   -1.8318   -0.1124    1.2155 C   0  0  0  0  0  0  0  0  0  0  0  0
   -2.2417   -1.5116    1.6685 C   0  0  0  0  0  0  0  0  0  0  0  0
   -2.3776   -2.5706    0.7538 C   0  0  0  0  0  0  0  0  0  0  0  0
   -2.7560   -3.8418    1.1894 C   0  0  0  0  0  0  0  0  0  0  0  0
   -3.0040   -4.0590    2.5382 C   0  0  0  0  0  0  0  0  0  0  0  0
   -3.3669   -5.2791    2.9550 F   0  0  0  0  0  0  0  0  0  0  0  0
   -2.8833   -3.0285    3.4612 C   0  0  0  0  0  0  0  0  0  0  0  0
   -2.5051   -1.7564    3.0284 C   0  0  0  0  0  0  0  0  0  0  0  0
   -2.9559    0.5715    0.4368 C   0  0  0  0  0  0  0  0  0  0  0  0
   -3.0357    0.5455   -0.9635 C   0  0  0  0  0  0  0  0  0  0  0  0
   -4.0906    1.1733   -1.6392 C   0  0  0  0  0  0  0  0  0  0  0  0
   -5.0898    1.8329   -0.9263 C   0  0  0  0  0  0  0  0  0  0  0  0
   -6.1677    2.4824   -1.4611 O   0  0  0  0  0  0  0  0  0  0  0  0
   -6.2843    2.4739   -2.8780 C   0  0  0  0  0  0  0  0  0  0  0  0
   -5.0257    1.8553    0.4666 C   0  0  0  0  0  0  0  0  0  0  0  0
   -3.9749    1.2300    1.1430 C   0  0  0  0  0  0  0  0  0  0  0  0
    4.1470    0.2430   -1.3688 C   0  0  0  0  0  0  0  0  0  0  0  0
    5.4457    0.1849   -1.8868 C   0  0  0  0  0  0  0  0  0  0  0  0
    7.6335    0.6916   -3.6044 H   0  0  0  0  0  0  0  0  0  0  0  0
    7.8589   -0.9334   -2.8463 H   0  0  0  0  0  0  0  0  0  0  0  0
    9.2063    0.2050   -2.9610 H   0  0  0  0  0  0  0  0  0  0  0  0
    7.1107    1.6077    0.7036 H   0  0  0  0  0  0  0  0  0  0  0  0
    4.8291    1.7116    1.6256 H   0  0  0  0  0  0  0  0  0  0  0  0
    1.8674    1.3707   -0.2853 H   0  0  0  0  0  0  0  0  0  0  0  0
    2.4855    1.4482    1.3663 H   0  0  0  0  0  0  0  0  0  0  0  0
    2.6733   -0.9790    1.2966 H   0  0  0  0  0  0  0  0  0  0  0  0
    0.5257   -1.5169    1.7629 H   0  0  0  0  0  0  0  0  0  0  0  0
    0.7348    0.1453    2.2915 H   0  0  0  0  0  0  0  0  0  0  0  0
   -0.4720   -0.7467   -0.3934 H   0  0  0  0  0  0  0  0  0  0  0  0
   -0.2918    0.9288    0.1121 H   0  0  0  0  0  0  0  0  0  0  0  0
   -1.6803    0.5012    2.1166 H   0  0  0  0  0  0  0  0  0  0  0  0
   -2.1959   -2.4132   -0.3068 H   0  0  0  0  0  0  0  0  0  0  0  0
   -2.8617   -4.6603    0.4849 H   0  0  0  0  0  0  0  0  0  0  0  0
   -3.0870   -3.2208    4.5096 H   0  0  0  0  0  0  0  0  0  0  0  0
   -2.4196   -0.9566    3.7608 H   0  0  0  0  0  0  0  0  0  0  0  0
   -2.2822    0.0323   -1.5555 H   0  0  0  0  0  0  0  0  0  0  0  0
   -4.1004    1.1233   -2.7228 H   0  0  0  0  0  0  0  0  0  0  0  0
   -7.1916    3.0258   -3.1421 H   0  0  0  0  0  0  0  0  0  0  0  0
   -5.4363    2.9839   -3.3470 H   0  0  0  0  0  0  0  0  0  0  0  0
   -6.3929    1.4532   -3.2595 H   0  0  0  0  0  0  0  0  0  0  0  0
   -5.8042    2.3609    1.0326 H   0  0  0  0  0  0  0  0  0  0  0  0
   -3.9626    1.2584    2.2303 H   0  0  0  0  0  0  0  0  0  0  0  0
    3.3194   -0.1539   -1.9541 H   0  0  0  0  0  0  0  0  0  0  0  0
    5.5814   -0.2535   -2.8694 H   0  0  0  0  0  0  0  0  0  0  0  0
  1  2  1  0
  2  3  1  0
  3  4  2  0
  4  5  1  0
  5  6  2  0
  6  7  1  0
  7  8  1  0
  8  9  1  0
  9 10  1  0
 10 11  1  0
 11 12  1  0
 12 13  2  0
 13 14  1  0
 14 15  2  0
 15 16  1  0
 15 17  1  0
 17 18  2  0
 11 19  1  0
 19 20  2  0
 20 21  1  0
 21 22  2  0
 22 23  1  0
 23 24  1  0
 22 25  1  0
 25 26  2  0
  6 27  1  0
 27 28  2  0
 28  3  1  0
 18 12  1  0
 26 19  1  0
  1 29  1  0
  1 30  1  0
  1 31  1  0
  4 32  1  0
  5 33  1  0
  7 34  1  0
  7 35  1  0
  8 36  1  0
  9 37  1  0
  9 38  1  0
 10 39  1  0
 10 40  1  0
 11 41  1  0
 13 42  1  0
 14 43  1  0
 17 44  1  0
 18 45  1  0
 20 46  1  0
 21 47  1  0
 24 48  1  0
 24 49  1  0
 24 50  1  0
 25 51  1  0
 26 52  1  0
 27 53  1  0
 28 54  1  0
M  END
$$$$
