
     RDKit          3D

 46 49  0  0  0  0  0  0  0  0999 V2000
    7.0601    0.9585    0.2570 O   0  0  0  0  0  0  0  0  0  0  0  0
    5.9702    0.9026   -0.3308 N   0  0  0  0  0  4  0  0  0  0  0  0
    5.3989    1.8767   -0.8423 O   0  0  0  0  0  1  0  0  0  0  0  0
    5.3110   -0.4056   -0.4265 C   0  0  0  0  0  0  0  0  0  0  0  0
    5.8913   -1.5209    0.1903 C   0  0  0  0  0  0  0  0  0  0  0  0
    5.2551   -2.7592    0.1046 C   0  0  0  0  0  0  0  0  0  0  0  0
    4.0509   -2.8835   -0.5928 C   0  0  0  0  0  0  0  0  0  0  0  0
    3.4673   -1.7725   -1.2203 C   0  0  0  0  0  0  0  0  0  0  0  0
    2.1505   -1.9043   -1.9551 C   0  0  0  0  0  0  0  0  0  0  0  0
    0.9748   -1.4834   -1.1302 C   0  0  0  0  0  0  0  0  0  0  0  0
    0.2909   -2.5270    0.0967 S   0  0  0  0  0  0  0  0  0  0  0  0
   -0.9815   -1.3042    0.4993 C   0  0  0  0  0  0  0  0  0  0  0  0
   -1.8141   -1.6966    1.4003 N   0  0  0  0  0  0  0  0  0  0  0  0
   -2.9123   -0.9211    1.7728 C   0  0  0  0  0  0  0  0  0  0  0  0
   -2.9228   -0.2909    3.0197 C   0  0  0  0  0  0  0  0  0  0  0  0
   -4.0292    0.4572    3.4272 C   0  0  0  0  0  0  0  0  0  0  0  0
   -5.1429    0.5612    2.5951 C   0  0  0  0  0  0  0  0  0  0  0  0
   -5.1558   -0.0934    1.3643 C   0  0  0  0  0  0  0  0  0  0  0  0
   -4.0481   -0.8421    0.9613 C   0  0  0  0  0  0  0  0  0  0  0  0
   -0.7727   -0.1850   -0.3179 N   0  0  0  0  0  0  0  0  0  0  0  0
   -1.4913    1.0282   -0.1944 C   0  0  0  0  0  0  0  0  0  0  0  0
   -2.3553    1.4498   -1.2181 C   0  0  0  0  0  0  0  0  0  0  0  0
   -3.0329    2.6661   -1.1205 C   0  0  0  0  0  0  0  0  0  0  0  0
   -2.8474    3.4781   -0.0034 C   0  0  0  0  0  0  0  0  0  0  0  0
   -1.9842    3.0774    1.0146 C   0  0  0  0  0  0  0  0  0  0  0  0
   -1.3062    1.8609    0.9178 C   0  0  0  0  0  0  0  0  0  0  0  0
    0.3015   -0.3222   -1.2061 C   0  0  0  0  0  0  0  0  0  0  0  0
    0.6824    0.6757   -2.0725 O   0  0  0  0  0  0  0  0  0  0  0  0
    4.1042   -0.5247   -1.1300 C   0  0  0  0  0  0  0  0  0  0  0  0
    6.8265   -1.4419    0.7405 H   0  0  0  0  0  0  0  0  0  0  0  0
    5.6934   -3.6305    0.5866 H   0  0  0  0  0  0  0  0  0  0  0  0
    3.5637   -3.8567   -0.6374 H   0  0  0  0  0  0  0  0  0  0  0  0
    2.0165   -2.9389   -2.2973 H   0  0  0  0  0  0  0  0  0  0  0  0
    2.2080   -1.3131   -2.8786 H   0  0  0  0  0  0  0  0  0  0  0  0
   -2.0619   -0.3863    3.6753 H   0  0  0  0  0  0  0  0  0  0  0  0
   -4.0234    0.9508    4.3949 H   0  0  0  0  0  0  0  0  0  0  0  0
   -6.0056    1.1416    2.9112 H   0  0  0  0  0  0  0  0  0  0  0  0
   -6.0290   -0.0280    0.7214 H   0  0  0  0  0  0  0  0  0  0  0  0
   -4.0691   -1.3671    0.0109 H   0  0  0  0  0  0  0  0  0  0  0  0
   -2.5138    0.8200   -2.0910 H   0  0  0  0  0  0  0  0  0  0  0  0
   -3.7101    2.9772   -1.9120 H   0  0  0  0  0  0  0  0  0  0  0  0
   -3.3796    4.4228    0.0770 H   0  0  0  0  0  0  0  0  0  0  0  0
   -1.8422    3.7092    1.8878 H   0  0  0  0  0  0  0  0  0  0  0  0
   -0.6328    1.5620    1.7180 H   0  0  0  0  0  0  0  0  0  0  0  0
    0.1978    1.4805   -1.8205 H   0  0  0  0  0  0  0  0  0  0  0  0
    3.6494    0.3429   -1.6063 H   0  0  0  0  0  0  0  0  0  0  0  0
  1  2  2  0
  2  3  1  0
  2  4  1  0
  4  5  2  0
  5  6  1  0
  6  7  2  0
  7  8  1  0
  8  9  1  0
  9 10  1  0
 10 11  1  0
 11 12  1  0
 12 13  2  3
 13 14  1  0
 14 15  2  0
 15 16  1  0
 16 17  2  0
 17 18  1  0
 18 19  2  0
 12 20  1  0
 20 21  1  0
 21 22  2  0
 22 23  1  0
 23 24  2  0
 24 25  1  0
 25 26  2  0
 20 27  1  0
 27 28  1  0
  8 29  2  0
 29  4  1  0
 27 10  2  0
 19 14  1  0
 26 21  1  0
  5 30  1  0
  6 31  1  0
  7 32  1  0
  9 33  1  0
  9 34  1  0
 15 35  1  0
 16 36  1  0
 17 37  1  0
 18 38  1  0
 19 39  1  0
 22 40  1  0
 23 41  1  0
 24 42  1  0
 25 43  1  0
 26 44  1  0
 28 45  1  0
 29 46  1  0
M  CHG  2   2   1   3  -1
M  END
$$$$
