
     RDKit          3D

 28 30  0  0  0  0  0  0  0  0999 V2000
   -0.4657    1.1053   -1.5516 O   0  0  0  0  0  0  0  0  0  0  0  0
   -0.7849    0.1772   -0.8157 C   0  0  0  0  0  0  0  0  0  0  0  0
   -2.0985    0.1809   -0.1780 C   0  0  0  0  0  0  0  0  0  0  0  0
   -3.0080    1.2291   -0.3640 C   0  0  0  0  0  0  0  0  0  0  0  0
   -4.2479    1.1812    0.2699 C   0  0  0  0  0  0  0  0  0  0  0  0
   -4.5685    0.0929    1.0801 C   0  0  0  0  0  0  0  0  0  0  0  0
   -3.6474   -0.9450    1.2541 C   0  0  0  0  0  0  0  0  0  0  0  0
   -2.3979   -0.9089    0.6231 C   0  0  0  0  0  0  0  0  0  0  0  0
   -1.5081   -1.9694    0.8242 N   0  0  0  0  0  0  0  0  0  0  0  0
   -0.3859   -1.9524    0.2764 N   0  0  0  0  0  0  0  0  0  0  0  0
    0.0068   -0.9164   -0.5251 N   0  0  0  0  0  0  0  0  0  0  0  0
    1.3515   -1.0114   -1.0828 C   0  0  0  0  0  0  0  0  0  0  0  0
    2.4099   -0.3003   -0.2643 C   0  0  0  0  0  0  0  0  0  0  0  0
    2.5222   -0.5053    1.1113 C   0  0  0  0  0  0  0  0  0  0  0  0
    3.5293    0.1507    1.8153 C   0  0  0  0  0  0  0  0  0  0  0  0
    4.4044    0.9857    1.1338 C   0  0  0  0  0  0  0  0  0  0  0  0
    4.2400    1.1249   -0.2324 C   0  0  0  0  0  0  0  0  0  0  0  0
    3.2770    0.4964   -0.9414 N   0  0  0  0  0  0  0  0  0  0  0  0
   -2.7493    2.0748   -0.9977 H   0  0  0  0  0  0  0  0  0  0  0  0
   -4.9617    1.9901    0.1322 H   0  0  0  0  0  0  0  0  0  0  0  0
   -5.5351    0.0503    1.5768 H   0  0  0  0  0  0  0  0  0  0  0  0
   -3.9054   -1.7911    1.8872 H   0  0  0  0  0  0  0  0  0  0  0  0
    1.3372   -0.5932   -2.0966 H   0  0  0  0  0  0  0  0  0  0  0  0
    1.6246   -2.0698   -1.1744 H   0  0  0  0  0  0  0  0  0  0  0  0
    1.8392   -1.1638    1.6382 H   0  0  0  0  0  0  0  0  0  0  0  0
    3.6280    0.0100    2.8878 H   0  0  0  0  0  0  0  0  0  0  0  0
    5.1960    1.5134    1.6530 H   0  0  0  0  0  0  0  0  0  0  0  0
    4.8983    1.7640   -0.8137 H   0  0  0  0  0  0  0  0  0  0  0  0
  1  2  2  0
  2  3  1  0
  3  4  2  0
  4  5  1  0
  5  6  2  0
  6  7  1  0
  7  8  2  0
  8  9  1  0
  9 10  2  0
 10 11  1  0
 11 12  1  0
 12 13  1  0
 13 14  2  0
 14 15  1  0
 15 16  2  0
 16 17  1  0
 17 18  2  0
 11  2  1  0
 18 13  1  0
  8  3  1  0
  4 19  1  0
  5 20  1  0
  6 21  1  0
  7 22  1  0
 12 23  1  0
 12 24  1  0
 14 25  1  0
 15 26  1  0
 16 27  1  0
 17 28  1  0
M  END
$$$$
