
     RDKit          3D

 52 55  0  0  0  0  0  0  0  0999 V2000
    7.6817   -2.5810    0.6726 C   0  0  0  0  0  0  0  0  0  0  0  0
    7.4169   -1.0938    0.5329 C   0  0  0  0  0  0  0  0  0  0  0  0
    6.0421   -0.8657    0.1935 O   0  0  0  0  0  0  0  0  0  0  0  0
    5.1672   -0.7824    1.2387 C   0  0  0  0  0  0  0  0  0  0  0  0
    5.5006   -0.9034    2.4121 O   0  0  0  0  0  0  0  0  0  0  0  0
    3.8010   -0.5465    0.7769 C   0  0  0  0  0  0  0  0  0  0  0  0
    3.4854   -0.1395   -0.8611 S   0  0  0  0  0  0  0  0  0  0  0  0
    1.8212    0.0343   -0.5884 C   0  0  0  0  0  0  0  0  0  0  0  0
    0.9881    0.3830   -1.5921 N   0  0  0  0  0  0  0  0  0  0  0  0
   -0.2727    0.4813   -1.2820 C   0  0  0  0  0  0  0  0  0  0  0  0
   -1.2971    0.8415   -2.3370 C   0  0  0  0  0  0  0  0  0  0  0  0
   -0.7716    1.1215   -3.9645 S   0  0  0  0  0  0  0  0  0  0  0  0
   -0.8975   -0.5548   -4.6470 C   0  0  0  0  0  0  0  0  0  0  0  0
    0.2865   -1.3986   -4.2585 C   0  0  0  0  0  0  0  0  0  0  0  0
    1.3589   -1.4582   -4.8378 O   0  0  0  0  0  0  0  0  0  0  0  0
    0.0701   -2.1337   -3.1462 O   0  0  0  0  0  0  0  0  0  0  0  0
   -2.5871    0.9659   -1.9974 C   0  0  0  0  0  0  0  0  0  0  0  0
   -3.0302    0.7522   -0.6414 C   0  0  0  0  0  0  0  0  0  0  0  0
   -4.4859    0.8450   -0.3225 C   0  0  0  0  0  0  0  0  0  0  0  0
   -5.3181    0.3608   -1.0896 O   0  0  0  0  0  0  0  0  0  0  0  0
   -4.9519    1.4998    0.9273 C   0  0  0  0  0  0  0  0  0  0  0  0
   -4.2122    2.5183    1.5465 C   0  0  0  0  0  0  0  0  0  0  0  0
   -4.6750    3.1021    2.7291 C   0  0  0  0  0  0  0  0  0  0  0  0
   -5.8805    2.6842    3.2921 C   0  0  0  0  0  0  0  0  0  0  0  0
   -6.6354    1.6924    2.6678 C   0  0  0  0  0  0  0  0  0  0  0  0
   -6.1799    1.1143    1.4852 C   0  0  0  0  0  0  0  0  0  0  0  0
   -6.9942    0.1689    0.9201 O   0  0  0  0  0  0  0  0  0  0  0  0
   -2.1388    0.3888    0.2916 C   0  0  0  0  0  0  0  0  0  0  0  0
   -0.7766    0.2596    0.0158 N   0  0  0  0  0  0  0  0  0  0  0  0
    0.0799   -0.0858    1.0799 C   0  0  0  0  0  0  0  0  0  0  0  0
   -0.3090   -0.2480    2.2357 O   0  0  0  0  0  0  0  0  0  0  0  0
    1.4820   -0.2210    0.7157 C   0  0  0  0  0  0  0  0  0  0  0  0
    2.6225   -0.5897    1.5244 C   0  0  0  0  0  0  0  0  0  0  0  0
    2.5465   -0.9487    2.9790 C   0  0  0  0  0  0  0  0  0  0  0  0
    7.3965   -3.1096   -0.2430 H   0  0  0  0  0  0  0  0  0  0  0  0
    7.0894   -3.0117    1.4861 H   0  0  0  0  0  0  0  0  0  0  0  0
    8.7401   -2.7690    0.8737 H   0  0  0  0  0  0  0  0  0  0  0  0
    7.7006   -0.5473    1.4394 H   0  0  0  0  0  0  0  0  0  0  0  0
    8.0195   -0.6891   -0.2868 H   0  0  0  0  0  0  0  0  0  0  0  0
   -1.8283   -1.0453   -4.3434 H   0  0  0  0  0  0  0  0  0  0  0  0
   -0.9188   -0.4939   -5.7399 H   0  0  0  0  0  0  0  0  0  0  0  0
    0.9498   -2.5348   -2.9749 H   0  0  0  0  0  0  0  0  0  0  0  0
   -3.3436    1.2280   -2.7340 H   0  0  0  0  0  0  0  0  0  0  0  0
   -3.2816    2.8853    1.1221 H   0  0  0  0  0  0  0  0  0  0  0  0
   -4.0979    3.8884    3.2112 H   0  0  0  0  0  0  0  0  0  0  0  0
   -6.2399    3.1390    4.2125 H   0  0  0  0  0  0  0  0  0  0  0  0
   -7.5834    1.3759    3.0956 H   0  0  0  0  0  0  0  0  0  0  0  0
   -6.6745   -0.0030    0.0065 H   0  0  0  0  0  0  0  0  0  0  0  0
   -2.4421    0.1681    1.3138 H   0  0  0  0  0  0  0  0  0  0  0  0
    1.5880   -1.4096    3.2314 H   0  0  0  0  0  0  0  0  0  0  0  0
    2.6779   -0.0537    3.5950 H   0  0  0  0  0  0  0  0  0  0  0  0
    3.3113   -1.6807    3.2536 H   0  0  0  0  0  0  0  0  0  0  0  0
  1  2  1  0
  2  3  1  0
  3  4  1  0
  4  5  2  0
  4  6  1  0
  6  7  1  0
  7  8  1  0
  8  9  1  0
  9 10  2  0
 10 11  1  0
 11 12  1  0
 12 13  1  0
 13 14  1  0
 14 15  2  0
 14 16  1  0
 11 17  2  0
 17 18  1  0
 18 19  1  0
 19 20  2  0
 19 21  1  0
 21 22  2  0
 22 23  1  0
 23 24  2  0
 24 25  1  0
 25 26  2  0
 26 27  1  0
 18 28  2  0
 28 29  1  0
 29 30  1  0
 30 31  2  0
 30 32  1  0
 32 33  1  0
 33 34  1  0
 33  6  2  0
 32  8  2  0
 29 10  1  0
 26 21  1  0
  1 35  1  0
  1 36  1  0
  1 37  1  0
  2 38  1  0
  2 39  1  0
 13 40  1  0
 13 41  1  0
 16 42  1  0
 17 43  1  0
 22 44  1  0
 23 45  1  0
 24 46  1  0
 25 47  1  0
 27 48  1  0
 28 49  1  0
 34 50  1  0
 34 51  1  0
 34 52  1  0
M  END
$$$$
