
     RDKit          3D

 54 58  0  0  0  0  0  0  0  0999 V2000
    5.9814   -0.9650   -1.1259 C   0  0  0  0  0  0  0  0  0  0  0  0
    5.0438   -2.0291   -0.5864 C   0  0  0  0  0  0  0  0  0  0  0  0
    4.3012   -1.5495    0.6466 C   0  0  0  0  0  0  0  0  0  0  0  0
    4.7495   -1.8293    1.7609 O   0  0  0  0  0  0  0  0  0  0  0  0
    3.1316   -0.8103    0.4814 N   0  0  0  0  0  0  0  0  0  0  0  0
    2.5348   -0.2299    1.6832 C   0  0  0  0  0  0  0  0  0  0  0  0
    1.0109   -0.1783    1.5940 C   0  0  0  0  0  0  0  0  0  0  0  0
    0.5204    0.5274    0.3048 C   0  0  0  0  0  0  0  0  0  0  0  0
    1.1970   -0.1526   -0.9089 C   0  0  0  0  0  0  0  0  0  0  0  0
    2.7180   -0.1946   -0.7761 C   0  0  0  0  0  0  0  0  0  0  0  0
    1.0294    1.8818    0.4271 O   0  0  0  0  0  0  0  0  0  0  0  0
    0.4452    2.8567   -0.3237 C   0  0  0  0  0  0  0  0  0  0  0  0
    1.1144    4.0799   -0.3667 C   0  0  0  0  0  0  0  0  0  0  0  0
    0.6038    5.1324   -1.1308 C   0  0  0  0  0  0  0  0  0  0  0  0
   -0.5788    4.9587   -1.8496 C   0  0  0  0  0  0  0  0  0  0  0  0
   -1.1995    6.2537   -2.7955 Cl  0  0  0  0  0  0  0  0  0  0  0  0
   -1.2599    3.7456   -1.8040 C   0  0  0  0  0  0  0  0  0  0  0  0
   -0.7445    2.7033   -1.0269 C   0  0  0  0  0  0  0  0  0  0  0  0
   -1.4478    1.4171   -0.9427 C   0  0  0  0  0  0  0  0  0  0  0  0
   -2.2994    1.1335   -1.7811 O   0  0  0  0  0  0  0  0  0  0  0  0
   -1.0315    0.5039    0.2052 C   0  0  0  0  0  0  0  0  0  0  0  0
   -1.6645   -0.8737    0.0632 C   0  0  0  0  0  0  0  0  0  0  0  0
   -2.8654   -0.6626    0.9222 C   0  0  0  0  0  0  0  0  0  0  0  0
   -4.0078   -1.6071    0.9285 C   0  0  0  0  0  0  0  0  0  0  0  0
   -5.1339   -1.3023    1.7059 C   0  0  0  0  0  0  0  0  0  0  0  0
   -6.2274   -2.1723    1.7374 C   0  0  0  0  0  0  0  0  0  0  0  0
   -6.1958   -3.3487    0.9927 C   0  0  0  0  0  0  0  0  0  0  0  0
   -7.5390   -4.4221    1.0297 Cl  0  0  0  0  0  0  0  0  0  0  0  0
   -5.0801   -3.6623    0.2177 C   0  0  0  0  0  0  0  0  0  0  0  0
   -3.9842   -2.7930    0.1847 C   0  0  0  0  0  0  0  0  0  0  0  0
   -2.8133    0.3866    1.6794 N   0  0  0  0  0  0  0  0  0  0  0  0
   -1.5990    1.0517    1.4069 O   0  0  0  0  0  0  0  0  0  0  0  0
    5.4424   -0.0726   -1.4555 H   0  0  0  0  0  0  0  0  0  0  0  0
    6.5466   -1.3543   -1.9783 H   0  0  0  0  0  0  0  0  0  0  0  0
    6.6960   -0.6514   -0.3575 H   0  0  0  0  0  0  0  0  0  0  0  0
    4.3438   -2.3797   -1.3499 H   0  0  0  0  0  0  0  0  0  0  0  0
    5.6278   -2.9116   -0.2967 H   0  0  0  0  0  0  0  0  0  0  0  0
    2.9583    0.7738    1.8092 H   0  0  0  0  0  0  0  0  0  0  0  0
    2.8138   -0.8060    2.5721 H   0  0  0  0  0  0  0  0  0  0  0  0
    0.6410    0.3478    2.4824 H   0  0  0  0  0  0  0  0  0  0  0  0
    0.6354   -1.2056    1.6424 H   0  0  0  0  0  0  0  0  0  0  0  0
    0.9563    0.3748   -1.8390 H   0  0  0  0  0  0  0  0  0  0  0  0
    0.8278   -1.1800   -1.0155 H   0  0  0  0  0  0  0  0  0  0  0  0
    3.1233   -0.7313   -1.6354 H   0  0  0  0  0  0  0  0  0  0  0  0
    3.1423    0.8161   -0.8027 H   0  0  0  0  0  0  0  0  0  0  0  0
    2.0379    4.2158    0.1918 H   0  0  0  0  0  0  0  0  0  0  0  0
    1.1323    6.0823   -1.1610 H   0  0  0  0  0  0  0  0  0  0  0  0
   -2.1874    3.6127   -2.3563 H   0  0  0  0  0  0  0  0  0  0  0  0
   -1.9205   -1.1438   -0.9638 H   0  0  0  0  0  0  0  0  0  0  0  0
   -1.0754   -1.6800    0.5059 H   0  0  0  0  0  0  0  0  0  0  0  0
   -5.1694   -0.3847    2.2908 H   0  0  0  0  0  0  0  0  0  0  0  0
   -7.0953   -1.9241    2.3428 H   0  0  0  0  0  0  0  0  0  0  0  0
   -5.0575   -4.5815   -0.3627 H   0  0  0  0  0  0  0  0  0  0  0  0
   -3.1289   -3.0663   -0.4257 H   0  0  0  0  0  0  0  0  0  0  0  0
  1  2  1  0
  2  3  1  0
  3  4  2  0
  3  5  1  0
  5  6  1  0
  6  7  1  0
  7  8  1  0
  8  9  1  0
  9 10  1  0
  8 11  1  0
 11 12  1  0
 12 13  2  0
 13 14  1  0
 14 15  2  0
 15 16  1  0
 15 17  1  0
 17 18  2  0
 18 19  1  0
 19 20  2  0
 19 21  1  0
 21 22  1  0
 22 23  1  0
 23 24  1  0
 24 25  2  0
 25 26  1  0
 26 27  2  0
 27 28  1  0
 27 29  1  0
 29 30  2  0
 23 31  2  0
 31 32  1  0
 10  5  1  0
 18 12  1  0
 32 21  1  0
 21  8  1  0
 30 24  1  0
  1 33  1  0
  1 34  1  0
  1 35  1  0
  2 36  1  0
  2 37  1  0
  6 38  1  0
  6 39  1  0
  7 40  1  0
  7 41  1  0
  9 42  1  0
  9 43  1  0
 10 44  1  0
 10 45  1  0
 13 46  1  0
 14 47  1  0
 17 48  1  0
 22 49  1  0
 22 50  1  0
 25 51  1  0
 26 52  1  0
 29 53  1  0
 30 54  1  0
M  END
$$$$
