
     RDKit          3D

 73 78  0  0  0  0  0  0  0  0999 V2000
    9.6707    0.0010    1.4626 C   0  0  0  0  0  0  0  0  0  0  0  0
    8.3373   -0.1429    0.7890 C   0  0  0  0  0  0  0  0  0  0  0  0
    7.1707    0.2634    1.4323 C   0  0  0  0  0  0  0  0  0  0  0  0
    5.9245    0.0962    0.8169 C   0  0  0  0  0  0  0  0  0  0  0  0
    5.7956   -0.4837   -0.4537 C   0  0  0  0  0  0  0  0  0  0  0  0
    4.5595   -0.6319   -1.0873 N   0  0  0  0  0  0  0  0  0  0  0  0
    3.3520   -0.9560   -0.3077 C   0  0  0  0  0  0  0  0  0  0  0  0
    2.5273    0.2816    0.1002 C   0  0  0  0  0  0  0  0  0  0  0  0
    2.3269    1.2537   -0.9837 N   0  0  0  0  0  0  0  0  0  0  0  0
    1.3257    2.2178   -1.0038 C   0  0  0  0  0  0  0  0  0  0  0  0
    1.4554    3.2489   -1.6761 O   0  0  0  0  0  0  0  0  0  0  0  0
    0.0177    2.0182   -0.2350 C   0  0  0  0  0  0  0  0  0  0  0  0
    0.1633    2.0949    1.2881 C   0  0  0  0  0  0  0  0  0  0  0  0
   -0.6814    1.0542    2.0152 C   0  0  0  0  0  0  0  0  0  0  0  0
   -2.0734    0.9235    1.4005 C   0  0  0  0  0  0  0  0  0  0  0  0
   -1.9880    0.5924   -0.0175 N   0  0  0  0  0  0  0  0  0  0  0  0
   -3.0136   -0.1183   -0.6323 C   0  0  0  0  0  0  0  0  0  0  0  0
   -2.7914   -0.6434   -1.8795 N   0  0  0  0  0  0  0  0  0  0  0  0
   -3.7716   -1.3271   -2.5037 C   0  0  0  0  0  0  0  0  0  0  0  0
   -5.0093   -1.6014   -2.0585 N   0  0  0  0  0  0  0  0  0  0  0  0
   -5.2005   -1.0876   -0.8325 C   0  0  0  0  0  0  0  0  0  0  0  0
   -4.3000   -0.3546   -0.0732 C   0  0  0  0  0  0  0  0  0  0  0  0
   -4.8826    0.0021    1.1335 N   0  0  0  0  0  0  0  0  0  0  0  0
   -6.0879   -0.5320    1.1227 C   0  0  0  0  0  0  0  0  0  0  0  0
   -6.3279   -1.1820   -0.0644 N   0  0  0  0  0  0  0  0  0  0  0  0
   -7.5477   -1.8764   -0.4190 C   0  0  0  0  0  0  0  0  0  0  0  0
   -8.7835   -0.9766   -0.4017 C   0  0  0  0  0  0  0  0  0  0  0  0
   -9.3047   -0.6633    1.0016 C   0  0  0  0  0  0  0  0  0  0  0  0
   -8.3760    0.2013    1.8598 C   0  0  0  0  0  0  0  0  0  0  0  0
   -7.0698   -0.4928    2.2449 C   0  0  0  0  0  0  0  0  0  0  0  0
   -0.7415    0.7933   -0.7546 C   0  0  0  0  0  0  0  0  0  0  0  0
    3.5552    1.5637   -1.7347 C   0  0  0  0  0  0  0  0  0  0  0  0
    4.3066    0.3054   -2.2030 C   0  0  0  0  0  0  0  0  0  0  0  0
    6.9779   -0.9352   -1.0840 C   0  0  0  0  0  0  0  0  0  0  0  0
    6.9490   -1.6339   -2.4195 C   0  0  0  0  0  0  0  0  0  0  0  0
    8.2302   -0.7504   -0.4640 C   0  0  0  0  0  0  0  0  0  0  0  0
    9.7116    0.9258    2.0468 H   0  0  0  0  0  0  0  0  0  0  0  0
    9.8476   -0.8508    2.1313 H   0  0  0  0  0  0  0  0  0  0  0  0
   10.4836    0.0452    0.7278 H   0  0  0  0  0  0  0  0  0  0  0  0
    7.2140    0.7187    2.4191 H   0  0  0  0  0  0  0  0  0  0  0  0
    5.0550    0.4465    1.3618 H   0  0  0  0  0  0  0  0  0  0  0  0
    3.5938   -1.5634    0.5738 H   0  0  0  0  0  0  0  0  0  0  0  0
    2.7204   -1.5866   -0.9456 H   0  0  0  0  0  0  0  0  0  0  0  0
    1.5732   -0.0577    0.5010 H   0  0  0  0  0  0  0  0  0  0  0  0
    3.0261    0.8259    0.9079 H   0  0  0  0  0  0  0  0  0  0  0  0
   -0.6050    2.8848   -0.5067 H   0  0  0  0  0  0  0  0  0  0  0  0
    1.2031    2.0279    1.6203 H   0  0  0  0  0  0  0  0  0  0  0  0
   -0.1623    3.0913    1.6136 H   0  0  0  0  0  0  0  0  0  0  0  0
   -0.7671    1.3250    3.0745 H   0  0  0  0  0  0  0  0  0  0  0  0
   -0.1790    0.0801    1.9798 H   0  0  0  0  0  0  0  0  0  0  0  0
   -2.5966    0.1511    1.9693 H   0  0  0  0  0  0  0  0  0  0  0  0
   -2.6195    1.8635    1.5176 H   0  0  0  0  0  0  0  0  0  0  0  0
   -3.5255   -1.7067   -3.4906 H   0  0  0  0  0  0  0  0  0  0  0  0
   -7.4216   -2.2823   -1.4288 H   0  0  0  0  0  0  0  0  0  0  0  0
   -7.6549   -2.7273    0.2652 H   0  0  0  0  0  0  0  0  0  0  0  0
   -8.5827   -0.0464   -0.9478 H   0  0  0  0  0  0  0  0  0  0  0  0
   -9.5859   -1.4942   -0.9436 H   0  0  0  0  0  0  0  0  0  0  0  0
   -9.5268   -1.6005    1.5280 H   0  0  0  0  0  0  0  0  0  0  0  0
  -10.2593   -0.1347    0.8983 H   0  0  0  0  0  0  0  0  0  0  0  0
   -8.9126    0.4415    2.7885 H   0  0  0  0  0  0  0  0  0  0  0  0
   -8.1771    1.1538    1.3520 H   0  0  0  0  0  0  0  0  0  0  0  0
   -6.6142    0.0464    3.0851 H   0  0  0  0  0  0  0  0  0  0  0  0
   -7.2607   -1.5184    2.5960 H   0  0  0  0  0  0  0  0  0  0  0  0
   -0.9362    0.9590   -1.8230 H   0  0  0  0  0  0  0  0  0  0  0  0
   -0.1459   -0.1217   -0.6927 H   0  0  0  0  0  0  0  0  0  0  0  0
    3.3211    2.1759   -2.6141 H   0  0  0  0  0  0  0  0  0  0  0  0
    4.1887    2.1692   -1.0746 H   0  0  0  0  0  0  0  0  0  0  0  0
    5.2284    0.6082   -2.7117 H   0  0  0  0  0  0  0  0  0  0  0  0
    3.6939   -0.2169   -2.9492 H   0  0  0  0  0  0  0  0  0  0  0  0
    7.8462   -2.2474   -2.5615 H   0  0  0  0  0  0  0  0  0  0  0  0
    6.9088   -0.9011   -3.2301 H   0  0  0  0  0  0  0  0  0  0  0  0
    6.0920   -2.3077   -2.4969 H   0  0  0  0  0  0  0  0  0  0  0  0
    9.1309   -1.0987   -0.9670 H   0  0  0  0  0  0  0  0  0  0  0  0
  1  2  1  0
  2  3  2  0
  3  4  1  0
  4  5  2  0
  5  6  1  0
  6  7  1  0
  7  8  1  0
  8  9  1  0
  9 10  1  0
 10 11  2  0
 10 12  1  0
 12 13  1  0
 13 14  1  0
 14 15  1  0
 15 16  1  0
 16 17  1  0
 17 18  2  0
 18 19  1  0
 19 20  2  0
 20 21  1  0
 21 22  2  0
 22 23  1  0
 23 24  2  0
 24 25  1  0
 25 26  1  0
 26 27  1  0
 27 28  1  0
 28 29  1  0
 29 30  1  0
 16 31  1  0
  9 32  1  0
 32 33  1  0
  5 34  1  0
 34 35  1  0
 34 36  2  0
 36  2  1  0
 33  6  1  0
 31 12  1  0
 22 17  1  0
 30 24  1  0
 25 21  1  0
  1 37  1  0
  1 38  1  0
  1 39  1  0
  3 40  1  0
  4 41  1  0
  7 42  1  0
  7 43  1  0
  8 44  1  0
  8 45  1  0
 12 46  1  0
 13 47  1  0
 13 48  1  0
 14 49  1  0
 14 50  1  0
 15 51  1  0
 15 52  1  0
 19 53  1  0
 26 54  1  0
 26 55  1  0
 27 56  1  0
 27 57  1  0
 28 58  1  0
 28 59  1  0
 29 60  1  0
 29 61  1  0
 30 62  1  0
 30 63  1  0
 31 64  1  0
 31 65  1  0
 32 66  1  0
 32 67  1  0
 33 68  1  0
 33 69  1  0
 35 70  1  0
 35 71  1  0
 35 72  1  0
 36 73  1  0
M  END
$$$$
