
     RDKit          3D

 49 52  0  0  0  0  0  0  0  0999 V2000
   -7.3375   -1.5420   -1.8139 C   0  0  0  0  0  0  0  0  0  0  0  0
   -6.4518   -0.5337   -1.1436 C   0  0  0  0  0  0  0  0  0  0  0  0
   -6.9704    0.6958   -0.7249 C   0  0  0  0  0  0  0  0  0  0  0  0
   -6.1539    1.6302   -0.0781 C   0  0  0  0  0  0  0  0  0  0  0  0
   -6.7197    2.9387    0.3911 C   0  0  0  0  0  0  0  0  0  0  0  0
   -4.8125    1.3098    0.1829 C   0  0  0  0  0  0  0  0  0  0  0  0
   -4.2811    0.0806   -0.2105 C   0  0  0  0  0  0  0  0  0  0  0  0
   -2.9423   -0.3070    0.0110 N   0  0  0  0  0  0  0  0  0  0  0  0
   -1.9695    0.3894    0.7031 C   0  0  0  0  0  0  0  0  0  0  0  0
   -2.0987    1.4442    1.3116 O   0  0  0  0  0  0  0  0  0  0  0  0
   -0.6317   -0.2633    0.7168 C   0  0  0  0  0  0  0  0  0  0  0  0
    0.1269   -0.2105    1.8918 C   0  0  0  0  0  0  0  0  0  0  0  0
    1.3887   -0.8080    1.9356 C   0  0  0  0  0  0  0  0  0  0  0  0
    1.9137   -1.4363    0.8023 C   0  0  0  0  0  0  0  0  0  0  0  0
    3.1754   -2.0388    0.8316 N   0  0  0  0  0  0  0  0  0  0  0  0
    4.2161   -1.2888    0.7628 C   0  0  0  0  0  0  0  0  0  0  0  0
    4.3411    0.0688    0.6374 N   0  0  0  0  0  0  0  0  0  0  0  0
    5.6537    0.5579    0.2577 C   0  0  0  0  0  0  0  0  0  0  0  0
    5.8296    0.5739   -1.2527 C   0  0  0  0  0  0  0  0  0  0  0  0
    7.5850    0.4705   -1.4672 S   0  0  0  0  0  6  0  0  0  0  0  0
    8.1161    1.8147   -1.3658 O   0  0  0  0  0  0  0  0  0  0  0  0
    7.8722   -0.3893   -2.5939 O   0  0  0  0  0  0  0  0  0  0  0  0
    7.9607   -0.3850    0.0489 C   0  0  0  0  0  0  0  0  0  0  0  0
    6.6687   -0.4370    0.8456 C   0  0  0  0  0  0  0  0  0  0  0  0
    5.8077   -2.0529    0.7802 S   0  0  0  0  0  0  0  0  0  0  0  0
    1.1523   -1.4863   -0.3688 C   0  0  0  0  0  0  0  0  0  0  0  0
   -0.1138   -0.8963   -0.4200 C   0  0  0  0  0  0  0  0  0  0  0  0
   -5.1095   -0.8350   -0.8738 C   0  0  0  0  0  0  0  0  0  0  0  0
   -8.1278   -1.0477   -2.3887 H   0  0  0  0  0  0  0  0  0  0  0  0
   -7.7989   -2.1917   -1.0639 H   0  0  0  0  0  0  0  0  0  0  0  0
   -6.7655   -2.1596   -2.5143 H   0  0  0  0  0  0  0  0  0  0  0  0
   -8.0180    0.9299   -0.9050 H   0  0  0  0  0  0  0  0  0  0  0  0
   -5.9620    3.7283    0.3506 H   0  0  0  0  0  0  0  0  0  0  0  0
   -7.0786    2.8432    1.4205 H   0  0  0  0  0  0  0  0  0  0  0  0
   -7.5524    3.2561   -0.2453 H   0  0  0  0  0  0  0  0  0  0  0  0
   -4.2008    2.0436    0.6991 H   0  0  0  0  0  0  0  0  0  0  0  0
   -2.6962   -1.2300   -0.3221 H   0  0  0  0  0  0  0  0  0  0  0  0
   -0.2675    0.2868    2.7759 H   0  0  0  0  0  0  0  0  0  0  0  0
    1.9669   -0.7843    2.8559 H   0  0  0  0  0  0  0  0  0  0  0  0
    3.5145    0.5863    0.3583 H   0  0  0  0  0  0  0  0  0  0  0  0
    5.8258    1.5587    0.6706 H   0  0  0  0  0  0  0  0  0  0  0  0
    5.4545    1.4934   -1.7084 H   0  0  0  0  0  0  0  0  0  0  0  0
    5.3721   -0.2860   -1.7516 H   0  0  0  0  0  0  0  0  0  0  0  0
    8.7124    0.2149    0.5716 H   0  0  0  0  0  0  0  0  0  0  0  0
    8.3835   -1.3666   -0.1789 H   0  0  0  0  0  0  0  0  0  0  0  0
    6.8544   -0.2324    1.9057 H   0  0  0  0  0  0  0  0  0  0  0  0
    1.5547   -1.9877   -1.2459 H   0  0  0  0  0  0  0  0  0  0  0  0
   -0.6691   -0.9184   -1.3538 H   0  0  0  0  0  0  0  0  0  0  0  0
   -4.7176   -1.8008   -1.1836 H   0  0  0  0  0  0  0  0  0  0  0  0
  1  2  1  0
  2  3  2  0
  3  4  1  0
  4  5  1  0
  4  6  2  0
  6  7  1  0
  7  8  1  0
  8  9  1  0
  9 10  2  0
  9 11  1  0
 11 12  2  0
 12 13  1  0
 13 14  2  0
 14 15  1  0
 15 16  2  3
 16 17  1  0
 17 18  1  0
 18 19  1  0
 19 20  1  0
 20 21  2  0
 20 22  2  0
 20 23  1  0
 23 24  1  0
 24 25  1  0
 14 26  1  0
 26 27  2  0
  7 28  2  0
 28  2  1  0
 27 11  1  0
 25 16  1  0
 24 18  1  0
  1 29  1  0
  1 30  1  0
  1 31  1  0
  3 32  1  0
  5 33  1  0
  5 34  1  0
  5 35  1  0
  6 36  1  0
  8 37  1  0
 12 38  1  0
 13 39  1  0
 17 40  1  0
 18 41  1  0
 19 42  1  0
 19 43  1  0
 23 44  1  0
 23 45  1  0
 24 46  1  0
 26 47  1  0
 27 48  1  0
 28 49  1  0
M  END
$$$$
