
     RDKit          3D

 40 42  0  0  0  0  0  0  0  0999 V2000
    5.0346   -0.3984    0.3721 C   0  0  0  0  0  0  0  0  0  0  0  0
    4.0329   -0.8343   -0.6521 C   0  0  0  0  0  0  0  0  0  0  0  0
    4.2557   -0.9140   -1.8527 O   0  0  0  0  0  0  0  0  0  0  0  0
    2.8574   -1.1752   -0.0535 O   0  0  0  0  0  0  0  0  0  0  0  0
    1.8168   -1.5958   -0.9536 C   0  0  0  0  0  0  0  0  0  0  0  0
    1.1481   -0.4083   -1.6628 C   0  0  0  0  0  0  0  0  0  0  0  0
    0.3425    0.3975   -0.7278 N   0  0  0  0  0  0  0  0  0  0  0  0
    0.9221    1.4694   -0.0550 C   0  0  0  0  0  0  0  0  0  0  0  0
    2.1563    1.8391   -0.2206 N   0  0  0  0  0  0  0  0  0  0  0  0
    2.6928    2.8862    0.4733 C   0  0  0  0  0  0  0  0  0  0  0  0
    3.9019    3.0001    0.6442 O   0  0  0  0  0  0  0  0  0  0  0  0
    1.8639    3.8235    1.0136 N   0  0  0  0  0  0  0  0  0  0  0  0
    0.6800    3.4548    1.5731 C   0  0  0  0  0  0  0  0  0  0  0  0
    0.1881    4.0037    2.5447 O   0  0  0  0  0  0  0  0  0  0  0  0
    0.0678    2.2450    0.9196 C   0  0  0  0  0  0  0  0  0  0  0  0
   -1.1564    1.9112    1.1897 N   0  0  0  0  0  0  0  0  0  0  0  0
   -1.6963    0.7812    0.5493 C   0  0  0  0  0  0  0  0  0  0  0  0
   -3.0072    0.4326    0.8964 C   0  0  0  0  0  0  0  0  0  0  0  0
   -3.6499   -0.6717    0.3249 C   0  0  0  0  0  0  0  0  0  0  0  0
   -5.0586   -0.9997    0.7357 C   0  0  0  0  0  0  0  0  0  0  0  0
   -2.9555   -1.4436   -0.6191 C   0  0  0  0  0  0  0  0  0  0  0  0
   -3.5944   -2.6429   -1.2678 C   0  0  0  0  0  0  0  0  0  0  0  0
   -1.6363   -1.0903   -0.9679 C   0  0  0  0  0  0  0  0  0  0  0  0
   -0.9793    0.0166   -0.4007 C   0  0  0  0  0  0  0  0  0  0  0  0
    4.5508    0.2118    1.1393 H   0  0  0  0  0  0  0  0  0  0  0  0
    5.4987   -1.2761    0.8275 H   0  0  0  0  0  0  0  0  0  0  0  0
    5.8006    0.2149   -0.1104 H   0  0  0  0  0  0  0  0  0  0  0  0
    1.0902   -2.1550   -0.3551 H   0  0  0  0  0  0  0  0  0  0  0  0
    2.2242   -2.3010   -1.6884 H   0  0  0  0  0  0  0  0  0  0  0  0
    0.5380   -0.7627   -2.5004 H   0  0  0  0  0  0  0  0  0  0  0  0
    1.9077    0.2287   -2.1307 H   0  0  0  0  0  0  0  0  0  0  0  0
    2.3595    4.5245    1.5455 H   0  0  0  0  0  0  0  0  0  0  0  0
   -3.5251    1.0466    1.6316 H   0  0  0  0  0  0  0  0  0  0  0  0
   -5.4378   -0.2883    1.4771 H   0  0  0  0  0  0  0  0  0  0  0  0
   -5.1013   -1.9970    1.1848 H   0  0  0  0  0  0  0  0  0  0  0  0
   -5.7267   -0.9595   -0.1304 H   0  0  0  0  0  0  0  0  0  0  0  0
   -4.4873   -2.3426   -1.8252 H   0  0  0  0  0  0  0  0  0  0  0  0
   -3.8677   -3.3841   -0.5101 H   0  0  0  0  0  0  0  0  0  0  0  0
   -2.9141   -3.1304   -1.9741 H   0  0  0  0  0  0  0  0  0  0  0  0
   -1.1368   -1.7167   -1.7003 H   0  0  0  0  0  0  0  0  0  0  0  0
  1  2  1  0
  2  3  2  0
  2  4  1  0
  4  5  1  0
  5  6  1  0
  6  7  1  0
  7  8  1  0
  8  9  2  0
  9 10  1  0
 10 11  2  0
 10 12  1  0
 12 13  1  0
 13 14  2  0
 13 15  1  0
 15 16  2  0
 16 17  1  0
 17 18  2  0
 18 19  1  0
 19 20  1  0
 19 21  2  0
 21 22  1  0
 21 23  1  0
 23 24  2  0
 24  7  1  0
 15  8  1  0
 24 17  1  0
  1 25  1  0
  1 26  1  0
  1 27  1  0
  5 28  1  0
  5 29  1  0
  6 30  1  0
  6 31  1  0
 12 32  1  0
 18 33  1  0
 20 34  1  0
 20 35  1  0
 20 36  1  0
 22 37  1  0
 22 38  1  0
 22 39  1  0
 23 40  1  0
M  END
$$$$
