
     RDKit          3D

 71 75  0  0  0  0  0  0  0  0999 V2000
   -2.0405    6.0757    3.7975 C   0  0  0  0  0  0  0  0  0  0  0  0
   -1.8646    4.7283    4.2143 O   0  0  0  0  0  0  0  0  0  0  0  0
   -1.8317    3.7775    3.2321 C   0  0  0  0  0  0  0  0  0  0  0  0
   -1.9360    4.0077    1.8624 C   0  0  0  0  0  0  0  0  0  0  0  0
   -1.8867    2.9354    0.9641 C   0  0  0  0  0  0  0  0  0  0  0  0
   -1.7382    1.6114    1.4141 C   0  0  0  0  0  0  0  0  0  0  0  0
   -1.6892    0.4807    0.3808 C   0  0  0  0  0  0  0  0  0  0  0  0
   -2.1142   -0.9135    0.9134 C   0  0  0  0  0  0  0  0  0  0  0  0
   -2.3348   -1.9260   -0.2242 C   0  0  0  0  0  0  0  0  0  0  0  0
   -2.8148   -3.2223    0.2780 N   0  0  0  0  0  0  0  0  0  0  0  0
   -4.2417   -3.2079    0.6700 C   0  0  0  0  0  0  0  0  0  0  0  0
   -5.1751   -3.8568   -0.3660 C   0  0  0  0  0  0  0  0  0  0  0  0
   -4.8489   -5.2226   -0.6497 O   0  0  0  0  0  0  0  0  0  0  0  0
   -3.4557   -5.5145   -0.4716 C   0  0  0  0  0  0  0  0  0  0  0  0
   -2.5611   -4.2906   -0.7133 C   0  0  0  0  0  0  0  0  0  0  0  0
   -0.3584    0.4566   -0.3847 C   0  0  0  0  0  0  0  0  0  0  0  0
   -0.3226    0.7359   -1.7629 C   0  0  0  0  0  0  0  0  0  0  0  0
   -1.5281    1.0013   -2.3603 O   0  0  0  0  0  0  0  0  0  0  0  0
   -1.5364    1.3427   -3.7403 C   0  0  0  0  0  0  0  0  0  0  0  0
    0.8987    0.7152   -2.4470 C   0  0  0  0  0  0  0  0  0  0  0  0
    2.1044    0.4322   -1.7862 C   0  0  0  0  0  0  0  0  0  0  0  0
    3.3100    0.3906   -2.4380 O   0  0  0  0  0  0  0  0  0  0  0  0
    3.4046    0.9629   -3.7343 C   0  0  0  0  0  0  0  0  0  0  0  0
    2.1030    0.1419   -0.4074 C   0  0  0  0  0  0  0  0  0  0  0  0
    3.3203   -0.1703    0.3849 C   0  0  0  0  0  0  0  0  0  0  0  0
    4.7168   -0.2147   -0.0976 C   0  0  0  0  0  0  0  0  0  0  0  0
    5.2723   -1.4193   -0.5484 C   0  0  0  0  0  0  0  0  0  0  0  0
    6.5981   -1.4624   -0.9843 C   0  0  0  0  0  0  0  0  0  0  0  0
    7.3756   -0.3047   -0.9708 C   0  0  0  0  0  0  0  0  0  0  0  0
    6.8309    0.8974   -0.5213 C   0  0  0  0  0  0  0  0  0  0  0  0
    5.5059    0.9430   -0.0833 C   0  0  0  0  0  0  0  0  0  0  0  0
    3.1924   -0.4397    1.6943 C   0  0  0  0  0  0  0  0  0  0  0  0
    1.9089   -0.4477    2.3950 C   0  0  0  0  0  0  0  0  0  0  0  0
    1.8390   -0.7175    3.5881 O   0  0  0  0  0  0  0  0  0  0  0  0
    0.7998   -0.1424    1.6361 O   0  0  0  0  0  0  0  0  0  0  0  0
    0.8652    0.1586    0.2554 C   0  0  0  0  0  0  0  0  0  0  0  0
   -1.6306    1.3953    2.7938 C   0  0  0  0  0  0  0  0  0  0  0  0
   -1.6758    2.4685    3.6894 C   0  0  0  0  0  0  0  0  0  0  0  0
   -1.2050    6.4084    3.1727 H   0  0  0  0  0  0  0  0  0  0  0  0
   -2.0556    6.7032    4.6936 H   0  0  0  0  0  0  0  0  0  0  0  0
   -2.9981    6.2086    3.2831 H   0  0  0  0  0  0  0  0  0  0  0  0
   -2.0554    5.0060    1.4565 H   0  0  0  0  0  0  0  0  0  0  0  0
   -1.9668    3.1408   -0.1019 H   0  0  0  0  0  0  0  0  0  0  0  0
   -2.4973    0.7420   -0.3165 H   0  0  0  0  0  0  0  0  0  0  0  0
   -1.3757   -1.3220    1.6126 H   0  0  0  0  0  0  0  0  0  0  0  0
   -3.0426   -0.7931    1.4846 H   0  0  0  0  0  0  0  0  0  0  0  0
   -1.3703   -2.0796   -0.7240 H   0  0  0  0  0  0  0  0  0  0  0  0
   -3.0260   -1.5233   -0.9757 H   0  0  0  0  0  0  0  0  0  0  0  0
   -4.6005   -2.1979    0.8937 H   0  0  0  0  0  0  0  0  0  0  0  0
   -4.3175   -3.7768    1.6058 H   0  0  0  0  0  0  0  0  0  0  0  0
   -5.1526   -3.2981   -1.3082 H   0  0  0  0  0  0  0  0  0  0  0  0
   -6.2078   -3.8353   -0.0029 H   0  0  0  0  0  0  0  0  0  0  0  0
   -3.3138   -5.9111    0.5407 H   0  0  0  0  0  0  0  0  0  0  0  0
   -3.1981   -6.3151   -1.1726 H   0  0  0  0  0  0  0  0  0  0  0  0
   -2.7525   -3.9198   -1.7293 H   0  0  0  0  0  0  0  0  0  0  0  0
   -1.5086   -4.5865   -0.6546 H   0  0  0  0  0  0  0  0  0  0  0  0
   -2.5715    1.5543   -4.0251 H   0  0  0  0  0  0  0  0  0  0  0  0
   -0.9487    2.2475   -3.9287 H   0  0  0  0  0  0  0  0  0  0  0  0
   -1.1870    0.5061   -4.3539 H   0  0  0  0  0  0  0  0  0  0  0  0
    0.9148    0.9079   -3.5118 H   0  0  0  0  0  0  0  0  0  0  0  0
    4.4629    0.9897   -4.0100 H   0  0  0  0  0  0  0  0  0  0  0  0
    3.0324    1.9927   -3.7461 H   0  0  0  0  0  0  0  0  0  0  0  0
    2.8850    0.3444   -4.4722 H   0  0  0  0  0  0  0  0  0  0  0  0
    4.6732   -2.3264   -0.5681 H   0  0  0  0  0  0  0  0  0  0  0  0
    7.0223   -2.3994   -1.3354 H   0  0  0  0  0  0  0  0  0  0  0  0
    8.4072   -0.3393   -1.3114 H   0  0  0  0  0  0  0  0  0  0  0  0
    7.4368    1.7996   -0.5122 H   0  0  0  0  0  0  0  0  0  0  0  0
    5.0891    1.8849    0.2638 H   0  0  0  0  0  0  0  0  0  0  0  0
    4.0444   -0.6718    2.3260 H   0  0  0  0  0  0  0  0  0  0  0  0
   -1.4942    0.3955    3.1991 H   0  0  0  0  0  0  0  0  0  0  0  0
   -1.5833    2.2782    4.7563 H   0  0  0  0  0  0  0  0  0  0  0  0
  1  2  1  0
  2  3  1  0
  3  4  2  0
  4  5  1  0
  5  6  2  0
  6  7  1  0
  7  8  1  0
  8  9  1  0
  9 10  1  0
 10 11  1  0
 11 12  1  0
 12 13  1  0
 13 14  1  0
 14 15  1  0
  7 16  1  0
 16 17  2  0
 17 18  1  0
 18 19  1  0
 17 20  1  0
 20 21  2  0
 21 22  1  0
 22 23  1  0
 21 24  1  0
 24 25  1  0
 25 26  1  0
 26 27  2  0
 27 28  1  0
 28 29  2  0
 29 30  1  0
 30 31  2  0
 25 32  2  0
 32 33  1  0
 33 34  2  0
 33 35  1  0
 35 36  1  0
  6 37  1  0
 37 38  2  0
 38  3  1  0
 15 10  1  0
 36 16  1  0
 36 24  2  0
 31 26  1  0
  1 39  1  0
  1 40  1  0
  1 41  1  0
  4 42  1  0
  5 43  1  0
  7 44  1  0
  8 45  1  0
  8 46  1  0
  9 47  1  0
  9 48  1  0
 11 49  1  0
 11 50  1  0
 12 51  1  0
 12 52  1  0
 14 53  1  0
 14 54  1  0
 15 55  1  0
 15 56  1  0
 19 57  1  0
 19 58  1  0
 19 59  1  0
 20 60  1  0
 23 61  1  0
 23 62  1  0
 23 63  1  0
 27 64  1  0
 28 65  1  0
 29 66  1  0
 30 67  1  0
 31 68  1  0
 32 69  1  0
 37 70  1  0
 38 71  1  0
M  END
$$$$
