
     RDKit          3D

 46 48  0  0  0  0  0  0  0  0999 V2000
    6.8661   -0.8605   -1.6309 C   0  0  0  0  0  0  0  0  0  0  0  0
    5.7436   -0.2158   -0.8301 C   0  0  0  0  0  0  0  0  0  0  0  0
    4.3949   -0.8822   -1.1324 C   0  0  0  0  0  0  0  0  0  0  0  0
    3.3124   -0.2450   -0.3845 N   0  0  0  0  0  0  0  0  0  0  0  0
    2.0070   -0.3860   -0.8640 C   0  0  0  0  0  0  0  0  0  0  0  0
    1.7628   -1.1814   -1.7756 O   0  0  0  0  0  0  0  0  0  0  0  0
    0.9132    0.4189   -0.2946 C   0  0  0  0  0  0  0  0  0  0  0  0
   -0.4756    0.1567   -0.4547 C   0  0  0  0  0  0  0  0  0  0  0  0
   -1.1118    1.1819    0.2009 C   0  0  0  0  0  0  0  0  0  0  0  0
   -2.5224    1.5615    0.4473 C   0  0  0  0  0  0  0  0  0  0  0  0
   -3.3437    0.5202   -0.0794 O   0  0  0  0  0  0  0  0  0  0  0  0
   -4.6972    0.6794    0.0310 C   0  0  0  0  0  0  0  0  0  0  0  0
   -5.3533    1.7561    0.6284 C   0  0  0  0  0  0  0  0  0  0  0  0
   -6.7496    1.7871    0.6755 C   0  0  0  0  0  0  0  0  0  0  0  0
   -7.4963    0.7448    0.1253 C   0  0  0  0  0  0  0  0  0  0  0  0
   -6.8537   -0.3398   -0.4880 C   0  0  0  0  0  0  0  0  0  0  0  0
   -7.6500   -1.4827   -1.0655 C   0  0  0  0  0  0  0  0  0  0  0  0
   -7.0415   -2.0764   -2.1293 F   0  0  0  0  0  0  0  0  0  0  0  0
   -8.8827   -1.1052   -1.5077 F   0  0  0  0  0  0  0  0  0  0  0  0
   -7.8671   -2.4727   -0.1565 F   0  0  0  0  0  0  0  0  0  0  0  0
   -5.4503   -0.3625   -0.5209 C   0  0  0  0  0  0  0  0  0  0  0  0
   -0.1735    2.0208    0.7152 O   0  0  0  0  0  0  0  0  0  0  0  0
    1.0874    1.5596    0.3974 N   0  0  0  0  0  0  0  0  0  0  0  0
    3.7140    0.4658    0.8341 C   0  0  0  0  0  0  0  0  0  0  0  0
    5.0010   -0.1036    1.4702 C   0  0  0  0  0  0  0  0  0  0  0  0
    4.7399   -1.4179    2.2043 C   0  0  0  0  0  0  0  0  0  0  0  0
    6.0904   -0.3159    0.5584 O   0  0  0  0  0  0  0  0  0  0  0  0
    7.8230   -0.3770   -1.4059 H   0  0  0  0  0  0  0  0  0  0  0  0
    6.6817   -0.7854   -2.7067 H   0  0  0  0  0  0  0  0  0  0  0  0
    6.9779   -1.9176   -1.3659 H   0  0  0  0  0  0  0  0  0  0  0  0
    5.6999    0.8511   -1.0846 H   0  0  0  0  0  0  0  0  0  0  0  0
    4.4069   -1.9379   -0.8362 H   0  0  0  0  0  0  0  0  0  0  0  0
    4.1740   -0.8352   -2.2051 H   0  0  0  0  0  0  0  0  0  0  0  0
   -0.9333   -0.6675   -0.9841 H   0  0  0  0  0  0  0  0  0  0  0  0
   -2.6848    1.6631    1.5267 H   0  0  0  0  0  0  0  0  0  0  0  0
   -2.7330    2.5091   -0.0624 H   0  0  0  0  0  0  0  0  0  0  0  0
   -4.8141    2.5881    1.0705 H   0  0  0  0  0  0  0  0  0  0  0  0
   -7.2570    2.6276    1.1442 H   0  0  0  0  0  0  0  0  0  0  0  0
   -8.5838    0.7824    0.1738 H   0  0  0  0  0  0  0  0  0  0  0  0
   -4.9333   -1.2018   -0.9871 H   0  0  0  0  0  0  0  0  0  0  0  0
    2.9098    0.4481    1.5749 H   0  0  0  0  0  0  0  0  0  0  0  0
    3.8920    1.5063    0.5344 H   0  0  0  0  0  0  0  0  0  0  0  0
    5.3576    0.6183    2.2148 H   0  0  0  0  0  0  0  0  0  0  0  0
    3.9671   -1.2975    2.9702 H   0  0  0  0  0  0  0  0  0  0  0  0
    4.4284   -2.2102    1.5165 H   0  0  0  0  0  0  0  0  0  0  0  0
    5.6570   -1.7693    2.6897 H   0  0  0  0  0  0  0  0  0  0  0  0
  1  2  1  0
  2  3  1  0
  3  4  1  0
  4  5  1  0
  5  6  2  0
  5  7  1  0
  7  8  1  0
  8  9  2  0
  9 10  1  0
 10 11  1  0
 11 12  1  0
 12 13  2  0
 13 14  1  0
 14 15  2  0
 15 16  1  0
 16 17  1  0
 17 18  1  0
 17 19  1  0
 17 20  1  0
 16 21  2  0
  9 22  1  0
 22 23  1  0
  4 24  1  0
 24 25  1  0
 25 26  1  0
 25 27  1  0
 27  2  1  0
 23  7  2  0
 21 12  1  0
  1 28  1  0
  1 29  1  0
  1 30  1  0
  2 31  1  0
  3 32  1  0
  3 33  1  0
  8 34  1  0
 10 35  1  0
 10 36  1  0
 13 37  1  0
 14 38  1  0
 15 39  1  0
 21 40  1  0
 24 41  1  0
 24 42  1  0
 25 43  1  0
 26 44  1  0
 26 45  1  0
 26 46  1  0
M  END
$$$$
