
     RDKit          3D

 43 45  0  0  0  0  0  0  0  0999 V2000
    6.9478    1.5301   -2.1094 C   0  0  0  0  0  0  0  0  0  0  0  0
    5.7442    0.7871   -1.9610 O   0  0  0  0  0  0  0  0  0  0  0  0
    4.9147    1.1538   -0.9363 C   0  0  0  0  0  0  0  0  0  0  0  0
    5.1258    2.2051   -0.0473 C   0  0  0  0  0  0  0  0  0  0  0  0
    4.1824    2.4747    0.9456 C   0  0  0  0  0  0  0  0  0  0  0  0
    3.0318    1.6901    1.0620 C   0  0  0  0  0  0  0  0  0  0  0  0
    2.8208    0.6167    0.1984 C   0  0  0  0  0  0  0  0  0  0  0  0
    1.6716   -0.2030    0.2232 N   0  0  0  0  0  0  0  0  0  0  0  0
    0.7724   -0.4943    1.2424 C   0  0  0  0  0  0  0  0  0  0  0  0
    1.1079   -0.3651    2.8858 S   0  0  0  0  0  0  0  0  0  0  0  0
   -0.4416   -1.0142    0.7239 N   0  0  0  0  0  0  0  0  0  0  0  0
   -1.4710   -1.5843    1.6225 C   0  0  0  0  0  0  0  0  0  0  0  0
   -2.4438   -2.5299    0.8910 C   0  0  0  0  0  0  0  0  0  0  0  0
   -3.0477   -1.8891   -0.2946 N   0  0  0  0  0  0  0  0  0  0  0  0
   -4.1107   -1.0135   -0.0245 C   0  0  0  0  0  0  0  0  0  0  0  0
   -5.2330   -1.4702    0.6706 C   0  0  0  0  0  0  0  0  0  0  0  0
   -6.2959   -0.6064    0.9330 C   0  0  0  0  0  0  0  0  0  0  0  0
   -6.2281    0.7027    0.4866 C   0  0  0  0  0  0  0  0  0  0  0  0
   -5.0998    1.0829   -0.2129 C   0  0  0  0  0  0  0  0  0  0  0  0
   -4.0604    0.2586   -0.4773 N   0  0  0  0  0  0  0  0  0  0  0  0
   -2.0233   -1.3535   -1.2145 C   0  0  0  0  0  0  0  0  0  0  0  0
   -1.0217   -0.4197   -0.5064 C   0  0  0  0  0  0  0  0  0  0  0  0
    3.7595    0.3732   -0.8130 C   0  0  0  0  0  0  0  0  0  0  0  0
    7.5803    1.4401   -1.2200 H   0  0  0  0  0  0  0  0  0  0  0  0
    6.7374    2.5793   -2.3416 H   0  0  0  0  0  0  0  0  0  0  0  0
    7.4997    1.1068   -2.9542 H   0  0  0  0  0  0  0  0  0  0  0  0
    6.0041    2.8389   -0.1032 H   0  0  0  0  0  0  0  0  0  0  0  0
    4.3364    3.3061    1.6293 H   0  0  0  0  0  0  0  0  0  0  0  0
    2.3031    1.9646    1.8173 H   0  0  0  0  0  0  0  0  0  0  0  0
    1.5894   -0.8436   -0.5555 H   0  0  0  0  0  0  0  0  0  0  0  0
   -0.9907   -2.1524    2.4252 H   0  0  0  0  0  0  0  0  0  0  0  0
   -2.0149   -0.7462    2.0753 H   0  0  0  0  0  0  0  0  0  0  0  0
   -3.1925   -2.9119    1.5932 H   0  0  0  0  0  0  0  0  0  0  0  0
   -1.8835   -3.4081    0.5441 H   0  0  0  0  0  0  0  0  0  0  0  0
   -5.3023   -2.5054    0.9863 H   0  0  0  0  0  0  0  0  0  0  0  0
   -7.1694   -0.9618    1.4712 H   0  0  0  0  0  0  0  0  0  0  0  0
   -7.0341    1.4037    0.6680 H   0  0  0  0  0  0  0  0  0  0  0  0
   -4.9939    2.0936   -0.5961 H   0  0  0  0  0  0  0  0  0  0  0  0
   -1.4670   -2.2095   -1.6190 H   0  0  0  0  0  0  0  0  0  0  0  0
   -2.4740   -0.8575   -2.0832 H   0  0  0  0  0  0  0  0  0  0  0  0
   -0.2419   -0.1416   -1.2204 H   0  0  0  0  0  0  0  0  0  0  0  0
   -1.5012    0.5163   -0.1976 H   0  0  0  0  0  0  0  0  0  0  0  0
    3.6130   -0.4429   -1.5159 H   0  0  0  0  0  0  0  0  0  0  0  0
  1  2  1  0
  2  3  1  0
  3  4  2  0
  4  5  1  0
  5  6  2  0
  6  7  1  0
  7  8  1  0
  8  9  1  0
  9 10  2  0
  9 11  1  0
 11 12  1  0
 12 13  1  0
 13 14  1  0
 14 15  1  0
 15 16  2  0
 16 17  1  0
 17 18  2  0
 18 19  1  0
 19 20  2  0
 14 21  1  0
 21 22  1  0
  7 23  2  0
 23  3  1  0
 22 11  1  0
 20 15  1  0
  1 24  1  0
  1 25  1  0
  1 26  1  0
  4 27  1  0
  5 28  1  0
  6 29  1  0
  8 30  1  0
 12 31  1  0
 12 32  1  0
 13 33  1  0
 13 34  1  0
 16 35  1  0
 17 36  1  0
 18 37  1  0
 19 38  1  0
 21 39  1  0
 21 40  1  0
 22 41  1  0
 22 42  1  0
 23 43  1  0
M  END
$$$$
