
     RDKit          3D

 49 52  0  0  0  0  0  0  0  0999 V2000
    7.7706   -1.4161    1.6081 C   0  0  0  0  0  0  0  0  0  0  0  0
    7.2718   -1.0127    0.2958 N   0  0  0  0  0  0  0  0  0  0  0  0
    8.2882   -0.6279   -0.6808 C   0  0  0  0  0  0  0  0  0  0  0  0
    5.9889   -0.4639    0.1881 C   0  0  0  0  0  0  0  0  0  0  0  0
    5.5150    0.0904   -1.0136 C   0  0  0  0  0  0  0  0  0  0  0  0
    4.2241    0.6283   -1.1359 C   0  0  0  0  0  0  0  0  0  0  0  0
    3.3438    0.6153   -0.0557 C   0  0  0  0  0  0  0  0  0  0  0  0
    2.0234    1.2352   -0.1992 C   0  0  0  0  0  0  0  0  0  0  0  0
    0.8283    0.6745    0.0371 C   0  0  0  0  0  0  0  0  0  0  0  0
   -0.4208    1.3459   -0.1298 C   0  0  0  0  0  0  0  0  0  0  0  0
   -1.3595    0.4567    0.1889 C   0  0  0  0  0  0  0  0  0  0  0  0
   -2.8198    0.6361    0.1776 C   0  0  0  0  0  0  0  0  0  0  0  0
   -3.4046    1.9125    0.1982 C   0  0  0  0  0  0  0  0  0  0  0  0
   -4.7944    2.0716    0.1996 C   0  0  0  0  0  0  0  0  0  0  0  0
   -5.6260    0.9528    0.1694 C   0  0  0  0  0  0  0  0  0  0  0  0
   -5.0615   -0.3308    0.1549 C   0  0  0  0  0  0  0  0  0  0  0  0
   -3.6691   -0.4821    0.1686 C   0  0  0  0  0  0  0  0  0  0  0  0
   -5.9892   -1.5162    0.1829 C   0  0  0  0  0  0  0  0  0  0  0  0
   -7.1666   -1.3183   -0.7736 C   0  0  0  0  0  0  0  0  0  0  0  0
   -7.7852    0.0880   -0.7567 C   0  0  0  0  0  0  0  0  0  0  0  0
   -7.1256    1.0710    0.2124 C   0  0  0  0  0  0  0  0  0  0  0  0
   -0.8668   -0.8087    0.5657 O   0  0  0  0  0  0  0  0  0  0  0  0
    0.5078   -0.7141    0.4828 C   0  0  0  0  0  0  0  0  0  0  0  0
    1.2791   -1.6204    0.7373 O   0  0  0  0  0  0  0  0  0  0  0  0
    3.7847    0.0724    1.1478 C   0  0  0  0  0  0  0  0  0  0  0  0
    5.0768   -0.4665    1.2578 C   0  0  0  0  0  0  0  0  0  0  0  0
    7.1279   -2.1791    2.0605 H   0  0  0  0  0  0  0  0  0  0  0  0
    8.7651   -1.8702    1.5314 H   0  0  0  0  0  0  0  0  0  0  0  0
    7.8505   -0.5549    2.2805 H   0  0  0  0  0  0  0  0  0  0  0  0
    9.2575   -1.0840   -0.4497 H   0  0  0  0  0  0  0  0  0  0  0  0
    8.4317    0.4583   -0.6932 H   0  0  0  0  0  0  0  0  0  0  0  0
    8.0243   -0.9756   -1.6852 H   0  0  0  0  0  0  0  0  0  0  0  0
    6.1387    0.1105   -1.9018 H   0  0  0  0  0  0  0  0  0  0  0  0
    3.9197    1.0448   -2.0931 H   0  0  0  0  0  0  0  0  0  0  0  0
    2.0648    2.2631   -0.5558 H   0  0  0  0  0  0  0  0  0  0  0  0
   -0.5531    2.3625   -0.4596 H   0  0  0  0  0  0  0  0  0  0  0  0
   -2.7897    2.8082    0.2307 H   0  0  0  0  0  0  0  0  0  0  0  0
   -5.2180    3.0725    0.2295 H   0  0  0  0  0  0  0  0  0  0  0  0
   -3.2489   -1.4864    0.1681 H   0  0  0  0  0  0  0  0  0  0  0  0
   -6.3559   -1.6464    1.2086 H   0  0  0  0  0  0  0  0  0  0  0  0
   -5.4573   -2.4354   -0.0888 H   0  0  0  0  0  0  0  0  0  0  0  0
   -6.8266   -1.5260   -1.7972 H   0  0  0  0  0  0  0  0  0  0  0  0
   -7.9387   -2.0671   -0.5598 H   0  0  0  0  0  0  0  0  0  0  0  0
   -7.7192    0.4989   -1.7733 H   0  0  0  0  0  0  0  0  0  0  0  0
   -8.8567    0.0208   -0.5331 H   0  0  0  0  0  0  0  0  0  0  0  0
   -7.4442    2.0897   -0.0376 H   0  0  0  0  0  0  0  0  0  0  0  0
   -7.4610    0.8701    1.2374 H   0  0  0  0  0  0  0  0  0  0  0  0
    3.1329    0.0450    2.0175 H   0  0  0  0  0  0  0  0  0  0  0  0
    5.3431   -0.8920    2.2203 H   0  0  0  0  0  0  0  0  0  0  0  0
  1  2  1  0
  2  3  1  0
  2  4  1  0
  4  5  2  0
  5  6  1  0
  6  7  2  0
  7  8  1  0
  8  9  2  3
  9 10  1  0
 10 11  2  0
 11 12  1  0
 12 13  2  0
 13 14  1  0
 14 15  2  0
 15 16  1  0
 16 17  2  0
 16 18  1  0
 18 19  1  0
 19 20  1  0
 20 21  1  0
 11 22  1  0
 22 23  1  0
 23 24  2  0
  7 25  1  0
 25 26  2  0
 26  4  1  0
 23  9  1  0
 17 12  1  0
 21 15  1  0
  1 27  1  0
  1 28  1  0
  1 29  1  0
  3 30  1  0
  3 31  1  0
  3 32  1  0
  5 33  1  0
  6 34  1  0
  8 35  1  0
 10 36  1  0
 13 37  1  0
 14 38  1  0
 17 39  1  0
 18 40  1  0
 18 41  1  0
 19 42  1  0
 19 43  1  0
 20 44  1  0
 20 45  1  0
 21 46  1  0
 21 47  1  0
 25 48  1  0
 26 49  1  0
M  END
$$$$
