
     RDKit          3D

 50 52  0  0  0  0  0  0  0  0999 V2000
    5.5016    0.8770    1.8991 C   0  0  0  0  0  0  0  0  0  0  0  0
    4.6406    0.8021    0.6735 C   0  0  0  0  0  0  0  0  0  0  0  0
    4.5403   -0.3893   -0.0542 C   0  0  0  0  0  0  0  0  0  0  0  0
    3.7598   -0.4477   -1.2114 C   0  0  0  0  0  0  0  0  0  0  0  0
    3.0707    0.6830   -1.6536 C   0  0  0  0  0  0  0  0  0  0  0  0
    2.0402    0.5947   -3.1009 S   0  0  0  0  0  0  0  0  0  0  0  0
    0.4470    0.1673   -2.3137 C   0  0  0  0  0  0  0  0  0  0  0  0
    0.4622   -1.2659   -1.7834 C   0  0  0  0  0  0  0  0  0  0  0  0
    0.6039   -2.2036   -2.5768 O   0  0  0  0  0  0  0  0  0  0  0  0
    0.3006   -1.5051   -0.4149 N   0  0  0  0  0  0  0  0  0  0  0  0
    0.3167   -0.4440    0.6029 C   0  0  0  0  0  0  0  0  0  0  0  0
   -1.0540    0.0819    0.8344 C   0  0  0  0  0  0  0  0  0  0  0  0
   -1.9001    0.6339   -0.0066 N   0  0  0  0  0  0  0  0  0  0  0  0
   -2.9928    0.8962    0.7947 C   0  0  0  0  0  0  0  0  0  0  0  0
   -4.2106    1.5094    0.2740 C   0  0  0  0  0  0  0  0  0  0  0  0
   -5.2950    1.7987    1.1167 C   0  0  0  0  0  0  0  0  0  0  0  0
   -6.4572    2.3836    0.6062 C   0  0  0  0  0  0  0  0  0  0  0  0
   -6.5484    2.6854   -0.7511 C   0  0  0  0  0  0  0  0  0  0  0  0
   -5.4797    2.4041   -1.5998 C   0  0  0  0  0  0  0  0  0  0  0  0
   -4.3172    1.8194   -1.0904 C   0  0  0  0  0  0  0  0  0  0  0  0
   -2.8186    0.5379    2.0785 N   0  0  0  0  0  0  0  0  0  0  0  0
   -1.5369   -0.0032    2.1053 O   0  0  0  0  0  0  0  0  0  0  0  0
    0.2825   -2.9148    0.0352 C   0  0  0  0  0  0  0  0  0  0  0  0
   -0.6990   -3.1937    1.1756 C   0  0  0  0  0  0  0  0  0  0  0  0
    1.6919   -3.3833    0.4028 C   0  0  0  0  0  0  0  0  0  0  0  0
    3.1946    1.8830   -0.9501 C   0  0  0  0  0  0  0  0  0  0  0  0
    3.9768    1.9426    0.2063 C   0  0  0  0  0  0  0  0  0  0  0  0
    6.5076    1.2139    1.6305 H   0  0  0  0  0  0  0  0  0  0  0  0
    5.0766    1.5730    2.6292 H   0  0  0  0  0  0  0  0  0  0  0  0
    5.5747   -0.1006    2.3875 H   0  0  0  0  0  0  0  0  0  0  0  0
    5.0728   -1.2805    0.2707 H   0  0  0  0  0  0  0  0  0  0  0  0
    3.6938   -1.3831   -1.7636 H   0  0  0  0  0  0  0  0  0  0  0  0
    0.1956    0.9228   -1.5728 H   0  0  0  0  0  0  0  0  0  0  0  0
   -0.3352    0.2159   -3.0793 H   0  0  0  0  0  0  0  0  0  0  0  0
    0.9628    0.3743    0.2837 H   0  0  0  0  0  0  0  0  0  0  0  0
    0.7580   -0.8309    1.5265 H   0  0  0  0  0  0  0  0  0  0  0  0
   -5.2461    1.5705    2.1797 H   0  0  0  0  0  0  0  0  0  0  0  0
   -7.2908    2.6014    1.2691 H   0  0  0  0  0  0  0  0  0  0  0  0
   -7.4531    3.1388   -1.1480 H   0  0  0  0  0  0  0  0  0  0  0  0
   -5.5505    2.6371   -2.6595 H   0  0  0  0  0  0  0  0  0  0  0  0
   -3.4943    1.6043   -1.7694 H   0  0  0  0  0  0  0  0  0  0  0  0
   -0.0516   -3.5337   -0.8062 H   0  0  0  0  0  0  0  0  0  0  0  0
   -1.7062   -2.8526    0.9159 H   0  0  0  0  0  0  0  0  0  0  0  0
   -0.4021   -2.7029    2.1076 H   0  0  0  0  0  0  0  0  0  0  0  0
   -0.7535   -4.2690    1.3774 H   0  0  0  0  0  0  0  0  0  0  0  0
    2.0998   -2.8118    1.2428 H   0  0  0  0  0  0  0  0  0  0  0  0
    2.3764   -3.2621   -0.4429 H   0  0  0  0  0  0  0  0  0  0  0  0
    1.6895   -4.4422    0.6825 H   0  0  0  0  0  0  0  0  0  0  0  0
    2.6881    2.7803   -1.2974 H   0  0  0  0  0  0  0  0  0  0  0  0
    4.0679    2.8876    0.7377 H   0  0  0  0  0  0  0  0  0  0  0  0
  1  2  1  0
  2  3  2  0
  3  4  1  0
  4  5  2  0
  5  6  1  0
  6  7  1  0
  7  8  1  0
  8  9  2  0
  8 10  1  0
 10 11  1  0
 11 12  1  0
 12 13  2  0
 13 14  1  0
 14 15  1  0
 15 16  2  0
 16 17  1  0
 17 18  2  0
 18 19  1  0
 19 20  2  0
 14 21  2  0
 21 22  1  0
 10 23  1  0
 23 24  1  0
 23 25  1  0
  5 26  1  0
 26 27  2  0
 27  2  1  0
 22 12  1  0
 20 15  1  0
  1 28  1  0
  1 29  1  0
  1 30  1  0
  3 31  1  0
  4 32  1  0
  7 33  1  0
  7 34  1  0
 11 35  1  0
 11 36  1  0
 16 37  1  0
 17 38  1  0
 18 39  1  0
 19 40  1  0
 20 41  1  0
 23 42  1  0
 24 43  1  0
 24 44  1  0
 24 45  1  0
 25 46  1  0
 25 47  1  0
 25 48  1  0
 26 49  1  0
 27 50  1  0
M  END
$$$$
