
     RDKit          3D

 65 68  0  0  0  0  0  0  0  0999 V2000
   -5.4390   -2.6094   -0.9633 C   0  0  0  0  0  0  0  0  0  0  0  0
   -4.8701   -1.7718    0.1421 C   0  0  0  0  0  0  0  0  0  0  0  0
   -5.6091   -0.7166    0.6865 C   0  0  0  0  0  0  0  0  0  0  0  0
   -5.0905    0.0474    1.7355 C   0  0  0  0  0  0  0  0  0  0  0  0
   -3.8217   -0.2286    2.2598 C   0  0  0  0  0  0  0  0  0  0  0  0
   -3.2383    0.5911    3.3893 C   0  0  0  0  0  0  0  0  0  0  0  0
   -3.2406    2.1065    3.1542 C   0  0  0  0  0  0  0  0  0  0  0  0
   -2.4818    2.4894    1.9793 N   0  0  0  0  0  0  0  0  0  0  0  0
   -2.9188    3.4429    1.0951 C   0  0  0  0  0  0  0  0  0  0  0  0
   -3.9762    4.0565    1.2157 O   0  0  0  0  0  0  0  0  0  0  0  0
   -2.0086    3.6539   -0.0979 C   0  0  0  0  0  0  0  0  0  0  0  0
   -2.5034    2.8832   -1.3213 C   0  0  0  0  0  0  0  0  0  0  0  0
   -2.3260    1.3648   -1.2344 C   0  0  0  0  0  0  0  0  0  0  0  0
   -0.9367    0.9436   -1.4040 N   0  0  0  0  0  0  0  0  0  0  0  0
   -0.5102    0.8224   -2.7330 N   0  0  0  0  0  0  0  0  0  0  0  0
    0.6995    0.4328   -3.0229 C   0  0  0  0  0  0  0  0  0  0  0  0
    1.0827    0.3144   -4.4705 C   0  0  0  0  0  0  0  0  0  0  0  0
    1.6209    0.1329   -1.9549 C   0  0  0  0  0  0  0  0  0  0  0  0
    2.9553   -0.2365   -1.9030 C   0  0  0  0  0  0  0  0  0  0  0  0
    3.9609   -0.3251   -2.9933 C   0  0  0  0  0  0  0  0  0  0  0  0
    3.2240   -0.4691   -0.5474 N   0  0  0  0  0  0  0  0  0  0  0  0
    4.3578   -1.0619    0.0923 C   0  0  0  0  0  0  0  0  0  0  0  0
    5.2870   -1.8472   -0.5973 C   0  0  0  0  0  0  0  0  0  0  0  0
    6.3773   -2.4128    0.0766 C   0  0  0  0  0  0  0  0  0  0  0  0
    6.5566   -2.2074    1.4477 C   0  0  0  0  0  0  0  0  0  0  0  0
    7.7046   -2.8449    2.1724 C   0  0  0  0  0  0  0  0  0  0  0  0
    5.6094   -1.4555    2.1467 C   0  0  0  0  0  0  0  0  0  0  0  0
    4.5197   -0.8900    1.4776 C   0  0  0  0  0  0  0  0  0  0  0  0
    2.1918   -0.0397    0.2311 N   0  0  0  0  0  0  0  0  0  0  0  0
    1.2118    0.2572   -0.6242 C   0  0  0  0  0  0  0  0  0  0  0  0
   -0.1297    0.7026   -0.2733 C   0  0  0  0  0  0  0  0  0  0  0  0
   -0.5045    0.8727    0.8864 O   0  0  0  0  0  0  0  0  0  0  0  0
   -3.0975   -1.3060    1.7319 C   0  0  0  0  0  0  0  0  0  0  0  0
   -3.6170   -2.0713    0.6848 C   0  0  0  0  0  0  0  0  0  0  0  0
   -5.9762   -3.4666   -0.5449 H   0  0  0  0  0  0  0  0  0  0  0  0
   -6.1305   -2.0259   -1.5811 H   0  0  0  0  0  0  0  0  0  0  0  0
   -4.6442   -2.9748   -1.6229 H   0  0  0  0  0  0  0  0  0  0  0  0
   -6.5954   -0.4768    0.2965 H   0  0  0  0  0  0  0  0  0  0  0  0
   -5.6876    0.8655    2.1323 H   0  0  0  0  0  0  0  0  0  0  0  0
   -2.2047    0.2720    3.5758 H   0  0  0  0  0  0  0  0  0  0  0  0
   -3.8020    0.3655    4.3030 H   0  0  0  0  0  0  0  0  0  0  0  0
   -4.2630    2.4921    3.0844 H   0  0  0  0  0  0  0  0  0  0  0  0
   -2.7652    2.6034    4.0073 H   0  0  0  0  0  0  0  0  0  0  0  0
   -1.6287    1.9660    1.7707 H   0  0  0  0  0  0  0  0  0  0  0  0
   -2.0156    4.7289   -0.3167 H   0  0  0  0  0  0  0  0  0  0  0  0
   -0.9736    3.4033    0.1521 H   0  0  0  0  0  0  0  0  0  0  0  0
   -1.9832    3.2617   -2.2100 H   0  0  0  0  0  0  0  0  0  0  0  0
   -3.5705    3.0945   -1.4648 H   0  0  0  0  0  0  0  0  0  0  0  0
   -2.7158    0.9762   -0.2919 H   0  0  0  0  0  0  0  0  0  0  0  0
   -2.9076    0.8882   -2.0334 H   0  0  0  0  0  0  0  0  0  0  0  0
    1.5731   -0.6452   -4.6557 H   0  0  0  0  0  0  0  0  0  0  0  0
    1.7574    1.1325   -4.7371 H   0  0  0  0  0  0  0  0  0  0  0  0
    0.1940    0.3778   -5.1055 H   0  0  0  0  0  0  0  0  0  0  0  0
    4.9641   -0.0586   -2.6473 H   0  0  0  0  0  0  0  0  0  0  0  0
    3.9754   -1.3295   -3.4268 H   0  0  0  0  0  0  0  0  0  0  0  0
    3.7329    0.3825   -3.7953 H   0  0  0  0  0  0  0  0  0  0  0  0
    5.1777   -2.0925   -1.6466 H   0  0  0  0  0  0  0  0  0  0  0  0
    7.0805   -3.0318   -0.4780 H   0  0  0  0  0  0  0  0  0  0  0  0
    7.4080   -3.8275    2.5519 H   0  0  0  0  0  0  0  0  0  0  0  0
    8.0279   -2.2224    3.0135 H   0  0  0  0  0  0  0  0  0  0  0  0
    8.5671   -2.9673    1.5089 H   0  0  0  0  0  0  0  0  0  0  0  0
    5.7069   -1.3053    3.2197 H   0  0  0  0  0  0  0  0  0  0  0  0
    3.8041   -0.3082    2.0574 H   0  0  0  0  0  0  0  0  0  0  0  0
   -2.1125   -1.5496    2.1254 H   0  0  0  0  0  0  0  0  0  0  0  0
   -3.0322   -2.9009    0.2946 H   0  0  0  0  0  0  0  0  0  0  0  0
  1  2  1  0
  2  3  2  0
  3  4  1  0
  4  5  2  0
  5  6  1  0
  6  7  1  0
  7  8  1  0
  8  9  1  0
  9 10  2  0
  9 11  1  0
 11 12  1  0
 12 13  1  0
 13 14  1  0
 14 15  1  0
 15 16  2  0
 16 17  1  0
 16 18  1  0
 18 19  2  0
 19 20  1  0
 19 21  1  0
 21 22  1  0
 22 23  2  0
 23 24  1  0
 24 25  2  0
 25 26  1  0
 25 27  1  0
 27 28  2  0
 21 29  1  0
 29 30  2  0
 30 31  1  0
 31 32  2  0
  5 33  1  0
 33 34  2  0
 34  2  1  0
 31 14  1  0
 30 18  1  0
 28 22  1  0
  1 35  1  0
  1 36  1  0
  1 37  1  0
  3 38  1  0
  4 39  1  0
  6 40  1  0
  6 41  1  0
  7 42  1  0
  7 43  1  0
  8 44  1  0
 11 45  1  0
 11 46  1  0
 12 47  1  0
 12 48  1  0
 13 49  1  0
 13 50  1  0
 17 51  1  0
 17 52  1  0
 17 53  1  0
 20 54  1  0
 20 55  1  0
 20 56  1  0
 23 57  1  0
 24 58  1  0
 26 59  1  0
 26 60  1  0
 26 61  1  0
 27 62  1  0
 28 63  1  0
 33 64  1  0
 34 65  1  0
M  END
$$$$
