
     RDKit          3D

 57 60  0  0  0  0  0  0  0  0999 V2000
   -2.1589    1.0170    1.8202 O   0  0  0  0  0  0  0  0  0  0  0  0
   -1.7567   -0.0035    1.2737 C   0  0  0  0  0  0  0  0  0  0  0  0
   -0.3775   -0.5963    1.4952 C   0  0  0  0  0  0  0  0  0  0  0  0
    0.4314    0.1896    2.5263 C   0  0  0  0  0  0  0  0  0  0  0  0
    1.7720   -0.4643    2.8713 C   0  0  0  0  0  0  0  0  0  0  0  0
    2.7564   -0.4829    1.7008 C   0  0  0  0  0  0  0  0  0  0  0  0
    4.1014   -1.0871    2.1176 C   0  0  0  0  0  0  0  0  0  0  0  0
    5.0413   -1.1228    1.0025 N   0  0  0  0  0  0  0  0  0  0  0  0
    5.8597   -0.0213    0.8076 C   0  0  0  0  0  0  0  0  0  0  0  0
    5.8511    0.9820    1.5194 O   0  0  0  0  0  0  0  0  0  0  0  0
    6.7193   -0.0739   -0.2524 N   0  0  0  0  0  0  0  0  0  0  0  0
    6.7956   -1.1434   -1.1389 C   0  0  0  0  0  0  0  0  0  0  0  0
    7.7119   -1.1153   -2.1902 C   0  0  0  0  0  0  0  0  0  0  0  0
    7.7767   -2.1917   -3.0782 C   0  0  0  0  0  0  0  0  0  0  0  0
    6.9284   -3.2889   -2.9161 C   0  0  0  0  0  0  0  0  0  0  0  0
    6.0117   -3.3126   -1.8641 C   0  0  0  0  0  0  0  0  0  0  0  0
    5.9500   -2.2344   -0.9754 C   0  0  0  0  0  0  0  0  0  0  0  0
    4.9908   -2.2218    0.1457 C   0  0  0  0  0  0  0  0  0  0  0  0
    4.1985   -3.1539    0.2675 O   0  0  0  0  0  0  0  0  0  0  0  0
   -2.5126   -0.7332    0.3803 N   0  0  0  0  0  0  0  0  0  0  0  0
   -3.8510   -0.3184    0.0003 C   0  0  0  0  0  0  0  0  0  0  0  0
   -3.8401    0.8054   -1.0393 C   0  0  0  0  0  0  0  0  0  0  0  0
   -5.2205    1.2143   -1.4443 C   0  0  0  0  0  0  0  0  0  0  0  0
   -5.8926    0.8341   -2.5897 C   0  0  0  0  0  0  0  0  0  0  0  0
   -7.1266    1.4276   -2.5802 N   0  0  0  0  0  0  0  0  0  0  0  0
   -7.2808    2.1900   -1.4463 C   0  0  0  0  0  0  0  0  0  0  0  0
   -8.3665    2.9638   -1.0185 C   0  0  0  0  0  0  0  0  0  0  0  0
   -8.2382    3.6443    0.1961 C   0  0  0  0  0  0  0  0  0  0  0  0
   -7.0704    3.5532    0.9498 C   0  0  0  0  0  0  0  0  0  0  0  0
   -5.9946    2.7753    0.5070 C   0  0  0  0  0  0  0  0  0  0  0  0
   -6.0988    2.0785   -0.7144 C   0  0  0  0  0  0  0  0  0  0  0  0
   -0.5007   -1.6330    1.8297 H   0  0  0  0  0  0  0  0  0  0  0  0
    0.1392   -0.6035    0.5294 H   0  0  0  0  0  0  0  0  0  0  0  0
   -0.1536    0.2795    3.4506 H   0  0  0  0  0  0  0  0  0  0  0  0
    0.5990    1.2125    2.1669 H   0  0  0  0  0  0  0  0  0  0  0  0
    2.2197    0.0902    3.7054 H   0  0  0  0  0  0  0  0  0  0  0  0
    1.6000   -1.4870    3.2282 H   0  0  0  0  0  0  0  0  0  0  0  0
    2.9083    0.5377    1.3286 H   0  0  0  0  0  0  0  0  0  0  0  0
    2.3430   -1.0635    0.8687 H   0  0  0  0  0  0  0  0  0  0  0  0
    3.9503   -2.1070    2.4912 H   0  0  0  0  0  0  0  0  0  0  0  0
    4.5330   -0.5050    2.9404 H   0  0  0  0  0  0  0  0  0  0  0  0
    7.3138    0.7368   -0.3676 H   0  0  0  0  0  0  0  0  0  0  0  0
    8.3780   -0.2684   -2.3305 H   0  0  0  0  0  0  0  0  0  0  0  0
    8.4900   -2.1758   -3.8995 H   0  0  0  0  0  0  0  0  0  0  0  0
    6.9809   -4.1254   -3.6094 H   0  0  0  0  0  0  0  0  0  0  0  0
    5.3503   -4.1673   -1.7389 H   0  0  0  0  0  0  0  0  0  0  0  0
   -2.0928   -1.5184   -0.1001 H   0  0  0  0  0  0  0  0  0  0  0  0
   -4.3605   -1.2044   -0.3950 H   0  0  0  0  0  0  0  0  0  0  0  0
   -4.3857   -0.0039    0.9042 H   0  0  0  0  0  0  0  0  0  0  0  0
   -3.2784    0.4777   -1.9238 H   0  0  0  0  0  0  0  0  0  0  0  0
   -3.3025    1.6786   -0.6494 H   0  0  0  0  0  0  0  0  0  0  0  0
   -5.5968    0.1955   -3.4112 H   0  0  0  0  0  0  0  0  0  0  0  0
   -7.8284    1.3261   -3.2997 H   0  0  0  0  0  0  0  0  0  0  0  0
   -9.2772    3.0381   -1.6033 H   0  0  0  0  0  0  0  0  0  0  0  0
   -9.0627    4.2546    0.5571 H   0  0  0  0  0  0  0  0  0  0  0  0
   -6.9893    4.0904    1.8913 H   0  0  0  0  0  0  0  0  0  0  0  0
   -5.0873    2.7110    1.1028 H   0  0  0  0  0  0  0  0  0  0  0  0
  1  2  2  0
  2  3  1  0
  3  4  1  0
  4  5  1  0
  5  6  1  0
  6  7  1  0
  7  8  1  0
  8  9  1  0
  9 10  2  0
  9 11  1  0
 11 12  1  0
 12 13  2  0
 13 14  1  0
 14 15  2  0
 15 16  1  0
 16 17  2  0
 17 18  1  0
 18 19  2  0
  2 20  1  0
 20 21  1  0
 21 22  1  0
 22 23  1  0
 23 24  2  0
 24 25  1  0
 25 26  1  0
 26 27  2  0
 27 28  1  0
 28 29  2  0
 29 30  1  0
 30 31  2  0
 18  8  1  0
 31 23  1  0
 17 12  1  0
 31 26  1  0
  3 32  1  0
  3 33  1  0
  4 34  1  0
  4 35  1  0
  5 36  1  0
  5 37  1  0
  6 38  1  0
  6 39  1  0
  7 40  1  0
  7 41  1  0
 11 42  1  0
 13 43  1  0
 14 44  1  0
 15 45  1  0
 16 46  1  0
 20 47  1  0
 21 48  1  0
 21 49  1  0
 22 50  1  0
 22 51  1  0
 24 52  1  0
 25 53  1  0
 27 54  1  0
 28 55  1  0
 29 56  1  0
 30 57  1  0
M  END
$$$$
