
     RDKit          3D

 30 31  0  0  0  0  0  0  0  0999 V2000
   -2.0503   -3.5728    1.1928 C   0  0  0  0  0  0  0  0  0  0  0  0
   -2.7374   -2.4394    0.6783 O   0  0  0  0  0  0  0  0  0  0  0  0
   -2.0999   -1.2308    0.7532 C   0  0  0  0  0  0  0  0  0  0  0  0
   -0.8097   -1.0236    1.2441 C   0  0  0  0  0  0  0  0  0  0  0  0
   -0.2727    0.2729    1.2538 C   0  0  0  0  0  0  0  0  0  0  0  0
    1.3724    0.5218    1.8923 S   0  0  0  0  0  6  0  0  0  0  0  0
    1.5458    1.9382    2.1375 O   0  0  0  0  0  0  0  0  0  0  0  0
    1.5656   -0.4464    2.9516 O   0  0  0  0  0  0  0  0  0  0  0  0
    2.3686    0.0538    0.6218 N   0  0  0  0  0  0  0  0  0  0  0  0
    2.1382    0.6732   -0.6187 C   0  0  0  0  0  0  0  0  0  0  0  0
    2.3903    2.0130   -0.8550 C   0  0  0  0  0  0  0  0  0  0  0  0
    2.0786    2.5182   -2.1127 C   0  0  0  0  0  0  0  0  0  0  0  0
    1.5328    1.6692   -3.0706 C   0  0  0  0  0  0  0  0  0  0  0  0
    1.3233    0.3414   -2.7295 C   0  0  0  0  0  0  0  0  0  0  0  0
    1.6157   -0.1788   -1.5171 N   0  0  0  0  0  0  0  0  0  0  0  0
   -1.0175    1.3697    0.8074 C   0  0  0  0  0  0  0  0  0  0  0  0
   -2.3034    1.1611    0.3160 C   0  0  0  0  0  0  0  0  0  0  0  0
   -2.8305   -0.1292    0.2885 C   0  0  0  0  0  0  0  0  0  0  0  0
   -4.0715   -0.2996   -0.1926 F   0  0  0  0  0  0  0  0  0  0  0  0
   -1.1345   -3.7686    0.6255 H   0  0  0  0  0  0  0  0  0  0  0  0
   -1.8372   -3.4549    2.2604 H   0  0  0  0  0  0  0  0  0  0  0  0
   -2.7053   -4.4418    1.0778 H   0  0  0  0  0  0  0  0  0  0  0  0
   -0.2071   -1.8446    1.6191 H   0  0  0  0  0  0  0  0  0  0  0  0
    2.3965   -0.9585    0.5239 H   0  0  0  0  0  0  0  0  0  0  0  0
    2.8192    2.6495   -0.0889 H   0  0  0  0  0  0  0  0  0  0  0  0
    2.2607    3.5643   -2.3432 H   0  0  0  0  0  0  0  0  0  0  0  0
    1.2790    2.0327   -4.0607 H   0  0  0  0  0  0  0  0  0  0  0  0
    0.9003   -0.3583   -3.4454 H   0  0  0  0  0  0  0  0  0  0  0  0
   -0.6062    2.3762    0.8345 H   0  0  0  0  0  0  0  0  0  0  0  0
   -2.9037    1.9909   -0.0441 H   0  0  0  0  0  0  0  0  0  0  0  0
  1  2  1  0
  2  3  1  0
  3  4  2  0
  4  5  1  0
  5  6  1  0
  6  7  2  0
  6  8  2  0
  6  9  1  0
  9 10  1  0
 10 11  2  0
 11 12  1  0
 12 13  2  0
 13 14  1  0
 14 15  2  0
  5 16  2  0
 16 17  1  0
 17 18  2  0
 18 19  1  0
 18  3  1  0
 15 10  1  0
  1 20  1  0
  1 21  1  0
  1 22  1  0
  4 23  1  0
  9 24  1  0
 11 25  1  0
 12 26  1  0
 13 27  1  0
 14 28  1  0
 16 29  1  0
 17 30  1  0
M  END
$$$$
