
     RDKit          3D

 67 71  0  0  0  0  0  0  0  0999 V2000
   -7.9379    3.6479    0.7713 C   0  0  0  0  0  0  0  0  0  0  0  0
   -6.6066    4.1265    0.8962 O   0  0  0  0  0  0  0  0  0  0  0  0
   -5.5847    3.2709    0.5578 C   0  0  0  0  0  0  0  0  0  0  0  0
   -5.7793    1.9660    0.0887 C   0  0  0  0  0  0  0  0  0  0  0  0
   -4.6576    1.1729   -0.2309 C   0  0  0  0  0  0  0  0  0  0  0  0
   -4.6799   -0.4433   -0.8169 S   0  0  0  0  0  0  0  0  0  0  0  0
   -2.9748   -0.5329   -0.8895 C   0  0  0  0  0  0  0  0  0  0  0  0
   -2.3617   -1.7770   -1.3745 C   0  0  0  0  0  0  0  0  0  0  0  0
   -1.9317   -1.8381   -2.7103 C   0  0  0  0  0  0  0  0  0  0  0  0
   -1.3386   -2.9951   -3.2117 C   0  0  0  0  0  0  0  0  0  0  0  0
   -1.1674   -4.0991   -2.3820 C   0  0  0  0  0  0  0  0  0  0  0  0
   -1.5850   -4.0503   -1.0487 C   0  0  0  0  0  0  0  0  0  0  0  0
   -2.1834   -2.8947   -0.5327 C   0  0  0  0  0  0  0  0  0  0  0  0
   -2.5983   -2.7538    0.7682 O   0  0  0  0  0  0  0  0  0  0  0  0
   -2.5898   -3.9140    1.5884 C   0  0  0  0  0  0  0  0  0  0  0  0
   -2.3827    0.6529   -0.4879 C   0  0  0  0  0  0  0  0  0  0  0  0
   -0.9340    0.8230   -0.4865 C   0  0  0  0  0  0  0  0  0  0  0  0
   -0.3304    1.6883   -1.4023 C   0  0  0  0  0  0  0  0  0  0  0  0
    1.0566    1.8542   -1.3949 C   0  0  0  0  0  0  0  0  0  0  0  0
    1.8552    1.1649   -0.4773 C   0  0  0  0  0  0  0  0  0  0  0  0
    3.1931    1.4195   -0.5921 O   0  0  0  0  0  0  0  0  0  0  0  0
    4.0919    0.8091    0.3386 C   0  0  0  0  0  0  0  0  0  0  0  0
    4.5292   -0.5817   -0.1552 C   0  0  0  0  0  0  0  0  0  0  0  0
    5.3961   -1.3078    0.7898 N   0  0  0  0  0  0  0  0  0  0  0  0
    6.6719   -0.5959    1.0315 C   0  0  0  0  0  0  0  0  0  0  0  0
    7.7876   -1.5495    1.4865 C   0  0  0  0  0  0  0  0  0  0  0  0
    8.1247   -2.5192    0.4850 O   0  0  0  0  0  0  0  0  0  0  0  0
    7.0163   -2.8674   -0.3559 C   0  0  0  0  0  0  0  0  0  0  0  0
    5.6551   -2.6935    0.3358 C   0  0  0  0  0  0  0  0  0  0  0  0
    1.2508    0.3016    0.4367 C   0  0  0  0  0  0  0  0  0  0  0  0
   -0.1390    0.1341    0.4347 C   0  0  0  0  0  0  0  0  0  0  0  0
   -3.3554    1.6503   -0.0966 C   0  0  0  0  0  0  0  0  0  0  0  0
   -3.1828    2.9755    0.3854 C   0  0  0  0  0  0  0  0  0  0  0  0
   -4.2855    3.7782    0.7083 C   0  0  0  0  0  0  0  0  0  0  0  0
   -4.1907    5.0669    1.1755 O   0  0  0  0  0  0  0  0  0  0  0  0
   -2.8906    5.6072    1.3636 C   0  0  0  0  0  0  0  0  0  0  0  0
   -8.6123    4.4498    1.0871 H   0  0  0  0  0  0  0  0  0  0  0  0
   -8.1745    3.4062   -0.2701 H   0  0  0  0  0  0  0  0  0  0  0  0
   -8.1130    2.7895    1.4282 H   0  0  0  0  0  0  0  0  0  0  0  0
   -6.7684    1.5417   -0.0373 H   0  0  0  0  0  0  0  0  0  0  0  0
   -2.0595   -0.9779   -3.3639 H   0  0  0  0  0  0  0  0  0  0  0  0
   -1.0096   -3.0329   -4.2469 H   0  0  0  0  0  0  0  0  0  0  0  0
   -0.7030   -5.0017   -2.7715 H   0  0  0  0  0  0  0  0  0  0  0  0
   -1.4207   -4.9307   -0.4364 H   0  0  0  0  0  0  0  0  0  0  0  0
   -3.0288   -3.6435    2.5534 H   0  0  0  0  0  0  0  0  0  0  0  0
   -3.2027   -4.7121    1.1560 H   0  0  0  0  0  0  0  0  0  0  0  0
   -1.5663   -4.2553    1.7737 H   0  0  0  0  0  0  0  0  0  0  0  0
   -0.9303    2.2321   -2.1279 H   0  0  0  0  0  0  0  0  0  0  0  0
    1.5200    2.5265   -2.1130 H   0  0  0  0  0  0  0  0  0  0  0  0
    4.9662    1.4686    0.3818 H   0  0  0  0  0  0  0  0  0  0  0  0
    3.6840    0.7898    1.3559 H   0  0  0  0  0  0  0  0  0  0  0  0
    5.0124   -0.4812   -1.1363 H   0  0  0  0  0  0  0  0  0  0  0  0
    3.6250   -1.1759   -0.3352 H   0  0  0  0  0  0  0  0  0  0  0  0
    7.0094   -0.0961    0.1141 H   0  0  0  0  0  0  0  0  0  0  0  0
    6.5156    0.1701    1.7986 H   0  0  0  0  0  0  0  0  0  0  0  0
    7.5004   -2.0824    2.4005 H   0  0  0  0  0  0  0  0  0  0  0  0
    8.6971   -0.9839    1.7132 H   0  0  0  0  0  0  0  0  0  0  0  0
    7.1525   -3.9103   -0.6597 H   0  0  0  0  0  0  0  0  0  0  0  0
    7.0714   -2.2548   -1.2633 H   0  0  0  0  0  0  0  0  0  0  0  0
    5.6419   -3.3276    1.2317 H   0  0  0  0  0  0  0  0  0  0  0  0
    4.8523   -3.0658   -0.3118 H   0  0  0  0  0  0  0  0  0  0  0  0
    1.8240   -0.2657    1.1622 H   0  0  0  0  0  0  0  0  0  0  0  0
   -0.5963   -0.5422    1.1546 H   0  0  0  0  0  0  0  0  0  0  0  0
   -2.1681    3.3406    0.4973 H   0  0  0  0  0  0  0  0  0  0  0  0
   -2.3280    5.0348    2.1083 H   0  0  0  0  0  0  0  0  0  0  0  0
   -2.3472    5.6676    0.4149 H   0  0  0  0  0  0  0  0  0  0  0  0
   -3.0041    6.6263    1.7458 H   0  0  0  0  0  0  0  0  0  0  0  0
  1  2  1  0
  2  3  1  0
  3  4  2  0
  4  5  1  0
  5  6  1  0
  6  7  1  0
  7  8  1  0
  8  9  2  0
  9 10  1  0
 10 11  2  0
 11 12  1  0
 12 13  2  0
 13 14  1  0
 14 15  1  0
  7 16  2  0
 16 17  1  0
 17 18  2  0
 18 19  1  0
 19 20  2  0
 20 21  1  0
 21 22  1  0
 22 23  1  0
 23 24  1  0
 24 25  1  0
 25 26  1  0
 26 27  1  0
 27 28  1  0
 28 29  1  0
 20 30  1  0
 30 31  2  0
 16 32  1  0
 32 33  1  0
 33 34  2  0
 34 35  1  0
 35 36  1  0
 34  3  1  0
 32  5  2  0
 13  8  1  0
 31 17  1  0
 29 24  1  0
  1 37  1  0
  1 38  1  0
  1 39  1  0
  4 40  1  0
  9 41  1  0
 10 42  1  0
 11 43  1  0
 12 44  1  0
 15 45  1  0
 15 46  1  0
 15 47  1  0
 18 48  1  0
 19 49  1  0
 22 50  1  0
 22 51  1  0
 23 52  1  0
 23 53  1  0
 25 54  1  0
 25 55  1  0
 26 56  1  0
 26 57  1  0
 28 58  1  0
 28 59  1  0
 29 60  1  0
 29 61  1  0
 30 62  1  0
 31 63  1  0
 33 64  1  0
 36 65  1  0
 36 66  1  0
 36 67  1  0
M  END
$$$$
