
     RDKit          3D

 55 57  0  0  0  0  0  0  0  0999 V2000
    3.3761   -0.3130   -0.2067 O   0  0  0  0  0  0  0  0  0  0  0  0
    2.3165    0.2634    0.0019 C   0  0  0  0  0  0  0  0  0  0  0  0
    2.1247    1.4655    0.6531 N   0  0  0  0  0  0  0  0  0  0  0  0
    3.0925    2.3135    1.2201 C   0  0  0  0  0  0  0  0  0  0  0  0
    2.6329    3.4895    1.8276 C   0  0  0  0  0  0  0  0  0  0  0  0
    3.5304    4.3864    2.4127 C   0  0  0  0  0  0  0  0  0  0  0  0
    4.8958    4.1150    2.3951 C   0  0  0  0  0  0  0  0  0  0  0  0
    5.3609    2.9479    1.7931 C   0  0  0  0  0  0  0  0  0  0  0  0
    4.4627    2.0499    1.2072 C   0  0  0  0  0  0  0  0  0  0  0  0
    1.0005   -0.3087   -0.4691 C   0  0  0  0  0  0  0  0  0  0  0  0
    0.9778   -1.5081   -1.0735 C   0  0  0  0  0  0  0  0  0  0  0  0
   -0.3028   -2.1654   -1.5097 C   0  0  0  0  0  0  0  0  0  0  0  0
   -0.3610   -3.6418   -1.1519 C   0  0  0  0  0  0  0  0  0  0  0  0
   -0.1713   -4.0838    0.1669 C   0  0  0  0  0  0  0  0  0  0  0  0
   -0.2364   -5.4437    0.4813 C   0  0  0  0  0  0  0  0  0  0  0  0
   -0.4890   -6.3947   -0.5165 C   0  0  0  0  0  0  0  0  0  0  0  0
   -0.5810   -7.8627   -0.1823 C   0  0  0  0  0  0  0  0  0  0  0  0
   -0.0235   -8.6598   -1.1371 F   0  0  0  0  0  0  0  0  0  0  0  0
    0.0400   -8.1935    0.9846 F   0  0  0  0  0  0  0  0  0  0  0  0
   -1.8696   -8.2840   -0.0519 F   0  0  0  0  0  0  0  0  0  0  0  0
   -0.6893   -5.9545   -1.8326 C   0  0  0  0  0  0  0  0  0  0  0  0
   -0.6241   -4.5943   -2.1468 C   0  0  0  0  0  0  0  0  0  0  0  0
   -1.5208   -1.4164   -0.9575 C   0  0  0  0  0  0  0  0  0  0  0  0
   -1.2665    0.0837   -1.0387 C   0  0  0  0  0  0  0  0  0  0  0  0
   -2.4364    0.7494   -0.5523 O   0  0  0  0  0  0  0  0  0  0  0  0
   -2.3751    2.1604   -0.7656 C   0  0  0  0  0  0  0  0  0  0  0  0
   -3.5208    2.8082    0.0022 C   0  0  0  0  0  0  0  0  0  0  0  0
   -3.6282    4.3209   -0.2039 C   0  0  0  0  0  0  0  0  0  0  0  0
   -2.3547    5.1013    0.1074 C   0  0  0  0  0  0  0  0  0  0  0  0
   -1.8381    4.7524    1.3827 O   0  0  0  0  0  0  0  0  0  0  0  0
   -0.1338    0.4498   -0.2435 O   0  0  0  0  0  0  0  0  0  0  0  0
    1.1571    1.7624    0.7323 H   0  0  0  0  0  0  0  0  0  0  0  0
    1.5711    3.7245    1.8536 H   0  0  0  0  0  0  0  0  0  0  0  0
    3.1615    5.2951    2.8809 H   0  0  0  0  0  0  0  0  0  0  0  0
    5.5968    4.8100    2.8494 H   0  0  0  0  0  0  0  0  0  0  0  0
    6.4259    2.7304    1.7770 H   0  0  0  0  0  0  0  0  0  0  0  0
    4.8656    1.1522    0.7491 H   0  0  0  0  0  0  0  0  0  0  0  0
    1.9066   -2.0504   -1.2444 H   0  0  0  0  0  0  0  0  0  0  0  0
   -0.3227   -2.0784   -2.6055 H   0  0  0  0  0  0  0  0  0  0  0  0
    0.0311   -3.3697    0.9637 H   0  0  0  0  0  0  0  0  0  0  0  0
   -0.0854   -5.7572    1.5136 H   0  0  0  0  0  0  0  0  0  0  0  0
   -0.8958   -6.6745   -2.6235 H   0  0  0  0  0  0  0  0  0  0  0  0
   -0.7812   -4.2863   -3.1788 H   0  0  0  0  0  0  0  0  0  0  0  0
   -1.7134   -1.6881    0.0897 H   0  0  0  0  0  0  0  0  0  0  0  0
   -2.4289   -1.6882   -1.5100 H   0  0  0  0  0  0  0  0  0  0  0  0
   -1.0950    0.3864   -2.0813 H   0  0  0  0  0  0  0  0  0  0  0  0
   -1.4162    2.5512   -0.4105 H   0  0  0  0  0  0  0  0  0  0  0  0
   -2.4682    2.3636   -1.8382 H   0  0  0  0  0  0  0  0  0  0  0  0
   -4.4673    2.3385   -0.2940 H   0  0  0  0  0  0  0  0  0  0  0  0
   -3.4093    2.5818    1.0703 H   0  0  0  0  0  0  0  0  0  0  0  0
   -3.9350    4.5338   -1.2346 H   0  0  0  0  0  0  0  0  0  0  0  0
   -4.4317    4.6853    0.4484 H   0  0  0  0  0  0  0  0  0  0  0  0
   -1.5803    4.9003   -0.6392 H   0  0  0  0  0  0  0  0  0  0  0  0
   -2.5525    6.1781    0.0930 H   0  0  0  0  0  0  0  0  0  0  0  0
   -2.5208    4.9663    2.0428 H   0  0  0  0  0  0  0  0  0  0  0  0
  1  2  2  0
  2  3  1  0
  3  4  1  0
  4  5  2  0
  5  6  1  0
  6  7  2  0
  7  8  1  0
  8  9  2  0
  2 10  1  0
 10 11  2  0
 11 12  1  0
 12 13  1  0
 13 14  2  0
 14 15  1  0
 15 16  2  0
 16 17  1  0
 17 18  1  0
 17 19  1  0
 17 20  1  0
 16 21  1  0
 21 22  2  0
 12 23  1  0
 23 24  1  0
 24 25  1  0
 25 26  1  0
 26 27  1  0
 27 28  1  0
 28 29  1  0
 29 30  1  0
 24 31  1  0
  9  4  1  0
 31 10  1  0
 22 13  1  0
  3 32  1  0
  5 33  1  0
  6 34  1  0
  7 35  1  0
  8 36  1  0
  9 37  1  0
 11 38  1  0
 12 39  1  0
 14 40  1  0
 15 41  1  0
 21 42  1  0
 22 43  1  0
 23 44  1  0
 23 45  1  0
 24 46  1  0
 26 47  1  0
 26 48  1  0
 27 49  1  0
 27 50  1  0
 28 51  1  0
 28 52  1  0
 29 53  1  0
 29 54  1  0
 30 55  1  0
M  END
$$$$
