
     RDKit          3D

 43 46  0  0  0  0  0  0  0  0999 V2000
   -3.2441   -3.2523   -0.0685 C   0  0  0  0  0  0  0  0  0  0  0  0
   -3.7604   -2.3119    1.0044 C   0  0  0  0  0  0  0  0  0  0  0  0
   -3.8096   -0.9689    0.5049 O   0  0  0  0  0  0  0  0  0  0  0  0
   -2.6528   -0.2560    0.6007 C   0  0  0  0  0  0  0  0  0  0  0  0
   -1.6123   -0.6746    1.0930 O   0  0  0  0  0  0  0  0  0  0  0  0
   -2.8384    1.0714    0.0402 C   0  0  0  0  0  0  0  0  0  0  0  0
   -4.0026    1.6302   -0.4752 C   0  0  0  0  0  0  0  0  0  0  0  0
   -3.6687    2.9382   -0.9175 C   0  0  0  0  0  0  0  0  0  0  0  0
   -4.4322    4.3051   -1.6565 S   0  0  0  0  0  0  0  0  0  0  0  0
   -2.9321    5.1452   -1.6410 C   0  0  0  0  0  0  0  0  0  0  0  0
   -1.8885    4.4293   -1.0938 C   0  0  0  0  0  0  0  0  0  0  0  0
   -2.3450    3.1478   -0.6751 C   0  0  0  0  0  0  0  0  0  0  0  0
   -1.8302    2.0142   -0.0816 N   0  0  0  0  0  0  0  0  0  0  0  0
   -0.4438    1.8894    0.3490 C   0  0  0  0  0  0  0  0  0  0  0  0
    0.3847    1.0265   -0.5822 C   0  0  0  0  0  0  0  0  0  0  0  0
    0.1105    0.8764   -1.7724 O   0  0  0  0  0  0  0  0  0  0  0  0
    1.6083    0.3646   -0.0392 C   0  0  0  0  0  0  0  0  0  0  0  0
    2.2018    0.7617    1.1673 C   0  0  0  0  0  0  0  0  0  0  0  0
    3.3479    0.1097    1.6333 C   0  0  0  0  0  0  0  0  0  0  0  0
    3.9037   -0.9352    0.8988 C   0  0  0  0  0  0  0  0  0  0  0  0
    3.3357   -1.3119   -0.3211 C   0  0  0  0  0  0  0  0  0  0  0  0
    2.1860   -0.6740   -0.7835 C   0  0  0  0  0  0  0  0  0  0  0  0
    3.8503   -2.3065   -1.1126 O   0  0  0  0  0  0  0  0  0  0  0  0
    5.1864   -2.6461   -0.7246 C   0  0  0  0  0  0  0  0  0  0  0  0
    5.2861   -2.7891    0.7851 C   0  0  0  0  0  0  0  0  0  0  0  0
    5.0134   -1.5394    1.4306 O   0  0  0  0  0  0  0  0  0  0  0  0
   -3.2600   -4.2878    0.2831 H   0  0  0  0  0  0  0  0  0  0  0  0
   -2.2192   -2.9969   -0.3559 H   0  0  0  0  0  0  0  0  0  0  0  0
   -3.8566   -3.1766   -0.9730 H   0  0  0  0  0  0  0  0  0  0  0  0
   -4.7843   -2.5901    1.2747 H   0  0  0  0  0  0  0  0  0  0  0  0
   -3.1588   -2.3758    1.9184 H   0  0  0  0  0  0  0  0  0  0  0  0
   -4.9733    1.1556   -0.5336 H   0  0  0  0  0  0  0  0  0  0  0  0
   -2.8941    6.1462   -2.0487 H   0  0  0  0  0  0  0  0  0  0  0  0
   -0.8765    4.8027   -1.0112 H   0  0  0  0  0  0  0  0  0  0  0  0
   -0.0011    2.8898    0.3881 H   0  0  0  0  0  0  0  0  0  0  0  0
   -0.4682    1.4872    1.3655 H   0  0  0  0  0  0  0  0  0  0  0  0
    1.8012    1.5754    1.7643 H   0  0  0  0  0  0  0  0  0  0  0  0
    3.8030    0.4100    2.5739 H   0  0  0  0  0  0  0  0  0  0  0  0
    1.7460   -0.9860   -1.7287 H   0  0  0  0  0  0  0  0  0  0  0  0
    5.4433   -3.5916   -1.2124 H   0  0  0  0  0  0  0  0  0  0  0  0
    5.8661   -1.8714   -1.1005 H   0  0  0  0  0  0  0  0  0  0  0  0
    6.2973   -3.0958    1.0704 H   0  0  0  0  0  0  0  0  0  0  0  0
    4.5811   -3.5389    1.1652 H   0  0  0  0  0  0  0  0  0  0  0  0
  1  2  1  0
  2  3  1  0
  3  4  1  0
  4  5  2  0
  4  6  1  0
  6  7  2  0
  7  8  1  0
  8  9  1  0
  9 10  1  0
 10 11  2  0
 11 12  1  0
 12 13  1  0
 13 14  1  0
 14 15  1  0
 15 16  2  0
 15 17  1  0
 17 18  2  0
 18 19  1  0
 19 20  2  0
 20 21  1  0
 21 22  2  0
 21 23  1  0
 23 24  1  0
 24 25  1  0
 25 26  1  0
 13  6  1  0
 22 17  1  0
 12  8  2  0
 26 20  1  0
  1 27  1  0
  1 28  1  0
  1 29  1  0
  2 30  1  0
  2 31  1  0
  7 32  1  0
 10 33  1  0
 11 34  1  0
 14 35  1  0
 14 36  1  0
 18 37  1  0
 19 38  1  0
 22 39  1  0
 24 40  1  0
 24 41  1  0
 25 42  1  0
 25 43  1  0
M  END
$$$$
