
     RDKit          3D

 41 42  0  0  0  0  0  0  0  0999 V2000
   -4.4434    0.4513    2.2752 C   0  0  0  0  0  0  0  0  0  0  0  0
   -3.5153   -0.3035    1.3346 C   0  0  0  0  0  0  0  0  0  0  0  0
   -2.4057    0.5228    0.8073 N   0  0  0  0  0  0  0  0  0  0  0  0
   -2.7904    1.8318    0.2257 C   0  0  0  0  0  0  0  0  0  0  0  0
   -3.4958    1.6603   -1.1122 C   0  0  0  0  0  0  0  0  0  0  0  0
   -1.1894   -0.0738    0.4012 C   0  0  0  0  0  0  0  0  0  0  0  0
   -0.0195    0.5992    0.4267 C   0  0  0  0  0  0  0  0  0  0  0  0
    1.2494    0.0727   -0.0504 C   0  0  0  0  0  0  0  0  0  0  0  0
    2.3978    0.7472    0.1492 C   0  0  0  0  0  0  0  0  0  0  0  0
    3.7083    0.2865   -0.3246 C   0  0  0  0  0  0  0  0  0  0  0  0
    4.8722    0.9048    0.0019 C   0  0  0  0  0  0  0  0  0  0  0  0
    6.1253    0.4461   -0.5016 C   0  0  0  0  0  0  0  0  0  0  0  0
    7.1379    0.0631   -0.9201 N   0  0  0  0  0  0  0  0  0  0  0  0
    4.9162    2.0495    0.8520 C   0  0  0  0  0  0  0  0  0  0  0  0
    4.9422    2.9831    1.5413 N   0  0  0  0  0  0  0  0  0  0  0  0
    3.6548   -0.9387   -1.2298 C   0  0  0  0  0  0  0  0  0  0  0  0
    2.5778   -1.9304   -0.7929 C   0  0  0  0  0  0  0  0  0  0  0  0
    1.2011   -1.2560   -0.7717 C   0  0  0  0  0  0  0  0  0  0  0  0
    0.1625   -2.1793   -0.1326 C   0  0  0  0  0  0  0  0  0  0  0  0
   -1.2161   -1.5149   -0.0933 C   0  0  0  0  0  0  0  0  0  0  0  0
   -5.1226   -0.2489    2.7727 H   0  0  0  0  0  0  0  0  0  0  0  0
   -3.8787    0.9855    3.0462 H   0  0  0  0  0  0  0  0  0  0  0  0
   -5.0644    1.1738    1.7369 H   0  0  0  0  0  0  0  0  0  0  0  0
   -4.0868   -0.7412    0.5085 H   0  0  0  0  0  0  0  0  0  0  0  0
   -3.0986   -1.1305    1.9217 H   0  0  0  0  0  0  0  0  0  0  0  0
   -3.4271    2.3929    0.9166 H   0  0  0  0  0  0  0  0  0  0  0  0
   -1.9105    2.4675    0.0767 H   0  0  0  0  0  0  0  0  0  0  0  0
   -3.7306    2.6390   -1.5425 H   0  0  0  0  0  0  0  0  0  0  0  0
   -2.8671    1.1175   -1.8254 H   0  0  0  0  0  0  0  0  0  0  0  0
   -4.4345    1.1088   -1.0024 H   0  0  0  0  0  0  0  0  0  0  0  0
   -0.0053    1.6059    0.8372 H   0  0  0  0  0  0  0  0  0  0  0  0
    2.3526    1.6885    0.6963 H   0  0  0  0  0  0  0  0  0  0  0  0
    4.6095   -1.4750   -1.2510 H   0  0  0  0  0  0  0  0  0  0  0  0
    3.4515   -0.6076   -2.2568 H   0  0  0  0  0  0  0  0  0  0  0  0
    2.8283   -2.3279    0.2000 H   0  0  0  0  0  0  0  0  0  0  0  0
    2.5623   -2.7840   -1.4813 H   0  0  0  0  0  0  0  0  0  0  0  0
    0.8974   -1.0595   -1.8103 H   0  0  0  0  0  0  0  0  0  0  0  0
    0.4662   -2.4389    0.8909 H   0  0  0  0  0  0  0  0  0  0  0  0
    0.0954   -3.1215   -0.6898 H   0  0  0  0  0  0  0  0  0  0  0  0
   -1.8544   -2.1460    0.5316 H   0  0  0  0  0  0  0  0  0  0  0  0
   -1.6527   -1.5202   -1.1003 H   0  0  0  0  0  0  0  0  0  0  0  0
  1  2  1  0
  2  3  1  0
  3  4  1  0
  4  5  1  0
  3  6  1  0
  6  7  2  0
  7  8  1  0
  8  9  2  0
  9 10  1  0
 10 11  2  3
 11 12  1  0
 12 13  3  0
 11 14  1  0
 14 15  3  0
 10 16  1  0
 16 17  1  0
 17 18  1  0
 18 19  1  0
 19 20  1  0
 20  6  1  0
 18  8  1  0
  1 21  1  0
  1 22  1  0
  1 23  1  0
  2 24  1  0
  2 25  1  0
  4 26  1  0
  4 27  1  0
  5 28  1  0
  5 29  1  0
  5 30  1  0
  7 31  1  0
  9 32  1  0
 16 33  1  0
 16 34  1  0
 17 35  1  0
 17 36  1  0
 18 37  1  0
 19 38  1  0
 19 39  1  0
 20 40  1  0
 20 41  1  0
M  END
$$$$
