
     RDKit          3D

 57 61  0  0  0  0  0  0  0  0999 V2000
   -7.6392    0.8668    4.0194 C   0  0  0  0  0  0  0  0  0  0  0  0
   -6.6463    0.7421    2.9025 C   0  0  0  0  0  0  0  0  0  0  0  0
   -5.2927    0.5301    3.1743 C   0  0  0  0  0  0  0  0  0  0  0  0
   -4.3700    0.3875    2.1298 C   0  0  0  0  0  0  0  0  0  0  0  0
   -4.7704    0.4460    0.7829 C   0  0  0  0  0  0  0  0  0  0  0  0
   -3.8124    0.3060   -0.3364 C   0  0  0  0  0  0  0  0  0  0  0  0
   -2.4831    0.6795   -0.2487 C   0  0  0  0  0  0  0  0  0  0  0  0
   -1.6617    0.4968   -1.3632 C   0  0  0  0  0  0  0  0  0  0  0  0
   -0.2336    0.8487   -1.1819 C   0  0  0  0  0  0  0  0  0  0  0  0
    0.0364    1.9785   -0.8002 O   0  0  0  0  0  0  0  0  0  0  0  0
    0.6364   -0.1993   -1.4110 N   0  0  0  0  0  0  0  0  0  0  0  0
    2.0422   -0.1834   -1.3079 C   0  0  0  0  0  0  0  0  0  0  0  0
    2.7125   -1.3926   -1.5435 C   0  0  0  0  0  0  0  0  0  0  0  0
    4.1051   -1.4675   -1.4497 C   0  0  0  0  0  0  0  0  0  0  0  0
    4.8331   -0.3252   -1.1131 C   0  0  0  0  0  0  0  0  0  0  0  0
    6.6028   -0.4220   -1.0036 S   0  0  0  0  0  6  0  0  0  0  0  0
    7.0325   -1.2438   -2.1190 O   0  0  0  0  0  0  0  0  0  0  0  0
    7.1507    0.9063   -0.8279 O   0  0  0  0  0  0  0  0  0  0  0  0
    6.8658   -1.3320    0.3611 N   0  0  0  0  0  0  0  0  0  0  0  0
    6.8028   -0.6737    1.5830 C   0  0  0  0  0  0  0  0  0  0  0  0
    7.6937   -1.1224    2.4727 N   0  0  0  0  0  0  0  0  0  0  0  0
    7.5770   -0.6113    3.7124 C   0  0  0  0  0  0  0  0  0  0  0  0
    6.5931    0.2786    4.0776 C   0  0  0  0  0  0  0  0  0  0  0  0
    5.7035    0.6181    3.0852 C   0  0  0  0  0  0  0  0  0  0  0  0
    5.7730    0.1358    1.8319 N   0  0  0  0  0  0  0  0  0  0  0  0
    4.1817    0.8896   -0.8984 C   0  0  0  0  0  0  0  0  0  0  0  0
    2.7873    0.9559   -0.9933 C   0  0  0  0  0  0  0  0  0  0  0  0
   -2.1741   -0.0072   -2.5773 C   0  0  0  0  0  0  0  0  0  0  0  0
   -1.4362   -0.1531   -3.7812 C   0  0  0  0  0  0  0  0  0  0  0  0
   -2.0295   -0.6745   -4.9289 C   0  0  0  0  0  0  0  0  0  0  0  0
   -3.3647   -1.0477   -4.8963 C   0  0  0  0  0  0  0  0  0  0  0  0
   -4.0999   -0.8833   -3.7204 C   0  0  0  0  0  0  0  0  0  0  0  0
   -3.5338   -0.3628   -2.5645 C   0  0  0  0  0  0  0  0  0  0  0  0
   -4.3168   -0.2194   -1.4820 N   0  0  0  0  0  0  0  0  0  0  0  0
   -6.1418    0.6344    0.5322 C   0  0  0  0  0  0  0  0  0  0  0  0
   -7.0672    0.7775    1.5725 C   0  0  0  0  0  0  0  0  0  0  0  0
   -8.4825    1.4987    3.7241 H   0  0  0  0  0  0  0  0  0  0  0  0
   -7.1805    1.3298    4.8999 H   0  0  0  0  0  0  0  0  0  0  0  0
   -8.0184   -0.1218    4.2961 H   0  0  0  0  0  0  0  0  0  0  0  0
   -4.9430    0.4726    4.2027 H   0  0  0  0  0  0  0  0  0  0  0  0
   -3.3300    0.2119    2.3937 H   0  0  0  0  0  0  0  0  0  0  0  0
   -2.0743    1.1142    0.6584 H   0  0  0  0  0  0  0  0  0  0  0  0
    0.2208   -1.0932   -1.6456 H   0  0  0  0  0  0  0  0  0  0  0  0
    2.1621   -2.2938   -1.8016 H   0  0  0  0  0  0  0  0  0  0  0  0
    4.6122   -2.4105   -1.6373 H   0  0  0  0  0  0  0  0  0  0  0  0
    7.6633   -1.9515    0.2859 H   0  0  0  0  0  0  0  0  0  0  0  0
    8.3195   -0.9532    4.4284 H   0  0  0  0  0  0  0  0  0  0  0  0
    6.5186    0.6764    5.0794 H   0  0  0  0  0  0  0  0  0  0  0  0
    4.8816    1.3023    3.2741 H   0  0  0  0  0  0  0  0  0  0  0  0
    4.7443    1.7853   -0.6422 H   0  0  0  0  0  0  0  0  0  0  0  0
    2.3143    1.9164   -0.8138 H   0  0  0  0  0  0  0  0  0  0  0  0
   -0.3952    0.1609   -3.8417 H   0  0  0  0  0  0  0  0  0  0  0  0
   -1.4537   -0.7775   -5.8454 H   0  0  0  0  0  0  0  0  0  0  0  0
   -3.8439   -1.4539   -5.7836 H   0  0  0  0  0  0  0  0  0  0  0  0
   -5.1511   -1.1644   -3.7073 H   0  0  0  0  0  0  0  0  0  0  0  0
   -6.5023    0.6747   -0.4948 H   0  0  0  0  0  0  0  0  0  0  0  0
   -8.1176    0.9195    1.3296 H   0  0  0  0  0  0  0  0  0  0  0  0
  1  2  1  0
  2  3  2  0
  3  4  1  0
  4  5  2  0
  5  6  1  0
  6  7  2  0
  7  8  1  0
  8  9  1  0
  9 10  2  0
  9 11  1  0
 11 12  1  0
 12 13  2  0
 13 14  1  0
 14 15  2  0
 15 16  1  0
 16 17  2  0
 16 18  2  0
 16 19  1  0
 19 20  1  0
 20 21  2  0
 21 22  1  0
 22 23  2  0
 23 24  1  0
 24 25  2  0
 15 26  1  0
 26 27  2  0
  8 28  2  0
 28 29  1  0
 29 30  2  0
 30 31  1  0
 31 32  2  0
 32 33  1  0
 33 34  2  0
  5 35  1  0
 35 36  2  0
 36  2  1  0
 34  6  1  0
 27 12  1  0
 33 28  1  0
 25 20  1  0
  1 37  1  0
  1 38  1  0
  1 39  1  0
  3 40  1  0
  4 41  1  0
  7 42  1  0
 11 43  1  0
 13 44  1  0
 14 45  1  0
 19 46  1  0
 22 47  1  0
 23 48  1  0
 24 49  1  0
 26 50  1  0
 27 51  1  0
 29 52  1  0
 30 53  1  0
 31 54  1  0
 32 55  1  0
 35 56  1  0
 36 57  1  0
M  END
$$$$
