
     RDKit          3D

 50 54  0  0  0  0  0  0  0  0999 V2000
    7.6365    1.7165    1.6872 F   0  0  0  0  0  0  0  0  0  0  0  0
    6.5613    1.1908    1.0853 C   0  0  0  0  0  0  0  0  0  0  0  0
    6.3293   -0.1768    1.1725 C   0  0  0  0  0  0  0  0  0  0  0  0
    5.2095   -0.7277    0.5469 C   0  0  0  0  0  0  0  0  0  0  0  0
    4.3197    0.0925   -0.1651 C   0  0  0  0  0  0  0  0  0  0  0  0
    3.1077   -0.5011   -0.8547 C   0  0  0  0  0  0  0  0  0  0  0  0
    1.8372    0.0816   -0.3949 N   0  0  0  0  0  0  0  0  0  0  0  0
    0.7285   -0.3640   -1.2681 C   0  0  0  0  0  0  0  0  0  0  0  0
   -0.6412    0.2021   -0.8268 C   0  0  0  0  0  0  0  0  0  0  0  0
   -0.9533   -0.1304    0.5789 N   0  0  0  0  0  0  0  0  0  0  0  0
   -1.5143   -1.4028    0.7350 C   0  0  0  0  0  0  0  0  0  0  0  0
   -0.7683   -2.3890    1.2941 N   0  0  0  0  0  0  0  0  0  0  0  0
   -1.2845   -3.6180    1.4214 C   0  0  0  0  0  0  0  0  0  0  0  0
   -2.4968   -4.0276    1.0586 N   0  0  0  0  0  0  0  0  0  0  0  0
   -3.2372   -3.0319    0.5460 C   0  0  0  0  0  0  0  0  0  0  0  0
   -4.8340   -3.3490    0.0477 S   0  0  0  0  0  0  0  0  0  0  0  0
   -5.0810   -1.7209   -0.3880 C   0  0  0  0  0  0  0  0  0  0  0  0
   -3.9595   -0.9387   -0.1769 C   0  0  0  0  0  0  0  0  0  0  0  0
   -4.0258    0.4925   -0.4571 C   0  0  0  0  0  0  0  0  0  0  0  0
   -4.3433    0.9507   -1.7435 C   0  0  0  0  0  0  0  0  0  0  0  0
   -4.4106    2.3204   -2.0072 C   0  0  0  0  0  0  0  0  0  0  0  0
   -4.1635    3.2397   -0.9888 C   0  0  0  0  0  0  0  0  0  0  0  0
   -3.8497    2.7919    0.2935 C   0  0  0  0  0  0  0  0  0  0  0  0
   -3.7833    1.4228    0.5599 C   0  0  0  0  0  0  0  0  0  0  0  0
   -2.8503   -1.7108    0.3596 C   0  0  0  0  0  0  0  0  0  0  0  0
    0.1593    0.1989    1.4927 C   0  0  0  0  0  0  0  0  0  0  0  0
    1.5323   -0.3191    1.0011 C   0  0  0  0  0  0  0  0  0  0  0  0
    4.5760    1.4722   -0.2424 C   0  0  0  0  0  0  0  0  0  0  0  0
    5.6955    2.0205    0.3840 C   0  0  0  0  0  0  0  0  0  0  0  0
    7.0203   -0.8038    1.7263 H   0  0  0  0  0  0  0  0  0  0  0  0
    5.0334   -1.7984    0.6207 H   0  0  0  0  0  0  0  0  0  0  0  0
    3.2382   -0.3062   -1.9279 H   0  0  0  0  0  0  0  0  0  0  0  0
    3.0995   -1.5935   -0.7417 H   0  0  0  0  0  0  0  0  0  0  0  0
    0.9161   -0.0225   -2.2935 H   0  0  0  0  0  0  0  0  0  0  0  0
    0.6785   -1.4607   -1.2941 H   0  0  0  0  0  0  0  0  0  0  0  0
   -0.6243    1.2954   -0.9222 H   0  0  0  0  0  0  0  0  0  0  0  0
   -1.4117   -0.1557   -1.5186 H   0  0  0  0  0  0  0  0  0  0  0  0
   -0.6368   -4.3655    1.8681 H   0  0  0  0  0  0  0  0  0  0  0  0
   -6.0468   -1.4105   -0.7650 H   0  0  0  0  0  0  0  0  0  0  0  0
   -4.5321    0.2467   -2.5505 H   0  0  0  0  0  0  0  0  0  0  0  0
   -4.6549    2.6701   -3.0069 H   0  0  0  0  0  0  0  0  0  0  0  0
   -4.2142    4.3060   -1.1939 H   0  0  0  0  0  0  0  0  0  0  0  0
   -3.6525    3.5072    1.0878 H   0  0  0  0  0  0  0  0  0  0  0  0
   -3.5292    1.0885    1.5634 H   0  0  0  0  0  0  0  0  0  0  0  0
   -0.0428   -0.1603    2.5099 H   0  0  0  0  0  0  0  0  0  0  0  0
    0.2092    1.2933    1.5676 H   0  0  0  0  0  0  0  0  0  0  0  0
    1.5757   -1.4106    1.0969 H   0  0  0  0  0  0  0  0  0  0  0  0
    2.2921    0.0887    1.6781 H   0  0  0  0  0  0  0  0  0  0  0  0
    3.8919    2.1209   -0.7862 H   0  0  0  0  0  0  0  0  0  0  0  0
    5.8945    3.0857    0.3308 H   0  0  0  0  0  0  0  0  0  0  0  0
  1  2  1  0
  2  3  2  0
  3  4  1  0
  4  5  2  0
  5  6  1  0
  6  7  1  0
  7  8  1  0
  8  9  1  0
  9 10  1  0
 10 11  1  0
 11 12  2  0
 12 13  1  0
 13 14  2  0
 14 15  1  0
 15 16  1  0
 16 17  1  0
 17 18  2  0
 18 19  1  0
 19 20  2  0
 20 21  1  0
 21 22  2  0
 22 23  1  0
 23 24  2  0
 18 25  1  0
 10 26  1  0
 26 27  1  0
  5 28  1  0
 28 29  2  0
 29  2  1  0
 27  7  1  0
 25 11  1  0
 25 15  2  0
 24 19  1  0
  3 30  1  0
  4 31  1  0
  6 32  1  0
  6 33  1  0
  8 34  1  0
  8 35  1  0
  9 36  1  0
  9 37  1  0
 13 38  1  0
 17 39  1  0
 20 40  1  0
 21 41  1  0
 22 42  1  0
 23 43  1  0
 24 44  1  0
 26 45  1  0
 26 46  1  0
 27 47  1  0
 27 48  1  0
 28 49  1  0
 29 50  1  0
M  END
$$$$
