
     RDKit          3D

 55 59  0  0  0  0  0  0  0  0999 V2000
   -7.0776   -1.3075    1.6317 C   0  0  0  0  0  0  0  0  0  0  0  0
   -6.0546   -0.5670    0.8234 C   0  0  0  0  0  0  0  0  0  0  0  0
   -4.8779   -1.2056    0.4166 C   0  0  0  0  0  0  0  0  0  0  0  0
   -3.9344   -0.5266   -0.3572 C   0  0  0  0  0  0  0  0  0  0  0  0
   -4.1537    0.8036   -0.7441 C   0  0  0  0  0  0  0  0  0  0  0  0
   -3.1259    1.5446   -1.5610 C   0  0  0  0  0  0  0  0  0  0  0  0
   -2.2010    2.7882   -0.6183 S   0  0  0  0  0  0  0  0  0  0  0  0
   -1.4710    1.7429    0.5878 C   0  0  0  0  0  0  0  0  0  0  0  0
   -1.9869    1.8091    1.7842 N   0  0  0  0  0  0  0  0  0  0  0  0
   -1.4822    0.9899    2.8158 C   0  0  0  0  0  0  0  0  0  0  0  0
   -2.0680    1.0583    4.0800 C   0  0  0  0  0  0  0  0  0  0  0  0
   -1.5887    0.2641    5.1260 C   0  0  0  0  0  0  0  0  0  0  0  0
   -0.5174   -0.6058    4.9129 C   0  0  0  0  0  0  0  0  0  0  0  0
    0.0733   -0.6888    3.6520 C   0  0  0  0  0  0  0  0  0  0  0  0
   -0.4109    0.1049    2.6084 C   0  0  0  0  0  0  0  0  0  0  0  0
    0.1502    0.0686    1.2718 C   0  0  0  0  0  0  0  0  0  0  0  0
    1.1397   -0.6681    0.8120 N   0  0  0  0  0  0  0  0  0  0  0  0
    1.2762   -0.3157   -0.5095 C   0  0  0  0  0  0  0  0  0  0  0  0
    2.3008   -1.0043   -1.3431 C   0  0  0  0  0  0  0  0  0  0  0  0
    3.0511   -0.0366   -2.2373 C   0  0  0  0  0  0  0  0  0  0  0  0
    2.4747    0.6308   -3.0969 O   0  0  0  0  0  0  0  0  0  0  0  0
    4.4055    0.0263   -2.0210 N   0  0  0  0  0  0  0  0  0  0  0  0
    5.2248    1.0038   -2.6999 C   0  0  0  0  0  0  0  0  0  0  0  0
    6.6297    0.5334   -2.6736 C   0  0  0  0  0  0  0  0  0  0  0  0
    7.5087    0.1207   -3.6535 C   0  0  0  0  0  0  0  0  0  0  0  0
    8.7163   -0.2065   -2.9929 C   0  0  0  0  0  0  0  0  0  0  0  0
    8.4979    0.0236   -1.6546 C   0  0  0  0  0  0  0  0  0  0  0  0
    7.2328    0.4694   -1.4487 O   0  0  0  0  0  0  0  0  0  0  0  0
    0.3488    0.6576   -0.8514 C   0  0  0  0  0  0  0  0  0  0  0  0
    0.1267    1.3019   -1.9941 O   0  0  0  0  0  0  0  0  0  0  0  0
   -0.3891    0.8887    0.2994 N   0  0  0  0  0  0  0  0  0  0  0  0
   -5.3389    1.4352   -0.3458 C   0  0  0  0  0  0  0  0  0  0  0  0
   -6.2830    0.7544    0.4254 C   0  0  0  0  0  0  0  0  0  0  0  0
   -6.5931   -1.9881    2.3409 H   0  0  0  0  0  0  0  0  0  0  0  0
   -7.7291   -1.8866    0.9704 H   0  0  0  0  0  0  0  0  0  0  0  0
   -7.6934   -0.6159    2.2173 H   0  0  0  0  0  0  0  0  0  0  0  0
   -4.6859   -2.2376    0.7049 H   0  0  0  0  0  0  0  0  0  0  0  0
   -3.0253   -1.0459   -0.6494 H   0  0  0  0  0  0  0  0  0  0  0  0
   -2.4341    0.8374   -2.0273 H   0  0  0  0  0  0  0  0  0  0  0  0
   -3.6324    2.0552   -2.3880 H   0  0  0  0  0  0  0  0  0  0  0  0
   -2.9023    1.7350    4.2469 H   0  0  0  0  0  0  0  0  0  0  0  0
   -2.0510    0.3269    6.1078 H   0  0  0  0  0  0  0  0  0  0  0  0
   -0.1420   -1.2179    5.7303 H   0  0  0  0  0  0  0  0  0  0  0  0
    0.9074   -1.3668    3.4839 H   0  0  0  0  0  0  0  0  0  0  0  0
    3.0021   -1.5473   -0.6998 H   0  0  0  0  0  0  0  0  0  0  0  0
    1.8166   -1.7483   -1.9853 H   0  0  0  0  0  0  0  0  0  0  0  0
    4.7872   -0.3544   -1.1619 H   0  0  0  0  0  0  0  0  0  0  0  0
    5.1260    1.9558   -2.1672 H   0  0  0  0  0  0  0  0  0  0  0  0
    4.8681    1.1479   -3.7255 H   0  0  0  0  0  0  0  0  0  0  0  0
    7.3023    0.0650   -4.7143 H   0  0  0  0  0  0  0  0  0  0  0  0
    9.6336   -0.5653   -3.4367 H   0  0  0  0  0  0  0  0  0  0  0  0
    9.1091   -0.0729   -0.7691 H   0  0  0  0  0  0  0  0  0  0  0  0
    0.8651    1.1067   -2.6181 H   0  0  0  0  0  0  0  0  0  0  0  0
   -5.5299    2.4703   -0.6251 H   0  0  0  0  0  0  0  0  0  0  0  0
   -7.1949    1.2680    0.7207 H   0  0  0  0  0  0  0  0  0  0  0  0
  1  2  1  0
  2  3  2  0
  3  4  1  0
  4  5  2  0
  5  6  1  0
  6  7  1  0
  7  8  1  0
  8  9  2  0
  9 10  1  0
 10 11  2  0
 11 12  1  0
 12 13  2  0
 13 14  1  0
 14 15  2  0
 15 16  1  0
 16 17  2  0
 17 18  1  0
 18 19  1  0
 19 20  1  0
 20 21  2  0
 20 22  1  0
 22 23  1  0
 23 24  1  0
 24 25  2  0
 25 26  1  0
 26 27  2  0
 27 28  1  0
 18 29  2  0
 29 30  1  0
 29 31  1  0
  5 32  1  0
 32 33  2  0
 33  2  1  0
 31  8  1  0
 15 10  1  0
 31 16  1  0
 28 24  1  0
  1 34  1  0
  1 35  1  0
  1 36  1  0
  3 37  1  0
  4 38  1  0
  6 39  1  0
  6 40  1  0
 11 41  1  0
 12 42  1  0
 13 43  1  0
 14 44  1  0
 19 45  1  0
 19 46  1  0
 22 47  1  0
 23 48  1  0
 23 49  1  0
 25 50  1  0
 26 51  1  0
 27 52  1  0
 30 53  1  0
 32 54  1  0
 33 55  1  0
M  END
$$$$
