
     RDKit          3D

 59 62  0  0  0  0  0  0  0  0999 V2000
    5.9905    2.9633   -0.8070 C   0  0  0  0  0  0  0  0  0  0  0  0
    5.1638    2.5227   -1.8841 O   0  0  0  0  0  0  0  0  0  0  0  0
    4.6111    1.2953   -1.6063 C   0  0  0  0  0  0  0  0  0  0  0  0
    3.2501    1.2833   -1.2969 C   0  0  0  0  0  0  0  0  0  0  0  0
    2.5996    0.0780   -1.0263 C   0  0  0  0  0  0  0  0  0  0  0  0
    1.2322    0.1530   -0.6780 N   0  0  0  0  0  0  0  0  0  0  0  0
    0.3721   -0.8976   -0.4111 C   0  0  0  0  0  0  0  0  0  0  0  0
    0.6207   -2.0925   -0.5045 O   0  0  0  0  0  0  0  0  0  0  0  0
   -0.9915   -0.4924    0.0053 C   0  0  0  0  0  0  0  0  0  0  0  0
   -1.2193    0.6184    0.8312 C   0  0  0  0  0  0  0  0  0  0  0  0
   -2.5242    0.9537    1.2039 C   0  0  0  0  0  0  0  0  0  0  0  0
   -2.8099    2.1044    2.0906 C   0  0  0  0  0  0  0  0  0  0  0  0
   -2.0743    3.3022    2.0243 C   0  0  0  0  0  0  0  0  0  0  0  0
   -2.3491    4.3728    2.8819 C   0  0  0  0  0  0  0  0  0  0  0  0
   -3.3695    4.2697    3.8228 C   0  0  0  0  0  0  0  0  0  0  0  0
   -4.1216    3.1021    3.9003 C   0  0  0  0  0  0  0  0  0  0  0  0
   -3.8452    2.0344    3.0414 C   0  0  0  0  0  0  0  0  0  0  0  0
   -3.6149    0.2508    0.8105 N   0  0  0  0  0  0  0  0  0  0  0  0
   -3.3474   -0.8198    0.0383 C   0  0  0  0  0  0  0  0  0  0  0  0
   -2.1016   -1.2520   -0.3858 C   0  0  0  0  0  0  0  0  0  0  0  0
   -2.3726   -2.4152   -1.1378 C   0  0  0  0  0  0  0  0  0  0  0  0
   -3.6773   -2.7025   -1.2004 N   0  0  0  0  0  0  0  0  0  0  0  0
   -4.2544   -1.7093   -0.4818 N   0  0  0  0  0  0  0  0  0  0  0  0
   -5.6996   -1.6737   -0.2911 C   0  0  0  0  0  0  0  0  0  0  0  0
   -6.1297   -2.6731    0.7817 C   0  0  0  0  0  0  0  0  0  0  0  0
   -6.4620   -1.8966   -1.5982 C   0  0  0  0  0  0  0  0  0  0  0  0
    3.3249   -1.1141   -1.1038 C   0  0  0  0  0  0  0  0  0  0  0  0
    4.6842   -1.1184   -1.4642 C   0  0  0  0  0  0  0  0  0  0  0  0
    5.4130   -2.2735   -1.6045 O   0  0  0  0  0  0  0  0  0  0  0  0
    4.6841   -3.4642   -1.8839 C   0  0  0  0  0  0  0  0  0  0  0  0
    5.3449    0.1024   -1.6884 C   0  0  0  0  0  0  0  0  0  0  0  0
    6.6565    0.2248   -2.0748 O   0  0  0  0  0  0  0  0  0  0  0  0
    7.5803   -0.6051   -1.3784 C   0  0  0  0  0  0  0  0  0  0  0  0
    6.2903    3.9951   -1.0181 H   0  0  0  0  0  0  0  0  0  0  0  0
    5.4406    2.9599    0.1420 H   0  0  0  0  0  0  0  0  0  0  0  0
    6.9025    2.3644   -0.7214 H   0  0  0  0  0  0  0  0  0  0  0  0
    2.7184    2.2305   -1.2686 H   0  0  0  0  0  0  0  0  0  0  0  0
    0.8370    1.0843   -0.6843 H   0  0  0  0  0  0  0  0  0  0  0  0
   -0.3816    1.1859    1.2244 H   0  0  0  0  0  0  0  0  0  0  0  0
   -1.2860    3.4298    1.2869 H   0  0  0  0  0  0  0  0  0  0  0  0
   -1.7679    5.2887    2.8116 H   0  0  0  0  0  0  0  0  0  0  0  0
   -3.5845    5.1007    4.4896 H   0  0  0  0  0  0  0  0  0  0  0  0
   -4.9245    3.0162    4.6307 H   0  0  0  0  0  0  0  0  0  0  0  0
   -4.4472    1.1294    3.1216 H   0  0  0  0  0  0  0  0  0  0  0  0
   -1.6668   -3.0673   -1.6380 H   0  0  0  0  0  0  0  0  0  0  0  0
   -5.9444   -0.6639    0.0622 H   0  0  0  0  0  0  0  0  0  0  0  0
   -7.2096   -2.6207    0.9531 H   0  0  0  0  0  0  0  0  0  0  0  0
   -5.6281   -2.4605    1.7320 H   0  0  0  0  0  0  0  0  0  0  0  0
   -5.8801   -3.7020    0.4983 H   0  0  0  0  0  0  0  0  0  0  0  0
   -7.5369   -1.7561   -1.4453 H   0  0  0  0  0  0  0  0  0  0  0  0
   -6.1344   -1.1873   -2.3669 H   0  0  0  0  0  0  0  0  0  0  0  0
   -6.3093   -2.9092   -1.9897 H   0  0  0  0  0  0  0  0  0  0  0  0
    2.8324   -2.0536   -0.8853 H   0  0  0  0  0  0  0  0  0  0  0  0
    4.1859   -3.8366   -0.9830 H   0  0  0  0  0  0  0  0  0  0  0  0
    5.4023   -4.2264   -2.2014 H   0  0  0  0  0  0  0  0  0  0  0  0
    3.9702   -3.3202   -2.7023 H   0  0  0  0  0  0  0  0  0  0  0  0
    7.7676   -1.5190   -1.9489 H   0  0  0  0  0  0  0  0  0  0  0  0
    8.5273   -0.0608   -1.3122 H   0  0  0  0  0  0  0  0  0  0  0  0
    7.2623   -0.8327   -0.3555 H   0  0  0  0  0  0  0  0  0  0  0  0
  1  2  1  0
  2  3  1  0
  3  4  2  0
  4  5  1  0
  5  6  1  0
  6  7  1  0
  7  8  2  0
  7  9  1  0
  9 10  2  0
 10 11  1  0
 11 12  1  0
 12 13  2  0
 13 14  1  0
 14 15  2  0
 15 16  1  0
 16 17  2  0
 11 18  2  0
 18 19  1  0
 19 20  2  0
 20 21  1  0
 21 22  2  0
 22 23  1  0
 23 24  1  0
 24 25  1  0
 24 26  1  0
  5 27  2  0
 27 28  1  0
 28 29  1  0
 29 30  1  0
 28 31  2  0
 31 32  1  0
 32 33  1  0
 31  3  1  0
 20  9  1  0
 17 12  1  0
 23 19  1  0
  1 34  1  0
  1 35  1  0
  1 36  1  0
  4 37  1  0
  6 38  1  0
 10 39  1  0
 13 40  1  0
 14 41  1  0
 15 42  1  0
 16 43  1  0
 17 44  1  0
 21 45  1  0
 24 46  1  0
 25 47  1  0
 25 48  1  0
 25 49  1  0
 26 50  1  0
 26 51  1  0
 26 52  1  0
 27 53  1  0
 30 54  1  0
 30 55  1  0
 30 56  1  0
 33 57  1  0
 33 58  1  0
 33 59  1  0
M  END
$$$$
