
     RDKit          3D

 36 37  0  0  0  0  0  0  0  0999 V2000
    0.8586    2.0513   -1.2502 C   0  0  0  0  0  0  0  0  0  0  0  0
    1.0324    0.6384   -1.2469 O   0  0  0  0  0  0  0  0  0  0  0  0
    2.2860    0.1698   -0.9429 C   0  0  0  0  0  0  0  0  0  0  0  0
    3.4131    0.9766   -0.7510 C   0  0  0  0  0  0  0  0  0  0  0  0
    4.6480    0.4065   -0.4309 C   0  0  0  0  0  0  0  0  0  0  0  0
    4.7674   -0.9725   -0.2960 C   0  0  0  0  0  0  0  0  0  0  0  0
    3.6532   -1.7856   -0.4888 C   0  0  0  0  0  0  0  0  0  0  0  0
    2.4086   -1.2272   -0.8254 C   0  0  0  0  0  0  0  0  0  0  0  0
    1.2212   -2.1430   -1.0061 C   0  0  0  0  0  0  0  0  0  0  0  0
    0.4029   -2.2810    0.2661 C   0  0  0  0  0  0  0  0  0  0  0  0
    0.6738   -3.1364    1.1035 O   0  0  0  0  0  0  0  0  0  0  0  0
   -0.6265   -1.3586    0.3424 N   0  0  0  0  0  0  0  0  0  0  0  0
   -1.5613   -1.2453    1.3523 C   0  0  0  0  0  0  0  0  0  0  0  0
   -1.5957   -1.9334    2.3666 O   0  0  0  0  0  0  0  0  0  0  0  0
   -2.5917   -0.1706    1.1749 C   0  0  0  0  0  0  0  0  0  0  0  0
   -3.3556    0.1808    2.3002 C   0  0  0  0  0  0  0  0  0  0  0  0
   -4.3399    1.1679    2.2175 C   0  0  0  0  0  0  0  0  0  0  0  0
   -4.5768    1.8140    1.0070 C   0  0  0  0  0  0  0  0  0  0  0  0
   -3.8338    1.4738   -0.1235 C   0  0  0  0  0  0  0  0  0  0  0  0
   -2.8486    0.4847   -0.0397 C   0  0  0  0  0  0  0  0  0  0  0  0
   -2.1421    0.1637   -1.1700 O   0  0  0  0  0  0  0  0  0  0  0  0
   -0.1953    2.2585   -1.4586 H   0  0  0  0  0  0  0  0  0  0  0  0
    1.0937    2.4820   -0.2713 H   0  0  0  0  0  0  0  0  0  0  0  0
    1.4497    2.5187   -2.0445 H   0  0  0  0  0  0  0  0  0  0  0  0
    3.3687    2.0568   -0.8398 H   0  0  0  0  0  0  0  0  0  0  0  0
    5.5166    1.0424   -0.2788 H   0  0  0  0  0  0  0  0  0  0  0  0
    5.7247   -1.4157   -0.0338 H   0  0  0  0  0  0  0  0  0  0  0  0
    3.7553   -2.8624   -0.3636 H   0  0  0  0  0  0  0  0  0  0  0  0
    1.5532   -3.1461   -1.3033 H   0  0  0  0  0  0  0  0  0  0  0  0
    0.5897   -1.8002   -1.8348 H   0  0  0  0  0  0  0  0  0  0  0  0
   -0.7040   -0.6934   -0.4210 H   0  0  0  0  0  0  0  0  0  0  0  0
   -3.1844   -0.3180    3.2537 H   0  0  0  0  0  0  0  0  0  0  0  0
   -4.9208    1.4273    3.0998 H   0  0  0  0  0  0  0  0  0  0  0  0
   -5.3451    2.5815    0.9447 H   0  0  0  0  0  0  0  0  0  0  0  0
   -4.0383    1.9900   -1.0571 H   0  0  0  0  0  0  0  0  0  0  0  0
   -2.5568    0.6044   -1.9338 H   0  0  0  0  0  0  0  0  0  0  0  0
  1  2  1  0
  2  3  1  0
  3  4  2  0
  4  5  1  0
  5  6  2  0
  6  7  1  0
  7  8  2  0
  8  9  1  0
  9 10  1  0
 10 11  2  0
 10 12  1  0
 12 13  1  0
 13 14  2  0
 13 15  1  0
 15 16  2  0
 16 17  1  0
 17 18  2  0
 18 19  1  0
 19 20  2  0
 20 21  1  0
  8  3  1  0
 20 15  1  0
  1 22  1  0
  1 23  1  0
  1 24  1  0
  4 25  1  0
  5 26  1  0
  6 27  1  0
  7 28  1  0
  9 29  1  0
  9 30  1  0
 12 31  1  0
 16 32  1  0
 17 33  1  0
 18 34  1  0
 19 35  1  0
 21 36  1  0
M  END
$$$$
