
     RDKit          3D

 52 55  0  0  0  0  0  0  0  0999 V2000
    6.8896    2.9369   -1.0995 C   0  0  0  0  0  0  0  0  0  0  0  0
    5.9975    2.4358   -2.2249 C   0  0  0  0  0  0  0  0  0  0  0  0
    4.7607    1.7530   -1.6980 C   0  0  0  0  0  0  0  0  0  0  0  0
    4.7673    0.3784   -1.4288 C   0  0  0  0  0  0  0  0  0  0  0  0
    3.6262   -0.2544   -0.9253 C   0  0  0  0  0  0  0  0  0  0  0  0
    2.4646    0.4847   -0.6819 C   0  0  0  0  0  0  0  0  0  0  0  0
    1.2372   -0.1523   -0.1501 C   0  0  0  0  0  0  0  0  0  0  0  0
    0.1741    0.5176    0.1789 N   0  0  0  0  0  0  0  0  0  0  0  0
   -0.7594   -0.3856    0.6016 N   0  0  0  0  0  0  0  0  0  0  0  0
   -1.9618    0.0406    1.1620 C   0  0  0  0  0  0  0  0  0  0  0  0
   -2.9255   -0.8563    1.6536 C   0  0  0  0  0  0  0  0  0  0  0  0
   -4.1275   -0.4101    2.2173 C   0  0  0  0  0  0  0  0  0  0  0  0
   -4.3816    0.9574    2.3029 C   0  0  0  0  0  0  0  0  0  0  0  0
   -5.8987    1.5247    3.0189 S   0  0  0  0  0  6  0  0  0  0  0  0
   -5.4581    1.6968    4.6368 N   0  0  0  0  0  0  0  0  0  0  0  0
   -6.8740    0.4637    2.9378 O   0  0  0  0  0  0  0  0  0  0  0  0
   -6.1627    2.8632    2.5433 O   0  0  0  0  0  0  0  0  0  0  0  0
   -3.4590    1.8769    1.8124 C   0  0  0  0  0  0  0  0  0  0  0  0
   -2.2627    1.4134    1.2549 C   0  0  0  0  0  0  0  0  0  0  0  0
   -0.3356   -1.7754    0.4173 C   0  0  0  0  0  0  0  0  0  0  0  0
   -1.0831   -2.4940   -0.6990 C   0  0  0  0  0  0  0  0  0  0  0  0
   -1.5108   -1.8252   -1.8607 C   0  0  0  0  0  0  0  0  0  0  0  0
   -2.1727   -2.5156   -2.8772 C   0  0  0  0  0  0  0  0  0  0  0  0
   -2.4036   -3.8779   -2.7419 C   0  0  0  0  0  0  0  0  0  0  0  0
   -3.0361   -4.5416   -3.7183 F   0  0  0  0  0  0  0  0  0  0  0  0
   -1.9846   -4.5644   -1.6092 C   0  0  0  0  0  0  0  0  0  0  0  0
   -1.3230   -3.8762   -0.5902 C   0  0  0  0  0  0  0  0  0  0  0  0
    1.1500   -1.6361    0.0796 C   0  0  0  0  0  0  0  0  0  0  0  0
    2.4566    1.8597   -0.9412 C   0  0  0  0  0  0  0  0  0  0  0  0
    3.5976    2.4896   -1.4442 C   0  0  0  0  0  0  0  0  0  0  0  0
    7.7778    3.4270   -1.5105 H   0  0  0  0  0  0  0  0  0  0  0  0
    7.2223    2.1129   -0.4593 H   0  0  0  0  0  0  0  0  0  0  0  0
    6.3638    3.6613   -0.4683 H   0  0  0  0  0  0  0  0  0  0  0  0
    6.5589    1.7414   -2.8619 H   0  0  0  0  0  0  0  0  0  0  0  0
    5.7093    3.2740   -2.8710 H   0  0  0  0  0  0  0  0  0  0  0  0
    5.6654   -0.2090   -1.6094 H   0  0  0  0  0  0  0  0  0  0  0  0
    3.6739   -1.3209   -0.7286 H   0  0  0  0  0  0  0  0  0  0  0  0
   -2.7655   -1.9292    1.6000 H   0  0  0  0  0  0  0  0  0  0  0  0
   -4.8544   -1.1355    2.5776 H   0  0  0  0  0  0  0  0  0  0  0  0
   -5.5204    2.6849    4.8882 H   0  0  0  0  0  0  0  0  0  0  0  0
   -4.5370    1.3109    4.8415 H   0  0  0  0  0  0  0  0  0  0  0  0
   -3.6533    2.9460    1.8504 H   0  0  0  0  0  0  0  0  0  0  0  0
   -1.5499    2.1435    0.8750 H   0  0  0  0  0  0  0  0  0  0  0  0
   -0.4426   -2.3336    1.3561 H   0  0  0  0  0  0  0  0  0  0  0  0
   -1.3388   -0.7554   -1.9747 H   0  0  0  0  0  0  0  0  0  0  0  0
   -2.5101   -1.9972   -3.7690 H   0  0  0  0  0  0  0  0  0  0  0  0
   -2.1762   -5.6296   -1.5279 H   0  0  0  0  0  0  0  0  0  0  0  0
   -0.9984   -4.4269    0.2903 H   0  0  0  0  0  0  0  0  0  0  0  0
    1.4667   -2.2089   -0.7962 H   0  0  0  0  0  0  0  0  0  0  0  0
    1.7740   -1.8943    0.9419 H   0  0  0  0  0  0  0  0  0  0  0  0
    1.5625    2.4511   -0.7541 H   0  0  0  0  0  0  0  0  0  0  0  0
    3.5710    3.5603   -1.6359 H   0  0  0  0  0  0  0  0  0  0  0  0
  1  2  1  0
  2  3  1  0
  3  4  2  0
  4  5  1  0
  5  6  2  0
  6  7  1  0
  7  8  2  0
  8  9  1  0
  9 10  1  0
 10 11  2  0
 11 12  1  0
 12 13  2  0
 13 14  1  0
 14 15  1  0
 14 16  2  0
 14 17  2  0
 13 18  1  0
 18 19  2  0
  9 20  1  0
 20 21  1  0
 21 22  2  0
 22 23  1  0
 23 24  2  0
 24 25  1  0
 24 26  1  0
 26 27  2  0
 20 28  1  0
  6 29  1  0
 29 30  2  0
 30  3  1  0
 28  7  1  0
 19 10  1  0
 27 21  1  0
  1 31  1  0
  1 32  1  0
  1 33  1  0
  2 34  1  0
  2 35  1  0
  4 36  1  0
  5 37  1  0
 11 38  1  0
 12 39  1  0
 15 40  1  0
 15 41  1  0
 18 42  1  0
 19 43  1  0
 20 44  1  0
 22 45  1  0
 23 46  1  0
 26 47  1  0
 27 48  1  0
 28 49  1  0
 28 50  1  0
 29 51  1  0
 30 52  1  0
M  END
$$$$
