
     RDKit          3D

 41 42  0  0  0  0  0  0  0  0999 V2000
   -1.6148    2.4152    0.5814 C   0  0  0  0  0  0  0  0  0  0  0  0
   -1.6888    1.5714   -0.5604 O   0  0  0  0  0  0  0  0  0  0  0  0
   -2.1419    0.2922   -0.3638 C   0  0  0  0  0  0  0  0  0  0  0  0
   -2.7229   -0.1729    0.8205 C   0  0  0  0  0  0  0  0  0  0  0  0
   -3.1385   -1.5024    0.9308 C   0  0  0  0  0  0  0  0  0  0  0  0
   -2.9753   -2.3775   -0.1384 C   0  0  0  0  0  0  0  0  0  0  0  0
   -2.4037   -1.9225   -1.3247 C   0  0  0  0  0  0  0  0  0  0  0  0
   -1.9947   -0.5847   -1.4555 C   0  0  0  0  0  0  0  0  0  0  0  0
   -1.3474   -0.1314   -2.7435 C   0  0  0  0  0  0  0  0  0  0  0  0
    0.0800    0.0044   -2.5762 N   0  0  0  0  0  0  0  0  0  0  0  0
    0.9211   -1.0792   -2.7025 C   0  0  0  0  0  0  0  0  0  0  0  0
    0.5991   -2.1413   -3.2293 O   0  0  0  0  0  0  0  0  0  0  0  0
    2.3270   -0.8381   -2.1462 C   0  0  0  0  0  0  0  0  0  0  0  0
    2.3962    0.1260   -1.1041 O   0  0  0  0  0  0  0  0  0  0  0  0
    1.9574   -0.2202    0.1515 C   0  0  0  0  0  0  0  0  0  0  0  0
    1.3980   -1.4573    0.4886 C   0  0  0  0  0  0  0  0  0  0  0  0
    0.9634   -1.7031    1.7924 C   0  0  0  0  0  0  0  0  0  0  0  0
    1.0891   -0.7200    2.7683 C   0  0  0  0  0  0  0  0  0  0  0  0
    1.6462    0.5181    2.4448 C   0  0  0  0  0  0  0  0  0  0  0  0
    2.0793    0.7787    1.1397 C   0  0  0  0  0  0  0  0  0  0  0  0
    2.6158    1.9733    0.7248 O   0  0  0  0  0  0  0  0  0  0  0  0
    2.8594    2.9621    1.7147 C   0  0  0  0  0  0  0  0  0  0  0  0
   -1.0087    1.9656    1.3743 H   0  0  0  0  0  0  0  0  0  0  0  0
   -2.6159    2.6684    0.9446 H   0  0  0  0  0  0  0  0  0  0  0  0
   -1.1256    3.3457    0.2776 H   0  0  0  0  0  0  0  0  0  0  0  0
   -2.8662    0.4745    1.6787 H   0  0  0  0  0  0  0  0  0  0  0  0
   -3.5862   -1.8551    1.8562 H   0  0  0  0  0  0  0  0  0  0  0  0
   -3.2888   -3.4143   -0.0498 H   0  0  0  0  0  0  0  0  0  0  0  0
   -2.2627   -2.6186   -2.1501 H   0  0  0  0  0  0  0  0  0  0  0  0
   -1.7468    0.8421   -3.0481 H   0  0  0  0  0  0  0  0  0  0  0  0
   -1.5591   -0.8348   -3.5569 H   0  0  0  0  0  0  0  0  0  0  0  0
    0.3814    0.7264   -1.9279 H   0  0  0  0  0  0  0  0  0  0  0  0
    2.7806   -1.7869   -1.8375 H   0  0  0  0  0  0  0  0  0  0  0  0
    2.9299   -0.4555   -2.9776 H   0  0  0  0  0  0  0  0  0  0  0  0
    1.2686   -2.2534   -0.2374 H   0  0  0  0  0  0  0  0  0  0  0  0
    0.5196   -2.6642    2.0407 H   0  0  0  0  0  0  0  0  0  0  0  0
    0.7494   -0.9159    3.7821 H   0  0  0  0  0  0  0  0  0  0  0  0
    1.7212    1.2602    3.2319 H   0  0  0  0  0  0  0  0  0  0  0  0
    3.5460    2.5938    2.4842 H   0  0  0  0  0  0  0  0  0  0  0  0
    3.3375    3.8155    1.2242 H   0  0  0  0  0  0  0  0  0  0  0  0
    1.9217    3.3158    2.1556 H   0  0  0  0  0  0  0  0  0  0  0  0
  1  2  1  0
  2  3  1  0
  3  4  2  0
  4  5  1  0
  5  6  2  0
  6  7  1  0
  7  8  2  0
  8  9  1  0
  9 10  1  0
 10 11  1  0
 11 12  2  0
 11 13  1  0
 13 14  1  0
 14 15  1  0
 15 16  2  0
 16 17  1  0
 17 18  2  0
 18 19  1  0
 19 20  2  0
 20 21  1  0
 21 22  1  0
  8  3  1  0
 20 15  1  0
  1 23  1  0
  1 24  1  0
  1 25  1  0
  4 26  1  0
  5 27  1  0
  6 28  1  0
  7 29  1  0
  9 30  1  0
  9 31  1  0
 10 32  1  0
 13 33  1  0
 13 34  1  0
 16 35  1  0
 17 36  1  0
 18 37  1  0
 19 38  1  0
 22 39  1  0
 22 40  1  0
 22 41  1  0
M  END
$$$$
