
     RDKit          3D

 53 55  0  0  0  0  0  0  0  0999 V2000
   -5.0116   -0.3683    2.4533 C   0  0  0  0  0  0  0  0  0  0  0  0
   -3.5598   -0.8116    2.5379 C   0  0  0  0  0  0  0  0  0  0  0  0
   -2.7291   -0.4200    1.3149 C   0  0  0  0  0  0  0  0  0  0  0  0
   -3.1904   -1.1035    0.0249 C   0  0  0  0  0  0  0  0  0  0  0  0
   -2.2785   -0.8089   -1.0587 N   0  0  0  0  0  0  0  0  0  0  0  0
   -1.0893   -1.4662   -1.3754 C   0  0  0  0  0  0  0  0  0  0  0  0
   -0.6125   -2.5430   -0.8540 N   0  0  0  0  0  0  0  0  0  0  0  0
   -0.4625   -0.7303   -2.3802 N   0  0  0  0  0  0  0  0  0  0  0  0
    0.7772   -1.0908   -3.0454 C   0  0  0  0  0  0  0  0  0  0  0  0
    2.0197   -0.5359   -2.3255 C   0  0  0  0  0  0  0  0  0  0  0  0
    1.9450    0.8982   -2.2402 O   0  0  0  0  0  0  0  0  0  0  0  0
    2.2421   -1.1498   -0.9352 C   0  0  0  0  0  0  0  0  0  0  0  0
    3.5989   -0.8993   -0.5245 O   0  0  0  0  0  0  0  0  0  0  0  0
    3.7452   -0.3365    0.7110 C   0  0  0  0  0  0  0  0  0  0  0  0
    4.7265   -0.8910    1.5329 C   0  0  0  0  0  0  0  0  0  0  0  0
    4.9755   -0.3504    2.7974 C   0  0  0  0  0  0  0  0  0  0  0  0
    4.2607    0.7692    3.2400 C   0  0  0  0  0  0  0  0  0  0  0  0
    4.5079    1.3353    4.6054 C   0  0  0  0  0  0  0  0  0  0  0  0
    3.2837    1.3271    2.4036 C   0  0  0  0  0  0  0  0  0  0  0  0
    3.0383    0.7865    1.1371 C   0  0  0  0  0  0  0  0  0  0  0  0
   -1.2428    0.3832   -2.6861 C   0  0  0  0  0  0  0  0  0  0  0  0
   -1.0559    1.4098   -3.5890 C   0  0  0  0  0  0  0  0  0  0  0  0
   -2.0217    2.4194   -3.6425 C   0  0  0  0  0  0  0  0  0  0  0  0
   -3.1468    2.3869   -2.7997 C   0  0  0  0  0  0  0  0  0  0  0  0
   -3.3310    1.3424   -1.8876 C   0  0  0  0  0  0  0  0  0  0  0  0
   -2.3757    0.3473   -1.8425 C   0  0  0  0  0  0  0  0  0  0  0  0
   -5.0848    0.7061    2.2622 H   0  0  0  0  0  0  0  0  0  0  0  0
   -5.5456   -0.8982    1.6604 H   0  0  0  0  0  0  0  0  0  0  0  0
   -5.5246   -0.5800    3.3957 H   0  0  0  0  0  0  0  0  0  0  0  0
   -3.1075   -0.3543    3.4258 H   0  0  0  0  0  0  0  0  0  0  0  0
   -3.5178   -1.8968    2.6841 H   0  0  0  0  0  0  0  0  0  0  0  0
   -2.7512    0.6698    1.1896 H   0  0  0  0  0  0  0  0  0  0  0  0
   -1.6826   -0.6844    1.5124 H   0  0  0  0  0  0  0  0  0  0  0  0
   -4.2085   -0.7948   -0.2371 H   0  0  0  0  0  0  0  0  0  0  0  0
   -3.2439   -2.1880    0.1801 H   0  0  0  0  0  0  0  0  0  0  0  0
   -1.2581   -2.8884   -0.1426 H   0  0  0  0  0  0  0  0  0  0  0  0
    0.8558   -2.1815   -3.1295 H   0  0  0  0  0  0  0  0  0  0  0  0
    0.7656   -0.7123   -4.0748 H   0  0  0  0  0  0  0  0  0  0  0  0
    2.8986   -0.7503   -2.9451 H   0  0  0  0  0  0  0  0  0  0  0  0
    1.1260    1.0972   -1.7510 H   0  0  0  0  0  0  0  0  0  0  0  0
    1.5072   -0.7774   -0.2131 H   0  0  0  0  0  0  0  0  0  0  0  0
    2.1425   -2.2392   -0.9899 H   0  0  0  0  0  0  0  0  0  0  0  0
    5.2971   -1.7500    1.1889 H   0  0  0  0  0  0  0  0  0  0  0  0
    5.7373   -0.8041    3.4285 H   0  0  0  0  0  0  0  0  0  0  0  0
    5.5614    1.2283    4.8841 H   0  0  0  0  0  0  0  0  0  0  0  0
    4.2708    2.4041    4.6358 H   0  0  0  0  0  0  0  0  0  0  0  0
    3.8905    0.8165    5.3437 H   0  0  0  0  0  0  0  0  0  0  0  0
    2.7179    2.1988    2.7252 H   0  0  0  0  0  0  0  0  0  0  0  0
    2.3120    1.2677    0.4874 H   0  0  0  0  0  0  0  0  0  0  0  0
   -0.1856    1.4523   -4.2343 H   0  0  0  0  0  0  0  0  0  0  0  0
   -1.8993    3.2435   -4.3427 H   0  0  0  0  0  0  0  0  0  0  0  0
   -3.8831    3.1859   -2.8599 H   0  0  0  0  0  0  0  0  0  0  0  0
   -4.2032    1.3296   -1.2449 H   0  0  0  0  0  0  0  0  0  0  0  0
  1  2  1  0
  2  3  1  0
  3  4  1  0
  4  5  1  0
  5  6  1  0
  6  7  2  3
  6  8  1  0
  8  9  1  0
  9 10  1  0
 10 11  1  0
 10 12  1  0
 12 13  1  0
 13 14  1  0
 14 15  2  0
 15 16  1  0
 16 17  2  0
 17 18  1  0
 17 19  1  0
 19 20  2  0
  8 21  1  0
 21 22  2  0
 22 23  1  0
 23 24  2  0
 24 25  1  0
 25 26  2  0
 26  5  1  0
 20 14  1  0
 26 21  1  0
  1 27  1  0
  1 28  1  0
  1 29  1  0
  2 30  1  0
  2 31  1  0
  3 32  1  0
  3 33  1  0
  4 34  1  0
  4 35  1  0
  7 36  1  0
  9 37  1  0
  9 38  1  0
 10 39  1  0
 11 40  1  0
 12 41  1  0
 12 42  1  0
 15 43  1  0
 16 44  1  0
 18 45  1  0
 18 46  1  0
 18 47  1  0
 19 48  1  0
 20 49  1  0
 22 50  1  0
 23 51  1  0
 24 52  1  0
 25 53  1  0
M  END
$$$$
