
     RDKit          3D

 36 37  0  0  0  0  0  0  0  0999 V2000
    5.0739    1.1687    2.9272 C   0  0  0  0  0  0  0  0  0  0  0  0
    5.0958    0.4195    1.7187 O   0  0  0  0  0  0  0  0  0  0  0  0
    3.8946   -0.0384    1.2519 C   0  0  0  0  0  0  0  0  0  0  0  0
    3.9755   -0.7799    0.0679 C   0  0  0  0  0  0  0  0  0  0  0  0
    2.8269   -1.3093   -0.5239 C   0  0  0  0  0  0  0  0  0  0  0  0
    1.5853   -1.0824    0.0724 C   0  0  0  0  0  0  0  0  0  0  0  0
    0.1180   -1.7821   -0.6489 S   0  0  0  0  0  6  0  0  0  0  0  0
   -0.8450   -1.9861    0.4139 O   0  0  0  0  0  0  0  0  0  0  0  0
    0.5264   -2.8622   -1.5232 O   0  0  0  0  0  0  0  0  0  0  0  0
   -0.4291   -0.5106   -1.6637 N   0  0  0  0  0  0  0  0  0  0  0  0
   -0.6125    0.8394   -1.0646 N   0  0  0  0  0  0  0  0  0  0  0  0
   -1.8189    1.1254   -0.6690 C   0  0  0  0  0  0  0  0  0  0  0  0
   -2.0326    2.4379    0.0456 C   0  0  0  0  0  0  0  0  0  0  0  0
   -3.0145    0.2779   -0.8669 C   0  0  0  0  0  0  0  0  0  0  0  0
   -3.4649    0.0176   -2.1580 C   0  0  0  0  0  0  0  0  0  0  0  0
   -4.6048   -0.7517   -2.2910 C   0  0  0  0  0  0  0  0  0  0  0  0
   -5.2970   -1.2531   -1.2446 N   0  0  0  0  0  0  0  0  0  0  0  0
   -4.8203   -0.9911   -0.0070 C   0  0  0  0  0  0  0  0  0  0  0  0
   -3.6947   -0.2269    0.2366 C   0  0  0  0  0  0  0  0  0  0  0  0
    1.4927   -0.3577    1.2638 C   0  0  0  0  0  0  0  0  0  0  0  0
    2.6489    0.1690    1.8490 C   0  0  0  0  0  0  0  0  0  0  0  0
    4.6978    0.5647    3.7595 H   0  0  0  0  0  0  0  0  0  0  0  0
    6.1038    1.4544    3.1621 H   0  0  0  0  0  0  0  0  0  0  0  0
    4.4916    2.0887    2.8106 H   0  0  0  0  0  0  0  0  0  0  0  0
    4.9463   -0.9503   -0.3927 H   0  0  0  0  0  0  0  0  0  0  0  0
    2.9142   -1.8946   -1.4359 H   0  0  0  0  0  0  0  0  0  0  0  0
    0.0898   -0.5384   -2.5457 H   0  0  0  0  0  0  0  0  0  0  0  0
   -1.5456    2.3959    1.0242 H   0  0  0  0  0  0  0  0  0  0  0  0
   -3.0951    2.6557    0.1832 H   0  0  0  0  0  0  0  0  0  0  0  0
   -1.5847    3.2462   -0.5401 H   0  0  0  0  0  0  0  0  0  0  0  0
   -2.9466    0.3994   -3.0293 H   0  0  0  0  0  0  0  0  0  0  0  0
   -5.0080   -0.9939   -3.2703 H   0  0  0  0  0  0  0  0  0  0  0  0
   -5.3873   -1.4300    0.8092 H   0  0  0  0  0  0  0  0  0  0  0  0
   -3.3491   -0.0596    1.2496 H   0  0  0  0  0  0  0  0  0  0  0  0
    0.5268   -0.1951    1.7365 H   0  0  0  0  0  0  0  0  0  0  0  0
    2.5424    0.7328    2.7698 H   0  0  0  0  0  0  0  0  0  0  0  0
  1  2  1  0
  2  3  1  0
  3  4  2  0
  4  5  1  0
  5  6  2  0
  6  7  1  0
  7  8  2  0
  7  9  2  0
  7 10  1  0
 10 11  1  0
 11 12  2  3
 12 13  1  0
 12 14  1  0
 14 15  2  0
 15 16  1  0
 16 17  2  0
 17 18  1  0
 18 19  2  0
  6 20  1  0
 20 21  2  0
 21  3  1  0
 19 14  1  0
  1 22  1  0
  1 23  1  0
  1 24  1  0
  4 25  1  0
  5 26  1  0
 10 27  1  0
 13 28  1  0
 13 29  1  0
 13 30  1  0
 15 31  1  0
 16 32  1  0
 18 33  1  0
 19 34  1  0
 20 35  1  0
 21 36  1  0
M  END
$$$$
