
     RDKit          3D

 61 65  0  0  0  0  0  0  0  0999 V2000
    2.1345   -0.1854    0.4092 C   0  0  0  0  0  0  0  0  0  0  0  0
    2.5353    0.7641   -0.6609 C   0  0  0  0  0  0  0  0  0  0  0  0
    2.4913    2.1481   -0.6357 C   0  0  0  0  0  0  0  0  0  0  0  0
    2.0239    3.0798    0.4521 C   0  0  0  0  0  0  0  0  0  0  0  0
    0.5459    3.4419    0.3002 C   0  0  0  0  0  0  0  0  0  0  0  0
   -0.2460    2.2598    0.5034 O   0  0  0  0  0  0  0  0  0  0  0  0
   -1.5904    2.4608    0.3586 C   0  0  0  0  0  0  0  0  0  0  0  0
   -2.0896    3.5326    0.0493 O   0  0  0  0  0  0  0  0  0  0  0  0
   -2.3624    1.1653    0.5949 C   0  0  0  0  0  0  0  0  0  0  0  0
   -2.0171    0.5664    1.9773 C   0  0  0  0  0  0  0  0  0  0  0  0
   -2.7897   -0.7438    2.2011 C   0  0  0  0  0  0  0  0  0  0  0  0
   -2.4193   -1.7454    1.0949 C   0  0  0  0  0  0  0  0  0  0  0  0
   -2.7842   -1.1699   -0.2832 C   0  0  0  0  0  0  0  0  0  0  0  0
   -4.2940   -0.8839   -0.3308 C   0  0  0  0  0  0  0  0  0  0  0  0
   -4.6859    0.1286    0.7698 C   0  0  0  0  0  0  0  0  0  0  0  0
   -6.1899    0.4117    0.7183 C   0  0  0  0  0  0  0  0  0  0  0  0
   -4.2991   -0.4594    2.1457 C   0  0  0  0  0  0  0  0  0  0  0  0
   -3.8866    1.4338    0.5476 C   0  0  0  0  0  0  0  0  0  0  0  0
   -2.0121    0.1403   -0.5068 C   0  0  0  0  0  0  0  0  0  0  0  0
    3.0763    2.7848   -2.1210 S   0  0  0  0  0  0  0  0  0  0  0  0
    3.3531    1.2227   -2.7491 C   0  0  0  0  0  0  0  0  0  0  0  0
    3.0382    0.2853   -1.8707 N   0  0  0  0  0  4  0  0  0  0  0  0
    3.1906   -1.1350   -2.2204 C   0  0  0  0  0  0  0  0  0  0  0  0
    4.3211   -1.7698   -1.4473 C   0  0  0  0  0  0  0  0  0  0  0  0
    5.6039   -1.1980   -1.4194 C   0  0  0  0  0  0  0  0  0  0  0  0
    6.6363   -1.8093   -0.7057 C   0  0  0  0  0  0  0  0  0  0  0  0
    6.4053   -3.0010   -0.0237 C   0  0  0  0  0  0  0  0  0  0  0  0
    5.1443   -3.5897   -0.0590 C   0  0  0  0  0  0  0  0  0  0  0  0
    4.1086   -2.9828   -0.7707 C   0  0  0  0  0  0  0  0  0  0  0  0
    1.5660    0.3161    1.1977 H   0  0  0  0  0  0  0  0  0  0  0  0
    1.4967   -0.9835    0.0197 H   0  0  0  0  0  0  0  0  0  0  0  0
    3.0166   -0.6275    0.8804 H   0  0  0  0  0  0  0  0  0  0  0  0
    2.6258    3.9965    0.4433 H   0  0  0  0  0  0  0  0  0  0  0  0
    2.1885    2.6020    1.4254 H   0  0  0  0  0  0  0  0  0  0  0  0
    0.3479    3.8543   -0.6964 H   0  0  0  0  0  0  0  0  0  0  0  0
    0.2777    4.1837    1.0615 H   0  0  0  0  0  0  0  0  0  0  0  0
   -2.2560    1.2853    2.7718 H   0  0  0  0  0  0  0  0  0  0  0  0
   -0.9409    0.3677    2.0583 H   0  0  0  0  0  0  0  0  0  0  0  0
   -2.5293   -1.1624    3.1797 H   0  0  0  0  0  0  0  0  0  0  0  0
   -1.3459   -1.9682    1.1353 H   0  0  0  0  0  0  0  0  0  0  0  0
   -2.9474   -2.6932    1.2564 H   0  0  0  0  0  0  0  0  0  0  0  0
   -2.5209   -1.8907   -1.0655 H   0  0  0  0  0  0  0  0  0  0  0  0
   -4.8506   -1.8209   -0.2003 H   0  0  0  0  0  0  0  0  0  0  0  0
   -4.5640   -0.4927   -1.3203 H   0  0  0  0  0  0  0  0  0  0  0  0
   -6.4837    1.1293    1.4923 H   0  0  0  0  0  0  0  0  0  0  0  0
   -6.4806    0.8294   -0.2520 H   0  0  0  0  0  0  0  0  0  0  0  0
   -6.7699   -0.5045    0.8747 H   0  0  0  0  0  0  0  0  0  0  0  0
   -4.8559   -1.3868    2.3324 H   0  0  0  0  0  0  0  0  0  0  0  0
   -4.5724    0.2385    2.9477 H   0  0  0  0  0  0  0  0  0  0  0  0
   -4.1598    1.8777   -0.4197 H   0  0  0  0  0  0  0  0  0  0  0  0
   -4.1593    2.1761    1.3105 H   0  0  0  0  0  0  0  0  0  0  0  0
   -2.2488    0.5516   -1.4969 H   0  0  0  0  0  0  0  0  0  0  0  0
   -0.9348   -0.0679   -0.5131 H   0  0  0  0  0  0  0  0  0  0  0  0
    3.7457    1.0427   -3.7429 H   0  0  0  0  0  0  0  0  0  0  0  0
    2.2357   -1.6393   -2.0320 H   0  0  0  0  0  0  0  0  0  0  0  0
    3.3930   -1.2422   -3.2935 H   0  0  0  0  0  0  0  0  0  0  0  0
    5.8304   -0.2765   -1.9509 H   0  0  0  0  0  0  0  0  0  0  0  0
    7.6290   -1.3625   -0.6854 H   0  0  0  0  0  0  0  0  0  0  0  0
    7.2134   -3.4784    0.5277 H   0  0  0  0  0  0  0  0  0  0  0  0
    4.9733   -4.5287    0.4645 H   0  0  0  0  0  0  0  0  0  0  0  0
    3.1382   -3.4776   -0.7867 H   0  0  0  0  0  0  0  0  0  0  0  0
  1  2  1  0
  2  3  2  0
  3  4  1  0
  4  5  1  0
  5  6  1  0
  6  7  1  0
  7  8  2  0
  7  9  1  0
  9 10  1  0
 10 11  1  0
 11 12  1  0
 12 13  1  0
 13 14  1  0
 14 15  1  0
 15 16  1  0
 15 17  1  0
 15 18  1  0
 13 19  1  0
  3 20  1  0
 20 21  1  0
 21 22  2  0
 22 23  1  0
 23 24  1  0
 24 25  2  0
 25 26  1  0
 26 27  2  0
 27 28  1  0
 28 29  2  0
 22  2  1  0
 29 24  1  0
 18  9  1  0
 19  9  1  0
 17 11  1  0
  1 30  1  0
  1 31  1  0
  1 32  1  0
  4 33  1  0
  4 34  1  0
  5 35  1  0
  5 36  1  0
 10 37  1  0
 10 38  1  0
 11 39  1  0
 12 40  1  0
 12 41  1  0
 13 42  1  0
 14 43  1  0
 14 44  1  0
 16 45  1  0
 16 46  1  0
 16 47  1  0
 17 48  1  0
 17 49  1  0
 18 50  1  0
 18 51  1  0
 19 52  1  0
 19 53  1  0
 21 54  1  0
 23 55  1  0
 23 56  1  0
 25 57  1  0
 26 58  1  0
 27 59  1  0
 28 60  1  0
 29 61  1  0
M  CHG  1  22   1
M  END
$$$$
