
     RDKit          3D

 42 44  0  0  0  0  0  0  0  0999 V2000
   -1.7882    0.5193   -4.1811 C   0  0  0  0  0  0  0  0  0  0  0  0
   -2.4291    0.2460   -2.8788 C   0  0  0  0  0  0  0  0  0  0  0  0
   -3.7508   -0.0547   -2.9131 O   0  0  0  0  0  0  0  0  0  0  0  0
   -4.2023   -0.3005   -1.6357 N   0  0  0  0  0  0  0  0  0  0  0  0
   -3.1414   -0.1573   -0.8283 C   0  0  0  0  0  0  0  0  0  0  0  0
   -3.2797   -0.4240    0.5957 C   0  0  0  0  0  0  0  0  0  0  0  0
   -4.0088    0.4695    1.3883 C   0  0  0  0  0  0  0  0  0  0  0  0
   -4.5401    1.5762    0.8478 F   0  0  0  0  0  0  0  0  0  0  0  0
   -4.1618    0.2683    2.7582 C   0  0  0  0  0  0  0  0  0  0  0  0
   -3.5817   -0.8439    3.3617 C   0  0  0  0  0  0  0  0  0  0  0  0
   -2.8484   -1.7462    2.5900 C   0  0  0  0  0  0  0  0  0  0  0  0
   -2.6964   -1.5399    1.2131 C   0  0  0  0  0  0  0  0  0  0  0  0
   -1.7549   -2.6945    0.3351 Cl  0  0  0  0  0  0  0  0  0  0  0  0
   -1.9825    0.2277   -1.5721 C   0  0  0  0  0  0  0  0  0  0  0  0
   -0.6179    0.5002   -1.1664 C   0  0  0  0  0  0  0  0  0  0  0  0
    0.3290    0.3802   -1.9410 O   0  0  0  0  0  0  0  0  0  0  0  0
   -0.4576    0.9518    0.1352 N   0  0  0  0  0  0  0  0  0  0  0  0
    0.7043    1.1207    0.8512 C   0  0  0  0  0  0  0  0  0  0  0  0
    0.5620    1.6019    2.4432 S   0  0  0  0  0  0  0  0  0  0  0  0
    1.8702    0.8675    0.1814 N   0  0  0  0  0  0  0  0  0  0  0  0
    3.2327    0.8869    0.7265 C   0  0  0  0  0  0  0  0  0  0  0  0
    3.5769   -0.4342    1.4293 C   0  0  0  0  0  0  0  0  0  0  0  0
    3.8461   -1.4510    0.3297 C   0  0  0  0  0  0  0  0  0  0  0  0
    4.7326   -0.5420   -0.9210 S   0  0  0  0  0  6  0  0  0  0  0  0
    6.1529   -0.7259   -0.7040 O   0  0  0  0  0  0  0  0  0  0  0  0
    4.1098   -0.7875   -2.2042 O   0  0  0  0  0  0  0  0  0  0  0  0
    4.2854    1.0914   -0.3634 C   0  0  0  0  0  0  0  0  0  0  0  0
   -1.2437    1.4681   -4.1511 H   0  0  0  0  0  0  0  0  0  0  0  0
   -2.5293    0.5829   -4.9841 H   0  0  0  0  0  0  0  0  0  0  0  0
   -1.0826   -0.2781   -4.4335 H   0  0  0  0  0  0  0  0  0  0  0  0
   -4.7300    0.9845    3.3455 H   0  0  0  0  0  0  0  0  0  0  0  0
   -3.6974   -1.0078    4.4310 H   0  0  0  0  0  0  0  0  0  0  0  0
   -2.3964   -2.6126    3.0694 H   0  0  0  0  0  0  0  0  0  0  0  0
   -1.2835    1.1747    0.6704 H   0  0  0  0  0  0  0  0  0  0  0  0
    1.7535    0.5874   -0.7980 H   0  0  0  0  0  0  0  0  0  0  0  0
    3.2908    1.7181    1.4368 H   0  0  0  0  0  0  0  0  0  0  0  0
    4.4860   -0.2965    2.0280 H   0  0  0  0  0  0  0  0  0  0  0  0
    2.7873   -0.7854    2.1001 H   0  0  0  0  0  0  0  0  0  0  0  0
    2.9148   -1.8166   -0.1124 H   0  0  0  0  0  0  0  0  0  0  0  0
    4.4511   -2.2921    0.6741 H   0  0  0  0  0  0  0  0  0  0  0  0
    3.9299    1.6850   -1.2090 H   0  0  0  0  0  0  0  0  0  0  0  0
    5.1892    1.5448    0.0556 H   0  0  0  0  0  0  0  0  0  0  0  0
  1  2  1  0
  2  3  1  0
  3  4  1  0
  4  5  2  0
  5  6  1  0
  6  7  2  0
  7  8  1  0
  7  9  1  0
  9 10  2  0
 10 11  1  0
 11 12  2  0
 12 13  1  0
  5 14  1  0
 14 15  1  0
 15 16  2  0
 15 17  1  0
 17 18  1  0
 18 19  2  0
 18 20  1  0
 20 21  1  0
 21 22  1  0
 22 23  1  0
 23 24  1  0
 24 25  2  0
 24 26  2  0
 24 27  1  0
 14  2  2  0
 27 21  1  0
 12  6  1  0
  1 28  1  0
  1 29  1  0
  1 30  1  0
  9 31  1  0
 10 32  1  0
 11 33  1  0
 17 34  1  0
 20 35  1  0
 21 36  1  0
 22 37  1  0
 22 38  1  0
 23 39  1  0
 23 40  1  0
 27 41  1  0
 27 42  1  0
M  END
$$$$
