
     RDKit          3D

 41 41  0  0  0  0  0  0  0  0999 V2000
    4.3706   -1.5428    3.3530 C   0  0  0  0  0  0  0  0  0  0  0  0
    3.8206   -0.6482    2.2536 C   0  0  0  0  0  0  0  0  0  0  0  0
    2.3287   -0.8921    2.0271 C   0  0  0  0  0  0  0  0  0  0  0  0
    1.7791    0.0097    0.9187 C   0  0  0  0  0  0  0  0  0  0  0  0
    0.2816   -0.2318    0.6997 C   0  0  0  0  0  0  0  0  0  0  0  0
   -0.3054    0.5312   -0.5133 C   0  0  0  0  0  0  0  0  0  0  0  0
   -0.1688    2.0486   -0.3424 C   0  0  0  0  0  0  0  0  0  0  0  0
   -0.8169    2.8085   -1.4849 C   0  0  0  0  0  0  0  0  0  0  0  0
   -0.4051    3.9594   -1.9371 N   0  0  0  0  0  0  0  0  0  0  0  0
    0.7264    4.4171   -1.2559 O   0  0  0  0  0  0  0  0  0  0  0  0
   -2.0559    2.2452   -2.0748 C   0  0  0  0  0  0  0  0  0  0  0  0
   -2.5269    1.0431   -1.7055 C   0  0  0  0  0  0  0  0  0  0  0  0
   -3.8694    0.5759   -2.2063 C   0  0  0  0  0  0  0  0  0  0  0  0
   -1.7850    0.1232   -0.7456 C   0  0  0  0  0  0  0  0  0  0  0  0
   -1.8028   -1.3124   -1.2867 C   0  0  0  0  0  0  0  0  0  0  0  0
   -1.3743   -1.6606   -2.3794 O   0  0  0  0  0  0  0  0  0  0  0  0
   -2.3605   -2.1512   -0.3655 O   0  0  0  0  0  0  0  0  0  0  0  0
   -2.4104   -3.5166   -0.7808 C   0  0  0  0  0  0  0  0  0  0  0  0
    5.4384   -1.3518    3.4983 H   0  0  0  0  0  0  0  0  0  0  0  0
    4.2462   -2.6000    3.0975 H   0  0  0  0  0  0  0  0  0  0  0  0
    3.8597   -1.3561    4.3030 H   0  0  0  0  0  0  0  0  0  0  0  0
    4.3738   -0.8367    1.3261 H   0  0  0  0  0  0  0  0  0  0  0  0
    3.9898    0.4003    2.5250 H   0  0  0  0  0  0  0  0  0  0  0  0
    1.7799   -0.7053    2.9582 H   0  0  0  0  0  0  0  0  0  0  0  0
    2.1656   -1.9436    1.7609 H   0  0  0  0  0  0  0  0  0  0  0  0
    1.9566    1.0551    1.1937 H   0  0  0  0  0  0  0  0  0  0  0  0
    2.3233   -0.1824   -0.0136 H   0  0  0  0  0  0  0  0  0  0  0  0
   -0.2664    0.0460    1.6091 H   0  0  0  0  0  0  0  0  0  0  0  0
    0.1283   -1.3083    0.5586 H   0  0  0  0  0  0  0  0  0  0  0  0
    0.2777    0.2443   -1.4011 H   0  0  0  0  0  0  0  0  0  0  0  0
   -0.6369    2.3835    0.5910 H   0  0  0  0  0  0  0  0  0  0  0  0
    0.8926    2.3072   -0.2959 H   0  0  0  0  0  0  0  0  0  0  0  0
    0.9175    5.2578   -1.7118 H   0  0  0  0  0  0  0  0  0  0  0  0
   -2.5827    2.8902   -2.7707 H   0  0  0  0  0  0  0  0  0  0  0  0
   -4.3999    1.3632   -2.7531 H   0  0  0  0  0  0  0  0  0  0  0  0
   -4.5045    0.2789   -1.3652 H   0  0  0  0  0  0  0  0  0  0  0  0
   -3.7613   -0.2768   -2.8834 H   0  0  0  0  0  0  0  0  0  0  0  0
   -2.3270    0.1496    0.2096 H   0  0  0  0  0  0  0  0  0  0  0  0
   -2.8716   -4.0980    0.0222 H   0  0  0  0  0  0  0  0  0  0  0  0
   -1.4004   -3.9022   -0.9514 H   0  0  0  0  0  0  0  0  0  0  0  0
   -3.0242   -3.6214   -1.6809 H   0  0  0  0  0  0  0  0  0  0  0  0
  1  2  1  0
  2  3  1  0
  3  4  1  0
  4  5  1  0
  5  6  1  0
  6  7  1  0
  7  8  1  0
  8  9  2  3
  9 10  1  0
  8 11  1  0
 11 12  2  0
 12 13  1  0
 12 14  1  0
 14 15  1  0
 15 16  2  0
 15 17  1  0
 17 18  1  0
 14  6  1  0
  1 19  1  0
  1 20  1  0
  1 21  1  0
  2 22  1  0
  2 23  1  0
  3 24  1  0
  3 25  1  0
  4 26  1  0
  4 27  1  0
  5 28  1  0
  5 29  1  0
  6 30  1  0
  7 31  1  0
  7 32  1  0
 10 33  1  0
 11 34  1  0
 13 35  1  0
 13 36  1  0
 13 37  1  0
 14 38  1  0
 18 39  1  0
 18 40  1  0
 18 41  1  0
M  END
$$$$
