
     RDKit          3D

 43 45  0  0  0  0  0  0  0  0999 V2000
    7.3448    1.2308    0.1895 C   0  0  0  0  0  0  0  0  0  0  0  0
    5.8841    0.9167   -0.0198 C   0  0  0  0  0  0  0  0  0  0  0  0
    5.5293    0.0647   -1.1946 C   0  0  0  0  0  0  0  0  0  0  0  0
    4.2236   -0.2085   -1.3822 C   0  0  0  0  0  0  0  0  0  0  0  0
    3.7929   -1.0574   -2.5396 C   0  0  0  0  0  0  0  0  0  0  0  0
    3.2966    0.3242   -0.4640 N   0  0  0  0  0  0  0  0  0  0  0  0
    1.9222    0.2756   -0.3194 C   0  0  0  0  0  0  0  0  0  0  0  0
    0.8210   -0.5490   -1.3710 S   0  0  0  0  0  0  0  0  0  0  0  0
   -0.7587   -0.1509   -0.5633 C   0  0  0  0  0  0  0  0  0  0  0  0
   -1.9616   -0.6763   -1.3447 C   0  0  0  0  0  0  0  0  0  0  0  0
   -1.8459   -1.2012   -2.4536 O   0  0  0  0  0  0  0  0  0  0  0  0
   -3.2257   -0.5035   -0.7507 N   0  0  0  0  0  0  0  0  0  0  0  0
   -4.3848   -1.0088   -1.4864 C   0  0  0  0  0  0  0  0  0  0  0  0
   -3.4302   -0.0256    0.6322 C   0  0  0  0  0  0  0  0  0  0  0  0
   -4.7299    0.7665    0.8588 C   0  0  0  0  0  0  0  0  0  0  0  0
   -4.7828    1.0415    2.3556 C   0  0  0  0  0  0  0  0  0  0  0  0
   -4.1787   -0.4567    3.1169 S   0  0  0  0  0  6  0  0  0  0  0  0
   -3.1165   -0.1113    4.0366 O   0  0  0  0  0  0  0  0  0  0  0  0
   -5.3132   -1.2662    3.5088 O   0  0  0  0  0  0  0  0  0  0  0  0
   -3.4560   -1.1703    1.6499 C   0  0  0  0  0  0  0  0  0  0  0  0
    1.5451    0.9559    0.7383 N   0  0  0  0  0  0  0  0  0  0  0  0
    2.6657    1.4812    1.3199 N   0  0  0  0  0  0  0  0  0  0  0  0
    3.7165    1.1136    0.6144 C   0  0  0  0  0  0  0  0  0  0  0  0
    5.0312    1.4076    0.8259 N   0  0  0  0  0  0  0  0  0  0  0  0
    7.6403    0.9211    1.1966 H   0  0  0  0  0  0  0  0  0  0  0  0
    7.9767    0.7142   -0.5374 H   0  0  0  0  0  0  0  0  0  0  0  0
    7.4974    2.3094    0.0900 H   0  0  0  0  0  0  0  0  0  0  0  0
    6.3201   -0.2960   -1.8402 H   0  0  0  0  0  0  0  0  0  0  0  0
    3.1335   -0.4992   -3.2111 H   0  0  0  0  0  0  0  0  0  0  0  0
    3.2908   -1.9660   -2.1939 H   0  0  0  0  0  0  0  0  0  0  0  0
    4.6490   -1.3837   -3.1418 H   0  0  0  0  0  0  0  0  0  0  0  0
   -0.7500   -0.6036    0.4317 H   0  0  0  0  0  0  0  0  0  0  0  0
   -0.8545    0.9370   -0.4879 H   0  0  0  0  0  0  0  0  0  0  0  0
   -5.0741   -0.1803   -1.6718 H   0  0  0  0  0  0  0  0  0  0  0  0
   -4.8817   -1.7797   -0.8910 H   0  0  0  0  0  0  0  0  0  0  0  0
   -4.1163   -1.4424   -2.4530 H   0  0  0  0  0  0  0  0  0  0  0  0
   -2.6032    0.6442    0.8927 H   0  0  0  0  0  0  0  0  0  0  0  0
   -4.7510    1.6945    0.2787 H   0  0  0  0  0  0  0  0  0  0  0  0
   -5.6078    0.1747    0.5739 H   0  0  0  0  0  0  0  0  0  0  0  0
   -5.7935    1.2558    2.7091 H   0  0  0  0  0  0  0  0  0  0  0  0
   -4.1073    1.8562    2.6316 H   0  0  0  0  0  0  0  0  0  0  0  0
   -2.4594   -1.5535    1.8800 H   0  0  0  0  0  0  0  0  0  0  0  0
   -4.0981   -1.9953    1.3281 H   0  0  0  0  0  0  0  0  0  0  0  0
  1  2  1  0
  2  3  1  0
  3  4  2  0
  4  5  1  0
  4  6  1  0
  6  7  1  0
  7  8  1  0
  8  9  1  0
  9 10  1  0
 10 11  2  0
 10 12  1  0
 12 13  1  0
 12 14  1  0
 14 15  1  0
 15 16  1  0
 16 17  1  0
 17 18  2  0
 17 19  2  0
 17 20  1  0
  7 21  2  0
 21 22  1  0
 22 23  2  0
 23 24  1  0
 24  2  2  0
 23  6  1  0
 20 14  1  0
  1 25  1  0
  1 26  1  0
  1 27  1  0
  3 28  1  0
  5 29  1  0
  5 30  1  0
  5 31  1  0
  9 32  1  0
  9 33  1  0
 13 34  1  0
 13 35  1  0
 13 36  1  0
 14 37  1  0
 15 38  1  0
 15 39  1  0
 16 40  1  0
 16 41  1  0
 20 42  1  0
 20 43  1  0
M  END
$$$$
