
     RDKit          3D

 49 51  0  0  0  0  0  0  0  0999 V2000
   -7.7694   -0.6514    1.2870 C   0  0  0  0  0  0  0  0  0  0  0  0
   -6.9654    0.5755    0.9405 C   0  0  0  0  0  0  0  0  0  0  0  0
   -7.0183    1.5742    1.6580 O   0  0  0  0  0  0  0  0  0  0  0  0
   -6.1922    0.5185   -0.2095 N   0  0  0  0  0  0  0  0  0  0  0  0
   -5.7216   -0.7333   -0.8147 C   0  0  0  0  0  0  0  0  0  0  0  0
   -4.2905   -1.0591   -0.3336 C   0  0  0  0  0  0  0  0  0  0  0  0
   -3.3819    0.0825   -0.5992 N   0  0  0  0  0  0  0  0  0  0  0  0
   -2.0047   -0.1218   -0.4209 C   0  0  0  0  0  0  0  0  0  0  0  0
   -1.0909    0.7807   -0.9796 C   0  0  0  0  0  0  0  0  0  0  0  0
    0.2929    0.6109   -0.8379 C   0  0  0  0  0  0  0  0  0  0  0  0
    0.8209   -0.4784   -0.1371 C   0  0  0  0  0  0  0  0  0  0  0  0
    2.2285   -0.5411   -0.0564 N   0  0  0  0  0  0  0  0  0  0  0  0
    3.1155   -1.4463    0.4747 C   0  0  0  0  0  0  0  0  0  0  0  0
    2.8449   -2.9124    1.2267 S   0  0  0  0  0  0  0  0  0  0  0  0
    4.4506   -1.0764    0.3641 N   0  0  0  0  0  0  0  0  0  0  0  0
    5.0024    0.0588   -0.2165 C   0  0  0  0  0  0  0  0  0  0  0  0
    4.3432    0.8975   -0.8249 O   0  0  0  0  0  0  0  0  0  0  0  0
    6.4795    0.1982   -0.1103 C   0  0  0  0  0  0  0  0  0  0  0  0
    7.1585    0.8610   -1.1405 C   0  0  0  0  0  0  0  0  0  0  0  0
    8.5445    1.0133   -1.0821 C   0  0  0  0  0  0  0  0  0  0  0  0
    9.2548    0.5141    0.0089 C   0  0  0  0  0  0  0  0  0  0  0  0
    8.5817   -0.1302    1.0469 C   0  0  0  0  0  0  0  0  0  0  0  0
    7.1944   -0.2863    0.9933 C   0  0  0  0  0  0  0  0  0  0  0  0
   -0.0742   -1.3862    0.4155 C   0  0  0  0  0  0  0  0  0  0  0  0
   -1.4626   -1.2124    0.2687 C   0  0  0  0  0  0  0  0  0  0  0  0
   -3.8736    1.3721   -0.0308 C   0  0  0  0  0  0  0  0  0  0  0  0
   -5.3136    1.6529   -0.5086 C   0  0  0  0  0  0  0  0  0  0  0  0
   -8.4789   -0.4050    2.0830 H   0  0  0  0  0  0  0  0  0  0  0  0
   -8.3435   -0.9897    0.4203 H   0  0  0  0  0  0  0  0  0  0  0  0
   -7.1075   -1.4438    1.6453 H   0  0  0  0  0  0  0  0  0  0  0  0
   -6.3880   -1.5677   -0.5856 H   0  0  0  0  0  0  0  0  0  0  0  0
   -5.7293   -0.5916   -1.9021 H   0  0  0  0  0  0  0  0  0  0  0  0
   -4.3158   -1.2760    0.7420 H   0  0  0  0  0  0  0  0  0  0  0  0
   -3.9466   -1.9535   -0.8668 H   0  0  0  0  0  0  0  0  0  0  0  0
   -1.4482    1.6242   -1.5650 H   0  0  0  0  0  0  0  0  0  0  0  0
    0.9502    1.3455   -1.2984 H   0  0  0  0  0  0  0  0  0  0  0  0
    2.6997    0.2446   -0.5097 H   0  0  0  0  0  0  0  0  0  0  0  0
    5.0786   -1.7725    0.7415 H   0  0  0  0  0  0  0  0  0  0  0  0
    6.6104    1.2585   -1.9928 H   0  0  0  0  0  0  0  0  0  0  0  0
    9.0690    1.5250   -1.8856 H   0  0  0  0  0  0  0  0  0  0  0  0
   10.3346    0.6372    0.0551 H   0  0  0  0  0  0  0  0  0  0  0  0
    9.1391   -0.5014    1.9041 H   0  0  0  0  0  0  0  0  0  0  0  0
    6.6930   -0.7587    1.8334 H   0  0  0  0  0  0  0  0  0  0  0  0
    0.2476   -2.2487    0.9825 H   0  0  0  0  0  0  0  0  0  0  0  0
   -2.1028   -1.9551    0.7348 H   0  0  0  0  0  0  0  0  0  0  0  0
   -3.8504    1.3146    1.0653 H   0  0  0  0  0  0  0  0  0  0  0  0
   -3.2488    2.2178   -0.3373 H   0  0  0  0  0  0  0  0  0  0  0  0
   -5.3261    1.7959   -1.5959 H   0  0  0  0  0  0  0  0  0  0  0  0
   -5.6896    2.5731   -0.0500 H   0  0  0  0  0  0  0  0  0  0  0  0
  1  2  1  0
  2  3  2  0
  2  4  1  0
  4  5  1  0
  5  6  1  0
  6  7  1  0
  7  8  1  0
  8  9  2  0
  9 10  1  0
 10 11  2  0
 11 12  1  0
 12 13  1  0
 13 14  2  0
 13 15  1  0
 15 16  1  0
 16 17  2  0
 16 18  1  0
 18 19  2  0
 19 20  1  0
 20 21  2  0
 21 22  1  0
 22 23  2  0
 11 24  1  0
 24 25  2  0
  7 26  1  0
 26 27  1  0
 27  4  1  0
 25  8  1  0
 23 18  1  0
  1 28  1  0
  1 29  1  0
  1 30  1  0
  5 31  1  0
  5 32  1  0
  6 33  1  0
  6 34  1  0
  9 35  1  0
 10 36  1  0
 12 37  1  0
 15 38  1  0
 19 39  1  0
 20 40  1  0
 21 41  1  0
 22 42  1  0
 23 43  1  0
 24 44  1  0
 25 45  1  0
 26 46  1  0
 26 47  1  0
 27 48  1  0
 27 49  1  0
M  END
$$$$
