
     RDKit          3D

 42 43  0  0  0  0  0  0  0  0999 V2000
   -7.2072    3.7538   -1.3390 C   0  0  0  0  0  0  0  0  0  0  0  0
   -6.1179    2.9495   -0.6947 C   0  0  0  0  0  0  0  0  0  0  0  0
   -4.8755    2.8122   -1.3244 C   0  0  0  0  0  0  0  0  0  0  0  0
   -3.8593    2.0442   -0.7437 C   0  0  0  0  0  0  0  0  0  0  0  0
   -4.0787    1.3984    0.4718 C   0  0  0  0  0  0  0  0  0  0  0  0
   -3.1790    0.6235    1.1485 O   0  0  0  0  0  0  0  0  0  0  0  0
   -1.9249    0.3913    0.5260 C   0  0  0  0  0  0  0  0  0  0  0  0
   -1.0510   -0.5197    1.3871 C   0  0  0  0  0  0  0  0  0  0  0  0
   -1.3910   -1.0236    2.4562 O   0  0  0  0  0  0  0  0  0  0  0  0
    0.2040   -0.7505    0.8380 N   0  0  0  0  0  0  0  0  0  0  0  0
    1.1469   -1.3761    1.6795 N   0  0  0  0  0  0  0  0  0  0  0  0
    2.3972   -0.7889    1.7653 C   0  0  0  0  0  0  0  0  0  0  0  0
    2.7627    0.0888    0.9820 O   0  0  0  0  0  0  0  0  0  0  0  0
    3.2601   -1.3070    2.8996 C   0  0  0  0  0  0  0  0  0  0  0  0
    3.9120   -2.9541    2.5141 S   0  0  0  0  0  0  0  0  0  0  0  0
    4.8844   -2.5167    1.1007 C   0  0  0  0  0  0  0  0  0  0  0  0
    5.8183   -1.5678    1.2518 N   0  0  0  0  0  0  0  0  0  0  0  0
    6.5248   -1.2571    0.1467 C   0  0  0  0  0  0  0  0  0  0  0  0
    6.3302   -1.8546   -1.0785 C   0  0  0  0  0  0  0  0  0  0  0  0
    7.1157   -1.4814   -2.2057 C   0  0  0  0  0  0  0  0  0  0  0  0
    7.7506   -1.1446   -3.1195 N   0  0  0  0  0  0  0  0  0  0  0  0
    5.3418   -2.8192   -1.1258 C   0  0  0  0  0  0  0  0  0  0  0  0
    5.0605   -3.5555   -2.2761 N   0  0  0  0  0  0  0  0  0  0  0  0
    4.6198   -3.1633   -0.0464 N   0  0  0  0  0  0  0  0  0  0  0  0
   -5.3203    1.5277    1.0968 C   0  0  0  0  0  0  0  0  0  0  0  0
   -6.3361    2.2919    0.5180 C   0  0  0  0  0  0  0  0  0  0  0  0
   -7.6571    3.1863   -2.1594 H   0  0  0  0  0  0  0  0  0  0  0  0
   -7.9930    4.0063   -0.6193 H   0  0  0  0  0  0  0  0  0  0  0  0
   -6.8083    4.6956   -1.7308 H   0  0  0  0  0  0  0  0  0  0  0  0
   -4.6901    3.3062   -2.2752 H   0  0  0  0  0  0  0  0  0  0  0  0
   -2.9137    1.9762   -1.2693 H   0  0  0  0  0  0  0  0  0  0  0  0
   -1.3864    1.3380    0.3971 H   0  0  0  0  0  0  0  0  0  0  0  0
   -2.0668   -0.1092   -0.4394 H   0  0  0  0  0  0  0  0  0  0  0  0
    0.6051   -0.0893    0.1695 H   0  0  0  0  0  0  0  0  0  0  0  0
    0.7486   -1.8868    2.4723 H   0  0  0  0  0  0  0  0  0  0  0  0
    4.0686   -0.5965    3.0966 H   0  0  0  0  0  0  0  0  0  0  0  0
    2.6550   -1.3677    3.8096 H   0  0  0  0  0  0  0  0  0  0  0  0
    7.2790   -0.4889    0.2914 H   0  0  0  0  0  0  0  0  0  0  0  0
    4.8872   -2.9882   -3.0995 H   0  0  0  0  0  0  0  0  0  0  0  0
    4.2795   -4.1760   -2.0751 H   0  0  0  0  0  0  0  0  0  0  0  0
   -5.5001    1.0246    2.0438 H   0  0  0  0  0  0  0  0  0  0  0  0
   -7.2954    2.3682    1.0238 H   0  0  0  0  0  0  0  0  0  0  0  0
  1  2  1  0
  2  3  2  0
  3  4  1  0
  4  5  2  0
  5  6  1  0
  6  7  1  0
  7  8  1  0
  8  9  2  0
  8 10  1  0
 10 11  1  0
 11 12  1  0
 12 13  2  0
 12 14  1  0
 14 15  1  0
 15 16  1  0
 16 17  2  0
 17 18  1  0
 18 19  2  0
 19 20  1  0
 20 21  3  0
 19 22  1  0
 22 23  1  0
 22 24  2  0
  5 25  1  0
 25 26  2  0
 26  2  1  0
 24 16  1  0
  1 27  1  0
  1 28  1  0
  1 29  1  0
  3 30  1  0
  4 31  1  0
  7 32  1  0
  7 33  1  0
 10 34  1  0
 11 35  1  0
 14 36  1  0
 14 37  1  0
 18 38  1  0
 23 39  1  0
 23 40  1  0
 25 41  1  0
 26 42  1  0
M  END
$$$$
