
     RDKit          3D

 49 52  0  0  0  0  0  0  0  0999 V2000
   -7.9055    0.0100    2.7273 C   0  0  0  0  0  0  0  0  0  0  0  0
   -7.4508    0.9358    1.7482 O   0  0  0  0  0  0  0  0  0  0  0  0
   -6.5336    0.4756    0.8440 C   0  0  0  0  0  0  0  0  0  0  0  0
   -6.1223    1.4180   -0.1013 C   0  0  0  0  0  0  0  0  0  0  0  0
   -5.1870    1.0840   -1.0842 C   0  0  0  0  0  0  0  0  0  0  0  0
   -4.6521   -0.2081   -1.1388 C   0  0  0  0  0  0  0  0  0  0  0  0
   -3.6223   -0.5759   -2.1753 C   0  0  0  0  0  0  0  0  0  0  0  0
   -2.2894   -0.4827   -1.6257 N   0  0  0  0  0  0  0  0  0  0  0  0
   -1.6184   -1.5979   -1.1589 C   0  0  0  0  0  0  0  0  0  0  0  0
   -2.0827   -2.7270   -1.3046 O   0  0  0  0  0  0  0  0  0  0  0  0
   -0.3543   -1.3136   -0.4867 C   0  0  0  0  0  0  0  0  0  0  0  0
    0.4089   -0.1462   -0.4529 C   0  0  0  0  0  0  0  0  0  0  0  0
    1.5701   -0.3195    0.3307 C   0  0  0  0  0  0  0  0  0  0  0  0
    1.6557   -1.5712    0.8477 C   0  0  0  0  0  0  0  0  0  0  0  0
    0.3990   -2.5826    0.4351 S   0  0  0  0  0  0  0  0  0  0  0  0
    2.8688   -1.7607    1.6579 C   0  0  0  0  0  0  0  0  0  0  0  0
    3.6574   -0.5037    1.4011 N   0  0  0  0  0  0  0  0  0  0  0  0
    4.8061   -0.8088    0.5287 C   0  0  0  0  0  0  0  0  0  0  0  0
    5.7654    0.3550    0.3749 C   0  0  0  0  0  0  0  0  0  0  0  0
    6.1773    0.7729   -0.8991 C   0  0  0  0  0  0  0  0  0  0  0  0
    7.0754    1.8324   -1.0415 C   0  0  0  0  0  0  0  0  0  0  0  0
    7.5760    2.4808    0.0861 C   0  0  0  0  0  0  0  0  0  0  0  0
    7.1814    2.0697    1.3576 C   0  0  0  0  0  0  0  0  0  0  0  0
    6.2842    1.0105    1.5019 C   0  0  0  0  0  0  0  0  0  0  0  0
    2.7368    0.4939    0.7417 C   0  0  0  0  0  0  0  0  0  0  0  0
   -5.0621   -1.1491   -0.1843 C   0  0  0  0  0  0  0  0  0  0  0  0
   -5.9981   -0.8110    0.7993 C   0  0  0  0  0  0  0  0  0  0  0  0
   -8.6306    0.5263    3.3639 H   0  0  0  0  0  0  0  0  0  0  0  0
   -7.0817   -0.3256    3.3659 H   0  0  0  0  0  0  0  0  0  0  0  0
   -8.4169   -0.8387    2.2612 H   0  0  0  0  0  0  0  0  0  0  0  0
   -6.5353    2.4235   -0.0702 H   0  0  0  0  0  0  0  0  0  0  0  0
   -4.8850    1.8406   -1.8043 H   0  0  0  0  0  0  0  0  0  0  0  0
   -3.8194   -1.5792   -2.5691 H   0  0  0  0  0  0  0  0  0  0  0  0
   -3.6709    0.1177   -3.0221 H   0  0  0  0  0  0  0  0  0  0  0  0
   -1.9931    0.4258   -1.3049 H   0  0  0  0  0  0  0  0  0  0  0  0
    0.1523    0.7684   -0.9707 H   0  0  0  0  0  0  0  0  0  0  0  0
    3.4139   -2.6732    1.3941 H   0  0  0  0  0  0  0  0  0  0  0  0
    2.6167   -1.8010    2.7232 H   0  0  0  0  0  0  0  0  0  0  0  0
    5.3927   -1.6282    0.9658 H   0  0  0  0  0  0  0  0  0  0  0  0
    4.4660   -1.1571   -0.4558 H   0  0  0  0  0  0  0  0  0  0  0  0
    5.8006    0.2763   -1.7903 H   0  0  0  0  0  0  0  0  0  0  0  0
    7.3869    2.1506   -2.0330 H   0  0  0  0  0  0  0  0  0  0  0  0
    8.2757    3.3048   -0.0257 H   0  0  0  0  0  0  0  0  0  0  0  0
    7.5724    2.5722    2.2383 H   0  0  0  0  0  0  0  0  0  0  0  0
    5.9822    0.6968    2.4993 H   0  0  0  0  0  0  0  0  0  0  0  0
    3.1839    1.0159   -0.1099 H   0  0  0  0  0  0  0  0  0  0  0  0
    2.4352    1.2365    1.4883 H   0  0  0  0  0  0  0  0  0  0  0  0
   -4.6475   -2.1567   -0.2004 H   0  0  0  0  0  0  0  0  0  0  0  0
   -6.2820   -1.5762    1.5139 H   0  0  0  0  0  0  0  0  0  0  0  0
  1  2  1  0
  2  3  1  0
  3  4  2  0
  4  5  1  0
  5  6  2  0
  6  7  1  0
  7  8  1  0
  8  9  1  0
  9 10  2  0
  9 11  1  0
 11 12  2  0
 12 13  1  0
 13 14  2  0
 14 15  1  0
 14 16  1  0
 16 17  1  0
 17 18  1  0
 18 19  1  0
 19 20  2  0
 20 21  1  0
 21 22  2  0
 22 23  1  0
 23 24  2  0
 17 25  1  0
  6 26  1  0
 26 27  2  0
 27  3  1  0
 15 11  1  0
 24 19  1  0
 25 13  1  0
  1 28  1  0
  1 29  1  0
  1 30  1  0
  4 31  1  0
  5 32  1  0
  7 33  1  0
  7 34  1  0
  8 35  1  0
 12 36  1  0
 16 37  1  0
 16 38  1  0
 18 39  1  0
 18 40  1  0
 20 41  1  0
 21 42  1  0
 22 43  1  0
 23 44  1  0
 24 45  1  0
 25 46  1  0
 25 47  1  0
 26 48  1  0
 27 49  1  0
M  END
$$$$
