
     RDKit          3D

 28 29  0  0  0  0  0  0  0  0999 V2000
    0.1447   -0.1875   -2.0951 O   0  0  0  0  0  0  0  0  0  0  0  0
    0.4330   -0.1029   -0.9045 C   0  0  0  0  0  0  0  0  0  0  0  0
   -0.4825    0.0433    0.1104 N   0  0  0  0  0  0  0  0  0  0  0  0
   -1.8950    0.1302    0.0741 C   0  0  0  0  0  0  0  0  0  0  0  0
   -2.5062    0.2782    1.3339 C   0  0  0  0  0  0  0  0  0  0  0  0
   -3.8943    0.3783    1.4688 C   0  0  0  0  0  0  0  0  0  0  0  0
   -4.7030    0.3323    0.3409 C   0  0  0  0  0  0  0  0  0  0  0  0
   -4.1195    0.1864   -0.9146 C   0  0  0  0  0  0  0  0  0  0  0  0
   -2.7297    0.0860   -1.0516 C   0  0  0  0  0  0  0  0  0  0  0  0
   -2.3157   -0.0523   -2.3443 O   0  0  0  0  0  0  0  0  0  0  0  0
    1.8804   -0.1604   -0.5032 C   0  0  0  0  0  0  0  0  0  0  0  0
    2.8244   -0.3098   -1.5345 C   0  0  0  0  0  0  0  0  0  0  0  0
    4.1915   -0.3728   -1.2547 C   0  0  0  0  0  0  0  0  0  0  0  0
    4.6361   -0.2872    0.0613 C   0  0  0  0  0  0  0  0  0  0  0  0
    3.7170   -0.1388    1.0996 C   0  0  0  0  0  0  0  0  0  0  0  0
    2.3473   -0.0758    0.8192 C   0  0  0  0  0  0  0  0  0  0  0  0
    1.4723    0.0706    1.8664 O   0  0  0  0  0  0  0  0  0  0  0  0
   -0.0683    0.0972    1.0385 H   0  0  0  0  0  0  0  0  0  0  0  0
   -1.9032    0.3180    2.2382 H   0  0  0  0  0  0  0  0  0  0  0  0
   -4.3392    0.4919    2.4537 H   0  0  0  0  0  0  0  0  0  0  0  0
   -5.7827    0.4091    0.4332 H   0  0  0  0  0  0  0  0  0  0  0  0
   -4.7467    0.1496   -1.8022 H   0  0  0  0  0  0  0  0  0  0  0  0
   -1.3375   -0.1151   -2.3502 H   0  0  0  0  0  0  0  0  0  0  0  0
    2.4977   -0.3787   -2.5713 H   0  0  0  0  0  0  0  0  0  0  0  0
    4.9054   -0.4886   -2.0671 H   0  0  0  0  0  0  0  0  0  0  0  0
    5.7009   -0.3364    0.2777 H   0  0  0  0  0  0  0  0  0  0  0  0
    4.0889   -0.0744    2.1184 H   0  0  0  0  0  0  0  0  0  0  0  0
    1.9838    0.1097    2.6952 H   0  0  0  0  0  0  0  0  0  0  0  0
  1  2  2  0
  2  3  1  0
  3  4  1  0
  4  5  2  0
  5  6  1  0
  6  7  2  0
  7  8  1  0
  8  9  2  0
  9 10  1  0
  2 11  1  0
 11 12  2  0
 12 13  1  0
 13 14  2  0
 14 15  1  0
 15 16  2  0
 16 17  1  0
  9  4  1  0
 16 11  1  0
  3 18  1  0
  5 19  1  0
  6 20  1  0
  7 21  1  0
  8 22  1  0
 10 23  1  0
 12 24  1  0
 13 25  1  0
 14 26  1  0
 15 27  1  0
 17 28  1  0
M  END
$$$$
