
     RDKit          3D

 57 61  0  0  0  0  0  0  0  0999 V2000
   -3.9207    2.8670   -2.3121 C   0  0  0  0  0  0  0  0  0  0  0  0
   -3.8817    3.3117   -0.8990 N   0  0  0  0  0  0  0  0  0  0  0  0
   -4.1877    4.7563   -0.7734 C   0  0  0  0  0  0  0  0  0  0  0  0
   -4.7908    2.3404    0.1862 S   0  0  0  0  0  6  0  0  0  0  0  0
   -6.0801    2.0916   -0.4269 O   0  0  0  0  0  0  0  0  0  0  0  0
   -4.6839    2.9117    1.5124 O   0  0  0  0  0  0  0  0  0  0  0  0
   -3.8686    0.8238    0.1911 C   0  0  0  0  0  0  0  0  0  0  0  0
   -4.3894   -0.3283   -0.3929 C   0  0  0  0  0  0  0  0  0  0  0  0
   -3.6307   -1.5103   -0.4009 C   0  0  0  0  0  0  0  0  0  0  0  0
   -2.3458   -1.5813    0.1704 C   0  0  0  0  0  0  0  0  0  0  0  0
   -1.5823   -2.7519    0.1483 N   0  0  0  0  0  0  0  0  0  0  0  0
   -1.8798   -3.8820   -0.7465 C   0  0  0  0  0  0  0  0  0  0  0  0
   -2.2141   -5.0319    0.1958 C   0  0  0  0  0  0  0  0  0  0  0  0
   -1.2325   -4.8036    1.3287 C   0  0  0  0  0  0  0  0  0  0  0  0
   -1.2253   -3.2832    1.4869 C   0  0  0  0  0  0  0  0  0  0  0  0
   -1.8695   -0.3893    0.7739 C   0  0  0  0  0  0  0  0  0  0  0  0
   -0.5319   -0.3068    1.3975 C   0  0  0  0  0  0  0  0  0  0  0  0
   -0.4773   -0.2875    2.6201 O   0  0  0  0  0  0  0  0  0  0  0  0
    0.4881   -0.2029    0.4843 N   0  0  0  0  0  0  0  0  0  0  0  0
    1.8166   -0.0127    0.7612 C   0  0  0  0  0  0  0  0  0  0  0  0
    2.6775    0.2435   -0.1921 N   0  0  0  0  0  0  0  0  0  0  0  0
    3.9402    0.4669    0.3551 C   0  0  0  0  0  0  0  0  0  0  0  0
    4.0097    0.3010    1.7407 C   0  0  0  0  0  0  0  0  0  0  0  0
    5.2036    0.4681    2.4589 C   0  0  0  0  0  0  0  0  0  0  0  0
    6.3526    0.8489    1.7561 C   0  0  0  0  0  0  0  0  0  0  0  0
    6.3277    1.0524    0.3699 C   0  0  0  0  0  0  0  0  0  0  0  0
    7.4725    1.4618   -0.3346 C   0  0  0  0  0  0  0  0  0  0  0  0
    7.4260    1.6723   -1.7171 C   0  0  0  0  0  0  0  0  0  0  0  0
    6.2432    1.4597   -2.4202 C   0  0  0  0  0  0  0  0  0  0  0  0
    5.0934    1.0494   -1.7416 C   0  0  0  0  0  0  0  0  0  0  0  0
    5.1234    0.8510   -0.3451 C   0  0  0  0  0  0  0  0  0  0  0  0
    2.4486   -0.1059    2.3350 S   0  0  0  0  0  0  0  0  0  0  0  0
   -2.6176    0.7987    0.7979 C   0  0  0  0  0  0  0  0  0  0  0  0
   -3.2308    3.4723   -2.9138 H   0  0  0  0  0  0  0  0  0  0  0  0
   -3.5945    1.8291   -2.4079 H   0  0  0  0  0  0  0  0  0  0  0  0
   -4.9280    2.9741   -2.7278 H   0  0  0  0  0  0  0  0  0  0  0  0
   -5.2413    4.9534   -0.9948 H   0  0  0  0  0  0  0  0  0  0  0  0
   -3.9462    5.1129    0.2336 H   0  0  0  0  0  0  0  0  0  0  0  0
   -3.5712    5.3312   -1.4739 H   0  0  0  0  0  0  0  0  0  0  0  0
   -5.3809   -0.3250   -0.8413 H   0  0  0  0  0  0  0  0  0  0  0  0
   -4.0964   -2.3858   -0.8423 H   0  0  0  0  0  0  0  0  0  0  0  0
   -2.6636   -3.7134   -1.4889 H   0  0  0  0  0  0  0  0  0  0  0  0
   -0.9628   -4.1176   -1.3051 H   0  0  0  0  0  0  0  0  0  0  0  0
   -2.0880   -6.0102   -0.2764 H   0  0  0  0  0  0  0  0  0  0  0  0
   -3.2457   -4.9450    0.5580 H   0  0  0  0  0  0  0  0  0  0  0  0
   -1.5164   -5.3169    2.2538 H   0  0  0  0  0  0  0  0  0  0  0  0
   -0.2328   -5.1563    1.0401 H   0  0  0  0  0  0  0  0  0  0  0  0
   -0.2310   -2.9469    1.7929 H   0  0  0  0  0  0  0  0  0  0  0  0
   -1.9586   -2.9908    2.2497 H   0  0  0  0  0  0  0  0  0  0  0  0
    0.2706   -0.2057   -0.5019 H   0  0  0  0  0  0  0  0  0  0  0  0
    5.2330    0.3184    3.5375 H   0  0  0  0  0  0  0  0  0  0  0  0
    7.2751    0.9968    2.3160 H   0  0  0  0  0  0  0  0  0  0  0  0
    8.4084    1.6292    0.1878 H   0  0  0  0  0  0  0  0  0  0  0  0
    8.3194    1.9984   -2.2468 H   0  0  0  0  0  0  0  0  0  0  0  0
    6.2124    1.6203   -3.4969 H   0  0  0  0  0  0  0  0  0  0  0  0
    4.1734    0.8879   -2.2972 H   0  0  0  0  0  0  0  0  0  0  0  0
   -2.2176    1.6908    1.2776 H   0  0  0  0  0  0  0  0  0  0  0  0
  1  2  1  0
  2  3  1  0
  2  4  1  0
  4  5  2  0
  4  6  2  0
  4  7  1  0
  7  8  2  0
  8  9  1  0
  9 10  2  0
 10 11  1  0
 11 12  1  0
 12 13  1  0
 13 14  1  0
 14 15  1  0
 10 16  1  0
 16 17  1  0
 17 18  2  0
 17 19  1  0
 19 20  1  0
 20 21  2  0
 21 22  1  0
 22 23  2  0
 23 24  1  0
 24 25  2  0
 25 26  1  0
 26 27  2  0
 27 28  1  0
 28 29  2  0
 29 30  1  0
 30 31  2  0
 23 32  1  0
 16 33  2  0
 33  7  1  0
 15 11  1  0
 32 20  1  0
 31 22  1  0
 31 26  1  0
  1 34  1  0
  1 35  1  0
  1 36  1  0
  3 37  1  0
  3 38  1  0
  3 39  1  0
  8 40  1  0
  9 41  1  0
 12 42  1  0
 12 43  1  0
 13 44  1  0
 13 45  1  0
 14 46  1  0
 14 47  1  0
 15 48  1  0
 15 49  1  0
 19 50  1  0
 24 51  1  0
 25 52  1  0
 27 53  1  0
 28 54  1  0
 29 55  1  0
 30 56  1  0
 33 57  1  0
M  END
$$$$
