
     RDKit          3D

 69 71  0  0  0  0  0  0  0  0999 V2000
   -0.1367   -0.2799    2.8635 C   0  0  0  0  0  0  0  0  0  0  0  0
   -1.3271    0.0897    3.7389 C   0  0  0  0  0  0  0  0  0  0  0  0
   -2.6822   -0.0974    3.0461 C   0  0  0  0  0  0  0  0  0  0  0  0
   -2.8761    0.7945    1.8946 N   0  0  0  0  0  0  0  0  0  0  0  0
   -3.2607    2.1852    2.1733 C   0  0  0  0  0  0  0  0  0  0  0  0
   -4.7222    2.3409    2.6076 C   0  0  0  0  0  0  0  0  0  0  0  0
   -5.7188    1.9590    1.5245 C   0  0  0  0  0  0  0  0  0  0  0  0
   -2.6128    0.2777    0.6212 C   0  0  0  0  0  0  0  0  0  0  0  0
   -2.3161   -0.9094    0.4576 O   0  0  0  0  0  0  0  0  0  0  0  0
   -2.7020    1.2445   -0.5708 C   0  0  0  0  0  0  0  0  0  0  0  0
   -2.4062    0.5543   -1.8276 N   0  0  0  0  0  0  0  0  0  0  0  0
   -1.0600    0.4613   -2.2027 C   0  0  0  0  0  0  0  0  0  0  0  0
   -0.1751    1.0382   -1.5593 O   0  0  0  0  0  0  0  0  0  0  0  0
   -0.7585   -0.2955   -3.3438 N   0  0  0  0  0  0  0  0  0  0  0  0
    0.6509   -0.4285   -3.7022 C   0  0  0  0  0  0  0  0  0  0  0  0
    1.3474   -1.4954   -2.8503 C   0  0  0  0  0  0  0  0  0  0  0  0
    2.7989   -1.7554   -3.2604 C   0  0  0  0  0  0  0  0  0  0  0  0
    3.7302   -0.5361   -3.2347 C   0  0  0  0  0  0  0  0  0  0  0  0
    3.8013    0.2032   -1.8972 C   0  0  0  0  0  0  0  0  0  0  0  0
    4.4760   -0.5898   -0.7855 C   0  0  0  0  0  0  0  0  0  0  0  0
    5.0251   -1.6673   -0.9911 O   0  0  0  0  0  0  0  0  0  0  0  0
    4.3996    0.0805    0.4261 N   0  0  0  0  0  0  0  0  0  0  0  0
    4.9222   -0.3305    1.6698 C   0  0  0  0  0  0  0  0  0  0  0  0
    5.5678   -1.5500    1.8803 C   0  0  0  0  0  0  0  0  0  0  0  0
    6.0695   -1.8793    3.1445 C   0  0  0  0  0  0  0  0  0  0  0  0
    5.9350   -0.9893    4.2094 C   0  0  0  0  0  0  0  0  0  0  0  0
    5.2875    0.2270    4.0126 C   0  0  0  0  0  0  0  0  0  0  0  0
    4.7813    0.5535    2.7497 C   0  0  0  0  0  0  0  0  0  0  0  0
   -1.6902   -0.9953   -4.1200 C   0  0  0  0  0  0  0  0  0  0  0  0
   -1.3679   -1.6764   -5.0926 O   0  0  0  0  0  0  0  0  0  0  0  0
   -3.0438   -0.8327   -3.6690 C   0  0  0  0  0  0  0  0  0  0  0  0
   -4.3748   -1.5341   -4.4514 S   0  0  0  0  0  0  0  0  0  0  0  0
   -5.4568   -0.8893   -3.2911 C   0  0  0  0  0  0  0  0  0  0  0  0
   -4.7983   -0.1532   -2.3288 C   0  0  0  0  0  0  0  0  0  0  0  0
   -3.3918   -0.1047   -2.5633 C   0  0  0  0  0  0  0  0  0  0  0  0
   -0.0451    0.3901    2.0019 H   0  0  0  0  0  0  0  0  0  0  0  0
   -0.2227   -1.3093    2.4986 H   0  0  0  0  0  0  0  0  0  0  0  0
    0.7901   -0.2000    3.4402 H   0  0  0  0  0  0  0  0  0  0  0  0
   -1.2114    1.1257    4.0802 H   0  0  0  0  0  0  0  0  0  0  0  0
   -1.3078   -0.5441    4.6343 H   0  0  0  0  0  0  0  0  0  0  0  0
   -3.4857    0.0877    3.7666 H   0  0  0  0  0  0  0  0  0  0  0  0
   -2.7888   -1.1431    2.7337 H   0  0  0  0  0  0  0  0  0  0  0  0
   -2.6046    2.5622    2.9660 H   0  0  0  0  0  0  0  0  0  0  0  0
   -3.0797    2.8211    1.3036 H   0  0  0  0  0  0  0  0  0  0  0  0
   -4.9245    1.7468    3.5044 H   0  0  0  0  0  0  0  0  0  0  0  0
   -4.8927    3.3882    2.8826 H   0  0  0  0  0  0  0  0  0  0  0  0
   -5.5828    2.5777    0.6323 H   0  0  0  0  0  0  0  0  0  0  0  0
   -5.6180    0.9069    1.2407 H   0  0  0  0  0  0  0  0  0  0  0  0
   -6.7411    2.1106    1.8871 H   0  0  0  0  0  0  0  0  0  0  0  0
   -3.6989    1.6893   -0.6249 H   0  0  0  0  0  0  0  0  0  0  0  0
   -1.9739    2.0480   -0.4225 H   0  0  0  0  0  0  0  0  0  0  0  0
    0.7472   -0.6813   -4.7630 H   0  0  0  0  0  0  0  0  0  0  0  0
    1.1349    0.5445   -3.5651 H   0  0  0  0  0  0  0  0  0  0  0  0
    1.3062   -1.2186   -1.7928 H   0  0  0  0  0  0  0  0  0  0  0  0
    0.7934   -2.4373   -2.9273 H   0  0  0  0  0  0  0  0  0  0  0  0
    2.8083   -2.1767   -4.2716 H   0  0  0  0  0  0  0  0  0  0  0  0
    3.2006   -2.5370   -2.6072 H   0  0  0  0  0  0  0  0  0  0  0  0
    4.7377   -0.8619   -3.5237 H   0  0  0  0  0  0  0  0  0  0  0  0
    3.4124    0.1734   -4.0081 H   0  0  0  0  0  0  0  0  0  0  0  0
    4.3894    1.1190   -2.0405 H   0  0  0  0  0  0  0  0  0  0  0  0
    2.8037    0.5090   -1.5652 H   0  0  0  0  0  0  0  0  0  0  0  0
    3.9276    0.9768    0.4175 H   0  0  0  0  0  0  0  0  0  0  0  0
    5.6981   -2.2751    1.0820 H   0  0  0  0  0  0  0  0  0  0  0  0
    6.5695   -2.8343    3.2894 H   0  0  0  0  0  0  0  0  0  0  0  0
    6.3275   -1.2479    5.1898 H   0  0  0  0  0  0  0  0  0  0  0  0
    5.1701    0.9202    4.8417 H   0  0  0  0  0  0  0  0  0  0  0  0
    4.2826    1.5121    2.6245 H   0  0  0  0  0  0  0  0  0  0  0  0
   -6.5171   -1.0845   -3.3660 H   0  0  0  0  0  0  0  0  0  0  0  0
   -5.3193    0.3219   -1.5083 H   0  0  0  0  0  0  0  0  0  0  0  0
  1  2  1  0
  2  3  1  0
  3  4  1  0
  4  5  1  0
  5  6  1  0
  6  7  1  0
  4  8  1  0
  8  9  2  0
  8 10  1  0
 10 11  1  0
 11 12  1  0
 12 13  2  0
 12 14  1  0
 14 15  1  0
 15 16  1  0
 16 17  1  0
 17 18  1  0
 18 19  1  0
 19 20  1  0
 20 21  2  0
 20 22  1  0
 22 23  1  0
 23 24  2  0
 24 25  1  0
 25 26  2  0
 26 27  1  0
 27 28  2  0
 14 29  1  0
 29 30  2  0
 29 31  1  0
 31 32  1  0
 32 33  1  0
 33 34  2  0
 34 35  1  0
 35 11  1  0
 28 23  1  0
 35 31  2  0
  1 36  1  0
  1 37  1  0
  1 38  1  0
  2 39  1  0
  2 40  1  0
  3 41  1  0
  3 42  1  0
  5 43  1  0
  5 44  1  0
  6 45  1  0
  6 46  1  0
  7 47  1  0
  7 48  1  0
  7 49  1  0
 10 50  1  0
 10 51  1  0
 15 52  1  0
 15 53  1  0
 16 54  1  0
 16 55  1  0
 17 56  1  0
 17 57  1  0
 18 58  1  0
 18 59  1  0
 19 60  1  0
 19 61  1  0
 22 62  1  0
 24 63  1  0
 25 64  1  0
 26 65  1  0
 27 66  1  0
 28 67  1  0
 33 68  1  0
 34 69  1  0
M  END
$$$$
