
     RDKit          3D

 52 54  0  0  0  0  0  0  0  0999 V2000
    4.6162   -0.5300    0.9447 C   0  0  0  0  0  0  0  0  0  0  0  0
    5.4143   -0.4973   -0.2747 N   0  0  0  0  0  0  0  0  0  0  0  0
    6.1531    0.7344   -0.5706 C   0  0  0  0  0  0  0  0  0  0  0  0
    5.4987    1.6010   -1.6537 C   0  0  0  0  0  0  0  0  0  0  0  0
    4.1998    2.1218   -1.2109 C   0  0  0  0  0  0  0  0  0  0  0  0
    3.1731    2.5175   -0.8397 N   0  0  0  0  0  0  0  0  0  0  0  0
    5.3842   -1.4812   -1.2613 C   0  0  0  0  0  0  0  0  0  0  0  0
    6.1878   -1.4740   -2.1970 O   0  0  0  0  0  0  0  0  0  0  0  0
    4.3145   -2.5795   -1.1564 C   0  0  0  0  0  0  0  0  0  0  0  0
    2.9891   -2.1239   -0.8731 O   0  0  0  0  0  0  0  0  0  0  0  0
    2.4593   -1.2965   -1.8081 C   0  0  0  0  0  0  0  0  0  0  0  0
    2.9901   -0.9676   -2.8551 O   0  0  0  0  0  0  0  0  0  0  0  0
    1.1277   -0.7951   -1.3715 C   0  0  0  0  0  0  0  0  0  0  0  0
    0.4742    0.1542   -2.1978 C   0  0  0  0  0  0  0  0  0  0  0  0
   -0.7743    0.6837   -1.8479 C   0  0  0  0  0  0  0  0  0  0  0  0
   -1.3360    0.2464   -0.6653 C   0  0  0  0  0  0  0  0  0  0  0  0
   -0.7034   -0.6760    0.1414 C   0  0  0  0  0  0  0  0  0  0  0  0
    0.5259   -1.2230   -0.1783 C   0  0  0  0  0  0  0  0  0  0  0  0
   -1.5676   -0.9127    1.2912 C   0  0  0  0  0  0  0  0  0  0  0  0
   -1.3010   -1.7143    2.1670 O   0  0  0  0  0  0  0  0  0  0  0  0
   -2.6656   -0.0980    1.1494 N   0  0  0  0  0  0  0  0  0  0  0  0
   -3.7771   -0.1318    2.1081 C   0  0  0  0  0  0  0  0  0  0  0  0
   -4.1736    1.2464    2.6636 C   0  0  0  0  0  0  0  0  0  0  0  0
   -5.2593    1.9885    1.8888 C   0  0  0  0  0  0  0  0  0  0  0  0
   -6.4351    1.0920    1.5257 C   0  0  0  0  0  0  0  0  0  0  0  0
   -5.9848   -0.1613    0.7873 C   0  0  0  0  0  0  0  0  0  0  0  0
   -4.9705   -0.9561    1.6015 C   0  0  0  0  0  0  0  0  0  0  0  0
   -2.6070    0.5921   -0.0318 C   0  0  0  0  0  0  0  0  0  0  0  0
   -3.4058    1.3439   -0.5532 O   0  0  0  0  0  0  0  0  0  0  0  0
    3.7028    0.0500    0.7951 H   0  0  0  0  0  0  0  0  0  0  0  0
    5.1949   -0.0973    1.7660 H   0  0  0  0  0  0  0  0  0  0  0  0
    4.3568   -1.5540    1.2210 H   0  0  0  0  0  0  0  0  0  0  0  0
    6.2869    1.3034    0.3572 H   0  0  0  0  0  0  0  0  0  0  0  0
    7.1546    0.4469   -0.9136 H   0  0  0  0  0  0  0  0  0  0  0  0
    5.3693    1.0347   -2.5821 H   0  0  0  0  0  0  0  0  0  0  0  0
    6.1641    2.4412   -1.8833 H   0  0  0  0  0  0  0  0  0  0  0  0
    4.3017   -3.1573   -2.0885 H   0  0  0  0  0  0  0  0  0  0  0  0
    4.6143   -3.2680   -0.3593 H   0  0  0  0  0  0  0  0  0  0  0  0
    0.9514    0.4907   -3.1188 H   0  0  0  0  0  0  0  0  0  0  0  0
   -1.2775    1.4134   -2.4747 H   0  0  0  0  0  0  0  0  0  0  0  0
    0.9870   -1.9487    0.4836 H   0  0  0  0  0  0  0  0  0  0  0  0
   -3.3826   -0.6875    2.9703 H   0  0  0  0  0  0  0  0  0  0  0  0
   -3.2905    1.8880    2.7697 H   0  0  0  0  0  0  0  0  0  0  0  0
   -4.5592    1.0906    3.6808 H   0  0  0  0  0  0  0  0  0  0  0  0
   -5.6203    2.8286    2.4945 H   0  0  0  0  0  0  0  0  0  0  0  0
   -4.8431    2.4361    0.9829 H   0  0  0  0  0  0  0  0  0  0  0  0
   -6.9705    0.8052    2.4393 H   0  0  0  0  0  0  0  0  0  0  0  0
   -7.1447    1.6506    0.9048 H   0  0  0  0  0  0  0  0  0  0  0  0
   -6.8569   -0.7933    0.5824 H   0  0  0  0  0  0  0  0  0  0  0  0
   -5.5646    0.1069   -0.1868 H   0  0  0  0  0  0  0  0  0  0  0  0
   -4.6253   -1.8192    1.0198 H   0  0  0  0  0  0  0  0  0  0  0  0
   -5.4954   -1.3645    2.4759 H   0  0  0  0  0  0  0  0  0  0  0  0
  1  2  1  0
  2  3  1  0
  3  4  1  0
  4  5  1  0
  5  6  3  0
  2  7  1  0
  7  8  2  0
  7  9  1  0
  9 10  1  0
 10 11  1  0
 11 12  2  0
 11 13  1  0
 13 14  2  0
 14 15  1  0
 15 16  2  0
 16 17  1  0
 17 18  2  0
 17 19  1  0
 19 20  2  0
 19 21  1  0
 21 22  1  0
 22 23  1  0
 23 24  1  0
 24 25  1  0
 25 26  1  0
 26 27  1  0
 21 28  1  0
 28 29  2  0
 18 13  1  0
 27 22  1  0
 28 16  1  0
  1 30  1  0
  1 31  1  0
  1 32  1  0
  3 33  1  0
  3 34  1  0
  4 35  1  0
  4 36  1  0
  9 37  1  0
  9 38  1  0
 14 39  1  0
 15 40  1  0
 18 41  1  0
 22 42  1  0
 23 43  1  0
 23 44  1  0
 24 45  1  0
 24 46  1  0
 25 47  1  0
 25 48  1  0
 26 49  1  0
 26 50  1  0
 27 51  1  0
 27 52  1  0
M  END
$$$$
