
     RDKit          3D

 36 38  0  0  0  0  0  0  0  0999 V2000
    2.4910   -2.5091   -2.4171 C   0  0  0  0  0  0  0  0  0  0  0  0
    2.5239   -1.6284   -1.1726 C   0  0  0  0  0  0  0  0  0  0  0  0
    3.1686   -0.4173   -1.5308 O   0  0  0  0  0  0  0  0  0  0  0  0
    3.0103    0.5696   -0.5952 C   0  0  0  0  0  0  0  0  0  0  0  0
    3.9595    1.5939   -0.6481 C   0  0  0  0  0  0  0  0  0  0  0  0
    3.8756    2.6704    0.2292 C   0  0  0  0  0  0  0  0  0  0  0  0
    2.8316    2.7285    1.1467 C   0  0  0  0  0  0  0  0  0  0  0  0
    1.8707    1.7112    1.1888 C   0  0  0  0  0  0  0  0  0  0  0  0
    1.9476    0.6120    0.3216 C   0  0  0  0  0  0  0  0  0  0  0  0
    0.9730   -0.4273    0.3105 N   0  0  0  0  0  0  0  0  0  0  0  0
   -0.2792   -0.3314    1.0545 C   0  0  0  0  0  0  0  0  0  0  0  0
   -1.3406    0.4666    0.2968 C   0  0  0  0  0  0  0  0  0  0  0  0
   -1.0647    1.3770   -0.4840 O   0  0  0  0  0  0  0  0  0  0  0  0
   -2.7806    0.1616    0.5511 C   0  0  0  0  0  0  0  0  0  0  0  0
   -3.7285    0.6146   -0.3813 C   0  0  0  0  0  0  0  0  0  0  0  0
   -5.0880    0.3625   -0.1864 C   0  0  0  0  0  0  0  0  0  0  0  0
   -5.4983   -0.3362    0.9415 C   0  0  0  0  0  0  0  0  0  0  0  0
   -6.8014   -0.5776    1.1321 F   0  0  0  0  0  0  0  0  0  0  0  0
   -4.5750   -0.7848    1.8797 C   0  0  0  0  0  0  0  0  0  0  0  0
   -3.2124   -0.5349    1.6892 C   0  0  0  0  0  0  0  0  0  0  0  0
    1.1221   -1.5027   -0.5611 C   0  0  0  0  0  0  0  0  0  0  0  0
    0.2386   -2.3427   -0.7399 O   0  0  0  0  0  0  0  0  0  0  0  0
    2.0958   -3.5060   -2.1978 H   0  0  0  0  0  0  0  0  0  0  0  0
    3.4958   -2.6181   -2.8395 H   0  0  0  0  0  0  0  0  0  0  0  0
    1.8654   -2.0564   -3.1949 H   0  0  0  0  0  0  0  0  0  0  0  0
    3.1483   -2.1331   -0.4221 H   0  0  0  0  0  0  0  0  0  0  0  0
    4.7619    1.5507   -1.3798 H   0  0  0  0  0  0  0  0  0  0  0  0
    4.6136    3.4670    0.1874 H   0  0  0  0  0  0  0  0  0  0  0  0
    2.7519    3.5763    1.8231 H   0  0  0  0  0  0  0  0  0  0  0  0
    1.0648    1.8254    1.9047 H   0  0  0  0  0  0  0  0  0  0  0  0
   -0.1172    0.1068    2.0427 H   0  0  0  0  0  0  0  0  0  0  0  0
   -0.6483   -1.3495    1.2196 H   0  0  0  0  0  0  0  0  0  0  0  0
   -3.4094    1.1633   -1.2664 H   0  0  0  0  0  0  0  0  0  0  0  0
   -5.8242    0.7071   -0.9060 H   0  0  0  0  0  0  0  0  0  0  0  0
   -4.9240   -1.3243    2.7553 H   0  0  0  0  0  0  0  0  0  0  0  0
   -2.5178   -0.8846    2.4470 H   0  0  0  0  0  0  0  0  0  0  0  0
  1  2  1  0
  2  3  1  0
  3  4  1  0
  4  5  2  0
  5  6  1  0
  6  7  2  0
  7  8  1  0
  8  9  2  0
  9 10  1  0
 10 11  1  0
 11 12  1  0
 12 13  2  0
 12 14  1  0
 14 15  2  0
 15 16  1  0
 16 17  2  0
 17 18  1  0
 17 19  1  0
 19 20  2  0
 10 21  1  0
 21 22  2  0
 21  2  1  0
  9  4  1  0
 20 14  1  0
  1 23  1  0
  1 24  1  0
  1 25  1  0
  2 26  1  0
  5 27  1  0
  6 28  1  0
  7 29  1  0
  8 30  1  0
 11 31  1  0
 11 32  1  0
 15 33  1  0
 16 34  1  0
 19 35  1  0
 20 36  1  0
M  END
$$$$
