
     RDKit          3D

 52 54  0  0  0  0  0  0  0  0999 V2000
    2.9325   -0.0575    0.0373 O   0  0  0  0  0  0  0  0  0  0  0  0
    1.8050   -0.3720    0.3993 C   0  0  0  0  0  0  0  0  0  0  0  0
    1.4267   -1.5435    1.0217 N   0  0  0  0  0  0  0  0  0  0  0  0
    2.2435   -2.6294    1.3901 C   0  0  0  0  0  0  0  0  0  0  0  0
    3.6328   -2.6421    1.2528 C   0  0  0  0  0  0  0  0  0  0  0  0
    4.3747   -3.7607    1.6473 C   0  0  0  0  0  0  0  0  0  0  0  0
    3.7337   -4.8759    2.1812 C   0  0  0  0  0  0  0  0  0  0  0  0
    2.3489   -4.8741    2.3204 C   0  0  0  0  0  0  0  0  0  0  0  0
    1.6086   -3.7554    1.9287 C   0  0  0  0  0  0  0  0  0  0  0  0
    0.6252    0.5461    0.1789 C   0  0  0  0  0  0  0  0  0  0  0  0
    0.7919    1.6059   -0.6307 C   0  0  0  0  0  0  0  0  0  0  0  0
   -0.2967    2.6044   -0.8923 C   0  0  0  0  0  0  0  0  0  0  0  0
    0.1994    4.0423   -0.9142 C   0  0  0  0  0  0  0  0  0  0  0  0
    0.9903    4.5656    0.1222 C   0  0  0  0  0  0  0  0  0  0  0  0
    1.4200    5.8935    0.0897 C   0  0  0  0  0  0  0  0  0  0  0  0
    1.0627    6.7172   -0.9751 C   0  0  0  0  0  0  0  0  0  0  0  0
    0.2755    6.2144   -2.0084 C   0  0  0  0  0  0  0  0  0  0  0  0
   -0.1551    4.8864   -1.9782 C   0  0  0  0  0  0  0  0  0  0  0  0
   -1.4235    2.4428    0.1311 C   0  0  0  0  0  0  0  0  0  0  0  0
   -1.7153    0.9638    0.3597 C   0  0  0  0  0  0  0  0  0  0  0  0
   -2.2290    0.3819   -0.8413 O   0  0  0  0  0  0  0  0  0  0  0  0
   -3.4663   -0.3039   -0.6810 C   0  0  0  0  0  0  0  0  0  0  0  0
   -3.3624   -1.5782    0.1562 C   0  0  0  0  0  0  0  0  0  0  0  0
   -2.3468   -2.5734   -0.4015 C   0  0  0  0  0  0  0  0  0  0  0  0
   -2.3172   -3.8479    0.4322 C   0  0  0  0  0  0  0  0  0  0  0  0
   -1.2531   -4.6850    0.0082 O   0  0  0  0  0  0  0  0  0  0  0  0
   -0.5653    0.2412    0.8209 O   0  0  0  0  0  0  0  0  0  0  0  0
    0.4341   -1.6376    1.2011 H   0  0  0  0  0  0  0  0  0  0  0  0
    4.1725   -1.7941    0.8438 H   0  0  0  0  0  0  0  0  0  0  0  0
    5.4554   -3.7561    1.5329 H   0  0  0  0  0  0  0  0  0  0  0  0
    4.3122   -5.7448    2.4828 H   0  0  0  0  0  0  0  0  0  0  0  0
    1.8400   -5.7442    2.7266 H   0  0  0  0  0  0  0  0  0  0  0  0
    0.5276   -3.7869    2.0355 H   0  0  0  0  0  0  0  0  0  0  0  0
    1.7461    1.7674   -1.1298 H   0  0  0  0  0  0  0  0  0  0  0  0
   -0.6911    2.3670   -1.8904 H   0  0  0  0  0  0  0  0  0  0  0  0
    1.2835    3.9398    0.9628 H   0  0  0  0  0  0  0  0  0  0  0  0
    2.0369    6.2831    0.8953 H   0  0  0  0  0  0  0  0  0  0  0  0
    1.4000    7.7498   -1.0007 H   0  0  0  0  0  0  0  0  0  0  0  0
   -0.0023    6.8561   -2.8404 H   0  0  0  0  0  0  0  0  0  0  0  0
   -0.7691    4.5146   -2.7956 H   0  0  0  0  0  0  0  0  0  0  0  0
   -1.1400    2.8965    1.0901 H   0  0  0  0  0  0  0  0  0  0  0  0
   -2.3225    2.9605   -0.2258 H   0  0  0  0  0  0  0  0  0  0  0  0
   -2.4611    0.9020    1.1614 H   0  0  0  0  0  0  0  0  0  0  0  0
   -4.2095    0.3786   -0.2523 H   0  0  0  0  0  0  0  0  0  0  0  0
   -3.8182   -0.5621   -1.6860 H   0  0  0  0  0  0  0  0  0  0  0  0
   -4.3522   -2.0480    0.2035 H   0  0  0  0  0  0  0  0  0  0  0  0
   -3.0800   -1.3264    1.1849 H   0  0  0  0  0  0  0  0  0  0  0  0
   -2.5901   -2.8245   -1.4412 H   0  0  0  0  0  0  0  0  0  0  0  0
   -1.3440   -2.1329   -0.4274 H   0  0  0  0  0  0  0  0  0  0  0  0
   -3.2566   -4.4024    0.3418 H   0  0  0  0  0  0  0  0  0  0  0  0
   -2.1558   -3.6188    1.4902 H   0  0  0  0  0  0  0  0  0  0  0  0
   -1.3564   -4.8431   -0.9462 H   0  0  0  0  0  0  0  0  0  0  0  0
  1  2  2  0
  2  3  1  0
  3  4  1  0
  4  5  2  0
  5  6  1  0
  6  7  2  0
  7  8  1  0
  8  9  2  0
  2 10  1  0
 10 11  2  0
 11 12  1  0
 12 13  1  0
 13 14  2  0
 14 15  1  0
 15 16  2  0
 16 17  1  0
 17 18  2  0
 12 19  1  0
 19 20  1  0
 20 21  1  0
 21 22  1  0
 22 23  1  0
 23 24  1  0
 24 25  1  0
 25 26  1  0
 20 27  1  0
  9  4  1  0
 27 10  1  0
 18 13  1  0
  3 28  1  0
  5 29  1  0
  6 30  1  0
  7 31  1  0
  8 32  1  0
  9 33  1  0
 11 34  1  0
 12 35  1  0
 14 36  1  0
 15 37  1  0
 16 38  1  0
 17 39  1  0
 18 40  1  0
 19 41  1  0
 19 42  1  0
 20 43  1  0
 22 44  1  0
 22 45  1  0
 23 46  1  0
 23 47  1  0
 24 48  1  0
 24 49  1  0
 25 50  1  0
 25 51  1  0
 26 52  1  0
M  END
$$$$
