
     RDKit          3D

 59 62  0  0  0  0  0  0  0  0999 V2000
   -3.8189   -0.2349   -4.0216 C   0  0  0  0  0  0  0  0  0  0  0  0
   -2.9466   -1.3074   -3.4023 C   0  0  0  0  0  0  0  0  0  0  0  0
   -2.2167   -0.7209   -2.3183 O   0  0  0  0  0  0  0  0  0  0  0  0
   -1.3819   -1.5758   -1.6691 C   0  0  0  0  0  0  0  0  0  0  0  0
   -1.2309   -2.7550   -1.9737 O   0  0  0  0  0  0  0  0  0  0  0  0
   -0.6776   -0.9172   -0.4783 C   0  0  0  0  0  0  0  0  0  0  0  0
   -1.3057   -1.4926    0.8225 C   0  0  0  0  0  0  0  0  0  0  0  0
   -2.7703   -1.1867    1.0487 C   0  0  0  0  0  0  0  0  0  0  0  0
   -3.1621   -0.0916    1.8283 C   0  0  0  0  0  0  0  0  0  0  0  0
   -4.5167    0.2015    2.0248 C   0  0  0  0  0  0  0  0  0  0  0  0
   -5.4994   -0.6017    1.4501 C   0  0  0  0  0  0  0  0  0  0  0  0
   -6.8510   -0.4252    1.5613 O   0  0  0  0  0  0  0  0  0  0  0  0
   -7.2908    0.6910    2.3262 C   0  0  0  0  0  0  0  0  0  0  0  0
   -5.1147   -1.7026    0.6847 C   0  0  0  0  0  0  0  0  0  0  0  0
   -3.7635   -1.9976    0.4875 C   0  0  0  0  0  0  0  0  0  0  0  0
    0.8157   -1.3338   -0.5754 C   0  0  0  0  0  0  0  0  0  0  0  0
    1.7117   -0.6165    0.4297 C   0  0  0  0  0  0  0  0  0  0  0  0
    1.5532    0.8353    0.3667 N   0  0  0  0  0  0  0  0  0  0  0  0
    2.5138    1.6546    0.9826 C   0  0  0  0  0  0  0  0  0  0  0  0
    2.1865    2.5778    1.7286 O   0  0  0  0  0  0  0  0  0  0  0  0
    3.9113    1.4004    0.6958 C   0  0  0  0  0  0  0  0  0  0  0  0
    4.5463    0.8067   -0.3828 C   0  0  0  0  0  0  0  0  0  0  0  0
    5.9499    0.8446   -0.1588 C   0  0  0  0  0  0  0  0  0  0  0  0
    7.0719    0.3938   -0.8799 C   0  0  0  0  0  0  0  0  0  0  0  0
    8.3525    0.6150   -0.3600 C   0  0  0  0  0  0  0  0  0  0  0  0
    8.5243    1.2793    0.8564 C   0  0  0  0  0  0  0  0  0  0  0  0
    7.4243    1.7373    1.5866 C   0  0  0  0  0  0  0  0  0  0  0  0
    6.1518    1.5048    1.0531 C   0  0  0  0  0  0  0  0  0  0  0  0
    4.9107    1.8500    1.5316 N   0  0  0  0  0  0  0  0  0  0  0  0
    0.1770    1.3039    0.4677 C   0  0  0  0  0  0  0  0  0  0  0  0
   -0.7282    0.6267   -0.5547 C   0  0  0  0  0  0  0  0  0  0  0  0
   -4.5030    0.1850   -3.2755 H   0  0  0  0  0  0  0  0  0  0  0  0
   -3.2051    0.5913   -4.3948 H   0  0  0  0  0  0  0  0  0  0  0  0
   -4.4053   -0.6400   -4.8532 H   0  0  0  0  0  0  0  0  0  0  0  0
   -2.2480   -1.6960   -4.1532 H   0  0  0  0  0  0  0  0  0  0  0  0
   -3.5748   -2.1223   -3.0251 H   0  0  0  0  0  0  0  0  0  0  0  0
   -0.7522   -1.1476    1.7029 H   0  0  0  0  0  0  0  0  0  0  0  0
   -1.1881   -2.5850    0.8340 H   0  0  0  0  0  0  0  0  0  0  0  0
   -2.4171    0.5478    2.2968 H   0  0  0  0  0  0  0  0  0  0  0  0
   -4.7678    1.0624    2.6322 H   0  0  0  0  0  0  0  0  0  0  0  0
   -6.9515    1.6323    1.8830 H   0  0  0  0  0  0  0  0  0  0  0  0
   -6.9694    0.6063    3.3684 H   0  0  0  0  0  0  0  0  0  0  0  0
   -8.3840    0.6948    2.3145 H   0  0  0  0  0  0  0  0  0  0  0  0
   -5.8758   -2.3388    0.2377 H   0  0  0  0  0  0  0  0  0  0  0  0
   -3.4982   -2.8685   -0.1084 H   0  0  0  0  0  0  0  0  0  0  0  0
    1.1851   -1.1172   -1.5874 H   0  0  0  0  0  0  0  0  0  0  0  0
    0.9242   -2.4174   -0.4390 H   0  0  0  0  0  0  0  0  0  0  0  0
    1.4792   -0.9265    1.4560 H   0  0  0  0  0  0  0  0  0  0  0  0
    2.7475   -0.9156    0.2604 H   0  0  0  0  0  0  0  0  0  0  0  0
    4.0532    0.3910   -1.2538 H   0  0  0  0  0  0  0  0  0  0  0  0
    6.9485   -0.1169   -1.8303 H   0  0  0  0  0  0  0  0  0  0  0  0
    9.2226    0.2700   -0.9123 H   0  0  0  0  0  0  0  0  0  0  0  0
    9.5269    1.4419    1.2413 H   0  0  0  0  0  0  0  0  0  0  0  0
    7.5595    2.2564    2.5322 H   0  0  0  0  0  0  0  0  0  0  0  0
    4.7401    2.3835    2.3741 H   0  0  0  0  0  0  0  0  0  0  0  0
    0.1546    2.3881    0.3009 H   0  0  0  0  0  0  0  0  0  0  0  0
   -0.1705    1.1305    1.4926 H   0  0  0  0  0  0  0  0  0  0  0  0
   -0.4056    0.9459   -1.5562 H   0  0  0  0  0  0  0  0  0  0  0  0
   -1.7512    1.0016   -0.4380 H   0  0  0  0  0  0  0  0  0  0  0  0
  1  2  1  0
  2  3  1  0
  3  4  1  0
  4  5  2  0
  4  6  1  0
  6  7  1  0
  7  8  1  0
  8  9  2  0
  9 10  1  0
 10 11  2  0
 11 12  1  0
 12 13  1  0
 11 14  1  0
 14 15  2  0
  6 16  1  0
 16 17  1  0
 17 18  1  0
 18 19  1  0
 19 20  2  0
 19 21  1  0
 21 22  2  0
 22 23  1  0
 23 24  2  0
 24 25  1  0
 25 26  2  0
 26 27  1  0
 27 28  2  0
 28 29  1  0
 18 30  1  0
 30 31  1  0
 31  6  1  0
 15  8  1  0
 29 21  1  0
 28 23  1  0
  1 32  1  0
  1 33  1  0
  1 34  1  0
  2 35  1  0
  2 36  1  0
  7 37  1  0
  7 38  1  0
  9 39  1  0
 10 40  1  0
 13 41  1  0
 13 42  1  0
 13 43  1  0
 14 44  1  0
 15 45  1  0
 16 46  1  0
 16 47  1  0
 17 48  1  0
 17 49  1  0
 22 50  1  0
 24 51  1  0
 25 52  1  0
 26 53  1  0
 27 54  1  0
 29 55  1  0
 30 56  1  0
 30 57  1  0
 31 58  1  0
 31 59  1  0
M  END
$$$$
