
     RDKit          3D

 55 57  0  0  0  0  0  0  0  0999 V2000
    4.4449    0.5210    2.1361 O   0  0  0  0  0  0  0  0  0  0  0  0
    3.3007    0.1325    1.9107 C   0  0  0  0  0  0  0  0  0  0  0  0
    2.1601    0.3653    2.9061 C   0  0  0  0  0  0  0  0  0  0  0  0
    0.8551    0.3751    2.3299 O   0  0  0  0  0  0  0  0  0  0  0  0
    0.5443    1.5000    1.6282 C   0  0  0  0  0  0  0  0  0  0  0  0
    1.2485    2.5016    1.5780 O   0  0  0  0  0  0  0  0  0  0  0  0
   -0.8227    1.3965    0.9254 C   0  0  0  0  0  0  0  0  0  0  0  0
   -1.7285    2.4769    1.5466 C   0  0  0  0  0  0  0  0  0  0  0  0
   -3.0958    2.5582    0.9044 C   0  0  0  0  0  0  0  0  0  0  0  0
   -3.2345    2.9660   -0.4292 C   0  0  0  0  0  0  0  0  0  0  0  0
   -4.4951    3.0155   -1.0254 C   0  0  0  0  0  0  0  0  0  0  0  0
   -5.6279    2.6644   -0.2944 C   0  0  0  0  0  0  0  0  0  0  0  0
   -5.5027    2.2678    1.0354 C   0  0  0  0  0  0  0  0  0  0  0  0
   -4.2433    2.2168    1.6342 C   0  0  0  0  0  0  0  0  0  0  0  0
   -1.4496    0.0669    0.9989 N   0  0  0  0  0  0  0  0  0  0  0  0
   -0.8814   -0.9912    0.3074 C   0  0  0  0  0  0  0  0  0  0  0  0
    0.2521   -0.8842   -0.1617 O   0  0  0  0  0  0  0  0  0  0  0  0
   -1.7139   -2.1807    0.1856 C   0  0  0  0  0  0  0  0  0  0  0  0
   -2.9414   -2.4829    0.7518 C   0  0  0  0  0  0  0  0  0  0  0  0
   -3.4218   -3.7711    0.3696 C   0  0  0  0  0  0  0  0  0  0  0  0
   -2.5462   -4.4190   -0.4699 C   0  0  0  0  0  0  0  0  0  0  0  0
   -1.1582   -3.4794   -0.7952 S   0  0  0  0  0  0  0  0  0  0  0  0
    2.9535   -0.6064    0.7968 N   0  0  0  0  0  0  0  0  0  0  0  0
    3.8830   -0.8191   -0.3050 C   0  0  0  0  0  0  0  0  0  0  0  0
    3.5367   -2.1286   -1.0333 C   0  0  0  0  0  0  0  0  0  0  0  0
    3.9699   -2.0984   -2.4925 C   0  0  0  0  0  0  0  0  0  0  0  0
    3.2646   -0.9830   -3.2660 C   0  0  0  0  0  0  0  0  0  0  0  0
    2.9463    0.2474   -2.4139 C   0  0  0  0  0  0  0  0  0  0  0  0
    3.9137    0.4011   -1.2451 C   0  0  0  0  0  0  0  0  0  0  0  0
    2.3415    1.2958    3.4567 H   0  0  0  0  0  0  0  0  0  0  0  0
    2.1891   -0.4559    3.6304 H   0  0  0  0  0  0  0  0  0  0  0  0
   -0.6432    1.5996   -0.1382 H   0  0  0  0  0  0  0  0  0  0  0  0
   -1.8389    2.2859    2.6229 H   0  0  0  0  0  0  0  0  0  0  0  0
   -1.2569    3.4654    1.4687 H   0  0  0  0  0  0  0  0  0  0  0  0
   -2.3639    3.2529   -1.0156 H   0  0  0  0  0  0  0  0  0  0  0  0
   -4.5944    3.3341   -2.0604 H   0  0  0  0  0  0  0  0  0  0  0  0
   -6.6095    2.7085   -0.7593 H   0  0  0  0  0  0  0  0  0  0  0  0
   -6.3889    2.0054    1.6080 H   0  0  0  0  0  0  0  0  0  0  0  0
   -4.1681    1.9130    2.6762 H   0  0  0  0  0  0  0  0  0  0  0  0
   -2.4575    0.0514    1.0713 H   0  0  0  0  0  0  0  0  0  0  0  0
   -3.4823   -1.8264    1.4219 H   0  0  0  0  0  0  0  0  0  0  0  0
   -4.3594   -4.2024    0.6998 H   0  0  0  0  0  0  0  0  0  0  0  0
   -2.6522   -5.4024   -0.9083 H   0  0  0  0  0  0  0  0  0  0  0  0
    1.9594   -0.7252    0.5932 H   0  0  0  0  0  0  0  0  0  0  0  0
    4.8850   -0.9184    0.1319 H   0  0  0  0  0  0  0  0  0  0  0  0
    2.4581   -2.3250   -0.9915 H   0  0  0  0  0  0  0  0  0  0  0  0
    4.0150   -2.9689   -0.5163 H   0  0  0  0  0  0  0  0  0  0  0  0
    5.0559   -1.9492   -2.5441 H   0  0  0  0  0  0  0  0  0  0  0  0
    3.7646   -3.0630   -2.9704 H   0  0  0  0  0  0  0  0  0  0  0  0
    2.3290   -1.3631   -3.6944 H   0  0  0  0  0  0  0  0  0  0  0  0
    3.8938   -0.6937   -4.1165 H   0  0  0  0  0  0  0  0  0  0  0  0
    1.9229    0.1678   -2.0278 H   0  0  0  0  0  0  0  0  0  0  0  0
    2.9685    1.1444   -3.0437 H   0  0  0  0  0  0  0  0  0  0  0  0
    4.9287    0.5132   -1.6491 H   0  0  0  0  0  0  0  0  0  0  0  0
    3.6930    1.3273   -0.7004 H   0  0  0  0  0  0  0  0  0  0  0  0
  1  2  2  0
  2  3  1  0
  3  4  1  0
  4  5  1  0
  5  6  2  0
  5  7  1  0
  7  8  1  0
  8  9  1  0
  9 10  2  0
 10 11  1  0
 11 12  2  0
 12 13  1  0
 13 14  2  0
  7 15  1  0
 15 16  1  0
 16 17  2  0
 16 18  1  0
 18 19  2  0
 19 20  1  0
 20 21  2  0
 21 22  1  0
  2 23  1  0
 23 24  1  0
 24 25  1  0
 25 26  1  0
 26 27  1  0
 27 28  1  0
 28 29  1  0
 14  9  1  0
 22 18  1  0
 29 24  1  0
  3 30  1  0
  3 31  1  0
  7 32  1  0
  8 33  1  0
  8 34  1  0
 10 35  1  0
 11 36  1  0
 12 37  1  0
 13 38  1  0
 14 39  1  0
 15 40  1  0
 19 41  1  0
 20 42  1  0
 21 43  1  0
 23 44  1  0
 24 45  1  0
 25 46  1  0
 25 47  1  0
 26 48  1  0
 26 49  1  0
 27 50  1  0
 27 51  1  0
 28 52  1  0
 28 53  1  0
 29 54  1  0
 29 55  1  0
M  END
$$$$
