
     RDKit          3D

 50 52  0  0  0  0  0  0  0  0999 V2000
   -8.8477    0.7419    0.6258 C   0  0  0  0  0  0  0  0  0  0  0  0
   -8.0369    0.0452   -0.3092 O   0  0  0  0  0  0  0  0  0  0  0  0
   -6.6746    0.1482   -0.1790 C   0  0  0  0  0  0  0  0  0  0  0  0
   -6.0302    0.8890    0.8182 C   0  0  0  0  0  0  0  0  0  0  0  0
   -4.6342    0.9400    0.8732 C   0  0  0  0  0  0  0  0  0  0  0  0
   -3.8730    0.2548   -0.0784 C   0  0  0  0  0  0  0  0  0  0  0  0
   -2.3857    0.2786   -0.0613 C   0  0  0  0  0  0  0  0  0  0  0  0
   -1.7492   -0.6859   -0.4766 O   0  0  0  0  0  0  0  0  0  0  0  0
   -1.7958    1.4488    0.3987 N   0  0  0  0  0  0  0  0  0  0  0  0
   -0.4496    1.7405    0.5846 C   0  0  0  0  0  0  0  0  0  0  0  0
   -0.1299    3.2817    1.1413 S   0  0  0  0  0  0  0  0  0  0  0  0
    0.4040    0.7082    0.2793 N   0  0  0  0  0  0  0  0  0  0  0  0
    1.8042    0.5425    0.3442 C   0  0  0  0  0  0  0  0  0  0  0  0
    2.3027   -0.6769   -0.1238 C   0  0  0  0  0  0  0  0  0  0  0  0
    3.6779   -0.9571   -0.1075 C   0  0  0  0  0  0  0  0  0  0  0  0
    4.6164   -0.0394    0.3769 C   0  0  0  0  0  0  0  0  0  0  0  0
    5.9625   -0.3118    0.3941 N   0  0  0  0  0  0  0  0  0  0  0  0
    6.9692    0.5547    1.0021 C   0  0  0  0  0  0  0  0  0  0  0  0
    8.2303   -0.3055    1.0208 C   0  0  0  0  0  0  0  0  0  0  0  0
    8.0647   -1.1822   -0.2077 C   0  0  0  0  0  0  0  0  0  0  0  0
    6.5704   -1.4952   -0.2092 C   0  0  0  0  0  0  0  0  0  0  0  0
    4.0958    1.1739    0.8459 C   0  0  0  0  0  0  0  0  0  0  0  0
    2.7188    1.4645    0.8330 C   0  0  0  0  0  0  0  0  0  0  0  0
   -4.5106   -0.5052   -1.0675 C   0  0  0  0  0  0  0  0  0  0  0  0
   -5.9071   -0.5607   -1.1266 C   0  0  0  0  0  0  0  0  0  0  0  0
   -6.6147   -1.2684   -2.0666 O   0  0  0  0  0  0  0  0  0  0  0  0
   -5.8802   -2.0632   -2.9874 C   0  0  0  0  0  0  0  0  0  0  0  0
   -8.6836    0.3720    1.6432 H   0  0  0  0  0  0  0  0  0  0  0  0
   -9.8941    0.5520    0.3683 H   0  0  0  0  0  0  0  0  0  0  0  0
   -8.6814    1.8224    0.5651 H   0  0  0  0  0  0  0  0  0  0  0  0
   -6.5886    1.4311    1.5749 H   0  0  0  0  0  0  0  0  0  0  0  0
   -4.1676    1.4948    1.6829 H   0  0  0  0  0  0  0  0  0  0  0  0
   -2.3933    2.2364    0.6093 H   0  0  0  0  0  0  0  0  0  0  0  0
   -0.0864   -0.1062   -0.0955 H   0  0  0  0  0  0  0  0  0  0  0  0
    1.6298   -1.4381   -0.5127 H   0  0  0  0  0  0  0  0  0  0  0  0
    3.9949   -1.9269   -0.4797 H   0  0  0  0  0  0  0  0  0  0  0  0
    6.7058    0.8591    2.0207 H   0  0  0  0  0  0  0  0  0  0  0  0
    7.1218    1.4465    0.3835 H   0  0  0  0  0  0  0  0  0  0  0  0
    9.1455    0.2926    0.9985 H   0  0  0  0  0  0  0  0  0  0  0  0
    8.2481   -0.9277    1.9239 H   0  0  0  0  0  0  0  0  0  0  0  0
    8.6815   -2.0846   -0.1747 H   0  0  0  0  0  0  0  0  0  0  0  0
    8.3314   -0.6164   -1.1087 H   0  0  0  0  0  0  0  0  0  0  0  0
    6.2245   -1.6737   -1.2330 H   0  0  0  0  0  0  0  0  0  0  0  0
    6.3623   -2.3791    0.4044 H   0  0  0  0  0  0  0  0  0  0  0  0
    4.7586    1.9425    1.2340 H   0  0  0  0  0  0  0  0  0  0  0  0
    2.4247    2.4281    1.2243 H   0  0  0  0  0  0  0  0  0  0  0  0
   -3.8938   -1.0398   -1.7839 H   0  0  0  0  0  0  0  0  0  0  0  0
   -5.2864   -2.8235   -2.4692 H   0  0  0  0  0  0  0  0  0  0  0  0
   -5.2519   -1.4396   -3.6316 H   0  0  0  0  0  0  0  0  0  0  0  0
   -6.5992   -2.5831   -3.6279 H   0  0  0  0  0  0  0  0  0  0  0  0
  1  2  1  0
  2  3  1  0
  3  4  2  0
  4  5  1  0
  5  6  2  0
  6  7  1  0
  7  8  2  0
  7  9  1  0
  9 10  1  0
 10 11  2  0
 10 12  1  0
 12 13  1  0
 13 14  2  0
 14 15  1  0
 15 16  2  0
 16 17  1  0
 17 18  1  0
 18 19  1  0
 19 20  1  0
 20 21  1  0
 16 22  1  0
 22 23  2  0
  6 24  1  0
 24 25  2  0
 25 26  1  0
 26 27  1  0
 25  3  1  0
 23 13  1  0
 21 17  1  0
  1 28  1  0
  1 29  1  0
  1 30  1  0
  4 31  1  0
  5 32  1  0
  9 33  1  0
 12 34  1  0
 14 35  1  0
 15 36  1  0
 18 37  1  0
 18 38  1  0
 19 39  1  0
 19 40  1  0
 20 41  1  0
 20 42  1  0
 21 43  1  0
 21 44  1  0
 22 45  1  0
 23 46  1  0
 24 47  1  0
 27 48  1  0
 27 49  1  0
 27 50  1  0
M  END
$$$$
