
     RDKit          3D

 57 58  0  0  0  0  0  0  0  0999 V2000
    6.8357   -2.8967    2.9294 C   0  0  0  0  0  0  0  0  0  0  0  0
    7.4596   -2.3433    1.6572 C   0  0  0  0  0  0  0  0  0  0  0  0
    6.4668   -2.2142    0.5046 C   0  0  0  0  0  0  0  0  0  0  0  0
    5.4118   -1.1332    0.7300 C   0  0  0  0  0  0  0  0  0  0  0  0
    4.5990   -1.0649   -0.4433 O   0  0  0  0  0  0  0  0  0  0  0  0
    3.6241   -0.1060   -0.4670 C   0  0  0  0  0  0  0  0  0  0  0  0
    3.3234    0.7846    0.5614 C   0  0  0  0  0  0  0  0  0  0  0  0
    2.2958    1.7239    0.4052 C   0  0  0  0  0  0  0  0  0  0  0  0
    1.5593    1.8003   -0.7863 C   0  0  0  0  0  0  0  0  0  0  0  0
    0.4123    2.7836   -0.9753 C   0  0  0  0  0  0  0  0  0  0  0  0
    0.7031    4.1589   -0.3592 C   0  0  0  0  0  0  0  0  0  0  0  0
   -0.8061    2.1776   -0.4461 N   0  0  0  0  0  0  0  0  0  0  0  0
   -2.0402    2.7536   -0.6452 C   0  0  0  0  0  0  0  0  0  0  0  0
   -2.2213    3.8320   -1.2035 O   0  0  0  0  0  0  0  0  0  0  0  0
   -3.2063    1.9326   -0.1365 C   0  0  0  0  0  0  0  0  0  0  0  0
   -3.8431    1.1487   -1.2666 C   0  0  0  0  0  0  0  0  0  0  0  0
   -3.0792   -0.4462   -1.5155 S   0  0  0  0  0  6  0  0  0  0  0  0
   -3.6287   -1.0122   -2.7308 O   0  0  0  0  0  0  0  0  0  0  0  0
   -1.6421   -0.2597   -1.3970 O   0  0  0  0  0  0  0  0  0  0  0  0
   -3.5745   -1.4830   -0.1395 C   0  0  0  0  0  0  0  0  0  0  0  0
   -5.0518   -1.3924    0.1358 C   0  0  0  0  0  0  0  0  0  0  0  0
   -5.5091   -0.7980    1.3237 C   0  0  0  0  0  0  0  0  0  0  0  0
   -6.8758   -0.7195    1.5999 C   0  0  0  0  0  0  0  0  0  0  0  0
   -7.8026   -1.2386    0.6969 C   0  0  0  0  0  0  0  0  0  0  0  0
   -7.3594   -1.8397   -0.4779 C   0  0  0  0  0  0  0  0  0  0  0  0
   -8.5048   -2.4813   -1.5883 Cl  0  0  0  0  0  0  0  0  0  0  0  0
   -5.9946   -1.9236   -0.7600 C   0  0  0  0  0  0  0  0  0  0  0  0
    1.8589    0.8862   -1.8079 C   0  0  0  0  0  0  0  0  0  0  0  0
    2.8828   -0.0522   -1.6476 C   0  0  0  0  0  0  0  0  0  0  0  0
    7.6037   -3.0431    3.6935 H   0  0  0  0  0  0  0  0  0  0  0  0
    6.3577   -3.8641    2.7443 H   0  0  0  0  0  0  0  0  0  0  0  0
    6.0894   -2.2103    3.3376 H   0  0  0  0  0  0  0  0  0  0  0  0
    7.9176   -1.3709    1.8688 H   0  0  0  0  0  0  0  0  0  0  0  0
    8.2681   -3.0155    1.3459 H   0  0  0  0  0  0  0  0  0  0  0  0
    7.0154   -1.9839   -0.4176 H   0  0  0  0  0  0  0  0  0  0  0  0
    5.9738   -3.1774    0.3175 H   0  0  0  0  0  0  0  0  0  0  0  0
    4.7875   -1.3917    1.5927 H   0  0  0  0  0  0  0  0  0  0  0  0
    5.9113   -0.1717    0.8993 H   0  0  0  0  0  0  0  0  0  0  0  0
    3.8615    0.7726    1.5032 H   0  0  0  0  0  0  0  0  0  0  0  0
    2.0776    2.3930    1.2340 H   0  0  0  0  0  0  0  0  0  0  0  0
    0.2564    2.9382   -2.0519 H   0  0  0  0  0  0  0  0  0  0  0  0
   -0.0378    4.9008   -0.6730 H   0  0  0  0  0  0  0  0  0  0  0  0
    0.6770    4.1294    0.7363 H   0  0  0  0  0  0  0  0  0  0  0  0
    1.6853    4.5313   -0.6722 H   0  0  0  0  0  0  0  0  0  0  0  0
   -0.8059    1.1606   -0.5090 H   0  0  0  0  0  0  0  0  0  0  0  0
   -2.8914    1.2982    0.6966 H   0  0  0  0  0  0  0  0  0  0  0  0
   -3.9299    2.6440    0.2697 H   0  0  0  0  0  0  0  0  0  0  0  0
   -3.7546    1.6802   -2.2175 H   0  0  0  0  0  0  0  0  0  0  0  0
   -4.9063    0.9831   -1.0867 H   0  0  0  0  0  0  0  0  0  0  0  0
   -3.2874   -2.5142   -0.3838 H   0  0  0  0  0  0  0  0  0  0  0  0
   -2.9868   -1.1660    0.7351 H   0  0  0  0  0  0  0  0  0  0  0  0
   -4.8065   -0.3984    2.0546 H   0  0  0  0  0  0  0  0  0  0  0  0
   -7.2198   -0.2585    2.5249 H   0  0  0  0  0  0  0  0  0  0  0  0
   -8.8656   -1.1779    0.9181 H   0  0  0  0  0  0  0  0  0  0  0  0
   -5.6728   -2.4044   -1.6843 H   0  0  0  0  0  0  0  0  0  0  0  0
    1.2909    0.8922   -2.7358 H   0  0  0  0  0  0  0  0  0  0  0  0
    3.0986   -0.7529   -2.4497 H   0  0  0  0  0  0  0  0  0  0  0  0
  1  2  1  0
  2  3  1  0
  3  4  1  0
  4  5  1  0
  5  6  1  0
  6  7  2  0
  7  8  1  0
  8  9  2  0
  9 10  1  0
 10 11  1  0
 10 12  1  0
 12 13  1  0
 13 14  2  0
 13 15  1  0
 15 16  1  0
 16 17  1  0
 17 18  2  0
 17 19  2  0
 17 20  1  0
 20 21  1  0
 21 22  2  0
 22 23  1  0
 23 24  2  0
 24 25  1  0
 25 26  1  0
 25 27  2  0
  9 28  1  0
 28 29  2  0
 29  6  1  0
 27 21  1  0
  1 30  1  0
  1 31  1  0
  1 32  1  0
  2 33  1  0
  2 34  1  0
  3 35  1  0
  3 36  1  0
  4 37  1  0
  4 38  1  0
  7 39  1  0
  8 40  1  0
 10 41  1  0
 11 42  1  0
 11 43  1  0
 11 44  1  0
 12 45  1  0
 15 46  1  0
 15 47  1  0
 16 48  1  0
 16 49  1  0
 20 50  1  0
 20 51  1  0
 22 52  1  0
 23 53  1  0
 24 54  1  0
 27 55  1  0
 28 56  1  0
 29 57  1  0
M  END
$$$$
