
     RDKit          3D

 41 43  0  0  0  0  0  0  0  0999 V2000
   -5.7201    0.3359    3.0328 C   0  0  0  0  0  0  0  0  0  0  0  0
   -4.4032    0.4531    2.5106 O   0  0  0  0  0  0  0  0  0  0  0  0
   -4.2021    0.0344    1.2238 C   0  0  0  0  0  0  0  0  0  0  0  0
   -5.1661   -0.5289    0.3892 C   0  0  0  0  0  0  0  0  0  0  0  0
   -4.8322   -0.9214   -0.9120 C   0  0  0  0  0  0  0  0  0  0  0  0
   -3.5299   -0.7512   -1.3870 C   0  0  0  0  0  0  0  0  0  0  0  0
   -3.0967   -1.1041   -2.6446 O   0  0  0  0  0  0  0  0  0  0  0  0
   -4.0699   -1.6280   -3.5404 C   0  0  0  0  0  0  0  0  0  0  0  0
   -2.5516   -0.1802   -0.5471 C   0  0  0  0  0  0  0  0  0  0  0  0
   -1.2532   -0.0413   -1.0845 N   0  0  0  0  0  0  0  0  0  0  0  0
   -0.1592    0.5740   -0.5281 C   0  0  0  0  0  0  0  0  0  0  0  0
   -0.1057    1.1815    0.5367 O   0  0  0  0  0  0  0  0  0  0  0  0
    0.9561    0.4609   -1.3505 N   0  0  0  0  0  0  0  0  0  0  0  0
    2.1796    0.9038   -0.7844 N   0  0  0  0  0  0  0  0  0  0  0  0
    3.2476    0.0282   -0.8286 C   0  0  0  0  0  0  0  0  0  0  0  0
    3.2233   -0.9836   -1.5302 O   0  0  0  0  0  0  0  0  0  0  0  0
    4.3786    0.3714    0.0111 C   0  0  0  0  0  0  0  0  0  0  0  0
    4.6050    1.4769    0.8309 C   0  0  0  0  0  0  0  0  0  0  0  0
    5.8745    1.2437    1.3819 C   0  0  0  0  0  0  0  0  0  0  0  0
    6.7270    1.8608    2.2387 O   0  0  0  0  0  0  0  0  0  0  0  0
    7.8058    1.0259    2.3049 C   0  0  0  0  0  0  0  0  0  0  0  0
    7.6683   -0.0971    1.5187 C   0  0  0  0  0  0  0  0  0  0  0  0
    6.3983    0.0862    0.9368 C   0  0  0  0  0  0  0  0  0  0  0  0
    5.4863   -0.4675    0.0839 N   0  0  0  0  0  0  0  0  0  0  0  0
   -2.8964    0.2040    0.7510 C   0  0  0  0  0  0  0  0  0  0  0  0
   -6.0325   -0.7123    3.0827 H   0  0  0  0  0  0  0  0  0  0  0  0
   -5.7110    0.7295    4.0537 H   0  0  0  0  0  0  0  0  0  0  0  0
   -6.4305    0.9341    2.4525 H   0  0  0  0  0  0  0  0  0  0  0  0
   -6.1883   -0.6799    0.7202 H   0  0  0  0  0  0  0  0  0  0  0  0
   -5.6141   -1.3580   -1.5241 H   0  0  0  0  0  0  0  0  0  0  0  0
   -3.5710   -1.8306   -4.4930 H   0  0  0  0  0  0  0  0  0  0  0  0
   -4.4773   -2.5747   -3.1706 H   0  0  0  0  0  0  0  0  0  0  0  0
   -4.8653   -0.8997   -3.7301 H   0  0  0  0  0  0  0  0  0  0  0  0
   -1.1709   -0.3475   -2.0464 H   0  0  0  0  0  0  0  0  0  0  0  0
    1.0508   -0.4122   -1.8673 H   0  0  0  0  0  0  0  0  0  0  0  0
    2.0705    1.5274    0.0139 H   0  0  0  0  0  0  0  0  0  0  0  0
    3.9617    2.3264    1.0080 H   0  0  0  0  0  0  0  0  0  0  0  0
    8.5965    1.3707    2.9580 H   0  0  0  0  0  0  0  0  0  0  0  0
    8.3738   -0.9047    1.3955 H   0  0  0  0  0  0  0  0  0  0  0  0
    5.6076   -1.3445   -0.4090 H   0  0  0  0  0  0  0  0  0  0  0  0
   -2.1640    0.6383    1.4247 H   0  0  0  0  0  0  0  0  0  0  0  0
  1  2  1  0
  2  3  1  0
  3  4  2  0
  4  5  1  0
  5  6  2  0
  6  7  1  0
  7  8  1  0
  6  9  1  0
  9 10  1  0
 10 11  1  0
 11 12  2  0
 11 13  1  0
 13 14  1  0
 14 15  1  0
 15 16  2  0
 15 17  1  0
 17 18  2  0
 18 19  1  0
 19 20  1  0
 20 21  1  0
 21 22  2  0
 22 23  1  0
 23 24  1  0
  9 25  2  0
 25  3  1  0
 24 17  1  0
 23 19  2  0
  1 26  1  0
  1 27  1  0
  1 28  1  0
  4 29  1  0
  5 30  1  0
  8 31  1  0
  8 32  1  0
  8 33  1  0
 10 34  1  0
 13 35  1  0
 14 36  1  0
 18 37  1  0
 21 38  1  0
 22 39  1  0
 24 40  1  0
 25 41  1  0
M  END
$$$$
