
     RDKit          3D

 49 51  0  0  0  0  0  0  0  0999 V2000
   -1.2840    1.5652    2.3691 O   0  0  0  0  0  0  0  0  0  0  0  0
   -0.8641    0.8187    1.4928 C   0  0  0  0  0  0  0  0  0  0  0  0
   -1.7870    0.0533    0.5584 C   0  0  0  0  0  0  0  0  0  0  0  0
   -3.2613    0.3216    0.8760 C   0  0  0  0  0  0  0  0  0  0  0  0
   -4.2391   -0.4037    0.0523 N   0  0  0  0  0  0  0  0  0  0  0  0
   -4.3695   -1.8202    0.4113 C   0  0  0  0  0  0  0  0  0  0  0  0
   -4.9634   -2.6872   -0.7077 C   0  0  0  0  0  0  0  0  0  0  0  0
   -5.9882   -1.9145   -1.5258 C   0  0  0  0  0  0  0  0  0  0  0  0
   -5.3855   -0.6311   -2.1031 C   0  0  0  0  0  0  0  0  0  0  0  0
   -4.1094   -0.1806   -1.3825 C   0  0  0  0  0  0  0  0  0  0  0  0
    0.4651    0.5660    1.2047 N   0  0  0  0  0  0  0  0  0  0  0  0
    1.6215    1.0350    1.8736 C   0  0  0  0  0  0  0  0  0  0  0  0
    1.5523    1.8065    3.0393 C   0  0  0  0  0  0  0  0  0  0  0  0
    2.7157    2.2166    3.6990 C   0  0  0  0  0  0  0  0  0  0  0  0
    3.9613    1.8499    3.2027 C   0  0  0  0  0  0  0  0  0  0  0  0
    5.5298    2.3865    4.1100 Br  0  0  0  0  0  0  0  0  0  0  0  0
    4.0615    1.0907    2.0405 C   0  0  0  0  0  0  0  0  0  0  0  0
    2.8971    0.7017    1.3579 C   0  0  0  0  0  0  0  0  0  0  0  0
    3.0182   -0.0821    0.0929 C   0  0  0  0  0  0  0  0  0  0  0  0
    2.1423   -0.8940   -0.2035 O   0  0  0  0  0  0  0  0  0  0  0  0
    4.1540    0.1112   -0.8412 C   0  0  0  0  0  0  0  0  0  0  0  0
    4.6841   -1.0103   -1.4892 C   0  0  0  0  0  0  0  0  0  0  0  0
    5.7445   -0.8615   -2.3840 C   0  0  0  0  0  0  0  0  0  0  0  0
    6.2658    0.4063   -2.6426 C   0  0  0  0  0  0  0  0  0  0  0  0
    5.7236    1.5287   -2.0157 C   0  0  0  0  0  0  0  0  0  0  0  0
    4.6627    1.3857   -1.1193 C   0  0  0  0  0  0  0  0  0  0  0  0
   -1.5544    0.3643   -0.4666 H   0  0  0  0  0  0  0  0  0  0  0  0
   -1.5559   -1.0129    0.6569 H   0  0  0  0  0  0  0  0  0  0  0  0
   -3.4601    0.1056    1.9342 H   0  0  0  0  0  0  0  0  0  0  0  0
   -3.4578    1.3964    0.7665 H   0  0  0  0  0  0  0  0  0  0  0  0
   -3.4088   -2.2634    0.6969 H   0  0  0  0  0  0  0  0  0  0  0  0
   -5.0195   -1.8846    1.2924 H   0  0  0  0  0  0  0  0  0  0  0  0
   -5.4231   -3.5835   -0.2763 H   0  0  0  0  0  0  0  0  0  0  0  0
   -4.1595   -3.0303   -1.3716 H   0  0  0  0  0  0  0  0  0  0  0  0
   -6.3852   -2.5392   -2.3338 H   0  0  0  0  0  0  0  0  0  0  0  0
   -6.8395   -1.6563   -0.8832 H   0  0  0  0  0  0  0  0  0  0  0  0
   -6.1416    0.1626   -2.0589 H   0  0  0  0  0  0  0  0  0  0  0  0
   -5.1545   -0.7788   -3.1650 H   0  0  0  0  0  0  0  0  0  0  0  0
   -3.2432   -0.7194   -1.7870 H   0  0  0  0  0  0  0  0  0  0  0  0
   -3.9544    0.8831   -1.6010 H   0  0  0  0  0  0  0  0  0  0  0  0
    0.6541   -0.0861    0.4385 H   0  0  0  0  0  0  0  0  0  0  0  0
    0.6011    2.0959    3.4767 H   0  0  0  0  0  0  0  0  0  0  0  0
    2.6295    2.8104    4.6062 H   0  0  0  0  0  0  0  0  0  0  0  0
    5.0442    0.7980    1.6794 H   0  0  0  0  0  0  0  0  0  0  0  0
    4.2731   -1.9996   -1.2990 H   0  0  0  0  0  0  0  0  0  0  0  0
    6.1596   -1.7333   -2.8843 H   0  0  0  0  0  0  0  0  0  0  0  0
    7.0894    0.5210   -3.3439 H   0  0  0  0  0  0  0  0  0  0  0  0
    6.1226    2.5167   -2.2342 H   0  0  0  0  0  0  0  0  0  0  0  0
    4.2357    2.2751   -0.6629 H   0  0  0  0  0  0  0  0  0  0  0  0
  1  2  2  0
  2  3  1  0
  3  4  1  0
  4  5  1  0
  5  6  1  0
  6  7  1  0
  7  8  1  0
  8  9  1  0
  9 10  1  0
  2 11  1  0
 11 12  1  0
 12 13  2  0
 13 14  1  0
 14 15  2  0
 15 16  1  0
 15 17  1  0
 17 18  2  0
 18 19  1  0
 19 20  2  0
 19 21  1  0
 21 22  2  0
 22 23  1  0
 23 24  2  0
 24 25  1  0
 25 26  2  0
 10  5  1  0
 18 12  1  0
 26 21  1  0
  3 27  1  0
  3 28  1  0
  4 29  1  0
  4 30  1  0
  6 31  1  0
  6 32  1  0
  7 33  1  0
  7 34  1  0
  8 35  1  0
  8 36  1  0
  9 37  1  0
  9 38  1  0
 10 39  1  0
 10 40  1  0
 11 41  1  0
 13 42  1  0
 14 43  1  0
 17 44  1  0
 22 45  1  0
 23 46  1  0
 24 47  1  0
 25 48  1  0
 26 49  1  0
M  END
$$$$
