
     RDKit          3D

 92 93  0  0  0  0  0  0  0  0999 V2000
   11.7086    2.1724   -1.6291 C   0  0  0  0  0  0  0  0  0  0  0  0
   12.1095    1.2427   -0.4944 C   0  0  0  0  0  0  0  0  0  0  0  0
   11.5895   -0.1876   -0.6626 C   0  0  0  0  0  0  0  0  0  0  0  0
   10.0672   -0.3396   -0.7532 C   0  0  0  0  0  0  0  0  0  0  0  0
    9.3370    0.1253    0.5088 C   0  0  0  0  0  0  0  0  0  0  0  0
    7.8121    0.0300    0.4004 C   0  0  0  0  0  0  0  0  0  0  0  0
    7.2912   -1.4038    0.2748 C   0  0  0  0  0  0  0  0  0  0  0  0
    5.7622   -1.4354    0.3473 C   0  0  0  0  0  0  0  0  0  0  0  0
    5.2201   -2.8560    0.1736 C   0  0  0  0  0  0  0  0  0  0  0  0
    3.6895   -2.9187    0.2080 C   0  0  0  0  0  0  0  0  0  0  0  0
    3.1089   -2.6435    1.5986 C   0  0  0  0  0  0  0  0  0  0  0  0
    1.5875   -2.8136    1.6622 C   0  0  0  0  0  0  0  0  0  0  0  0
    0.8257   -1.7402    0.8786 C   0  0  0  0  0  0  0  0  0  0  0  0
   -0.6872   -1.8788    1.0734 C   0  0  0  0  0  0  0  0  0  0  0  0
   -1.5075   -0.8913    0.2305 C   0  0  0  0  0  0  0  0  0  0  0  0
   -1.3073    0.5612    0.6710 C   0  0  0  0  0  0  0  0  0  0  0  0
   -2.1706    1.5853   -0.1094 N   0  0  0  0  0  4  0  0  0  0  0  0
   -1.8095    2.9688    0.4316 C   0  0  0  0  0  0  0  0  0  0  0  0
   -1.8435    1.5356   -1.6013 C   0  0  0  0  0  0  0  0  0  0  0  0
   -3.6796    1.2863    0.1061 C   0  0  0  0  0  0  0  0  0  0  0  0
   -4.6380    2.4143   -0.3549 C   0  0  0  0  0  0  0  0  0  0  0  0
   -5.9844    1.8924   -0.5535 N   0  0  0  0  0  0  0  0  0  0  0  0
   -7.1027    2.5353    0.1421 C   0  0  0  0  0  0  0  0  0  0  0  0
   -8.0988    1.5467    0.7211 C   0  0  0  0  0  0  0  0  0  0  0  0
   -7.7350    0.2469    1.1050 C   0  0  0  0  0  0  0  0  0  0  0  0
   -8.6757   -0.6345    1.6506 C   0  0  0  0  0  0  0  0  0  0  0  0
   -9.9949   -0.2258    1.8351 C   0  0  0  0  0  0  0  0  0  0  0  0
  -11.0060   -0.9862    2.3515 O   0  0  0  0  0  0  0  0  0  0  0  0
  -10.7411   -2.3710    2.5397 C   0  0  0  0  0  0  0  0  0  0  0  0
  -10.3578    1.0771    1.4875 C   0  0  0  0  0  0  0  0  0  0  0  0
   -9.4232    1.9552    0.9345 C   0  0  0  0  0  0  0  0  0  0  0  0
   -6.2423    1.4111   -1.8365 C   0  0  0  0  0  0  0  0  0  0  0  0
   -7.4951    1.4332   -2.3100 N   0  0  0  0  0  0  0  0  0  0  0  0
   -7.7286    0.8900   -3.5190 C   0  0  0  0  0  0  0  0  0  0  0  0
   -6.7486    0.3183   -4.2837 C   0  0  0  0  0  0  0  0  0  0  0  0
   -5.4884    0.3588   -3.7421 C   0  0  0  0  0  0  0  0  0  0  0  0
   -5.2081    0.8996   -2.5369 N   0  0  0  0  0  0  0  0  0  0  0  0
   10.6267    2.3320   -1.6551 H   0  0  0  0  0  0  0  0  0  0  0  0
   12.1849    3.1499   -1.4999 H   0  0  0  0  0  0  0  0  0  0  0  0
   12.0238    1.7686   -2.5965 H   0  0  0  0  0  0  0  0  0  0  0  0
   11.7739    1.6640    0.4591 H   0  0  0  0  0  0  0  0  0  0  0  0
   13.2046    1.2052   -0.4441 H   0  0  0  0  0  0  0  0  0  0  0  0
   12.0327   -0.6190   -1.5692 H   0  0  0  0  0  0  0  0  0  0  0  0
   11.9574   -0.7911    0.1769 H   0  0  0  0  0  0  0  0  0  0  0  0
    9.6864    0.1977   -1.6289 H   0  0  0  0  0  0  0  0  0  0  0  0
    9.8523   -1.4005   -0.9249 H   0  0  0  0  0  0  0  0  0  0  0  0
    9.6847   -0.4573    1.3712 H   0  0  0  0  0  0  0  0  0  0  0  0
    9.5864    1.1718    0.7143 H   0  0  0  0  0  0  0  0  0  0  0  0
    7.4682    0.6226   -0.4568 H   0  0  0  0  0  0  0  0  0  0  0  0
    7.3818    0.4915    1.2992 H   0  0  0  0  0  0  0  0  0  0  0  0
    7.7082   -2.0212    1.0803 H   0  0  0  0  0  0  0  0  0  0  0  0
    7.6196   -1.8417   -0.6740 H   0  0  0  0  0  0  0  0  0  0  0  0
    5.3445   -0.7892   -0.4355 H   0  0  0  0  0  0  0  0  0  0  0  0
    5.4446   -1.0260    1.3133 H   0  0  0  0  0  0  0  0  0  0  0  0
    5.5582   -3.2502   -0.7935 H   0  0  0  0  0  0  0  0  0  0  0  0
    5.6367   -3.5154    0.9453 H   0  0  0  0  0  0  0  0  0  0  0  0
    3.2818   -2.2145   -0.5253 H   0  0  0  0  0  0  0  0  0  0  0  0
    3.3787   -3.9208   -0.1120 H   0  0  0  0  0  0  0  0  0  0  0  0
    3.3691   -1.6329    1.9319 H   0  0  0  0  0  0  0  0  0  0  0  0
    3.5610   -3.3410    2.3159 H   0  0  0  0  0  0  0  0  0  0  0  0
    1.3084   -3.8111    1.2983 H   0  0  0  0  0  0  0  0  0  0  0  0
    1.2831   -2.7691    2.7159 H   0  0  0  0  0  0  0  0  0  0  0  0
    1.1577   -0.7519    1.2152 H   0  0  0  0  0  0  0  0  0  0  0  0
    1.0586   -1.8181   -0.1884 H   0  0  0  0  0  0  0  0  0  0  0  0
   -0.9395   -1.7506    2.1335 H   0  0  0  0  0  0  0  0  0  0  0  0
   -0.9887   -2.8979    0.7983 H   0  0  0  0  0  0  0  0  0  0  0  0
   -1.2354   -1.0204   -0.8222 H   0  0  0  0  0  0  0  0  0  0  0  0
   -2.5593   -1.1768    0.3321 H   0  0  0  0  0  0  0  0  0  0  0  0
   -0.2664    0.8675    0.5264 H   0  0  0  0  0  0  0  0  0  0  0  0
   -1.5570    0.6808    1.7321 H   0  0  0  0  0  0  0  0  0  0  0  0
   -2.3272    3.7307   -0.1567 H   0  0  0  0  0  0  0  0  0  0  0  0
   -0.7276    3.1083    0.3378 H   0  0  0  0  0  0  0  0  0  0  0  0
   -2.1143    3.0200    1.4807 H   0  0  0  0  0  0  0  0  0  0  0  0
   -0.7573    1.5913   -1.7155 H   0  0  0  0  0  0  0  0  0  0  0  0
   -2.2272    0.6030   -2.0191 H   0  0  0  0  0  0  0  0  0  0  0  0
   -2.3134    2.3870   -2.0969 H   0  0  0  0  0  0  0  0  0  0  0  0
   -3.8900    0.3467   -0.4129 H   0  0  0  0  0  0  0  0  0  0  0  0
   -3.8156    1.1130    1.1805 H   0  0  0  0  0  0  0  0  0  0  0  0
   -4.6411    3.1859    0.4268 H   0  0  0  0  0  0  0  0  0  0  0  0
   -4.2827    2.9215   -1.2606 H   0  0  0  0  0  0  0  0  0  0  0  0
   -7.5994    3.2654   -0.5114 H   0  0  0  0  0  0  0  0  0  0  0  0
   -6.7227    3.1039    1.0026 H   0  0  0  0  0  0  0  0  0  0  0  0
   -6.7175   -0.1049    0.9629 H   0  0  0  0  0  0  0  0  0  0  0  0
   -8.3490   -1.6353    1.9165 H   0  0  0  0  0  0  0  0  0  0  0  0
  -11.6739   -2.8540    2.8485 H   0  0  0  0  0  0  0  0  0  0  0  0
  -10.0038   -2.5206    3.3355 H   0  0  0  0  0  0  0  0  0  0  0  0
  -10.4166   -2.8426    1.6068 H   0  0  0  0  0  0  0  0  0  0  0  0
  -11.3842    1.4071    1.6385 H   0  0  0  0  0  0  0  0  0  0  0  0
   -9.7432    2.9602    0.6662 H   0  0  0  0  0  0  0  0  0  0  0  0
   -8.7661    0.9214   -3.8453 H   0  0  0  0  0  0  0  0  0  0  0  0
   -6.9494   -0.1324   -5.2442 H   0  0  0  0  0  0  0  0  0  0  0  0
   -4.6402   -0.0712   -4.2665 H   0  0  0  0  0  0  0  0  0  0  0  0
  1  2  1  0
  2  3  1  0
  3  4  1  0
  4  5  1  0
  5  6  1  0
  6  7  1  0
  7  8  1  0
  8  9  1  0
  9 10  1  0
 10 11  1  0
 11 12  1  0
 12 13  1  0
 13 14  1  0
 14 15  1  0
 15 16  1  0
 16 17  1  0
 17 18  1  0
 17 19  1  0
 17 20  1  0
 20 21  1  0
 21 22  1  0
 22 23  1  0
 23 24  1  0
 24 25  2  0
 25 26  1  0
 26 27  2  0
 27 28  1  0
 28 29  1  0
 27 30  1  0
 30 31  2  0
 22 32  1  0
 32 33  2  0
 33 34  1  0
 34 35  2  0
 35 36  1  0
 36 37  2  0
 31 24  1  0
 37 32  1  0
  1 38  1  0
  1 39  1  0
  1 40  1  0
  2 41  1  0
  2 42  1  0
  3 43  1  0
  3 44  1  0
  4 45  1  0
  4 46  1  0
  5 47  1  0
  5 48  1  0
  6 49  1  0
  6 50  1  0
  7 51  1  0
  7 52  1  0
  8 53  1  0
  8 54  1  0
  9 55  1  0
  9 56  1  0
 10 57  1  0
 10 58  1  0
 11 59  1  0
 11 60  1  0
 12 61  1  0
 12 62  1  0
 13 63  1  0
 13 64  1  0
 14 65  1  0
 14 66  1  0
 15 67  1  0
 15 68  1  0
 16 69  1  0
 16 70  1  0
 18 71  1  0
 18 72  1  0
 18 73  1  0
 19 74  1  0
 19 75  1  0
 19 76  1  0
 20 77  1  0
 20 78  1  0
 21 79  1  0
 21 80  1  0
 23 81  1  0
 23 82  1  0
 25 83  1  0
 26 84  1  0
 29 85  1  0
 29 86  1  0
 29 87  1  0
 30 88  1  0
 31 89  1  0
 34 90  1  0
 35 91  1  0
 36 92  1  0
M  CHG  1  17   1
M  END
$$$$
