
     RDKit          3D

 60 65  0  0  0  0  0  0  0  0999 V2000
    2.2182   -2.7321   -2.7624 O   0  0  0  0  0  0  0  0  0  0  0  0
    2.0278   -1.6493   -2.2163 C   0  0  0  0  0  0  0  0  0  0  0  0
    0.7161   -1.3612   -1.5022 C   0  0  0  0  0  0  0  0  0  0  0  0
    1.0110   -1.1768    0.2823 S   0  0  0  0  0  0  0  0  0  0  0  0
   -0.6228   -0.7684    0.7929 C   0  0  0  0  0  0  0  0  0  0  0  0
   -1.2127    0.1253    0.0718 N   0  0  0  0  0  0  0  0  0  0  0  0
   -2.5345    0.4379    0.3599 C   0  0  0  0  0  0  0  0  0  0  0  0
   -3.0597    1.4029   -0.4225 N   0  0  0  0  0  0  0  0  0  0  0  0
   -4.3542    1.7552   -0.2172 C   0  0  0  0  0  0  0  0  0  0  0  0
   -5.1627    1.1427    0.7464 C   0  0  0  0  0  0  0  0  0  0  0  0
   -4.5886    0.1485    1.5438 C   0  0  0  0  0  0  0  0  0  0  0  0
   -3.2555   -0.2060    1.3386 C   0  0  0  0  0  0  0  0  0  0  0  0
   -2.5711   -1.2223    2.1441 C   0  0  0  0  0  0  0  0  0  0  0  0
   -3.2313   -1.7784    3.0204 O   0  0  0  0  0  0  0  0  0  0  0  0
   -1.2139   -1.4370    1.8663 N   0  0  0  0  0  0  0  0  0  0  0  0
   -0.4958   -2.3245    2.7379 C   0  0  0  0  0  0  0  0  0  0  0  0
   -1.0137   -3.5908    3.0486 C   0  0  0  0  0  0  0  0  0  0  0  0
   -0.3302   -4.4524    3.9106 C   0  0  0  0  0  0  0  0  0  0  0  0
    0.8738   -4.0546    4.4847 C   0  0  0  0  0  0  0  0  0  0  0  0
    1.3909   -2.7924    4.2050 C   0  0  0  0  0  0  0  0  0  0  0  0
    0.7074   -1.9299    3.3433 C   0  0  0  0  0  0  0  0  0  0  0  0
   -6.5853    1.5731    0.9873 C   0  0  0  0  0  0  0  0  0  0  0  0
   -7.1672    2.4035   -0.1558 C   0  0  0  0  0  0  0  0  0  0  0  0
   -6.1744    3.4699   -0.6044 C   0  0  0  0  0  0  0  0  0  0  0  0
   -4.9016    2.8168   -1.1365 C   0  0  0  0  0  0  0  0  0  0  0  0
    2.8937   -0.5655   -2.1862 N   0  0  0  0  0  0  0  0  0  0  0  0
    4.1789   -0.4388   -2.7745 C   0  0  0  0  0  0  0  0  0  0  0  0
    4.7186   -1.4633   -3.5634 C   0  0  0  0  0  0  0  0  0  0  0  0
    5.9782   -1.3353   -4.1420 C   0  0  0  0  0  0  0  0  0  0  0  0
    6.7200   -0.1778   -3.9428 C   0  0  0  0  0  0  0  0  0  0  0  0
    6.2166    0.8707   -3.1633 C   0  0  0  0  0  0  0  0  0  0  0  0
    6.9954    2.0266   -2.9836 C   0  0  0  0  0  0  0  0  0  0  0  0
    6.5363    3.0929   -2.2154 C   0  0  0  0  0  0  0  0  0  0  0  0
    5.2883    3.0172   -1.6170 C   0  0  0  0  0  0  0  0  0  0  0  0
    4.5007    1.8738   -1.7868 C   0  0  0  0  0  0  0  0  0  0  0  0
    4.9333    0.7628   -2.5621 C   0  0  0  0  0  0  0  0  0  0  0  0
    0.0256   -2.1932   -1.6749 H   0  0  0  0  0  0  0  0  0  0  0  0
    0.2806   -0.4537   -1.9365 H   0  0  0  0  0  0  0  0  0  0  0  0
   -5.1700   -0.3409    2.3228 H   0  0  0  0  0  0  0  0  0  0  0  0
   -1.9508   -3.9308    2.6119 H   0  0  0  0  0  0  0  0  0  0  0  0
   -0.7428   -5.4330    4.1341 H   0  0  0  0  0  0  0  0  0  0  0  0
    1.4045   -4.7246    5.1566 H   0  0  0  0  0  0  0  0  0  0  0  0
    2.3235   -2.4735    4.6641 H   0  0  0  0  0  0  0  0  0  0  0  0
    1.1185   -0.9368    3.1798 H   0  0  0  0  0  0  0  0  0  0  0  0
   -6.6079    2.1670    1.9099 H   0  0  0  0  0  0  0  0  0  0  0  0
   -7.2206    0.6929    1.1443 H   0  0  0  0  0  0  0  0  0  0  0  0
   -7.4107    1.7511   -1.0042 H   0  0  0  0  0  0  0  0  0  0  0  0
   -8.1038    2.8698    0.1696 H   0  0  0  0  0  0  0  0  0  0  0  0
   -6.6191    4.0971   -1.3848 H   0  0  0  0  0  0  0  0  0  0  0  0
   -5.9339    4.1271    0.2410 H   0  0  0  0  0  0  0  0  0  0  0  0
   -4.1411    3.5886   -1.3026 H   0  0  0  0  0  0  0  0  0  0  0  0
   -5.1096    2.3475   -2.1059 H   0  0  0  0  0  0  0  0  0  0  0  0
    2.5791    0.2084   -1.6191 H   0  0  0  0  0  0  0  0  0  0  0  0
    4.1804   -2.3864   -3.7535 H   0  0  0  0  0  0  0  0  0  0  0  0
    6.3786   -2.1440   -4.7484 H   0  0  0  0  0  0  0  0  0  0  0  0
    7.7021   -0.1023   -4.4056 H   0  0  0  0  0  0  0  0  0  0  0  0
    7.9780    2.1044   -3.4451 H   0  0  0  0  0  0  0  0  0  0  0  0
    7.1529    3.9782   -2.0865 H   0  0  0  0  0  0  0  0  0  0  0  0
    4.9215    3.8457   -1.0154 H   0  0  0  0  0  0  0  0  0  0  0  0
    3.5350    1.8784   -1.2911 H   0  0  0  0  0  0  0  0  0  0  0  0
  1  2  2  0
  2  3  1  0
  3  4  1  0
  4  5  1  0
  5  6  2  0
  6  7  1  0
  7  8  2  0
  8  9  1  0
  9 10  2  0
 10 11  1  0
 11 12  2  0
 12 13  1  0
 13 14  2  0
 13 15  1  0
 15 16  1  0
 16 17  2  0
 17 18  1  0
 18 19  2  0
 19 20  1  0
 20 21  2  0
 10 22  1  0
 22 23  1  0
 23 24  1  0
 24 25  1  0
  2 26  1  0
 26 27  1  0
 27 28  2  0
 28 29  1  0
 29 30  2  0
 30 31  1  0
 31 32  2  0
 32 33  1  0
 33 34  2  0
 34 35  1  0
 35 36  2  0
 15  5  1  0
 21 16  1  0
 36 27  1  0
 12  7  1  0
 36 31  1  0
 25  9  1  0
  3 37  1  0
  3 38  1  0
 11 39  1  0
 17 40  1  0
 18 41  1  0
 19 42  1  0
 20 43  1  0
 21 44  1  0
 22 45  1  0
 22 46  1  0
 23 47  1  0
 23 48  1  0
 24 49  1  0
 24 50  1  0
 25 51  1  0
 25 52  1  0
 26 53  1  0
 28 54  1  0
 29 55  1  0
 30 56  1  0
 32 57  1  0
 33 58  1  0
 34 59  1  0
 35 60  1  0
M  END
$$$$
