
     RDKit          3D

 57 61  0  0  0  0  0  0  0  0999 V2000
   -4.5776    3.6082   -0.9949 C   0  0  0  0  0  0  0  0  0  0  0  0
   -5.2579    3.1866    0.2425 N   0  0  0  0  0  0  0  0  0  0  0  0
   -6.4316    2.3318   -0.0038 C   0  0  0  0  0  0  0  0  0  0  0  0
   -4.2744    2.7798    1.5680 S   0  0  0  0  0  6  0  0  0  0  0  0
   -5.1309    2.4764    2.6951 O   0  0  0  0  0  0  0  0  0  0  0  0
   -3.2167    3.7616    1.6784 O   0  0  0  0  0  0  0  0  0  0  0  0
   -3.5174    1.2536    1.0559 C   0  0  0  0  0  0  0  0  0  0  0  0
   -4.0634    0.0376    1.4426 C   0  0  0  0  0  0  0  0  0  0  0  0
   -3.4471   -1.1560    1.0404 C   0  0  0  0  0  0  0  0  0  0  0  0
   -2.2785   -1.1998    0.2418 C   0  0  0  0  0  0  0  0  0  0  0  0
   -1.7689   -2.4302   -0.1440 N   0  0  0  0  0  0  0  0  0  0  0  0
   -0.6306   -2.6368   -1.0472 C   0  0  0  0  0  0  0  0  0  0  0  0
   -0.5263   -4.1533   -1.1766 C   0  0  0  0  0  0  0  0  0  0  0  0
   -1.9750   -4.5873   -1.1363 C   0  0  0  0  0  0  0  0  0  0  0  0
   -2.5880   -3.6552   -0.0948 C   0  0  0  0  0  0  0  0  0  0  0  0
   -1.7231    0.0675   -0.0591 C   0  0  0  0  0  0  0  0  0  0  0  0
   -0.4510    0.2691   -0.7817 C   0  0  0  0  0  0  0  0  0  0  0  0
   -0.5015    0.4936   -1.9828 O   0  0  0  0  0  0  0  0  0  0  0  0
    0.6425    0.2315    0.0485 N   0  0  0  0  0  0  0  0  0  0  0  0
    1.9553    0.4063   -0.3040 C   0  0  0  0  0  0  0  0  0  0  0  0
    2.9074    0.3059    0.5897 N   0  0  0  0  0  0  0  0  0  0  0  0
    4.1469    0.5219   -0.0102 C   0  0  0  0  0  0  0  0  0  0  0  0
    4.0914    0.7848   -1.3808 C   0  0  0  0  0  0  0  0  0  0  0  0
    5.2438    1.0253   -2.1448 C   0  0  0  0  0  0  0  0  0  0  0  0
    6.4862    0.9979   -1.5022 C   0  0  0  0  0  0  0  0  0  0  0  0
    6.5928    0.7387   -0.1313 C   0  0  0  0  0  0  0  0  0  0  0  0
    7.8364    0.7102    0.5195 C   0  0  0  0  0  0  0  0  0  0  0  0
    7.9198    0.4497    1.8904 C   0  0  0  0  0  0  0  0  0  0  0  0
    6.7643    0.2133    2.6327 C   0  0  0  0  0  0  0  0  0  0  0  0
    5.5179    0.2366    2.0081 C   0  0  0  0  0  0  0  0  0  0  0  0
    5.4217    0.4983    0.6272 C   0  0  0  0  0  0  0  0  0  0  0  0
    2.4481    0.7534   -1.8909 S   0  0  0  0  0  0  0  0  0  0  0  0
   -2.3321    1.2774    0.3319 C   0  0  0  0  0  0  0  0  0  0  0  0
   -4.1917    2.7461   -1.5459 H   0  0  0  0  0  0  0  0  0  0  0  0
   -5.2855    4.1413   -1.6382 H   0  0  0  0  0  0  0  0  0  0  0  0
   -3.7598    4.3021   -0.7821 H   0  0  0  0  0  0  0  0  0  0  0  0
   -7.1274    2.8462   -0.6749 H   0  0  0  0  0  0  0  0  0  0  0  0
   -6.9763    2.1306    0.9227 H   0  0  0  0  0  0  0  0  0  0  0  0
   -6.1389    1.3860   -0.4682 H   0  0  0  0  0  0  0  0  0  0  0  0
   -4.9611   -0.0029    2.0565 H   0  0  0  0  0  0  0  0  0  0  0  0
   -3.9122   -2.0771    1.3861 H   0  0  0  0  0  0  0  0  0  0  0  0
    0.3062   -2.2551   -0.6373 H   0  0  0  0  0  0  0  0  0  0  0  0
   -0.8300   -2.1932   -2.0289 H   0  0  0  0  0  0  0  0  0  0  0  0
   -0.0129   -4.4611   -2.0917 H   0  0  0  0  0  0  0  0  0  0  0  0
    0.0159   -4.5707   -0.3194 H   0  0  0  0  0  0  0  0  0  0  0  0
   -2.0990   -5.6425   -0.8777 H   0  0  0  0  0  0  0  0  0  0  0  0
   -2.4435   -4.4179   -2.1135 H   0  0  0  0  0  0  0  0  0  0  0  0
   -2.5233   -4.0987    0.9052 H   0  0  0  0  0  0  0  0  0  0  0  0
   -3.6398   -3.4818   -0.3485 H   0  0  0  0  0  0  0  0  0  0  0  0
    0.5139    0.0207    1.0296 H   0  0  0  0  0  0  0  0  0  0  0  0
    5.1750    1.2287   -3.2095 H   0  0  0  0  0  0  0  0  0  0  0  0
    7.3807    1.1849   -2.0942 H   0  0  0  0  0  0  0  0  0  0  0  0
    8.7537    0.8919   -0.0364 H   0  0  0  0  0  0  0  0  0  0  0  0
    8.8905    0.4320    2.3797 H   0  0  0  0  0  0  0  0  0  0  0  0
    6.8327    0.0119    3.6987 H   0  0  0  0  0  0  0  0  0  0  0  0
    4.6201    0.0524    2.5946 H   0  0  0  0  0  0  0  0  0  0  0  0
   -1.8698    2.2275    0.0662 H   0  0  0  0  0  0  0  0  0  0  0  0
  1  2  1  0
  2  3  1  0
  2  4  1  0
  4  5  2  0
  4  6  2  0
  4  7  1  0
  7  8  2  0
  8  9  1  0
  9 10  2  0
 10 11  1  0
 11 12  1  0
 12 13  1  0
 13 14  1  0
 14 15  1  0
 10 16  1  0
 16 17  1  0
 17 18  2  0
 17 19  1  0
 19 20  1  0
 20 21  2  0
 21 22  1  0
 22 23  2  0
 23 24  1  0
 24 25  2  0
 25 26  1  0
 26 27  2  0
 27 28  1  0
 28 29  2  0
 29 30  1  0
 30 31  2  0
 23 32  1  0
 16 33  2  0
 33  7  1  0
 15 11  1  0
 32 20  1  0
 31 22  1  0
 31 26  1  0
  1 34  1  0
  1 35  1  0
  1 36  1  0
  3 37  1  0
  3 38  1  0
  3 39  1  0
  8 40  1  0
  9 41  1  0
 12 42  1  0
 12 43  1  0
 13 44  1  0
 13 45  1  0
 14 46  1  0
 14 47  1  0
 15 48  1  0
 15 49  1  0
 19 50  1  0
 24 51  1  0
 25 52  1  0
 27 53  1  0
 28 54  1  0
 29 55  1  0
 30 56  1  0
 33 57  1  0
M  END
$$$$
