
     RDKit          3D

 64 68  0  0  0  0  0  0  0  0999 V2000
    1.4532   -3.3570   -0.5881 O   0  0  0  0  0  0  0  0  0  0  0  0
    1.5662   -2.1548   -0.3377 C   0  0  0  0  0  0  0  0  0  0  0  0
    0.3243   -1.2581   -0.2317 C   0  0  0  0  0  0  0  0  0  0  0  0
   -0.9536   -2.1090   -0.1993 C   0  0  0  0  0  0  0  0  0  0  0  0
   -2.2162   -1.2610   -0.0346 C   0  0  0  0  0  0  0  0  0  0  0  0
   -2.1484    0.0997   -0.7553 C   0  0  0  0  0  0  0  0  0  0  0  0
   -3.5278    0.5524   -1.2664 C   0  0  0  0  0  0  0  0  0  0  0  0
   -4.4274    0.8235   -0.1524 N   0  0  0  0  0  0  0  0  0  0  0  0
   -5.7243    1.3147   -0.2534 C   0  0  0  0  0  0  0  0  0  0  0  0
   -6.1243    1.9031   -1.4241 N   0  0  0  0  0  0  0  0  0  0  0  0
   -7.3632    2.4284   -1.6784 C   0  0  0  0  0  0  0  0  0  0  0  0
   -7.6228    3.1177   -3.1852 S   0  0  0  0  0  0  0  0  0  0  0  0
   -8.3155    2.3607   -0.7023 N   0  0  0  0  0  0  0  0  0  0  0  0
   -7.9779    1.8199    0.4238 C   0  0  0  0  0  0  0  0  0  0  0  0
   -9.0020    1.7346    1.5032 C   0  0  0  0  0  0  0  0  0  0  0  0
   -8.7035    1.1971    2.6929 C   0  0  0  0  0  0  0  0  0  0  0  0
   -7.3893    0.6868    2.9947 C   0  0  0  0  0  0  0  0  0  0  0  0
   -6.4055    0.7107    2.0841 C   0  0  0  0  0  0  0  0  0  0  0  0
   -6.6265    1.2530    0.7531 C   0  0  0  0  0  0  0  0  0  0  0  0
   -1.1352    0.0504   -1.9041 C   0  0  0  0  0  0  0  0  0  0  0  0
    0.2764   -0.2444   -1.3893 C   0  0  0  0  0  0  0  0  0  0  0  0
    2.8136   -1.5748   -0.1667 N   0  0  0  0  0  0  0  0  0  0  0  0
    4.0031   -2.4119   -0.3559 C   0  0  0  0  0  0  0  0  0  0  0  0
    5.2444   -1.6135   -0.7936 C   0  0  0  0  0  0  0  0  0  0  0  0
    5.5351   -0.4965    0.1253 N   0  0  0  0  0  0  0  0  0  0  0  0
    6.8292   -0.0237    0.2809 C   0  0  0  0  0  0  0  0  0  0  0  0
    7.7975   -0.1849   -0.7279 C   0  0  0  0  0  0  0  0  0  0  0  0
    9.1051    0.2939   -0.5843 C   0  0  0  0  0  0  0  0  0  0  0  0
    9.4679    0.9478    0.5809 C   0  0  0  0  0  0  0  0  0  0  0  0
   10.7173    1.4079    0.7239 F   0  0  0  0  0  0  0  0  0  0  0  0
    8.5476    1.1308    1.5994 C   0  0  0  0  0  0  0  0  0  0  0  0
    7.2418    0.6495    1.4453 C   0  0  0  0  0  0  0  0  0  0  0  0
    4.4307   -0.0203    0.9714 C   0  0  0  0  0  0  0  0  0  0  0  0
    3.0685   -0.1973    0.2706 C   0  0  0  0  0  0  0  0  0  0  0  0
    0.3692   -0.7261    0.7258 H   0  0  0  0  0  0  0  0  0  0  0  0
   -1.0340   -2.6904   -1.1279 H   0  0  0  0  0  0  0  0  0  0  0  0
   -0.9062   -2.8451    0.6131 H   0  0  0  0  0  0  0  0  0  0  0  0
   -3.0724   -1.8503   -0.3855 H   0  0  0  0  0  0  0  0  0  0  0  0
   -2.3891   -1.0812    1.0343 H   0  0  0  0  0  0  0  0  0  0  0  0
   -1.7938    0.8466   -0.0303 H   0  0  0  0  0  0  0  0  0  0  0  0
   -3.9635   -0.2117   -1.9210 H   0  0  0  0  0  0  0  0  0  0  0  0
   -3.4004    1.4670   -1.8573 H   0  0  0  0  0  0  0  0  0  0  0  0
   -4.3113    0.1822    0.6253 H   0  0  0  0  0  0  0  0  0  0  0  0
   -5.4595    1.9910   -2.1765 H   0  0  0  0  0  0  0  0  0  0  0  0
   -9.9868    2.1251    1.2755 H   0  0  0  0  0  0  0  0  0  0  0  0
   -9.4584    1.1406    3.4718 H   0  0  0  0  0  0  0  0  0  0  0  0
   -7.2165    0.2874    3.9901 H   0  0  0  0  0  0  0  0  0  0  0  0
   -5.4270    0.3338    2.3557 H   0  0  0  0  0  0  0  0  0  0  0  0
   -1.4310   -0.7193   -2.6286 H   0  0  0  0  0  0  0  0  0  0  0  0
   -1.1217    1.0016   -2.4497 H   0  0  0  0  0  0  0  0  0  0  0  0
    0.7156    0.6994   -1.0430 H   0  0  0  0  0  0  0  0  0  0  0  0
    0.8961   -0.5732   -2.2327 H   0  0  0  0  0  0  0  0  0  0  0  0
    4.1960   -2.9038    0.6057 H   0  0  0  0  0  0  0  0  0  0  0  0
    3.7980   -3.1977   -1.0913 H   0  0  0  0  0  0  0  0  0  0  0  0
    5.0802   -1.2073   -1.7990 H   0  0  0  0  0  0  0  0  0  0  0  0
    6.0864   -2.3146   -0.8398 H   0  0  0  0  0  0  0  0  0  0  0  0
    7.5425   -0.6704   -1.6660 H   0  0  0  0  0  0  0  0  0  0  0  0
    9.8325    0.1623   -1.3784 H   0  0  0  0  0  0  0  0  0  0  0  0
    8.8453    1.6409    2.5094 H   0  0  0  0  0  0  0  0  0  0  0  0
    6.5565    0.7941    2.2755 H   0  0  0  0  0  0  0  0  0  0  0  0
    4.4349   -0.5770    1.9165 H   0  0  0  0  0  0  0  0  0  0  0  0
    4.5432    1.0462    1.2000 H   0  0  0  0  0  0  0  0  0  0  0  0
    3.0427    0.4259   -0.6309 H   0  0  0  0  0  0  0  0  0  0  0  0
    2.2742    0.1406    0.9402 H   0  0  0  0  0  0  0  0  0  0  0  0
  1  2  2  0
  2  3  1  0
  3  4  1  0
  4  5  1  0
  5  6  1  0
  6  7  1  0
  7  8  1  0
  8  9  1  0
  9 10  1  0
 10 11  1  0
 11 12  2  0
 11 13  1  0
 13 14  2  0
 14 15  1  0
 15 16  2  0
 16 17  1  0
 17 18  2  0
 18 19  1  0
  6 20  1  0
 20 21  1  0
  2 22  1  0
 22 23  1  0
 23 24  1  0
 24 25  1  0
 25 26  1  0
 26 27  2  0
 27 28  1  0
 28 29  2  0
 29 30  1  0
 29 31  1  0
 31 32  2  0
 25 33  1  0
 33 34  1  0
 21  3  1  0
 34 22  1  0
 19  9  2  0
 32 26  1  0
 19 14  1  0
  3 35  1  0
  4 36  1  0
  4 37  1  0
  5 38  1  0
  5 39  1  0
  6 40  1  0
  7 41  1  0
  7 42  1  0
  8 43  1  0
 10 44  1  0
 15 45  1  0
 16 46  1  0
 17 47  1  0
 18 48  1  0
 20 49  1  0
 20 50  1  0
 21 51  1  0
 21 52  1  0
 23 53  1  0
 23 54  1  0
 24 55  1  0
 24 56  1  0
 27 57  1  0
 28 58  1  0
 31 59  1  0
 32 60  1  0
 33 61  1  0
 33 62  1  0
 34 63  1  0
 34 64  1  0
M  END
$$$$
