
     RDKit          3D

 35 36  0  0  0  0  0  0  0  0999 V2000
   -5.9458   -0.0514   -0.2971 C   0  0  0  0  0  0  0  0  0  0  0  0
   -4.4563   -0.0852   -0.1258 C   0  0  0  0  0  0  0  0  0  0  0  0
   -3.6382    0.7958   -0.8399 C   0  0  0  0  0  0  0  0  0  0  0  0
   -2.2443    0.7471   -0.7086 C   0  0  0  0  0  0  0  0  0  0  0  0
   -1.6450   -0.1858    0.1440 C   0  0  0  0  0  0  0  0  0  0  0  0
   -0.2269   -0.2799    0.3085 N   0  0  0  0  0  0  0  0  0  0  0  0
    0.2890   -1.4168    0.8334 N   0  0  0  0  0  0  0  0  0  0  0  0
    1.6132   -1.3239    0.6824 C   0  0  0  0  0  0  0  0  0  0  0  0
    2.4349   -2.4859    1.1038 C   0  0  0  0  0  0  0  0  0  0  0  0
    1.9839   -0.0600    0.1598 C   0  0  0  0  0  0  0  0  0  0  0  0
    3.2011    0.5282   -0.1503 N   0  0  0  0  0  0  0  0  0  0  0  0
    4.4557   -0.0409   -0.1239 C   0  0  0  0  0  0  0  0  0  0  0  0
    4.7180   -1.1977    0.1948 O   0  0  0  0  0  0  0  0  0  0  0  0
    5.5932    0.9062   -0.4806 C   0  0  0  0  0  0  0  0  0  0  0  0
    5.0409    2.3526   -1.3603 Cl  0  0  0  0  0  0  0  0  0  0  0  0
    0.7861    0.6295    0.0170 C   0  0  0  0  0  0  0  0  0  0  0  0
    0.5661    2.0626   -0.3197 C   0  0  0  0  0  0  0  0  0  0  0  0
   -2.4681   -1.0964    0.8281 C   0  0  0  0  0  0  0  0  0  0  0  0
   -3.8590   -1.0441    0.6960 C   0  0  0  0  0  0  0  0  0  0  0  0
   -6.2426   -0.7050   -1.1230 H   0  0  0  0  0  0  0  0  0  0  0  0
   -6.4515   -0.3824    0.6161 H   0  0  0  0  0  0  0  0  0  0  0  0
   -6.2913    0.9660   -0.5085 H   0  0  0  0  0  0  0  0  0  0  0  0
   -4.0813    1.5224   -1.5182 H   0  0  0  0  0  0  0  0  0  0  0  0
   -1.6675    1.4213   -1.3290 H   0  0  0  0  0  0  0  0  0  0  0  0
    2.9452   -2.9312    0.2448 H   0  0  0  0  0  0  0  0  0  0  0  0
    3.1668   -2.1910    1.8615 H   0  0  0  0  0  0  0  0  0  0  0  0
    1.8141   -3.2715    1.5500 H   0  0  0  0  0  0  0  0  0  0  0  0
    3.1587    1.4749   -0.5124 H   0  0  0  0  0  0  0  0  0  0  0  0
    6.0877    1.2321    0.4382 H   0  0  0  0  0  0  0  0  0  0  0  0
    6.3065    0.3830   -1.1229 H   0  0  0  0  0  0  0  0  0  0  0  0
    1.4230    2.6727   -0.0146 H   0  0  0  0  0  0  0  0  0  0  0  0
   -0.2973    2.4784    0.2080 H   0  0  0  0  0  0  0  0  0  0  0  0
    0.4388    2.1919   -1.3985 H   0  0  0  0  0  0  0  0  0  0  0  0
   -2.0386   -1.8542    1.4821 H   0  0  0  0  0  0  0  0  0  0  0  0
   -4.4691   -1.7615    1.2405 H   0  0  0  0  0  0  0  0  0  0  0  0
  1  2  1  0
  2  3  2  0
  3  4  1  0
  4  5  2  0
  5  6  1  0
  6  7  1  0
  7  8  2  0
  8  9  1  0
  8 10  1  0
 10 11  1  0
 11 12  1  0
 12 13  2  0
 12 14  1  0
 14 15  1  0
 10 16  2  0
 16 17  1  0
  5 18  1  0
 18 19  2  0
 19  2  1  0
 16  6  1  0
  1 20  1  0
  1 21  1  0
  1 22  1  0
  3 23  1  0
  4 24  1  0
  9 25  1  0
  9 26  1  0
  9 27  1  0
 11 28  1  0
 14 29  1  0
 14 30  1  0
 17 31  1  0
 17 32  1  0
 17 33  1  0
 18 34  1  0
 19 35  1  0
M  END
$$$$
