
     RDKit          3D

 56 59  0  0  0  0  0  0  0  0999 V2000
    7.7219   -1.3921   -0.3980 C   0  0  0  0  0  0  0  0  0  0  0  0
    7.7016   -0.1629    0.3200 O   0  0  0  0  0  0  0  0  0  0  0  0
    6.4262    0.3017    0.5678 C   0  0  0  0  0  0  0  0  0  0  0  0
    6.3341    1.5018    1.2477 C   0  0  0  0  0  0  0  0  0  0  0  0
    5.0665    2.0100    1.5180 C   0  0  0  0  0  0  0  0  0  0  0  0
    3.9248    1.3088    1.1056 C   0  0  0  0  0  0  0  0  0  0  0  0
    2.5956    1.9063    1.4262 C   0  0  0  0  0  0  0  0  0  0  0  0
    2.5367    2.9991    1.9835 O   0  0  0  0  0  0  0  0  0  0  0  0
    1.4687    1.2014    1.0792 N   0  0  0  0  0  0  0  0  0  0  0  0
    0.1382    1.7416    1.2564 C   0  0  0  0  0  0  0  0  0  0  0  0
   -0.1979    2.7668    0.1451 C   0  0  0  0  0  0  0  0  0  0  0  0
   -1.7150    2.9619   -0.0378 C   0  0  0  0  0  0  0  0  0  0  0  0
   -2.4050    1.6465   -0.4529 C   0  0  0  0  0  0  0  0  0  0  0  0
   -1.9590    0.5498    0.4518 C   0  0  0  0  0  0  0  0  0  0  0  0
   -0.8284    0.6056    1.2457 C   0  0  0  0  0  0  0  0  0  0  0  0
   -0.9199   -0.5266    2.0662 C   0  0  0  0  0  0  0  0  0  0  0  0
   -2.0145   -1.2461    1.8204 N   0  0  0  0  0  0  0  0  0  0  0  0
   -2.6228   -0.6221    0.7710 N   0  0  0  0  0  0  0  0  0  0  0  0
   -3.8471   -1.1376    0.2612 C   0  0  0  0  0  0  0  0  0  0  0  0
   -4.7632   -1.6194    1.2142 C   0  0  0  0  0  0  0  0  0  0  0  0
   -6.0255   -2.0553    0.8268 C   0  0  0  0  0  0  0  0  0  0  0  0
   -6.3840   -2.0218   -0.5158 C   0  0  0  0  0  0  0  0  0  0  0  0
   -5.4733   -1.5884   -1.4933 C   0  0  0  0  0  0  0  0  0  0  0  0
   -5.9053   -1.6364   -2.9369 C   0  0  0  0  0  0  0  0  0  0  0  0
   -4.1657   -1.1851   -1.1152 C   0  0  0  0  0  0  0  0  0  0  0  0
   -3.1488   -0.9425   -2.2013 C   0  0  0  0  0  0  0  0  0  0  0  0
    4.1285    0.1046    0.4277 C   0  0  0  0  0  0  0  0  0  0  0  0
    3.0264   -0.6095   -0.0064 O   0  0  0  0  0  0  0  0  0  0  0  0
    3.3495   -1.8621   -0.6053 C   0  0  0  0  0  0  0  0  0  0  0  0
    5.3558   -0.4060    0.1518 N   0  0  0  0  0  0  0  0  0  0  0  0
    8.7687   -1.6722   -0.5501 H   0  0  0  0  0  0  0  0  0  0  0  0
    7.2600   -1.2829   -1.3853 H   0  0  0  0  0  0  0  0  0  0  0  0
    7.2421   -2.1941    0.1738 H   0  0  0  0  0  0  0  0  0  0  0  0
    7.2274    2.0316    1.5595 H   0  0  0  0  0  0  0  0  0  0  0  0
    4.9724    2.9539    2.0516 H   0  0  0  0  0  0  0  0  0  0  0  0
    1.5724    0.3573    0.5248 H   0  0  0  0  0  0  0  0  0  0  0  0
    0.0854    2.2442    2.2305 H   0  0  0  0  0  0  0  0  0  0  0  0
    0.2284    2.4369   -0.8125 H   0  0  0  0  0  0  0  0  0  0  0  0
    0.2761    3.7283    0.3761 H   0  0  0  0  0  0  0  0  0  0  0  0
   -2.1480    3.3308    0.9010 H   0  0  0  0  0  0  0  0  0  0  0  0
   -1.9014    3.7258   -0.8011 H   0  0  0  0  0  0  0  0  0  0  0  0
   -3.4915    1.7772   -0.4243 H   0  0  0  0  0  0  0  0  0  0  0  0
   -2.1066    1.4243   -1.4813 H   0  0  0  0  0  0  0  0  0  0  0  0
   -0.2529   -0.8401    2.8596 H   0  0  0  0  0  0  0  0  0  0  0  0
   -4.5094   -1.6245    2.2736 H   0  0  0  0  0  0  0  0  0  0  0  0
   -6.7316   -2.4088    1.5733 H   0  0  0  0  0  0  0  0  0  0  0  0
   -7.3786   -2.3582   -0.8016 H   0  0  0  0  0  0  0  0  0  0  0  0
   -5.4721   -2.5112   -3.4317 H   0  0  0  0  0  0  0  0  0  0  0  0
   -5.5996   -0.7276   -3.4649 H   0  0  0  0  0  0  0  0  0  0  0  0
   -6.9955   -1.7001   -3.0238 H   0  0  0  0  0  0  0  0  0  0  0  0
   -2.1221   -0.9471   -1.8270 H   0  0  0  0  0  0  0  0  0  0  0  0
   -3.1859   -1.7491   -2.9423 H   0  0  0  0  0  0  0  0  0  0  0  0
   -3.3493    0.0054   -2.7082 H   0  0  0  0  0  0  0  0  0  0  0  0
    3.8755   -2.5160    0.0990 H   0  0  0  0  0  0  0  0  0  0  0  0
    2.4090   -2.3523   -0.8743 H   0  0  0  0  0  0  0  0  0  0  0  0
    3.9277   -1.7238   -1.5251 H   0  0  0  0  0  0  0  0  0  0  0  0
  1  2  1  0
  2  3  1  0
  3  4  2  0
  4  5  1  0
  5  6  2  0
  6  7  1  0
  7  8  2  0
  7  9  1  0
  9 10  1  0
 10 11  1  0
 11 12  1  0
 12 13  1  0
 13 14  1  0
 14 15  2  0
 15 16  1  0
 16 17  2  0
 17 18  1  0
 18 19  1  0
 19 20  2  0
 20 21  1  0
 21 22  2  0
 22 23  1  0
 23 24  1  0
 23 25  2  0
 25 26  1  0
  6 27  1  0
 27 28  1  0
 28 29  1  0
 27 30  2  0
 30  3  1  0
 15 10  1  0
 25 19  1  0
 18 14  1  0
  1 31  1  0
  1 32  1  0
  1 33  1  0
  4 34  1  0
  5 35  1  0
  9 36  1  0
 10 37  1  0
 11 38  1  0
 11 39  1  0
 12 40  1  0
 12 41  1  0
 13 42  1  0
 13 43  1  0
 16 44  1  0
 20 45  1  0
 21 46  1  0
 22 47  1  0
 24 48  1  0
 24 49  1  0
 24 50  1  0
 26 51  1  0
 26 52  1  0
 26 53  1  0
 29 54  1  0
 29 55  1  0
 29 56  1  0
M  END
$$$$
