
     RDKit          3D

 44 46  0  0  0  0  0  0  0  0999 V2000
    5.1819   -0.7910   -0.5679 C   0  0  0  0  0  0  0  0  0  0  0  0
    4.7490    0.5550    0.0270 C   0  0  0  0  0  0  0  0  0  0  0  0
    4.2993    0.3727    1.4818 C   0  0  0  0  0  0  0  0  0  0  0  0
    5.9545    1.5131    0.0119 C   0  0  0  0  0  0  0  0  0  0  0  0
    3.6171    1.1426   -0.8442 C   0  0  0  0  0  0  0  0  0  0  0  0
    3.8175    2.1108   -1.5863 O   0  0  0  0  0  0  0  0  0  0  0  0
    2.2503    0.4822   -0.8102 C   0  0  0  0  0  0  0  0  0  0  0  0
    1.1151    1.4853    0.1970 S   0  0  0  0  0  0  0  0  0  0  0  0
   -0.4080    0.5539    0.0129 C   0  0  0  0  0  0  0  0  0  0  0  0
   -0.3133   -0.5775   -0.7356 N   0  0  0  0  0  0  0  0  0  0  0  0
   -1.4437   -1.2760   -0.9060 C   0  0  0  0  0  0  0  0  0  0  0  0
   -2.6731   -0.9335   -0.3661 C   0  0  0  0  0  0  0  0  0  0  0  0
   -2.7728    0.2040    0.4244 C   0  0  0  0  0  0  0  0  0  0  0  0
   -4.0578    0.5751    1.0181 C   0  0  0  0  0  0  0  0  0  0  0  0
   -4.9587    1.5358    0.6035 C   0  0  0  0  0  0  0  0  0  0  0  0
   -6.1026    1.6041    1.4518 C   0  0  0  0  0  0  0  0  0  0  0  0
   -6.0337    0.6972    2.4852 C   0  0  0  0  0  0  0  0  0  0  0  0
   -4.5958   -0.2270    2.4337 S   0  0  0  0  0  0  0  0  0  0  0  0
   -1.6083    0.9775    0.6128 C   0  0  0  0  0  0  0  0  0  0  0  0
   -1.6535    2.1693    1.4115 C   0  0  0  0  0  0  0  0  0  0  0  0
   -1.7105    3.1328    2.0575 N   0  0  0  0  0  0  0  0  0  0  0  0
   -3.7113   -1.9478   -0.7340 C   0  0  0  0  0  0  0  0  0  0  0  0
   -3.0377   -2.6506   -1.9226 C   0  0  0  0  0  0  0  0  0  0  0  0
   -1.5276   -2.5627   -1.6768 C   0  0  0  0  0  0  0  0  0  0  0  0
    4.3763   -1.5325   -0.5279 H   0  0  0  0  0  0  0  0  0  0  0  0
    6.0399   -1.2068   -0.0270 H   0  0  0  0  0  0  0  0  0  0  0  0
    5.4681   -0.6819   -1.6199 H   0  0  0  0  0  0  0  0  0  0  0  0
    5.1320    0.0433    2.1154 H   0  0  0  0  0  0  0  0  0  0  0  0
    3.9165    1.3112    1.8991 H   0  0  0  0  0  0  0  0  0  0  0  0
    3.5074   -0.3774    1.5754 H   0  0  0  0  0  0  0  0  0  0  0  0
    6.3377    1.6576   -1.0053 H   0  0  0  0  0  0  0  0  0  0  0  0
    5.6805    2.4996    0.4019 H   0  0  0  0  0  0  0  0  0  0  0  0
    6.7779    1.1273    0.6227 H   0  0  0  0  0  0  0  0  0  0  0  0
    1.8940    0.4108   -1.8425 H   0  0  0  0  0  0  0  0  0  0  0  0
    2.3247   -0.5316   -0.4087 H   0  0  0  0  0  0  0  0  0  0  0  0
   -4.8097    2.1639   -0.2669 H   0  0  0  0  0  0  0  0  0  0  0  0
   -6.9314    2.2872    1.3125 H   0  0  0  0  0  0  0  0  0  0  0  0
   -6.7555    0.5339    3.2739 H   0  0  0  0  0  0  0  0  0  0  0  0
   -3.8697   -2.6461    0.0933 H   0  0  0  0  0  0  0  0  0  0  0  0
   -4.6607   -1.4962   -1.0343 H   0  0  0  0  0  0  0  0  0  0  0  0
   -3.3824   -3.6819   -2.0500 H   0  0  0  0  0  0  0  0  0  0  0  0
   -3.2849   -2.1096   -2.8478 H   0  0  0  0  0  0  0  0  0  0  0  0
   -0.9603   -2.5254   -2.6104 H   0  0  0  0  0  0  0  0  0  0  0  0
   -1.1766   -3.3908   -1.0536 H   0  0  0  0  0  0  0  0  0  0  0  0
  1  2  1  0
  2  3  1  0
  2  4  1  0
  2  5  1  0
  5  6  2  0
  5  7  1  0
  7  8  1  0
  8  9  1  0
  9 10  2  0
 10 11  1  0
 11 12  2  0
 12 13  1  0
 13 14  1  0
 14 15  2  0
 15 16  1  0
 16 17  2  0
 17 18  1  0
 13 19  2  0
 19 20  1  0
 20 21  3  0
 12 22  1  0
 22 23  1  0
 23 24  1  0
 19  9  1  0
 24 11  1  0
 18 14  1  0
  1 25  1  0
  1 26  1  0
  1 27  1  0
  3 28  1  0
  3 29  1  0
  3 30  1  0
  4 31  1  0
  4 32  1  0
  4 33  1  0
  7 34  1  0
  7 35  1  0
 15 36  1  0
 16 37  1  0
 17 38  1  0
 22 39  1  0
 22 40  1  0
 23 41  1  0
 23 42  1  0
 24 43  1  0
 24 44  1  0
M  END
$$$$
