
     RDKit          3D

 33 34  0  0  0  0  0  0  0  0999 V2000
   -4.7080    0.7824    2.9268 C   0  0  0  0  0  0  0  0  0  0  0  0
   -4.4005    0.1562    1.6868 O   0  0  0  0  0  0  0  0  0  0  0  0
   -3.1438    0.3591    1.1845 C   0  0  0  0  0  0  0  0  0  0  0  0
   -2.1449    1.1322    1.7715 C   0  0  0  0  0  0  0  0  0  0  0  0
   -0.9019    1.2496    1.1473 C   0  0  0  0  0  0  0  0  0  0  0  0
   -0.6506    0.5871   -0.0624 C   0  0  0  0  0  0  0  0  0  0  0  0
    0.7012    0.7566   -0.6541 C   0  0  0  0  0  0  0  0  0  0  0  0
    1.2038    1.8804   -0.6461 O   0  0  0  0  0  0  0  0  0  0  0  0
    1.3979   -0.4611   -1.2227 C   0  0  0  0  0  0  0  0  0  0  0  0
    2.7966   -0.5047   -0.7145 C   0  0  0  0  0  0  0  0  0  0  0  0
    3.1618   -1.0913    0.4077 N   0  0  0  0  0  0  0  0  0  0  0  0
    4.5191   -0.9903    0.6322 N   0  0  0  0  0  0  0  0  0  0  0  0
    5.1344   -0.3368   -0.3304 C   0  0  0  0  0  0  0  0  0  0  0  0
    6.5902   -0.0543   -0.3715 C   0  0  0  0  0  0  0  0  0  0  0  0
    4.1003    0.1848   -1.5986 S   0  0  0  0  0  0  0  0  0  0  0  0
   -1.6558   -0.1745   -0.6768 C   0  0  0  0  0  0  0  0  0  0  0  0
   -1.3573   -0.7419   -1.8873 O   0  0  0  0  0  0  0  0  0  0  0  0
   -2.3949   -1.4517   -2.5556 C   0  0  0  0  0  0  0  0  0  0  0  0
   -2.8953   -0.2862   -0.0352 C   0  0  0  0  0  0  0  0  0  0  0  0
   -4.0559    0.4159    3.7265 H   0  0  0  0  0  0  0  0  0  0  0  0
   -5.7369    0.5176    3.1886 H   0  0  0  0  0  0  0  0  0  0  0  0
   -4.6560    1.8728    2.8414 H   0  0  0  0  0  0  0  0  0  0  0  0
   -2.2967    1.6562    2.7095 H   0  0  0  0  0  0  0  0  0  0  0  0
   -0.1241    1.8564    1.6085 H   0  0  0  0  0  0  0  0  0  0  0  0
    0.8963   -1.3807   -0.9027 H   0  0  0  0  0  0  0  0  0  0  0  0
    1.3573   -0.4133   -2.3158 H   0  0  0  0  0  0  0  0  0  0  0  0
    7.0520   -0.5154   -1.2502 H   0  0  0  0  0  0  0  0  0  0  0  0
    6.7775    1.0238   -0.4010 H   0  0  0  0  0  0  0  0  0  0  0  0
    7.0841   -0.4571    0.5185 H   0  0  0  0  0  0  0  0  0  0  0  0
   -3.2437   -0.7963   -2.7765 H   0  0  0  0  0  0  0  0  0  0  0  0
   -1.9932   -1.8084   -3.5089 H   0  0  0  0  0  0  0  0  0  0  0  0
   -2.7071   -2.3277   -1.9778 H   0  0  0  0  0  0  0  0  0  0  0  0
   -3.7062   -0.8692   -0.4616 H   0  0  0  0  0  0  0  0  0  0  0  0
  1  2  1  0
  2  3  1  0
  3  4  2  0
  4  5  1  0
  5  6  2  0
  6  7  1  0
  7  8  2  0
  7  9  1  0
  9 10  1  0
 10 11  2  0
 11 12  1  0
 12 13  2  0
 13 14  1  0
 13 15  1  0
  6 16  1  0
 16 17  1  0
 17 18  1  0
 16 19  2  0
 19  3  1  0
 15 10  1  0
  1 20  1  0
  1 21  1  0
  1 22  1  0
  4 23  1  0
  5 24  1  0
  9 25  1  0
  9 26  1  0
 14 27  1  0
 14 28  1  0
 14 29  1  0
 18 30  1  0
 18 31  1  0
 18 32  1  0
 19 33  1  0
M  END
$$$$
