
     RDKit          3D

 53 56  0  0  0  0  0  0  0  0999 V2000
    4.7094   -2.2616    1.9014 C   0  0  0  0  0  0  0  0  0  0  0  0
    4.3715   -0.8820    1.5172 N   0  0  0  0  0  0  0  0  0  0  0  0
    5.3164   -0.1639    0.7401 C   0  0  0  0  0  0  0  0  0  0  0  0
    4.9972    1.1165    0.2460 C   0  0  0  0  0  0  0  0  0  0  0  0
    5.9044    1.8647   -0.5123 C   0  0  0  0  0  0  0  0  0  0  0  0
    7.1661    1.3546   -0.7879 C   0  0  0  0  0  0  0  0  0  0  0  0
    7.5195    0.1023   -0.2979 C   0  0  0  0  0  0  0  0  0  0  0  0
    6.6075   -0.6431    0.4606 C   0  0  0  0  0  0  0  0  0  0  0  0
    2.9679   -0.7012    1.4303 C   0  0  0  0  0  0  0  0  0  0  0  0
    2.2998   -0.9223    0.2158 C   0  0  0  0  0  0  0  0  0  0  0  0
    0.9136   -0.7452    0.1085 C   0  0  0  0  0  0  0  0  0  0  0  0
    0.1594   -0.3289    1.2128 C   0  0  0  0  0  0  0  0  0  0  0  0
   -1.2963   -0.1547    1.1334 C   0  0  0  0  0  0  0  0  0  0  0  0
   -1.9576    0.7077    0.3337 C   0  0  0  0  0  0  0  0  0  0  0  0
   -1.2771    1.6175   -0.5321 C   0  0  0  0  0  0  0  0  0  0  0  0
   -0.7515    2.3287   -1.2844 N   0  0  0  0  0  0  0  0  0  0  0  0
   -3.3742    0.7602    0.4718 C   0  0  0  0  0  0  0  0  0  0  0  0
   -4.0778    0.8077    1.5866 N   0  0  0  0  0  0  0  0  0  0  0  0
   -5.4021    0.8893    1.2655 N   0  0  0  0  0  0  0  0  0  0  0  0
   -5.5163    0.8575   -0.0455 C   0  0  0  0  0  0  0  0  0  0  0  0
   -4.2575    0.7280   -0.5912 N   0  0  0  0  0  0  0  0  0  0  0  0
   -3.9871    0.5414   -1.9988 C   0  0  0  0  0  0  0  0  0  0  0  0
   -4.5833   -0.7425   -2.5772 C   0  0  0  0  0  0  0  0  0  0  0  0
   -6.0839   -0.9531   -2.3501 C   0  0  0  0  0  0  0  0  0  0  0  0
   -6.8702    0.3433   -2.1847 C   0  0  0  0  0  0  0  0  0  0  0  0
   -6.8183    0.9237   -0.7724 C   0  0  0  0  0  0  0  0  0  0  0  0
    0.8010   -0.1087    2.4336 C   0  0  0  0  0  0  0  0  0  0  0  0
    2.1872   -0.2974    2.5226 C   0  0  0  0  0  0  0  0  0  0  0  0
    2.8140   -0.0380    3.7983 N   0  0  0  0  0  4  0  0  0  0  0  0
    3.1115   -1.0229    4.4898 O   0  0  0  0  0  0  0  0  0  0  0  0
    2.9446    1.1477    4.1300 O   0  0  0  0  0  1  0  0  0  0  0  0
    3.9231   -2.7305    2.5064 H   0  0  0  0  0  0  0  0  0  0  0  0
    4.8556   -2.8930    1.0159 H   0  0  0  0  0  0  0  0  0  0  0  0
    5.6166   -2.2817    2.5165 H   0  0  0  0  0  0  0  0  0  0  0  0
    4.0296    1.5641    0.4597 H   0  0  0  0  0  0  0  0  0  0  0  0
    5.6211    2.8494   -0.8760 H   0  0  0  0  0  0  0  0  0  0  0  0
    7.8752    1.9350   -1.3719 H   0  0  0  0  0  0  0  0  0  0  0  0
    8.5094   -0.2982   -0.4981 H   0  0  0  0  0  0  0  0  0  0  0  0
    6.9439   -1.6089    0.8245 H   0  0  0  0  0  0  0  0  0  0  0  0
    2.8647   -1.2343   -0.6606 H   0  0  0  0  0  0  0  0  0  0  0  0
    0.4386   -0.9388   -0.8513 H   0  0  0  0  0  0  0  0  0  0  0  0
   -1.8559   -0.7768    1.8345 H   0  0  0  0  0  0  0  0  0  0  0  0
   -2.9092    0.5076   -2.1666 H   0  0  0  0  0  0  0  0  0  0  0  0
   -4.3533    1.4328   -2.5201 H   0  0  0  0  0  0  0  0  0  0  0  0
   -4.0467   -1.6134   -2.1787 H   0  0  0  0  0  0  0  0  0  0  0  0
   -4.3921   -0.7389   -3.6579 H   0  0  0  0  0  0  0  0  0  0  0  0
   -6.4825   -1.5116   -3.2062 H   0  0  0  0  0  0  0  0  0  0  0  0
   -6.2399   -1.5971   -1.4755 H   0  0  0  0  0  0  0  0  0  0  0  0
   -7.9238    0.1496   -2.4248 H   0  0  0  0  0  0  0  0  0  0  0  0
   -6.5385    1.0874   -2.9177 H   0  0  0  0  0  0  0  0  0  0  0  0
   -7.1512    1.9679   -0.8056 H   0  0  0  0  0  0  0  0  0  0  0  0
   -7.5592    0.3904   -0.1611 H   0  0  0  0  0  0  0  0  0  0  0  0
    0.2368    0.2133    3.3068 H   0  0  0  0  0  0  0  0  0  0  0  0
  1  2  1  0
  2  3  1  0
  3  4  2  0
  4  5  1  0
  5  6  2  0
  6  7  1  0
  7  8  2  0
  2  9  1  0
  9 10  2  0
 10 11  1  0
 11 12  2  0
 12 13  1  0
 13 14  2  3
 14 15  1  0
 15 16  3  0
 14 17  1  0
 17 18  2  0
 18 19  1  0
 19 20  2  0
 20 21  1  0
 21 22  1  0
 22 23  1  0
 23 24  1  0
 24 25  1  0
 25 26  1  0
 12 27  1  0
 27 28  2  0
 28 29  1  0
 29 30  2  0
 29 31  1  0
  8  3  1  0
 28  9  1  0
 21 17  1  0
 26 20  1  0
  1 32  1  0
  1 33  1  0
  1 34  1  0
  4 35  1  0
  5 36  1  0
  6 37  1  0
  7 38  1  0
  8 39  1  0
 10 40  1  0
 11 41  1  0
 13 42  1  0
 22 43  1  0
 22 44  1  0
 23 45  1  0
 23 46  1  0
 24 47  1  0
 24 48  1  0
 25 49  1  0
 25 50  1  0
 26 51  1  0
 26 52  1  0
 27 53  1  0
M  CHG  2  29   1  31  -1
M  END
$$$$
