
     RDKit          3D

 51 54  0  0  0  0  0  0  0  0999 V2000
   -4.9782   -2.6511   -0.6743 C   0  0  0  0  0  0  0  0  0  0  0  0
   -4.1973   -2.2362    0.5703 C   0  0  0  0  0  0  0  0  0  0  0  0
   -3.4427   -3.4218    1.1709 C   0  0  0  0  0  0  0  0  0  0  0  0
   -3.3209   -1.0984    0.2867 N   0  0  0  0  0  0  0  0  0  0  0  0
   -2.1463   -1.1727   -0.4215 C   0  0  0  0  0  0  0  0  0  0  0  0
   -1.5802    0.0868   -0.4746 C   0  0  0  0  0  0  0  0  0  0  0  0
   -0.3128    0.3672   -1.1168 C   0  0  0  0  0  0  0  0  0  0  0  0
    0.1667    1.5672   -1.1090 N   0  0  0  0  0  0  0  0  0  0  0  0
    1.3936    1.7125   -1.6937 N   0  0  0  0  0  0  0  0  0  0  0  0
    2.0603    2.9235   -1.5780 C   0  0  0  0  0  0  0  0  0  0  0  0
    1.5864    3.9584   -1.1115 O   0  0  0  0  0  0  0  0  0  0  0  0
    3.4808    2.8909   -2.1497 C   0  0  0  0  0  0  0  0  0  0  0  0
    4.1500    1.6346   -2.1464 O   0  0  0  0  0  0  0  0  0  0  0  0
    4.4262    1.1512   -0.8821 C   0  0  0  0  0  0  0  0  0  0  0  0
    5.2392    1.8764   -0.0028 C   0  0  0  0  0  0  0  0  0  0  0  0
    5.5320    1.3580    1.2526 C   0  0  0  0  0  0  0  0  0  0  0  0
    5.0338    0.1091    1.6146 C   0  0  0  0  0  0  0  0  0  0  0  0
    4.2443   -0.6336    0.7182 C   0  0  0  0  0  0  0  0  0  0  0  0
    3.7583   -1.9006    1.0615 C   0  0  0  0  0  0  0  0  0  0  0  0
    2.9898   -2.6190    0.1546 C   0  0  0  0  0  0  0  0  0  0  0  0
    2.7173   -2.0343   -1.0652 C   0  0  0  0  0  0  0  0  0  0  0  0
    3.1413   -0.8032   -1.4247 N   0  0  0  0  0  0  0  0  0  0  0  0
    3.9246   -0.1159   -0.5552 C   0  0  0  0  0  0  0  0  0  0  0  0
   -2.4768    0.9718    0.2052 C   0  0  0  0  0  0  0  0  0  0  0  0
   -2.4685    2.3593    0.4706 C   0  0  0  0  0  0  0  0  0  0  0  0
   -3.5277    2.9461    1.1669 C   0  0  0  0  0  0  0  0  0  0  0  0
   -4.5939    2.1726    1.6053 C   0  0  0  0  0  0  0  0  0  0  0  0
   -4.6290    0.7966    1.3638 C   0  0  0  0  0  0  0  0  0  0  0  0
   -3.5593    0.2105    0.6635 C   0  0  0  0  0  0  0  0  0  0  0  0
   -5.7075   -3.4322   -0.4281 H   0  0  0  0  0  0  0  0  0  0  0  0
   -4.3124   -3.0425   -1.4538 H   0  0  0  0  0  0  0  0  0  0  0  0
   -5.5253   -1.7974   -1.0999 H   0  0  0  0  0  0  0  0  0  0  0  0
   -4.9120   -1.9057    1.3271 H   0  0  0  0  0  0  0  0  0  0  0  0
   -4.1455   -4.1984    1.4879 H   0  0  0  0  0  0  0  0  0  0  0  0
   -2.7534   -3.8747    0.4510 H   0  0  0  0  0  0  0  0  0  0  0  0
   -2.8590   -3.1133    2.0458 H   0  0  0  0  0  0  0  0  0  0  0  0
   -1.7974   -2.1144   -0.8262 H   0  0  0  0  0  0  0  0  0  0  0  0
    0.2115   -0.4799   -1.5905 H   0  0  0  0  0  0  0  0  0  0  0  0
    1.9329    0.8775   -1.9414 H   0  0  0  0  0  0  0  0  0  0  0  0
    3.3957    3.1975   -3.1989 H   0  0  0  0  0  0  0  0  0  0  0  0
    4.0830    3.6597   -1.6522 H   0  0  0  0  0  0  0  0  0  0  0  0
    5.6618    2.8350   -0.2905 H   0  0  0  0  0  0  0  0  0  0  0  0
    6.1549    1.9228    1.9470 H   0  0  0  0  0  0  0  0  0  0  0  0
    5.2720   -0.2865    2.5998 H   0  0  0  0  0  0  0  0  0  0  0  0
    3.9816   -2.3368    2.0324 H   0  0  0  0  0  0  0  0  0  0  0  0
    2.6193   -3.6074    0.3943 H   0  0  0  0  0  0  0  0  0  0  0  0
    2.1260   -2.5570   -1.8128 H   0  0  0  0  0  0  0  0  0  0  0  0
   -1.6408    2.9771    0.1297 H   0  0  0  0  0  0  0  0  0  0  0  0
   -3.5123    4.0153    1.3602 H   0  0  0  0  0  0  0  0  0  0  0  0
   -5.4117    2.6446    2.1423 H   0  0  0  0  0  0  0  0  0  0  0  0
   -5.4722    0.2111    1.7126 H   0  0  0  0  0  0  0  0  0  0  0  0
  1  2  1  0
  2  3  1  0
  2  4  1  0
  4  5  1  0
  5  6  2  0
  6  7  1  0
  7  8  2  3
  8  9  1  0
  9 10  1  0
 10 11  2  0
 10 12  1  0
 12 13  1  0
 13 14  1  0
 14 15  2  0
 15 16  1  0
 16 17  2  0
 17 18  1  0
 18 19  2  0
 19 20  1  0
 20 21  2  0
 21 22  1  0
 22 23  2  0
  6 24  1  0
 24 25  2  0
 25 26  1  0
 26 27  2  0
 27 28  1  0
 28 29  2  0
 29  4  1  0
 23 14  1  0
 29 24  1  0
 23 18  1  0
  1 30  1  0
  1 31  1  0
  1 32  1  0
  2 33  1  0
  3 34  1  0
  3 35  1  0
  3 36  1  0
  5 37  1  0
  7 38  1  0
  9 39  1  0
 12 40  1  0
 12 41  1  0
 15 42  1  0
 16 43  1  0
 17 44  1  0
 19 45  1  0
 20 46  1  0
 21 47  1  0
 25 48  1  0
 26 49  1  0
 27 50  1  0
 28 51  1  0
M  END
$$$$
