
     RDKit          3D

 55 58  0  0  0  0  0  0  0  0999 V2000
    4.8455   -3.3674    4.1236 N   0  0  0  0  0  0  0  0  0  0  0  0
    4.4452   -2.1518    3.6358 C   0  0  0  0  0  0  0  0  0  0  0  0
    5.0396   -1.1224    3.9479 O   0  0  0  0  0  0  0  0  0  0  0  0
    3.2712   -2.1939    2.7473 C   0  0  0  0  0  0  0  0  0  0  0  0
    2.6402   -3.3626    2.5405 N   0  0  0  0  0  0  0  0  0  0  0  0
    1.3391   -3.1073    1.5503 S   0  0  0  0  0  0  0  0  0  0  0  0
    1.6024   -1.4384    1.3082 C   0  0  0  0  0  0  0  0  0  0  0  0
    0.6936   -0.6289    0.5174 C   0  0  0  0  0  0  0  0  0  0  0  0
    0.2526    0.4276    0.9775 O   0  0  0  0  0  0  0  0  0  0  0  0
    0.2801   -1.1059   -0.7439 N   0  0  0  0  0  0  0  0  0  0  0  0
    1.0992   -1.9230   -1.5839 C   0  0  0  0  0  0  0  0  0  0  0  0
    0.5164   -2.9154   -2.3847 C   0  0  0  0  0  0  0  0  0  0  0  0
    1.3069   -3.7209   -3.2080 C   0  0  0  0  0  0  0  0  0  0  0  0
    2.6870   -3.5377   -3.2464 C   0  0  0  0  0  0  0  0  0  0  0  0
    3.2771   -2.5486   -2.4637 C   0  0  0  0  0  0  0  0  0  0  0  0
    2.4882   -1.7440   -1.6379 C   0  0  0  0  0  0  0  0  0  0  0  0
   -0.8841   -0.4570   -1.3790 C   0  0  0  0  0  0  0  0  0  0  0  0
   -0.6489    1.0442   -1.6962 C   0  0  0  0  0  0  0  0  0  0  0  0
    0.4774    1.5418   -1.7589 O   0  0  0  0  0  0  0  0  0  0  0  0
   -1.7789    1.7739   -2.0332 N   0  0  0  0  0  0  0  0  0  0  0  0
   -1.7309    3.2139   -2.1518 C   0  0  0  0  0  0  0  0  0  0  0  0
   -2.2140    3.8573   -0.8749 C   0  0  0  0  0  0  0  0  0  0  0  0
   -3.5022    4.4087   -0.7920 C   0  0  0  0  0  0  0  0  0  0  0  0
   -3.9504    4.9743    0.4031 C   0  0  0  0  0  0  0  0  0  0  0  0
   -3.1159    4.9834    1.5150 C   0  0  0  0  0  0  0  0  0  0  0  0
   -3.5519    5.5227    2.6610 F   0  0  0  0  0  0  0  0  0  0  0  0
   -1.8402    4.4373    1.4564 C   0  0  0  0  0  0  0  0  0  0  0  0
   -1.3887    3.8738    0.2626 C   0  0  0  0  0  0  0  0  0  0  0  0
   -2.1282   -0.7116   -0.5779 C   0  0  0  0  0  0  0  0  0  0  0  0
   -2.7134   -0.1269    0.5302 C   0  0  0  0  0  0  0  0  0  0  0  0
   -3.9037   -0.8464    0.7889 C   0  0  0  0  0  0  0  0  0  0  0  0
   -3.9758   -1.8250   -0.1726 C   0  0  0  0  0  0  0  0  0  0  0  0
   -2.9095   -1.7499   -1.0084 O   0  0  0  0  0  0  0  0  0  0  0  0
    2.6949   -1.0590    2.0617 C   0  0  0  0  0  0  0  0  0  0  0  0
    3.1649    0.2122    2.1228 N   0  0  0  0  0  0  0  0  0  0  0  0
    5.6186   -3.4131    4.7688 H   0  0  0  0  0  0  0  0  0  0  0  0
    4.3140   -4.1968    3.8868 H   0  0  0  0  0  0  0  0  0  0  0  0
   -0.5538   -3.1064   -2.3484 H   0  0  0  0  0  0  0  0  0  0  0  0
    0.8455   -4.4971   -3.8133 H   0  0  0  0  0  0  0  0  0  0  0  0
    3.3029   -4.1636   -3.8872 H   0  0  0  0  0  0  0  0  0  0  0  0
    4.3529   -2.3944   -2.5002 H   0  0  0  0  0  0  0  0  0  0  0  0
    2.9770   -0.9529   -1.0730 H   0  0  0  0  0  0  0  0  0  0  0  0
   -1.0483   -0.8962   -2.3723 H   0  0  0  0  0  0  0  0  0  0  0  0
   -2.6897    1.3673   -1.8609 H   0  0  0  0  0  0  0  0  0  0  0  0
   -2.3794    3.4896   -2.9905 H   0  0  0  0  0  0  0  0  0  0  0  0
   -0.7200    3.5617   -2.3904 H   0  0  0  0  0  0  0  0  0  0  0  0
   -4.1638    4.4014   -1.6555 H   0  0  0  0  0  0  0  0  0  0  0  0
   -4.9435    5.4060    0.4756 H   0  0  0  0  0  0  0  0  0  0  0  0
   -1.2059    4.4487    2.3370 H   0  0  0  0  0  0  0  0  0  0  0  0
   -0.3910    3.4364    0.2226 H   0  0  0  0  0  0  0  0  0  0  0  0
   -2.3234    0.7163    1.0877 H   0  0  0  0  0  0  0  0  0  0  0  0
   -4.6174   -0.6758    1.5830 H   0  0  0  0  0  0  0  0  0  0  0  0
   -4.6849   -2.6129   -0.3869 H   0  0  0  0  0  0  0  0  0  0  0  0
    2.5608    0.9985    1.8801 H   0  0  0  0  0  0  0  0  0  0  0  0
    3.8644    0.4563    2.8292 H   0  0  0  0  0  0  0  0  0  0  0  0
  1  2  1  0
  2  3  2  0
  2  4  1  0
  4  5  2  0
  5  6  1  0
  6  7  1  0
  7  8  1  0
  8  9  2  0
  8 10  1  0
 10 11  1  0
 11 12  2  0
 12 13  1  0
 13 14  2  0
 14 15  1  0
 15 16  2  0
 10 17  1  0
 17 18  1  0
 18 19  2  0
 18 20  1  0
 20 21  1  0
 21 22  1  0
 22 23  2  0
 23 24  1  0
 24 25  2  0
 25 26  1  0
 25 27  1  0
 27 28  2  0
 17 29  1  0
 29 30  2  0
 30 31  1  0
 31 32  2  0
 32 33  1  0
  7 34  2  0
 34 35  1  0
 34  4  1  0
 16 11  1  0
 28 22  1  0
 33 29  1  0
  1 36  1  0
  1 37  1  0
 12 38  1  0
 13 39  1  0
 14 40  1  0
 15 41  1  0
 16 42  1  0
 17 43  1  0
 20 44  1  0
 21 45  1  0
 21 46  1  0
 23 47  1  0
 24 48  1  0
 27 49  1  0
 28 50  1  0
 30 51  1  0
 31 52  1  0
 32 53  1  0
 35 54  1  0
 35 55  1  0
M  END
$$$$
