
     RDKit          3D

 50 52  0  0  0  0  0  0  0  0999 V2000
    7.7859   -0.3709   -1.1781 C   0  0  0  0  0  0  0  0  0  0  0  0
    6.3356   -0.4874   -0.8037 C   0  0  0  0  0  0  0  0  0  0  0  0
    5.6945   -1.7336   -0.8545 C   0  0  0  0  0  0  0  0  0  0  0  0
    4.3379   -1.8632   -0.5402 C   0  0  0  0  0  0  0  0  0  0  0  0
    3.5665   -3.3949   -0.5990 Cl  0  0  0  0  0  0  0  0  0  0  0  0
    3.6495   -0.7036   -0.1861 C   0  0  0  0  0  0  0  0  0  0  0  0
    2.3333   -0.6190    0.1515 O   0  0  0  0  0  0  0  0  0  0  0  0
    2.0584    0.6955    0.4223 C   0  0  0  0  0  0  0  0  0  0  0  0
    0.7058    1.0551    0.8072 C   0  0  0  0  0  0  0  0  0  0  0  0
    0.3507    2.2038    1.0536 O   0  0  0  0  0  0  0  0  0  0  0  0
   -0.1547   -0.0201    0.8634 N   0  0  0  0  0  0  0  0  0  0  0  0
   -1.5592    0.0903    1.2165 C   0  0  0  0  0  0  0  0  0  0  0  0
   -2.5519    0.0325   -0.0014 C   0  0  0  0  0  0  0  0  0  0  0  0
   -2.2577    1.2545   -0.9088 C   0  0  0  0  0  0  0  0  0  0  0  0
   -2.2975   -1.2451   -0.8342 C   0  0  0  0  0  0  0  0  0  0  0  0
   -3.9494    0.0871    0.5197 N   0  0  0  0  0  0  0  0  0  0  0  0
   -4.9902    0.4995   -0.4434 C   0  0  0  0  0  0  0  0  0  0  0  0
   -6.4059    0.2532    0.1043 C   0  0  0  0  0  0  0  0  0  0  0  0
   -6.6833   -1.1333    0.3339 O   0  0  0  0  0  0  0  0  0  0  0  0
   -5.5107   -1.8945    0.6425 C   0  0  0  0  0  0  0  0  0  0  0  0
   -4.4048   -1.0681    1.3223 C   0  0  0  0  0  0  0  0  0  0  0  0
    3.2046    1.4626    0.2576 C   0  0  0  0  0  0  0  0  0  0  0  0
    3.3160    2.9309    0.4548 C   0  0  0  0  0  0  0  0  0  0  0  0
    4.2371    0.5549   -0.1350 C   0  0  0  0  0  0  0  0  0  0  0  0
    5.6055    0.6658   -0.4561 C   0  0  0  0  0  0  0  0  0  0  0  0
    8.3306   -1.2847   -0.9187 H   0  0  0  0  0  0  0  0  0  0  0  0
    8.2629    0.4549   -0.6399 H   0  0  0  0  0  0  0  0  0  0  0  0
    7.8807   -0.1946   -2.2539 H   0  0  0  0  0  0  0  0  0  0  0  0
    6.2584   -2.6193   -1.1422 H   0  0  0  0  0  0  0  0  0  0  0  0
    0.2353   -0.9303    0.6441 H   0  0  0  0  0  0  0  0  0  0  0  0
   -1.7162    1.0190    1.7789 H   0  0  0  0  0  0  0  0  0  0  0  0
   -1.7381   -0.7370    1.9103 H   0  0  0  0  0  0  0  0  0  0  0  0
   -2.4293    2.1961   -0.3746 H   0  0  0  0  0  0  0  0  0  0  0  0
   -1.2199    1.2570   -1.2590 H   0  0  0  0  0  0  0  0  0  0  0  0
   -2.8772    1.2561   -1.8126 H   0  0  0  0  0  0  0  0  0  0  0  0
   -3.0185   -1.3450   -1.6525 H   0  0  0  0  0  0  0  0  0  0  0  0
   -1.3020   -1.2279   -1.2930 H   0  0  0  0  0  0  0  0  0  0  0  0
   -2.3533   -2.1530   -0.2251 H   0  0  0  0  0  0  0  0  0  0  0  0
   -4.8868   -0.0564   -1.3825 H   0  0  0  0  0  0  0  0  0  0  0  0
   -4.8926    1.5686   -0.6597 H   0  0  0  0  0  0  0  0  0  0  0  0
   -6.5592    0.7943    1.0456 H   0  0  0  0  0  0  0  0  0  0  0  0
   -7.1526    0.6226   -0.6062 H   0  0  0  0  0  0  0  0  0  0  0  0
   -5.1424   -2.3438   -0.2870 H   0  0  0  0  0  0  0  0  0  0  0  0
   -5.8187   -2.7160    1.2974 H   0  0  0  0  0  0  0  0  0  0  0  0
   -4.8084   -0.6605    2.2579 H   0  0  0  0  0  0  0  0  0  0  0  0
   -3.5908   -1.7385    1.6113 H   0  0  0  0  0  0  0  0  0  0  0  0
    4.3334    3.2868    0.2666 H   0  0  0  0  0  0  0  0  0  0  0  0
    2.6445    3.4610   -0.2283 H   0  0  0  0  0  0  0  0  0  0  0  0
    3.0522    3.2008    1.4824 H   0  0  0  0  0  0  0  0  0  0  0  0
    6.0923    1.6377   -0.4329 H   0  0  0  0  0  0  0  0  0  0  0  0
  1  2  1  0
  2  3  2  0
  3  4  1  0
  4  5  1  0
  4  6  2  0
  6  7  1  0
  7  8  1  0
  8  9  1  0
  9 10  2  0
  9 11  1  0
 11 12  1  0
 12 13  1  0
 13 14  1  0
 13 15  1  0
 13 16  1  0
 16 17  1  0
 17 18  1  0
 18 19  1  0
 19 20  1  0
 20 21  1  0
  8 22  2  0
 22 23  1  0
 22 24  1  0
 24 25  2  0
 25  2  1  0
 24  6  1  0
 21 16  1  0
  1 26  1  0
  1 27  1  0
  1 28  1  0
  3 29  1  0
 11 30  1  0
 12 31  1  0
 12 32  1  0
 14 33  1  0
 14 34  1  0
 14 35  1  0
 15 36  1  0
 15 37  1  0
 15 38  1  0
 17 39  1  0
 17 40  1  0
 18 41  1  0
 18 42  1  0
 20 43  1  0
 20 44  1  0
 21 45  1  0
 21 46  1  0
 23 47  1  0
 23 48  1  0
 23 49  1  0
 25 50  1  0
M  END
$$$$
