
     RDKit          3D

 69 73  0  0  0  0  0  0  0  0999 V2000
   -2.6599    2.8819    4.9339 C   0  0  0  0  0  0  0  0  0  0  0  0
   -2.0489    2.6096    3.5920 C   0  0  0  0  0  0  0  0  0  0  0  0
   -1.8317    3.6547    2.6893 C   0  0  0  0  0  0  0  0  0  0  0  0
   -1.2403    3.4073    1.4477 C   0  0  0  0  0  0  0  0  0  0  0  0
   -0.8454    2.1117    1.0841 C   0  0  0  0  0  0  0  0  0  0  0  0
   -0.2063    1.8618   -0.2713 C   0  0  0  0  0  0  0  0  0  0  0  0
   -0.9762    0.9377   -1.0923 N   0  0  0  0  0  0  0  0  0  0  0  0
   -2.1483    1.4732   -1.6623 C   0  0  0  0  0  0  0  0  0  0  0  0
   -2.3714    2.6863   -1.7021 O   0  0  0  0  0  0  0  0  0  0  0  0
   -3.2056    0.4350   -2.1100 C   0  0  0  0  0  0  0  0  0  0  0  0
   -4.2483    1.0534   -3.0656 C   0  0  0  0  0  0  0  0  0  0  0  0
   -5.6804    0.4770   -2.9826 C   0  0  0  0  0  0  0  0  0  0  0  0
   -6.3595    0.8138   -1.6533 C   0  0  0  0  0  0  0  0  0  0  0  0
   -5.7554   -1.0232   -3.2529 C   0  0  0  0  0  0  0  0  0  0  0  0
   -2.5603   -0.6969   -2.7637 N   0  0  0  0  0  0  0  0  0  0  0  0
   -1.5441   -1.2643   -1.9924 C   0  0  0  0  0  0  0  0  0  0  0  0
   -1.4476   -2.5956   -2.1252 N   0  0  0  0  0  0  0  0  0  0  0  0
   -0.4275   -3.1670   -1.4920 C   0  0  0  0  0  0  0  0  0  0  0  0
    0.5065   -2.5281   -0.7844 N   0  0  0  0  0  0  0  0  0  0  0  0
    0.3984   -1.1852   -0.6625 C   0  0  0  0  0  0  0  0  0  0  0  0
    1.4919   -0.5394   -0.0491 N   0  0  0  0  0  0  0  0  0  0  0  0
    2.5617   -0.2964   -1.0649 C   0  0  0  0  0  0  0  0  0  0  0  0
    3.8103   -1.1852   -0.8599 C   0  0  0  0  0  0  0  0  0  0  0  0
    4.3798   -0.9776    0.4847 N   0  0  0  0  0  0  0  0  0  0  0  0
    5.6533   -1.4287    0.8087 C   0  0  0  0  0  0  0  0  0  0  0  0
    6.3111   -0.9622    1.9591 C   0  0  0  0  0  0  0  0  0  0  0  0
    7.5977   -1.3921    2.3036 C   0  0  0  0  0  0  0  0  0  0  0  0
    8.2643   -2.3067    1.4981 C   0  0  0  0  0  0  0  0  0  0  0  0
    7.6451   -2.7810    0.3489 C   0  0  0  0  0  0  0  0  0  0  0  0
    6.3602   -2.3382    0.0074 C   0  0  0  0  0  0  0  0  0  0  0  0
    3.3969   -0.7556    1.5687 C   0  0  0  0  0  0  0  0  0  0  0  0
    1.9897   -1.2496    1.1591 C   0  0  0  0  0  0  0  0  0  0  0  0
   -0.6797   -0.4731   -1.2205 C   0  0  0  0  0  0  0  0  0  0  0  0
   -1.0530    1.0724    1.9995 C   0  0  0  0  0  0  0  0  0  0  0  0
   -1.6432    1.3187    3.2421 C   0  0  0  0  0  0  0  0  0  0  0  0
   -1.8853    3.1978    5.6398 H   0  0  0  0  0  0  0  0  0  0  0  0
   -3.4205    3.6673    4.8628 H   0  0  0  0  0  0  0  0  0  0  0  0
   -3.1541    1.9874    5.3289 H   0  0  0  0  0  0  0  0  0  0  0  0
   -2.1270    4.6701    2.9430 H   0  0  0  0  0  0  0  0  0  0  0  0
   -1.1020    4.2367    0.7562 H   0  0  0  0  0  0  0  0  0  0  0  0
   -0.1504    2.8142   -0.8161 H   0  0  0  0  0  0  0  0  0  0  0  0
    0.8352    1.5886   -0.1433 H   0  0  0  0  0  0  0  0  0  0  0  0
   -3.6980    0.0990   -1.1887 H   0  0  0  0  0  0  0  0  0  0  0  0
   -4.3368    2.1324   -2.8910 H   0  0  0  0  0  0  0  0  0  0  0  0
   -3.8949    0.9563   -4.1013 H   0  0  0  0  0  0  0  0  0  0  0  0
   -6.2603    0.9752   -3.7715 H   0  0  0  0  0  0  0  0  0  0  0  0
   -6.3146    1.8896   -1.4543 H   0  0  0  0  0  0  0  0  0  0  0  0
   -7.4158    0.5246   -1.6799 H   0  0  0  0  0  0  0  0  0  0  0  0
   -5.8961    0.2912   -0.8111 H   0  0  0  0  0  0  0  0  0  0  0  0
   -5.3067   -1.6062   -2.4419 H   0  0  0  0  0  0  0  0  0  0  0  0
   -5.2483   -1.2768   -4.1899 H   0  0  0  0  0  0  0  0  0  0  0  0
   -6.7997   -1.3432   -3.3461 H   0  0  0  0  0  0  0  0  0  0  0  0
   -3.1593   -1.4508   -3.0830 H   0  0  0  0  0  0  0  0  0  0  0  0
   -0.3358   -4.2442   -1.5718 H   0  0  0  0  0  0  0  0  0  0  0  0
    2.8679    0.7528   -0.9659 H   0  0  0  0  0  0  0  0  0  0  0  0
    2.1950   -0.4136   -2.0932 H   0  0  0  0  0  0  0  0  0  0  0  0
    4.5455   -0.9126   -1.6264 H   0  0  0  0  0  0  0  0  0  0  0  0
    3.5439   -2.2406   -0.9973 H   0  0  0  0  0  0  0  0  0  0  0  0
    5.8333   -0.2218    2.5954 H   0  0  0  0  0  0  0  0  0  0  0  0
    8.0758   -0.9990    3.1952 H   0  0  0  0  0  0  0  0  0  0  0  0
    9.2625   -2.6447    1.7625 H   0  0  0  0  0  0  0  0  0  0  0  0
    8.1570   -3.4958   -0.2891 H   0  0  0  0  0  0  0  0  0  0  0  0
    5.9143   -2.7447   -0.8951 H   0  0  0  0  0  0  0  0  0  0  0  0
    3.3628    0.3153    1.7986 H   0  0  0  0  0  0  0  0  0  0  0  0
    3.6801   -1.2914    2.4822 H   0  0  0  0  0  0  0  0  0  0  0  0
    1.2960   -1.0762    1.9881 H   0  0  0  0  0  0  0  0  0  0  0  0
    2.0525   -2.3341    1.0067 H   0  0  0  0  0  0  0  0  0  0  0  0
   -0.7630    0.0564    1.7524 H   0  0  0  0  0  0  0  0  0  0  0  0
   -1.7875    0.4919    3.9328 H   0  0  0  0  0  0  0  0  0  0  0  0
  1  2  1  0
  2  3  2  0
  3  4  1  0
  4  5  2  0
  5  6  1  0
  6  7  1  0
  7  8  1  0
  8  9  2  0
  8 10  1  0
 10 11  1  0
 11 12  1  0
 12 13  1  0
 12 14  1  0
 10 15  1  0
 15 16  1  0
 16 17  2  0
 17 18  1  0
 18 19  2  0
 19 20  1  0
 20 21  1  0
 21 22  1  0
 22 23  1  0
 23 24  1  0
 24 25  1  0
 25 26  2  0
 26 27  1  0
 27 28  2  0
 28 29  1  0
 29 30  2  0
 24 31  1  0
 31 32  1  0
 20 33  2  0
  5 34  1  0
 34 35  2  0
 35  2  1  0
 33  7  1  0
 33 16  1  0
 32 21  1  0
 30 25  1  0
  1 36  1  0
  1 37  1  0
  1 38  1  0
  3 39  1  0
  4 40  1  0
  6 41  1  0
  6 42  1  0
 10 43  1  0
 11 44  1  0
 11 45  1  0
 12 46  1  0
 13 47  1  0
 13 48  1  0
 13 49  1  0
 14 50  1  0
 14 51  1  0
 14 52  1  0
 15 53  1  0
 18 54  1  0
 22 55  1  0
 22 56  1  0
 23 57  1  0
 23 58  1  0
 26 59  1  0
 27 60  1  0
 28 61  1  0
 29 62  1  0
 30 63  1  0
 31 64  1  0
 31 65  1  0
 32 66  1  0
 32 67  1  0
 34 68  1  0
 35 69  1  0
M  END
$$$$
