
     RDKit          3D

 53 56  0  0  0  0  0  0  0  0999 V2000
   -2.5099   -2.9051   -1.9728 C   0  0  0  0  0  0  0  0  0  0  0  0
   -1.4175   -1.8838   -2.2672 C   0  0  0  0  0  0  0  0  0  0  0  0
   -0.4924   -1.6947   -1.1350 N   0  0  0  0  0  0  0  0  0  0  0  0
    0.5045   -2.6693   -0.9665 C   0  0  0  0  0  0  0  0  0  0  0  0
    0.6385   -3.6089   -1.7583 O   0  0  0  0  0  0  0  0  0  0  0  0
    1.5363   -2.4609    0.1375 C   0  0  0  0  0  0  0  0  0  0  0  0
    2.8835   -1.4257   -0.5272 S   0  0  0  0  0  0  0  0  0  0  0  0
    3.8419   -1.2286    0.8996 C   0  0  0  0  0  0  0  0  0  0  0  0
    3.4243   -1.3812    2.1364 N   0  0  0  0  0  0  0  0  0  0  0  0
    4.4833   -1.1133    2.9755 N   0  0  0  0  0  0  0  0  0  0  0  0
    5.5209   -0.8030    2.2275 C   0  0  0  0  0  0  0  0  0  0  0  0
    6.8598   -0.4409    2.5419 C   0  0  0  0  0  0  0  0  0  0  0  0
    7.7254   -0.1658    1.5462 C   0  0  0  0  0  0  0  0  0  0  0  0
    7.3243   -0.2323    0.1484 C   0  0  0  0  0  0  0  0  0  0  0  0
    6.0597   -0.5758   -0.1526 C   0  0  0  0  0  0  0  0  0  0  0  0
    5.1663   -0.8580    0.8836 N   0  0  0  0  0  0  0  0  0  0  0  0
   -0.9194   -0.8398   -0.1111 C   0  0  0  0  0  0  0  0  0  0  0  0
   -1.0250    0.5024   -0.2783 C   0  0  0  0  0  0  0  0  0  0  0  0
   -0.5616    1.0906   -1.4567 N   0  0  0  0  0  0  0  0  0  0  0  0
   -1.5604    1.2861    0.7432 N   0  0  0  0  0  0  0  0  0  0  0  0
   -1.9372    2.6838    0.5018 C   0  0  0  0  0  0  0  0  0  0  0  0
   -3.3353    2.8206   -0.0661 C   0  0  0  0  0  0  0  0  0  0  0  0
   -3.5546    2.7867   -1.4508 C   0  0  0  0  0  0  0  0  0  0  0  0
   -4.8463    2.8969   -1.9691 C   0  0  0  0  0  0  0  0  0  0  0  0
   -5.9339    3.0379   -1.1098 C   0  0  0  0  0  0  0  0  0  0  0  0
   -5.7314    3.0664    0.2682 C   0  0  0  0  0  0  0  0  0  0  0  0
   -4.4404    2.9564    0.7876 C   0  0  0  0  0  0  0  0  0  0  0  0
   -1.9015    0.7674    1.9876 C   0  0  0  0  0  0  0  0  0  0  0  0
   -2.4069    1.4169    2.9016 O   0  0  0  0  0  0  0  0  0  0  0  0
   -1.6540   -0.5581    2.1763 N   0  0  0  0  0  0  0  0  0  0  0  0
   -1.3425   -1.4372    1.1906 C   0  0  0  0  0  0  0  0  0  0  0  0
   -1.3973   -2.6511    1.3657 O   0  0  0  0  0  0  0  0  0  0  0  0
   -2.0883   -3.8810   -1.7128 H   0  0  0  0  0  0  0  0  0  0  0  0
   -3.1393   -2.5796   -1.1382 H   0  0  0  0  0  0  0  0  0  0  0  0
   -3.1517   -3.0342   -2.8498 H   0  0  0  0  0  0  0  0  0  0  0  0
   -0.8391   -2.2139   -3.1384 H   0  0  0  0  0  0  0  0  0  0  0  0
   -1.8794   -0.9294   -2.5416 H   0  0  0  0  0  0  0  0  0  0  0  0
    1.9290   -3.4404    0.4308 H   0  0  0  0  0  0  0  0  0  0  0  0
    1.1152   -1.9970    1.0275 H   0  0  0  0  0  0  0  0  0  0  0  0
    7.1561   -0.3943    3.5839 H   0  0  0  0  0  0  0  0  0  0  0  0
    8.7526    0.1116    1.7663 H   0  0  0  0  0  0  0  0  0  0  0  0
    8.0570   -0.0060   -0.6198 H   0  0  0  0  0  0  0  0  0  0  0  0
    5.6973   -0.6476   -1.1704 H   0  0  0  0  0  0  0  0  0  0  0  0
    0.0027    0.4325   -1.9964 H   0  0  0  0  0  0  0  0  0  0  0  0
   -0.0090    1.9210   -1.2608 H   0  0  0  0  0  0  0  0  0  0  0  0
   -1.8792    3.2468    1.4427 H   0  0  0  0  0  0  0  0  0  0  0  0
   -1.2116    3.1770   -0.1545 H   0  0  0  0  0  0  0  0  0  0  0  0
   -2.7192    2.6680   -2.1370 H   0  0  0  0  0  0  0  0  0  0  0  0
   -5.0037    2.8688   -3.0442 H   0  0  0  0  0  0  0  0  0  0  0  0
   -6.9395    3.1216   -1.5132 H   0  0  0  0  0  0  0  0  0  0  0  0
   -6.5786    3.1709    0.9411 H   0  0  0  0  0  0  0  0  0  0  0  0
   -4.3015    2.9735    1.8676 H   0  0  0  0  0  0  0  0  0  0  0  0
   -1.9707   -0.9470    3.0514 H   0  0  0  0  0  0  0  0  0  0  0  0
  1  2  1  0
  2  3  1  0
  3  4  1  0
  4  5  2  0
  4  6  1  0
  6  7  1  0
  7  8  1  0
  8  9  2  0
  9 10  1  0
 10 11  2  0
 11 12  1  0
 12 13  2  0
 13 14  1  0
 14 15  2  0
 15 16  1  0
  3 17  1  0
 17 18  2  0
 18 19  1  0
 18 20  1  0
 20 21  1  0
 21 22  1  0
 22 23  2  0
 23 24  1  0
 24 25  2  0
 25 26  1  0
 26 27  2  0
 20 28  1  0
 28 29  2  0
 28 30  1  0
 30 31  1  0
 31 32  2  0
 16  8  1  0
 31 17  1  0
 16 11  1  0
 27 22  1  0
  1 33  1  0
  1 34  1  0
  1 35  1  0
  2 36  1  0
  2 37  1  0
  6 38  1  0
  6 39  1  0
 12 40  1  0
 13 41  1  0
 14 42  1  0
 15 43  1  0
 19 44  1  0
 19 45  1  0
 21 46  1  0
 21 47  1  0
 23 48  1  0
 24 49  1  0
 25 50  1  0
 26 51  1  0
 27 52  1  0
 30 53  1  0
M  END
$$$$
