
     RDKit          3D

 49 51  0  0  0  0  0  0  0  0999 V2000
   -8.1781    0.3146    2.6392 C   0  0  0  0  0  0  0  0  0  0  0  0
   -7.7517    0.2557    1.2858 O   0  0  0  0  0  0  0  0  0  0  0  0
   -6.4290    0.5122    1.0216 C   0  0  0  0  0  0  0  0  0  0  0  0
   -5.4831    0.8627    1.9921 C   0  0  0  0  0  0  0  0  0  0  0  0
   -4.1556    1.1052    1.6288 C   0  0  0  0  0  0  0  0  0  0  0  0
   -3.7585    0.9958    0.2933 C   0  0  0  0  0  0  0  0  0  0  0  0
   -2.3619    1.2615   -0.0649 C   0  0  0  0  0  0  0  0  0  0  0  0
   -1.4774    0.3487   -0.4891 C   0  0  0  0  0  0  0  0  0  0  0  0
   -1.7141   -1.3406   -0.7069 S   0  0  0  0  0  0  0  0  0  0  0  0
   -0.0461   -1.5959   -1.1846 C   0  0  0  0  0  0  0  0  0  0  0  0
    0.4227   -2.7049   -1.3868 O   0  0  0  0  0  0  0  0  0  0  0  0
    0.6124   -0.3974   -1.2496 N   0  0  0  0  0  0  0  0  0  0  0  0
    2.0210   -0.3274   -1.6079 C   0  0  0  0  0  0  0  0  0  0  0  0
    2.9240   -0.5056   -0.3908 C   0  0  0  0  0  0  0  0  0  0  0  0
    4.3874   -0.4086   -0.7773 C   0  0  0  0  0  0  0  0  0  0  0  0
    4.7364   -0.2551   -1.9416 O   0  0  0  0  0  0  0  0  0  0  0  0
    5.2134   -0.5190    0.3292 N   0  0  0  0  0  0  0  0  0  0  0  0
    6.6232   -0.4709    0.3579 C   0  0  0  0  0  0  0  0  0  0  0  0
    7.4241   -0.3078   -0.7736 C   0  0  0  0  0  0  0  0  0  0  0  0
    8.8177   -0.2679   -0.6564 C   0  0  0  0  0  0  0  0  0  0  0  0
    9.4215   -0.3897    0.5918 C   0  0  0  0  0  0  0  0  0  0  0  0
    8.6329   -0.5547    1.7271 C   0  0  0  0  0  0  0  0  0  0  0  0
    7.2410   -0.5951    1.6103 C   0  0  0  0  0  0  0  0  0  0  0  0
   -0.0718    0.7124   -0.8128 C   0  0  0  0  0  0  0  0  0  0  0  0
    0.3926    1.8341   -0.6715 O   0  0  0  0  0  0  0  0  0  0  0  0
   -4.7033    0.6557   -0.6844 C   0  0  0  0  0  0  0  0  0  0  0  0
   -6.0357    0.4093   -0.3301 C   0  0  0  0  0  0  0  0  0  0  0  0
   -7.0244    0.0674   -1.2218 O   0  0  0  0  0  0  0  0  0  0  0  0
   -6.6625   -0.0828   -2.5894 C   0  0  0  0  0  0  0  0  0  0  0  0
   -9.2433    0.0648    2.6649 H   0  0  0  0  0  0  0  0  0  0  0  0
   -7.6495   -0.4224    3.2541 H   0  0  0  0  0  0  0  0  0  0  0  0
   -8.0638    1.3255    3.0453 H   0  0  0  0  0  0  0  0  0  0  0  0
   -5.7462    0.9567    3.0418 H   0  0  0  0  0  0  0  0  0  0  0  0
   -3.4374    1.3758    2.4011 H   0  0  0  0  0  0  0  0  0  0  0  0
   -2.0540    2.3002    0.0527 H   0  0  0  0  0  0  0  0  0  0  0  0
    2.2126    0.6433   -2.0802 H   0  0  0  0  0  0  0  0  0  0  0  0
    2.2320   -1.1045   -2.3527 H   0  0  0  0  0  0  0  0  0  0  0  0
    2.7484   -1.4852    0.0692 H   0  0  0  0  0  0  0  0  0  0  0  0
    2.7058    0.2650    0.3581 H   0  0  0  0  0  0  0  0  0  0  0  0
    4.7619   -0.6420    1.2268 H   0  0  0  0  0  0  0  0  0  0  0  0
    6.9981   -0.2085   -1.7671 H   0  0  0  0  0  0  0  0  0  0  0  0
    9.4283   -0.1412   -1.5471 H   0  0  0  0  0  0  0  0  0  0  0  0
   10.5044   -0.3584    0.6784 H   0  0  0  0  0  0  0  0  0  0  0  0
    9.1008   -0.6563    2.7027 H   0  0  0  0  0  0  0  0  0  0  0  0
    6.6507   -0.7265    2.5132 H   0  0  0  0  0  0  0  0  0  0  0  0
   -4.3795    0.5901   -1.7188 H   0  0  0  0  0  0  0  0  0  0  0  0
   -7.5597   -0.3745   -3.1450 H   0  0  0  0  0  0  0  0  0  0  0  0
   -5.9198   -0.8792   -2.7176 H   0  0  0  0  0  0  0  0  0  0  0  0
   -6.3068    0.8654   -3.0093 H   0  0  0  0  0  0  0  0  0  0  0  0
  1  2  1  0
  2  3  1  0
  3  4  2  0
  4  5  1  0
  5  6  2  0
  6  7  1  0
  7  8  2  3
  8  9  1  0
  9 10  1  0
 10 11  2  0
 10 12  1  0
 12 13  1  0
 13 14  1  0
 14 15  1  0
 15 16  2  0
 15 17  1  0
 17 18  1  0
 18 19  2  0
 19 20  1  0
 20 21  2  0
 21 22  1  0
 22 23  2  0
 12 24  1  0
 24 25  2  0
  6 26  1  0
 26 27  2  0
 27 28  1  0
 28 29  1  0
 27  3  1  0
 24  8  1  0
 23 18  1  0
  1 30  1  0
  1 31  1  0
  1 32  1  0
  4 33  1  0
  5 34  1  0
  7 35  1  0
 13 36  1  0
 13 37  1  0
 14 38  1  0
 14 39  1  0
 17 40  1  0
 19 41  1  0
 20 42  1  0
 21 43  1  0
 22 44  1  0
 23 45  1  0
 26 46  1  0
 29 47  1  0
 29 48  1  0
 29 49  1  0
M  END
$$$$
