
     RDKit          3D

 34 35  0  0  0  0  0  0  0  0999 V2000
   -0.5591   -3.0220   -0.8953 C   0  0  0  0  0  0  0  0  0  0  0  0
   -0.0851   -1.6970   -1.1508 O   0  0  0  0  0  0  0  0  0  0  0  0
   -1.0402   -0.9684   -1.8078 C   0  0  0  0  0  0  0  0  0  0  0  0
   -0.9715   -0.9209   -3.2021 C   0  0  0  0  0  0  0  0  0  0  0  0
   -1.9276   -0.2015   -3.9215 C   0  0  0  0  0  0  0  0  0  0  0  0
   -2.9445    0.4728   -3.2447 C   0  0  0  0  0  0  0  0  0  0  0  0
   -4.1254    1.3485   -4.1380 Cl  0  0  0  0  0  0  0  0  0  0  0  0
   -3.0069    0.4500   -1.8532 C   0  0  0  0  0  0  0  0  0  0  0  0
   -2.0356   -0.2539   -1.1294 C   0  0  0  0  0  0  0  0  0  0  0  0
   -2.1323   -0.2300    0.3414 C   0  0  0  0  0  0  0  0  0  0  0  0
   -3.1894   -0.4108    0.9270 O   0  0  0  0  0  0  0  0  0  0  0  0
   -0.9079    0.0856    0.8489 O   0  0  0  0  0  0  0  0  0  0  0  0
   -0.9687    0.1624    2.2509 N   0  0  0  0  0  0  0  0  0  0  0  0
    0.1421    0.5943    2.7787 C   0  0  0  0  0  0  0  0  0  0  0  0
    0.1653    0.7825    4.1382 N   0  0  0  0  0  0  0  0  0  0  0  0
    1.3902    0.8960    2.0238 C   0  0  0  0  0  0  0  0  0  0  0  0
    1.9609   -0.0615    1.1795 C   0  0  0  0  0  0  0  0  0  0  0  0
    3.1449    0.2305    0.4989 C   0  0  0  0  0  0  0  0  0  0  0  0
    3.7577    1.4712    0.6762 C   0  0  0  0  0  0  0  0  0  0  0  0
    5.2169    1.8288   -0.1623 Cl  0  0  0  0  0  0  0  0  0  0  0  0
    3.1997    2.4231    1.5305 C   0  0  0  0  0  0  0  0  0  0  0  0
    2.0146    2.1341    2.2113 C   0  0  0  0  0  0  0  0  0  0  0  0
   -0.7925   -3.5447   -1.8293 H   0  0  0  0  0  0  0  0  0  0  0  0
   -1.4327   -3.0128   -0.2351 H   0  0  0  0  0  0  0  0  0  0  0  0
    0.2415   -3.5701   -0.3902 H   0  0  0  0  0  0  0  0  0  0  0  0
   -0.1795   -1.4483   -3.7279 H   0  0  0  0  0  0  0  0  0  0  0  0
   -1.8761   -0.1726   -5.0072 H   0  0  0  0  0  0  0  0  0  0  0  0
   -3.7981    0.9818   -1.3285 H   0  0  0  0  0  0  0  0  0  0  0  0
   -0.6281    0.3400    4.5935 H   0  0  0  0  0  0  0  0  0  0  0  0
    1.0459    0.5901    4.6012 H   0  0  0  0  0  0  0  0  0  0  0  0
    1.4887   -1.0319    1.0497 H   0  0  0  0  0  0  0  0  0  0  0  0
    3.5812   -0.5113   -0.1649 H   0  0  0  0  0  0  0  0  0  0  0  0
    3.6790    3.3890    1.6670 H   0  0  0  0  0  0  0  0  0  0  0  0
    1.5728    2.8770    2.8713 H   0  0  0  0  0  0  0  0  0  0  0  0
  1  2  1  0
  2  3  1  0
  3  4  2  0
  4  5  1  0
  5  6  2  0
  6  7  1  0
  6  8  1  0
  8  9  2  0
  9 10  1  0
 10 11  2  0
 10 12  1  0
 12 13  1  0
 13 14  2  3
 14 15  1  0
 14 16  1  0
 16 17  2  0
 17 18  1  0
 18 19  2  0
 19 20  1  0
 19 21  1  0
 21 22  2  0
  9  3  1  0
 22 16  1  0
  1 23  1  0
  1 24  1  0
  1 25  1  0
  4 26  1  0
  5 27  1  0
  8 28  1  0
 15 29  1  0
 15 30  1  0
 17 31  1  0
 18 32  1  0
 21 33  1  0
 22 34  1  0
M  END
$$$$
