
     RDKit          3D

 38 39  0  0  0  0  0  0  0  0999 V2000
   -4.7973   -3.4290   -0.4588 O   0  0  0  0  0  0  0  0  0  0  0  0
   -3.9721   -3.4511    0.4383 C   0  0  0  0  0  0  0  0  0  0  0  0
   -4.1351   -4.2670    1.4979 O   0  0  0  0  0  0  0  0  0  0  0  0
   -2.7141   -2.6385    0.5410 C   0  0  0  0  0  0  0  0  0  0  0  0
   -2.5765   -1.6890   -0.6432 C   0  0  0  0  0  0  0  0  0  0  0  0
   -1.3722   -0.7839   -0.4652 C   0  0  0  0  0  0  0  0  0  0  0  0
   -0.2004   -1.3354   -0.3501 N   0  0  0  0  0  0  0  0  0  0  0  0
    0.8966   -0.5324   -0.2556 N   0  0  0  0  0  0  0  0  0  0  0  0
    2.1593   -1.0901   -0.1659 C   0  0  0  0  0  0  0  0  0  0  0  0
    2.4022   -2.2901   -0.0720 O   0  0  0  0  0  0  0  0  0  0  0  0
    3.2904   -0.1230   -0.1042 C   0  0  0  0  0  0  0  0  0  0  0  0
    4.3221   -0.4463    0.7956 C   0  0  0  0  0  0  0  0  0  0  0  0
    5.4248    0.3940    0.9532 C   0  0  0  0  0  0  0  0  0  0  0  0
    5.5143    1.5648    0.2073 C   0  0  0  0  0  0  0  0  0  0  0  0
    4.5069    1.8898   -0.7022 C   0  0  0  0  0  0  0  0  0  0  0  0
    3.3965    1.0493   -0.8669 C   0  0  0  0  0  0  0  0  0  0  0  0
    2.1369    1.5757   -2.1902 Br  0  0  0  0  0  0  0  0  0  0  0  0
   -1.6425    0.6693   -0.4411 C   0  0  0  0  0  0  0  0  0  0  0  0
   -1.4752    1.3772    0.7521 C   0  0  0  0  0  0  0  0  0  0  0  0
   -1.7090    2.7512    0.7694 C   0  0  0  0  0  0  0  0  0  0  0  0
   -2.1066    3.4056   -0.3986 C   0  0  0  0  0  0  0  0  0  0  0  0
   -2.2727    2.6901   -1.5869 C   0  0  0  0  0  0  0  0  0  0  0  0
   -2.0414    1.3153   -1.6122 C   0  0  0  0  0  0  0  0  0  0  0  0
   -4.9659   -4.7493    1.3043 H   0  0  0  0  0  0  0  0  0  0  0  0
   -2.7452   -2.0680    1.4762 H   0  0  0  0  0  0  0  0  0  0  0  0
   -1.8620   -3.3261    0.5790 H   0  0  0  0  0  0  0  0  0  0  0  0
   -3.4870   -1.0888   -0.7563 H   0  0  0  0  0  0  0  0  0  0  0  0
   -2.4459   -2.2541   -1.5740 H   0  0  0  0  0  0  0  0  0  0  0  0
    0.7926    0.4691   -0.3776 H   0  0  0  0  0  0  0  0  0  0  0  0
    4.2638   -1.3635    1.3814 H   0  0  0  0  0  0  0  0  0  0  0  0
    6.2129    0.1297    1.6545 H   0  0  0  0  0  0  0  0  0  0  0  0
    6.3751    2.2193    0.3239 H   0  0  0  0  0  0  0  0  0  0  0  0
    4.6052    2.8007   -1.2897 H   0  0  0  0  0  0  0  0  0  0  0  0
   -1.1647    0.8643    1.6595 H   0  0  0  0  0  0  0  0  0  0  0  0
   -1.5835    3.3142    1.6913 H   0  0  0  0  0  0  0  0  0  0  0  0
   -2.2891    4.4779   -0.3831 H   0  0  0  0  0  0  0  0  0  0  0  0
   -2.5804    3.2067   -2.4930 H   0  0  0  0  0  0  0  0  0  0  0  0
   -2.1608    0.7615   -2.5400 H   0  0  0  0  0  0  0  0  0  0  0  0
  1  2  2  0
  2  3  1  0
  2  4  1  0
  4  5  1  0
  5  6  1  0
  6  7  2  3
  7  8  1  0
  8  9  1  0
  9 10  2  0
  9 11  1  0
 11 12  2  0
 12 13  1  0
 13 14  2  0
 14 15  1  0
 15 16  2  0
 16 17  1  0
  6 18  1  0
 18 19  2  0
 19 20  1  0
 20 21  2  0
 21 22  1  0
 22 23  2  0
 16 11  1  0
 23 18  1  0
  3 24  1  0
  4 25  1  0
  4 26  1  0
  5 27  1  0
  5 28  1  0
  8 29  1  0
 12 30  1  0
 13 31  1  0
 14 32  1  0
 15 33  1  0
 19 34  1  0
 20 35  1  0
 21 36  1  0
 22 37  1  0
 23 38  1  0
M  END
$$$$
