
     RDKit          3D

 50 53  0  0  0  0  0  0  0  0999 V2000
    0.8343    3.7474    1.1269 C   0  0  0  0  0  0  0  0  0  0  0  0
    0.8907    3.2862   -0.3218 C   0  0  0  0  0  0  0  0  0  0  0  0
    0.5439    1.8229   -0.4601 C   0  0  0  0  0  0  0  0  0  0  0  0
    1.5703    0.8649   -0.4583 C   0  0  0  0  0  0  0  0  0  0  0  0
    1.2853   -0.5010   -0.5728 C   0  0  0  0  0  0  0  0  0  0  0  0
    2.3468   -1.5209   -0.5842 C   0  0  0  0  0  0  0  0  0  0  0  0
    3.7942   -1.2617   -0.4606 C   0  0  0  0  0  0  0  0  0  0  0  0
    4.5772   -1.0680   -1.6056 C   0  0  0  0  0  0  0  0  0  0  0  0
    5.9460   -0.8221   -1.4860 C   0  0  0  0  0  0  0  0  0  0  0  0
    6.5382   -0.7691   -0.2246 C   0  0  0  0  0  0  0  0  0  0  0  0
    5.7641   -0.9611    0.9193 C   0  0  0  0  0  0  0  0  0  0  0  0
    4.3950   -1.2072    0.8034 C   0  0  0  0  0  0  0  0  0  0  0  0
    1.9897   -2.8078   -0.7152 C   0  0  0  0  0  0  0  0  0  0  0  0
    0.5960   -3.2459   -0.8484 C   0  0  0  0  0  0  0  0  0  0  0  0
    0.3177   -4.4329   -0.9713 O   0  0  0  0  0  0  0  0  0  0  0  0
   -0.3746   -2.2603   -0.8268 O   0  0  0  0  0  0  0  0  0  0  0  0
   -0.0518   -0.8922   -0.6844 C   0  0  0  0  0  0  0  0  0  0  0  0
   -1.1147    0.0274   -0.6669 C   0  0  0  0  0  0  0  0  0  0  0  0
   -2.5453   -0.4406   -0.8557 C   0  0  0  0  0  0  0  0  0  0  0  0
   -3.5212    0.2994   -0.0200 N   0  0  0  0  0  0  0  0  0  0  0  0
   -4.9136    0.0069   -0.4435 C   0  0  0  0  0  0  0  0  0  0  0  0
   -5.6084   -1.0662    0.4086 C   0  0  0  0  0  0  0  0  0  0  0  0
   -5.6970   -0.7079    1.7936 O   0  0  0  0  0  0  0  0  0  0  0  0
   -4.6367    0.1567    2.2227 C   0  0  0  0  0  0  0  0  0  0  0  0
   -3.3451   -0.0497    1.4179 C   0  0  0  0  0  0  0  0  0  0  0  0
   -0.7854    1.3891   -0.5581 C   0  0  0  0  0  0  0  0  0  0  0  0
   -1.7687    2.3445   -0.5317 O   0  0  0  0  0  0  0  0  0  0  0  0
   -0.1686    3.6209    1.5483 H   0  0  0  0  0  0  0  0  0  0  0  0
    1.0995    4.8071    1.1968 H   0  0  0  0  0  0  0  0  0  0  0  0
    1.5339    3.1806    1.7506 H   0  0  0  0  0  0  0  0  0  0  0  0
    0.2159    3.8933   -0.9369 H   0  0  0  0  0  0  0  0  0  0  0  0
    1.8960    3.4662   -0.7225 H   0  0  0  0  0  0  0  0  0  0  0  0
    2.6013    1.2031   -0.3688 H   0  0  0  0  0  0  0  0  0  0  0  0
    4.1263   -1.1036   -2.5948 H   0  0  0  0  0  0  0  0  0  0  0  0
    6.5506   -0.6713   -2.3768 H   0  0  0  0  0  0  0  0  0  0  0  0
    7.6045   -0.5775   -0.1330 H   0  0  0  0  0  0  0  0  0  0  0  0
    6.2272   -0.9187    1.9019 H   0  0  0  0  0  0  0  0  0  0  0  0
    3.8014   -1.3527    1.7031 H   0  0  0  0  0  0  0  0  0  0  0  0
    2.7175   -3.6127   -0.7313 H   0  0  0  0  0  0  0  0  0  0  0  0
   -2.6506   -1.5175   -0.6790 H   0  0  0  0  0  0  0  0  0  0  0  0
   -2.7726   -0.2713   -1.9168 H   0  0  0  0  0  0  0  0  0  0  0  0
   -4.9664   -0.2607   -1.5052 H   0  0  0  0  0  0  0  0  0  0  0  0
   -5.4753    0.9439   -0.3385 H   0  0  0  0  0  0  0  0  0  0  0  0
   -5.0811   -2.0244    0.3349 H   0  0  0  0  0  0  0  0  0  0  0  0
   -6.6292   -1.2289    0.0481 H   0  0  0  0  0  0  0  0  0  0  0  0
   -4.4567   -0.0480    3.2830 H   0  0  0  0  0  0  0  0  0  0  0  0
   -4.9847    1.1936    2.1462 H   0  0  0  0  0  0  0  0  0  0  0  0
   -3.0462   -1.1008    1.5257 H   0  0  0  0  0  0  0  0  0  0  0  0
   -2.5506    0.5716    1.8452 H   0  0  0  0  0  0  0  0  0  0  0  0
   -2.6187    1.8768   -0.3765 H   0  0  0  0  0  0  0  0  0  0  0  0
  1  2  1  0
  2  3  1  0
  3  4  2  0
  4  5  1  0
  5  6  1  0
  6  7  1  0
  7  8  2  0
  8  9  1  0
  9 10  2  0
 10 11  1  0
 11 12  2  0
  6 13  2  0
 13 14  1  0
 14 15  2  0
 14 16  1  0
 16 17  1  0
 17 18  1  0
 18 19  1  0
 19 20  1  0
 20 21  1  0
 21 22  1  0
 22 23  1  0
 23 24  1  0
 24 25  1  0
 18 26  2  0
 26 27  1  0
 26  3  1  0
 17  5  2  0
 25 20  1  0
 12  7  1  0
  1 28  1  0
  1 29  1  0
  1 30  1  0
  2 31  1  0
  2 32  1  0
  4 33  1  0
  8 34  1  0
  9 35  1  0
 10 36  1  0
 11 37  1  0
 12 38  1  0
 13 39  1  0
 19 40  1  0
 19 41  1  0
 21 42  1  0
 21 43  1  0
 22 44  1  0
 22 45  1  0
 24 46  1  0
 24 47  1  0
 25 48  1  0
 25 49  1  0
 27 50  1  0
M  END
$$$$
