
     RDKit          3D

 33 34  0  0  0  0  0  0  0  0999 V2000
    1.4205   -2.4182   -3.7221 C   0  0  0  0  0  0  0  0  0  0  0  0
    1.9879   -1.8550   -2.4295 C   0  0  0  0  0  0  0  0  0  0  0  0
    1.4884   -0.4434   -2.1374 C   0  0  0  0  0  0  0  0  0  0  0  0
    0.6679    0.1195   -2.8724 O   0  0  0  0  0  0  0  0  0  0  0  0
    1.9550    0.2503   -0.8715 C   0  0  0  0  0  0  0  0  0  0  0  0
    3.3972    0.0819   -0.6591 C   0  0  0  0  0  0  0  0  0  0  0  0
    4.5486   -0.0126   -0.5389 N   0  0  0  0  0  0  0  0  0  0  0  0
    1.1489   -0.2744    0.2660 C   0  0  0  0  0  0  0  0  0  0  0  0
    1.4165   -1.3571    0.9668 N   0  0  0  0  0  0  0  0  0  0  0  0
    0.4560   -1.4966    1.9270 N   0  0  0  0  0  0  0  0  0  0  0  0
   -0.4009   -0.5044    1.8087 C   0  0  0  0  0  0  0  0  0  0  0  0
   -0.0230    0.2787    0.7433 N   0  0  0  0  0  0  0  0  0  0  0  0
   -0.6823    1.4689    0.2418 C   0  0  0  0  0  0  0  0  0  0  0  0
   -2.1973    1.4985    0.4206 C   0  0  0  0  0  0  0  0  0  0  0  0
   -2.6437    1.8652    1.8365 C   0  0  0  0  0  0  0  0  0  0  0  0
   -1.8789    1.1775    2.9669 C   0  0  0  0  0  0  0  0  0  0  0  0
   -1.5837   -0.2923    2.6923 C   0  0  0  0  0  0  0  0  0  0  0  0
    1.7132   -1.7996   -4.5777 H   0  0  0  0  0  0  0  0  0  0  0  0
    1.7973   -3.4317   -3.8919 H   0  0  0  0  0  0  0  0  0  0  0  0
    0.3254   -2.4582   -3.6959 H   0  0  0  0  0  0  0  0  0  0  0  0
    1.7029   -2.5063   -1.5974 H   0  0  0  0  0  0  0  0  0  0  0  0
    3.0792   -1.8372   -2.5070 H   0  0  0  0  0  0  0  0  0  0  0  0
    1.7772    1.3250   -1.0014 H   0  0  0  0  0  0  0  0  0  0  0  0
   -0.2035    2.3273    0.7258 H   0  0  0  0  0  0  0  0  0  0  0  0
   -0.4754    1.5258   -0.8310 H   0  0  0  0  0  0  0  0  0  0  0  0
   -2.6337    0.5352    0.1298 H   0  0  0  0  0  0  0  0  0  0  0  0
   -2.6214    2.2433   -0.2650 H   0  0  0  0  0  0  0  0  0  0  0  0
   -2.5540    2.9510    1.9743 H   0  0  0  0  0  0  0  0  0  0  0  0
   -3.7132    1.6365    1.9312 H   0  0  0  0  0  0  0  0  0  0  0  0
   -2.4864    1.2600    3.8773 H   0  0  0  0  0  0  0  0  0  0  0  0
   -0.9477    1.7218    3.1722 H   0  0  0  0  0  0  0  0  0  0  0  0
   -1.3767   -0.7848    3.6510 H   0  0  0  0  0  0  0  0  0  0  0  0
   -2.4602   -0.7945    2.2667 H   0  0  0  0  0  0  0  0  0  0  0  0
  1  2  1  0
  2  3  1  0
  3  4  2  0
  3  5  1  0
  5  6  1  0
  6  7  3  0
  5  8  1  0
  8  9  2  0
  9 10  1  0
 10 11  2  0
 11 12  1  0
 12 13  1  0
 13 14  1  0
 14 15  1  0
 15 16  1  0
 16 17  1  0
 12  8  1  0
 17 11  1  0
  1 18  1  0
  1 19  1  0
  1 20  1  0
  2 21  1  0
  2 22  1  0
  5 23  1  0
 13 24  1  0
 13 25  1  0
 14 26  1  0
 14 27  1  0
 15 28  1  0
 15 29  1  0
 16 30  1  0
 16 31  1  0
 17 32  1  0
 17 33  1  0
M  END
$$$$
