
     RDKit          3D

 45 47  0  0  0  0  0  0  0  0999 V2000
    3.0231   -0.9670   -2.5125 C   0  0  0  0  0  0  0  0  0  0  0  0
    3.2331    0.3763   -1.8808 C   0  0  0  0  0  0  0  0  0  0  0  0
    3.1221    1.5340   -2.6481 C   0  0  0  0  0  0  0  0  0  0  0  0
    3.3129    2.7690   -2.0338 C   0  0  0  0  0  0  0  0  0  0  0  0
    3.6015    2.8140   -0.6759 C   0  0  0  0  0  0  0  0  0  0  0  0
    3.6871    1.6123    0.0019 C   0  0  0  0  0  0  0  0  0  0  0  0
    3.9263    1.5241    1.3853 N   0  0  0  0  0  0  0  0  0  0  0  0
    2.6860    2.0630    2.3897 S   0  0  0  0  0  6  0  0  0  0  0  0
    3.0191    1.6252    3.7298 O   0  0  0  0  0  0  0  0  0  0  0  0
    2.4219    3.4600    2.1116 O   0  0  0  0  0  0  0  0  0  0  0  0
    1.2752    1.1165    1.8614 C   0  0  0  0  0  0  0  0  0  0  0  0
    0.3211    1.6957    1.0228 C   0  0  0  0  0  0  0  0  0  0  0  0
   -0.7818    0.9440    0.6139 C   0  0  0  0  0  0  0  0  0  0  0  0
   -0.9464   -0.3831    1.0442 C   0  0  0  0  0  0  0  0  0  0  0  0
   -2.1387   -1.2174    0.6080 C   0  0  0  0  0  0  0  0  0  0  0  0
   -3.4467   -0.7234    1.2595 C   0  0  0  0  0  0  0  0  0  0  0  0
   -4.7016   -1.0980    0.4649 C   0  0  0  0  0  0  0  0  0  0  0  0
   -4.5176   -2.3897   -0.3195 C   0  0  0  0  0  0  0  0  0  0  0  0
   -3.3757   -2.2859   -1.3324 C   0  0  0  0  0  0  0  0  0  0  0  0
   -2.2766   -1.3023   -0.9193 C   0  0  0  0  0  0  0  0  0  0  0  0
    0.0113   -0.9372    1.9094 C   0  0  0  0  0  0  0  0  0  0  0  0
    1.1176   -0.1922    2.3218 C   0  0  0  0  0  0  0  0  0  0  0  0
    3.5205    0.4021   -0.5579 N   0  0  0  0  0  0  0  0  0  0  0  0
    2.0123   -1.0355   -2.9265 H   0  0  0  0  0  0  0  0  0  0  0  0
    3.1438   -1.7674   -1.7755 H   0  0  0  0  0  0  0  0  0  0  0  0
    3.7523   -1.1268   -3.3128 H   0  0  0  0  0  0  0  0  0  0  0  0
    2.8905    1.4792   -3.7073 H   0  0  0  0  0  0  0  0  0  0  0  0
    3.2341    3.6879   -2.6080 H   0  0  0  0  0  0  0  0  0  0  0  0
    3.7528    3.7598   -0.1676 H   0  0  0  0  0  0  0  0  0  0  0  0
    4.2076    0.5788    1.6358 H   0  0  0  0  0  0  0  0  0  0  0  0
    0.4284    2.7223    0.6803 H   0  0  0  0  0  0  0  0  0  0  0  0
   -1.5173    1.4070   -0.0404 H   0  0  0  0  0  0  0  0  0  0  0  0
   -1.9698   -2.2459    0.9597 H   0  0  0  0  0  0  0  0  0  0  0  0
   -3.4463    0.3644    1.4018 H   0  0  0  0  0  0  0  0  0  0  0  0
   -3.5136   -1.1516    2.2685 H   0  0  0  0  0  0  0  0  0  0  0  0
   -4.9437   -0.2861   -0.2330 H   0  0  0  0  0  0  0  0  0  0  0  0
   -5.5544   -1.1867    1.1474 H   0  0  0  0  0  0  0  0  0  0  0  0
   -4.3086   -3.2082    0.3810 H   0  0  0  0  0  0  0  0  0  0  0  0
   -5.4456   -2.6547   -0.8387 H   0  0  0  0  0  0  0  0  0  0  0  0
   -3.7718   -1.9792   -2.3082 H   0  0  0  0  0  0  0  0  0  0  0  0
   -2.9446   -3.2838   -1.4789 H   0  0  0  0  0  0  0  0  0  0  0  0
   -2.5177   -0.3142   -1.3321 H   0  0  0  0  0  0  0  0  0  0  0  0
   -1.3286   -1.6036   -1.3823 H   0  0  0  0  0  0  0  0  0  0  0  0
   -0.0988   -1.9579    2.2710 H   0  0  0  0  0  0  0  0  0  0  0  0
    1.8452   -0.6375    2.9960 H   0  0  0  0  0  0  0  0  0  0  0  0
  1  2  1  0
  2  3  2  0
  3  4  1  0
  4  5  2  0
  5  6  1  0
  6  7  1  0
  7  8  1  0
  8  9  2  0
  8 10  2  0
  8 11  1  0
 11 12  2  0
 12 13  1  0
 13 14  2  0
 14 15  1  0
 15 16  1  0
 16 17  1  0
 17 18  1  0
 18 19  1  0
 19 20  1  0
 14 21  1  0
 21 22  2  0
  6 23  2  0
 23  2  1  0
 22 11  1  0
 20 15  1  0
  1 24  1  0
  1 25  1  0
  1 26  1  0
  3 27  1  0
  4 28  1  0
  5 29  1  0
  7 30  1  0
 12 31  1  0
 13 32  1  0
 15 33  1  0
 16 34  1  0
 16 35  1  0
 17 36  1  0
 17 37  1  0
 18 38  1  0
 18 39  1  0
 19 40  1  0
 19 41  1  0
 20 42  1  0
 20 43  1  0
 21 44  1  0
 22 45  1  0
M  END
$$$$
