
     RDKit          3D

 50 53  0  0  0  0  0  0  0  0999 V2000
   -3.5441   -1.0856    2.0886 C   0  0  0  0  0  0  0  0  0  0  0  0
   -2.2529   -0.8021    1.5687 O   0  0  0  0  0  0  0  0  0  0  0  0
   -2.2565   -0.5301    0.2158 C   0  0  0  0  0  0  0  0  0  0  0  0
   -1.0713   -0.2238   -0.2789 N   0  0  0  0  0  0  0  0  0  0  0  0
   -1.0700    0.0406   -1.5777 C   0  0  0  0  0  0  0  0  0  0  0  0
    0.1409    0.3805   -2.2337 N   0  0  0  0  0  0  0  0  0  0  0  0
    1.0483    1.1617   -1.5551 N   0  0  0  0  0  0  0  0  0  0  0  0
    1.7764    0.5131   -0.6970 C   0  0  0  0  0  0  0  0  0  0  0  0
    2.7559    1.1979    0.0966 C   0  0  0  0  0  0  0  0  0  0  0  0
    3.1412    2.5221    0.1568 C   0  0  0  0  0  0  0  0  0  0  0  0
    4.1657    2.6022    1.1306 C   0  0  0  0  0  0  0  0  0  0  0  0
    4.3569    1.3207    1.6045 C   0  0  0  0  0  0  0  0  0  0  0  0
    5.2274    0.7294    2.6124 C   0  0  0  0  0  0  0  0  0  0  0  0
    5.4865    1.4503    3.7913 C   0  0  0  0  0  0  0  0  0  0  0  0
    6.2924    0.9177    4.8061 C   0  0  0  0  0  0  0  0  0  0  0  0
    6.8586   -0.3481    4.6659 C   0  0  0  0  0  0  0  0  0  0  0  0
    6.6265   -1.0839    3.5068 C   0  0  0  0  0  0  0  0  0  0  0  0
    5.8206   -0.5372    2.4945 C   0  0  0  0  0  0  0  0  0  0  0  0
    5.6720   -1.3212    1.2834 N   0  0  0  0  0  4  0  0  0  0  0  0
    5.1222   -2.4265    1.3936 O   0  0  0  0  0  0  0  0  0  0  0  0
    6.1655   -0.8608    0.2448 O   0  0  0  0  0  1  0  0  0  0  0  0
    3.4892    0.4679    0.9881 O   0  0  0  0  0  0  0  0  0  0  0  0
   -2.1527   -0.0046   -2.3503 N   0  0  0  0  0  0  0  0  0  0  0  0
   -3.3003   -0.3245   -1.7606 C   0  0  0  0  0  0  0  0  0  0  0  0
   -4.4414   -0.3570   -2.5208 N   0  0  0  0  0  0  0  0  0  0  0  0
   -4.3947   -0.0645   -3.9500 C   0  0  0  0  0  0  0  0  0  0  0  0
   -5.8026    0.3140   -4.4379 C   0  0  0  0  0  0  0  0  0  0  0  0
   -6.7986   -0.6944   -4.2084 O   0  0  0  0  0  0  0  0  0  0  0  0
   -6.4976   -1.5634   -3.1078 C   0  0  0  0  0  0  0  0  0  0  0  0
   -5.6873   -0.8975   -1.9830 C   0  0  0  0  0  0  0  0  0  0  0  0
   -3.3930   -0.5977   -0.4664 N   0  0  0  0  0  0  0  0  0  0  0  0
   -4.2219   -0.2349    1.9594 H   0  0  0  0  0  0  0  0  0  0  0  0
   -3.9629   -1.9930    1.6405 H   0  0  0  0  0  0  0  0  0  0  0  0
   -3.4405   -1.2634    3.1637 H   0  0  0  0  0  0  0  0  0  0  0  0
   -0.1734    0.7770   -3.1204 H   0  0  0  0  0  0  0  0  0  0  0  0
    1.6784   -0.5772   -0.5498 H   0  0  0  0  0  0  0  0  0  0  0  0
    2.7264    3.3244   -0.4381 H   0  0  0  0  0  0  0  0  0  0  0  0
    4.7059    3.4867    1.4382 H   0  0  0  0  0  0  0  0  0  0  0  0
    5.0446    2.4345    3.9428 H   0  0  0  0  0  0  0  0  0  0  0  0
    6.4705    1.4930    5.7124 H   0  0  0  0  0  0  0  0  0  0  0  0
    7.4817   -0.7580    5.4580 H   0  0  0  0  0  0  0  0  0  0  0  0
    7.0749   -2.0680    3.3916 H   0  0  0  0  0  0  0  0  0  0  0  0
   -3.7211    0.7720   -4.1703 H   0  0  0  0  0  0  0  0  0  0  0  0
   -4.0392   -0.9510   -4.4884 H   0  0  0  0  0  0  0  0  0  0  0  0
   -6.1421    1.2270   -3.9348 H   0  0  0  0  0  0  0  0  0  0  0  0
   -5.7863    0.5214   -5.5126 H   0  0  0  0  0  0  0  0  0  0  0  0
   -5.9512   -2.4260   -3.5080 H   0  0  0  0  0  0  0  0  0  0  0  0
   -7.4492   -1.9364   -2.7152 H   0  0  0  0  0  0  0  0  0  0  0  0
   -5.5120   -1.6481   -1.2043 H   0  0  0  0  0  0  0  0  0  0  0  0
   -6.2655   -0.0754   -1.5466 H   0  0  0  0  0  0  0  0  0  0  0  0
  1  2  1  0
  2  3  1  0
  3  4  2  0
  4  5  1  0
  5  6  1  0
  6  7  1  0
  7  8  2  3
  8  9  1  0
  9 10  2  0
 10 11  1  0
 11 12  2  0
 12 13  1  0
 13 14  2  0
 14 15  1  0
 15 16  2  0
 16 17  1  0
 17 18  2  0
 18 19  1  0
 19 20  2  0
 19 21  1  0
 12 22  1  0
  5 23  2  0
 23 24  1  0
 24 25  1  0
 25 26  1  0
 26 27  1  0
 27 28  1  0
 28 29  1  0
 29 30  1  0
 24 31  2  0
 31  3  1  0
 22  9  1  0
 30 25  1  0
 18 13  1  0
  1 32  1  0
  1 33  1  0
  1 34  1  0
  6 35  1  0
  8 36  1  0
 10 37  1  0
 11 38  1  0
 14 39  1  0
 15 40  1  0
 16 41  1  0
 17 42  1  0
 26 43  1  0
 26 44  1  0
 27 45  1  0
 27 46  1  0
 29 47  1  0
 29 48  1  0
 30 49  1  0
 30 50  1  0
M  CHG  2  19   1  21  -1
M  END
$$$$
