
     RDKit          3D

 60 64  0  0  0  0  0  0  0  0999 V2000
   -6.3188   -4.0991    0.8441 C   0  0  0  0  0  0  0  0  0  0  0  0
   -5.1490   -3.2101    0.5464 C   0  0  0  0  0  0  0  0  0  0  0  0
   -3.8698   -3.7374    0.3561 C   0  0  0  0  0  0  0  0  0  0  0  0
   -2.7901   -2.8891    0.0831 C   0  0  0  0  0  0  0  0  0  0  0  0
   -2.9552   -1.4994   -0.0199 C   0  0  0  0  0  0  0  0  0  0  0  0
   -1.8302   -0.7073   -0.2699 N   0  0  0  0  0  0  0  0  0  0  0  0
   -1.5769    0.6610   -0.1915 C   0  0  0  0  0  0  0  0  0  0  0  0
   -0.3766    1.0257   -0.6122 N   0  0  0  0  0  0  0  0  0  0  0  0
   -0.1005    2.3163   -0.4631 C   0  0  0  0  0  0  0  0  0  0  0  0
    1.0959    2.8206   -0.9490 O   0  0  0  0  0  0  0  0  0  0  0  0
    2.1049    1.9002   -1.1164 C   0  0  0  0  0  0  0  0  0  0  0  0
    2.7234    1.8262   -2.3509 C   0  0  0  0  0  0  0  0  0  0  0  0
    3.7688    0.9241   -2.5039 C   0  0  0  0  0  0  0  0  0  0  0  0
    4.1435    0.1648   -1.4119 C   0  0  0  0  0  0  0  0  0  0  0  0
    5.1666   -0.7376   -1.6056 O   0  0  0  0  0  0  0  0  0  0  0  0
    5.4266   -1.5430   -0.4552 C   0  0  0  0  0  0  0  0  0  0  0  0
    6.4654   -2.5720   -0.8345 C   0  0  0  0  0  0  0  0  0  0  0  0
    7.7650   -2.5091   -0.3136 C   0  0  0  0  0  0  0  0  0  0  0  0
    8.7176   -3.4638   -0.6737 C   0  0  0  0  0  0  0  0  0  0  0  0
    8.3827   -4.4862   -1.5593 C   0  0  0  0  0  0  0  0  0  0  0  0
    7.0950   -4.5564   -2.0876 C   0  0  0  0  0  0  0  0  0  0  0  0
    6.1412   -3.6038   -1.7282 C   0  0  0  0  0  0  0  0  0  0  0  0
    3.5443    0.2860   -0.2058 N   0  0  0  0  0  0  0  0  0  0  0  0
    2.5168    1.1738   -0.0510 N   0  0  0  0  0  0  0  0  0  0  0  0
   -0.9295    3.2363    0.0107 N   0  0  0  0  0  0  0  0  0  0  0  0
   -2.1189    2.7923    0.3899 C   0  0  0  0  0  0  0  0  0  0  0  0
   -3.0422    3.7017    0.8659 N   0  0  0  0  0  0  0  0  0  0  0  0
   -4.3227    3.1930    1.3612 C   0  0  0  0  0  0  0  0  0  0  0  0
   -5.2195    4.3774    1.7535 C   0  0  0  0  0  0  0  0  0  0  0  0
   -4.6638    5.2080    2.7843 O   0  0  0  0  0  0  0  0  0  0  0  0
   -3.2293    5.1848    2.8250 C   0  0  0  0  0  0  0  0  0  0  0  0
   -2.5650    4.9564    1.4558 C   0  0  0  0  0  0  0  0  0  0  0  0
   -2.4720    1.5139    0.2942 N   0  0  0  0  0  0  0  0  0  0  0  0
   -4.2387   -0.9852    0.1802 C   0  0  0  0  0  0  0  0  0  0  0  0
   -5.3246   -1.8276    0.4526 C   0  0  0  0  0  0  0  0  0  0  0  0
   -6.7865   -3.8031    1.7889 H   0  0  0  0  0  0  0  0  0  0  0  0
   -7.0581   -4.0314    0.0392 H   0  0  0  0  0  0  0  0  0  0  0  0
   -6.0143   -5.1472    0.9354 H   0  0  0  0  0  0  0  0  0  0  0  0
   -3.6982   -4.8078    0.4268 H   0  0  0  0  0  0  0  0  0  0  0  0
   -1.8035   -3.3330   -0.0408 H   0  0  0  0  0  0  0  0  0  0  0  0
   -0.9960   -1.1860   -0.5750 H   0  0  0  0  0  0  0  0  0  0  0  0
    2.3934    2.4440   -3.1765 H   0  0  0  0  0  0  0  0  0  0  0  0
    4.2767    0.8097   -3.4546 H   0  0  0  0  0  0  0  0  0  0  0  0
    5.7963   -0.9180    0.3680 H   0  0  0  0  0  0  0  0  0  0  0  0
    4.5218   -2.0710   -0.1260 H   0  0  0  0  0  0  0  0  0  0  0  0
    8.0449   -1.7160    0.3749 H   0  0  0  0  0  0  0  0  0  0  0  0
    9.7234   -3.4069   -0.2649 H   0  0  0  0  0  0  0  0  0  0  0  0
    9.1257   -5.2274   -1.8400 H   0  0  0  0  0  0  0  0  0  0  0  0
    6.8337   -5.3509   -2.7808 H   0  0  0  0  0  0  0  0  0  0  0  0
    5.1404   -3.6646   -2.1509 H   0  0  0  0  0  0  0  0  0  0  0  0
   -4.1586    2.5526    2.2361 H   0  0  0  0  0  0  0  0  0  0  0  0
   -4.8329    2.6099    0.5866 H   0  0  0  0  0  0  0  0  0  0  0  0
   -5.4066    5.0171    0.8842 H   0  0  0  0  0  0  0  0  0  0  0  0
   -6.1897    4.0159    2.1083 H   0  0  0  0  0  0  0  0  0  0  0  0
   -2.8979    6.1387    3.2490 H   0  0  0  0  0  0  0  0  0  0  0  0
   -2.9316    4.3961    3.5256 H   0  0  0  0  0  0  0  0  0  0  0  0
   -2.8322    5.7748    0.7778 H   0  0  0  0  0  0  0  0  0  0  0  0
   -1.4794    4.9796    1.5990 H   0  0  0  0  0  0  0  0  0  0  0  0
   -4.4258    0.0815    0.1109 H   0  0  0  0  0  0  0  0  0  0  0  0
   -6.3096   -1.3903    0.5989 H   0  0  0  0  0  0  0  0  0  0  0  0
  1  2  1  0
  2  3  2  0
  3  4  1  0
  4  5  2  0
  5  6  1  0
  6  7  1  0
  7  8  2  0
  8  9  1  0
  9 10  1  0
 10 11  1  0
 11 12  2  0
 12 13  1  0
 13 14  2  0
 14 15  1  0
 15 16  1  0
 16 17  1  0
 17 18  2  0
 18 19  1  0
 19 20  2  0
 20 21  1  0
 21 22  2  0
 14 23  1  0
 23 24  2  0
  9 25  2  0
 25 26  1  0
 26 27  1  0
 27 28  1  0
 28 29  1  0
 29 30  1  0
 30 31  1  0
 31 32  1  0
 26 33  2  0
  5 34  1  0
 34 35  2  0
 35  2  1  0
 33  7  1  0
 24 11  1  0
 32 27  1  0
 22 17  1  0
  1 36  1  0
  1 37  1  0
  1 38  1  0
  3 39  1  0
  4 40  1  0
  6 41  1  0
 12 42  1  0
 13 43  1  0
 16 44  1  0
 16 45  1  0
 18 46  1  0
 19 47  1  0
 20 48  1  0
 21 49  1  0
 22 50  1  0
 28 51  1  0
 28 52  1  0
 29 53  1  0
 29 54  1  0
 31 55  1  0
 31 56  1  0
 32 57  1  0
 32 58  1  0
 34 59  1  0
 35 60  1  0
M  END
$$$$
