
     RDKit          3D

 47 50  0  0  0  0  0  0  0  0999 V2000
    7.0731   -0.1259    2.3102 C   0  0  0  0  0  0  0  0  0  0  0  0
    5.6699   -0.0448    1.7618 C   0  0  0  0  0  0  0  0  0  0  0  0
    4.7575   -0.6705    2.2853 O   0  0  0  0  0  0  0  0  0  0  0  0
    5.5969    0.7726    0.6485 N   0  0  0  0  0  0  0  0  0  0  0  0
    4.4612    1.0726   -0.1348 C   0  0  0  0  0  0  0  0  0  0  0  0
    4.6546    1.9656   -1.1967 C   0  0  0  0  0  0  0  0  0  0  0  0
    3.5924    2.3289   -2.0214 C   0  0  0  0  0  0  0  0  0  0  0  0
    2.3253    1.7977   -1.7924 C   0  0  0  0  0  0  0  0  0  0  0  0
    2.1094    0.8963   -0.7424 C   0  0  0  0  0  0  0  0  0  0  0  0
    0.7918    0.4116   -0.5899 N   0  0  0  0  0  0  0  0  0  0  0  0
    0.3419   -0.5337    0.3104 C   0  0  0  0  0  0  0  0  0  0  0  0
    0.9863   -1.1715    1.1279 O   0  0  0  0  0  0  0  0  0  0  0  0
   -1.1154   -0.7823    0.2272 C   0  0  0  0  0  0  0  0  0  0  0  0
   -1.9664    0.2874    0.5167 C   0  0  0  0  0  0  0  0  0  0  0  0
   -3.3335    0.0823    0.4402 C   0  0  0  0  0  0  0  0  0  0  0  0
   -4.3283    1.1337    0.7187 C   0  0  0  0  0  0  0  0  0  0  0  0
   -5.5924    1.1303    0.1078 C   0  0  0  0  0  0  0  0  0  0  0  0
   -6.5197    2.1373    0.3742 C   0  0  0  0  0  0  0  0  0  0  0  0
   -6.1620    3.1389    1.2570 C   0  0  0  0  0  0  0  0  0  0  0  0
   -4.9666    3.1908    1.8777 N   0  0  0  0  0  0  0  0  0  0  0  0
   -4.0927    2.1891    1.6025 C   0  0  0  0  0  0  0  0  0  0  0  0
   -3.8415   -1.1215    0.0751 N   0  0  0  0  0  0  0  0  0  0  0  0
   -3.0218   -2.1549   -0.1810 C   0  0  0  0  0  0  0  0  0  0  0  0
   -3.5886   -3.3742   -0.5292 C   0  0  0  0  0  0  0  0  0  0  0  0
   -2.8082   -4.4965   -0.8196 C   0  0  0  0  0  0  0  0  0  0  0  0
   -1.4259   -4.3994   -0.7605 C   0  0  0  0  0  0  0  0  0  0  0  0
   -0.4541   -5.7703   -1.1214 Cl  0  0  0  0  0  0  0  0  0  0  0  0
   -0.8289   -3.1908   -0.4143 C   0  0  0  0  0  0  0  0  0  0  0  0
   -1.6213   -2.0516   -0.1188 C   0  0  0  0  0  0  0  0  0  0  0  0
    3.1834    0.5406    0.0847 C   0  0  0  0  0  0  0  0  0  0  0  0
    7.0450   -0.5256    3.3280 H   0  0  0  0  0  0  0  0  0  0  0  0
    7.5308    0.8669    2.3464 H   0  0  0  0  0  0  0  0  0  0  0  0
    7.6728   -0.7878    1.6798 H   0  0  0  0  0  0  0  0  0  0  0  0
    6.4596    1.2171    0.3626 H   0  0  0  0  0  0  0  0  0  0  0  0
    5.6340    2.3938   -1.3942 H   0  0  0  0  0  0  0  0  0  0  0  0
    3.7520    3.0247   -2.8410 H   0  0  0  0  0  0  0  0  0  0  0  0
    1.5124    2.0952   -2.4497 H   0  0  0  0  0  0  0  0  0  0  0  0
    0.1146    0.7692   -1.2522 H   0  0  0  0  0  0  0  0  0  0  0  0
   -1.5510    1.2501    0.7965 H   0  0  0  0  0  0  0  0  0  0  0  0
   -5.8615    0.3345   -0.5847 H   0  0  0  0  0  0  0  0  0  0  0  0
   -7.4963    2.1347   -0.0964 H   0  0  0  0  0  0  0  0  0  0  0  0
   -6.8473    3.9464    1.4982 H   0  0  0  0  0  0  0  0  0  0  0  0
   -3.1616    2.2698    2.1578 H   0  0  0  0  0  0  0  0  0  0  0  0
   -4.6729   -3.4557   -0.5743 H   0  0  0  0  0  0  0  0  0  0  0  0
   -3.2884   -5.4341   -1.0863 H   0  0  0  0  0  0  0  0  0  0  0  0
    0.2577   -3.1363   -0.3632 H   0  0  0  0  0  0  0  0  0  0  0  0
    3.0234   -0.1507    0.9037 H   0  0  0  0  0  0  0  0  0  0  0  0
  1  2  1  0
  2  3  2  0
  2  4  1  0
  4  5  1  0
  5  6  2  0
  6  7  1  0
  7  8  2  0
  8  9  1  0
  9 10  1  0
 10 11  1  0
 11 12  2  0
 11 13  1  0
 13 14  2  0
 14 15  1  0
 15 16  1  0
 16 17  2  0
 17 18  1  0
 18 19  2  0
 19 20  1  0
 20 21  2  0
 15 22  2  0
 22 23  1  0
 23 24  2  0
 24 25  1  0
 25 26  2  0
 26 27  1  0
 26 28  1  0
 28 29  2  0
  9 30  2  0
 30  5  1  0
 29 13  1  0
 21 16  1  0
 29 23  1  0
  1 31  1  0
  1 32  1  0
  1 33  1  0
  4 34  1  0
  6 35  1  0
  7 36  1  0
  8 37  1  0
 10 38  1  0
 14 39  1  0
 17 40  1  0
 18 41  1  0
 19 42  1  0
 21 43  1  0
 24 44  1  0
 25 45  1  0
 28 46  1  0
 30 47  1  0
M  END
$$$$
