
     RDKit          3D

 65 68  0  0  0  0  0  0  0  0999 V2000
  -10.3043    0.3302   -1.7899 C   0  0  0  0  0  0  0  0  0  0  0  0
   -9.0793    0.2799   -0.9262 C   0  0  0  0  0  0  0  0  0  0  0  0
   -8.3289    1.4370   -0.6914 C   0  0  0  0  0  0  0  0  0  0  0  0
   -7.1707    1.3841    0.0871 C   0  0  0  0  0  0  0  0  0  0  0  0
   -6.7390    0.1711    0.6375 C   0  0  0  0  0  0  0  0  0  0  0  0
   -5.4733    0.1172    1.4553 C   0  0  0  0  0  0  0  0  0  0  0  0
   -4.2360   -0.0354    0.5680 C   0  0  0  0  0  0  0  0  0  0  0  0
   -3.0125   -0.1246    1.3419 N   0  0  0  0  0  0  0  0  0  0  0  0
   -2.4016    0.9960    1.8628 C   0  0  0  0  0  0  0  0  0  0  0  0
   -2.8516    2.1293    1.7357 O   0  0  0  0  0  0  0  0  0  0  0  0
   -1.1466    0.6737    2.6504 C   0  0  0  0  0  0  0  0  0  0  0  0
   -0.2922    1.9049    2.9499 C   0  0  0  0  0  0  0  0  0  0  0  0
    0.3039    2.5681    1.7041 C   0  0  0  0  0  0  0  0  0  0  0  0
    1.2096    1.6886    0.9708 N   0  0  0  0  0  0  0  0  0  0  0  0
    0.6494    1.0176   -0.1222 N   0  0  0  0  0  0  0  0  0  0  0  0
    1.3641    0.2141   -0.8586 C   0  0  0  0  0  0  0  0  0  0  0  0
    0.7017   -0.4591   -2.0266 C   0  0  0  0  0  0  0  0  0  0  0  0
    2.7494   -0.0072   -0.5251 C   0  0  0  0  0  0  0  0  0  0  0  0
    3.7468   -0.8222   -1.0349 C   0  0  0  0  0  0  0  0  0  0  0  0
    3.6724   -1.8854   -2.0699 C   0  0  0  0  0  0  0  0  0  0  0  0
    4.9015   -0.4891   -0.3147 N   0  0  0  0  0  0  0  0  0  0  0  0
    6.2698   -0.8422   -0.5329 C   0  0  0  0  0  0  0  0  0  0  0  0
    6.7373   -1.3120   -1.7648 C   0  0  0  0  0  0  0  0  0  0  0  0
    8.0890   -1.6393   -1.9318 C   0  0  0  0  0  0  0  0  0  0  0  0
    8.9953   -1.4999   -0.8760 C   0  0  0  0  0  0  0  0  0  0  0  0
   10.4476   -1.8186   -1.0725 C   0  0  0  0  0  0  0  0  0  0  0  0
    8.5388   -0.9918    0.3426 C   0  0  0  0  0  0  0  0  0  0  0  0
    7.1906   -0.6633    0.5129 C   0  0  0  0  0  0  0  0  0  0  0  0
    4.5960    0.3017    0.7498 N   0  0  0  0  0  0  0  0  0  0  0  0
    3.3194    0.6473    0.5720 C   0  0  0  0  0  0  0  0  0  0  0  0
    2.5448    1.5565    1.4074 C   0  0  0  0  0  0  0  0  0  0  0  0
    3.0017    2.1379    2.3892 O   0  0  0  0  0  0  0  0  0  0  0  0
   -7.4798   -0.9900    0.3872 C   0  0  0  0  0  0  0  0  0  0  0  0
   -8.6387   -0.9358   -0.3910 C   0  0  0  0  0  0  0  0  0  0  0  0
  -10.0349    0.1353   -2.8326 H   0  0  0  0  0  0  0  0  0  0  0  0
  -11.0390   -0.4154   -1.4676 H   0  0  0  0  0  0  0  0  0  0  0  0
  -10.7882    1.3108   -1.7269 H   0  0  0  0  0  0  0  0  0  0  0  0
   -8.6410    2.3900   -1.1124 H   0  0  0  0  0  0  0  0  0  0  0  0
   -6.6031    2.2971    0.2597 H   0  0  0  0  0  0  0  0  0  0  0  0
   -5.3994    1.0229    2.0703 H   0  0  0  0  0  0  0  0  0  0  0  0
   -5.5276   -0.7157    2.1682 H   0  0  0  0  0  0  0  0  0  0  0  0
   -4.3002   -0.9495   -0.0331 H   0  0  0  0  0  0  0  0  0  0  0  0
   -4.1490    0.8115   -0.1232 H   0  0  0  0  0  0  0  0  0  0  0  0
   -2.6223   -1.0376    1.5350 H   0  0  0  0  0  0  0  0  0  0  0  0
   -0.5615   -0.0836    2.1181 H   0  0  0  0  0  0  0  0  0  0  0  0
   -1.4687    0.2282    3.5995 H   0  0  0  0  0  0  0  0  0  0  0  0
   -0.8938    2.6485    3.4869 H   0  0  0  0  0  0  0  0  0  0  0  0
    0.5172    1.6064    3.6271 H   0  0  0  0  0  0  0  0  0  0  0  0
   -0.4768    2.9156    1.0190 H   0  0  0  0  0  0  0  0  0  0  0  0
    0.8672    3.4562    2.0149 H   0  0  0  0  0  0  0  0  0  0  0  0
   -0.2688    0.0034   -2.2308 H   0  0  0  0  0  0  0  0  0  0  0  0
    0.5392   -1.5150   -1.7945 H   0  0  0  0  0  0  0  0  0  0  0  0
    1.3243   -0.3684   -2.9203 H   0  0  0  0  0  0  0  0  0  0  0  0
    4.3793   -2.6975   -1.8759 H   0  0  0  0  0  0  0  0  0  0  0  0
    2.6849   -2.3555   -2.0764 H   0  0  0  0  0  0  0  0  0  0  0  0
    3.8528   -1.4707   -3.0662 H   0  0  0  0  0  0  0  0  0  0  0  0
    6.0996   -1.3916   -2.6365 H   0  0  0  0  0  0  0  0  0  0  0  0
    8.4335   -1.9926   -2.9018 H   0  0  0  0  0  0  0  0  0  0  0  0
   10.9717   -0.9459   -1.4740 H   0  0  0  0  0  0  0  0  0  0  0  0
   10.5710   -2.6574   -1.7654 H   0  0  0  0  0  0  0  0  0  0  0  0
   10.9173   -2.1078   -0.1263 H   0  0  0  0  0  0  0  0  0  0  0  0
    9.2275   -0.8436    1.1718 H   0  0  0  0  0  0  0  0  0  0  0  0
    6.8717   -0.2733    1.4790 H   0  0  0  0  0  0  0  0  0  0  0  0
   -7.1601   -1.9461    0.7946 H   0  0  0  0  0  0  0  0  0  0  0  0
   -9.1973   -1.8503   -0.5767 H   0  0  0  0  0  0  0  0  0  0  0  0
  1  2  1  0
  2  3  2  0
  3  4  1  0
  4  5  2  0
  5  6  1  0
  6  7  1  0
  7  8  1  0
  8  9  1  0
  9 10  2  0
  9 11  1  0
 11 12  1  0
 12 13  1  0
 13 14  1  0
 14 15  1  0
 15 16  2  0
 16 17  1  0
 16 18  1  0
 18 19  2  0
 19 20  1  0
 19 21  1  0
 21 22  1  0
 22 23  2  0
 23 24  1  0
 24 25  2  0
 25 26  1  0
 25 27  1  0
 27 28  2  0
 21 29  1  0
 29 30  2  0
 30 31  1  0
 31 32  2  0
  5 33  1  0
 33 34  2  0
 34  2  1  0
 31 14  1  0
 30 18  1  0
 28 22  1  0
  1 35  1  0
  1 36  1  0
  1 37  1  0
  3 38  1  0
  4 39  1  0
  6 40  1  0
  6 41  1  0
  7 42  1  0
  7 43  1  0
  8 44  1  0
 11 45  1  0
 11 46  1  0
 12 47  1  0
 12 48  1  0
 13 49  1  0
 13 50  1  0
 17 51  1  0
 17 52  1  0
 17 53  1  0
 20 54  1  0
 20 55  1  0
 20 56  1  0
 23 57  1  0
 24 58  1  0
 26 59  1  0
 26 60  1  0
 26 61  1  0
 27 62  1  0
 28 63  1  0
 33 64  1  0
 34 65  1  0
M  END
$$$$
