
     RDKit          3D

 39 40  0  0  0  0  0  0  0  0999 V2000
   -5.0896   -0.1333    0.8778 C   0  0  0  0  0  0  0  0  0  0  0  0
   -3.9244   -0.6448    0.0450 C   0  0  0  0  0  0  0  0  0  0  0  0
   -2.8452    0.3430   -0.0438 N   0  0  0  0  0  0  0  0  0  0  0  0
   -2.9439    1.3368   -1.1148 C   0  0  0  0  0  0  0  0  0  0  0  0
   -2.2359    0.8728   -2.3783 C   0  0  0  0  0  0  0  0  0  0  0  0
   -1.7325    0.3888    0.7997 C   0  0  0  0  0  0  0  0  0  0  0  0
   -0.8577    1.2483    0.6509 O   0  0  0  0  0  0  0  0  0  0  0  0
   -1.6574   -0.6702    1.9025 C   0  0  0  0  0  0  0  0  0  0  0  0
   -0.1987   -0.4605    2.9719 S   0  0  0  0  0  0  0  0  0  0  0  0
    1.0234   -0.9905    1.8665 C   0  0  0  0  0  0  0  0  0  0  0  0
    1.1966   -2.2155    1.4374 N   0  0  0  0  0  0  0  0  0  0  0  0
    2.2365   -2.1845    0.5371 N   0  0  0  0  0  0  0  0  0  0  0  0
    2.6850   -0.9382    0.4306 C   0  0  0  0  0  0  0  0  0  0  0  0
    3.7757   -0.5186   -0.4577 C   0  0  0  0  0  0  0  0  0  0  0  0
    4.1113   -1.3337   -1.5454 C   0  0  0  0  0  0  0  0  0  0  0  0
    5.1451   -0.9490   -2.3832 C   0  0  0  0  0  0  0  0  0  0  0  0
    5.8648    0.1781   -2.2137 N   0  0  0  0  0  0  0  0  0  0  0  0
    5.5391    0.9468   -1.1545 C   0  0  0  0  0  0  0  0  0  0  0  0
    4.5229    0.6441   -0.2605 C   0  0  0  0  0  0  0  0  0  0  0  0
    1.9155   -0.1408    1.2605 N   0  0  0  0  0  0  0  0  0  0  0  0
    1.9321    1.3000    1.3805 N   0  0  0  0  0  0  0  0  0  0  0  0
   -5.5225    0.7713    0.4390 H   0  0  0  0  0  0  0  0  0  0  0  0
   -5.8757   -0.8923    0.9368 H   0  0  0  0  0  0  0  0  0  0  0  0
   -4.7727    0.1117    1.8963 H   0  0  0  0  0  0  0  0  0  0  0  0
   -4.2612   -0.8855   -0.9695 H   0  0  0  0  0  0  0  0  0  0  0  0
   -3.5516   -1.5751    0.4799 H   0  0  0  0  0  0  0  0  0  0  0  0
   -4.0009    1.5363   -1.3219 H   0  0  0  0  0  0  0  0  0  0  0  0
   -2.5003    2.2807   -0.7788 H   0  0  0  0  0  0  0  0  0  0  0  0
   -2.3220    1.6312   -3.1625 H   0  0  0  0  0  0  0  0  0  0  0  0
   -2.6706   -0.0590   -2.7541 H   0  0  0  0  0  0  0  0  0  0  0  0
   -1.1722    0.6926   -2.1917 H   0  0  0  0  0  0  0  0  0  0  0  0
   -1.6294   -1.6690    1.4582 H   0  0  0  0  0  0  0  0  0  0  0  0
   -2.5420   -0.5814    2.5387 H   0  0  0  0  0  0  0  0  0  0  0  0
    3.5757   -2.2582   -1.7409 H   0  0  0  0  0  0  0  0  0  0  0  0
    5.4286   -1.5581   -3.2366 H   0  0  0  0  0  0  0  0  0  0  0  0
    6.1387    1.8446   -1.0330 H   0  0  0  0  0  0  0  0  0  0  0  0
    4.3440    1.3136    0.5726 H   0  0  0  0  0  0  0  0  0  0  0  0
    1.0796    1.6564    0.9229 H   0  0  0  0  0  0  0  0  0  0  0  0
    1.7917    1.5612    2.3570 H   0  0  0  0  0  0  0  0  0  0  0  0
  1  2  1  0
  2  3  1  0
  3  4  1  0
  4  5  1  0
  3  6  1  0
  6  7  2  0
  6  8  1  0
  8  9  1  0
  9 10  1  0
 10 11  2  0
 11 12  1  0
 12 13  2  0
 13 14  1  0
 14 15  2  0
 15 16  1  0
 16 17  2  0
 17 18  1  0
 18 19  2  0
 13 20  1  0
 20 21  1  0
 20 10  1  0
 19 14  1  0
  1 22  1  0
  1 23  1  0
  1 24  1  0
  2 25  1  0
  2 26  1  0
  4 27  1  0
  4 28  1  0
  5 29  1  0
  5 30  1  0
  5 31  1  0
  8 32  1  0
  8 33  1  0
 15 34  1  0
 16 35  1  0
 18 36  1  0
 19 37  1  0
 21 38  1  0
 21 39  1  0
M  END
$$$$
