
     RDKit          3D

 47 49  0  0  0  0  0  0  0  0999 V2000
    7.4109    0.3661   -0.0995 C   0  0  0  0  0  0  0  0  0  0  0  0
    6.0706   -0.0649   -0.6757 C   0  0  0  0  0  0  0  0  0  0  0  0
    5.3689   -1.1300    0.1696 C   0  0  0  0  0  0  0  0  0  0  0  0
    4.7716   -0.6189    1.4894 C   0  0  0  0  0  0  0  0  0  0  0  0
    3.6124    0.2585    1.2968 N   0  0  0  0  0  0  0  0  0  0  0  0
    2.4137   -0.3157    0.9028 C   0  0  0  0  0  0  0  0  0  0  0  0
    2.2147   -1.5082    0.7107 O   0  0  0  0  0  0  0  0  0  0  0  0
    1.3599    0.7243    0.7565 C   0  0  0  0  0  0  0  0  0  0  0  0
    0.1164    0.4108    0.3620 C   0  0  0  0  0  0  0  0  0  0  0  0
   -0.9886    1.3311    0.1651 C   0  0  0  0  0  0  0  0  0  0  0  0
   -2.3096    1.1163   -0.0606 C   0  0  0  0  0  0  0  0  0  0  0  0
   -3.0595    2.3569   -0.3152 C   0  0  0  0  0  0  0  0  0  0  0  0
   -4.3533    2.3865   -0.6460 C   0  0  0  0  0  0  0  0  0  0  0  0
   -5.0897    1.1349   -0.7640 C   0  0  0  0  0  0  0  0  0  0  0  0
   -6.4394    1.1810   -1.1522 C   0  0  0  0  0  0  0  0  0  0  0  0
   -7.1803    0.0103   -1.2622 C   0  0  0  0  0  0  0  0  0  0  0  0
   -6.5742   -1.2064   -0.9844 C   0  0  0  0  0  0  0  0  0  0  0  0
   -5.2283   -1.2533   -0.5958 C   0  0  0  0  0  0  0  0  0  0  0  0
   -4.4440   -0.0888   -0.4704 C   0  0  0  0  0  0  0  0  0  0  0  0
   -3.0558   -0.0909   -0.0826 N   0  0  0  0  0  0  0  0  0  0  0  0
   -2.5627   -1.3615    0.4777 C   0  0  0  0  0  0  0  0  0  0  0  0
   -2.0230   -2.2844   -0.6120 C   0  0  0  0  0  0  0  0  0  0  0  0
    1.9917    2.2626    1.1751 S   0  0  0  0  0  0  0  0  0  0  0  0
    3.5896    1.6172    1.5365 C   0  0  0  0  0  0  0  0  0  0  0  0
    4.8186    2.5989    2.0915 S   0  0  0  0  0  0  0  0  0  0  0  0
    7.3043    0.8173    0.8897 H   0  0  0  0  0  0  0  0  0  0  0  0
    7.8820    1.1045   -0.7562 H   0  0  0  0  0  0  0  0  0  0  0  0
    8.0902   -0.4880   -0.0125 H   0  0  0  0  0  0  0  0  0  0  0  0
    6.2505   -0.4810   -1.6746 H   0  0  0  0  0  0  0  0  0  0  0  0
    5.4237    0.8075   -0.8148 H   0  0  0  0  0  0  0  0  0  0  0  0
    4.5786   -1.5831   -0.4403 H   0  0  0  0  0  0  0  0  0  0  0  0
    6.0811   -1.9333    0.3955 H   0  0  0  0  0  0  0  0  0  0  0  0
    4.4255   -1.4877    2.0637 H   0  0  0  0  0  0  0  0  0  0  0  0
    5.5382   -0.1327    2.0973 H   0  0  0  0  0  0  0  0  0  0  0  0
   -0.0655   -0.6302    0.1308 H   0  0  0  0  0  0  0  0  0  0  0  0
   -0.6557    2.3704    0.1656 H   0  0  0  0  0  0  0  0  0  0  0  0
   -2.5402    3.3091   -0.2424 H   0  0  0  0  0  0  0  0  0  0  0  0
   -4.8632    3.3243   -0.8303 H   0  0  0  0  0  0  0  0  0  0  0  0
   -6.9188    2.1320   -1.3702 H   0  0  0  0  0  0  0  0  0  0  0  0
   -8.2232    0.0483   -1.5638 H   0  0  0  0  0  0  0  0  0  0  0  0
   -7.1432   -2.1287   -1.0707 H   0  0  0  0  0  0  0  0  0  0  0  0
   -4.8240   -2.2408   -0.4058 H   0  0  0  0  0  0  0  0  0  0  0  0
   -1.7884   -1.1762    1.2289 H   0  0  0  0  0  0  0  0  0  0  0  0
   -3.3335   -1.8770    1.0644 H   0  0  0  0  0  0  0  0  0  0  0  0
   -2.8152   -2.6473   -1.2725 H   0  0  0  0  0  0  0  0  0  0  0  0
   -1.5432   -3.1578   -0.1593 H   0  0  0  0  0  0  0  0  0  0  0  0
   -1.2904   -1.7821   -1.2503 H   0  0  0  0  0  0  0  0  0  0  0  0
  1  2  1  0
  2  3  1  0
  3  4  1  0
  4  5  1  0
  5  6  1  0
  6  7  2  0
  6  8  1  0
  8  9  2  3
  9 10  1  0
 10 11  2  3
 11 12  1  0
 12 13  2  0
 13 14  1  0
 14 15  2  0
 15 16  1  0
 16 17  2  0
 17 18  1  0
 18 19  2  0
 19 20  1  0
 20 21  1  0
 21 22  1  0
  8 23  1  0
 23 24  1  0
 24 25  2  0
 24  5  1  0
 20 11  1  0
 19 14  1  0
  1 26  1  0
  1 27  1  0
  1 28  1  0
  2 29  1  0
  2 30  1  0
  3 31  1  0
  3 32  1  0
  4 33  1  0
  4 34  1  0
  9 35  1  0
 10 36  1  0
 12 37  1  0
 13 38  1  0
 15 39  1  0
 16 40  1  0
 17 41  1  0
 18 42  1  0
 21 43  1  0
 21 44  1  0
 22 45  1  0
 22 46  1  0
 22 47  1  0
M  END
$$$$
