
     RDKit          3D

 62 65  0  0  0  0  0  0  0  0999 V2000
   -5.9569   -1.7454   -2.0959 C   0  0  0  0  0  0  0  0  0  0  0  0
   -4.8589   -2.5159   -2.8065 C   0  0  0  0  0  0  0  0  0  0  0  0
   -3.6720   -2.5640   -2.0020 O   0  0  0  0  0  0  0  0  0  0  0  0
   -2.8473   -1.4902   -2.1153 C   0  0  0  0  0  0  0  0  0  0  0  0
   -3.0507   -0.4888   -2.7839 O   0  0  0  0  0  0  0  0  0  0  0  0
   -1.6420   -1.6803   -1.2679 C   0  0  0  0  0  0  0  0  0  0  0  0
   -0.7817   -2.6949   -1.5567 C   0  0  0  0  0  0  0  0  0  0  0  0
   -1.0407   -3.7406   -2.6165 C   0  0  0  0  0  0  0  0  0  0  0  0
    0.4928   -2.8051   -1.0027 N   0  0  0  0  0  0  0  0  0  0  0  0
    0.9580   -1.7316   -0.4510 C   0  0  0  0  0  0  0  0  0  0  0  0
    2.6235   -1.5534    0.0104 S   0  0  0  0  0  0  0  0  0  0  0  0
    2.4776    0.1925   -0.0026 C   0  0  0  0  0  0  0  0  0  0  0  0
    3.5395    1.0269   -0.0057 C   0  0  0  0  0  0  0  0  0  0  0  0
    3.3962    2.4068   -0.0808 O   0  0  0  0  0  0  0  0  0  0  0  0
    4.9402    0.5741    0.0178 C   0  0  0  0  0  0  0  0  0  0  0  0
    5.5539    0.2189    1.2228 C   0  0  0  0  0  0  0  0  0  0  0  0
    6.8840   -0.2172    1.2397 C   0  0  0  0  0  0  0  0  0  0  0  0
    7.6119   -0.2958    0.0520 C   0  0  0  0  0  0  0  0  0  0  0  0
    8.9101   -0.7079   -0.0710 O   0  0  0  0  0  0  0  0  0  0  0  0
    9.5582   -1.1475    1.1171 C   0  0  0  0  0  0  0  0  0  0  0  0
    7.0002    0.0705   -1.1495 C   0  0  0  0  0  0  0  0  0  0  0  0
    5.6719    0.5026   -1.1715 C   0  0  0  0  0  0  0  0  0  0  0  0
    1.0535    0.5742   -0.0568 C   0  0  0  0  0  0  0  0  0  0  0  0
    0.6850    1.9015    0.0461 N   0  0  0  0  0  0  0  0  0  0  0  0
    0.2135   -0.4698   -0.2130 C   0  0  0  0  0  0  0  0  0  0  0  0
   -1.2434   -0.6431   -0.2746 C   0  0  0  0  0  0  0  0  0  0  0  0
   -2.1268   -0.0452    0.5827 C   0  0  0  0  0  0  0  0  0  0  0  0
   -1.7076    0.8924    1.6450 C   0  0  0  0  0  0  0  0  0  0  0  0
   -2.6051    1.7053    2.2338 C   0  0  0  0  0  0  0  0  0  0  0  0
   -4.0249    1.6426    1.8576 C   0  0  0  0  0  0  0  0  0  0  0  0
   -4.8710    2.6405    2.2228 C   0  0  0  0  0  0  0  0  0  0  0  0
   -6.2229    2.6379    1.9174 O   0  0  0  0  0  0  0  0  0  0  0  0
   -4.3714    3.7281    2.9252 O   0  0  0  0  0  0  0  0  0  0  0  0
   -5.2957    4.7997    3.0691 C   0  0  0  0  0  0  0  0  0  0  0  0
   -4.4651    0.4064    1.1940 C   0  0  0  0  0  0  0  0  0  0  0  0
   -3.5611   -0.4033    0.6162 C   0  0  0  0  0  0  0  0  0  0  0  0
   -6.1310   -2.1556   -1.0949 H   0  0  0  0  0  0  0  0  0  0  0  0
   -5.6781   -0.6946   -1.9660 H   0  0  0  0  0  0  0  0  0  0  0  0
   -6.8910   -1.7877   -2.6645 H   0  0  0  0  0  0  0  0  0  0  0  0
   -4.6492   -2.0931   -3.7965 H   0  0  0  0  0  0  0  0  0  0  0  0
   -5.1775   -3.5528   -2.9591 H   0  0  0  0  0  0  0  0  0  0  0  0
   -1.5493   -4.6049   -2.1750 H   0  0  0  0  0  0  0  0  0  0  0  0
   -1.6385   -3.3621   -3.4518 H   0  0  0  0  0  0  0  0  0  0  0  0
   -0.0964   -4.0906   -3.0515 H   0  0  0  0  0  0  0  0  0  0  0  0
    4.2902    2.7938   -0.0949 H   0  0  0  0  0  0  0  0  0  0  0  0
    4.9975    0.2685    2.1565 H   0  0  0  0  0  0  0  0  0  0  0  0
    7.3166   -0.4911    2.1956 H   0  0  0  0  0  0  0  0  0  0  0  0
   10.5699   -1.4635    0.8474 H   0  0  0  0  0  0  0  0  0  0  0  0
    9.0456   -2.0115    1.5520 H   0  0  0  0  0  0  0  0  0  0  0  0
    9.6450   -0.3318    1.8423 H   0  0  0  0  0  0  0  0  0  0  0  0
    7.5619    0.0056   -2.0792 H   0  0  0  0  0  0  0  0  0  0  0  0
    5.2108    0.7667   -2.1203 H   0  0  0  0  0  0  0  0  0  0  0  0
    1.4614    2.5331   -0.1716 H   0  0  0  0  0  0  0  0  0  0  0  0
   -0.1669    2.1312   -0.4655 H   0  0  0  0  0  0  0  0  0  0  0  0
   -0.6797    0.9195    1.9846 H   0  0  0  0  0  0  0  0  0  0  0  0
   -2.2891    2.3975    3.0066 H   0  0  0  0  0  0  0  0  0  0  0  0
   -6.4251    1.8302    1.4205 H   0  0  0  0  0  0  0  0  0  0  0  0
   -4.7831    5.6190    3.5818 H   0  0  0  0  0  0  0  0  0  0  0  0
   -5.6289    5.1670    2.0922 H   0  0  0  0  0  0  0  0  0  0  0  0
   -6.1496    4.4993    3.6863 H   0  0  0  0  0  0  0  0  0  0  0  0
   -5.4987    0.0897    1.2421 H   0  0  0  0  0  0  0  0  0  0  0  0
   -3.8916   -1.3628    0.2368 H   0  0  0  0  0  0  0  0  0  0  0  0
  1  2  1  0
  2  3  1  0
  3  4  1  0
  4  5  2  0
  4  6  1  0
  6  7  2  0
  7  8  1  0
  7  9  1  0
  9 10  2  0
 10 11  1  0
 11 12  1  0
 12 13  2  3
 13 14  1  0
 13 15  1  0
 15 16  2  0
 16 17  1  0
 17 18  2  0
 18 19  1  0
 19 20  1  0
 18 21  1  0
 21 22  2  0
 12 23  1  0
 23 24  1  0
 23 25  2  0
 25 26  1  0
 26 27  2  3
 27 28  1  0
 28 29  2  0
 29 30  1  0
 30 31  2  3
 31 32  1  0
 31 33  1  0
 33 34  1  0
 30 35  1  0
 35 36  2  0
 26  6  1  0
 36 27  1  0
 25 10  1  0
 22 15  1  0
  1 37  1  0
  1 38  1  0
  1 39  1  0
  2 40  1  0
  2 41  1  0
  8 42  1  0
  8 43  1  0
  8 44  1  0
 14 45  1  0
 16 46  1  0
 17 47  1  0
 20 48  1  0
 20 49  1  0
 20 50  1  0
 21 51  1  0
 22 52  1  0
 24 53  1  0
 24 54  1  0
 28 55  1  0
 29 56  1  0
 32 57  1  0
 34 58  1  0
 34 59  1  0
 34 60  1  0
 35 61  1  0
 36 62  1  0
M  END
$$$$
