
     RDKit          3D

 40 42  0  0  0  0  0  0  0  0999 V2000
   -0.4262   -1.4012   -2.0539 C   0  0  0  0  0  0  0  0  0  0  0  0
   -1.7755   -0.9774   -1.4715 C   0  0  0  0  0  0  0  0  0  0  0  0
   -2.9095   -1.6359   -2.2598 C   0  0  0  0  0  0  0  0  0  0  0  0
   -1.9073   -1.3344    0.0216 C   0  0  0  0  0  0  0  0  0  0  0  0
   -1.0157   -0.5941    0.8918 N   0  0  0  0  0  0  0  0  0  0  0  0
    0.1398   -1.0339    1.4819 C   0  0  0  0  0  0  0  0  0  0  0  0
    0.7888   -2.6262    1.3201 S   0  0  0  0  0  0  0  0  0  0  0  0
    2.5654   -2.2746    1.5037 C   0  0  0  0  0  0  0  0  0  0  0  0
    3.0980   -1.5332    0.2842 C   0  0  0  0  0  0  0  0  0  0  0  0
    2.9881   -2.0566   -0.8296 O   0  0  0  0  0  0  0  0  0  0  0  0
    3.7514   -0.2406    0.4890 C   0  0  0  0  0  0  0  0  0  0  0  0
    3.8295    0.5709    1.6105 C   0  0  0  0  0  0  0  0  0  0  0  0
    4.5736    1.7686    1.3756 C   0  0  0  0  0  0  0  0  0  0  0  0
    5.0304    1.8199    0.0869 C   0  0  0  0  0  0  0  0  0  0  0  0
    5.9651    3.0754   -0.6187 Cl  0  0  0  0  0  0  0  0  0  0  0  0
    4.5843    0.4804   -0.8384 S   0  0  0  0  0  0  0  0  0  0  0  0
    0.6834   -0.0698    2.1846 N   0  0  0  0  0  0  0  0  0  0  0  0
   -0.1266    1.0299    2.0749 N   0  0  0  0  0  0  0  0  0  0  0  0
   -1.1591    0.7097    1.3157 C   0  0  0  0  0  0  0  0  0  0  0  0
   -2.2272    1.6129    1.0111 C   0  0  0  0  0  0  0  0  0  0  0  0
   -2.3551    2.9361    1.4060 C   0  0  0  0  0  0  0  0  0  0  0  0
   -3.5703    3.4250    0.8705 C   0  0  0  0  0  0  0  0  0  0  0  0
   -4.1238    2.3772    0.1785 C   0  0  0  0  0  0  0  0  0  0  0  0
   -3.3265    1.2830    0.2581 O   0  0  0  0  0  0  0  0  0  0  0  0
    0.3969   -0.8591   -1.5783 H   0  0  0  0  0  0  0  0  0  0  0  0
   -0.3814   -1.1821   -3.1263 H   0  0  0  0  0  0  0  0  0  0  0  0
   -0.2549   -2.4750   -1.9239 H   0  0  0  0  0  0  0  0  0  0  0  0
   -1.8639    0.1075   -1.6017 H   0  0  0  0  0  0  0  0  0  0  0  0
   -3.8849   -1.3064   -1.8860 H   0  0  0  0  0  0  0  0  0  0  0  0
   -2.8527   -1.3694   -3.3207 H   0  0  0  0  0  0  0  0  0  0  0  0
   -2.8663   -2.7276   -2.1812 H   0  0  0  0  0  0  0  0  0  0  0  0
   -1.7409   -2.4063    0.1715 H   0  0  0  0  0  0  0  0  0  0  0  0
   -2.9266   -1.1507    0.3795 H   0  0  0  0  0  0  0  0  0  0  0  0
    3.1010   -3.2287    1.5619 H   0  0  0  0  0  0  0  0  0  0  0  0
    2.7532   -1.7551    2.4445 H   0  0  0  0  0  0  0  0  0  0  0  0
    3.3596    0.3513    2.5623 H   0  0  0  0  0  0  0  0  0  0  0  0
    4.7473    2.5425    2.1129 H   0  0  0  0  0  0  0  0  0  0  0  0
   -1.6410    3.4769    2.0130 H   0  0  0  0  0  0  0  0  0  0  0  0
   -3.9878    4.4163    0.9760 H   0  0  0  0  0  0  0  0  0  0  0  0
   -5.0328    2.2547   -0.3943 H   0  0  0  0  0  0  0  0  0  0  0  0
  1  2  1  0
  2  3  1  0
  2  4  1  0
  4  5  1  0
  5  6  1  0
  6  7  1  0
  7  8  1  0
  8  9  1  0
  9 10  2  0
  9 11  1  0
 11 12  2  0
 12 13  1  0
 13 14  2  0
 14 15  1  0
 14 16  1  0
  6 17  2  0
 17 18  1  0
 18 19  2  0
 19 20  1  0
 20 21  2  0
 21 22  1  0
 22 23  2  0
 23 24  1  0
 19  5  1  0
 24 20  1  0
 16 11  1  0
  1 25  1  0
  1 26  1  0
  1 27  1  0
  2 28  1  0
  3 29  1  0
  3 30  1  0
  3 31  1  0
  4 32  1  0
  4 33  1  0
  8 34  1  0
  8 35  1  0
 12 36  1  0
 13 37  1  0
 21 38  1  0
 22 39  1  0
 23 40  1  0
M  END
$$$$
