
     RDKit          3D

 46 47  0  0  0  0  0  0  0  0999 V2000
    0.7546   -0.3032    1.8086 O   0  0  0  0  0  0  0  0  0  0  0  0
    0.6967   -0.1666    0.5956 C   0  0  0  0  0  0  0  0  0  0  0  0
   -0.4453   -0.3104   -0.1538 N   0  0  0  0  0  0  0  0  0  0  0  0
   -1.7430   -0.5637    0.4801 C   0  0  0  0  0  0  0  0  0  0  0  0
   -2.6393   -1.3161   -0.5164 C   0  0  0  0  0  0  0  0  0  0  0  0
   -3.2867   -0.4521   -1.6031 C   0  0  0  0  0  0  0  0  0  0  0  0
   -4.7694   -0.1505   -1.3751 C   0  0  0  0  0  0  0  0  0  0  0  0
   -5.1100    0.7796   -0.2086 C   0  0  0  0  0  0  0  0  0  0  0  0
   -4.8610    0.1796    1.1750 C   0  0  0  0  0  0  0  0  0  0  0  0
   -3.5809    0.6418    1.8710 C   0  0  0  0  0  0  0  0  0  0  0  0
   -2.3080    0.7530    1.0353 C   0  0  0  0  0  0  0  0  0  0  0  0
    1.7655    0.1518   -0.2065 N   0  0  0  0  0  0  0  0  0  0  0  0
    3.1069    0.2648    0.3510 C   0  0  0  0  0  0  0  0  0  0  0  0
    3.7252   -1.1205    0.5888 C   0  0  0  0  0  0  0  0  0  0  0  0
    5.1592   -1.0175    1.1023 C   0  0  0  0  0  0  0  0  0  0  0  0
    6.0299   -0.1718    0.1782 C   0  0  0  0  0  0  0  0  0  0  0  0
    5.4211    1.2064   -0.0608 C   0  0  0  0  0  0  0  0  0  0  0  0
    3.9889    1.1058   -0.5786 C   0  0  0  0  0  0  0  0  0  0  0  0
   -0.4561    0.2458   -0.9959 H   0  0  0  0  0  0  0  0  0  0  0  0
   -1.5525   -1.2384    1.3250 H   0  0  0  0  0  0  0  0  0  0  0  0
   -3.3988   -1.8925    0.0206 H   0  0  0  0  0  0  0  0  0  0  0  0
   -2.0209   -2.0752   -1.0166 H   0  0  0  0  0  0  0  0  0  0  0  0
   -3.2242   -1.0125   -2.5458 H   0  0  0  0  0  0  0  0  0  0  0  0
   -2.7294    0.4745   -1.7768 H   0  0  0  0  0  0  0  0  0  0  0  0
   -5.3214   -1.0926   -1.2650 H   0  0  0  0  0  0  0  0  0  0  0  0
   -5.1546    0.3162   -2.2912 H   0  0  0  0  0  0  0  0  0  0  0  0
   -6.1854    0.9906   -0.2839 H   0  0  0  0  0  0  0  0  0  0  0  0
   -4.6125    1.7484   -0.3255 H   0  0  0  0  0  0  0  0  0  0  0  0
   -4.9109   -0.9132    1.1458 H   0  0  0  0  0  0  0  0  0  0  0  0
   -5.6948    0.4760    1.8264 H   0  0  0  0  0  0  0  0  0  0  0  0
   -3.7761    1.6371    2.2927 H   0  0  0  0  0  0  0  0  0  0  0  0
   -3.3945   -0.0123    2.7320 H   0  0  0  0  0  0  0  0  0  0  0  0
   -2.4396    1.4867    0.2323 H   0  0  0  0  0  0  0  0  0  0  0  0
   -1.5470    1.2035    1.6878 H   0  0  0  0  0  0  0  0  0  0  0  0
    1.6972   -0.2172   -1.1435 H   0  0  0  0  0  0  0  0  0  0  0  0
    3.0231    0.7803    1.3169 H   0  0  0  0  0  0  0  0  0  0  0  0
    3.1238   -1.6888    1.3082 H   0  0  0  0  0  0  0  0  0  0  0  0
    3.7141   -1.6969   -0.3457 H   0  0  0  0  0  0  0  0  0  0  0  0
    5.5894   -2.0209    1.1973 H   0  0  0  0  0  0  0  0  0  0  0  0
    5.1554   -0.5752    2.1062 H   0  0  0  0  0  0  0  0  0  0  0  0
    7.0305   -0.0630    0.6115 H   0  0  0  0  0  0  0  0  0  0  0  0
    6.1515   -0.6883   -0.7818 H   0  0  0  0  0  0  0  0  0  0  0  0
    5.4311    1.7778    0.8755 H   0  0  0  0  0  0  0  0  0  0  0  0
    6.0348    1.7607   -0.7798 H   0  0  0  0  0  0  0  0  0  0  0  0
    3.5665    2.1126   -0.6844 H   0  0  0  0  0  0  0  0  0  0  0  0
    3.9968    0.6666   -1.5850 H   0  0  0  0  0  0  0  0  0  0  0  0
  1  2  2  0
  2  3  1  0
  3  4  1  0
  4  5  1  0
  5  6  1  0
  6  7  1  0
  7  8  1  0
  8  9  1  0
  9 10  1  0
 10 11  1  0
  2 12  1  0
 12 13  1  0
 13 14  1  0
 14 15  1  0
 15 16  1  0
 16 17  1  0
 17 18  1  0
 11  4  1  0
 18 13  1  0
  3 19  1  0
  4 20  1  0
  5 21  1  0
  5 22  1  0
  6 23  1  0
  6 24  1  0
  7 25  1  0
  7 26  1  0
  8 27  1  0
  8 28  1  0
  9 29  1  0
  9 30  1  0
 10 31  1  0
 10 32  1  0
 11 33  1  0
 11 34  1  0
 12 35  1  0
 13 36  1  0
 14 37  1  0
 14 38  1  0
 15 39  1  0
 15 40  1  0
 16 41  1  0
 16 42  1  0
 17 43  1  0
 17 44  1  0
 18 45  1  0
 18 46  1  0
M  END
$$$$
