
     RDKit          3D

 52 55  0  0  0  0  0  0  0  0999 V2000
    7.1277    0.5275    3.2134 C   0  0  0  0  0  0  0  0  0  0  0  0
    5.9921   -0.2259    2.5816 C   0  0  0  0  0  0  0  0  0  0  0  0
    5.6086   -1.4711    3.1023 C   0  0  0  0  0  0  0  0  0  0  0  0
    4.5434   -2.1961    2.5567 C   0  0  0  0  0  0  0  0  0  0  0  0
    3.8808   -1.6131    1.4810 C   0  0  0  0  0  0  0  0  0  0  0  0
    2.8278   -2.1576    0.8192 O   0  0  0  0  0  0  0  0  0  0  0  0
    2.4554   -1.2736   -0.1551 C   0  0  0  0  0  0  0  0  0  0  0  0
    1.3306   -1.6357   -0.9948 C   0  0  0  0  0  0  0  0  0  0  0  0
    1.3395   -2.6489   -1.6943 O   0  0  0  0  0  0  0  0  0  0  0  0
    0.2247   -0.7733   -0.9908 N   0  0  0  0  0  0  0  0  0  0  0  0
   -0.0094    0.2442    0.0362 C   0  0  0  0  0  0  0  0  0  0  0  0
   -1.5020    0.4104    0.3116 C   0  0  0  0  0  0  0  0  0  0  0  0
   -2.2446    0.8857   -0.9559 C   0  0  0  0  0  0  0  0  0  0  0  0
   -1.9433    2.2940   -1.0680 O   0  0  0  0  0  0  0  0  0  0  0  0
   -3.7739    0.7788   -0.8940 C   0  0  0  0  0  0  0  0  0  0  0  0
   -4.5389    1.3394   -1.9375 C   0  0  0  0  0  0  0  0  0  0  0  0
   -5.9330    1.2816   -1.9353 C   0  0  0  0  0  0  0  0  0  0  0  0
   -6.6012    0.6673   -0.8814 C   0  0  0  0  0  0  0  0  0  0  0  0
   -5.8796    0.1155    0.1840 C   0  0  0  0  0  0  0  0  0  0  0  0
   -6.5944   -0.5644    1.3282 C   0  0  0  0  0  0  0  0  0  0  0  0
   -6.0185   -0.3051    2.5358 F   0  0  0  0  0  0  0  0  0  0  0  0
   -7.8986   -0.1902    1.4517 F   0  0  0  0  0  0  0  0  0  0  0  0
   -6.6024   -1.9196    1.2009 F   0  0  0  0  0  0  0  0  0  0  0  0
   -4.4712    0.1739    0.1647 C   0  0  0  0  0  0  0  0  0  0  0  0
   -1.6701    0.2088   -2.2276 C   0  0  0  0  0  0  0  0  0  0  0  0
   -0.8717   -1.0505   -1.9111 C   0  0  0  0  0  0  0  0  0  0  0  0
    3.2934   -0.1640   -0.1393 C   0  0  0  0  0  0  0  0  0  0  0  0
    3.2692    1.0027   -1.0568 C   0  0  0  0  0  0  0  0  0  0  0  0
    4.2106   -0.3810    0.9354 C   0  0  0  0  0  0  0  0  0  0  0  0
    5.2880    0.3317    1.4974 C   0  0  0  0  0  0  0  0  0  0  0  0
    7.9636   -0.1473    3.4266 H   0  0  0  0  0  0  0  0  0  0  0  0
    7.5027    1.3127    2.5481 H   0  0  0  0  0  0  0  0  0  0  0  0
    6.7944    0.9922    4.1468 H   0  0  0  0  0  0  0  0  0  0  0  0
    6.1480   -1.8940    3.9484 H   0  0  0  0  0  0  0  0  0  0  0  0
    4.2445   -3.1615    2.9459 H   0  0  0  0  0  0  0  0  0  0  0  0
    0.4985   -0.0348    0.9648 H   0  0  0  0  0  0  0  0  0  0  0  0
    0.4255    1.1838   -0.3204 H   0  0  0  0  0  0  0  0  0  0  0  0
   -1.6393    1.1277    1.1300 H   0  0  0  0  0  0  0  0  0  0  0  0
   -1.8783   -0.5607    0.6540 H   0  0  0  0  0  0  0  0  0  0  0  0
   -2.6503    2.7865   -0.6143 H   0  0  0  0  0  0  0  0  0  0  0  0
   -4.0409    1.8341   -2.7717 H   0  0  0  0  0  0  0  0  0  0  0  0
   -6.4955    1.7173   -2.7581 H   0  0  0  0  0  0  0  0  0  0  0  0
   -7.6895    0.6242   -0.8914 H   0  0  0  0  0  0  0  0  0  0  0  0
   -3.9419   -0.2650    1.0079 H   0  0  0  0  0  0  0  0  0  0  0  0
   -1.0113    0.9118   -2.7560 H   0  0  0  0  0  0  0  0  0  0  0  0
   -2.4567   -0.0596   -2.9423 H   0  0  0  0  0  0  0  0  0  0  0  0
   -0.4737   -1.4770   -2.8388 H   0  0  0  0  0  0  0  0  0  0  0  0
   -1.5114   -1.8134   -1.4512 H   0  0  0  0  0  0  0  0  0  0  0  0
    2.6102    0.8326   -1.9139 H   0  0  0  0  0  0  0  0  0  0  0  0
    4.2722    1.2043   -1.4464 H   0  0  0  0  0  0  0  0  0  0  0  0
    2.9202    1.8952   -0.5281 H   0  0  0  0  0  0  0  0  0  0  0  0
    5.5704    1.2994    1.0927 H   0  0  0  0  0  0  0  0  0  0  0  0
  1  2  1  0
  2  3  2  0
  3  4  1  0
  4  5  2  0
  5  6  1  0
  6  7  1  0
  7  8  1  0
  8  9  2  0
  8 10  1  0
 10 11  1  0
 11 12  1  0
 12 13  1  0
 13 14  1  0
 13 15  1  0
 15 16  2  0
 16 17  1  0
 17 18  2  0
 18 19  1  0
 19 20  1  0
 20 21  1  0
 20 22  1  0
 20 23  1  0
 19 24  2  0
 13 25  1  0
 25 26  1  0
  7 27  2  0
 27 28  1  0
 27 29  1  0
 29 30  2  0
 30  2  1  0
 29  5  1  0
 26 10  1  0
 24 15  1  0
  1 31  1  0
  1 32  1  0
  1 33  1  0
  3 34  1  0
  4 35  1  0
 11 36  1  0
 11 37  1  0
 12 38  1  0
 12 39  1  0
 14 40  1  0
 16 41  1  0
 17 42  1  0
 18 43  1  0
 24 44  1  0
 25 45  1  0
 25 46  1  0
 26 47  1  0
 26 48  1  0
 28 49  1  0
 28 50  1  0
 28 51  1  0
 30 52  1  0
M  END
$$$$
