
     RDKit          3D

 54 58  0  0  0  0  0  0  0  0999 V2000
   -6.2957   -3.0271    0.4929 C   0  0  0  0  0  0  0  0  0  0  0  0
   -4.8982   -2.5443    0.8547 C   0  0  0  0  0  0  0  0  0  0  0  0
   -4.0709   -2.0928   -0.3654 C   0  0  0  0  0  0  0  0  0  0  0  0
   -3.7791   -3.2382   -1.3412 C   0  0  0  0  0  0  0  0  0  0  0  0
   -2.8262   -1.4310    0.0644 N   0  0  0  0  0  0  0  0  0  0  0  0
   -1.8449   -2.1504    0.7420 C   0  0  0  0  0  0  0  0  0  0  0  0
   -0.7154   -1.6858    1.1843 N   0  0  0  0  0  0  0  0  0  0  0  0
   -0.5421   -0.3702    0.9218 C   0  0  0  0  0  0  0  0  0  0  0  0
   -1.4242    0.4756    0.2831 C   0  0  0  0  0  0  0  0  0  0  0  0
   -2.6795   -0.0546   -0.1867 C   0  0  0  0  0  0  0  0  0  0  0  0
   -3.5311    0.6327   -0.7415 O   0  0  0  0  0  0  0  0  0  0  0  0
   -0.8408    1.7563    0.2496 C   0  0  0  0  0  0  0  0  0  0  0  0
   -1.2864    2.9364   -0.2467 N   0  0  0  0  0  0  0  0  0  0  0  0
   -0.4420    3.9666   -0.0849 C   0  0  0  0  0  0  0  0  0  0  0  0
   -0.8249    5.2108   -0.5690 C   0  0  0  0  0  0  0  0  0  0  0  0
   -0.0036    6.3314   -0.4381 C   0  0  0  0  0  0  0  0  0  0  0  0
    1.2272    6.2067    0.1904 C   0  0  0  0  0  0  0  0  0  0  0  0
    1.6254    4.9625    0.6819 C   0  0  0  0  0  0  0  0  0  0  0  0
    0.8191    3.8380    0.5586 C   0  0  0  0  0  0  0  0  0  0  0  0
    1.2707    2.6733    1.0562 N   0  0  0  0  0  0  0  0  0  0  0  0
    0.4018    1.6573    0.8721 C   0  0  0  0  0  0  0  0  0  0  0  0
    0.5785    0.3498    1.2556 N   0  0  0  0  0  0  0  0  0  0  0  0
    1.7512   -0.1653    1.9403 C   0  0  0  0  0  0  0  0  0  0  0  0
    2.7779   -0.6840    0.9639 C   0  0  0  0  0  0  0  0  0  0  0  0
    3.7244    0.1796    0.3956 C   0  0  0  0  0  0  0  0  0  0  0  0
    4.6681   -0.2957   -0.5222 C   0  0  0  0  0  0  0  0  0  0  0  0
    4.6756   -1.6415   -0.8874 C   0  0  0  0  0  0  0  0  0  0  0  0
    5.5387   -2.2325   -1.7686 O   0  0  0  0  0  0  0  0  0  0  0  0
    6.5038   -1.3889   -2.3839 C   0  0  0  0  0  0  0  0  0  0  0  0
    3.7301   -2.5038   -0.3287 C   0  0  0  0  0  0  0  0  0  0  0  0
    2.7859   -2.0322    0.5863 C   0  0  0  0  0  0  0  0  0  0  0  0
   -6.2618   -3.9438   -0.1028 H   0  0  0  0  0  0  0  0  0  0  0  0
   -6.8642   -3.2449    1.4028 H   0  0  0  0  0  0  0  0  0  0  0  0
   -6.8415   -2.2649   -0.0721 H   0  0  0  0  0  0  0  0  0  0  0  0
   -4.9946   -1.7020    1.5517 H   0  0  0  0  0  0  0  0  0  0  0  0
   -4.3788   -3.3402    1.4012 H   0  0  0  0  0  0  0  0  0  0  0  0
   -4.6767   -1.3643   -0.9171 H   0  0  0  0  0  0  0  0  0  0  0  0
   -3.2910   -4.0837   -0.8461 H   0  0  0  0  0  0  0  0  0  0  0  0
   -4.7003   -3.6078   -1.8023 H   0  0  0  0  0  0  0  0  0  0  0  0
   -3.1202   -2.8985   -2.1480 H   0  0  0  0  0  0  0  0  0  0  0  0
   -2.0847   -3.2128    0.9012 H   0  0  0  0  0  0  0  0  0  0  0  0
   -1.7903    5.3080   -1.0614 H   0  0  0  0  0  0  0  0  0  0  0  0
   -0.3291    7.2931   -0.8265 H   0  0  0  0  0  0  0  0  0  0  0  0
    1.8780    7.0704    0.3005 H   0  0  0  0  0  0  0  0  0  0  0  0
    2.5902    4.8672    1.1745 H   0  0  0  0  0  0  0  0  0  0  0  0
    2.1725    0.6350    2.5601 H   0  0  0  0  0  0  0  0  0  0  0  0
    1.4304   -0.9536    2.6314 H   0  0  0  0  0  0  0  0  0  0  0  0
    3.7275    1.2364    0.6588 H   0  0  0  0  0  0  0  0  0  0  0  0
    5.3776    0.4138   -0.9339 H   0  0  0  0  0  0  0  0  0  0  0  0
    7.1806   -0.9554   -1.6401 H   0  0  0  0  0  0  0  0  0  0  0  0
    7.1040   -2.0054   -3.0600 H   0  0  0  0  0  0  0  0  0  0  0  0
    6.0225   -0.6093   -2.9837 H   0  0  0  0  0  0  0  0  0  0  0  0
    3.7249   -3.5530   -0.6134 H   0  0  0  0  0  0  0  0  0  0  0  0
    2.0516   -2.7231    0.9956 H   0  0  0  0  0  0  0  0  0  0  0  0
  1  2  1  0
  2  3  1  0
  3  4  1  0
  3  5  1  0
  5  6  1  0
  6  7  2  0
  7  8  1  0
  8  9  2  0
  9 10  1  0
 10 11  2  0
  9 12  1  0
 12 13  2  0
 13 14  1  0
 14 15  2  0
 15 16  1  0
 16 17  2  0
 17 18  1  0
 18 19  2  0
 19 20  1  0
 20 21  2  0
 21 22  1  0
 22 23  1  0
 23 24  1  0
 24 25  2  0
 25 26  1  0
 26 27  2  0
 27 28  1  0
 28 29  1  0
 27 30  1  0
 30 31  2  0
 10  5  1  0
 21 12  1  0
 31 24  1  0
 22  8  1  0
 19 14  1  0
  1 32  1  0
  1 33  1  0
  1 34  1  0
  2 35  1  0
  2 36  1  0
  3 37  1  0
  4 38  1  0
  4 39  1  0
  4 40  1  0
  6 41  1  0
 15 42  1  0
 16 43  1  0
 17 44  1  0
 18 45  1  0
 23 46  1  0
 23 47  1  0
 25 48  1  0
 26 49  1  0
 29 50  1  0
 29 51  1  0
 29 52  1  0
 30 53  1  0
 31 54  1  0
M  END
$$$$
