
     RDKit          3D

 52 56  0  0  0  0  0  0  0  0999 V2000
   -6.4347    2.3576    1.9149 C   0  0  0  0  0  0  0  0  0  0  0  0
   -5.2867    1.4685    1.5391 C   0  0  0  0  0  0  0  0  0  0  0  0
   -4.7322    1.5298    0.2566 C   0  0  0  0  0  0  0  0  0  0  0  0
   -3.6402    0.7254   -0.0850 C   0  0  0  0  0  0  0  0  0  0  0  0
   -3.0799   -0.1541    0.8488 C   0  0  0  0  0  0  0  0  0  0  0  0
   -1.9604   -0.9858    0.5670 N   0  0  0  0  0  0  0  0  0  0  0  0
   -1.5457   -1.3124   -0.6957 C   0  0  0  0  0  0  0  0  0  0  0  0
   -0.3140   -1.2096   -1.3235 C   0  0  0  0  0  0  0  0  0  0  0  0
    0.9101   -0.6973   -0.7384 C   0  0  0  0  0  0  0  0  0  0  0  0
    1.6657    0.2477   -1.4353 C   0  0  0  0  0  0  0  0  0  0  0  0
    2.8499    0.7604   -0.8881 C   0  0  0  0  0  0  0  0  0  0  0  0
    3.3199    0.3345    0.3607 C   0  0  0  0  0  0  0  0  0  0  0  0
    4.4998    0.8071    0.9509 N   0  0  0  0  0  0  0  0  0  0  0  0
    5.0466    2.1209    0.5486 C   0  0  0  0  0  0  0  0  0  0  0  0
    6.2904    1.9437   -0.3339 C   0  0  0  0  0  0  0  0  0  0  0  0
    7.3631    1.2472    0.3239 O   0  0  0  0  0  0  0  0  0  0  0  0
    6.9116    0.3684    1.3672 C   0  0  0  0  0  0  0  0  0  0  0  0
    5.5332   -0.2521    1.0880 C   0  0  0  0  0  0  0  0  0  0  0  0
    2.5591   -0.6337    1.0373 C   0  0  0  0  0  0  0  0  0  0  0  0
    1.3734   -1.1482    0.4989 C   0  0  0  0  0  0  0  0  0  0  0  0
   -0.3901   -1.5916   -2.6409 N   0  0  0  0  0  0  0  0  0  0  0  0
   -1.6201   -2.0226   -2.8233 C   0  0  0  0  0  0  0  0  0  0  0  0
   -2.1774   -2.5385   -3.9602 N   0  0  0  0  0  0  0  0  0  0  0  0
   -3.4000   -2.9590   -3.8577 C   0  0  0  0  0  0  0  0  0  0  0  0
   -4.2484   -2.9311   -2.6357 C   0  0  0  0  0  0  0  0  0  0  0  0
   -3.6669   -2.3913   -1.5571 C   0  0  0  0  0  0  0  0  0  0  0  0
   -2.3595   -1.9168   -1.6429 N   0  0  0  0  0  0  0  0  0  0  0  0
   -3.6201   -0.1890    2.1406 C   0  0  0  0  0  0  0  0  0  0  0  0
   -4.7123    0.6130    2.4840 C   0  0  0  0  0  0  0  0  0  0  0  0
   -7.0599    1.8855    2.6801 H   0  0  0  0  0  0  0  0  0  0  0  0
   -7.0753    2.5550    1.0490 H   0  0  0  0  0  0  0  0  0  0  0  0
   -6.0595    3.3098    2.3022 H   0  0  0  0  0  0  0  0  0  0  0  0
   -5.1403    2.2113   -0.4867 H   0  0  0  0  0  0  0  0  0  0  0  0
   -3.2222    0.8170   -1.0841 H   0  0  0  0  0  0  0  0  0  0  0  0
   -1.2165   -0.6902    1.2036 H   0  0  0  0  0  0  0  0  0  0  0  0
    1.3386    0.5878   -2.4163 H   0  0  0  0  0  0  0  0  0  0  0  0
    3.4054    1.4768   -1.4844 H   0  0  0  0  0  0  0  0  0  0  0  0
    5.3373    2.6441    1.4683 H   0  0  0  0  0  0  0  0  0  0  0  0
    4.3034    2.7611    0.0619 H   0  0  0  0  0  0  0  0  0  0  0  0
    6.6777    2.9205   -0.6399 H   0  0  0  0  0  0  0  0  0  0  0  0
    6.0438    1.3872   -1.2452 H   0  0  0  0  0  0  0  0  0  0  0  0
    6.8959    0.9382    2.3037 H   0  0  0  0  0  0  0  0  0  0  0  0
    7.6632   -0.4197    1.4782 H   0  0  0  0  0  0  0  0  0  0  0  0
    5.2730   -0.9284    1.9097 H   0  0  0  0  0  0  0  0  0  0  0  0
    5.5955   -0.8348    0.1592 H   0  0  0  0  0  0  0  0  0  0  0  0
    2.8851   -0.9883    2.0121 H   0  0  0  0  0  0  0  0  0  0  0  0
    0.8341   -1.9144    1.0495 H   0  0  0  0  0  0  0  0  0  0  0  0
   -3.8873   -3.3855   -4.7505 H   0  0  0  0  0  0  0  0  0  0  0  0
   -5.2533   -3.3256   -2.6629 H   0  0  0  0  0  0  0  0  0  0  0  0
   -4.1666   -2.3080   -0.6008 H   0  0  0  0  0  0  0  0  0  0  0  0
   -3.1966   -0.8544    2.8891 H   0  0  0  0  0  0  0  0  0  0  0  0
   -5.1099    0.5641    3.4952 H   0  0  0  0  0  0  0  0  0  0  0  0
  1  2  1  0
  2  3  2  0
  3  4  1  0
  4  5  2  0
  5  6  1  0
  6  7  1  0
  7  8  2  0
  8  9  1  0
  9 10  2  0
 10 11  1  0
 11 12  2  0
 12 13  1  0
 13 14  1  0
 14 15  1  0
 15 16  1  0
 16 17  1  0
 17 18  1  0
 12 19  1  0
 19 20  2  0
  8 21  1  0
 21 22  2  0
 22 23  1  0
 23 24  2  0
 24 25  1  0
 25 26  2  0
 26 27  1  0
  5 28  1  0
 28 29  2  0
 29  2  1  0
 27  7  1  0
 20  9  1  0
 27 22  1  0
 18 13  1  0
  1 30  1  0
  1 31  1  0
  1 32  1  0
  3 33  1  0
  4 34  1  0
  6 35  1  0
 10 36  1  0
 11 37  1  0
 14 38  1  0
 14 39  1  0
 15 40  1  0
 15 41  1  0
 17 42  1  0
 17 43  1  0
 18 44  1  0
 18 45  1  0
 19 46  1  0
 20 47  1  0
 24 48  1  0
 25 49  1  0
 26 50  1  0
 28 51  1  0
 29 52  1  0
M  END
$$$$
