
     RDKit          3D

 57 61  0  0  0  0  0  0  0  0999 V2000
    1.5353   -0.2579    4.1816 C   0  0  0  0  0  0  0  0  0  0  0  0
    2.0263    0.7537    3.3567 C   0  0  0  0  0  0  0  0  0  0  0  0
    2.1823    0.5283    1.9885 C   0  0  0  0  0  0  0  0  0  0  0  0
    1.8408   -0.7135    1.4324 C   0  0  0  0  0  0  0  0  0  0  0  0
    1.9920   -0.9698   -0.0538 C   0  0  0  0  0  0  0  0  0  0  0  0
    0.7238   -1.3449   -0.7019 N   0  0  0  0  0  0  0  0  0  0  0  0
    0.9591   -1.9016   -2.0443 C   0  0  0  0  0  0  0  0  0  0  0  0
    1.4752   -3.3037   -1.9565 C   0  0  0  0  0  0  0  0  0  0  0  0
    2.6612   -3.9051   -2.3304 C   0  0  0  0  0  0  0  0  0  0  0  0
    2.5584   -5.2641   -1.9453 C   0  0  0  0  0  0  0  0  0  0  0  0
    1.3162   -5.4079   -1.3769 C   0  0  0  0  0  0  0  0  0  0  0  0
    0.6500   -4.2255   -1.3814 O   0  0  0  0  0  0  0  0  0  0  0  0
   -0.3019   -0.2766   -0.6582 C   0  0  0  0  0  0  0  0  0  0  0  0
   -1.6919   -0.7864   -1.0635 C   0  0  0  0  0  0  0  0  0  0  0  0
   -2.3734   -0.3539   -2.2101 C   0  0  0  0  0  0  0  0  0  0  0  0
   -3.6296   -0.8749   -2.4833 C   0  0  0  0  0  0  0  0  0  0  0  0
   -4.2500   -1.7850   -1.7054 N   0  0  0  0  0  0  0  0  0  0  0  0
   -3.5755   -2.2122   -0.6198 C   0  0  0  0  0  0  0  0  0  0  0  0
   -2.3183   -1.7518   -0.2607 C   0  0  0  0  0  0  0  0  0  0  0  0
    0.0930    1.0074   -1.3358 C   0  0  0  0  0  0  0  0  0  0  0  0
    0.6918    1.1430   -2.5066 N   0  0  0  0  0  0  0  0  0  0  0  0
    0.7933    2.4874   -2.7458 N   0  0  0  0  0  0  0  0  0  0  0  0
    0.2746    3.1827   -1.7453 N   0  0  0  0  0  0  0  0  0  0  0  0
   -0.1466    2.2700   -0.8487 N   0  0  0  0  0  0  0  0  0  0  0  0
   -0.7360    2.7038    0.4002 C   0  0  0  0  0  0  0  0  0  0  0  0
   -2.1019    3.3847    0.2134 C   0  0  0  0  0  0  0  0  0  0  0  0
   -2.1228    4.4968    1.2519 C   0  0  0  0  0  0  0  0  0  0  0  0
   -0.6867    4.9901    1.2600 C   0  0  0  0  0  0  0  0  0  0  0  0
    0.1394    3.7114    1.1736 C   0  0  0  0  0  0  0  0  0  0  0  0
    1.3577   -1.7272    2.2743 C   0  0  0  0  0  0  0  0  0  0  0  0
    1.2034   -1.4996    3.6408 C   0  0  0  0  0  0  0  0  0  0  0  0
    1.4197   -0.0842    5.2488 H   0  0  0  0  0  0  0  0  0  0  0  0
    2.2968    1.7149    3.7862 H   0  0  0  0  0  0  0  0  0  0  0  0
    2.5792    1.3227    1.3628 H   0  0  0  0  0  0  0  0  0  0  0  0
    2.7295   -1.7789   -0.1415 H   0  0  0  0  0  0  0  0  0  0  0  0
    2.4499   -0.1016   -0.5444 H   0  0  0  0  0  0  0  0  0  0  0  0
    0.0364   -1.9539   -2.6328 H   0  0  0  0  0  0  0  0  0  0  0  0
    1.6571   -1.2849   -2.6155 H   0  0  0  0  0  0  0  0  0  0  0  0
    3.4966   -3.4195   -2.8148 H   0  0  0  0  0  0  0  0  0  0  0  0
    3.2976   -6.0430   -2.0695 H   0  0  0  0  0  0  0  0  0  0  0  0
    0.7853   -6.2374   -0.9306 H   0  0  0  0  0  0  0  0  0  0  0  0
   -0.4399   -0.0433    0.4029 H   0  0  0  0  0  0  0  0  0  0  0  0
   -1.9443    0.3604   -2.9029 H   0  0  0  0  0  0  0  0  0  0  0  0
   -4.1837   -0.5690   -3.3673 H   0  0  0  0  0  0  0  0  0  0  0  0
   -4.0847   -2.9623   -0.0213 H   0  0  0  0  0  0  0  0  0  0  0  0
   -1.8251   -2.1499    0.6225 H   0  0  0  0  0  0  0  0  0  0  0  0
   -0.8674    1.8269    1.0391 H   0  0  0  0  0  0  0  0  0  0  0  0
   -2.9296    2.6821    0.3557 H   0  0  0  0  0  0  0  0  0  0  0  0
   -2.2081    3.8131   -0.7908 H   0  0  0  0  0  0  0  0  0  0  0  0
   -2.8350    5.2875    0.9996 H   0  0  0  0  0  0  0  0  0  0  0  0
   -2.3915    4.0946    2.2340 H   0  0  0  0  0  0  0  0  0  0  0  0
   -0.4976    5.6194    0.3834 H   0  0  0  0  0  0  0  0  0  0  0  0
   -0.4523    5.5747    2.1551 H   0  0  0  0  0  0  0  0  0  0  0  0
    1.1177    3.8937    0.7144 H   0  0  0  0  0  0  0  0  0  0  0  0
    0.3256    3.3302    2.1865 H   0  0  0  0  0  0  0  0  0  0  0  0
    1.0988   -2.6987    1.8551 H   0  0  0  0  0  0  0  0  0  0  0  0
    0.8297   -2.2912    4.2854 H   0  0  0  0  0  0  0  0  0  0  0  0
  1  2  2  0
  2  3  1  0
  3  4  2  0
  4  5  1  0
  5  6  1  0
  6  7  1  0
  7  8  1  0
  8  9  2  0
  9 10  1  0
 10 11  2  0
 11 12  1  0
  6 13  1  0
 13 14  1  0
 14 15  2  0
 15 16  1  0
 16 17  2  0
 17 18  1  0
 18 19  2  0
 13 20  1  0
 20 21  2  0
 21 22  1  0
 22 23  2  0
 23 24  1  0
 24 25  1  0
 25 26  1  0
 26 27  1  0
 27 28  1  0
 28 29  1  0
  4 30  1  0
 30 31  2  0
 31  1  1  0
 12  8  1  0
 19 14  1  0
 24 20  1  0
 29 25  1  0
  1 32  1  0
  2 33  1  0
  3 34  1  0
  5 35  1  0
  5 36  1  0
  7 37  1  0
  7 38  1  0
  9 39  1  0
 10 40  1  0
 11 41  1  0
 13 42  1  0
 15 43  1  0
 16 44  1  0
 18 45  1  0
 19 46  1  0
 25 47  1  0
 26 48  1  0
 26 49  1  0
 27 50  1  0
 27 51  1  0
 28 52  1  0
 28 53  1  0
 29 54  1  0
 29 55  1  0
 30 56  1  0
 31 57  1  0
M  END
$$$$
