
     RDKit          3D

 45 47  0  0  0  0  0  0  0  0999 V2000
   -3.0993    0.7069   -2.3549 O   0  0  0  0  0  0  0  0  0  0  0  0
   -2.1221    0.1486   -1.8608 C   0  0  0  0  0  0  0  0  0  0  0  0
   -1.1751   -0.7312   -2.6941 C   0  0  0  0  0  0  0  0  0  0  0  0
   -0.5512   -1.7213   -1.8728 O   0  0  0  0  0  0  0  0  0  0  0  0
    0.3392   -2.5159   -2.5515 C   0  0  0  0  0  0  0  0  0  0  0  0
    0.5483   -2.4614   -3.7595 O   0  0  0  0  0  0  0  0  0  0  0  0
    1.0552   -3.4382   -1.5907 C   0  0  0  0  0  0  0  0  0  0  0  0
    2.8497   -3.0787   -1.5611 S   0  0  0  0  0  0  0  0  0  0  0  0
    2.7754   -1.3529   -1.0910 C   0  0  0  0  0  0  0  0  0  0  0  0
    2.7679   -0.3652   -2.0784 C   0  0  0  0  0  0  0  0  0  0  0  0
    2.6497    0.9793   -1.7268 C   0  0  0  0  0  0  0  0  0  0  0  0
    2.5499    1.3616   -0.3776 C   0  0  0  0  0  0  0  0  0  0  0  0
    2.4284    2.7154   -0.0063 C   0  0  0  0  0  0  0  0  0  0  0  0
    2.3363    3.0829    1.3388 C   0  0  0  0  0  0  0  0  0  0  0  0
    2.3620    2.1010    2.3274 C   0  0  0  0  0  0  0  0  0  0  0  0
    2.4787    0.7541    1.9773 C   0  0  0  0  0  0  0  0  0  0  0  0
    2.5729    0.3671    0.6287 C   0  0  0  0  0  0  0  0  0  0  0  0
    2.6886   -0.9860    0.2577 C   0  0  0  0  0  0  0  0  0  0  0  0
   -1.7573    0.2832   -0.5315 N   0  0  0  0  0  0  0  0  0  0  0  0
   -2.6156    0.9593    0.4278 C   0  0  0  0  0  0  0  0  0  0  0  0
   -1.8649    1.3158    1.7090 C   0  0  0  0  0  0  0  0  0  0  0  0
   -1.9414    0.0707    2.5937 C   0  0  0  0  0  0  0  0  0  0  0  0
   -3.0348   -0.8137    1.9905 C   0  0  0  0  0  0  0  0  0  0  0  0
   -3.7243    0.0367    0.9278 C   0  0  0  0  0  0  0  0  0  0  0  0
   -1.7710   -1.2374   -3.4729 H   0  0  0  0  0  0  0  0  0  0  0  0
   -0.4119   -0.0727   -3.1438 H   0  0  0  0  0  0  0  0  0  0  0  0
    0.6459   -3.3226   -0.5729 H   0  0  0  0  0  0  0  0  0  0  0  0
    0.8791   -4.4764   -1.9050 H   0  0  0  0  0  0  0  0  0  0  0  0
    2.8390   -0.6405   -3.1370 H   0  0  0  0  0  0  0  0  0  0  0  0
    2.6380    1.7267   -2.5174 H   0  0  0  0  0  0  0  0  0  0  0  0
    2.4086    3.4966   -0.7653 H   0  0  0  0  0  0  0  0  0  0  0  0
    2.2456    4.1384    1.6144 H   0  0  0  0  0  0  0  0  0  0  0  0
    2.2963    2.3852    3.3728 H   0  0  0  0  0  0  0  0  0  0  0  0
    2.4991    0.0055    2.7674 H   0  0  0  0  0  0  0  0  0  0  0  0
    2.7117   -1.7585    1.0244 H   0  0  0  0  0  0  0  0  0  0  0  0
   -1.0449   -0.3478   -0.1830 H   0  0  0  0  0  0  0  0  0  0  0  0
   -3.0337    1.8524   -0.0530 H   0  0  0  0  0  0  0  0  0  0  0  0
   -2.3865    2.1371    2.2165 H   0  0  0  0  0  0  0  0  0  0  0  0
   -0.8328    1.6323    1.5377 H   0  0  0  0  0  0  0  0  0  0  0  0
   -2.2016    0.3459    3.6220 H   0  0  0  0  0  0  0  0  0  0  0  0
   -0.9819   -0.4658    2.6065 H   0  0  0  0  0  0  0  0  0  0  0  0
   -3.7380   -1.1654    2.7473 H   0  0  0  0  0  0  0  0  0  0  0  0
   -2.5842   -1.6968    1.5314 H   0  0  0  0  0  0  0  0  0  0  0  0
   -4.5310    0.6270    1.3862 H   0  0  0  0  0  0  0  0  0  0  0  0
   -4.1622   -0.5812    0.1394 H   0  0  0  0  0  0  0  0  0  0  0  0
  1  2  2  0
  2  3  1  0
  3  4  1  0
  4  5  1  0
  5  6  2  0
  5  7  1  0
  7  8  1  0
  8  9  1  0
  9 10  2  0
 10 11  1  0
 11 12  2  0
 12 13  1  0
 13 14  2  0
 14 15  1  0
 15 16  2  0
 16 17  1  0
 17 18  2  0
  2 19  1  0
 19 20  1  0
 20 21  1  0
 21 22  1  0
 22 23  1  0
 23 24  1  0
 18  9  1  0
 24 20  1  0
 17 12  1  0
  3 25  1  0
  3 26  1  0
  7 27  1  0
  7 28  1  0
 10 29  1  0
 11 30  1  0
 13 31  1  0
 14 32  1  0
 15 33  1  0
 16 34  1  0
 18 35  1  0
 19 36  1  0
 20 37  1  0
 21 38  1  0
 21 39  1  0
 22 40  1  0
 22 41  1  0
 23 42  1  0
 23 43  1  0
 24 44  1  0
 24 45  1  0
M  END
$$$$
