
     RDKit          3D

 68 71  0  0  0  0  0  0  0  0999 V2000
    8.4972   -0.9529   -3.4219 C   0  0  0  0  0  0  0  0  0  0  0  0
    8.0831   -1.6797   -2.2715 O   0  0  0  0  0  0  0  0  0  0  0  0
    6.7720   -1.5608   -1.9040 C   0  0  0  0  0  0  0  0  0  0  0  0
    5.8095   -0.7738   -2.5353 C   0  0  0  0  0  0  0  0  0  0  0  0
    4.4965   -0.7382   -2.0484 C   0  0  0  0  0  0  0  0  0  0  0  0
    4.1310   -1.4978   -0.9313 C   0  0  0  0  0  0  0  0  0  0  0  0
    2.7740   -1.4497   -0.3739 C   0  0  0  0  0  0  0  0  0  0  0  0
    1.6338   -1.7435   -1.0305 C   0  0  0  0  0  0  0  0  0  0  0  0
    1.5790   -2.2117   -2.3719 C   0  0  0  0  0  0  0  0  0  0  0  0
    1.5554   -2.5480   -3.4831 N   0  0  0  0  0  0  0  0  0  0  0  0
    0.3435   -1.6411   -0.2885 C   0  0  0  0  0  0  0  0  0  0  0  0
   -0.4702   -2.5554   -0.3321 O   0  0  0  0  0  0  0  0  0  0  0  0
    0.1847   -0.4352    0.3548 N   0  0  0  0  0  0  0  0  0  0  0  0
   -0.9041    0.0037    1.1346 C   0  0  0  0  0  0  0  0  0  0  0  0
   -1.9683   -0.8077    1.5195 C   0  0  0  0  0  0  0  0  0  0  0  0
   -3.0237   -0.2481    2.2451 C   0  0  0  0  0  0  0  0  0  0  0  0
   -4.3766   -1.2875    2.7617 S   0  0  0  0  0  6  0  0  0  0  0  0
   -3.8316   -2.5967    3.0500 O   0  0  0  0  0  0  0  0  0  0  0  0
   -5.1162   -0.5551    3.7699 O   0  0  0  0  0  0  0  0  0  0  0  0
   -5.3530   -1.3901    1.3690 N   0  0  0  0  0  0  0  0  0  0  0  0
   -4.8247   -2.1974    0.2407 C   0  0  0  0  0  0  0  0  0  0  0  0
   -5.9734   -2.5649   -0.6960 C   0  0  0  0  0  0  0  0  0  0  0  0
   -6.6995   -1.3172   -1.1901 C   0  0  0  0  0  0  0  0  0  0  0  0
   -7.1598   -0.4611   -0.0132 C   0  0  0  0  0  0  0  0  0  0  0  0
   -6.0011   -0.1324    0.9246 C   0  0  0  0  0  0  0  0  0  0  0  0
   -3.0036    1.0989    2.6224 C   0  0  0  0  0  0  0  0  0  0  0  0
   -1.9229    1.9038    2.2580 C   0  0  0  0  0  0  0  0  0  0  0  0
   -0.8616    1.3693    1.5155 C   0  0  0  0  0  0  0  0  0  0  0  0
    0.2751    2.1332    1.1403 N   0  0  0  0  0  0  0  0  0  0  0  0
   -0.0453    3.3776    0.4319 C   0  0  0  0  0  0  0  0  0  0  0  0
    1.2230    3.8646   -0.2752 C   0  0  0  0  0  0  0  0  0  0  0  0
    2.4922    3.6546    0.5592 C   0  0  0  0  0  0  0  0  0  0  0  0
    2.1735    3.4722    2.0389 C   0  0  0  0  0  0  0  0  0  0  0  0
    1.2095    2.3027    2.2758 C   0  0  0  0  0  0  0  0  0  0  0  0
    5.1000   -2.2786   -0.2951 C   0  0  0  0  0  0  0  0  0  0  0  0
    6.4090   -2.3104   -0.7833 C   0  0  0  0  0  0  0  0  0  0  0  0
    9.5590   -1.1589   -3.5837 H   0  0  0  0  0  0  0  0  0  0  0  0
    7.9536   -1.2809   -4.3144 H   0  0  0  0  0  0  0  0  0  0  0  0
    8.3886    0.1255   -3.2666 H   0  0  0  0  0  0  0  0  0  0  0  0
    6.0449   -0.1734   -3.4076 H   0  0  0  0  0  0  0  0  0  0  0  0
    3.7716   -0.1052   -2.5558 H   0  0  0  0  0  0  0  0  0  0  0  0
    2.7421   -1.1755    0.6802 H   0  0  0  0  0  0  0  0  0  0  0  0
    0.8558    0.3149    0.1969 H   0  0  0  0  0  0  0  0  0  0  0  0
   -1.9909   -1.8650    1.2744 H   0  0  0  0  0  0  0  0  0  0  0  0
   -4.3685   -3.1222    0.6076 H   0  0  0  0  0  0  0  0  0  0  0  0
   -4.0661   -1.6290   -0.3075 H   0  0  0  0  0  0  0  0  0  0  0  0
   -5.5883   -3.1325   -1.5499 H   0  0  0  0  0  0  0  0  0  0  0  0
   -6.6849   -3.2126   -0.1696 H   0  0  0  0  0  0  0  0  0  0  0  0
   -7.5617   -1.6043   -1.8024 H   0  0  0  0  0  0  0  0  0  0  0  0
   -6.0290   -0.7314   -1.8299 H   0  0  0  0  0  0  0  0  0  0  0  0
   -7.9385   -0.9993    0.5416 H   0  0  0  0  0  0  0  0  0  0  0  0
   -7.6108    0.4663   -0.3839 H   0  0  0  0  0  0  0  0  0  0  0  0
   -5.2707    0.5054    0.4137 H   0  0  0  0  0  0  0  0  0  0  0  0
   -6.3984    0.4203    1.7821 H   0  0  0  0  0  0  0  0  0  0  0  0
   -3.8133    1.5224    3.2133 H   0  0  0  0  0  0  0  0  0  0  0  0
   -1.9087    2.9424    2.5761 H   0  0  0  0  0  0  0  0  0  0  0  0
   -0.4040    4.1455    1.1293 H   0  0  0  0  0  0  0  0  0  0  0  0
   -0.8292    3.2207   -0.3187 H   0  0  0  0  0  0  0  0  0  0  0  0
    1.1072    4.9262   -0.5247 H   0  0  0  0  0  0  0  0  0  0  0  0
    1.3438    3.3353   -1.2294 H   0  0  0  0  0  0  0  0  0  0  0  0
    3.0212    2.7621    0.1976 H   0  0  0  0  0  0  0  0  0  0  0  0
    3.1749    4.4999    0.4167 H   0  0  0  0  0  0  0  0  0  0  0  0
    1.7231    4.3976    2.4221 H   0  0  0  0  0  0  0  0  0  0  0  0
    3.0937    3.3142    2.6120 H   0  0  0  0  0  0  0  0  0  0  0  0
    0.6837    2.4721    3.2247 H   0  0  0  0  0  0  0  0  0  0  0  0
    1.7894    1.3773    2.3824 H   0  0  0  0  0  0  0  0  0  0  0  0
    4.8505   -2.8758    0.5791 H   0  0  0  0  0  0  0  0  0  0  0  0
    7.1535   -2.9274   -0.2856 H   0  0  0  0  0  0  0  0  0  0  0  0
  1  2  1  0
  2  3  1  0
  3  4  2  0
  4  5  1  0
  5  6  2  0
  6  7  1  0
  7  8  2  3
  8  9  1  0
  9 10  3  0
  8 11  1  0
 11 12  2  0
 11 13  1  0
 13 14  1  0
 14 15  2  0
 15 16  1  0
 16 17  1  0
 17 18  2  0
 17 19  2  0
 17 20  1  0
 20 21  1  0
 21 22  1  0
 22 23  1  0
 23 24  1  0
 24 25  1  0
 16 26  2  0
 26 27  1  0
 27 28  2  0
 28 29  1  0
 29 30  1  0
 30 31  1  0
 31 32  1  0
 32 33  1  0
 33 34  1  0
  6 35  1  0
 35 36  2  0
 36  3  1  0
 28 14  1  0
 34 29  1  0
 25 20  1  0
  1 37  1  0
  1 38  1  0
  1 39  1  0
  4 40  1  0
  5 41  1  0
  7 42  1  0
 13 43  1  0
 15 44  1  0
 21 45  1  0
 21 46  1  0
 22 47  1  0
 22 48  1  0
 23 49  1  0
 23 50  1  0
 24 51  1  0
 24 52  1  0
 25 53  1  0
 25 54  1  0
 26 55  1  0
 27 56  1  0
 30 57  1  0
 30 58  1  0
 31 59  1  0
 31 60  1  0
 32 61  1  0
 32 62  1  0
 33 63  1  0
 33 64  1  0
 34 65  1  0
 34 66  1  0
 35 67  1  0
 36 68  1  0
M  END
$$$$
