
     RDKit          3D

 51 53  0  0  0  0  0  0  0  0999 V2000
   -6.9798   -1.2169    1.8783 C   0  0  0  0  0  0  0  0  0  0  0  0
   -5.9617   -1.1010    0.7768 C   0  0  0  0  0  0  0  0  0  0  0  0
   -4.8430   -1.9504    0.7869 C   0  0  0  0  0  0  0  0  0  0  0  0
   -3.8650   -1.8688   -0.2090 C   0  0  0  0  0  0  0  0  0  0  0  0
   -3.9911   -0.9349   -1.2361 C   0  0  0  0  0  0  0  0  0  0  0  0
   -3.0984   -0.7165   -2.2491 O   0  0  0  0  0  0  0  0  0  0  0  0
   -2.0219   -1.6373   -2.4297 C   0  0  0  0  0  0  0  0  0  0  0  0
   -0.8438   -1.1991   -1.6437 C   0  0  0  0  0  0  0  0  0  0  0  0
   -0.6295   -0.3367   -0.5966 C   0  0  0  0  0  0  0  0  0  0  0  0
    0.7568   -0.4366   -0.3092 C   0  0  0  0  0  0  0  0  0  0  0  0
    1.4654    0.3209    0.7337 C   0  0  0  0  0  0  0  0  0  0  0  0
    0.9514    1.3518    1.1761 O   0  0  0  0  0  0  0  0  0  0  0  0
    2.7039   -0.1089    1.2267 N   0  0  0  0  0  0  0  0  0  0  0  0
    3.3213   -1.4065    0.9784 C   0  0  0  0  0  0  0  0  0  0  0  0
    3.4599    0.8216    2.0705 C   0  0  0  0  0  0  0  0  0  0  0  0
    4.0269    2.0343    1.3195 C   0  0  0  0  0  0  0  0  0  0  0  0
    5.1441    1.6934    0.3645 C   0  0  0  0  0  0  0  0  0  0  0  0
    6.4781    1.6803    0.8025 C   0  0  0  0  0  0  0  0  0  0  0  0
    7.5088    1.3728   -0.0835 C   0  0  0  0  0  0  0  0  0  0  0  0
    7.2153    1.0673   -1.4120 C   0  0  0  0  0  0  0  0  0  0  0  0
    5.8967    1.0746   -1.8568 C   0  0  0  0  0  0  0  0  0  0  0  0
    4.8669    1.3880   -0.9740 C   0  0  0  0  0  0  0  0  0  0  0  0
    1.3434   -1.2713   -1.1833 N   0  0  0  0  0  0  0  0  0  0  0  0
    0.3422   -1.7610   -1.9932 O   0  0  0  0  0  0  0  0  0  0  0  0
   -5.1034   -0.0904   -1.2505 C   0  0  0  0  0  0  0  0  0  0  0  0
   -6.1018   -0.1679   -0.2642 C   0  0  0  0  0  0  0  0  0  0  0  0
   -7.2536    0.7999   -0.3179 C   0  0  0  0  0  0  0  0  0  0  0  0
   -7.9469   -1.5325    1.4692 H   0  0  0  0  0  0  0  0  0  0  0  0
   -7.0975   -0.2555    2.3938 H   0  0  0  0  0  0  0  0  0  0  0  0
   -6.6788   -1.9550    2.6280 H   0  0  0  0  0  0  0  0  0  0  0  0
   -4.7167   -2.6809    1.5841 H   0  0  0  0  0  0  0  0  0  0  0  0
   -3.0162   -2.5367   -0.1378 H   0  0  0  0  0  0  0  0  0  0  0  0
   -2.3129   -2.6763   -2.2178 H   0  0  0  0  0  0  0  0  0  0  0  0
   -1.7669   -1.6051   -3.4934 H   0  0  0  0  0  0  0  0  0  0  0  0
   -1.3586    0.2782   -0.0908 H   0  0  0  0  0  0  0  0  0  0  0  0
    3.6737   -1.8149    1.9261 H   0  0  0  0  0  0  0  0  0  0  0  0
    4.1691   -1.2780    0.2973 H   0  0  0  0  0  0  0  0  0  0  0  0
    2.6261   -2.1378    0.5731 H   0  0  0  0  0  0  0  0  0  0  0  0
    2.7828    1.1864    2.8476 H   0  0  0  0  0  0  0  0  0  0  0  0
    4.2592    0.2798    2.5827 H   0  0  0  0  0  0  0  0  0  0  0  0
    4.4071    2.7565    2.0551 H   0  0  0  0  0  0  0  0  0  0  0  0
    3.2381    2.5633    0.7736 H   0  0  0  0  0  0  0  0  0  0  0  0
    6.7242    1.9189    1.8349 H   0  0  0  0  0  0  0  0  0  0  0  0
    8.5413    1.3760    0.2610 H   0  0  0  0  0  0  0  0  0  0  0  0
    8.0131    0.8219   -2.0978 H   0  0  0  0  0  0  0  0  0  0  0  0
    5.6670    0.8384   -2.8926 H   0  0  0  0  0  0  0  0  0  0  0  0
    3.8462    1.3925   -1.3374 H   0  0  0  0  0  0  0  0  0  0  0  0
   -5.1906    0.6423   -2.0540 H   0  0  0  0  0  0  0  0  0  0  0  0
   -7.0531    1.6494    0.3433 H   0  0  0  0  0  0  0  0  0  0  0  0
   -7.4061    1.1777   -1.3359 H   0  0  0  0  0  0  0  0  0  0  0  0
   -8.1918    0.3245   -0.0172 H   0  0  0  0  0  0  0  0  0  0  0  0
  1  2  1  0
  2  3  2  0
  3  4  1  0
  4  5  2  0
  5  6  1  0
  6  7  1  0
  7  8  1  0
  8  9  2  0
  9 10  1  0
 10 11  1  0
 11 12  2  0
 11 13  1  0
 13 14  1  0
 13 15  1  0
 15 16  1  0
 16 17  1  0
 17 18  2  0
 18 19  1  0
 19 20  2  0
 20 21  1  0
 21 22  2  0
 10 23  2  0
 23 24  1  0
  5 25  1  0
 25 26  2  0
 26 27  1  0
 26  2  1  0
 24  8  1  0
 22 17  1  0
  1 28  1  0
  1 29  1  0
  1 30  1  0
  3 31  1  0
  4 32  1  0
  7 33  1  0
  7 34  1  0
  9 35  1  0
 14 36  1  0
 14 37  1  0
 14 38  1  0
 15 39  1  0
 15 40  1  0
 16 41  1  0
 16 42  1  0
 18 43  1  0
 19 44  1  0
 20 45  1  0
 21 46  1  0
 22 47  1  0
 25 48  1  0
 27 49  1  0
 27 50  1  0
 27 51  1  0
M  END
$$$$
