
     RDKit          3D

 67 71  0  0  0  0  0  0  0  0999 V2000
    0.1233   -1.9418    1.2219 C   0  0  0  0  0  0  0  0  0  0  0  0
   -0.0717   -0.8601    0.2558 N   0  0  0  0  0  0  0  0  0  0  0  0
    1.1481   -0.0540    0.1397 C   0  0  0  0  0  0  0  0  0  0  0  0
    1.0192    1.0383   -0.8790 C   0  0  0  0  0  0  0  0  0  0  0  0
    2.0162    1.5127   -1.6528 C   0  0  0  0  0  0  0  0  0  0  0  0
    3.4166    1.0827   -1.6190 C   0  0  0  0  0  0  0  0  0  0  0  0
    4.2014    1.2180   -0.4747 C   0  0  0  0  0  0  0  0  0  0  0  0
    5.5553    0.8517   -0.4932 C   0  0  0  0  0  0  0  0  0  0  0  0
    6.1767    0.3608   -1.6521 C   0  0  0  0  0  0  0  0  0  0  0  0
    7.5194    0.0202   -1.6865 N   0  0  0  0  0  0  0  0  0  0  0  0
    8.2950    0.1582   -2.9347 C   0  0  0  0  0  0  0  0  0  0  0  0
    9.6971    0.7168   -2.6351 C   0  0  0  0  0  0  0  0  0  0  0  0
   10.4663   -0.0924   -1.7350 O   0  0  0  0  0  0  0  0  0  0  0  0
    9.6601   -0.7971   -0.7804 C   0  0  0  0  0  0  0  0  0  0  0  0
    8.3214   -0.1082   -0.4601 C   0  0  0  0  0  0  0  0  0  0  0  0
    5.3586    0.2171   -2.7849 C   0  0  0  0  0  0  0  0  0  0  0  0
    4.0044    0.5771   -2.7766 C   0  0  0  0  0  0  0  0  0  0  0  0
   -0.3290    1.6528   -1.0901 C   0  0  0  0  0  0  0  0  0  0  0  0
   -0.4796    2.6295   -1.8229 O   0  0  0  0  0  0  0  0  0  0  0  0
   -1.4835    1.0452   -0.3614 C   0  0  0  0  0  0  0  0  0  0  0  0
   -2.7094    1.4904   -0.7005 C   0  0  0  0  0  0  0  0  0  0  0  0
   -3.9535    1.0368   -0.0805 C   0  0  0  0  0  0  0  0  0  0  0  0
   -4.4898    1.7319    1.0014 C   0  0  0  0  0  0  0  0  0  0  0  0
   -5.6754    1.2905    1.5998 C   0  0  0  0  0  0  0  0  0  0  0  0
   -6.3547    0.1457    1.1481 C   0  0  0  0  0  0  0  0  0  0  0  0
   -7.5458   -0.2442    1.7794 N   0  0  0  0  0  0  0  0  0  0  0  0
   -8.4029   -1.2410    1.1016 C   0  0  0  0  0  0  0  0  0  0  0  0
   -9.7478   -1.3609    1.8355 C   0  0  0  0  0  0  0  0  0  0  0  0
   -9.5617   -1.7119    3.2161 O   0  0  0  0  0  0  0  0  0  0  0  0
   -8.7792   -0.7033    3.8753 C   0  0  0  0  0  0  0  0  0  0  0  0
   -7.3949   -0.5414    3.2254 C   0  0  0  0  0  0  0  0  0  0  0  0
   -5.8045   -0.5254    0.0459 C   0  0  0  0  0  0  0  0  0  0  0  0
   -4.6169   -0.0918   -0.5597 C   0  0  0  0  0  0  0  0  0  0  0  0
   -1.1843    0.0003    0.6697 C   0  0  0  0  0  0  0  0  0  0  0  0
   -0.7767   -2.5623    1.2911 H   0  0  0  0  0  0  0  0  0  0  0  0
    0.9345   -2.6040    0.8989 H   0  0  0  0  0  0  0  0  0  0  0  0
    0.3615   -1.5663    2.2240 H   0  0  0  0  0  0  0  0  0  0  0  0
    1.4124    0.3934    1.1090 H   0  0  0  0  0  0  0  0  0  0  0  0
    1.9705   -0.7234   -0.1425 H   0  0  0  0  0  0  0  0  0  0  0  0
    1.8155    2.2873   -2.3936 H   0  0  0  0  0  0  0  0  0  0  0  0
    3.7809    1.6314    0.4382 H   0  0  0  0  0  0  0  0  0  0  0  0
    6.1232    0.9946    0.4217 H   0  0  0  0  0  0  0  0  0  0  0  0
    8.3831   -0.8312   -3.3996 H   0  0  0  0  0  0  0  0  0  0  0  0
    7.8113    0.8367   -3.6468 H   0  0  0  0  0  0  0  0  0  0  0  0
    9.6202    1.7196   -2.1980 H   0  0  0  0  0  0  0  0  0  0  0  0
   10.2702    0.8107   -3.5628 H   0  0  0  0  0  0  0  0  0  0  0  0
   10.2546   -0.9075    0.1318 H   0  0  0  0  0  0  0  0  0  0  0  0
    9.4820   -1.8027   -1.1785 H   0  0  0  0  0  0  0  0  0  0  0  0
    7.7926   -0.7180    0.2830 H   0  0  0  0  0  0  0  0  0  0  0  0
    8.5096    0.8873   -0.0389 H   0  0  0  0  0  0  0  0  0  0  0  0
    5.7620   -0.1976   -3.7054 H   0  0  0  0  0  0  0  0  0  0  0  0
    3.4189    0.4556   -3.6849 H   0  0  0  0  0  0  0  0  0  0  0  0
   -2.8411    2.2499   -1.4695 H   0  0  0  0  0  0  0  0  0  0  0  0
   -4.0036    2.6276    1.3805 H   0  0  0  0  0  0  0  0  0  0  0  0
   -6.0877    1.8785    2.4165 H   0  0  0  0  0  0  0  0  0  0  0  0
   -8.5992   -0.9437    0.0650 H   0  0  0  0  0  0  0  0  0  0  0  0
   -7.9066   -2.2197    1.1081 H   0  0  0  0  0  0  0  0  0  0  0  0
  -10.3143   -0.4238    1.7783 H   0  0  0  0  0  0  0  0  0  0  0  0
  -10.3541   -2.1466    1.3738 H   0  0  0  0  0  0  0  0  0  0  0  0
   -9.3324    0.2439    3.8598 H   0  0  0  0  0  0  0  0  0  0  0  0
   -8.6646   -1.0043    4.9217 H   0  0  0  0  0  0  0  0  0  0  0  0
   -6.8593    0.2503    3.7597 H   0  0  0  0  0  0  0  0  0  0  0  0
   -6.8284   -1.4748    3.3394 H   0  0  0  0  0  0  0  0  0  0  0  0
   -6.2755   -1.4136   -0.3639 H   0  0  0  0  0  0  0  0  0  0  0  0
   -4.2188   -0.6451   -1.4075 H   0  0  0  0  0  0  0  0  0  0  0  0
   -2.0654   -0.6338    0.8253 H   0  0  0  0  0  0  0  0  0  0  0  0
   -0.9698    0.4903    1.6296 H   0  0  0  0  0  0  0  0  0  0  0  0
  1  2  1  0
  2  3  1  0
  3  4  1  0
  4  5  2  3
  5  6  1  0
  6  7  2  0
  7  8  1  0
  8  9  2  0
  9 10  1  0
 10 11  1  0
 11 12  1  0
 12 13  1  0
 13 14  1  0
 14 15  1  0
  9 16  1  0
 16 17  2  0
  4 18  1  0
 18 19  2  0
 18 20  1  0
 20 21  2  3
 21 22  1  0
 22 23  2  0
 23 24  1  0
 24 25  2  0
 25 26  1  0
 26 27  1  0
 27 28  1  0
 28 29  1  0
 29 30  1  0
 30 31  1  0
 25 32  1  0
 32 33  2  0
 20 34  1  0
 34  2  1  0
 17  6  1  0
 33 22  1  0
 15 10  1  0
 31 26  1  0
  1 35  1  0
  1 36  1  0
  1 37  1  0
  3 38  1  0
  3 39  1  0
  5 40  1  0
  7 41  1  0
  8 42  1  0
 11 43  1  0
 11 44  1  0
 12 45  1  0
 12 46  1  0
 14 47  1  0
 14 48  1  0
 15 49  1  0
 15 50  1  0
 16 51  1  0
 17 52  1  0
 21 53  1  0
 23 54  1  0
 24 55  1  0
 27 56  1  0
 27 57  1  0
 28 58  1  0
 28 59  1  0
 30 60  1  0
 30 61  1  0
 31 62  1  0
 31 63  1  0
 32 64  1  0
 33 65  1  0
 34 66  1  0
 34 67  1  0
M  END
$$$$
