
     RDKit          3D

 42 44  0  0  0  0  0  0  0  0999 V2000
   -2.0585    4.7284    1.2808 C   0  0  0  0  0  0  0  0  0  0  0  0
   -2.4268    4.7018   -0.0912 O   0  0  0  0  0  0  0  0  0  0  0  0
   -1.9893    3.6395   -0.8364 C   0  0  0  0  0  0  0  0  0  0  0  0
   -0.9923    2.7432   -0.4424 C   0  0  0  0  0  0  0  0  0  0  0  0
   -0.6178    1.6783   -1.2775 C   0  0  0  0  0  0  0  0  0  0  0  0
    0.4394    0.7309   -0.8906 C   0  0  0  0  0  0  0  0  0  0  0  0
    0.4637   -0.0323    0.2213 C   0  0  0  0  0  0  0  0  0  0  0  0
   -0.5422    0.0066    1.2246 C   0  0  0  0  0  0  0  0  0  0  0  0
   -1.3669    0.0494    2.0402 N   0  0  0  0  0  0  0  0  0  0  0  0
    1.6623   -0.9062    0.3939 C   0  0  0  0  0  0  0  0  0  0  0  0
    2.7689   -0.5296    0.0131 O   0  0  0  0  0  0  0  0  0  0  0  0
    1.4498   -2.2104    1.0214 C   0  0  0  0  0  0  0  0  0  0  0  0
    0.2831   -2.9586    1.0508 C   0  0  0  0  0  0  0  0  0  0  0  0
    0.5231   -4.1184    1.7410 N   0  0  0  0  0  0  0  0  0  0  0  0
    1.8375   -4.1745    2.1332 C   0  0  0  0  0  0  0  0  0  0  0  0
    2.5237   -5.1700    2.8394 C   0  0  0  0  0  0  0  0  0  0  0  0
    3.8808   -4.9624    3.1005 C   0  0  0  0  0  0  0  0  0  0  0  0
    4.5232   -3.8047    2.6715 C   0  0  0  0  0  0  0  0  0  0  0  0
    3.8207   -2.8193    1.9685 C   0  0  0  0  0  0  0  0  0  0  0  0
    2.4485   -3.0009    1.6900 C   0  0  0  0  0  0  0  0  0  0  0  0
   -1.2217    1.5311   -2.5357 C   0  0  0  0  0  0  0  0  0  0  0  0
   -2.2070    2.4264   -2.9498 C   0  0  0  0  0  0  0  0  0  0  0  0
   -2.8746    2.3941   -4.1486 O   0  0  0  0  0  0  0  0  0  0  0  0
   -2.5116    1.3629   -5.0594 C   0  0  0  0  0  0  0  0  0  0  0  0
   -2.5807    3.4715   -2.0931 C   0  0  0  0  0  0  0  0  0  0  0  0
   -3.5555    4.3478   -2.5074 O   0  0  0  0  0  0  0  0  0  0  0  0
   -2.3415    3.8009    1.7901 H   0  0  0  0  0  0  0  0  0  0  0  0
   -2.6027    5.5494    1.7573 H   0  0  0  0  0  0  0  0  0  0  0  0
   -0.9884    4.9300    1.3931 H   0  0  0  0  0  0  0  0  0  0  0  0
   -0.4858    2.8716    0.5090 H   0  0  0  0  0  0  0  0  0  0  0  0
    1.2513    0.6560   -1.6155 H   0  0  0  0  0  0  0  0  0  0  0  0
   -0.7048   -2.7799    0.6463 H   0  0  0  0  0  0  0  0  0  0  0  0
   -0.1603   -4.8401    1.9268 H   0  0  0  0  0  0  0  0  0  0  0  0
    2.0270   -6.0747    3.1750 H   0  0  0  0  0  0  0  0  0  0  0  0
    4.4426   -5.7170    3.6463 H   0  0  0  0  0  0  0  0  0  0  0  0
    5.5801   -3.6613    2.8825 H   0  0  0  0  0  0  0  0  0  0  0  0
    4.3359   -1.9207    1.6377 H   0  0  0  0  0  0  0  0  0  0  0  0
   -0.9078    0.7112   -3.1740 H   0  0  0  0  0  0  0  0  0  0  0  0
   -3.1234    1.4815   -5.9589 H   0  0  0  0  0  0  0  0  0  0  0  0
   -2.7239    0.3743   -4.6397 H   0  0  0  0  0  0  0  0  0  0  0  0
   -1.4617    1.4518   -5.3565 H   0  0  0  0  0  0  0  0  0  0  0  0
   -3.8164    4.0426   -3.3961 H   0  0  0  0  0  0  0  0  0  0  0  0
  1  2  1  0
  2  3  1  0
  3  4  2  0
  4  5  1  0
  5  6  1  0
  6  7  2  3
  7  8  1  0
  8  9  3  0
  7 10  1  0
 10 11  2  0
 10 12  1  0
 12 13  2  0
 13 14  1  0
 14 15  1  0
 15 16  2  0
 16 17  1  0
 17 18  2  0
 18 19  1  0
 19 20  2  0
  5 21  2  0
 21 22  1  0
 22 23  1  0
 23 24  1  0
 22 25  2  0
 25 26  1  0
 25  3  1  0
 20 12  1  0
 20 15  1  0
  1 27  1  0
  1 28  1  0
  1 29  1  0
  4 30  1  0
  6 31  1  0
 13 32  1  0
 14 33  1  0
 16 34  1  0
 17 35  1  0
 18 36  1  0
 19 37  1  0
 21 38  1  0
 24 39  1  0
 24 40  1  0
 24 41  1  0
 26 42  1  0
M  END
$$$$
