
     RDKit          3D

 49 51  0  0  0  0  0  0  0  0999 V2000
   -4.5347    0.9154    2.7277 C   0  0  0  0  0  0  0  0  0  0  0  0
   -4.0364    1.0748    1.3217 C   0  0  0  0  0  0  0  0  0  0  0  0
   -4.9145    1.4451    0.2981 C   0  0  0  0  0  0  0  0  0  0  0  0
   -4.4631    1.5583   -1.0218 C   0  0  0  0  0  0  0  0  0  0  0  0
   -5.3988    1.9965   -2.1104 C   0  0  0  0  0  0  0  0  0  0  0  0
   -3.1123    1.3113   -1.3122 C   0  0  0  0  0  0  0  0  0  0  0  0
   -2.2248    0.9260   -0.3068 C   0  0  0  0  0  0  0  0  0  0  0  0
   -0.8633    0.6448   -0.5240 N   0  0  0  0  0  0  0  0  0  0  0  0
   -0.1491    0.6999   -1.7136 C   0  0  0  0  0  0  0  0  0  0  0  0
   -0.5989    1.0242   -2.8098 O   0  0  0  0  0  0  0  0  0  0  0  0
    1.3342    0.2884   -1.5358 C   0  0  0  0  0  0  0  0  0  0  0  0
    1.6266    0.0495   -0.1448 O   0  0  0  0  0  0  0  0  0  0  0  0
    2.8194    0.5169    0.2932 C   0  0  0  0  0  0  0  0  0  0  0  0
    3.6211    1.1719   -0.3510 O   0  0  0  0  0  0  0  0  0  0  0  0
    3.0144    0.1555    1.7219 C   0  0  0  0  0  0  0  0  0  0  0  0
    4.0129    0.8254    2.4442 C   0  0  0  0  0  0  0  0  0  0  0  0
    4.2328    0.5243    3.7908 C   0  0  0  0  0  0  0  0  0  0  0  0
    3.4551   -0.4502    4.4077 C   0  0  0  0  0  0  0  0  0  0  0  0
    3.6333   -0.7770    5.7185 O   0  0  0  0  0  0  0  0  0  0  0  0
    2.4675   -1.1295    3.7023 C   0  0  0  0  0  0  0  0  0  0  0  0
    2.2456   -0.8308    2.3562 C   0  0  0  0  0  0  0  0  0  0  0  0
    1.6842   -0.9787   -2.2947 C   0  0  0  0  0  0  0  0  0  0  0  0
    2.8777   -1.0387   -3.0318 C   0  0  0  0  0  0  0  0  0  0  0  0
    3.2381   -2.2047   -3.7088 C   0  0  0  0  0  0  0  0  0  0  0  0
    2.4157   -3.3276   -3.6513 C   0  0  0  0  0  0  0  0  0  0  0  0
    1.2348   -3.2875   -2.9132 C   0  0  0  0  0  0  0  0  0  0  0  0
    0.8723   -2.1230   -2.2336 C   0  0  0  0  0  0  0  0  0  0  0  0
   -2.6980    0.8026    1.0065 C   0  0  0  0  0  0  0  0  0  0  0  0
   -4.8874   -0.1085    2.8856 H   0  0  0  0  0  0  0  0  0  0  0  0
   -5.3571    1.6090    2.9319 H   0  0  0  0  0  0  0  0  0  0  0  0
   -3.7413    1.1321    3.4506 H   0  0  0  0  0  0  0  0  0  0  0  0
   -5.9587    1.6479    0.5289 H   0  0  0  0  0  0  0  0  0  0  0  0
   -5.1284    1.5357   -3.0663 H   0  0  0  0  0  0  0  0  0  0  0  0
   -5.3631    3.0850   -2.2182 H   0  0  0  0  0  0  0  0  0  0  0  0
   -6.4281    1.6971   -1.8864 H   0  0  0  0  0  0  0  0  0  0  0  0
   -2.7804    1.4234   -2.3401 H   0  0  0  0  0  0  0  0  0  0  0  0
   -0.3198    0.3677    0.2865 H   0  0  0  0  0  0  0  0  0  0  0  0
    1.9045    1.1435   -1.9221 H   0  0  0  0  0  0  0  0  0  0  0  0
    4.6229    1.5859    1.9592 H   0  0  0  0  0  0  0  0  0  0  0  0
    5.0087    1.0552    4.3341 H   0  0  0  0  0  0  0  0  0  0  0  0
    4.3634   -0.2466    6.0786 H   0  0  0  0  0  0  0  0  0  0  0  0
    1.8769   -1.8950    4.1989 H   0  0  0  0  0  0  0  0  0  0  0  0
    1.4832   -1.3855    1.8159 H   0  0  0  0  0  0  0  0  0  0  0  0
    3.5386   -0.1744   -3.0796 H   0  0  0  0  0  0  0  0  0  0  0  0
    4.1621   -2.2360   -4.2805 H   0  0  0  0  0  0  0  0  0  0  0  0
    2.6957   -4.2341   -4.1812 H   0  0  0  0  0  0  0  0  0  0  0  0
    0.5935   -4.1641   -2.8682 H   0  0  0  0  0  0  0  0  0  0  0  0
   -0.0534   -2.1192   -1.6621 H   0  0  0  0  0  0  0  0  0  0  0  0
   -2.0238    0.4976    1.8033 H   0  0  0  0  0  0  0  0  0  0  0  0
  1  2  1  0
  2  3  2  0
  3  4  1  0
  4  5  1  0
  4  6  2  0
  6  7  1  0
  7  8  1  0
  8  9  1  0
  9 10  2  0
  9 11  1  0
 11 12  1  0
 12 13  1  0
 13 14  2  0
 13 15  1  0
 15 16  2  0
 16 17  1  0
 17 18  2  0
 18 19  1  0
 18 20  1  0
 20 21  2  0
 11 22  1  0
 22 23  2  0
 23 24  1  0
 24 25  2  0
 25 26  1  0
 26 27  2  0
  7 28  2  0
 28  2  1  0
 21 15  1  0
 27 22  1  0
  1 29  1  0
  1 30  1  0
  1 31  1  0
  3 32  1  0
  5 33  1  0
  5 34  1  0
  5 35  1  0
  6 36  1  0
  8 37  1  0
 11 38  1  0
 16 39  1  0
 17 40  1  0
 19 41  1  0
 20 42  1  0
 21 43  1  0
 23 44  1  0
 24 45  1  0
 25 46  1  0
 26 47  1  0
 27 48  1  0
 28 49  1  0
M  END
$$$$
