
     RDKit          3D

 38 40  0  0  0  0  0  0  0  0999 V2000
   -6.0552   -0.3506   -0.0755 C   0  0  0  0  0  0  0  0  0  0  0  0
   -4.6228   -0.6834   -0.3686 C   0  0  0  0  0  0  0  0  0  0  0  0
   -3.7472   -0.9790    0.6801 C   0  0  0  0  0  0  0  0  0  0  0  0
   -2.4101   -1.2854    0.4253 C   0  0  0  0  0  0  0  0  0  0  0  0
   -1.9176   -1.2952   -0.8923 C   0  0  0  0  0  0  0  0  0  0  0  0
   -0.4728   -1.6367   -1.1701 C   0  0  0  0  0  0  0  0  0  0  0  0
    0.3237   -0.4124   -0.8446 C   0  0  0  0  0  0  0  0  0  0  0  0
    0.4921    0.7409   -1.6658 C   0  0  0  0  0  0  0  0  0  0  0  0
    1.3125    1.6224   -0.9978 C   0  0  0  0  0  0  0  0  0  0  0  0
    1.7591    2.8273   -1.3426 O   0  0  0  0  0  0  0  0  0  0  0  0
    1.6498    1.0531    0.2091 N   0  0  0  0  0  0  0  0  0  0  0  0
    2.4207    1.7218    1.2510 C   0  0  0  0  0  0  0  0  0  0  0  0
    3.7479    1.0774    1.4092 C   0  0  0  0  0  0  0  0  0  0  0  0
    4.9581    1.2150    0.7578 C   0  0  0  0  0  0  0  0  0  0  0  0
    5.8411    0.2886    1.3645 C   0  0  0  0  0  0  0  0  0  0  0  0
    5.1085   -0.3752    2.3220 C   0  0  0  0  0  0  0  0  0  0  0  0
    3.8360    0.0990    2.3603 O   0  0  0  0  0  0  0  0  0  0  0  0
    1.0813   -0.2048    0.2965 C   0  0  0  0  0  0  0  0  0  0  0  0
    1.2636   -1.0258    1.3285 O   0  0  0  0  0  0  0  0  0  0  0  0
   -2.7974   -0.9957   -1.9414 C   0  0  0  0  0  0  0  0  0  0  0  0
   -4.1376   -0.6924   -1.6801 C   0  0  0  0  0  0  0  0  0  0  0  0
   -6.5128   -1.1451    0.5233 H   0  0  0  0  0  0  0  0  0  0  0  0
   -6.1184    0.5951    0.4767 H   0  0  0  0  0  0  0  0  0  0  0  0
   -6.6398   -0.2506   -0.9953 H   0  0  0  0  0  0  0  0  0  0  0  0
   -4.0986   -0.9682    1.7102 H   0  0  0  0  0  0  0  0  0  0  0  0
   -1.7432   -1.5116    1.2539 H   0  0  0  0  0  0  0  0  0  0  0  0
   -0.3297   -1.9211   -2.2184 H   0  0  0  0  0  0  0  0  0  0  0  0
   -0.1668   -2.4956   -0.5596 H   0  0  0  0  0  0  0  0  0  0  0  0
    0.0475    0.9000   -2.6398 H   0  0  0  0  0  0  0  0  0  0  0  0
    1.3800    3.0264   -2.2187 H   0  0  0  0  0  0  0  0  0  0  0  0
    1.8341    1.6564    2.1738 H   0  0  0  0  0  0  0  0  0  0  0  0
    2.5266    2.7813    1.0039 H   0  0  0  0  0  0  0  0  0  0  0  0
    5.1668    1.8894   -0.0661 H   0  0  0  0  0  0  0  0  0  0  0  0
    6.8776    0.1095    1.1182 H   0  0  0  0  0  0  0  0  0  0  0  0
    5.3353   -1.1673    3.0266 H   0  0  0  0  0  0  0  0  0  0  0  0
    2.0509   -0.7456    1.8342 H   0  0  0  0  0  0  0  0  0  0  0  0
   -2.4445   -0.9999   -2.9690 H   0  0  0  0  0  0  0  0  0  0  0  0
   -4.7986   -0.4620   -2.5131 H   0  0  0  0  0  0  0  0  0  0  0  0
  1  2  1  0
  2  3  2  0
  3  4  1  0
  4  5  2  0
  5  6  1  0
  6  7  1  0
  7  8  1  0
  8  9  2  0
  9 10  1  0
  9 11  1  0
 11 12  1  0
 12 13  1  0
 13 14  2  0
 14 15  1  0
 15 16  2  0
 16 17  1  0
 11 18  1  0
 18 19  1  0
  5 20  1  0
 20 21  2  0
 21  2  1  0
 18  7  2  0
 17 13  1  0
  1 22  1  0
  1 23  1  0
  1 24  1  0
  3 25  1  0
  4 26  1  0
  6 27  1  0
  6 28  1  0
  8 29  1  0
 10 30  1  0
 12 31  1  0
 12 32  1  0
 14 33  1  0
 15 34  1  0
 16 35  1  0
 19 36  1  0
 20 37  1  0
 21 38  1  0
M  END
$$$$
