
     RDKit          3D

 41 42  0  0  0  0  0  0  0  0999 V2000
   -2.4071   -1.8076   -2.5482 O   0  0  0  0  0  0  0  0  0  0  0  0
   -1.7160   -1.3557   -1.6378 C   0  0  0  0  0  0  0  0  0  0  0  0
   -0.2116   -1.6049   -1.5630 C   0  0  0  0  0  0  0  0  0  0  0  0
    0.4116   -0.7839   -0.5769 O   0  0  0  0  0  0  0  0  0  0  0  0
    1.7882   -1.0578   -0.5739 N   0  0  0  0  0  0  0  0  0  0  0  0
    2.3599   -0.3444    0.3420 C   0  0  0  0  0  0  0  0  0  0  0  0
    3.8125   -0.4145    0.5888 C   0  0  0  0  0  0  0  0  0  0  0  0
    4.3563    0.3649    1.6166 C   0  0  0  0  0  0  0  0  0  0  0  0
    5.7276    0.3167    1.8776 C   0  0  0  0  0  0  0  0  0  0  0  0
    6.5571   -0.5060    1.1124 C   0  0  0  0  0  0  0  0  0  0  0  0
    6.0057   -1.2824    0.0820 C   0  0  0  0  0  0  0  0  0  0  0  0
    6.8803   -2.1440   -0.7243 N   0  0  0  0  0  4  0  0  0  0  0  0
    8.0927   -2.1343   -0.4668 O   0  0  0  0  0  0  0  0  0  0  0  0
    6.3561   -2.8296   -1.6127 O   0  0  0  0  0  1  0  0  0  0  0  0
    4.6318   -1.2431   -0.1854 C   0  0  0  0  0  0  0  0  0  0  0  0
   -2.2326   -0.6134   -0.5943 N   0  0  0  0  0  0  0  0  0  0  0  0
   -3.6189   -0.1665   -0.5744 C   0  0  0  0  0  0  0  0  0  0  0  0
   -3.7980    1.0417   -1.5125 C   0  0  0  0  0  0  0  0  0  0  0  0
   -4.9394    1.9447   -1.0636 C   0  0  0  0  0  0  0  0  0  0  0  0
   -4.6856    2.5214    0.3304 C   0  0  0  0  0  0  0  0  0  0  0  0
   -3.8768    1.5907    1.2381 C   0  0  0  0  0  0  0  0  0  0  0  0
   -4.0706    0.1246    0.8666 C   0  0  0  0  0  0  0  0  0  0  0  0
    0.2175   -1.3771   -2.5449 H   0  0  0  0  0  0  0  0  0  0  0  0
   -0.0545   -2.6604   -1.3158 H   0  0  0  0  0  0  0  0  0  0  0  0
    1.7726    0.3438    0.9758 H   0  0  0  0  0  0  0  0  0  0  0  0
    3.7231    1.0113    2.2215 H   0  0  0  0  0  0  0  0  0  0  0  0
    6.1511    0.9209    2.6785 H   0  0  0  0  0  0  0  0  0  0  0  0
    7.6240   -0.5305    1.3290 H   0  0  0  0  0  0  0  0  0  0  0  0
    4.1978   -1.8435   -0.9835 H   0  0  0  0  0  0  0  0  0  0  0  0
   -1.5546   -0.1317   -0.0130 H   0  0  0  0  0  0  0  0  0  0  0  0
   -4.2285   -0.9971   -0.9534 H   0  0  0  0  0  0  0  0  0  0  0  0
   -3.9795    0.6887   -2.5351 H   0  0  0  0  0  0  0  0  0  0  0  0
   -2.8745    1.6348   -1.5543 H   0  0  0  0  0  0  0  0  0  0  0  0
   -5.8735    1.3683   -1.0566 H   0  0  0  0  0  0  0  0  0  0  0  0
   -5.0830    2.7620   -1.7800 H   0  0  0  0  0  0  0  0  0  0  0  0
   -4.1553    3.4775    0.2463 H   0  0  0  0  0  0  0  0  0  0  0  0
   -5.6514    2.7493    0.7976 H   0  0  0  0  0  0  0  0  0  0  0  0
   -2.8120    1.8445    1.1638 H   0  0  0  0  0  0  0  0  0  0  0  0
   -4.1638    1.7584    2.2827 H   0  0  0  0  0  0  0  0  0  0  0  0
   -3.5413   -0.5182    1.5801 H   0  0  0  0  0  0  0  0  0  0  0  0
   -5.1372   -0.1178    0.9610 H   0  0  0  0  0  0  0  0  0  0  0  0
  1  2  2  0
  2  3  1  0
  3  4  1  0
  4  5  1  0
  5  6  2  3
  6  7  1  0
  7  8  2  0
  8  9  1  0
  9 10  2  0
 10 11  1  0
 11 12  1  0
 12 13  2  0
 12 14  1  0
 11 15  2  0
  2 16  1  0
 16 17  1  0
 17 18  1  0
 18 19  1  0
 19 20  1  0
 20 21  1  0
 21 22  1  0
 15  7  1  0
 22 17  1  0
  3 23  1  0
  3 24  1  0
  6 25  1  0
  8 26  1  0
  9 27  1  0
 10 28  1  0
 15 29  1  0
 16 30  1  0
 17 31  1  0
 18 32  1  0
 18 33  1  0
 19 34  1  0
 19 35  1  0
 20 36  1  0
 20 37  1  0
 21 38  1  0
 21 39  1  0
 22 40  1  0
 22 41  1  0
M  CHG  2  12   1  14  -1
M  END
$$$$
