
     RDKit          3D

 38 40  0  0  0  0  0  0  0  0999 V2000
    0.3773    0.8956   -1.3257 O   0  0  0  0  0  0  0  0  0  0  0  0
    1.2715    0.3287   -0.7031 C   0  0  0  0  0  0  0  0  0  0  0  0
    1.0173   -0.6730    0.2158 N   0  0  0  0  0  0  0  0  0  0  0  0
   -0.3344   -0.8963    0.5520 N   0  0  0  0  0  0  0  0  0  0  0  0
   -0.6095   -1.1350    1.8849 C   0  0  0  0  0  0  0  0  0  0  0  0
    0.2874   -1.3861    2.6945 O   0  0  0  0  0  0  0  0  0  0  0  0
   -2.0889   -1.1075    2.2871 C   0  0  0  0  0  0  0  0  0  0  0  0
   -2.8793   -2.2533    1.6641 C   0  0  0  0  0  0  0  0  0  0  0  0
   -3.1740   -2.0399    0.2807 O   0  0  0  0  0  0  0  0  0  0  0  0
   -3.6565   -0.7768    0.0648 C   0  0  0  0  0  0  0  0  0  0  0  0
   -4.3701   -0.5673   -1.1147 C   0  0  0  0  0  0  0  0  0  0  0  0
   -4.8775    0.7024   -1.4024 C   0  0  0  0  0  0  0  0  0  0  0  0
   -4.6620    1.7608   -0.5168 C   0  0  0  0  0  0  0  0  0  0  0  0
   -3.9340    1.5491    0.6558 C   0  0  0  0  0  0  0  0  0  0  0  0
   -3.4253    0.2832    0.9444 C   0  0  0  0  0  0  0  0  0  0  0  0
   -2.6872    0.1717    2.0896 O   0  0  0  0  0  0  0  0  0  0  0  0
    2.6954    0.7249   -0.8936 C   0  0  0  0  0  0  0  0  0  0  0  0
    2.9583    1.9735   -1.4805 C   0  0  0  0  0  0  0  0  0  0  0  0
    4.2716    2.3994   -1.6962 C   0  0  0  0  0  0  0  0  0  0  0  0
    5.3381    1.5800   -1.3303 C   0  0  0  0  0  0  0  0  0  0  0  0
    5.0786    0.3316   -0.7496 C   0  0  0  0  0  0  0  0  0  0  0  0
    6.1994   -0.5315   -0.3598 N   0  0  0  0  0  4  0  0  0  0  0  0
    5.9396   -1.5219    0.3379 O   0  0  0  0  0  0  0  0  0  0  0  0
    7.3332   -0.2179   -0.7491 O   0  0  0  0  0  1  0  0  0  0  0  0
    3.7626   -0.1080   -0.5338 C   0  0  0  0  0  0  0  0  0  0  0  0
    1.6815   -0.9128    0.9523 H   0  0  0  0  0  0  0  0  0  0  0  0
   -1.0091   -0.3955   -0.0309 H   0  0  0  0  0  0  0  0  0  0  0  0
   -2.0913   -1.2677    3.3735 H   0  0  0  0  0  0  0  0  0  0  0  0
   -3.8331   -2.3866    2.1911 H   0  0  0  0  0  0  0  0  0  0  0  0
   -2.3283   -3.1964    1.7481 H   0  0  0  0  0  0  0  0  0  0  0  0
   -4.5368   -1.3925   -1.8012 H   0  0  0  0  0  0  0  0  0  0  0  0
   -5.4390    0.8670   -2.3205 H   0  0  0  0  0  0  0  0  0  0  0  0
   -5.0516    2.7507   -0.7436 H   0  0  0  0  0  0  0  0  0  0  0  0
   -3.7572    2.3751    1.3423 H   0  0  0  0  0  0  0  0  0  0  0  0
    2.1333    2.6239   -1.7726 H   0  0  0  0  0  0  0  0  0  0  0  0
    4.4603    3.3756   -2.1426 H   0  0  0  0  0  0  0  0  0  0  0  0
    6.3566    1.9237   -1.5032 H   0  0  0  0  0  0  0  0  0  0  0  0
    3.5832   -1.0923   -0.1085 H   0  0  0  0  0  0  0  0  0  0  0  0
  1  2  2  0
  2  3  1  0
  3  4  1  0
  4  5  1  0
  5  6  2  0
  5  7  1  0
  7  8  1  0
  8  9  1  0
  9 10  1  0
 10 11  2  0
 11 12  1  0
 12 13  2  0
 13 14  1  0
 14 15  2  0
 15 16  1  0
  2 17  1  0
 17 18  2  0
 18 19  1  0
 19 20  2  0
 20 21  1  0
 21 22  1  0
 22 23  2  0
 22 24  1  0
 21 25  2  0
 16  7  1  0
 25 17  1  0
 15 10  1  0
  3 26  1  0
  4 27  1  0
  7 28  1  0
  8 29  1  0
  8 30  1  0
 11 31  1  0
 12 32  1  0
 13 33  1  0
 14 34  1  0
 18 35  1  0
 19 36  1  0
 20 37  1  0
 25 38  1  0
M  CHG  2  22   1  24  -1
M  END
$$$$
