
     RDKit          3D

 55 57  0  0  0  0  0  0  0  0999 V2000
   -2.7996   -4.9069   -0.6678 C   0  0  0  0  0  0  0  0  0  0  0  0
   -1.8151   -4.0013    0.0458 C   0  0  0  0  0  0  0  0  0  0  0  0
   -2.0967   -2.6544   -0.3284 O   0  0  0  0  0  0  0  0  0  0  0  0
   -1.2411   -1.7181    0.3404 C   0  0  0  0  0  0  0  0  0  0  0  0
    0.1017   -1.8980   -0.1160 O   0  0  0  0  0  0  0  0  0  0  0  0
    0.9894   -0.9735    0.3821 C   0  0  0  0  0  0  0  0  0  0  0  0
    2.4284   -1.3960    0.4820 C   0  0  0  0  0  0  0  0  0  0  0  0
    2.7058   -2.4832    0.9735 O   0  0  0  0  0  0  0  0  0  0  0  0
    3.2977   -0.4636   -0.0507 N   0  0  0  0  0  0  0  0  0  0  0  0
    4.7044   -0.5323   -0.1018 C   0  0  0  0  0  0  0  0  0  0  0  0
    5.3737    0.5258   -0.7315 C   0  0  0  0  0  0  0  0  0  0  0  0
    6.7683    0.5362   -0.8205 C   0  0  0  0  0  0  0  0  0  0  0  0
    7.5074   -0.5117   -0.2792 C   0  0  0  0  0  0  0  0  0  0  0  0
    6.8512   -1.5669    0.3499 C   0  0  0  0  0  0  0  0  0  0  0  0
    5.4552   -1.5772    0.4391 C   0  0  0  0  0  0  0  0  0  0  0  0
    0.6137    0.2361    0.8232 C   0  0  0  0  0  0  0  0  0  0  0  0
   -0.8044    0.7371    0.7165 C   0  0  0  0  0  0  0  0  0  0  0  0
   -0.7847    2.1140    0.0600 C   0  0  0  0  0  0  0  0  0  0  0  0
   -0.9410    3.2650    0.8509 C   0  0  0  0  0  0  0  0  0  0  0  0
   -0.9003    4.5369    0.2766 C   0  0  0  0  0  0  0  0  0  0  0  0
   -0.6913    4.6776   -1.0929 C   0  0  0  0  0  0  0  0  0  0  0  0
   -0.5156    3.5480   -1.8883 C   0  0  0  0  0  0  0  0  0  0  0  0
   -0.5549    2.2749   -1.3163 C   0  0  0  0  0  0  0  0  0  0  0  0
   -1.7492   -0.2906    0.0291 C   0  0  0  0  0  0  0  0  0  0  0  0
   -3.2300   -0.1414    0.4682 C   0  0  0  0  0  0  0  0  0  0  0  0
   -3.9126    1.1436   -0.0137 C   0  0  0  0  0  0  0  0  0  0  0  0
   -5.4124    1.1309    0.2674 C   0  0  0  0  0  0  0  0  0  0  0  0
   -5.6551    1.1028    1.6677 O   0  0  0  0  0  0  0  0  0  0  0  0
   -2.7131   -4.7911   -1.7532 H   0  0  0  0  0  0  0  0  0  0  0  0
   -3.8285   -4.6444   -0.4004 H   0  0  0  0  0  0  0  0  0  0  0  0
   -2.6240   -5.9549   -0.4093 H   0  0  0  0  0  0  0  0  0  0  0  0
   -1.9249   -4.1175    1.1295 H   0  0  0  0  0  0  0  0  0  0  0  0
   -0.7934   -4.2685   -0.2439 H   0  0  0  0  0  0  0  0  0  0  0  0
   -1.2908   -1.9086    1.4225 H   0  0  0  0  0  0  0  0  0  0  0  0
    2.8787    0.3456   -0.4909 H   0  0  0  0  0  0  0  0  0  0  0  0
    4.8211    1.3563   -1.1629 H   0  0  0  0  0  0  0  0  0  0  0  0
    7.2759    1.3616   -1.3125 H   0  0  0  0  0  0  0  0  0  0  0  0
    8.5921   -0.5082   -0.3468 H   0  0  0  0  0  0  0  0  0  0  0  0
    7.4226   -2.3887    0.7742 H   0  0  0  0  0  0  0  0  0  0  0  0
    4.9855   -2.4188    0.9385 H   0  0  0  0  0  0  0  0  0  0  0  0
    1.3402    0.9079    1.2762 H   0  0  0  0  0  0  0  0  0  0  0  0
   -1.1549    0.8582    1.7516 H   0  0  0  0  0  0  0  0  0  0  0  0
   -1.0993    3.1797    1.9241 H   0  0  0  0  0  0  0  0  0  0  0  0
   -1.0292    5.4187    0.8992 H   0  0  0  0  0  0  0  0  0  0  0  0
   -0.6597    5.6680   -1.5398 H   0  0  0  0  0  0  0  0  0  0  0  0
   -0.3444    3.6577   -2.9564 H   0  0  0  0  0  0  0  0  0  0  0  0
   -0.3985    1.4112   -1.9590 H   0  0  0  0  0  0  0  0  0  0  0  0
   -1.7182   -0.1740   -1.0620 H   0  0  0  0  0  0  0  0  0  0  0  0
   -3.2945   -0.2076    1.5616 H   0  0  0  0  0  0  0  0  0  0  0  0
   -3.8084   -0.9867    0.0760 H   0  0  0  0  0  0  0  0  0  0  0  0
   -3.4773    2.0037    0.5011 H   0  0  0  0  0  0  0  0  0  0  0  0
   -3.7526    1.2686   -1.0903 H   0  0  0  0  0  0  0  0  0  0  0  0
   -5.8900    0.2548   -0.1821 H   0  0  0  0  0  0  0  0  0  0  0  0
   -5.8886    2.0255   -0.1464 H   0  0  0  0  0  0  0  0  0  0  0  0
   -5.3188    1.9376    2.0357 H   0  0  0  0  0  0  0  0  0  0  0  0
  1  2  1  0
  2  3  1  0
  3  4  1  0
  4  5  1  0
  5  6  1  0
  6  7  1  0
  7  8  2  0
  7  9  1  0
  9 10  1  0
 10 11  2  0
 11 12  1  0
 12 13  2  0
 13 14  1  0
 14 15  2  0
  6 16  2  0
 16 17  1  0
 17 18  1  0
 18 19  2  0
 19 20  1  0
 20 21  2  0
 21 22  1  0
 22 23  2  0
 17 24  1  0
 24 25  1  0
 25 26  1  0
 26 27  1  0
 27 28  1  0
 24  4  1  0
 15 10  1  0
 23 18  1  0
  1 29  1  0
  1 30  1  0
  1 31  1  0
  2 32  1  0
  2 33  1  0
  4 34  1  0
  9 35  1  0
 11 36  1  0
 12 37  1  0
 13 38  1  0
 14 39  1  0
 15 40  1  0
 16 41  1  0
 17 42  1  0
 19 43  1  0
 20 44  1  0
 21 45  1  0
 22 46  1  0
 23 47  1  0
 24 48  1  0
 25 49  1  0
 25 50  1  0
 26 51  1  0
 26 52  1  0
 27 53  1  0
 27 54  1  0
 28 55  1  0
M  END
$$$$
