
     RDKit          3D

 45 47  0  0  0  0  0  0  0  0999 V2000
   -0.3804    2.8138    0.6117 C   0  0  0  0  0  0  0  0  0  0  0  0
    0.4710    1.6470    0.2250 C   0  0  0  0  0  0  0  0  0  0  0  0
    0.0371    0.4986   -0.3246 C   0  0  0  0  0  0  0  0  0  0  0  0
   -1.2010   -0.0204   -0.6485 N   0  0  0  0  0  0  0  0  0  0  0  0
   -2.3207   -0.1122    0.2899 C   0  0  0  0  0  0  0  0  0  0  0  0
   -1.9881   -1.0366    1.4651 C   0  0  0  0  0  0  0  0  0  0  0  0
   -3.5677   -0.5771   -0.4483 C   0  0  0  0  0  0  0  0  0  0  0  0
   -4.7366    0.2023   -0.3793 C   0  0  0  0  0  0  0  0  0  0  0  0
   -5.9063   -0.1964   -1.0307 C   0  0  0  0  0  0  0  0  0  0  0  0
   -5.9281   -1.3808   -1.7627 C   0  0  0  0  0  0  0  0  0  0  0  0
   -4.7807   -2.1675   -1.8475 C   0  0  0  0  0  0  0  0  0  0  0  0
   -3.6143   -1.7644   -1.1950 C   0  0  0  0  0  0  0  0  0  0  0  0
   -2.4872   -2.5335   -1.2907 O   0  0  0  0  0  0  0  0  0  0  0  0
    1.2922   -0.2993   -0.5914 C   0  0  0  0  0  0  0  0  0  0  0  0
    1.2645   -1.4243   -1.0719 O   0  0  0  0  0  0  0  0  0  0  0  0
    2.3629    0.4632   -0.1141 N   0  0  0  0  0  0  0  0  0  0  0  0
    3.6147   -0.0531    0.3129 C   0  0  0  0  0  0  0  0  0  0  0  0
    4.1386   -1.2253   -0.2494 C   0  0  0  0  0  0  0  0  0  0  0  0
    5.3735   -1.7356    0.1654 C   0  0  0  0  0  0  0  0  0  0  0  0
    6.1032   -1.0833    1.1547 C   0  0  0  0  0  0  0  0  0  0  0  0
    5.5969    0.0770    1.7319 C   0  0  0  0  0  0  0  0  0  0  0  0
    4.3628    0.5859    1.3144 C   0  0  0  0  0  0  0  0  0  0  0  0
    1.8699    1.7132    0.3601 N   0  0  0  0  0  0  0  0  0  0  0  0
    2.5659    2.8735   -0.2243 C   0  0  0  0  0  0  0  0  0  0  0  0
   -0.3721    2.9429    1.6985 H   0  0  0  0  0  0  0  0  0  0  0  0
   -0.0179    3.7382    0.1517 H   0  0  0  0  0  0  0  0  0  0  0  0
   -1.4179    2.6993    0.2885 H   0  0  0  0  0  0  0  0  0  0  0  0
   -1.0699   -0.9430   -1.0865 H   0  0  0  0  0  0  0  0  0  0  0  0
   -2.5209    0.8823    0.7018 H   0  0  0  0  0  0  0  0  0  0  0  0
   -1.1609   -0.6311    2.0579 H   0  0  0  0  0  0  0  0  0  0  0  0
   -1.6877   -2.0369    1.1357 H   0  0  0  0  0  0  0  0  0  0  0  0
   -2.8507   -1.1484    2.1315 H   0  0  0  0  0  0  0  0  0  0  0  0
   -4.7427    1.1331    0.1838 H   0  0  0  0  0  0  0  0  0  0  0  0
   -6.7994    0.4202   -0.9674 H   0  0  0  0  0  0  0  0  0  0  0  0
   -6.8383   -1.6891   -2.2703 H   0  0  0  0  0  0  0  0  0  0  0  0
   -4.8124   -3.0862   -2.4249 H   0  0  0  0  0  0  0  0  0  0  0  0
   -2.6612   -3.2804   -1.8871 H   0  0  0  0  0  0  0  0  0  0  0  0
    3.6056   -1.7565   -1.0339 H   0  0  0  0  0  0  0  0  0  0  0  0
    5.7604   -2.6445   -0.2883 H   0  0  0  0  0  0  0  0  0  0  0  0
    7.0604   -1.4826    1.4789 H   0  0  0  0  0  0  0  0  0  0  0  0
    6.1549    0.5836    2.5150 H   0  0  0  0  0  0  0  0  0  0  0  0
    3.9796    1.4734    1.8101 H   0  0  0  0  0  0  0  0  0  0  0  0
    3.6538    2.7661   -0.1857 H   0  0  0  0  0  0  0  0  0  0  0  0
    2.2797    3.0127   -1.2733 H   0  0  0  0  0  0  0  0  0  0  0  0
    2.3156    3.7822    0.3328 H   0  0  0  0  0  0  0  0  0  0  0  0
  1  2  1  0
  2  3  2  0
  3  4  1  0
  4  5  1  0
  5  6  1  0
  5  7  1  0
  7  8  2  0
  8  9  1  0
  9 10  2  0
 10 11  1  0
 11 12  2  0
 12 13  1  0
  3 14  1  0
 14 15  2  0
 14 16  1  0
 16 17  1  0
 17 18  2  0
 18 19  1  0
 19 20  2  0
 20 21  1  0
 21 22  2  0
 16 23  1  0
 23 24  1  0
 23  2  1  0
 12  7  1  0
 22 17  1  0
  1 25  1  0
  1 26  1  0
  1 27  1  0
  4 28  1  0
  5 29  1  0
  6 30  1  0
  6 31  1  0
  6 32  1  0
  8 33  1  0
  9 34  1  0
 10 35  1  0
 11 36  1  0
 13 37  1  0
 18 38  1  0
 19 39  1  0
 20 40  1  0
 21 41  1  0
 22 42  1  0
 24 43  1  0
 24 44  1  0
 24 45  1  0
M  END
$$$$
