
     RDKit          3D

 66 70  0  0  0  0  0  0  0  0999 V2000
    3.6242    2.2129    2.2788 C   0  0  0  0  0  0  0  0  0  0  0  0
    3.5631    2.0988    0.8011 C   0  0  0  0  0  0  0  0  0  0  0  0
    2.4655    2.2715   -0.0239 C   0  0  0  0  0  0  0  0  0  0  0  0
    1.0417    2.6173    0.3043 C   0  0  0  0  0  0  0  0  0  0  0  0
    0.2004    1.3770    0.6171 C   0  0  0  0  0  0  0  0  0  0  0  0
   -1.1993    1.6879    0.5604 O   0  0  0  0  0  0  0  0  0  0  0  0
   -1.7382    1.6509   -0.6924 C   0  0  0  0  0  0  0  0  0  0  0  0
   -1.0970    1.4372   -1.7132 O   0  0  0  0  0  0  0  0  0  0  0  0
   -3.2253    1.9089   -0.6564 C   0  0  0  0  0  0  0  0  0  0  0  0
   -4.0955    0.6589   -0.4159 C   0  0  0  0  0  0  0  0  0  0  0  0
   -3.9117    0.0964    1.0156 C   0  0  0  0  0  0  0  0  0  0  0  0
   -4.8373   -1.1100    1.2495 C   0  0  0  0  0  0  0  0  0  0  0  0
   -6.2994   -0.6779    1.0636 C   0  0  0  0  0  0  0  0  0  0  0  0
   -6.5104   -0.1438   -0.3610 C   0  0  0  0  0  0  0  0  0  0  0  0
   -6.1695   -1.2462   -1.3771 C   0  0  0  0  0  0  0  0  0  0  0  0
   -4.6999   -1.6937   -1.2118 C   0  0  0  0  0  0  0  0  0  0  0  0
   -4.3645   -2.7950   -2.2232 C   0  0  0  0  0  0  0  0  0  0  0  0
   -4.4994   -2.2129    0.2313 C   0  0  0  0  0  0  0  0  0  0  0  0
   -3.7791   -0.4693   -1.4317 C   0  0  0  0  0  0  0  0  0  0  0  0
   -5.5855    1.0605   -0.5896 C   0  0  0  0  0  0  0  0  0  0  0  0
    2.9229    2.0473   -1.6675 S   0  0  0  0  0  0  0  0  0  0  0  0
    4.5454    1.7491   -1.2375 C   0  0  0  0  0  0  0  0  0  0  0  0
    4.7155    1.7969    0.0750 N   0  0  0  0  0  4  0  0  0  0  0  0
    6.0514    1.5886    0.6549 C   0  0  0  0  0  0  0  0  0  0  0  0
    6.5282    0.1747    0.3913 C   0  0  0  0  0  0  0  0  0  0  0  0
    5.8094   -0.9338    0.8723 C   0  0  0  0  0  0  0  0  0  0  0  0
    6.2551   -2.2361    0.6194 C   0  0  0  0  0  0  0  0  0  0  0  0
    7.4319   -2.4383   -0.1128 C   0  0  0  0  0  0  0  0  0  0  0  0
    7.9004   -3.8050   -0.3834 N   0  0  0  0  0  4  0  0  0  0  0  0
    7.2232   -4.7405    0.0658 O   0  0  0  0  0  0  0  0  0  0  0  0
    8.9382   -3.9322   -1.0485 O   0  0  0  0  0  1  0  0  0  0  0  0
    8.1647   -1.3446   -0.5879 C   0  0  0  0  0  0  0  0  0  0  0  0
    7.7139   -0.0452   -0.3331 C   0  0  0  0  0  0  0  0  0  0  0  0
    4.0073    1.2921    2.7270 H   0  0  0  0  0  0  0  0  0  0  0  0
    4.2680    3.0468    2.5765 H   0  0  0  0  0  0  0  0  0  0  0  0
    2.6344    2.3932    2.7097 H   0  0  0  0  0  0  0  0  0  0  0  0
    0.5947    3.1966   -0.5151 H   0  0  0  0  0  0  0  0  0  0  0  0
    1.0080    3.2931    1.1697 H   0  0  0  0  0  0  0  0  0  0  0  0
    0.4315    0.5286   -0.0391 H   0  0  0  0  0  0  0  0  0  0  0  0
    0.4113    1.0397    1.6378 H   0  0  0  0  0  0  0  0  0  0  0  0
   -3.4263    2.6799    0.0987 H   0  0  0  0  0  0  0  0  0  0  0  0
   -3.4844    2.3688   -1.6205 H   0  0  0  0  0  0  0  0  0  0  0  0
   -4.1256    0.8736    1.7605 H   0  0  0  0  0  0  0  0  0  0  0  0
   -2.8738   -0.2193    1.1765 H   0  0  0  0  0  0  0  0  0  0  0  0
   -4.6930   -1.4909    2.2675 H   0  0  0  0  0  0  0  0  0  0  0  0
   -6.5595    0.0964    1.7960 H   0  0  0  0  0  0  0  0  0  0  0  0
   -6.9672   -1.5282    1.2489 H   0  0  0  0  0  0  0  0  0  0  0  0
   -7.5547    0.1638   -0.4877 H   0  0  0  0  0  0  0  0  0  0  0  0
   -6.8450   -2.0997   -1.2334 H   0  0  0  0  0  0  0  0  0  0  0  0
   -6.3421   -0.8764   -2.3966 H   0  0  0  0  0  0  0  0  0  0  0  0
   -3.3319   -3.1405   -2.1037 H   0  0  0  0  0  0  0  0  0  0  0  0
   -5.0223   -3.6612   -2.1003 H   0  0  0  0  0  0  0  0  0  0  0  0
   -4.4780   -2.4342   -3.2507 H   0  0  0  0  0  0  0  0  0  0  0  0
   -5.1376   -3.0878    0.4094 H   0  0  0  0  0  0  0  0  0  0  0  0
   -3.4630   -2.5446    0.3770 H   0  0  0  0  0  0  0  0  0  0  0  0
   -2.7325   -0.7856   -1.3330 H   0  0  0  0  0  0  0  0  0  0  0  0
   -3.8975   -0.0899   -2.4556 H   0  0  0  0  0  0  0  0  0  0  0  0
   -5.8442    1.8619    0.1155 H   0  0  0  0  0  0  0  0  0  0  0  0
   -5.7539    1.4650   -1.5963 H   0  0  0  0  0  0  0  0  0  0  0  0
    5.3229    1.5406   -1.9636 H   0  0  0  0  0  0  0  0  0  0  0  0
    6.0684    1.7766    1.7303 H   0  0  0  0  0  0  0  0  0  0  0  0
    6.7272    2.3221    0.1986 H   0  0  0  0  0  0  0  0  0  0  0  0
    4.8957   -0.8082    1.4515 H   0  0  0  0  0  0  0  0  0  0  0  0
    5.6814   -3.0813    1.0013 H   0  0  0  0  0  0  0  0  0  0  0  0
    9.0874   -1.4882   -1.1502 H   0  0  0  0  0  0  0  0  0  0  0  0
    8.3114    0.7868   -0.7089 H   0  0  0  0  0  0  0  0  0  0  0  0
  1  2  1  0
  2  3  2  0
  3  4  1  0
  4  5  1  0
  5  6  1  0
  6  7  1  0
  7  8  2  0
  7  9  1  0
  9 10  1  0
 10 11  1  0
 11 12  1  0
 12 13  1  0
 13 14  1  0
 14 15  1  0
 15 16  1  0
 16 17  1  0
 16 18  1  0
 16 19  1  0
 14 20  1  0
  3 21  1  0
 21 22  1  0
 22 23  2  0
 23 24  1  0
 24 25  1  0
 25 26  2  0
 26 27  1  0
 27 28  2  0
 28 29  1  0
 29 30  2  0
 29 31  1  0
 28 32  1  0
 32 33  2  0
 23  2  1  0
 33 25  1  0
 19 10  1  0
 20 10  1  0
 18 12  1  0
  1 34  1  0
  1 35  1  0
  1 36  1  0
  4 37  1  0
  4 38  1  0
  5 39  1  0
  5 40  1  0
  9 41  1  0
  9 42  1  0
 11 43  1  0
 11 44  1  0
 12 45  1  0
 13 46  1  0
 13 47  1  0
 14 48  1  0
 15 49  1  0
 15 50  1  0
 17 51  1  0
 17 52  1  0
 17 53  1  0
 18 54  1  0
 18 55  1  0
 19 56  1  0
 19 57  1  0
 20 58  1  0
 20 59  1  0
 22 60  1  0
 24 61  1  0
 24 62  1  0
 26 63  1  0
 27 64  1  0
 32 65  1  0
 33 66  1  0
M  CHG  3  23   1  29   1  31  -1
M  END
$$$$
