
     RDKit          3D

 42 45  0  0  0  0  0  0  0  0999 V2000
   -4.7737    2.2814   -0.5613 O   0  0  0  0  0  0  0  0  0  0  0  0
   -3.7271    1.6760   -0.3302 C   0  0  0  0  0  0  0  0  0  0  0  0
   -2.4278    2.3556   -0.3321 C   0  0  0  0  0  0  0  0  0  0  0  0
   -1.3813    2.2708    0.6235 C   0  0  0  0  0  0  0  0  0  0  0  0
   -0.3936    3.0919    0.1377 C   0  0  0  0  0  0  0  0  0  0  0  0
    0.9658    3.4682    0.5850 C   0  0  0  0  0  0  0  0  0  0  0  0
    1.5021    2.4198    1.3994 O   0  0  0  0  0  0  0  0  0  0  0  0
    2.1379    1.3751    0.7876 C   0  0  0  0  0  0  0  0  0  0  0  0
    2.7923    0.5038    1.6628 C   0  0  0  0  0  0  0  0  0  0  0  0
    3.4754   -0.6204    1.1862 C   0  0  0  0  0  0  0  0  0  0  0  0
    3.5017   -0.8855   -0.1873 C   0  0  0  0  0  0  0  0  0  0  0  0
    4.1818   -2.0175   -0.7059 N   0  0  0  0  0  0  0  0  0  0  0  0
    4.8914   -2.9846   -0.0347 C   0  0  0  0  0  0  0  0  0  0  0  0
    5.3692   -3.8747   -0.8747 N   0  0  0  0  0  0  0  0  0  0  0  0
    4.9286   -3.4143   -2.0770 C   0  0  0  0  0  0  0  0  0  0  0  0
    4.2044   -2.2960   -2.0341 N   0  0  0  0  0  0  0  0  0  0  0  0
    2.8398   -0.0160   -1.0665 C   0  0  0  0  0  0  0  0  0  0  0  0
    2.1610    1.1082   -0.5801 C   0  0  0  0  0  0  0  0  0  0  0  0
   -0.8219    3.6613   -1.0185 O   0  0  0  0  0  0  0  0  0  0  0  0
   -2.0950    3.2151   -1.3107 N   0  0  0  0  0  0  0  0  0  0  0  0
   -3.7349    0.3146   -0.0442 N   0  0  0  0  0  0  0  0  0  0  0  0
   -4.9867   -0.4206   -0.0320 C   0  0  0  0  0  0  0  0  0  0  0  0
   -4.5872   -1.8370    0.3508 C   0  0  0  0  0  0  0  0  0  0  0  0
   -3.2036   -1.9703   -0.2723 C   0  0  0  0  0  0  0  0  0  0  0  0
   -2.5938   -0.5914   -0.0501 C   0  0  0  0  0  0  0  0  0  0  0  0
   -1.3505    1.6909    1.5334 H   0  0  0  0  0  0  0  0  0  0  0  0
    1.6369    3.7296   -0.2409 H   0  0  0  0  0  0  0  0  0  0  0  0
    0.8921    4.3571    1.2213 H   0  0  0  0  0  0  0  0  0  0  0  0
    2.7731    0.7053    2.7322 H   0  0  0  0  0  0  0  0  0  0  0  0
    3.9680   -1.2573    1.9144 H   0  0  0  0  0  0  0  0  0  0  0  0
    5.0285   -2.9966    1.0357 H   0  0  0  0  0  0  0  0  0  0  0  0
    5.1414   -3.9100   -3.0160 H   0  0  0  0  0  0  0  0  0  0  0  0
    2.8403   -0.1989   -2.1407 H   0  0  0  0  0  0  0  0  0  0  0  0
    1.6557    1.7408   -1.3035 H   0  0  0  0  0  0  0  0  0  0  0  0
   -5.6936    0.0305    0.6708 H   0  0  0  0  0  0  0  0  0  0  0  0
   -5.4151   -0.3862   -1.0403 H   0  0  0  0  0  0  0  0  0  0  0  0
   -5.2946   -2.5878   -0.0111 H   0  0  0  0  0  0  0  0  0  0  0  0
   -4.5136   -1.9276    1.4412 H   0  0  0  0  0  0  0  0  0  0  0  0
   -2.6074   -2.7716    0.1726 H   0  0  0  0  0  0  0  0  0  0  0  0
   -3.2993   -2.1688   -1.3467 H   0  0  0  0  0  0  0  0  0  0  0  0
   -2.1150   -0.5373    0.9328 H   0  0  0  0  0  0  0  0  0  0  0  0
   -1.8717   -0.3258   -0.8274 H   0  0  0  0  0  0  0  0  0  0  0  0
  1  2  2  0
  2  3  1  0
  3  4  1  0
  4  5  2  0
  5  6  1  0
  6  7  1  0
  7  8  1  0
  8  9  2  0
  9 10  1  0
 10 11  2  0
 11 12  1  0
 12 13  1  0
 13 14  2  0
 14 15  1  0
 15 16  2  0
 11 17  1  0
 17 18  2  0
  5 19  1  0
 19 20  1  0
  2 21  1  0
 21 22  1  0
 22 23  1  0
 23 24  1  0
 24 25  1  0
 20  3  2  0
 25 21  1  0
 18  8  1  0
 16 12  1  0
  4 26  1  0
  6 27  1  0
  6 28  1  0
  9 29  1  0
 10 30  1  0
 13 31  1  0
 15 32  1  0
 17 33  1  0
 18 34  1  0
 22 35  1  0
 22 36  1  0
 23 37  1  0
 23 38  1  0
 24 39  1  0
 24 40  1  0
 25 41  1  0
 25 42  1  0
M  END
$$$$
