
     RDKit          3D

 47 49  0  0  0  0  0  0  0  0999 V2000
    0.3456    4.4907   -2.4030 C   0  0  0  0  0  0  0  0  0  0  0  0
   -0.8121    4.0300   -1.7009 O   0  0  0  0  0  0  0  0  0  0  0  0
   -0.5695    3.0400   -0.7964 C   0  0  0  0  0  0  0  0  0  0  0  0
    0.5440    2.6039   -0.5123 O   0  0  0  0  0  0  0  0  0  0  0  0
   -1.8671    2.5971   -0.1335 C   0  0  0  0  0  0  0  0  0  0  0  0
   -1.9171    1.1459    0.0507 N   0  0  0  0  0  0  0  0  0  0  0  0
   -1.2844    0.4398    1.0673 C   0  0  0  0  0  0  0  0  0  0  0  0
   -0.4309    1.0787    2.1137 C   0  0  0  0  0  0  0  0  0  0  0  0
    0.9233    0.3859    2.1430 C   0  0  0  0  0  0  0  0  0  0  0  0
    1.0529   -0.6533    2.7895 O   0  0  0  0  0  0  0  0  0  0  0  0
    1.8702    0.9850    1.3376 N   0  0  0  0  0  0  0  0  0  0  0  0
    3.2131    0.5961    1.1625 C   0  0  0  0  0  0  0  0  0  0  0  0
    3.9340    1.2399    0.1504 C   0  0  0  0  0  0  0  0  0  0  0  0
    5.2780    0.9289   -0.0787 C   0  0  0  0  0  0  0  0  0  0  0  0
    5.9059   -0.0315    0.7080 C   0  0  0  0  0  0  0  0  0  0  0  0
    7.5612   -0.4137    0.4329 Cl  0  0  0  0  0  0  0  0  0  0  0  0
    5.1980   -0.6874    1.7125 C   0  0  0  0  0  0  0  0  0  0  0  0
    3.8540   -0.3711    1.9378 C   0  0  0  0  0  0  0  0  0  0  0  0
   -1.5672   -0.8694    0.9133 C   0  0  0  0  0  0  0  0  0  0  0  0
   -1.1181   -1.9176    1.6621 O   0  0  0  0  0  0  0  0  0  0  0  0
   -2.3545   -1.0781   -0.2125 N   0  0  0  0  0  0  0  0  0  0  0  0
   -2.8295   -2.3390   -0.6824 C   0  0  0  0  0  0  0  0  0  0  0  0
   -2.9135   -2.6370   -2.0493 C   0  0  0  0  0  0  0  0  0  0  0  0
   -3.3711   -3.8845   -2.4925 C   0  0  0  0  0  0  0  0  0  0  0  0
   -3.7441   -4.8561   -1.5704 C   0  0  0  0  0  0  0  0  0  0  0  0
   -4.3006   -6.3891   -2.1148 Cl  0  0  0  0  0  0  0  0  0  0  0  0
   -3.6586   -4.5913   -0.2087 C   0  0  0  0  0  0  0  0  0  0  0  0
   -3.1990   -3.3438    0.2281 C   0  0  0  0  0  0  0  0  0  0  0  0
   -2.6057    0.2166   -0.8044 C   0  0  0  0  0  0  0  0  0  0  0  0
   -3.5364    0.6377   -2.1242 S   0  0  0  0  0  0  0  0  0  0  0  0
    0.9035    3.6478   -2.8374 H   0  0  0  0  0  0  0  0  0  0  0  0
    0.0095    5.1404   -3.2192 H   0  0  0  0  0  0  0  0  0  0  0  0
    0.9867    5.0718   -1.7300 H   0  0  0  0  0  0  0  0  0  0  0  0
   -2.7109    2.9267   -0.7447 H   0  0  0  0  0  0  0  0  0  0  0  0
   -1.9655    3.0965    0.8369 H   0  0  0  0  0  0  0  0  0  0  0  0
   -0.2833    2.1510    1.9688 H   0  0  0  0  0  0  0  0  0  0  0  0
   -0.8992    0.9685    3.0981 H   0  0  0  0  0  0  0  0  0  0  0  0
    1.5285    1.6981    0.6886 H   0  0  0  0  0  0  0  0  0  0  0  0
    3.4583    1.9945   -0.4740 H   0  0  0  0  0  0  0  0  0  0  0  0
    5.8244    1.4398   -0.8671 H   0  0  0  0  0  0  0  0  0  0  0  0
    5.6839   -1.4430    2.3249 H   0  0  0  0  0  0  0  0  0  0  0  0
    3.3410   -0.8923    2.7394 H   0  0  0  0  0  0  0  0  0  0  0  0
   -0.3730   -1.6307    2.2303 H   0  0  0  0  0  0  0  0  0  0  0  0
   -2.5769   -1.9306   -2.8025 H   0  0  0  0  0  0  0  0  0  0  0  0
   -3.4175   -4.0883   -3.5594 H   0  0  0  0  0  0  0  0  0  0  0  0
   -3.9464   -5.3424    0.5224 H   0  0  0  0  0  0  0  0  0  0  0  0
   -3.1639   -3.1609    1.2994 H   0  0  0  0  0  0  0  0  0  0  0  0
  1  2  1  0
  2  3  1  0
  3  4  2  0
  3  5  1  0
  5  6  1  0
  6  7  1  0
  7  8  1  0
  8  9  1  0
  9 10  2  0
  9 11  1  0
 11 12  1  0
 12 13  2  0
 13 14  1  0
 14 15  2  0
 15 16  1  0
 15 17  1  0
 17 18  2  0
  7 19  2  0
 19 20  1  0
 19 21  1  0
 21 22  1  0
 22 23  2  0
 23 24  1  0
 24 25  2  0
 25 26  1  0
 25 27  1  0
 27 28  2  0
 21 29  1  0
 29 30  2  0
 29  6  1  0
 18 12  1  0
 28 22  1  0
  1 31  1  0
  1 32  1  0
  1 33  1  0
  5 34  1  0
  5 35  1  0
  8 36  1  0
  8 37  1  0
 11 38  1  0
 13 39  1  0
 14 40  1  0
 17 41  1  0
 18 42  1  0
 20 43  1  0
 23 44  1  0
 24 45  1  0
 27 46  1  0
 28 47  1  0
M  END
$$$$
