
     RDKit          3D

 41 42  0  0  0  0  0  0  0  0999 V2000
   -4.1650    1.1295   -1.3627 C   0  0  0  0  0  0  0  0  0  0  0  0
   -3.5942    1.3792    0.0258 C   0  0  0  0  0  0  0  0  0  0  0  0
   -2.6230    0.3280    0.3880 N   0  0  0  0  0  0  0  0  0  0  0  0
   -3.2427   -0.8409    1.0454 C   0  0  0  0  0  0  0  0  0  0  0  0
   -3.1555   -0.7196    2.5596 C   0  0  0  0  0  0  0  0  0  0  0  0
   -1.2310    0.4447    0.1629 C   0  0  0  0  0  0  0  0  0  0  0  0
   -0.3314   -0.5092    0.4956 C   0  0  0  0  0  0  0  0  0  0  0  0
    1.1012   -0.3806    0.2824 C   0  0  0  0  0  0  0  0  0  0  0  0
    1.8957   -1.4626    0.2002 C   0  0  0  0  0  0  0  0  0  0  0  0
    3.3050   -1.3803   -0.1883 C   0  0  0  0  0  0  0  0  0  0  0  0
    4.1978   -2.3763    0.0352 C   0  0  0  0  0  0  0  0  0  0  0  0
    5.5532   -2.2725   -0.3941 C   0  0  0  0  0  0  0  0  0  0  0  0
    6.6540   -2.1763   -0.7492 N   0  0  0  0  0  0  0  0  0  0  0  0
    3.8373   -3.5774    0.7151 C   0  0  0  0  0  0  0  0  0  0  0  0
    3.5324   -4.5533    1.2647 N   0  0  0  0  0  0  0  0  0  0  0  0
    3.6421   -0.0866   -0.9183 C   0  0  0  0  0  0  0  0  0  0  0  0
    3.1094    1.1270   -0.1623 C   0  0  0  0  0  0  0  0  0  0  0  0
    1.6026    1.0369    0.1199 C   0  0  0  0  0  0  0  0  0  0  0  0
    0.7473    1.7040   -0.9550 C   0  0  0  0  0  0  0  0  0  0  0  0
   -0.7240    1.7258   -0.5100 C   0  0  0  0  0  0  0  0  0  0  0  0
   -4.8771    1.9178   -1.6259 H   0  0  0  0  0  0  0  0  0  0  0  0
   -3.3795    1.1120   -2.1241 H   0  0  0  0  0  0  0  0  0  0  0  0
   -4.6906    0.1701   -1.4081 H   0  0  0  0  0  0  0  0  0  0  0  0
   -4.4157    1.3984    0.7531 H   0  0  0  0  0  0  0  0  0  0  0  0
   -3.1456    2.3767    0.0751 H   0  0  0  0  0  0  0  0  0  0  0  0
   -4.2989   -0.9232    0.7598 H   0  0  0  0  0  0  0  0  0  0  0  0
   -2.7818   -1.7745    0.7047 H   0  0  0  0  0  0  0  0  0  0  0  0
   -3.6377   -1.5789    3.0359 H   0  0  0  0  0  0  0  0  0  0  0  0
   -3.6555    0.1890    2.9108 H   0  0  0  0  0  0  0  0  0  0  0  0
   -2.1170   -0.6814    2.9024 H   0  0  0  0  0  0  0  0  0  0  0  0
   -0.6592   -1.4496    0.9252 H   0  0  0  0  0  0  0  0  0  0  0  0
    1.4650   -2.4489    0.3693 H   0  0  0  0  0  0  0  0  0  0  0  0
    4.7198    0.0458   -1.0569 H   0  0  0  0  0  0  0  0  0  0  0  0
    3.2016   -0.1198   -1.9236 H   0  0  0  0  0  0  0  0  0  0  0  0
    3.3489    2.0462   -0.7098 H   0  0  0  0  0  0  0  0  0  0  0  0
    3.6413    1.1963    0.7970 H   0  0  0  0  0  0  0  0  0  0  0  0
    1.4325    1.5762    1.0638 H   0  0  0  0  0  0  0  0  0  0  0  0
    1.0812    2.7324   -1.1374 H   0  0  0  0  0  0  0  0  0  0  0  0
    0.8376    1.1667   -1.9085 H   0  0  0  0  0  0  0  0  0  0  0  0
   -0.8548    2.5536    0.1991 H   0  0  0  0  0  0  0  0  0  0  0  0
   -1.3256    1.9552   -1.3960 H   0  0  0  0  0  0  0  0  0  0  0  0
  1  2  1  0
  2  3  1  0
  3  4  1  0
  4  5  1  0
  3  6  1  0
  6  7  2  0
  7  8  1  0
  8  9  2  0
  9 10  1  0
 10 11  2  3
 11 12  1  0
 12 13  3  0
 11 14  1  0
 14 15  3  0
 10 16  1  0
 16 17  1  0
 17 18  1  0
 18 19  1  0
 19 20  1  0
 20  6  1  0
 18  8  1  0
  1 21  1  0
  1 22  1  0
  1 23  1  0
  2 24  1  0
  2 25  1  0
  4 26  1  0
  4 27  1  0
  5 28  1  0
  5 29  1  0
  5 30  1  0
  7 31  1  0
  9 32  1  0
 16 33  1  0
 16 34  1  0
 17 35  1  0
 17 36  1  0
 18 37  1  0
 19 38  1  0
 19 39  1  0
 20 40  1  0
 20 41  1  0
M  END
$$$$
