
     RDKit          3D

 57 59  0  0  0  0  0  0  0  0999 V2000
   -1.3795   -3.4645   -2.2080 C   0  0  0  0  0  0  0  0  0  0  0  0
   -2.3260   -3.1368   -1.0607 C   0  0  0  0  0  0  0  0  0  0  0  0
   -1.5837   -2.6487    0.1836 C   0  0  0  0  0  0  0  0  0  0  0  0
   -0.7965   -1.4914   -0.0973 O   0  0  0  0  0  0  0  0  0  0  0  0
   -1.3323   -0.2442    0.0963 C   0  0  0  0  0  0  0  0  0  0  0  0
   -2.6934    0.0212    0.3258 C   0  0  0  0  0  0  0  0  0  0  0  0
   -3.2044    1.3236    0.5055 C   0  0  0  0  0  0  0  0  0  0  0  0
   -4.5564    1.5678    0.7350 N   0  0  0  0  0  0  0  0  0  0  0  0
   -5.0597    2.9050    1.0813 C   0  0  0  0  0  0  0  0  0  0  0  0
   -5.4037    3.7013   -0.1700 C   0  0  0  0  0  0  0  0  0  0  0  0
   -5.5708    0.5076    0.6593 C   0  0  0  0  0  0  0  0  0  0  0  0
   -5.7240   -0.2013    1.9977 C   0  0  0  0  0  0  0  0  0  0  0  0
   -2.2607    2.3607    0.4319 C   0  0  0  0  0  0  0  0  0  0  0  0
   -0.9015    2.1248    0.1910 C   0  0  0  0  0  0  0  0  0  0  0  0
   -0.4278    0.8247    0.0256 C   0  0  0  0  0  0  0  0  0  0  0  0
    1.0079    0.6416   -0.2439 C   0  0  0  0  0  0  0  0  0  0  0  0
    1.8955    0.0404    0.5742 C   0  0  0  0  0  0  0  0  0  0  0  0
    1.5107   -0.4831    1.8485 C   0  0  0  0  0  0  0  0  0  0  0  0
    1.2966   -0.9281    2.8999 N   0  0  0  0  0  0  0  0  0  0  0  0
    3.2530   -0.0405    0.1289 C   0  0  0  0  0  0  0  0  0  0  0  0
    3.8069    0.3704   -1.0005 N   0  0  0  0  0  0  0  0  0  0  0  0
    5.1396    0.0536   -0.9143 C   0  0  0  0  0  0  0  0  0  0  0  0
    6.1753    0.2684   -1.8353 C   0  0  0  0  0  0  0  0  0  0  0  0
    7.4770   -0.1538   -1.5111 C   0  0  0  0  0  0  0  0  0  0  0  0
    8.6049    0.1006   -2.4687 C   0  0  0  0  0  0  0  0  0  0  0  0
    7.7259   -0.7588   -0.2691 C   0  0  0  0  0  0  0  0  0  0  0  0
    6.7021   -0.9834    0.6612 C   0  0  0  0  0  0  0  0  0  0  0  0
    5.4230   -0.5620    0.2961 C   0  0  0  0  0  0  0  0  0  0  0  0
    4.2127   -0.6167    0.9396 N   0  0  0  0  0  0  0  0  0  0  0  0
   -0.6546   -4.2289   -1.9126 H   0  0  0  0  0  0  0  0  0  0  0  0
   -1.9444   -3.8465   -3.0650 H   0  0  0  0  0  0  0  0  0  0  0  0
   -0.8291   -2.5770   -2.5370 H   0  0  0  0  0  0  0  0  0  0  0  0
   -3.0302   -2.3739   -1.4085 H   0  0  0  0  0  0  0  0  0  0  0  0
   -2.9090   -4.0308   -0.8051 H   0  0  0  0  0  0  0  0  0  0  0  0
   -0.8823   -3.4272    0.5043 H   0  0  0  0  0  0  0  0  0  0  0  0
   -2.2596   -2.4995    1.0333 H   0  0  0  0  0  0  0  0  0  0  0  0
   -3.3804   -0.8125    0.3644 H   0  0  0  0  0  0  0  0  0  0  0  0
   -5.9677    2.8100    1.6906 H   0  0  0  0  0  0  0  0  0  0  0  0
   -4.3558    3.4549    1.7164 H   0  0  0  0  0  0  0  0  0  0  0  0
   -5.7959    4.6858    0.1051 H   0  0  0  0  0  0  0  0  0  0  0  0
   -4.5291    3.8514   -0.8099 H   0  0  0  0  0  0  0  0  0  0  0  0
   -6.1655    3.1879   -0.7664 H   0  0  0  0  0  0  0  0  0  0  0  0
   -5.3535   -0.2074   -0.1423 H   0  0  0  0  0  0  0  0  0  0  0  0
   -6.5408    0.9437    0.3869 H   0  0  0  0  0  0  0  0  0  0  0  0
   -6.4932   -0.9769    1.9281 H   0  0  0  0  0  0  0  0  0  0  0  0
   -6.0212    0.5012    2.7839 H   0  0  0  0  0  0  0  0  0  0  0  0
   -4.7910   -0.6771    2.3155 H   0  0  0  0  0  0  0  0  0  0  0  0
   -2.5576    3.3988    0.5427 H   0  0  0  0  0  0  0  0  0  0  0  0
   -0.2226    2.9729    0.1342 H   0  0  0  0  0  0  0  0  0  0  0  0
    1.3319    1.0476   -1.2031 H   0  0  0  0  0  0  0  0  0  0  0  0
    5.9554    0.7533   -2.7807 H   0  0  0  0  0  0  0  0  0  0  0  0
    9.0488    1.0804   -2.2710 H   0  0  0  0  0  0  0  0  0  0  0  0
    8.2512    0.0740   -3.5050 H   0  0  0  0  0  0  0  0  0  0  0  0
    9.3806   -0.6662   -2.3710 H   0  0  0  0  0  0  0  0  0  0  0  0
    8.7386   -1.0674   -0.0124 H   0  0  0  0  0  0  0  0  0  0  0  0
    6.9042   -1.4569    1.6163 H   0  0  0  0  0  0  0  0  0  0  0  0
    4.0624   -1.0120    1.8585 H   0  0  0  0  0  0  0  0  0  0  0  0
  1  2  1  0
  2  3  1  0
  3  4  1  0
  4  5  1  0
  5  6  2  0
  6  7  1  0
  7  8  1  0
  8  9  1  0
  9 10  1  0
  8 11  1  0
 11 12  1  0
  7 13  2  0
 13 14  1  0
 14 15  2  0
 15 16  1  0
 16 17  2  3
 17 18  1  0
 18 19  3  0
 17 20  1  0
 20 21  2  0
 21 22  1  0
 22 23  2  0
 23 24  1  0
 24 25  1  0
 24 26  2  0
 26 27  1  0
 27 28  2  0
 28 29  1  0
 15  5  1  0
 29 20  1  0
 28 22  1  0
  1 30  1  0
  1 31  1  0
  1 32  1  0
  2 33  1  0
  2 34  1  0
  3 35  1  0
  3 36  1  0
  6 37  1  0
  9 38  1  0
  9 39  1  0
 10 40  1  0
 10 41  1  0
 10 42  1  0
 11 43  1  0
 11 44  1  0
 12 45  1  0
 12 46  1  0
 12 47  1  0
 13 48  1  0
 14 49  1  0
 16 50  1  0
 23 51  1  0
 25 52  1  0
 25 53  1  0
 25 54  1  0
 26 55  1  0
 27 56  1  0
 29 57  1  0
M  END
$$$$
