
     RDKit          3D

 51 53  0  0  0  0  0  0  0  0999 V2000
   -6.4220    1.3036    0.5681 O   0  0  0  0  0  0  0  0  0  0  0  0
   -5.3566    1.4349   -0.0251 C   0  0  0  0  0  0  0  0  0  0  0  0
   -4.8410    2.8190   -0.4334 C   0  0  0  0  0  0  0  0  0  0  0  0
   -3.4244    2.8695   -0.6394 O   0  0  0  0  0  0  0  0  0  0  0  0
   -2.6880    2.9839    0.5028 C   0  0  0  0  0  0  0  0  0  0  0  0
   -3.1490    3.0404    1.6315 O   0  0  0  0  0  0  0  0  0  0  0  0
   -1.2238    3.0249    0.1592 C   0  0  0  0  0  0  0  0  0  0  0  0
   -0.3770    2.9572    1.4269 C   0  0  0  0  0  0  0  0  0  0  0  0
    1.0558    2.9161    1.1204 N   0  0  0  0  0  0  0  0  0  0  0  0
    1.6295    1.6913    0.8222 C   0  0  0  0  0  0  0  0  0  0  0  0
    1.0363    0.6229    0.7700 O   0  0  0  0  0  0  0  0  0  0  0  0
    3.0798    1.8540    0.5365 C   0  0  0  0  0  0  0  0  0  0  0  0
    3.8631    0.8064    0.2437 C   0  0  0  0  0  0  0  0  0  0  0  0
    5.2834    0.8458   -0.0542 C   0  0  0  0  0  0  0  0  0  0  0  0
    6.0605   -0.2129   -0.3359 C   0  0  0  0  0  0  0  0  0  0  0  0
    5.6262   -1.6106   -0.3828 C   0  0  0  0  0  0  0  0  0  0  0  0
    5.4150   -2.2327   -1.6172 C   0  0  0  0  0  0  0  0  0  0  0  0
    4.9977   -3.5639   -1.6702 C   0  0  0  0  0  0  0  0  0  0  0  0
    4.7902   -4.2782   -0.4908 C   0  0  0  0  0  0  0  0  0  0  0  0
    5.0006   -3.6634    0.7425 C   0  0  0  0  0  0  0  0  0  0  0  0
    5.4182   -2.3325    0.7976 C   0  0  0  0  0  0  0  0  0  0  0  0
    3.5160    3.5120    0.6390 S   0  0  0  0  0  0  0  0  0  0  0  0
    1.8790    4.0190    1.0360 C   0  0  0  0  0  0  0  0  0  0  0  0
    1.4737    5.6228    1.2471 S   0  0  0  0  0  0  0  0  0  0  0  0
   -4.5330    0.4120   -0.4577 N   0  0  0  0  0  0  0  0  0  0  0  0
   -4.6849   -0.9735   -0.2452 C   0  0  0  0  0  0  0  0  0  0  0  0
   -5.7292   -1.5519    0.4740 C   0  0  0  0  0  0  0  0  0  0  0  0
   -5.7734   -2.9376    0.6268 C   0  0  0  0  0  0  0  0  0  0  0  0
   -6.7784   -3.4904    1.3184 F   0  0  0  0  0  0  0  0  0  0  0  0
   -4.7952   -3.7630    0.0782 C   0  0  0  0  0  0  0  0  0  0  0  0
   -3.7482   -3.1949   -0.6411 C   0  0  0  0  0  0  0  0  0  0  0  0
   -3.7031   -1.8117   -0.7958 C   0  0  0  0  0  0  0  0  0  0  0  0
   -2.6914   -1.2693   -1.4925 F   0  0  0  0  0  0  0  0  0  0  0  0
   -5.1541    3.5620    0.3089 H   0  0  0  0  0  0  0  0  0  0  0  0
   -5.3172    3.0792   -1.3845 H   0  0  0  0  0  0  0  0  0  0  0  0
   -1.0187    3.9478   -0.3929 H   0  0  0  0  0  0  0  0  0  0  0  0
   -0.9959    2.1716   -0.4893 H   0  0  0  0  0  0  0  0  0  0  0  0
   -0.5939    3.8090    2.0796 H   0  0  0  0  0  0  0  0  0  0  0  0
   -0.6333    2.0551    1.9968 H   0  0  0  0  0  0  0  0  0  0  0  0
    3.3974   -0.1796    0.2202 H   0  0  0  0  0  0  0  0  0  0  0  0
    5.7641    1.8227   -0.0589 H   0  0  0  0  0  0  0  0  0  0  0  0
    7.1137   -0.0575   -0.5610 H   0  0  0  0  0  0  0  0  0  0  0  0
    5.5700   -1.6845   -2.5433 H   0  0  0  0  0  0  0  0  0  0  0  0
    4.8350   -4.0435   -2.6318 H   0  0  0  0  0  0  0  0  0  0  0  0
    4.4666   -5.3152   -0.5334 H   0  0  0  0  0  0  0  0  0  0  0  0
    4.8392   -4.2199    1.6620 H   0  0  0  0  0  0  0  0  0  0  0  0
    5.5788   -1.8628    1.7647 H   0  0  0  0  0  0  0  0  0  0  0  0
   -3.7102    0.6832   -0.9892 H   0  0  0  0  0  0  0  0  0  0  0  0
   -6.5187   -0.9657    0.9300 H   0  0  0  0  0  0  0  0  0  0  0  0
   -4.8584   -4.8374    0.2182 H   0  0  0  0  0  0  0  0  0  0  0  0
   -2.9709   -3.8139   -1.0773 H   0  0  0  0  0  0  0  0  0  0  0  0
  1  2  2  0
  2  3  1  0
  3  4  1  0
  4  5  1  0
  5  6  2  0
  5  7  1  0
  7  8  1  0
  8  9  1  0
  9 10  1  0
 10 11  2  0
 10 12  1  0
 12 13  2  3
 13 14  1  0
 14 15  2  3
 15 16  1  0
 16 17  2  0
 17 18  1  0
 18 19  2  0
 19 20  1  0
 20 21  2  0
 12 22  1  0
 22 23  1  0
 23 24  2  0
  2 25  1  0
 25 26  1  0
 26 27  2  0
 27 28  1  0
 28 29  1  0
 28 30  2  0
 30 31  1  0
 31 32  2  0
 32 33  1  0
 23  9  1  0
 32 26  1  0
 21 16  1  0
  3 34  1  0
  3 35  1  0
  7 36  1  0
  7 37  1  0
  8 38  1  0
  8 39  1  0
 13 40  1  0
 14 41  1  0
 15 42  1  0
 17 43  1  0
 18 44  1  0
 19 45  1  0
 20 46  1  0
 21 47  1  0
 25 48  1  0
 27 49  1  0
 30 50  1  0
 31 51  1  0
M  END
$$$$
