
     RDKit          3D

 47 50  0  0  0  0  0  0  0  0999 V2000
    5.9885    0.7685   -2.0486 C   0  0  0  0  0  0  0  0  0  0  0  0
    6.6360    0.4772   -0.9108 C   0  0  0  0  0  0  0  0  0  0  0  0
    6.1300   -0.2603    0.3047 C   0  0  0  0  0  0  0  0  0  0  0  0
    4.7331   -0.6506    0.1805 N   0  0  0  0  0  0  0  0  0  0  0  0
    4.4619   -1.9036   -0.3292 C   0  0  0  0  0  0  0  0  0  0  0  0
    5.3192   -2.7020   -0.7032 O   0  0  0  0  0  0  0  0  0  0  0  0
    3.1504   -2.2593   -0.4219 N   0  0  0  0  0  0  0  0  0  0  0  0
    2.0616   -1.4604   -0.2383 C   0  0  0  0  0  0  0  0  0  0  0  0
    0.9564   -1.8375   -0.6053 O   0  0  0  0  0  0  0  0  0  0  0  0
    2.3537   -0.1564    0.3944 C   0  0  0  0  0  0  0  0  0  0  0  0
    1.4070    0.7251    0.7767 C   0  0  0  0  0  0  0  0  0  0  0  0
   -0.0463    0.5727    0.6750 C   0  0  0  0  0  0  0  0  0  0  0  0
   -0.7457   -0.2362    1.5702 C   0  0  0  0  0  0  0  0  0  0  0  0
   -2.1437   -0.3582    1.4854 C   0  0  0  0  0  0  0  0  0  0  0  0
   -2.8635    0.3220    0.4796 C   0  0  0  0  0  0  0  0  0  0  0  0
   -2.1480    1.1601   -0.4023 C   0  0  0  0  0  0  0  0  0  0  0  0
   -0.7499    1.2712   -0.3054 C   0  0  0  0  0  0  0  0  0  0  0  0
   -2.8525    1.9091   -1.5055 C   0  0  0  0  0  0  0  0  0  0  0  0
   -4.3512    2.0019   -1.2649 C   0  0  0  0  0  0  0  0  0  0  0  0
   -4.8797    0.6369   -0.8577 C   0  0  0  0  0  0  0  0  0  0  0  0
   -4.2621    0.2182    0.3993 N   0  0  0  0  0  0  0  0  0  0  0  0
   -4.8744   -0.9230    1.0774 C   0  0  0  0  0  0  0  0  0  0  0  0
   -4.3424   -1.0285    2.4967 C   0  0  0  0  0  0  0  0  0  0  0  0
   -2.8431   -1.2785    2.4540 C   0  0  0  0  0  0  0  0  0  0  0  0
    3.7708    0.2415    0.6305 C   0  0  0  0  0  0  0  0  0  0  0  0
    4.0472    1.2997    1.1949 O   0  0  0  0  0  0  0  0  0  0  0  0
    4.9592    0.4837   -2.2332 H   0  0  0  0  0  0  0  0  0  0  0  0
    6.4940    1.3125   -2.8419 H   0  0  0  0  0  0  0  0  0  0  0  0
    7.6710    0.8074   -0.8265 H   0  0  0  0  0  0  0  0  0  0  0  0
    6.2611    0.3814    1.1834 H   0  0  0  0  0  0  0  0  0  0  0  0
    6.7547   -1.1470    0.4625 H   0  0  0  0  0  0  0  0  0  0  0  0
    2.9714   -3.1480   -0.8678 H   0  0  0  0  0  0  0  0  0  0  0  0
    1.6939    1.6789    1.2203 H   0  0  0  0  0  0  0  0  0  0  0  0
   -0.2086   -0.7835    2.3411 H   0  0  0  0  0  0  0  0  0  0  0  0
   -0.2151    1.9077   -1.0069 H   0  0  0  0  0  0  0  0  0  0  0  0
   -2.6632    1.3854   -2.4509 H   0  0  0  0  0  0  0  0  0  0  0  0
   -2.4425    2.9219   -1.5968 H   0  0  0  0  0  0  0  0  0  0  0  0
   -4.8548    2.3556   -2.1711 H   0  0  0  0  0  0  0  0  0  0  0  0
   -4.5568    2.7317   -0.4710 H   0  0  0  0  0  0  0  0  0  0  0  0
   -4.6913   -0.1078   -1.6417 H   0  0  0  0  0  0  0  0  0  0  0  0
   -5.9663    0.7051   -0.7283 H   0  0  0  0  0  0  0  0  0  0  0  0
   -5.9613   -0.7857    1.1189 H   0  0  0  0  0  0  0  0  0  0  0  0
   -4.6841   -1.8470    0.5163 H   0  0  0  0  0  0  0  0  0  0  0  0
   -4.5499   -0.0980    3.0411 H   0  0  0  0  0  0  0  0  0  0  0  0
   -4.8423   -1.8402    3.0363 H   0  0  0  0  0  0  0  0  0  0  0  0
   -2.4313   -1.1505    3.4620 H   0  0  0  0  0  0  0  0  0  0  0  0
   -2.6511   -2.3132    2.1435 H   0  0  0  0  0  0  0  0  0  0  0  0
  1  2  2  0
  2  3  1  0
  3  4  1  0
  4  5  1  0
  5  6  2  0
  5  7  1  0
  7  8  1  0
  8  9  2  0
  8 10  1  0
 10 11  2  3
 11 12  1  0
 12 13  2  0
 13 14  1  0
 14 15  2  0
 15 16  1  0
 16 17  2  0
 16 18  1  0
 18 19  1  0
 19 20  1  0
 20 21  1  0
 21 22  1  0
 22 23  1  0
 23 24  1  0
 10 25  1  0
 25 26  2  0
 25  4  1  0
 17 12  1  0
 24 14  1  0
 21 15  1  0
  1 27  1  0
  1 28  1  0
  2 29  1  0
  3 30  1  0
  3 31  1  0
  7 32  1  0
 11 33  1  0
 13 34  1  0
 17 35  1  0
 18 36  1  0
 18 37  1  0
 19 38  1  0
 19 39  1  0
 20 40  1  0
 20 41  1  0
 22 42  1  0
 22 43  1  0
 23 44  1  0
 23 45  1  0
 24 46  1  0
 24 47  1  0
M  END
$$$$
