
     RDKit          3D

 30 31  0  0  0  0  0  0  0  0999 V2000
    5.4546    0.8225   -0.3349 C   0  0  0  0  0  0  0  0  0  0  0  0
    4.5280   -0.2743   -0.1846 N   0  0  0  0  0  0  0  0  0  0  0  0
    4.8051   -1.6007   -0.3081 C   0  0  0  0  0  0  0  0  0  0  0  0
    3.6153   -2.2433   -0.0824 C   0  0  0  0  0  0  0  0  0  0  0  0
    3.3458   -4.0945   -0.1141 Br  0  0  0  0  0  0  0  0  0  0  0  0
    2.6568   -1.2352    0.1748 C   0  0  0  0  0  0  0  0  0  0  0  0
    1.2243   -1.3670    0.4703 C   0  0  0  0  0  0  0  0  0  0  0  0
    0.6078   -2.4322    0.4919 O   0  0  0  0  0  0  0  0  0  0  0  0
    0.5997   -0.1544    0.7123 N   0  0  0  0  0  0  0  0  0  0  0  0
   -0.8054   -0.1126    0.6935 N   0  0  0  0  0  0  0  0  0  0  0  0
   -1.3941    0.9502    0.0337 C   0  0  0  0  0  0  0  0  0  0  0  0
   -0.7582    1.9172   -0.3776 O   0  0  0  0  0  0  0  0  0  0  0  0
   -2.8634    0.8574   -0.1949 C   0  0  0  0  0  0  0  0  0  0  0  0
   -3.6969    0.0633    0.6056 C   0  0  0  0  0  0  0  0  0  0  0  0
   -5.0717    0.0139    0.3509 C   0  0  0  0  0  0  0  0  0  0  0  0
   -5.6139    0.7605   -0.6948 C   0  0  0  0  0  0  0  0  0  0  0  0
   -7.3049    0.6963   -1.0024 Cl  0  0  0  0  0  0  0  0  0  0  0  0
   -4.7956    1.5630   -1.4870 C   0  0  0  0  0  0  0  0  0  0  0  0
   -3.4220    1.6147   -1.2347 C   0  0  0  0  0  0  0  0  0  0  0  0
    3.2395   -0.0145    0.1079 N   0  0  0  0  0  0  0  0  0  0  0  0
    5.4851    1.3783    0.6055 H   0  0  0  0  0  0  0  0  0  0  0  0
    5.1027    1.4610   -1.1490 H   0  0  0  0  0  0  0  0  0  0  0  0
    6.4472    0.4305   -0.5698 H   0  0  0  0  0  0  0  0  0  0  0  0
    5.7949   -1.9674   -0.5404 H   0  0  0  0  0  0  0  0  0  0  0  0
    1.1007    0.6983    0.4493 H   0  0  0  0  0  0  0  0  0  0  0  0
   -1.2588   -1.0242    0.7356 H   0  0  0  0  0  0  0  0  0  0  0  0
   -3.3044   -0.5036    1.4454 H   0  0  0  0  0  0  0  0  0  0  0  0
   -5.7144   -0.6015    0.9759 H   0  0  0  0  0  0  0  0  0  0  0  0
   -5.2169    2.1515   -2.2980 H   0  0  0  0  0  0  0  0  0  0  0  0
   -2.7870    2.2470   -1.8535 H   0  0  0  0  0  0  0  0  0  0  0  0
  1  2  1  0
  2  3  1  0
  3  4  2  0
  4  5  1  0
  4  6  1  0
  6  7  1  0
  7  8  2  0
  7  9  1  0
  9 10  1  0
 10 11  1  0
 11 12  2  0
 11 13  1  0
 13 14  2  0
 14 15  1  0
 15 16  2  0
 16 17  1  0
 16 18  1  0
 18 19  2  0
  6 20  2  0
 20  2  1  0
 19 13  1  0
  1 21  1  0
  1 22  1  0
  1 23  1  0
  3 24  1  0
  9 25  1  0
 10 26  1  0
 14 27  1  0
 15 28  1  0
 18 29  1  0
 19 30  1  0
M  END
$$$$
