
     RDKit          3D

 66 68  0  0  0  0  0  0  0  0999 V2000
   -2.3193   -0.0311    2.8111 C   0  0  0  0  0  0  0  0  0  0  0  0
   -3.6307   -0.5869    2.2836 C   0  0  0  0  0  0  0  0  0  0  0  0
   -4.3338    0.4787    1.6354 O   0  0  0  0  0  0  0  0  0  0  0  0
   -5.3376    0.0042    0.8272 C   0  0  0  0  0  0  0  0  0  0  0  0
   -6.4050   -0.7230    1.3623 C   0  0  0  0  0  0  0  0  0  0  0  0
   -7.4295   -1.1723    0.5275 C   0  0  0  0  0  0  0  0  0  0  0  0
   -7.3953   -0.8862   -0.8368 C   0  0  0  0  0  0  0  0  0  0  0  0
   -6.3427   -0.1380   -1.3688 C   0  0  0  0  0  0  0  0  0  0  0  0
   -5.3104    0.3204   -0.5396 C   0  0  0  0  0  0  0  0  0  0  0  0
   -4.2226    1.1159   -1.1205 C   0  0  0  0  0  0  0  0  0  0  0  0
   -3.0886    0.6743   -1.6887 C   0  0  0  0  0  0  0  0  0  0  0  0
   -2.7225   -0.6963   -1.8486 C   0  0  0  0  0  0  0  0  0  0  0  0
   -3.5370   -1.7613   -1.5282 O   0  0  0  0  0  0  0  0  0  0  0  0
   -2.9243   -2.9617   -1.8028 N   0  0  0  0  0  0  0  0  0  0  0  0
   -1.7220   -2.6571   -2.2993 C   0  0  0  0  0  0  0  0  0  0  0  0
   -0.8065   -3.7473   -2.7131 C   0  0  0  0  0  0  0  0  0  0  0  0
   -1.5467   -1.2577   -2.3289 C   0  0  0  0  0  0  0  0  0  0  0  0
   -0.1615   -0.4027   -2.8415 S   0  0  0  0  0  6  0  0  0  0  0  0
    0.8662   -1.3951   -3.0676 O   0  0  0  0  0  0  0  0  0  0  0  0
   -0.6410    0.4397   -3.9159 O   0  0  0  0  0  0  0  0  0  0  0  0
    0.3640    0.6068   -1.5713 N   0  0  0  0  0  0  0  0  0  0  0  0
    0.6500   -0.0910   -0.2870 C   0  0  0  0  0  0  0  0  0  0  0  0
    1.3456    0.8624    0.6786 C   0  0  0  0  0  0  0  0  0  0  0  0
    2.7367    1.2625    0.1501 C   0  0  0  0  0  0  0  0  0  0  0  0
    3.7962    0.2661    0.6343 C   0  0  0  0  0  0  0  0  0  0  0  0
    3.4619   -0.8794    0.9491 O   0  0  0  0  0  0  0  0  0  0  0  0
    5.1324    0.6635    0.6454 N   0  0  0  0  0  0  0  0  0  0  0  0
    5.5973    2.0448    0.4886 C   0  0  0  0  0  0  0  0  0  0  0  0
    5.6147    2.8214    1.7959 C   0  0  0  0  0  0  0  0  0  0  0  0
    6.1267   -0.3403    1.0378 C   0  0  0  0  0  0  0  0  0  0  0  0
    6.1951   -0.5794    2.5391 C   0  0  0  0  0  0  0  0  0  0  0  0
    2.7513    1.3079   -1.3882 C   0  0  0  0  0  0  0  0  0  0  0  0
    1.3777    1.6216   -1.9662 C   0  0  0  0  0  0  0  0  0  0  0  0
   -2.5021    0.7983    3.5034 H   0  0  0  0  0  0  0  0  0  0  0  0
   -1.7122    0.3681    1.9918 H   0  0  0  0  0  0  0  0  0  0  0  0
   -1.7478   -0.8074    3.3293 H   0  0  0  0  0  0  0  0  0  0  0  0
   -3.4203   -1.4060    1.5832 H   0  0  0  0  0  0  0  0  0  0  0  0
   -4.2215   -0.9692    3.1237 H   0  0  0  0  0  0  0  0  0  0  0  0
   -6.4541   -0.9291    2.4265 H   0  0  0  0  0  0  0  0  0  0  0  0
   -8.2548   -1.7442    0.9425 H   0  0  0  0  0  0  0  0  0  0  0  0
   -8.1881   -1.2456   -1.4873 H   0  0  0  0  0  0  0  0  0  0  0  0
   -6.3290    0.0785   -2.4344 H   0  0  0  0  0  0  0  0  0  0  0  0
   -4.3837    2.1898   -1.0430 H   0  0  0  0  0  0  0  0  0  0  0  0
   -2.3945    1.4292   -2.0527 H   0  0  0  0  0  0  0  0  0  0  0  0
   -1.2991   -4.7232   -2.6606 H   0  0  0  0  0  0  0  0  0  0  0  0
   -0.4774   -3.6037   -3.7472 H   0  0  0  0  0  0  0  0  0  0  0  0
    0.0713   -3.7844   -2.0613 H   0  0  0  0  0  0  0  0  0  0  0  0
   -0.2998   -0.4084    0.1548 H   0  0  0  0  0  0  0  0  0  0  0  0
    1.2591   -0.9846   -0.4582 H   0  0  0  0  0  0  0  0  0  0  0  0
    1.4142    0.4075    1.6737 H   0  0  0  0  0  0  0  0  0  0  0  0
    0.7325    1.7664    0.7954 H   0  0  0  0  0  0  0  0  0  0  0  0
    2.9547    2.2499    0.5692 H   0  0  0  0  0  0  0  0  0  0  0  0
    6.5981    2.0318    0.0410 H   0  0  0  0  0  0  0  0  0  0  0  0
    4.9550    2.5723   -0.2192 H   0  0  0  0  0  0  0  0  0  0  0  0
    6.3807    2.4373    2.4749 H   0  0  0  0  0  0  0  0  0  0  0  0
    4.6492    2.7655    2.3097 H   0  0  0  0  0  0  0  0  0  0  0  0
    5.8438    3.8748    1.6049 H   0  0  0  0  0  0  0  0  0  0  0  0
    7.1088   -0.0428    0.6548 H   0  0  0  0  0  0  0  0  0  0  0  0
    5.8705   -1.2847    0.5430 H   0  0  0  0  0  0  0  0  0  0  0  0
    6.5342    0.3115    3.0739 H   0  0  0  0  0  0  0  0  0  0  0  0
    6.9024   -1.3868    2.7566 H   0  0  0  0  0  0  0  0  0  0  0  0
    5.2208   -0.8632    2.9489 H   0  0  0  0  0  0  0  0  0  0  0  0
    3.1023    0.3515   -1.7972 H   0  0  0  0  0  0  0  0  0  0  0  0
    3.4640    2.0632   -1.7354 H   0  0  0  0  0  0  0  0  0  0  0  0
    1.4547    1.7041   -3.0563 H   0  0  0  0  0  0  0  0  0  0  0  0
    1.0293    2.6001   -1.6113 H   0  0  0  0  0  0  0  0  0  0  0  0
  1  2  1  0
  2  3  1  0
  3  4  1  0
  4  5  2  0
  5  6  1  0
  6  7  2  0
  7  8  1  0
  8  9  2  0
  9 10  1  0
 10 11  2  3
 11 12  1  0
 12 13  1  0
 13 14  1  0
 14 15  2  0
 15 16  1  0
 15 17  1  0
 17 18  1  0
 18 19  2  0
 18 20  2  0
 18 21  1  0
 21 22  1  0
 22 23  1  0
 23 24  1  0
 24 25  1  0
 25 26  2  0
 25 27  1  0
 27 28  1  0
 28 29  1  0
 27 30  1  0
 30 31  1  0
 24 32  1  0
 32 33  1  0
  9  4  1  0
 17 12  2  0
 33 21  1  0
  1 34  1  0
  1 35  1  0
  1 36  1  0
  2 37  1  0
  2 38  1  0
  5 39  1  0
  6 40  1  0
  7 41  1  0
  8 42  1  0
 10 43  1  0
 11 44  1  0
 16 45  1  0
 16 46  1  0
 16 47  1  0
 22 48  1  0
 22 49  1  0
 23 50  1  0
 23 51  1  0
 24 52  1  0
 28 53  1  0
 28 54  1  0
 29 55  1  0
 29 56  1  0
 29 57  1  0
 30 58  1  0
 30 59  1  0
 31 60  1  0
 31 61  1  0
 31 62  1  0
 32 63  1  0
 32 64  1  0
 33 65  1  0
 33 66  1  0
M  END
$$$$
