
     RDKit          3D

 61 64  0  0  0  0  0  0  0  0999 V2000
    7.9525   -1.0426   -2.3862 C   0  0  0  0  0  0  0  0  0  0  0  0
    7.0802   -0.9549   -1.1625 C   0  0  0  0  0  0  0  0  0  0  0  0
    7.6836   -0.6859    0.0745 C   0  0  0  0  0  0  0  0  0  0  0  0
    6.9176   -0.5922    1.2312 C   0  0  0  0  0  0  0  0  0  0  0  0
    5.5371   -0.7647    1.1653 C   0  0  0  0  0  0  0  0  0  0  0  0
    4.8965   -1.0504   -0.0520 C   0  0  0  0  0  0  0  0  0  0  0  0
    3.4934   -1.1760   -0.1287 N   0  0  0  0  0  0  0  0  0  0  0  0
    2.8482    0.1426   -0.3204 C   0  0  0  0  0  0  0  0  0  0  0  0
    1.3179    0.0323   -0.2024 C   0  0  0  0  0  0  0  0  0  0  0  0
    0.8849   -0.5434    1.0814 N   0  0  0  0  0  0  0  0  0  0  0  0
   -0.4293   -0.5810    1.5255 C   0  0  0  0  0  0  0  0  0  0  0  0
   -0.8029   -1.1703    2.5349 O   0  0  0  0  0  0  0  0  0  0  0  0
   -1.4571    0.1136    0.7282 C   0  0  0  0  0  0  0  0  0  0  0  0
   -2.3546   -0.6443   -0.0291 C   0  0  0  0  0  0  0  0  0  0  0  0
   -3.3518    0.0001   -0.7642 C   0  0  0  0  0  0  0  0  0  0  0  0
   -3.4485    1.3937   -0.7301 C   0  0  0  0  0  0  0  0  0  0  0  0
   -4.4982    2.0409   -1.4431 N   0  0  0  0  0  0  0  0  0  0  0  0
   -5.7909    2.6537   -0.5342 S   0  0  0  0  0  6  0  0  0  0  0  0
   -5.2960    3.5477    0.4878 O   0  0  0  0  0  0  0  0  0  0  0  0
   -6.7956    3.0706   -1.4877 O   0  0  0  0  0  0  0  0  0  0  0  0
   -6.5185    1.3572    0.3055 C   0  0  0  0  0  0  0  0  0  0  0  0
   -7.4431    0.4209   -0.2089 C   0  0  0  0  0  0  0  0  0  0  0  0
   -8.0505    0.3341   -1.5579 C   0  0  0  0  0  0  0  0  0  0  0  0
   -7.7635   -0.4895    0.7205 N   0  0  0  0  0  0  0  0  0  0  0  0
   -7.0574   -0.1396    1.8561 O   0  0  0  0  0  0  0  0  0  0  0  0
   -6.3087    0.9698    1.6070 C   0  0  0  0  0  0  0  0  0  0  0  0
   -5.4890    1.4665    2.7285 C   0  0  0  0  0  0  0  0  0  0  0  0
   -2.5626    2.1450    0.0462 C   0  0  0  0  0  0  0  0  0  0  0  0
   -1.5654    1.5055    0.7840 C   0  0  0  0  0  0  0  0  0  0  0  0
    1.9026   -1.3038    1.8178 C   0  0  0  0  0  0  0  0  0  0  0  0
    2.8581   -2.0603    0.8785 C   0  0  0  0  0  0  0  0  0  0  0  0
    5.6804   -1.1644   -1.2269 C   0  0  0  0  0  0  0  0  0  0  0  0
    5.0202   -1.4680   -2.5508 C   0  0  0  0  0  0  0  0  0  0  0  0
    7.5417   -0.4334   -3.1978 H   0  0  0  0  0  0  0  0  0  0  0  0
    8.0380   -2.0832   -2.7146 H   0  0  0  0  0  0  0  0  0  0  0  0
    8.9627   -0.6683   -2.1860 H   0  0  0  0  0  0  0  0  0  0  0  0
    8.7599   -0.5419    0.1425 H   0  0  0  0  0  0  0  0  0  0  0  0
    7.3938   -0.3743    2.1832 H   0  0  0  0  0  0  0  0  0  0  0  0
    4.9597   -0.6558    2.0787 H   0  0  0  0  0  0  0  0  0  0  0  0
    3.0997    0.5406   -1.3106 H   0  0  0  0  0  0  0  0  0  0  0  0
    3.2078    0.8599    0.4300 H   0  0  0  0  0  0  0  0  0  0  0  0
    0.9248   -0.6178   -0.9933 H   0  0  0  0  0  0  0  0  0  0  0  0
    0.8725    1.0224   -0.3294 H   0  0  0  0  0  0  0  0  0  0  0  0
   -2.2836   -1.7298   -0.0344 H   0  0  0  0  0  0  0  0  0  0  0  0
   -4.0506   -0.5986   -1.3423 H   0  0  0  0  0  0  0  0  0  0  0  0
   -4.8399    1.5564   -2.2720 H   0  0  0  0  0  0  0  0  0  0  0  0
   -8.5704   -0.6188   -1.7020 H   0  0  0  0  0  0  0  0  0  0  0  0
   -7.2839    0.4118   -2.3351 H   0  0  0  0  0  0  0  0  0  0  0  0
   -8.7789    1.1380   -1.7016 H   0  0  0  0  0  0  0  0  0  0  0  0
   -5.6254    0.8509    3.6233 H   0  0  0  0  0  0  0  0  0  0  0  0
   -5.7682    2.4920    2.9852 H   0  0  0  0  0  0  0  0  0  0  0  0
   -4.4268    1.4486    2.4693 H   0  0  0  0  0  0  0  0  0  0  0  0
   -2.6488    3.2290    0.0885 H   0  0  0  0  0  0  0  0  0  0  0  0
   -0.8878    2.0868    1.4045 H   0  0  0  0  0  0  0  0  0  0  0  0
    1.4328   -2.0109    2.5090 H   0  0  0  0  0  0  0  0  0  0  0  0
    2.4600   -0.5775    2.4206 H   0  0  0  0  0  0  0  0  0  0  0  0
    3.5934   -2.6246    1.4647 H   0  0  0  0  0  0  0  0  0  0  0  0
    2.2773   -2.8065    0.3212 H   0  0  0  0  0  0  0  0  0  0  0  0
    5.6531   -2.1085   -3.1728 H   0  0  0  0  0  0  0  0  0  0  0  0
    4.0797   -2.0137   -2.4267 H   0  0  0  0  0  0  0  0  0  0  0  0
    4.8178   -0.5362   -3.0875 H   0  0  0  0  0  0  0  0  0  0  0  0
  1  2  1  0
  2  3  2  0
  3  4  1  0
  4  5  2  0
  5  6  1  0
  6  7  1  0
  7  8  1  0
  8  9  1  0
  9 10  1  0
 10 11  1  0
 11 12  2  0
 11 13  1  0
 13 14  2  0
 14 15  1  0
 15 16  2  0
 16 17  1  0
 17 18  1  0
 18 19  2  0
 18 20  2  0
 18 21  1  0
 21 22  1  0
 22 23  1  0
 22 24  2  0
 24 25  1  0
 25 26  1  0
 26 27  1  0
 16 28  1  0
 28 29  2  0
 10 30  1  0
 30 31  1  0
  6 32  2  0
 32 33  1  0
 32  2  1  0
 31  7  1  0
 29 13  1  0
 26 21  2  0
  1 34  1  0
  1 35  1  0
  1 36  1  0
  3 37  1  0
  4 38  1  0
  5 39  1  0
  8 40  1  0
  8 41  1  0
  9 42  1  0
  9 43  1  0
 14 44  1  0
 15 45  1  0
 17 46  1  0
 23 47  1  0
 23 48  1  0
 23 49  1  0
 27 50  1  0
 27 51  1  0
 27 52  1  0
 28 53  1  0
 29 54  1  0
 30 55  1  0
 30 56  1  0
 31 57  1  0
 31 58  1  0
 33 59  1  0
 33 60  1  0
 33 61  1  0
M  END
$$$$
