
     RDKit          3D

 67 71  0  0  0  0  0  0  0  0999 V2000
    0.3462   -1.9193    1.0164 C   0  0  0  0  0  0  0  0  0  0  0  0
    0.1531   -0.5572    0.5171 N   0  0  0  0  0  0  0  0  0  0  0  0
    1.1448   -0.2483   -0.5178 C   0  0  0  0  0  0  0  0  0  0  0  0
    1.0271    1.1615   -1.0160 C   0  0  0  0  0  0  0  0  0  0  0  0
    2.0561    1.9344   -1.4181 C   0  0  0  0  0  0  0  0  0  0  0  0
    3.4505    1.4943   -1.4559 C   0  0  0  0  0  0  0  0  0  0  0  0
    4.3285    1.8613   -0.4397 C   0  0  0  0  0  0  0  0  0  0  0  0
    5.6619    1.4299   -0.4704 C   0  0  0  0  0  0  0  0  0  0  0  0
    6.1640    0.6259   -1.5070 C   0  0  0  0  0  0  0  0  0  0  0  0
    7.4807    0.2038   -1.5272 N   0  0  0  0  0  0  0  0  0  0  0  0
    7.9350   -0.9169   -2.3658 C   0  0  0  0  0  0  0  0  0  0  0  0
    9.2194   -1.5254   -1.7767 C   0  0  0  0  0  0  0  0  0  0  0  0
   10.3112   -0.6002   -1.6715 O   0  0  0  0  0  0  0  0  0  0  0  0
    9.8866    0.7616   -1.5162 C   0  0  0  0  0  0  0  0  0  0  0  0
    8.5378    0.9193   -0.7924 C   0  0  0  0  0  0  0  0  0  0  0  0
    5.2537    0.2705   -2.5156 C   0  0  0  0  0  0  0  0  0  0  0  0
    3.9183    0.6962   -2.4976 C   0  0  0  0  0  0  0  0  0  0  0  0
   -0.3334    1.7803   -1.0688 C   0  0  0  0  0  0  0  0  0  0  0  0
   -0.5213    2.8702   -1.6072 O   0  0  0  0  0  0  0  0  0  0  0  0
   -1.4597    1.0121   -0.4545 C   0  0  0  0  0  0  0  0  0  0  0  0
   -2.6312    1.6654   -0.3210 C   0  0  0  0  0  0  0  0  0  0  0  0
   -3.8455    1.0796    0.2456 C   0  0  0  0  0  0  0  0  0  0  0  0
   -4.8183    0.5359   -0.5909 C   0  0  0  0  0  0  0  0  0  0  0  0
   -5.9753   -0.0315   -0.0440 C   0  0  0  0  0  0  0  0  0  0  0  0
   -6.2026   -0.0661    1.3433 C   0  0  0  0  0  0  0  0  0  0  0  0
   -7.3791   -0.6549    1.8373 N   0  0  0  0  0  0  0  0  0  0  0  0
   -8.6217    0.0024    1.3560 C   0  0  0  0  0  0  0  0  0  0  0  0
   -9.8506   -0.8324    1.7539 C   0  0  0  0  0  0  0  0  0  0  0  0
   -9.8987   -1.0721    3.1694 O   0  0  0  0  0  0  0  0  0  0  0  0
   -8.7162   -1.7729    3.5872 C   0  0  0  0  0  0  0  0  0  0  0  0
   -7.4493   -0.9582    3.2836 C   0  0  0  0  0  0  0  0  0  0  0  0
   -5.2003    0.4721    2.1643 C   0  0  0  0  0  0  0  0  0  0  0  0
   -4.0397    1.0444    1.6262 C   0  0  0  0  0  0  0  0  0  0  0  0
   -1.1926   -0.4044   -0.0442 C   0  0  0  0  0  0  0  0  0  0  0  0
    0.2330   -2.6716    0.2272 H   0  0  0  0  0  0  0  0  0  0  0  0
    1.3428   -2.0288    1.4581 H   0  0  0  0  0  0  0  0  0  0  0  0
   -0.3734   -2.1434    1.8119 H   0  0  0  0  0  0  0  0  0  0  0  0
    2.1415   -0.4084   -0.0895 H   0  0  0  0  0  0  0  0  0  0  0  0
    1.0484   -0.9352   -1.3701 H   0  0  0  0  0  0  0  0  0  0  0  0
    1.8963    2.9592   -1.7503 H   0  0  0  0  0  0  0  0  0  0  0  0
    3.9869    2.4766    0.3892 H   0  0  0  0  0  0  0  0  0  0  0  0
    6.3003    1.7221    0.3589 H   0  0  0  0  0  0  0  0  0  0  0  0
    8.1267   -0.5501   -3.3813 H   0  0  0  0  0  0  0  0  0  0  0  0
    7.1775   -1.7079   -2.4117 H   0  0  0  0  0  0  0  0  0  0  0  0
    9.0244   -1.9199   -0.7721 H   0  0  0  0  0  0  0  0  0  0  0  0
    9.5576   -2.3632   -2.3955 H   0  0  0  0  0  0  0  0  0  0  0  0
    9.8332    1.2076   -2.5174 H   0  0  0  0  0  0  0  0  0  0  0  0
   10.6723    1.2906   -0.9665 H   0  0  0  0  0  0  0  0  0  0  0  0
    8.6067    0.5044    0.2205 H   0  0  0  0  0  0  0  0  0  0  0  0
    8.3204    1.9917   -0.7209 H   0  0  0  0  0  0  0  0  0  0  0  0
    5.5738   -0.3305   -3.3622 H   0  0  0  0  0  0  0  0  0  0  0  0
    3.2574    0.4047   -3.3105 H   0  0  0  0  0  0  0  0  0  0  0  0
   -2.7408    2.6977   -0.6503 H   0  0  0  0  0  0  0  0  0  0  0  0
   -4.6866    0.5418   -1.6704 H   0  0  0  0  0  0  0  0  0  0  0  0
   -6.6997   -0.4757   -0.7226 H   0  0  0  0  0  0  0  0  0  0  0  0
   -8.6965    0.9986    1.8107 H   0  0  0  0  0  0  0  0  0  0  0  0
   -8.6314    0.1207    0.2676 H   0  0  0  0  0  0  0  0  0  0  0  0
  -10.7657   -0.2987    1.4776 H   0  0  0  0  0  0  0  0  0  0  0  0
   -9.8556   -1.7960    1.2308 H   0  0  0  0  0  0  0  0  0  0  0  0
   -8.7967   -1.9453    4.6652 H   0  0  0  0  0  0  0  0  0  0  0  0
   -8.6862   -2.7509    3.0918 H   0  0  0  0  0  0  0  0  0  0  0  0
   -7.4853   -0.0229    3.8566 H   0  0  0  0  0  0  0  0  0  0  0  0
   -6.5766   -1.5414    3.5993 H   0  0  0  0  0  0  0  0  0  0  0  0
   -5.3015    0.4786    3.2451 H   0  0  0  0  0  0  0  0  0  0  0  0
   -3.2906    1.4595    2.2976 H   0  0  0  0  0  0  0  0  0  0  0  0
   -1.3350   -1.0623   -0.9126 H   0  0  0  0  0  0  0  0  0  0  0  0
   -1.9175   -0.7212    0.7137 H   0  0  0  0  0  0  0  0  0  0  0  0
  1  2  1  0
  2  3  1  0
  3  4  1  0
  4  5  2  3
  5  6  1  0
  6  7  2  0
  7  8  1  0
  8  9  2  0
  9 10  1  0
 10 11  1  0
 11 12  1  0
 12 13  1  0
 13 14  1  0
 14 15  1  0
  9 16  1  0
 16 17  2  0
  4 18  1  0
 18 19  2  0
 18 20  1  0
 20 21  2  3
 21 22  1  0
 22 23  2  0
 23 24  1  0
 24 25  2  0
 25 26  1  0
 26 27  1  0
 27 28  1  0
 28 29  1  0
 29 30  1  0
 30 31  1  0
 25 32  1  0
 32 33  2  0
 20 34  1  0
 34  2  1  0
 17  6  1  0
 33 22  1  0
 15 10  1  0
 31 26  1  0
  1 35  1  0
  1 36  1  0
  1 37  1  0
  3 38  1  0
  3 39  1  0
  5 40  1  0
  7 41  1  0
  8 42  1  0
 11 43  1  0
 11 44  1  0
 12 45  1  0
 12 46  1  0
 14 47  1  0
 14 48  1  0
 15 49  1  0
 15 50  1  0
 16 51  1  0
 17 52  1  0
 21 53  1  0
 23 54  1  0
 24 55  1  0
 27 56  1  0
 27 57  1  0
 28 58  1  0
 28 59  1  0
 30 60  1  0
 30 61  1  0
 31 62  1  0
 31 63  1  0
 32 64  1  0
 33 65  1  0
 34 66  1  0
 34 67  1  0
M  END
$$$$
