
     RDKit          3D

 43 45  0  0  0  0  0  0  0  0999 V2000
    5.0819   -0.2964   -1.9690 C   0  0  0  0  0  0  0  0  0  0  0  0
    3.7918   -1.0068   -1.5905 C   0  0  0  0  0  0  0  0  0  0  0  0
    3.7806   -1.5232   -0.1490 C   0  0  0  0  0  0  0  0  0  0  0  0
    3.8232   -0.4305    0.9247 C   0  0  0  0  0  0  0  0  0  0  0  0
    2.6936    0.4967    0.8557 N   0  0  0  0  0  0  0  0  0  0  0  0
    1.4032    0.0216    1.3290 C   0  0  0  0  0  0  0  0  0  0  0  0
    0.2704    0.9326    0.9961 C   0  0  0  0  0  0  0  0  0  0  0  0
   -1.0674    0.5282    1.0533 C   0  0  0  0  0  0  0  0  0  0  0  0
   -2.0708    1.4640    0.7968 C   0  0  0  0  0  0  0  0  0  0  0  0
   -3.5069    1.1312    0.8466 C   0  0  0  0  0  0  0  0  0  0  0  0
   -4.2858    1.9378    1.3523 O   0  0  0  0  0  0  0  0  0  0  0  0
   -4.0477   -0.1528    0.3342 C   0  0  0  0  0  0  0  0  0  0  0  0
   -3.4194   -0.8453   -0.7067 C   0  0  0  0  0  0  0  0  0  0  0  0
   -3.9566   -2.0516   -1.1478 C   0  0  0  0  0  0  0  0  0  0  0  0
   -3.3445   -2.7157   -2.1363 F   0  0  0  0  0  0  0  0  0  0  0  0
   -5.1130   -2.5792   -0.5841 C   0  0  0  0  0  0  0  0  0  0  0  0
   -5.7590   -1.8812    0.4341 C   0  0  0  0  0  0  0  0  0  0  0  0
   -5.2348   -0.6685    0.8801 C   0  0  0  0  0  0  0  0  0  0  0  0
   -5.9395   -0.0284    1.8637 O   0  0  0  0  0  0  0  0  0  0  0  0
   -1.6942    2.7769    0.5487 C   0  0  0  0  0  0  0  0  0  0  0  0
   -0.4049    3.1902    0.4900 N   0  0  0  0  0  0  0  0  0  0  0  0
    0.5434    2.2577    0.7068 C   0  0  0  0  0  0  0  0  0  0  0  0
    1.8589    2.6658    0.6330 N   0  0  0  0  0  0  0  0  0  0  0  0
    2.9411    1.8445    0.6724 C   0  0  0  0  0  0  0  0  0  0  0  0
    4.0644    2.3177    0.5142 O   0  0  0  0  0  0  0  0  0  0  0  0
    5.9500   -0.9401   -1.7950 H   0  0  0  0  0  0  0  0  0  0  0  0
    5.0660   -0.0303   -3.0308 H   0  0  0  0  0  0  0  0  0  0  0  0
    5.2168    0.6264   -1.3988 H   0  0  0  0  0  0  0  0  0  0  0  0
    3.6594   -1.8627   -2.2634 H   0  0  0  0  0  0  0  0  0  0  0  0
    2.9403   -0.3394   -1.7641 H   0  0  0  0  0  0  0  0  0  0  0  0
    2.8851   -2.1402   -0.0122 H   0  0  0  0  0  0  0  0  0  0  0  0
    4.6368   -2.1927    0.0000 H   0  0  0  0  0  0  0  0  0  0  0  0
    4.7728    0.1097    0.8558 H   0  0  0  0  0  0  0  0  0  0  0  0
    3.8076   -0.8925    1.9193 H   0  0  0  0  0  0  0  0  0  0  0  0
    1.4701   -0.0908    2.4175 H   0  0  0  0  0  0  0  0  0  0  0  0
    1.2133   -0.9607    0.8852 H   0  0  0  0  0  0  0  0  0  0  0  0
   -1.3121   -0.4965    1.3204 H   0  0  0  0  0  0  0  0  0  0  0  0
   -2.5303   -0.4686   -1.2015 H   0  0  0  0  0  0  0  0  0  0  0  0
   -5.5105   -3.5217   -0.9481 H   0  0  0  0  0  0  0  0  0  0  0  0
   -6.6734   -2.2719    0.8735 H   0  0  0  0  0  0  0  0  0  0  0  0
   -5.5932    0.8899    1.9380 H   0  0  0  0  0  0  0  0  0  0  0  0
   -2.4340    3.5565    0.3812 H   0  0  0  0  0  0  0  0  0  0  0  0
    2.0277    3.6402    0.4328 H   0  0  0  0  0  0  0  0  0  0  0  0
  1  2  1  0
  2  3  1  0
  3  4  1  0
  4  5  1  0
  5  6  1  0
  6  7  1  0
  7  8  2  0
  8  9  1  0
  9 10  1  0
 10 11  2  0
 10 12  1  0
 12 13  2  0
 13 14  1  0
 14 15  1  0
 14 16  2  0
 16 17  1  0
 17 18  2  0
 18 19  1  0
  9 20  2  0
 20 21  1  0
 21 22  2  0
 22 23  1  0
 23 24  1  0
 24 25  2  0
 24  5  1  0
 22  7  1  0
 18 12  1  0
  1 26  1  0
  1 27  1  0
  1 28  1  0
  2 29  1  0
  2 30  1  0
  3 31  1  0
  3 32  1  0
  4 33  1  0
  4 34  1  0
  6 35  1  0
  6 36  1  0
  8 37  1  0
 13 38  1  0
 16 39  1  0
 17 40  1  0
 19 41  1  0
 20 42  1  0
 23 43  1  0
M  END
$$$$
