
     RDKit          3D

 31 33  0  0  0  0  0  0  0  0999 V2000
   -0.5321    3.6283    0.4485 C   0  0  0  0  0  0  0  0  0  0  0  0
   -0.9248    2.1808    0.3255 C   0  0  0  0  0  0  0  0  0  0  0  0
   -2.1536    1.8373    0.5595 N   0  0  0  0  0  0  0  0  0  0  0  0
   -2.5133    0.4781    0.4397 C   0  0  0  0  0  0  0  0  0  0  0  0
   -3.8442    0.1350    0.6941 C   0  0  0  0  0  0  0  0  0  0  0  0
   -4.2718   -1.1896    0.5934 C   0  0  0  0  0  0  0  0  0  0  0  0
   -3.3668   -2.1866    0.2348 C   0  0  0  0  0  0  0  0  0  0  0  0
   -2.0320   -1.8660   -0.0237 C   0  0  0  0  0  0  0  0  0  0  0  0
   -1.6070   -0.5382    0.0800 C   0  0  0  0  0  0  0  0  0  0  0  0
   -0.2740   -0.1247   -0.1641 N   0  0  0  0  0  0  0  0  0  0  0  0
    0.8619   -0.8452   -0.5157 C   0  0  0  0  0  0  0  0  0  0  0  0
    0.8342   -2.1681   -0.6617 O   0  0  0  0  0  0  0  0  0  0  0  0
    1.9204    0.0456   -0.6599 C   0  0  0  0  0  0  0  0  0  0  0  0
    3.3332   -0.2095   -1.1039 C   0  0  0  0  0  0  0  0  0  0  0  0
    3.9738   -1.4379   -0.5098 C   0  0  0  0  0  0  0  0  0  0  0  0
    3.4364   -2.5153   -0.2971 O   0  0  0  0  0  0  0  0  0  0  0  0
    5.2925   -1.2795   -0.2765 O   0  0  0  0  0  0  0  0  0  0  0  0
    1.4057    1.3379   -0.3521 C   0  0  0  0  0  0  0  0  0  0  0  0
    0.0685    1.2063   -0.0491 C   0  0  0  0  0  0  0  0  0  0  0  0
   -0.1579    3.9925   -0.5126 H   0  0  0  0  0  0  0  0  0  0  0  0
    0.2513    3.7359    1.2042 H   0  0  0  0  0  0  0  0  0  0  0  0
   -1.3928    4.2349    0.7443 H   0  0  0  0  0  0  0  0  0  0  0  0
   -4.5508    0.9124    0.9728 H   0  0  0  0  0  0  0  0  0  0  0  0
   -5.3098   -1.4409    0.7939 H   0  0  0  0  0  0  0  0  0  0  0  0
   -3.6994   -3.2187    0.1546 H   0  0  0  0  0  0  0  0  0  0  0  0
   -1.3593   -2.6690   -0.3029 H   0  0  0  0  0  0  0  0  0  0  0  0
    1.7542   -2.5083   -0.6251 H   0  0  0  0  0  0  0  0  0  0  0  0
    3.3614   -0.3122   -2.1945 H   0  0  0  0  0  0  0  0  0  0  0  0
    3.9486    0.6591   -0.8378 H   0  0  0  0  0  0  0  0  0  0  0  0
    5.5873   -2.1431    0.0828 H   0  0  0  0  0  0  0  0  0  0  0  0
    1.9601    2.2687   -0.3666 H   0  0  0  0  0  0  0  0  0  0  0  0
  1  2  1  0
  2  3  2  0
  3  4  1  0
  4  5  2  0
  5  6  1  0
  6  7  2  0
  7  8  1  0
  8  9  2  0
  9 10  1  0
 10 11  1  0
 11 12  1  0
 11 13  2  0
 13 14  1  0
 14 15  1  0
 15 16  2  0
 15 17  1  0
 13 18  1  0
 18 19  2  0
 19  2  1  0
  9  4  1  0
 19 10  1  0
  1 20  1  0
  1 21  1  0
  1 22  1  0
  5 23  1  0
  6 24  1  0
  7 25  1  0
  8 26  1  0
 12 27  1  0
 14 28  1  0
 14 29  1  0
 17 30  1  0
 18 31  1  0
M  END
$$$$
