
     RDKit          3D

 33 35  0  0  0  0  0  0  0  0999 V2000
    3.8495    1.9262   -0.3103 C   0  0  0  0  0  0  0  0  0  0  0  0
    4.4142    0.6680    0.2659 C   0  0  0  0  0  0  0  0  0  0  0  0
    5.8215    0.4451    0.4449 C   0  0  0  0  0  0  0  0  0  0  0  0
    6.1021   -0.7867    0.9881 C   0  0  0  0  0  0  0  0  0  0  0  0
    4.6857   -1.6853    1.2881 S   0  0  0  0  0  0  0  0  0  0  0  0
    3.6787   -0.4303    0.6938 C   0  0  0  0  0  0  0  0  0  0  0  0
    2.2475   -0.6583    0.7087 C   0  0  0  0  0  0  0  0  0  0  0  0
    1.4171    0.2629    0.3245 N   0  0  0  0  0  0  0  0  0  0  0  0
    0.0725   -0.0271    0.3224 N   0  0  0  0  0  0  0  0  0  0  0  0
   -0.4901   -1.2486   -0.0303 C   0  0  0  0  0  0  0  0  0  0  0  0
    0.1533   -2.2676   -0.2667 O   0  0  0  0  0  0  0  0  0  0  0  0
   -1.9290   -1.2413   -0.1210 C   0  0  0  0  0  0  0  0  0  0  0  0
   -2.6254   -2.3671   -0.5281 N   0  0  0  0  0  0  0  0  0  0  0  0
   -3.9740   -2.2191   -0.5487 N   0  0  0  0  0  0  0  0  0  0  0  0
   -4.1186   -0.9685   -0.1433 C   0  0  0  0  0  0  0  0  0  0  0  0
   -2.9148   -0.3181    0.1290 C   0  0  0  0  0  0  0  0  0  0  0  0
   -3.1427    1.0641    0.5911 C   0  0  0  0  0  0  0  0  0  0  0  0
   -4.6578    1.2824    0.2541 C   0  0  0  0  0  0  0  0  0  0  0  0
   -5.3077   -0.1310    0.0920 C   0  0  0  0  0  0  0  0  0  0  0  0
    3.2701    1.7109   -1.2137 H   0  0  0  0  0  0  0  0  0  0  0  0
    3.2039    2.4276    0.4176 H   0  0  0  0  0  0  0  0  0  0  0  0
    4.6455    2.6261   -0.5859 H   0  0  0  0  0  0  0  0  0  0  0  0
    6.5921    1.1607    0.1827 H   0  0  0  0  0  0  0  0  0  0  0  0
    7.0731   -1.2017    1.2215 H   0  0  0  0  0  0  0  0  0  0  0  0
    1.9030   -1.6322    1.0976 H   0  0  0  0  0  0  0  0  0  0  0  0
   -0.5120    0.7940    0.2255 H   0  0  0  0  0  0  0  0  0  0  0  0
   -2.2245   -3.2610   -0.7964 H   0  0  0  0  0  0  0  0  0  0  0  0
   -2.9772    1.1435    1.6704 H   0  0  0  0  0  0  0  0  0  0  0  0
   -2.5228    1.7999    0.0723 H   0  0  0  0  0  0  0  0  0  0  0  0
   -5.1663    1.8877    1.0111 H   0  0  0  0  0  0  0  0  0  0  0  0
   -4.7341    1.8193   -0.7008 H   0  0  0  0  0  0  0  0  0  0  0  0
   -5.8155   -0.4268    1.0155 H   0  0  0  0  0  0  0  0  0  0  0  0
   -6.0175   -0.1478   -0.7391 H   0  0  0  0  0  0  0  0  0  0  0  0
  1  2  1  0
  2  3  1  0
  3  4  2  0
  4  5  1  0
  5  6  1  0
  6  7  1  0
  7  8  2  3
  8  9  1  0
  9 10  1  0
 10 11  2  0
 10 12  1  0
 12 13  1  0
 13 14  1  0
 14 15  2  0
 15 16  1  0
 16 17  1  0
 17 18  1  0
 18 19  1  0
  6  2  2  0
 16 12  2  0
 19 15  1  0
  1 20  1  0
  1 21  1  0
  1 22  1  0
  3 23  1  0
  4 24  1  0
  7 25  1  0
  9 26  1  0
 13 27  1  0
 17 28  1  0
 17 29  1  0
 18 30  1  0
 18 31  1  0
 19 32  1  0
 19 33  1  0
M  END
$$$$
