
     RDKit          3D

 29 31  0  0  0  0  0  0  0  0999 V2000
   -0.0573    1.9889    4.7877 N   0  0  0  0  0  0  0  0  0  0  0  0
    0.1603    1.4789    3.7676 C   0  0  0  0  0  0  0  0  0  0  0  0
    0.5141    0.8833    2.5145 C   0  0  0  0  0  0  0  0  0  0  0  0
    1.8175    0.6069    2.2993 C   0  0  0  0  0  0  0  0  0  0  0  0
    2.3609   -0.0220    1.1448 C   0  0  0  0  0  0  0  0  0  0  0  0
    3.3776   -0.9733    1.0723 C   0  0  0  0  0  0  0  0  0  0  0  0
    3.5909   -1.2950   -0.2938 C   0  0  0  0  0  0  0  0  0  0  0  0
    2.7101   -0.5044   -0.9826 C   0  0  0  0  0  0  0  0  0  0  0  0
    2.4377   -0.3531   -2.3758 N   0  0  0  0  0  4  0  0  0  0  0  0
    1.5817    0.4808   -2.7027 O   0  0  0  0  0  0  0  0  0  0  0  0
    3.0927   -1.0668   -3.1460 O   0  0  0  0  0  1  0  0  0  0  0  0
    1.9827    0.2756   -0.1456 O   0  0  0  0  0  0  0  0  0  0  0  0
   -0.5438    0.5273    1.6329 C   0  0  0  0  0  0  0  0  0  0  0  0
   -1.6283   -0.1852    1.8745 N   0  0  0  0  0  0  0  0  0  0  0  0
   -2.3395   -0.2074    0.6997 C   0  0  0  0  0  0  0  0  0  0  0  0
   -3.5513   -0.8417    0.3929 C   0  0  0  0  0  0  0  0  0  0  0  0
   -4.0619   -0.7183   -0.9060 C   0  0  0  0  0  0  0  0  0  0  0  0
   -3.3793    0.0198   -1.8769 C   0  0  0  0  0  0  0  0  0  0  0  0
   -2.1706    0.6631   -1.5862 C   0  0  0  0  0  0  0  0  0  0  0  0
   -1.6903    0.5272   -0.2828 C   0  0  0  0  0  0  0  0  0  0  0  0
   -0.5719    1.0120    0.3439 N   0  0  0  0  0  0  0  0  0  0  0  0
    2.5349    0.8394    3.0864 H   0  0  0  0  0  0  0  0  0  0  0  0
    3.8952   -1.4004    1.9225 H   0  0  0  0  0  0  0  0  0  0  0  0
    4.2921   -2.0039   -0.7131 H   0  0  0  0  0  0  0  0  0  0  0  0
   -4.0732   -1.4164    1.1497 H   0  0  0  0  0  0  0  0  0  0  0  0
   -5.0001   -1.2062   -1.1598 H   0  0  0  0  0  0  0  0  0  0  0  0
   -3.7951    0.0966   -2.8798 H   0  0  0  0  0  0  0  0  0  0  0  0
   -1.6380    1.2332   -2.3404 H   0  0  0  0  0  0  0  0  0  0  0  0
    0.1522    1.5613   -0.0980 H   0  0  0  0  0  0  0  0  0  0  0  0
  1  2  3  0
  2  3  1  0
  3  4  2  3
  4  5  1  0
  5  6  2  0
  6  7  1  0
  7  8  2  0
  8  9  1  0
  9 10  2  0
  9 11  1  0
  8 12  1  0
  3 13  1  0
 13 14  2  0
 14 15  1  0
 15 16  2  0
 16 17  1  0
 17 18  2  0
 18 19  1  0
 19 20  2  0
 20 21  1  0
 12  5  1  0
 21 13  1  0
 20 15  1  0
  4 22  1  0
  6 23  1  0
  7 24  1  0
 16 25  1  0
 17 26  1  0
 18 27  1  0
 19 28  1  0
 21 29  1  0
M  CHG  2   9   1  11  -1
M  END
$$$$
