
     RDKit          3D

 48 52  0  0  0  0  0  0  0  0999 V2000
    5.6480   -1.1969   -0.7270 C   0  0  0  0  0  0  0  0  0  0  0  0
    4.2931   -0.7612   -0.2557 C   0  0  0  0  0  0  0  0  0  0  0  0
    3.1782   -0.8950   -1.0886 C   0  0  0  0  0  0  0  0  0  0  0  0
    1.9077   -0.5176   -0.6427 C   0  0  0  0  0  0  0  0  0  0  0  0
    1.7172   -0.0096    0.6535 C   0  0  0  0  0  0  0  0  0  0  0  0
    0.3626    0.4253    1.1879 C   0  0  0  0  0  0  0  0  0  0  0  0
    0.1122    1.7654    0.6162 C   0  0  0  0  0  0  0  0  0  0  0  0
   -0.9884    1.7546   -0.2517 C   0  0  0  0  0  0  0  0  0  0  0  0
   -1.2207    3.0394   -0.6623 C   0  0  0  0  0  0  0  0  0  0  0  0
   -2.2133    3.5671   -1.3674 O   0  0  0  0  0  0  0  0  0  0  0  0
   -0.2034    3.8153   -0.1350 N   0  0  0  0  0  0  0  0  0  0  0  0
   -0.0532    5.2344   -0.3677 C   0  0  0  0  0  0  0  0  0  0  0  0
    0.5918    3.0463    0.7060 C   0  0  0  0  0  0  0  0  0  0  0  0
    1.5938    3.5220    1.4357 O   0  0  0  0  0  0  0  0  0  0  0  0
   -1.5833    0.3988   -0.3767 C   0  0  0  0  0  0  0  0  0  0  0  0
   -3.0960    0.4264   -0.1524 C   0  0  0  0  0  0  0  0  0  0  0  0
   -3.7872    1.4335   -0.3597 O   0  0  0  0  0  0  0  0  0  0  0  0
   -3.7659   -0.7449    0.0626 N   0  0  0  0  0  0  0  0  0  0  0  0
   -3.2791   -2.0601    0.0103 C   0  0  0  0  0  0  0  0  0  0  0  0
   -4.2258   -3.0221   -0.3916 C   0  0  0  0  0  0  0  0  0  0  0  0
   -3.8816   -4.3672   -0.5363 C   0  0  0  0  0  0  0  0  0  0  0  0
   -2.5863   -4.7798   -0.2607 C   0  0  0  0  0  0  0  0  0  0  0  0
   -1.6495   -3.8469    0.1803 C   0  0  0  0  0  0  0  0  0  0  0  0
   -1.9828   -2.4836    0.3268 C   0  0  0  0  0  0  0  0  0  0  0  0
   -0.9430   -1.6525    0.9786 C   0  0  0  0  0  0  0  0  0  0  0  0
   -0.2182   -2.1947    1.8124 O   0  0  0  0  0  0  0  0  0  0  0  0
   -0.8053   -0.3300    0.6486 N   0  0  0  0  0  0  0  0  0  0  0  0
    2.8447    0.1134    1.4835 C   0  0  0  0  0  0  0  0  0  0  0  0
    4.1147   -0.2640    1.0381 C   0  0  0  0  0  0  0  0  0  0  0  0
    6.4416   -0.6773   -0.1798 H   0  0  0  0  0  0  0  0  0  0  0  0
    5.7673   -2.2747   -0.5795 H   0  0  0  0  0  0  0  0  0  0  0  0
    5.7817   -0.9655   -1.7892 H   0  0  0  0  0  0  0  0  0  0  0  0
    3.2910   -1.2922   -2.0946 H   0  0  0  0  0  0  0  0  0  0  0  0
    1.0684   -0.6251   -1.3224 H   0  0  0  0  0  0  0  0  0  0  0  0
    0.3169    0.4048    2.2820 H   0  0  0  0  0  0  0  0  0  0  0  0
   -2.9675    2.9416   -1.2944 H   0  0  0  0  0  0  0  0  0  0  0  0
   -0.2475    5.7575    0.5719 H   0  0  0  0  0  0  0  0  0  0  0  0
    0.9687    5.4205   -0.7082 H   0  0  0  0  0  0  0  0  0  0  0  0
   -0.7542    5.5722   -1.1338 H   0  0  0  0  0  0  0  0  0  0  0  0
    1.7291    4.4630    1.2431 H   0  0  0  0  0  0  0  0  0  0  0  0
   -1.3728   -0.0392   -1.3587 H   0  0  0  0  0  0  0  0  0  0  0  0
   -4.7693   -0.6105   -0.0021 H   0  0  0  0  0  0  0  0  0  0  0  0
   -5.2485   -2.7308   -0.6246 H   0  0  0  0  0  0  0  0  0  0  0  0
   -4.6266   -5.0896   -0.8614 H   0  0  0  0  0  0  0  0  0  0  0  0
   -2.3084   -5.8263   -0.3594 H   0  0  0  0  0  0  0  0  0  0  0  0
   -0.6496   -4.1926    0.4437 H   0  0  0  0  0  0  0  0  0  0  0  0
    2.7363    0.5110    2.4909 H   0  0  0  0  0  0  0  0  0  0  0  0
    4.9623   -0.1625    1.7114 H   0  0  0  0  0  0  0  0  0  0  0  0
  1  2  1  0
  2  3  2  0
  3  4  1  0
  4  5  2  0
  5  6  1  0
  6  7  1  0
  7  8  1  0
  8  9  2  0
  9 10  1  0
  9 11  1  0
 11 12  1  0
 11 13  1  0
 13 14  1  0
  8 15  1  0
 15 16  1  0
 16 17  2  0
 16 18  1  0
 18 19  1  0
 19 20  2  0
 20 21  1  0
 21 22  2  0
 22 23  1  0
 23 24  2  0
 24 25  1  0
 25 26  2  0
 25 27  1  0
  5 28  1  0
 28 29  2  0
 29  2  1  0
 27  6  1  0
 13  7  2  0
 27 15  1  0
 24 19  1  0
  1 30  1  0
  1 31  1  0
  1 32  1  0
  3 33  1  0
  4 34  1  0
  6 35  1  0
 10 36  1  0
 12 37  1  0
 12 38  1  0
 12 39  1  0
 14 40  1  0
 15 41  1  0
 18 42  1  0
 20 43  1  0
 21 44  1  0
 22 45  1  0
 23 46  1  0
 28 47  1  0
 29 48  1  0
M  END
$$$$
