
     RDKit          3D

 46 48  0  0  0  0  0  0  0  0999 V2000
    6.9487   -3.1498   -2.9153 C   0  0  0  0  0  0  0  0  0  0  0  0
    5.5625   -2.5360   -2.9324 C   0  0  0  0  0  0  0  0  0  0  0  0
    5.3231   -1.9385   -1.6516 O   0  0  0  0  0  0  0  0  0  0  0  0
    4.1184   -1.3284   -1.5319 C   0  0  0  0  0  0  0  0  0  0  0  0
    3.2689   -1.2629   -2.4104 O   0  0  0  0  0  0  0  0  0  0  0  0
    3.9410   -0.7309   -0.1723 C   0  0  0  0  0  0  0  0  0  0  0  0
    4.9762   -0.8293    0.7771 C   0  0  0  0  0  0  0  0  0  0  0  0
    4.8300   -0.2744    2.0469 C   0  0  0  0  0  0  0  0  0  0  0  0
    3.6526    0.3839    2.3789 C   0  0  0  0  0  0  0  0  0  0  0  0
    2.6159    0.4893    1.4464 C   0  0  0  0  0  0  0  0  0  0  0  0
    2.7367   -0.0630    0.1647 C   0  0  0  0  0  0  0  0  0  0  0  0
    1.6972    0.0339   -0.7966 N   0  0  0  0  0  0  0  0  0  0  0  0
    0.4411    0.6013   -0.6631 C   0  0  0  0  0  0  0  0  0  0  0  0
   -0.0168    1.1087    0.3575 O   0  0  0  0  0  0  0  0  0  0  0  0
   -0.3862    0.5129   -1.9398 C   0  0  0  0  0  0  0  0  0  0  0  0
   -1.4988   -0.9239   -1.8429 S   0  0  0  0  0  0  0  0  0  0  0  0
   -2.7372   -0.2290   -0.7771 C   0  0  0  0  0  0  0  0  0  0  0  0
   -3.0769   -0.8461    0.4116 C   0  0  0  0  0  0  0  0  0  0  0  0
   -4.0661   -0.2707    1.2100 C   0  0  0  0  0  0  0  0  0  0  0  0
   -4.6910    0.8994    0.7911 C   0  0  0  0  0  0  0  0  0  0  0  0
   -5.7440    1.5903    1.5515 C   0  0  0  0  0  0  0  0  0  0  0  0
   -6.7159    2.3804    0.9168 C   0  0  0  0  0  0  0  0  0  0  0  0
   -7.7095    3.0235    1.6545 C   0  0  0  0  0  0  0  0  0  0  0  0
   -7.7114    2.8642    3.0275 C   0  0  0  0  0  0  0  0  0  0  0  0
   -6.8013    2.1237    3.6914 N   0  0  0  0  0  0  0  0  0  0  0  0
   -5.8449    1.5178    2.9419 C   0  0  0  0  0  0  0  0  0  0  0  0
   -4.3454    1.4565   -0.3933 N   0  0  0  0  0  0  0  0  0  0  0  0
   -3.3660    0.8914   -1.1812 N   0  0  0  0  0  0  0  0  0  0  0  0
    7.1786   -3.6212   -3.8748 H   0  0  0  0  0  0  0  0  0  0  0  0
    7.0281   -3.9018   -2.1229 H   0  0  0  0  0  0  0  0  0  0  0  0
    7.7051   -2.3860   -2.7058 H   0  0  0  0  0  0  0  0  0  0  0  0
    5.5057   -1.7706   -3.7149 H   0  0  0  0  0  0  0  0  0  0  0  0
    4.8145   -3.3144   -3.1213 H   0  0  0  0  0  0  0  0  0  0  0  0
    5.9093   -1.3363    0.5416 H   0  0  0  0  0  0  0  0  0  0  0  0
    5.6345   -0.3535    2.7742 H   0  0  0  0  0  0  0  0  0  0  0  0
    3.5330    0.8228    3.3670 H   0  0  0  0  0  0  0  0  0  0  0  0
    1.7215    1.0195    1.7588 H   0  0  0  0  0  0  0  0  0  0  0  0
    1.9049   -0.4106   -1.6945 H   0  0  0  0  0  0  0  0  0  0  0  0
   -0.9283    1.4522   -2.0869 H   0  0  0  0  0  0  0  0  0  0  0  0
    0.2675    0.3862   -2.8091 H   0  0  0  0  0  0  0  0  0  0  0  0
   -2.5810   -1.7574    0.7291 H   0  0  0  0  0  0  0  0  0  0  0  0
   -4.3396   -0.7583    2.1396 H   0  0  0  0  0  0  0  0  0  0  0  0
   -6.7051    2.4986   -0.1656 H   0  0  0  0  0  0  0  0  0  0  0  0
   -8.4608    3.6334    1.1650 H   0  0  0  0  0  0  0  0  0  0  0  0
   -8.4639    3.3434    3.6471 H   0  0  0  0  0  0  0  0  0  0  0  0
   -5.1252    0.9597    3.5355 H   0  0  0  0  0  0  0  0  0  0  0  0
  1  2  1  0
  2  3  1  0
  3  4  1  0
  4  5  2  0
  4  6  1  0
  6  7  2  0
  7  8  1  0
  8  9  2  0
  9 10  1  0
 10 11  2  0
 11 12  1  0
 12 13  1  0
 13 14  2  0
 13 15  1  0
 15 16  1  0
 16 17  1  0
 17 18  2  0
 18 19  1  0
 19 20  2  0
 20 21  1  0
 21 22  2  0
 22 23  1  0
 23 24  2  0
 24 25  1  0
 25 26  2  0
 20 27  1  0
 27 28  2  0
 11  6  1  0
 28 17  1  0
 26 21  1  0
  1 29  1  0
  1 30  1  0
  1 31  1  0
  2 32  1  0
  2 33  1  0
  7 34  1  0
  8 35  1  0
  9 36  1  0
 10 37  1  0
 12 38  1  0
 15 39  1  0
 15 40  1  0
 18 41  1  0
 19 42  1  0
 22 43  1  0
 23 44  1  0
 24 45  1  0
 26 46  1  0
M  END
$$$$
