
     RDKit          3D

 47 49  0  0  0  0  0  0  0  0999 V2000
    7.2985   -1.3113   -0.9391 C   0  0  0  0  0  0  0  0  0  0  0  0
    6.1390   -2.1873   -0.4906 C   0  0  0  0  0  0  0  0  0  0  0  0
    4.8827   -1.3955   -0.1230 C   0  0  0  0  0  0  0  0  0  0  0  0
    4.2489   -0.6792   -1.3186 C   0  0  0  0  0  0  0  0  0  0  0  0
    3.0109    0.0114   -0.9633 N   0  0  0  0  0  0  0  0  0  0  0  0
    1.7953   -0.7822   -0.8853 C   0  0  0  0  0  0  0  0  0  0  0  0
    0.5586    0.0329   -0.7161 C   0  0  0  0  0  0  0  0  0  0  0  0
   -0.7216   -0.4932   -0.9110 C   0  0  0  0  0  0  0  0  0  0  0  0
   -1.8359    0.3083   -0.6581 C   0  0  0  0  0  0  0  0  0  0  0  0
   -3.1901   -0.2361   -0.8795 C   0  0  0  0  0  0  0  0  0  0  0  0
   -3.3692   -1.0087   -1.8206 O   0  0  0  0  0  0  0  0  0  0  0  0
   -4.3498    0.1258   -0.0254 C   0  0  0  0  0  0  0  0  0  0  0  0
   -4.1832    0.4539    1.3304 C   0  0  0  0  0  0  0  0  0  0  0  0
   -5.2897    0.8106    2.1053 C   0  0  0  0  0  0  0  0  0  0  0  0
   -5.2648    1.1631    3.4261 O   0  0  0  0  0  0  0  0  0  0  0  0
   -3.9947    1.2213    4.0637 C   0  0  0  0  0  0  0  0  0  0  0  0
   -6.5622    0.8185    1.5268 C   0  0  0  0  0  0  0  0  0  0  0  0
   -6.7396    0.4623    0.1900 C   0  0  0  0  0  0  0  0  0  0  0  0
   -5.6378    0.1045   -0.5777 C   0  0  0  0  0  0  0  0  0  0  0  0
   -5.8874   -0.2613   -1.8728 O   0  0  0  0  0  0  0  0  0  0  0  0
   -1.6194    1.6156   -0.2446 C   0  0  0  0  0  0  0  0  0  0  0  0
   -0.3898    2.1390   -0.0236 N   0  0  0  0  0  0  0  0  0  0  0  0
    0.6672    1.3386   -0.2727 C   0  0  0  0  0  0  0  0  0  0  0  0
    1.9232    1.8718   -0.0680 N   0  0  0  0  0  0  0  0  0  0  0  0
    3.0948    1.2723   -0.4063 C   0  0  0  0  0  0  0  0  0  0  0  0
    4.1561    1.8692   -0.2369 O   0  0  0  0  0  0  0  0  0  0  0  0
    8.1937   -1.9228   -1.0912 H   0  0  0  0  0  0  0  0  0  0  0  0
    7.5313   -0.5514   -0.1865 H   0  0  0  0  0  0  0  0  0  0  0  0
    7.0786   -0.8070   -1.8845 H   0  0  0  0  0  0  0  0  0  0  0  0
    5.9053   -2.9150   -1.2764 H   0  0  0  0  0  0  0  0  0  0  0  0
    6.4568   -2.7611    0.3882 H   0  0  0  0  0  0  0  0  0  0  0  0
    5.1202   -0.6715    0.6660 H   0  0  0  0  0  0  0  0  0  0  0  0
    4.1554   -2.0926    0.3103 H   0  0  0  0  0  0  0  0  0  0  0  0
    4.0282   -1.3882   -2.1247 H   0  0  0  0  0  0  0  0  0  0  0  0
    4.9474    0.0608   -1.7244 H   0  0  0  0  0  0  0  0  0  0  0  0
    1.8914   -1.4665   -0.0350 H   0  0  0  0  0  0  0  0  0  0  0  0
    1.7216   -1.3693   -1.8079 H   0  0  0  0  0  0  0  0  0  0  0  0
   -0.8526   -1.5181   -1.2521 H   0  0  0  0  0  0  0  0  0  0  0  0
   -3.1960    0.4108    1.7763 H   0  0  0  0  0  0  0  0  0  0  0  0
   -3.3428    1.9561    3.5797 H   0  0  0  0  0  0  0  0  0  0  0  0
   -4.1534    1.5452    5.0968 H   0  0  0  0  0  0  0  0  0  0  0  0
   -3.5241    0.2331    4.0924 H   0  0  0  0  0  0  0  0  0  0  0  0
   -7.4266    1.0941    2.1273 H   0  0  0  0  0  0  0  0  0  0  0  0
   -7.7346    0.4549   -0.2471 H   0  0  0  0  0  0  0  0  0  0  0  0
   -5.0766   -0.6906   -2.2272 H   0  0  0  0  0  0  0  0  0  0  0  0
   -2.4368    2.3125   -0.0793 H   0  0  0  0  0  0  0  0  0  0  0  0
    1.9733    2.8225    0.2657 H   0  0  0  0  0  0  0  0  0  0  0  0
  1  2  1  0
  2  3  1  0
  3  4  1  0
  4  5  1  0
  5  6  1  0
  6  7  1  0
  7  8  2  0
  8  9  1  0
  9 10  1  0
 10 11  2  0
 10 12  1  0
 12 13  2  0
 13 14  1  0
 14 15  1  0
 15 16  1  0
 14 17  2  0
 17 18  1  0
 18 19  2  0
 19 20  1  0
  9 21  2  0
 21 22  1  0
 22 23  2  0
 23 24  1  0
 24 25  1  0
 25 26  2  0
 25  5  1  0
 23  7  1  0
 19 12  1  0
  1 27  1  0
  1 28  1  0
  1 29  1  0
  2 30  1  0
  2 31  1  0
  3 32  1  0
  3 33  1  0
  4 34  1  0
  4 35  1  0
  6 36  1  0
  6 37  1  0
  8 38  1  0
 13 39  1  0
 16 40  1  0
 16 41  1  0
 16 42  1  0
 17 43  1  0
 18 44  1  0
 20 45  1  0
 21 46  1  0
 24 47  1  0
M  END
$$$$
