
     RDKit          3D

 35 37  0  0  0  0  0  0  0  0999 V2000
    2.3042   -0.9531    1.7382 O   0  0  0  0  0  0  0  0  0  0  0  0
    1.9646   -0.4555    0.6711 C   0  0  0  0  0  0  0  0  0  0  0  0
    0.6623   -0.1309    0.3681 N   0  0  0  0  0  0  0  0  0  0  0  0
   -0.4308   -0.3859    1.2985 C   0  0  0  0  0  0  0  0  0  0  0  0
   -0.8553   -1.8625    1.2564 C   0  0  0  0  0  0  0  0  0  0  0  0
   -1.6430   -2.1695   -0.0136 C   0  0  0  0  0  0  0  0  0  0  0  0
   -2.9297   -1.3496   -0.0566 C   0  0  0  0  0  0  0  0  0  0  0  0
   -2.7290    0.1047    0.2932 C   0  0  0  0  0  0  0  0  0  0  0  0
   -3.7484    1.0204   -0.0103 C   0  0  0  0  0  0  0  0  0  0  0  0
   -3.6239    2.3657    0.3355 C   0  0  0  0  0  0  0  0  0  0  0  0
   -2.4835    2.8113    0.9963 C   0  0  0  0  0  0  0  0  0  0  0  0
   -1.4672    1.9110    1.3123 C   0  0  0  0  0  0  0  0  0  0  0  0
   -1.5792    0.5511    0.9725 C   0  0  0  0  0  0  0  0  0  0  0  0
    2.9869   -0.1536   -0.3578 C   0  0  0  0  0  0  0  0  0  0  0  0
    4.3102   -0.0052    0.0472 C   0  0  0  0  0  0  0  0  0  0  0  0
    5.3351    0.2745   -0.7981 N   0  0  0  0  0  0  0  0  0  0  0  0
    5.0225    0.3947   -2.1093 C   0  0  0  0  0  0  0  0  0  0  0  0
    3.7361    0.2457   -2.6065 C   0  0  0  0  0  0  0  0  0  0  0  0
    3.3938    0.4133   -4.4535 Br  0  0  0  0  0  0  0  0  0  0  0  0
    2.6991   -0.0360   -1.7204 C   0  0  0  0  0  0  0  0  0  0  0  0
    0.4318    0.3754   -0.4748 H   0  0  0  0  0  0  0  0  0  0  0  0
   -0.0713   -0.1708    2.3132 H   0  0  0  0  0  0  0  0  0  0  0  0
    0.0184   -2.5218    1.3162 H   0  0  0  0  0  0  0  0  0  0  0  0
   -1.4835   -2.0873    2.1284 H   0  0  0  0  0  0  0  0  0  0  0  0
   -1.8880   -3.2368   -0.0555 H   0  0  0  0  0  0  0  0  0  0  0  0
   -1.0296   -1.9497   -0.8963 H   0  0  0  0  0  0  0  0  0  0  0  0
   -3.3680   -1.4353   -1.0581 H   0  0  0  0  0  0  0  0  0  0  0  0
   -3.6495   -1.7716    0.6562 H   0  0  0  0  0  0  0  0  0  0  0  0
   -4.6519    0.6857   -0.5161 H   0  0  0  0  0  0  0  0  0  0  0  0
   -4.4206    3.0646    0.0940 H   0  0  0  0  0  0  0  0  0  0  0  0
   -2.3862    3.8590    1.2686 H   0  0  0  0  0  0  0  0  0  0  0  0
   -0.5794    2.2721    1.8287 H   0  0  0  0  0  0  0  0  0  0  0  0
    4.5951   -0.1040    1.0928 H   0  0  0  0  0  0  0  0  0  0  0  0
    5.8636    0.6151   -2.7609 H   0  0  0  0  0  0  0  0  0  0  0  0
    1.6940   -0.1853   -2.0996 H   0  0  0  0  0  0  0  0  0  0  0  0
  1  2  2  0
  2  3  1  0
  3  4  1  0
  4  5  1  0
  5  6  1  0
  6  7  1  0
  7  8  1  0
  8  9  2  0
  9 10  1  0
 10 11  2  0
 11 12  1  0
 12 13  2  0
  2 14  1  0
 14 15  2  0
 15 16  1  0
 16 17  2  0
 17 18  1  0
 18 19  1  0
 18 20  2  0
 13  4  1  0
 20 14  1  0
 13  8  1  0
  3 21  1  0
  4 22  1  0
  5 23  1  0
  5 24  1  0
  6 25  1  0
  6 26  1  0
  7 27  1  0
  7 28  1  0
  9 29  1  0
 10 30  1  0
 11 31  1  0
 12 32  1  0
 15 33  1  0
 17 34  1  0
 20 35  1  0
M  END
$$$$
