
     RDKit          3D

 50 52  0  0  0  0  0  0  0  0999 V2000
    1.9424   -0.2968   -1.6500 O   0  0  0  0  0  0  0  0  0  0  0  0
    2.1686    0.1294   -0.2974 C   0  0  0  0  0  0  0  0  0  0  0  0
    3.6129    0.6416   -0.2032 C   0  0  0  0  0  0  0  0  0  0  0  0
    4.4826   -0.4385   -0.5791 O   0  0  0  0  0  0  0  0  0  0  0  0
    5.8642   -0.0649   -0.5468 C   0  0  0  0  0  0  0  0  0  0  0  0
    6.2068    0.6026   -1.8410 C   0  0  0  0  0  0  0  0  0  0  0  0
    5.9919    0.1450   -3.1273 C   0  0  0  0  0  0  0  0  0  0  0  0
    6.4580    1.0596   -4.1145 C   0  0  0  0  0  0  0  0  0  0  0  0
    7.0198    2.1828   -3.5508 C   0  0  0  0  0  0  0  0  0  0  0  0
    6.9841    2.1301   -1.8424 S   0  0  0  0  0  0  0  0  0  0  0  0
    1.1714    1.2415    0.0987 C   0  0  0  0  0  0  0  0  0  0  0  0
   -0.2210    0.8505    0.3612 N   0  0  0  0  0  0  0  0  0  0  0  0
   -0.9128    0.2625   -0.7977 C   0  0  0  0  0  0  0  0  0  0  0  0
   -2.3933   -0.0612   -0.4771 C   0  0  0  0  0  0  0  0  0  0  0  0
   -2.5338   -0.9400    0.7134 N   0  0  0  0  0  0  0  0  0  0  0  0
   -3.7466   -0.8364    1.3948 C   0  0  0  0  0  0  0  0  0  0  0  0
   -3.8422   -0.6804    2.7841 C   0  0  0  0  0  0  0  0  0  0  0  0
   -5.0794   -0.5916    3.4330 C   0  0  0  0  0  0  0  0  0  0  0  0
   -6.2604   -0.6609    2.7018 C   0  0  0  0  0  0  0  0  0  0  0  0
   -6.2121   -0.8140    1.3132 C   0  0  0  0  0  0  0  0  0  0  0  0
   -7.4773   -0.9236    0.5035 C   0  0  0  0  0  0  0  0  0  0  0  0
   -7.3629   -0.3917   -0.7463 F   0  0  0  0  0  0  0  0  0  0  0  0
   -8.5381   -0.2877    1.0775 F   0  0  0  0  0  0  0  0  0  0  0  0
   -7.8714   -2.2149    0.3249 F   0  0  0  0  0  0  0  0  0  0  0  0
   -4.9574   -0.9078    0.6826 C   0  0  0  0  0  0  0  0  0  0  0  0
   -1.2735   -1.2202    1.4212 C   0  0  0  0  0  0  0  0  0  0  0  0
   -0.4114    0.0536    1.5891 C   0  0  0  0  0  0  0  0  0  0  0  0
    2.7326   -0.8217   -1.8855 H   0  0  0  0  0  0  0  0  0  0  0  0
    2.0554   -0.7549    0.3390 H   0  0  0  0  0  0  0  0  0  0  0  0
    3.7585    1.4807   -0.8925 H   0  0  0  0  0  0  0  0  0  0  0  0
    3.8432    0.9574    0.8202 H   0  0  0  0  0  0  0  0  0  0  0  0
    6.0797    0.5480    0.3357 H   0  0  0  0  0  0  0  0  0  0  0  0
    6.4484   -0.9875   -0.4587 H   0  0  0  0  0  0  0  0  0  0  0  0
    5.5140   -0.8026   -3.3467 H   0  0  0  0  0  0  0  0  0  0  0  0
    6.3843    0.9018   -5.1836 H   0  0  0  0  0  0  0  0  0  0  0  0
    7.4514    3.0338   -4.0599 H   0  0  0  0  0  0  0  0  0  0  0  0
    1.1584    2.0002   -0.6950 H   0  0  0  0  0  0  0  0  0  0  0  0
    1.5415    1.7557    0.9951 H   0  0  0  0  0  0  0  0  0  0  0  0
   -0.4245   -0.6622   -1.1249 H   0  0  0  0  0  0  0  0  0  0  0  0
   -0.8877    0.9642   -1.6397 H   0  0  0  0  0  0  0  0  0  0  0  0
   -2.9219    0.8881   -0.3146 H   0  0  0  0  0  0  0  0  0  0  0  0
   -2.8409   -0.5544   -1.3477 H   0  0  0  0  0  0  0  0  0  0  0  0
   -2.9525   -0.5961    3.3997 H   0  0  0  0  0  0  0  0  0  0  0  0
   -5.1140   -0.4651    4.5123 H   0  0  0  0  0  0  0  0  0  0  0  0
   -7.2166   -0.5950    3.2177 H   0  0  0  0  0  0  0  0  0  0  0  0
   -4.9304   -1.0647   -0.3949 H   0  0  0  0  0  0  0  0  0  0  0  0
   -1.4267   -1.7132    2.3872 H   0  0  0  0  0  0  0  0  0  0  0  0
   -0.7104   -1.9494    0.8234 H   0  0  0  0  0  0  0  0  0  0  0  0
   -0.8974    0.7093    2.3218 H   0  0  0  0  0  0  0  0  0  0  0  0
    0.5466   -0.2409    2.0337 H   0  0  0  0  0  0  0  0  0  0  0  0
  1  2  1  0
  2  3  1  0
  3  4  1  0
  4  5  1  0
  5  6  1  0
  6  7  2  0
  7  8  1  0
  8  9  2  0
  9 10  1  0
  2 11  1  0
 11 12  1  0
 12 13  1  0
 13 14  1  0
 14 15  1  0
 15 16  1  0
 16 17  2  0
 17 18  1  0
 18 19  2  0
 19 20  1  0
 20 21  1  0
 21 22  1  0
 21 23  1  0
 21 24  1  0
 20 25  2  0
 15 26  1  0
 26 27  1  0
 10  6  1  0
 27 12  1  0
 25 16  1  0
  1 28  1  0
  2 29  1  0
  3 30  1  0
  3 31  1  0
  5 32  1  0
  5 33  1  0
  7 34  1  0
  8 35  1  0
  9 36  1  0
 11 37  1  0
 11 38  1  0
 13 39  1  0
 13 40  1  0
 14 41  1  0
 14 42  1  0
 17 43  1  0
 18 44  1  0
 19 45  1  0
 25 46  1  0
 26 47  1  0
 26 48  1  0
 27 49  1  0
 27 50  1  0
M  END
$$$$
