
     RDKit          3D

 39 41  0  0  0  0  0  0  0  0999 V2000
   -7.7547    1.3482   -0.4879 C   0  0  0  0  0  0  0  0  0  0  0  0
   -6.8770    2.3712    0.2118 C   0  0  0  0  0  0  0  0  0  0  0  0
   -5.8079    1.7305    0.9062 O   0  0  0  0  0  0  0  0  0  0  0  0
   -4.6267    1.5092    0.2529 C   0  0  0  0  0  0  0  0  0  0  0  0
   -4.3839    1.7255   -1.1007 C   0  0  0  0  0  0  0  0  0  0  0  0
   -3.1242    1.4524   -1.6541 C   0  0  0  0  0  0  0  0  0  0  0  0
   -2.0906    0.9512   -0.8397 C   0  0  0  0  0  0  0  0  0  0  0  0
   -0.8052    0.6390   -1.2507 N   0  0  0  0  0  0  0  0  0  0  0  0
   -0.1128    0.1967   -0.2289 C   0  0  0  0  0  0  0  0  0  0  0  0
    1.1969   -0.1786   -0.3888 N   0  0  0  0  0  0  0  0  0  0  0  0
    2.0527   -0.6593    0.5777 C   0  0  0  0  0  0  0  0  0  0  0  0
    1.8047   -0.8419    1.7630 O   0  0  0  0  0  0  0  0  0  0  0  0
    3.4197   -0.9608   -0.0010 C   0  0  0  0  0  0  0  0  0  0  0  0
    4.3656   -1.4911    1.0671 C   0  0  0  0  0  0  0  0  0  0  0  0
    5.6782   -1.7809    0.5140 N   0  0  0  0  0  0  0  0  0  0  0  0
    6.7179   -0.8921    0.4399 C   0  0  0  0  0  0  0  0  0  0  0  0
    7.7813   -1.5350   -0.1555 C   0  0  0  0  0  0  0  0  0  0  0  0
    7.3672   -2.8570   -0.4457 C   0  0  0  0  0  0  0  0  0  0  0  0
    6.0630   -2.9827   -0.0188 C   0  0  0  0  0  0  0  0  0  0  0  0
   -0.9292    0.1239    1.2595 S   0  0  0  0  0  0  0  0  0  0  0  0
   -2.3528    0.7351    0.5129 C   0  0  0  0  0  0  0  0  0  0  0  0
   -3.6106    1.0050    1.0752 C   0  0  0  0  0  0  0  0  0  0  0  0
   -7.1992    0.8013   -1.2554 H   0  0  0  0  0  0  0  0  0  0  0  0
   -8.1209    0.6047    0.2279 H   0  0  0  0  0  0  0  0  0  0  0  0
   -8.6136    1.8341   -0.9596 H   0  0  0  0  0  0  0  0  0  0  0  0
   -6.5276    3.1577   -0.4660 H   0  0  0  0  0  0  0  0  0  0  0  0
   -7.4796    2.8789    0.9737 H   0  0  0  0  0  0  0  0  0  0  0  0
   -5.1522    2.0995   -1.7692 H   0  0  0  0  0  0  0  0  0  0  0  0
   -2.9383    1.6218   -2.7102 H   0  0  0  0  0  0  0  0  0  0  0  0
    1.5205   -0.0705   -1.3405 H   0  0  0  0  0  0  0  0  0  0  0  0
    3.3037   -1.6978   -0.8050 H   0  0  0  0  0  0  0  0  0  0  0  0
    3.8228   -0.0409   -0.4421 H   0  0  0  0  0  0  0  0  0  0  0  0
    4.5019   -0.7652    1.8776 H   0  0  0  0  0  0  0  0  0  0  0  0
    3.9848   -2.4164    1.5156 H   0  0  0  0  0  0  0  0  0  0  0  0
    6.6239    0.1188    0.8150 H   0  0  0  0  0  0  0  0  0  0  0  0
    8.7520   -1.0999   -0.3546 H   0  0  0  0  0  0  0  0  0  0  0  0
    7.9578   -3.6354   -0.9111 H   0  0  0  0  0  0  0  0  0  0  0  0
    5.3877   -3.8278   -0.0510 H   0  0  0  0  0  0  0  0  0  0  0  0
   -3.7949    0.8287    2.1312 H   0  0  0  0  0  0  0  0  0  0  0  0
  1  2  1  0
  2  3  1  0
  3  4  1  0
  4  5  2  0
  5  6  1  0
  6  7  2  0
  7  8  1  0
  8  9  2  0
  9 10  1  0
 10 11  1  0
 11 12  2  0
 11 13  1  0
 13 14  1  0
 14 15  1  0
 15 16  1  0
 16 17  2  0
 17 18  1  0
 18 19  2  0
  9 20  1  0
 20 21  1  0
 21 22  2  0
 22  4  1  0
 21  7  1  0
 19 15  1  0
  1 23  1  0
  1 24  1  0
  1 25  1  0
  2 26  1  0
  2 27  1  0
  5 28  1  0
  6 29  1  0
 10 30  1  0
 13 31  1  0
 13 32  1  0
 14 33  1  0
 14 34  1  0
 16 35  1  0
 17 36  1  0
 18 37  1  0
 19 38  1  0
 22 39  1  0
M  END
$$$$
