
     RDKit          3D

 46 48  0  0  0  0  0  0  0  0999 V2000
    5.1560   -2.9087   -1.2672 C   0  0  0  0  0  0  0  0  0  0  0  0
    5.1687   -1.8429   -0.3247 O   0  0  0  0  0  0  0  0  0  0  0  0
    4.0513   -1.0570   -0.2694 C   0  0  0  0  0  0  0  0  0  0  0  0
    4.0659   -0.0847    0.7304 C   0  0  0  0  0  0  0  0  0  0  0  0
    2.9890    0.7936    0.8970 C   0  0  0  0  0  0  0  0  0  0  0  0
    1.8645    0.7138    0.0627 C   0  0  0  0  0  0  0  0  0  0  0  0
    0.6821    1.6744    0.1756 C   0  0  0  0  0  0  0  0  0  0  0  0
    0.7070    2.7189    1.2992 C   0  0  0  0  0  0  0  0  0  0  0  0
   -0.6288    0.9719    0.1549 N   0  0  0  0  0  0  0  0  0  0  0  0
   -1.0456   -0.0218    1.0444 C   0  0  0  0  0  0  0  0  0  0  0  0
   -0.2304   -0.5150    2.1941 C   0  0  0  0  0  0  0  0  0  0  0  0
   -2.2955   -0.4333    0.6200 C   0  0  0  0  0  0  0  0  0  0  0  0
   -3.1024   -1.4426    1.1851 C   0  0  0  0  0  0  0  0  0  0  0  0
   -2.8546   -2.3277    2.3548 C   0  0  0  0  0  0  0  0  0  0  0  0
   -4.2886   -1.5764    0.5148 N   0  0  0  0  0  0  0  0  0  0  0  0
   -4.6752   -0.7719   -0.6450 N   0  0  0  0  0  0  0  0  0  0  0  0
   -3.8983    0.2099   -1.2036 C   0  0  0  0  0  0  0  0  0  0  0  0
   -4.4462    0.9338   -2.3818 C   0  0  0  0  0  0  0  0  0  0  0  0
   -2.6708    0.3568   -0.5202 C   0  0  0  0  0  0  0  0  0  0  0  0
   -1.6392    1.2411   -0.7817 C   0  0  0  0  0  0  0  0  0  0  0  0
   -1.4834    2.3090   -1.8170 C   0  0  0  0  0  0  0  0  0  0  0  0
    1.8713   -0.2615   -0.9535 C   0  0  0  0  0  0  0  0  0  0  0  0
    2.9482   -1.1409   -1.1151 C   0  0  0  0  0  0  0  0  0  0  0  0
    6.1024   -3.4493   -1.1783 H   0  0  0  0  0  0  0  0  0  0  0  0
    4.3474   -3.6158   -1.0532 H   0  0  0  0  0  0  0  0  0  0  0  0
    5.0878   -2.5300   -2.2923 H   0  0  0  0  0  0  0  0  0  0  0  0
    4.9313   -0.0056    1.3823 H   0  0  0  0  0  0  0  0  0  0  0  0
    3.0542    1.5344    1.6905 H   0  0  0  0  0  0  0  0  0  0  0  0
    0.7399    2.2560   -0.7514 H   0  0  0  0  0  0  0  0  0  0  0  0
   -0.1709    3.3730    1.2358 H   0  0  0  0  0  0  0  0  0  0  0  0
    0.7036    2.2689    2.2967 H   0  0  0  0  0  0  0  0  0  0  0  0
    1.5952    3.3565    1.2223 H   0  0  0  0  0  0  0  0  0  0  0  0
    0.0956   -1.5471    2.0123 H   0  0  0  0  0  0  0  0  0  0  0  0
    0.6569    0.0846    2.4038 H   0  0  0  0  0  0  0  0  0  0  0  0
   -0.8259   -0.4955    3.1135 H   0  0  0  0  0  0  0  0  0  0  0  0
   -3.6749   -3.0452    2.4781 H   0  0  0  0  0  0  0  0  0  0  0  0
   -2.7919   -1.7355    3.2719 H   0  0  0  0  0  0  0  0  0  0  0  0
   -1.9297   -2.8973    2.2184 H   0  0  0  0  0  0  0  0  0  0  0  0
   -5.4147    0.5179   -2.6777 H   0  0  0  0  0  0  0  0  0  0  0  0
   -4.5947    1.9924   -2.1443 H   0  0  0  0  0  0  0  0  0  0  0  0
   -3.7717    0.8354   -3.2385 H   0  0  0  0  0  0  0  0  0  0  0  0
   -2.3765    2.4555   -2.4272 H   0  0  0  0  0  0  0  0  0  0  0  0
   -0.6655    2.0549   -2.5044 H   0  0  0  0  0  0  0  0  0  0  0  0
   -1.2641    3.2737   -1.3423 H   0  0  0  0  0  0  0  0  0  0  0  0
    1.0289   -0.3488   -1.6398 H   0  0  0  0  0  0  0  0  0  0  0  0
    2.8922   -1.8719   -1.9156 H   0  0  0  0  0  0  0  0  0  0  0  0
  1  2  1  0
  2  3  1  0
  3  4  2  0
  4  5  1  0
  5  6  2  0
  6  7  1  0
  7  8  1  0
  7  9  1  0
  9 10  1  0
 10 11  1  0
 10 12  2  0
 12 13  1  0
 13 14  1  0
 13 15  2  0
 15 16  1  0
 16 17  2  0
 17 18  1  0
 17 19  1  0
 19 20  2  0
 20 21  1  0
  6 22  1  0
 22 23  2  0
 23  3  1  0
 20  9  1  0
 19 12  1  0
  1 24  1  0
  1 25  1  0
  1 26  1  0
  4 27  1  0
  5 28  1  0
  7 29  1  0
  8 30  1  0
  8 31  1  0
  8 32  1  0
 11 33  1  0
 11 34  1  0
 11 35  1  0
 14 36  1  0
 14 37  1  0
 14 38  1  0
 18 39  1  0
 18 40  1  0
 18 41  1  0
 21 42  1  0
 21 43  1  0
 21 44  1  0
 22 45  1  0
 23 46  1  0
M  END
$$$$
