
     RDKit          3D

 52 55  0  0  0  0  0  0  0  0999 V2000
    7.7210   -3.0401    0.5784 C   0  0  0  0  0  0  0  0  0  0  0  0
    7.0561   -1.9305    1.1690 O   0  0  0  0  0  0  0  0  0  0  0  0
    5.8150   -1.6281    0.6832 C   0  0  0  0  0  0  0  0  0  0  0  0
    5.2790   -0.4264    1.1471 C   0  0  0  0  0  0  0  0  0  0  0  0
    4.0143    0.0062    0.7306 C   0  0  0  0  0  0  0  0  0  0  0  0
    3.2619   -0.7701   -0.1492 C   0  0  0  0  0  0  0  0  0  0  0  0
    1.9800   -0.4195   -0.6113 N   0  0  0  0  0  0  0  0  0  0  0  0
    1.2459    0.7172   -0.3142 C   0  0  0  0  0  0  0  0  0  0  0  0
    1.5881    1.6462    0.4084 O   0  0  0  0  0  0  0  0  0  0  0  0
   -0.1306    0.6887   -1.0040 C   0  0  0  0  0  0  0  0  0  0  0  0
   -0.7838   -0.5537   -0.7453 O   0  0  0  0  0  0  0  0  0  0  0  0
   -1.2393   -0.6892    0.6014 C   0  0  0  0  0  0  0  0  0  0  0  0
   -2.0421   -1.8659    0.6767 O   0  0  0  0  0  0  0  0  0  0  0  0
   -3.3670   -1.4194    0.3472 C   0  0  0  0  0  0  0  0  0  0  0  0
   -4.3285   -1.9516    1.4032 C   0  0  0  0  0  0  0  0  0  0  0  0
   -3.7532   -1.9165   -1.0405 C   0  0  0  0  0  0  0  0  0  0  0  0
   -3.4098    0.0157    0.3542 O   0  0  0  0  0  0  0  0  0  0  0  0
   -2.2014    0.4035    1.0214 C   0  0  0  0  0  0  0  0  0  0  0  0
   -1.6991    1.8028    0.6742 C   0  0  0  0  0  0  0  0  0  0  0  0
   -2.7836    2.7391    0.5655 O   0  0  0  0  0  0  0  0  0  0  0  0
   -2.9667    2.9587   -0.8446 C   0  0  0  0  0  0  0  0  0  0  0  0
   -2.6849    4.4353   -1.1343 C   0  0  0  0  0  0  0  0  0  0  0  0
   -4.3894    2.6147   -1.2651 C   0  0  0  0  0  0  0  0  0  0  0  0
   -2.0384    2.1426   -1.5786 O   0  0  0  0  0  0  0  0  0  0  0  0
   -0.9730    1.9100   -0.6456 C   0  0  0  0  0  0  0  0  0  0  0  0
    3.7954   -1.9815   -0.6036 C   0  0  0  0  0  0  0  0  0  0  0  0
    5.0651   -2.4086   -0.1936 C   0  0  0  0  0  0  0  0  0  0  0  0
    7.2049   -3.9781    0.8113 H   0  0  0  0  0  0  0  0  0  0  0  0
    8.7249   -3.0960    1.0101 H   0  0  0  0  0  0  0  0  0  0  0  0
    7.8297   -2.9088   -0.5028 H   0  0  0  0  0  0  0  0  0  0  0  0
    5.8509    0.1844    1.8415 H   0  0  0  0  0  0  0  0  0  0  0  0
    3.6484    0.9498    1.1239 H   0  0  0  0  0  0  0  0  0  0  0  0
    1.5077   -1.1016   -1.1996 H   0  0  0  0  0  0  0  0  0  0  0  0
    0.0620    0.7110   -2.0849 H   0  0  0  0  0  0  0  0  0  0  0  0
   -0.3844   -0.7898    1.2775 H   0  0  0  0  0  0  0  0  0  0  0  0
   -4.0330   -1.6100    2.4014 H   0  0  0  0  0  0  0  0  0  0  0  0
   -5.3497   -1.5967    1.2299 H   0  0  0  0  0  0  0  0  0  0  0  0
   -4.3273   -3.0471    1.4264 H   0  0  0  0  0  0  0  0  0  0  0  0
   -3.0722   -1.5208   -1.8010 H   0  0  0  0  0  0  0  0  0  0  0  0
   -3.7009   -3.0079   -1.0985 H   0  0  0  0  0  0  0  0  0  0  0  0
   -4.7629   -1.5881   -1.3124 H   0  0  0  0  0  0  0  0  0  0  0  0
   -2.4213    0.3481    2.0961 H   0  0  0  0  0  0  0  0  0  0  0  0
   -1.0337    2.1320    1.4812 H   0  0  0  0  0  0  0  0  0  0  0  0
   -3.4008    5.0834   -0.6182 H   0  0  0  0  0  0  0  0  0  0  0  0
   -1.6880    4.7236   -0.7835 H   0  0  0  0  0  0  0  0  0  0  0  0
   -2.7233    4.6418   -2.2096 H   0  0  0  0  0  0  0  0  0  0  0  0
   -4.5489    2.8278   -2.3282 H   0  0  0  0  0  0  0  0  0  0  0  0
   -5.1223    3.1706   -0.6730 H   0  0  0  0  0  0  0  0  0  0  0  0
   -4.6024    1.5512   -1.1284 H   0  0  0  0  0  0  0  0  0  0  0  0
   -0.3518    2.8145   -0.6688 H   0  0  0  0  0  0  0  0  0  0  0  0
    3.2340   -2.6138   -1.2872 H   0  0  0  0  0  0  0  0  0  0  0  0
    5.4291   -3.3595   -0.5666 H   0  0  0  0  0  0  0  0  0  0  0  0
  1  2  1  0
  2  3  1  0
  3  4  2  0
  4  5  1  0
  5  6  2  0
  6  7  1  0
  7  8  1  0
  8  9  2  0
  8 10  1  0
 10 11  1  0
 11 12  1  0
 12 13  1  0
 13 14  1  0
 14 15  1  0
 14 16  1  0
 14 17  1  0
 17 18  1  0
 18 19  1  0
 19 20  1  0
 20 21  1  0
 21 22  1  0
 21 23  1  0
 21 24  1  0
 24 25  1  0
  6 26  1  0
 26 27  2  0
 27  3  1  0
 25 10  1  0
 18 12  1  0
 25 19  1  0
  1 28  1  0
  1 29  1  0
  1 30  1  0
  4 31  1  0
  5 32  1  0
  7 33  1  0
 10 34  1  0
 12 35  1  0
 15 36  1  0
 15 37  1  0
 15 38  1  0
 16 39  1  0
 16 40  1  0
 16 41  1  0
 18 42  1  0
 19 43  1  0
 22 44  1  0
 22 45  1  0
 22 46  1  0
 23 47  1  0
 23 48  1  0
 23 49  1  0
 25 50  1  0
 26 51  1  0
 27 52  1  0
M  END
$$$$
