
     RDKit          3D

 38 40  0  0  0  0  0  0  0  0999 V2000
   -0.3121    4.0044   -2.5704 C   0  0  0  0  0  0  0  0  0  0  0  0
    0.0887    3.1541   -1.4971 O   0  0  0  0  0  0  0  0  0  0  0  0
   -0.4022    1.9014   -1.5886 C   0  0  0  0  0  0  0  0  0  0  0  0
   -1.1319    1.4346   -2.4439 O   0  0  0  0  0  0  0  0  0  0  0  0
    0.0923    1.0892   -0.4084 C   0  0  0  0  0  0  0  0  0  0  0  0
    1.2597    0.5398   -0.5322 N   0  0  0  0  0  0  0  0  0  0  0  0
    1.7530   -0.2156    0.5221 N   0  0  0  0  0  0  0  0  0  0  0  0
    3.0559   -0.7807    0.2617 C   0  0  0  0  0  0  0  0  0  0  0  0
    3.7468   -1.5757    1.1883 C   0  0  0  0  0  0  0  0  0  0  0  0
    5.0116   -2.1075    0.8986 C   0  0  0  0  0  0  0  0  0  0  0  0
    5.6166   -1.8568   -0.3273 C   0  0  0  0  0  0  0  0  0  0  0  0
    4.9573   -1.0738   -1.2657 C   0  0  0  0  0  0  0  0  0  0  0  0
    3.6948   -0.5443   -0.9730 C   0  0  0  0  0  0  0  0  0  0  0  0
    1.0386   -0.3934    1.7145 C   0  0  0  0  0  0  0  0  0  0  0  0
    1.3733   -1.0282    2.7122 O   0  0  0  0  0  0  0  0  0  0  0  0
   -0.2856    0.2663    1.7878 C   0  0  0  0  0  0  0  0  0  0  0  0
   -0.7809    0.9775    0.7754 C   0  0  0  0  0  0  0  0  0  0  0  0
   -2.3076    1.7764    0.8396 S   0  0  0  0  0  0  0  0  0  0  0  0
   -3.3806    0.3539    0.7484 C   0  0  0  0  0  0  0  0  0  0  0  0
   -4.0252   -0.1046    1.9032 C   0  0  0  0  0  0  0  0  0  0  0  0
   -4.8704   -1.2163    1.8442 C   0  0  0  0  0  0  0  0  0  0  0  0
   -5.0779   -1.8650    0.6286 C   0  0  0  0  0  0  0  0  0  0  0  0
   -6.1189   -3.2320    0.5559 Cl  0  0  0  0  0  0  0  0  0  0  0  0
   -4.4508   -1.4090   -0.5289 C   0  0  0  0  0  0  0  0  0  0  0  0
   -3.6055   -0.2972   -0.4701 C   0  0  0  0  0  0  0  0  0  0  0  0
   -1.4006    4.1199   -2.5818 H   0  0  0  0  0  0  0  0  0  0  0  0
    0.1387    4.9878   -2.4112 H   0  0  0  0  0  0  0  0  0  0  0  0
    0.0454    3.6101   -3.5269 H   0  0  0  0  0  0  0  0  0  0  0  0
    3.3379   -1.8142    2.1638 H   0  0  0  0  0  0  0  0  0  0  0  0
    5.5190   -2.7199    1.6401 H   0  0  0  0  0  0  0  0  0  0  0  0
    6.5963   -2.2706   -0.5492 H   0  0  0  0  0  0  0  0  0  0  0  0
    5.4188   -0.8709   -2.2285 H   0  0  0  0  0  0  0  0  0  0  0  0
    3.2174    0.0615   -1.7394 H   0  0  0  0  0  0  0  0  0  0  0  0
   -0.8176    0.1253    2.7214 H   0  0  0  0  0  0  0  0  0  0  0  0
   -3.8782    0.3971    2.8571 H   0  0  0  0  0  0  0  0  0  0  0  0
   -5.3643   -1.5674    2.7466 H   0  0  0  0  0  0  0  0  0  0  0  0
   -4.6170   -1.9089   -1.4799 H   0  0  0  0  0  0  0  0  0  0  0  0
   -3.1350    0.0524   -1.3869 H   0  0  0  0  0  0  0  0  0  0  0  0
  1  2  1  0
  2  3  1  0
  3  4  2  0
  3  5  1  0
  5  6  2  0
  6  7  1  0
  7  8  1  0
  8  9  2  0
  9 10  1  0
 10 11  2  0
 11 12  1  0
 12 13  2  0
  7 14  1  0
 14 15  2  0
 14 16  1  0
 16 17  2  0
 17 18  1  0
 18 19  1  0
 19 20  2  0
 20 21  1  0
 21 22  2  0
 22 23  1  0
 22 24  1  0
 24 25  2  0
 17  5  1  0
 25 19  1  0
 13  8  1  0
  1 26  1  0
  1 27  1  0
  1 28  1  0
  9 29  1  0
 10 30  1  0
 11 31  1  0
 12 32  1  0
 13 33  1  0
 16 34  1  0
 20 35  1  0
 21 36  1  0
 24 37  1  0
 25 38  1  0
M  END
$$$$
