
     RDKit          3D

 40 42  0  0  0  0  0  0  0  0999 V2000
   -1.5659    0.4132    3.0329 O   0  0  0  0  0  0  0  0  0  0  0  0
   -1.4520   -0.2132    1.9756 C   0  0  0  0  0  0  0  0  0  0  0  0
   -2.4998   -1.2536    1.6026 C   0  0  0  0  0  0  0  0  0  0  0  0
   -3.4140   -0.8388    0.4721 C   0  0  0  0  0  0  0  0  0  0  0  0
   -4.0282    0.4229    0.4697 C   0  0  0  0  0  0  0  0  0  0  0  0
   -4.8838    0.7945   -0.5696 C   0  0  0  0  0  0  0  0  0  0  0  0
   -5.1407   -0.0993   -1.6060 C   0  0  0  0  0  0  0  0  0  0  0  0
   -6.2986    0.4020   -3.0134 Br  0  0  0  0  0  0  0  0  0  0  0  0
   -4.5553   -1.3633   -1.6094 C   0  0  0  0  0  0  0  0  0  0  0  0
   -3.6992   -1.7339   -0.5698 C   0  0  0  0  0  0  0  0  0  0  0  0
   -0.3904   -0.0002    1.1111 N   0  0  0  0  0  0  0  0  0  0  0  0
   -0.1980   -0.6685   -0.1840 C   0  0  0  0  0  0  0  0  0  0  0  0
    1.2780   -0.6889   -0.6268 C   0  0  0  0  0  0  0  0  0  0  0  0
    1.8724    0.6680   -0.6766 N   0  0  0  0  0  0  0  0  0  0  0  0
    3.2689    0.6138   -0.4816 C   0  0  0  0  0  0  0  0  0  0  0  0
    4.0632   -0.0388   -1.4281 C   0  0  0  0  0  0  0  0  0  0  0  0
    5.4432   -0.1116   -1.2480 C   0  0  0  0  0  0  0  0  0  0  0  0
    6.0084    0.4710   -0.1248 C   0  0  0  0  0  0  0  0  0  0  0  0
    5.1630    1.1048    0.7661 C   0  0  0  0  0  0  0  0  0  0  0  0
    3.8222    1.1855    0.6096 N   0  0  0  0  0  0  0  0  0  0  0  0
    1.1906    1.6794    0.1644 C   0  0  0  0  0  0  0  0  0  0  0  0
    0.5786    1.0613    1.4306 C   0  0  0  0  0  0  0  0  0  0  0  0
   -3.1205   -1.4422    2.4882 H   0  0  0  0  0  0  0  0  0  0  0  0
   -1.9961   -2.2028    1.3899 H   0  0  0  0  0  0  0  0  0  0  0  0
   -3.8457    1.1277    1.2803 H   0  0  0  0  0  0  0  0  0  0  0  0
   -5.3455    1.7783   -0.5567 H   0  0  0  0  0  0  0  0  0  0  0  0
   -4.7627   -2.0671   -2.4112 H   0  0  0  0  0  0  0  0  0  0  0  0
   -3.2586   -2.7286   -0.5799 H   0  0  0  0  0  0  0  0  0  0  0  0
   -0.5716   -1.6942   -0.1395 H   0  0  0  0  0  0  0  0  0  0  0  0
   -0.8007   -0.1213   -0.9185 H   0  0  0  0  0  0  0  0  0  0  0  0
    1.3440   -1.1516   -1.6184 H   0  0  0  0  0  0  0  0  0  0  0  0
    1.8277   -1.3270    0.0800 H   0  0  0  0  0  0  0  0  0  0  0  0
    3.6125   -0.4710   -2.3150 H   0  0  0  0  0  0  0  0  0  0  0  0
    6.0659   -0.6117   -1.9835 H   0  0  0  0  0  0  0  0  0  0  0  0
    7.0775    0.4389    0.0497 H   0  0  0  0  0  0  0  0  0  0  0  0
    5.5506    1.5829    1.6610 H   0  0  0  0  0  0  0  0  0  0  0  0
    1.8347    2.5305    0.4165 H   0  0  0  0  0  0  0  0  0  0  0  0
    0.3795    2.1043   -0.4419 H   0  0  0  0  0  0  0  0  0  0  0  0
    0.0919    1.8441    2.0220 H   0  0  0  0  0  0  0  0  0  0  0  0
    1.3550    0.6044    2.0551 H   0  0  0  0  0  0  0  0  0  0  0  0
  1  2  2  0
  2  3  1  0
  3  4  1  0
  4  5  2  0
  5  6  1  0
  6  7  2  0
  7  8  1  0
  7  9  1  0
  9 10  2  0
  2 11  1  0
 11 12  1  0
 12 13  1  0
 13 14  1  0
 14 15  1  0
 15 16  2  0
 16 17  1  0
 17 18  2  0
 18 19  1  0
 19 20  2  0
 14 21  1  0
 21 22  1  0
 10  4  1  0
 22 11  1  0
 20 15  1  0
  3 23  1  0
  3 24  1  0
  5 25  1  0
  6 26  1  0
  9 27  1  0
 10 28  1  0
 12 29  1  0
 12 30  1  0
 13 31  1  0
 13 32  1  0
 16 33  1  0
 17 34  1  0
 18 35  1  0
 19 36  1  0
 21 37  1  0
 21 38  1  0
 22 39  1  0
 22 40  1  0
M  END
$$$$
