
     RDKit          3D

 46 48  0  0  0  0  0  0  0  0999 V2000
    4.9336    4.2265   -2.7936 C   0  0  0  0  0  0  0  0  0  0  0  0
    3.5250    4.3424   -2.6322 O   0  0  0  0  0  0  0  0  0  0  0  0
    2.9738    3.2942   -1.8364 C   0  0  0  0  0  0  0  0  0  0  0  0
    2.6944    2.0415   -2.6663 C   0  0  0  0  0  0  0  0  0  0  0  0
    2.0940    1.0106   -1.8679 O   0  0  0  0  0  0  0  0  0  0  0  0
    2.9611    0.2708   -1.1185 C   0  0  0  0  0  0  0  0  0  0  0  0
    4.1727    0.4550   -1.1009 O   0  0  0  0  0  0  0  0  0  0  0  0
    2.2961   -0.7584   -0.3385 C   0  0  0  0  0  0  0  0  0  0  0  0
    2.9526   -1.6623    0.4853 C   0  0  0  0  0  0  0  0  0  0  0  0
    4.3770   -1.8816    0.8236 C   0  0  0  0  0  0  0  0  0  0  0  0
    2.0648   -2.4998    1.0869 O   0  0  0  0  0  0  0  0  0  0  0  0
    0.8258   -2.1458    0.6621 C   0  0  0  0  0  0  0  0  0  0  0  0
   -0.3599   -2.7607    1.0591 C   0  0  0  0  0  0  0  0  0  0  0  0
   -1.5424   -2.2505    0.5161 C   0  0  0  0  0  0  0  0  0  0  0  0
   -1.5139   -1.1841   -0.3831 C   0  0  0  0  0  0  0  0  0  0  0  0
   -2.7414   -0.6681   -0.8820 N   0  0  0  0  0  0  0  0  0  0  0  0
   -3.4534    0.6197   -0.0459 S   0  0  0  0  0  6  0  0  0  0  0  0
   -4.4853    1.1397   -0.9181 O   0  0  0  0  0  0  0  0  0  0  0  0
   -2.4195    1.4820    0.4834 O   0  0  0  0  0  0  0  0  0  0  0  0
   -4.2661   -0.2005    1.3041 C   0  0  0  0  0  0  0  0  0  0  0  0
   -3.6971   -0.1650    2.5829 C   0  0  0  0  0  0  0  0  0  0  0  0
   -4.3484   -0.8027    3.6392 C   0  0  0  0  0  0  0  0  0  0  0  0
   -5.5568   -1.4547    3.4093 C   0  0  0  0  0  0  0  0  0  0  0  0
   -6.1778   -2.0665    4.4258 F   0  0  0  0  0  0  0  0  0  0  0  0
   -6.1326   -1.4801    2.1418 C   0  0  0  0  0  0  0  0  0  0  0  0
   -5.4882   -0.8460    1.0792 C   0  0  0  0  0  0  0  0  0  0  0  0
   -0.3054   -0.5829   -0.7625 C   0  0  0  0  0  0  0  0  0  0  0  0
    0.9019   -1.0780   -0.2253 C   0  0  0  0  0  0  0  0  0  0  0  0
    5.1948    3.3001   -3.3120 H   0  0  0  0  0  0  0  0  0  0  0  0
    5.4350    4.2694   -1.8220 H   0  0  0  0  0  0  0  0  0  0  0  0
    5.2783    5.0695   -3.3986 H   0  0  0  0  0  0  0  0  0  0  0  0
    2.0261    3.6596   -1.4246 H   0  0  0  0  0  0  0  0  0  0  0  0
    3.6140    3.0828   -0.9721 H   0  0  0  0  0  0  0  0  0  0  0  0
    3.5927    1.6677   -3.1711 H   0  0  0  0  0  0  0  0  0  0  0  0
    1.9881    2.2867   -3.4677 H   0  0  0  0  0  0  0  0  0  0  0  0
    4.7992   -0.9907    1.2985 H   0  0  0  0  0  0  0  0  0  0  0  0
    4.4967   -2.7213    1.5155 H   0  0  0  0  0  0  0  0  0  0  0  0
    4.9553   -2.1038   -0.0785 H   0  0  0  0  0  0  0  0  0  0  0  0
   -0.3575   -3.5904    1.7558 H   0  0  0  0  0  0  0  0  0  0  0  0
   -2.4894   -2.7051    0.7976 H   0  0  0  0  0  0  0  0  0  0  0  0
   -2.8160   -0.5237   -1.8889 H   0  0  0  0  0  0  0  0  0  0  0  0
   -2.7549    0.3496    2.7609 H   0  0  0  0  0  0  0  0  0  0  0  0
   -3.9255   -0.7926    4.6394 H   0  0  0  0  0  0  0  0  0  0  0  0
   -7.0802   -1.9890    1.9932 H   0  0  0  0  0  0  0  0  0  0  0  0
   -5.9380   -0.8558    0.0887 H   0  0  0  0  0  0  0  0  0  0  0  0
   -0.3034    0.2640   -1.4416 H   0  0  0  0  0  0  0  0  0  0  0  0
  1  2  1  0
  2  3  1  0
  3  4  1  0
  4  5  1  0
  5  6  1  0
  6  7  2  0
  6  8  1  0
  8  9  2  0
  9 10  1  0
  9 11  1  0
 11 12  1  0
 12 13  2  0
 13 14  1  0
 14 15  2  0
 15 16  1  0
 16 17  1  0
 17 18  2  0
 17 19  2  0
 17 20  1  0
 20 21  2  0
 21 22  1  0
 22 23  2  0
 23 24  1  0
 23 25  1  0
 25 26  2  0
 15 27  1  0
 27 28  2  0
 28  8  1  0
 28 12  1  0
 26 20  1  0
  1 29  1  0
  1 30  1  0
  1 31  1  0
  3 32  1  0
  3 33  1  0
  4 34  1  0
  4 35  1  0
 10 36  1  0
 10 37  1  0
 10 38  1  0
 13 39  1  0
 14 40  1  0
 16 41  1  0
 21 42  1  0
 22 43  1  0
 25 44  1  0
 26 45  1  0
 27 46  1  0
M  END
$$$$
