
     RDKit          3D

 37 37  0  0  0  0  0  0  0  0999 V2000
    5.8197    1.0959   -0.4256 C   0  0  0  0  0  0  0  0  0  0  0  0
    4.5235    0.3505   -0.1458 C   0  0  0  0  0  0  0  0  0  0  0  0
    3.4372    0.7239   -1.1552 C   0  0  0  0  0  0  0  0  0  0  0  0
    2.1469   -0.0836   -0.9877 C   0  0  0  0  0  0  0  0  0  0  0  0
    1.4183    0.1997    0.3279 C   0  0  0  0  0  0  0  0  0  0  0  0
    0.0818   -0.5448    0.3919 C   0  0  0  0  0  0  0  0  0  0  0  0
   -0.6487   -0.2611    1.7073 C   0  0  0  0  0  0  0  0  0  0  0  0
   -1.9448   -1.0630    1.8620 C   0  0  0  0  0  0  0  0  0  0  0  0
   -2.9724   -0.6446    0.8935 N   0  0  0  0  0  0  0  0  0  0  0  0
   -3.2471   -1.3996   -0.2403 C   0  0  0  0  0  0  0  0  0  0  0  0
   -4.1652   -1.0799   -1.1620 C   0  0  0  0  0  0  0  0  0  0  0  0
   -4.9496    0.1675   -0.9622 C   0  0  0  0  0  0  0  0  0  0  0  0
   -5.8578    0.5682   -1.7917 N   0  0  0  0  0  0  0  0  0  0  0  0
   -4.6541    0.9654    0.2526 C   0  0  0  0  0  0  0  0  0  0  0  0
   -3.7063    0.5202    1.0866 C   0  0  0  0  0  0  0  0  0  0  0  0
    6.2042    0.8550   -1.4218 H   0  0  0  0  0  0  0  0  0  0  0  0
    6.5824    0.8183    0.3087 H   0  0  0  0  0  0  0  0  0  0  0  0
    5.6697    2.1787   -0.3671 H   0  0  0  0  0  0  0  0  0  0  0  0
    4.7140   -0.7282   -0.1847 H   0  0  0  0  0  0  0  0  0  0  0  0
    4.1964    0.5883    0.8719 H   0  0  0  0  0  0  0  0  0  0  0  0
    3.2132    1.7950   -1.0797 H   0  0  0  0  0  0  0  0  0  0  0  0
    3.8176    0.5524   -2.1699 H   0  0  0  0  0  0  0  0  0  0  0  0
    2.3706   -1.1546   -1.0643 H   0  0  0  0  0  0  0  0  0  0  0  0
    1.4811    0.1601   -1.8250 H   0  0  0  0  0  0  0  0  0  0  0  0
    1.2425    1.2777    0.4265 H   0  0  0  0  0  0  0  0  0  0  0  0
    2.0404   -0.1082    1.1756 H   0  0  0  0  0  0  0  0  0  0  0  0
   -0.5409   -0.2368   -0.4556 H   0  0  0  0  0  0  0  0  0  0  0  0
    0.2577   -1.6227    0.2932 H   0  0  0  0  0  0  0  0  0  0  0  0
   -0.8560    0.8129    1.7873 H   0  0  0  0  0  0  0  0  0  0  0  0
    0.0126   -0.5184    2.5441 H   0  0  0  0  0  0  0  0  0  0  0  0
   -2.3330   -0.9219    2.8789 H   0  0  0  0  0  0  0  0  0  0  0  0
   -1.7341   -2.1357    1.7666 H   0  0  0  0  0  0  0  0  0  0  0  0
   -2.6485   -2.2998   -0.3458 H   0  0  0  0  0  0  0  0  0  0  0  0
   -4.3517   -1.6891   -2.0340 H   0  0  0  0  0  0  0  0  0  0  0  0
   -5.9447   -0.0851   -2.5748 H   0  0  0  0  0  0  0  0  0  0  0  0
   -5.2157    1.8741    0.4167 H   0  0  0  0  0  0  0  0  0  0  0  0
   -3.4591    1.0731    1.9882 H   0  0  0  0  0  0  0  0  0  0  0  0
  1  2  1  0
  2  3  1  0
  3  4  1  0
  4  5  1  0
  5  6  1  0
  6  7  1  0
  7  8  1  0
  8  9  1  0
  9 10  1  0
 10 11  2  0
 11 12  1  0
 12 13  2  3
 12 14  1  0
 14 15  2  0
 15  9  1  0
  1 16  1  0
  1 17  1  0
  1 18  1  0
  2 19  1  0
  2 20  1  0
  3 21  1  0
  3 22  1  0
  4 23  1  0
  4 24  1  0
  5 25  1  0
  5 26  1  0
  6 27  1  0
  6 28  1  0
  7 29  1  0
  7 30  1  0
  8 31  1  0
  8 32  1  0
 10 33  1  0
 11 34  1  0
 13 35  1  0
 14 36  1  0
 15 37  1  0
M  END
$$$$
