
     RDKit          3D

 50 52  0  0  0  0  0  0  0  0999 V2000
   -5.2434    0.9020   -4.0839 O   0  0  0  0  0  0  0  0  0  0  0  0
   -4.3487    0.2651   -3.5340 C   0  0  0  0  0  0  0  0  0  0  0  0
   -3.2163   -0.4057   -4.3131 C   0  0  0  0  0  0  0  0  0  0  0  0
   -2.0820   -0.7366   -3.5047 O   0  0  0  0  0  0  0  0  0  0  0  0
   -1.2323    0.2975   -3.2894 C   0  0  0  0  0  0  0  0  0  0  0  0
   -1.3629    1.4322   -3.7167 O   0  0  0  0  0  0  0  0  0  0  0  0
   -0.0791   -0.1320   -2.4544 C   0  0  0  0  0  0  0  0  0  0  0  0
   -0.0708   -1.3461   -1.7507 C   0  0  0  0  0  0  0  0  0  0  0  0
    1.0355   -1.6995   -0.9719 C   0  0  0  0  0  0  0  0  0  0  0  0
    2.1328   -0.8369   -0.9035 C   0  0  0  0  0  0  0  0  0  0  0  0
    3.5513   -1.2717    0.0755 S   0  0  0  0  0  6  0  0  0  0  0  0
    4.6821   -1.3206   -0.8251 O   0  0  0  0  0  0  0  0  0  0  0  0
    3.2003   -2.3998    0.9133 O   0  0  0  0  0  0  0  0  0  0  0  0
    3.7325    0.0840    1.0975 N   0  0  0  0  0  0  0  0  0  0  0  0
    2.6261    0.3382    2.0640 C   0  0  0  0  0  0  0  0  0  0  0  0
    3.0602    0.0681    3.4983 C   0  0  0  0  0  0  0  0  0  0  0  0
    4.2371    0.9512    3.9085 C   0  0  0  0  0  0  0  0  0  0  0  0
    5.1370    1.3070    2.7277 C   0  0  0  0  0  0  0  0  0  0  0  0
    5.1048    0.2202    1.6612 C   0  0  0  0  0  0  0  0  0  0  0  0
    2.1374    0.3747   -1.6000 C   0  0  0  0  0  0  0  0  0  0  0  0
    1.0274    0.7274   -2.3699 C   0  0  0  0  0  0  0  0  0  0  0  0
   -4.3100    0.0399   -2.1761 N   0  0  0  0  0  0  0  0  0  0  0  0
   -5.3678    0.5081   -1.3145 C   0  0  0  0  0  0  0  0  0  0  0  0
   -5.0081    0.1718    0.0827 C   0  0  0  0  0  0  0  0  0  0  0  0
   -4.3787    0.8596    1.1009 C   0  0  0  0  0  0  0  0  0  0  0  0
   -4.3256   -0.0244    2.2071 C   0  0  0  0  0  0  0  0  0  0  0  0
   -4.9211   -1.1924    1.7936 C   0  0  0  0  0  0  0  0  0  0  0  0
   -5.3268   -1.0878    0.5023 O   0  0  0  0  0  0  0  0  0  0  0  0
   -3.6069   -1.3402   -4.7245 H   0  0  0  0  0  0  0  0  0  0  0  0
   -2.9271    0.2324   -5.1549 H   0  0  0  0  0  0  0  0  0  0  0  0
   -0.9174   -2.0264   -1.7987 H   0  0  0  0  0  0  0  0  0  0  0  0
    1.0364   -2.6444   -0.4321 H   0  0  0  0  0  0  0  0  0  0  0  0
    1.7444   -0.2688    1.8316 H   0  0  0  0  0  0  0  0  0  0  0  0
    2.3168    1.3838    1.9499 H   0  0  0  0  0  0  0  0  0  0  0  0
    3.3491   -0.9860    3.5981 H   0  0  0  0  0  0  0  0  0  0  0  0
    2.2226    0.2285    4.1861 H   0  0  0  0  0  0  0  0  0  0  0  0
    4.8180    0.4309    4.6772 H   0  0  0  0  0  0  0  0  0  0  0  0
    3.8732    1.8758    4.3703 H   0  0  0  0  0  0  0  0  0  0  0  0
    4.8013    2.2557    2.2904 H   0  0  0  0  0  0  0  0  0  0  0  0
    6.1619    1.4681    3.0799 H   0  0  0  0  0  0  0  0  0  0  0  0
    5.4408   -0.7333    2.0854 H   0  0  0  0  0  0  0  0  0  0  0  0
    5.7891    0.4994    0.8527 H   0  0  0  0  0  0  0  0  0  0  0  0
    2.9988    1.0382   -1.5479 H   0  0  0  0  0  0  0  0  0  0  0  0
    1.0298    1.6715   -2.9113 H   0  0  0  0  0  0  0  0  0  0  0  0
   -3.6920   -0.6832   -1.8314 H   0  0  0  0  0  0  0  0  0  0  0  0
   -5.4905    1.5887   -1.4518 H   0  0  0  0  0  0  0  0  0  0  0  0
   -6.3014    0.0180   -1.6091 H   0  0  0  0  0  0  0  0  0  0  0  0
   -4.0045    1.8729    1.0502 H   0  0  0  0  0  0  0  0  0  0  0  0
   -3.9089    0.1671    3.1866 H   0  0  0  0  0  0  0  0  0  0  0  0
   -5.1246   -2.1426    2.2700 H   0  0  0  0  0  0  0  0  0  0  0  0
  1  2  2  0
  2  3  1  0
  3  4  1  0
  4  5  1  0
  5  6  2  0
  5  7  1  0
  7  8  2  0
  8  9  1  0
  9 10  2  0
 10 11  1  0
 11 12  2  0
 11 13  2  0
 11 14  1  0
 14 15  1  0
 15 16  1  0
 16 17  1  0
 17 18  1  0
 18 19  1  0
 10 20  1  0
 20 21  2  0
  2 22  1  0
 22 23  1  0
 23 24  1  0
 24 25  2  0
 25 26  1  0
 26 27  2  0
 27 28  1  0
 21  7  1  0
 28 24  1  0
 19 14  1  0
  3 29  1  0
  3 30  1  0
  8 31  1  0
  9 32  1  0
 15 33  1  0
 15 34  1  0
 16 35  1  0
 16 36  1  0
 17 37  1  0
 17 38  1  0
 18 39  1  0
 18 40  1  0
 19 41  1  0
 19 42  1  0
 20 43  1  0
 21 44  1  0
 22 45  1  0
 23 46  1  0
 23 47  1  0
 25 48  1  0
 26 49  1  0
 27 50  1  0
M  END
$$$$
