
     RDKit          3D

 45 49  0  0  0  0  0  0  0  0999 V2000
    0.9586    0.9922    3.0276 O   0  0  0  0  0  0  0  0  0  0  0  0
    0.2793    1.1199    2.0135 C   0  0  0  0  0  0  0  0  0  0  0  0
   -1.2099    1.3395    2.0436 C   0  0  0  0  0  0  0  0  0  0  0  0
   -1.8998    0.7901    0.8868 N   0  0  0  0  0  0  0  0  0  0  0  0
   -2.1115   -0.5767    0.7237 C   0  0  0  0  0  0  0  0  0  0  0  0
   -1.6234   -1.4577    1.5841 O   0  0  0  0  0  0  0  0  0  0  0  0
   -2.8547   -0.7138   -0.4079 C   0  0  0  0  0  0  0  0  0  0  0  0
   -3.0860    0.5686   -0.9450 C   0  0  0  0  0  0  0  0  0  0  0  0
   -2.4769    1.5038   -0.1620 C   0  0  0  0  0  0  0  0  0  0  0  0
   -2.4215    2.8199   -0.3177 O   0  0  0  0  0  0  0  0  0  0  0  0
   -3.8958    0.3916   -2.1900 C   0  0  0  0  0  0  0  0  0  0  0  0
   -5.3098   -0.0893   -1.7727 C   0  0  0  0  0  0  0  0  0  0  0  0
   -5.0542   -1.5130   -1.1768 C   0  0  0  0  0  0  0  0  0  0  0  0
   -3.5207   -1.6978   -1.3160 C   0  0  0  0  0  0  0  0  0  0  0  0
   -3.3085   -0.9714   -2.6859 C   0  0  0  0  0  0  0  0  0  0  0  0
    0.7677    1.2094    0.7127 O   0  0  0  0  0  0  0  0  0  0  0  0
    2.1394    0.9774    0.5555 C   0  0  0  0  0  0  0  0  0  0  0  0
    2.9017    1.9882   -0.0195 C   0  0  0  0  0  0  0  0  0  0  0  0
    4.2619    1.7732   -0.2432 C   0  0  0  0  0  0  0  0  0  0  0  0
    4.8598    0.5457    0.0918 C   0  0  0  0  0  0  0  0  0  0  0  0
    6.2273    0.3157   -0.1277 C   0  0  0  0  0  0  0  0  0  0  0  0
    6.8077   -0.9094    0.2055 C   0  0  0  0  0  0  0  0  0  0  0  0
    6.0293   -1.9202    0.7618 C   0  0  0  0  0  0  0  0  0  0  0  0
    4.6681   -1.7094    0.9866 C   0  0  0  0  0  0  0  0  0  0  0  0
    4.0682   -0.4832    0.6580 C   0  0  0  0  0  0  0  0  0  0  0  0
    2.7009   -0.2583    0.8776 C   0  0  0  0  0  0  0  0  0  0  0  0
   -1.4170    2.4097    2.1178 H   0  0  0  0  0  0  0  0  0  0  0  0
   -1.6288    0.8475    2.9285 H   0  0  0  0  0  0  0  0  0  0  0  0
   -1.9051   -2.3373    1.2720 H   0  0  0  0  0  0  0  0  0  0  0  0
   -1.7251    3.2021    0.2367 H   0  0  0  0  0  0  0  0  0  0  0  0
   -3.8609    1.2122   -2.9061 H   0  0  0  0  0  0  0  0  0  0  0  0
   -5.7780    0.5722   -1.0358 H   0  0  0  0  0  0  0  0  0  0  0  0
   -5.9706   -0.1644   -2.6437 H   0  0  0  0  0  0  0  0  0  0  0  0
   -5.3922   -1.5756   -0.1368 H   0  0  0  0  0  0  0  0  0  0  0  0
   -5.5938   -2.2640   -1.7647 H   0  0  0  0  0  0  0  0  0  0  0  0
   -3.1555   -2.7231   -1.2612 H   0  0  0  0  0  0  0  0  0  0  0  0
   -3.8775   -1.4178   -3.5088 H   0  0  0  0  0  0  0  0  0  0  0  0
   -2.2495   -0.8974   -2.9633 H   0  0  0  0  0  0  0  0  0  0  0  0
    2.4475    2.9350   -0.2938 H   0  0  0  0  0  0  0  0  0  0  0  0
    4.8551    2.5699   -0.6862 H   0  0  0  0  0  0  0  0  0  0  0  0
    6.8530    1.0926   -0.5613 H   0  0  0  0  0  0  0  0  0  0  0  0
    7.8679   -1.0728    0.0311 H   0  0  0  0  0  0  0  0  0  0  0  0
    6.4808   -2.8737    1.0231 H   0  0  0  0  0  0  0  0  0  0  0  0
    4.0768   -2.5103    1.4250 H   0  0  0  0  0  0  0  0  0  0  0  0
    2.0760   -1.0397    1.3016 H   0  0  0  0  0  0  0  0  0  0  0  0
  1  2  2  0
  2  3  1  0
  3  4  1  0
  4  5  1  0
  5  6  1  0
  5  7  2  0
  7  8  1  0
  8  9  2  0
  9 10  1  0
  8 11  1  0
 11 12  1  0
 12 13  1  0
 13 14  1  0
 14 15  1  0
  2 16  1  0
 16 17  1  0
 17 18  2  0
 18 19  1  0
 19 20  2  0
 20 21  1  0
 21 22  2  0
 22 23  1  0
 23 24  2  0
 24 25  1  0
 25 26  2  0
  9  4  1  0
 15 11  1  0
 26 17  1  0
 14  7  1  0
 25 20  1  0
  3 27  1  0
  3 28  1  0
  6 29  1  0
 10 30  1  0
 11 31  1  0
 12 32  1  0
 12 33  1  0
 13 34  1  0
 13 35  1  0
 14 36  1  0
 15 37  1  0
 15 38  1  0
 18 39  1  0
 19 40  1  0
 21 41  1  0
 22 42  1  0
 23 43  1  0
 24 44  1  0
 26 45  1  0
M  END
$$$$
