
     RDKit          3D

 45 47  0  0  0  0  0  0  0  0999 V2000
    6.4957    3.7180   -1.8171 C   0  0  0  0  0  0  0  0  0  0  0  0
    5.0111    3.4669   -1.9096 C   0  0  0  0  0  0  0  0  0  0  0  0
    4.3664    3.8666   -2.8722 O   0  0  0  0  0  0  0  0  0  0  0  0
    4.5353    2.7375   -0.8346 N   0  0  0  0  0  0  0  0  0  0  0  0
    3.2057    2.3358   -0.5922 C   0  0  0  0  0  0  0  0  0  0  0  0
    2.9730    1.5510    0.5462 C   0  0  0  0  0  0  0  0  0  0  0  0
    1.6848    1.1063    0.8584 C   0  0  0  0  0  0  0  0  0  0  0  0
    0.6201    1.4374    0.0197 C   0  0  0  0  0  0  0  0  0  0  0  0
   -1.0292    0.8930    0.4212 S   0  0  0  0  0  6  0  0  0  0  0  0
   -1.0686    0.6539    1.8475 O   0  0  0  0  0  0  0  0  0  0  0  0
   -1.9433    1.8430   -0.1823 O   0  0  0  0  0  0  0  0  0  0  0  0
   -1.1468   -0.5366   -0.4223 N   0  0  0  0  0  0  0  0  0  0  0  0
   -1.4598   -0.4772   -1.8497 C   0  0  0  0  0  0  0  0  0  0  0  0
   -1.4359   -1.9674   -2.2001 C   0  0  0  0  0  0  0  0  0  0  0  0
   -0.7762   -2.6823   -1.0736 N   0  0  0  0  0  0  0  0  0  0  0  0
   -0.6842   -1.8159   -0.1146 C   0  0  0  0  0  0  0  0  0  0  0  0
   -0.0028   -2.2262    1.4082 S   0  0  0  0  0  0  0  0  0  0  0  0
   -1.1862   -3.5070    1.9017 C   0  0  0  0  0  0  0  0  0  0  0  0
   -2.6164   -3.0227    1.9489 C   0  0  0  0  0  0  0  0  0  0  0  0
   -3.0222   -2.0709    2.8991 C   0  0  0  0  0  0  0  0  0  0  0  0
   -4.3401   -1.6126    2.9232 C   0  0  0  0  0  0  0  0  0  0  0  0
   -5.2548   -2.1070    2.0027 C   0  0  0  0  0  0  0  0  0  0  0  0
   -6.5197   -1.6674    2.0263 F   0  0  0  0  0  0  0  0  0  0  0  0
   -4.8766   -3.0504    1.0555 C   0  0  0  0  0  0  0  0  0  0  0  0
   -3.5586   -3.5084    1.0269 C   0  0  0  0  0  0  0  0  0  0  0  0
    0.8316    2.2454   -1.0991 C   0  0  0  0  0  0  0  0  0  0  0  0
    2.1243    2.6842   -1.4060 C   0  0  0  0  0  0  0  0  0  0  0  0
    7.0348    2.8493   -2.2040 H   0  0  0  0  0  0  0  0  0  0  0  0
    6.7967    3.9079   -0.7827 H   0  0  0  0  0  0  0  0  0  0  0  0
    6.7524    4.5997   -2.4116 H   0  0  0  0  0  0  0  0  0  0  0  0
    5.2202    2.4383   -0.1519 H   0  0  0  0  0  0  0  0  0  0  0  0
    3.7893    1.2758    1.2100 H   0  0  0  0  0  0  0  0  0  0  0  0
    1.5258    0.5123    1.7557 H   0  0  0  0  0  0  0  0  0  0  0  0
   -2.4412   -0.0413   -2.0525 H   0  0  0  0  0  0  0  0  0  0  0  0
   -0.6835    0.0546   -2.4062 H   0  0  0  0  0  0  0  0  0  0  0  0
   -2.4529   -2.3579   -2.3189 H   0  0  0  0  0  0  0  0  0  0  0  0
   -0.8906   -2.1441   -3.1326 H   0  0  0  0  0  0  0  0  0  0  0  0
   -0.9056   -3.8702    2.8970 H   0  0  0  0  0  0  0  0  0  0  0  0
   -1.0875   -4.3634    1.2251 H   0  0  0  0  0  0  0  0  0  0  0  0
   -2.3082   -1.6645    3.6137 H   0  0  0  0  0  0  0  0  0  0  0  0
   -4.6530   -0.8680    3.6480 H   0  0  0  0  0  0  0  0  0  0  0  0
   -5.6087   -3.4204    0.3452 H   0  0  0  0  0  0  0  0  0  0  0  0
   -3.2685   -4.2402    0.2750 H   0  0  0  0  0  0  0  0  0  0  0  0
    0.0034    2.5470   -1.7367 H   0  0  0  0  0  0  0  0  0  0  0  0
    2.2505    3.3099   -2.2848 H   0  0  0  0  0  0  0  0  0  0  0  0
  1  2  1  0
  2  3  2  0
  2  4  1  0
  4  5  1  0
  5  6  2  0
  6  7  1  0
  7  8  2  0
  8  9  1  0
  9 10  2  0
  9 11  2  0
  9 12  1  0
 12 13  1  0
 13 14  1  0
 14 15  1  0
 15 16  2  0
 16 17  1  0
 17 18  1  0
 18 19  1  0
 19 20  2  0
 20 21  1  0
 21 22  2  0
 22 23  1  0
 22 24  1  0
 24 25  2  0
  8 26  1  0
 26 27  2  0
 27  5  1  0
 16 12  1  0
 25 19  1  0
  1 28  1  0
  1 29  1  0
  1 30  1  0
  4 31  1  0
  6 32  1  0
  7 33  1  0
 13 34  1  0
 13 35  1  0
 14 36  1  0
 14 37  1  0
 18 38  1  0
 18 39  1  0
 20 40  1  0
 21 41  1  0
 24 42  1  0
 25 43  1  0
 26 44  1  0
 27 45  1  0
M  END
$$$$
