
     RDKit          3D

 66 68  0  0  0  0  0  0  0  0999 V2000
   -2.8259    6.2859    3.1081 C   0  0  0  0  0  0  0  0  0  0  0  0
   -3.3377    5.3199    2.1979 O   0  0  0  0  0  0  0  0  0  0  0  0
   -2.8253    4.0117    2.4745 C   0  0  0  0  0  0  0  0  0  0  0  0
   -3.4034    3.0275    1.4546 C   0  0  0  0  0  0  0  0  0  0  0  0
   -3.0012    3.3858    0.0975 N   0  0  0  0  0  0  0  0  0  0  0  0
   -2.4260    2.6001   -0.8572 C   0  0  0  0  0  0  0  0  0  0  0  0
   -1.6635    3.3811   -2.1255 S   0  0  0  0  0  0  0  0  0  0  0  0
   -2.5276    1.2242   -0.6749 N   0  0  0  0  0  0  0  0  0  0  0  0
   -3.8909    0.6863   -0.6972 C   0  0  0  0  0  0  0  0  0  0  0  0
   -3.9815   -0.6160    0.0820 C   0  0  0  0  0  0  0  0  0  0  0  0
   -3.0322   -1.6216   -0.5067 C   0  0  0  0  0  0  0  0  0  0  0  0
   -3.3259   -2.9932   -0.4235 C   0  0  0  0  0  0  0  0  0  0  0  0
   -2.4697   -3.9449   -0.9857 C   0  0  0  0  0  0  0  0  0  0  0  0
   -2.6807   -5.3007   -0.9478 O   0  0  0  0  0  0  0  0  0  0  0  0
   -3.9321   -5.7574   -0.4560 C   0  0  0  0  0  0  0  0  0  0  0  0
   -1.2951   -3.5182   -1.6268 C   0  0  0  0  0  0  0  0  0  0  0  0
   -0.4986   -4.4981   -2.1676 O   0  0  0  0  0  0  0  0  0  0  0  0
    0.8656   -4.1604   -2.3825 C   0  0  0  0  0  0  0  0  0  0  0  0
   -1.0099   -2.1503   -1.7129 C   0  0  0  0  0  0  0  0  0  0  0  0
   -1.8525   -1.1850   -1.1304 C   0  0  0  0  0  0  0  0  0  0  0  0
   -1.4713    0.3055   -1.2017 C   0  0  0  0  0  0  0  0  0  0  0  0
   -0.1340    0.5336   -0.4338 C   0  0  0  0  0  0  0  0  0  0  0  0
    0.9725    0.1770   -1.2729 O   0  0  0  0  0  0  0  0  0  0  0  0
    2.2174    0.1945   -0.7106 C   0  0  0  0  0  0  0  0  0  0  0  0
    3.2381   -0.2732   -1.5392 C   0  0  0  0  0  0  0  0  0  0  0  0
    4.5606   -0.3143   -1.0899 C   0  0  0  0  0  0  0  0  0  0  0  0
    4.8878    0.1151    0.2029 C   0  0  0  0  0  0  0  0  0  0  0  0
    6.3150    0.0821    0.7192 C   0  0  0  0  0  0  0  0  0  0  0  0
    6.8825   -1.3399    0.7246 C   0  0  0  0  0  0  0  0  0  0  0  0
    7.2194    1.0283   -0.0744 C   0  0  0  0  0  0  0  0  0  0  0  0
    3.8579    0.5936    1.0254 C   0  0  0  0  0  0  0  0  0  0  0  0
    2.5336    0.6349    0.5730 C   0  0  0  0  0  0  0  0  0  0  0  0
   -3.2554    7.2587    2.8547 H   0  0  0  0  0  0  0  0  0  0  0  0
   -1.7363    6.3512    3.0241 H   0  0  0  0  0  0  0  0  0  0  0  0
   -3.1112    6.0342    4.1347 H   0  0  0  0  0  0  0  0  0  0  0  0
   -3.1257    3.7108    3.4847 H   0  0  0  0  0  0  0  0  0  0  0  0
   -1.7307    4.0275    2.4092 H   0  0  0  0  0  0  0  0  0  0  0  0
   -4.4976    3.0709    1.4717 H   0  0  0  0  0  0  0  0  0  0  0  0
   -3.0741    2.0137    1.6961 H   0  0  0  0  0  0  0  0  0  0  0  0
   -2.9718    4.3835   -0.0918 H   0  0  0  0  0  0  0  0  0  0  0  0
   -4.6082    1.4085   -0.2967 H   0  0  0  0  0  0  0  0  0  0  0  0
   -4.1660    0.5375   -1.7504 H   0  0  0  0  0  0  0  0  0  0  0  0
   -3.7221   -0.4578    1.1355 H   0  0  0  0  0  0  0  0  0  0  0  0
   -5.0113   -0.9887    0.0353 H   0  0  0  0  0  0  0  0  0  0  0  0
   -4.2366   -3.2939    0.0852 H   0  0  0  0  0  0  0  0  0  0  0  0
   -3.9618   -6.8448   -0.5756 H   0  0  0  0  0  0  0  0  0  0  0  0
   -4.7636   -5.3374   -1.0321 H   0  0  0  0  0  0  0  0  0  0  0  0
   -4.0390   -5.5385    0.6114 H   0  0  0  0  0  0  0  0  0  0  0  0
    1.3144   -3.7045   -1.4933 H   0  0  0  0  0  0  0  0  0  0  0  0
    0.9719   -3.5099   -3.2560 H   0  0  0  0  0  0  0  0  0  0  0  0
    1.4099   -5.0865   -2.5918 H   0  0  0  0  0  0  0  0  0  0  0  0
   -0.1261   -1.8134   -2.2464 H   0  0  0  0  0  0  0  0  0  0  0  0
   -1.3395    0.5291   -2.2681 H   0  0  0  0  0  0  0  0  0  0  0  0
   -0.1304   -0.0666    0.4860 H   0  0  0  0  0  0  0  0  0  0  0  0
   -0.0210    1.5877   -0.1581 H   0  0  0  0  0  0  0  0  0  0  0  0
    3.0032   -0.6067   -2.5469 H   0  0  0  0  0  0  0  0  0  0  0  0
    5.3310   -0.6818   -1.7632 H   0  0  0  0  0  0  0  0  0  0  0  0
    6.3173    0.4304    1.7608 H   0  0  0  0  0  0  0  0  0  0  0  0
    6.9753   -1.7494   -0.2877 H   0  0  0  0  0  0  0  0  0  0  0  0
    6.2398   -2.0160    1.3006 H   0  0  0  0  0  0  0  0  0  0  0  0
    7.8783   -1.3548    1.1812 H   0  0  0  0  0  0  0  0  0  0  0  0
    8.2272    1.0477    0.3543 H   0  0  0  0  0  0  0  0  0  0  0  0
    7.3102    0.7262   -1.1232 H   0  0  0  0  0  0  0  0  0  0  0  0
    6.8278    2.0509   -0.0544 H   0  0  0  0  0  0  0  0  0  0  0  0
    4.0782    0.9447    2.0315 H   0  0  0  0  0  0  0  0  0  0  0  0
    1.7786    1.0235    1.2480 H   0  0  0  0  0  0  0  0  0  0  0  0
  1  2  1  0
  2  3  1  0
  3  4  1  0
  4  5  1  0
  5  6  1  0
  6  7  2  0
  6  8  1  0
  8  9  1  0
  9 10  1  0
 10 11  1  0
 11 12  2  0
 12 13  1  0
 13 14  1  0
 14 15  1  0
 13 16  2  0
 16 17  1  0
 17 18  1  0
 16 19  1  0
 19 20  2  0
 20 21  1  0
 21 22  1  0
 22 23  1  0
 23 24  1  0
 24 25  2  0
 25 26  1  0
 26 27  2  0
 27 28  1  0
 28 29  1  0
 28 30  1  0
 27 31  1  0
 31 32  2  0
 21  8  1  0
 32 24  1  0
 20 11  1  0
  1 33  1  0
  1 34  1  0
  1 35  1  0
  3 36  1  0
  3 37  1  0
  4 38  1  0
  4 39  1  0
  5 40  1  0
  9 41  1  0
  9 42  1  0
 10 43  1  0
 10 44  1  0
 12 45  1  0
 15 46  1  0
 15 47  1  0
 15 48  1  0
 18 49  1  0
 18 50  1  0
 18 51  1  0
 19 52  1  0
 21 53  1  0
 22 54  1  0
 22 55  1  0
 25 56  1  0
 26 57  1  0
 28 58  1  0
 29 59  1  0
 29 60  1  0
 29 61  1  0
 30 62  1  0
 30 63  1  0
 30 64  1  0
 31 65  1  0
 32 66  1  0
M  END
$$$$
