
     RDKit          3D

 46 49  0  0  0  0  0  0  0  0999 V2000
    4.6248    2.2586   -0.7891 C   0  0  0  0  0  0  0  0  0  0  0  0
    4.0113    0.9811   -1.1591 N   0  0  0  0  0  0  0  0  0  0  0  0
    4.8923    0.2349   -2.0754 C   0  0  0  0  0  0  0  0  0  0  0  0
    5.8463   -0.5607   -1.1929 C   0  0  0  0  0  0  0  0  0  0  0  0
    5.1922   -0.5883    0.1832 C   0  0  0  0  0  0  0  0  0  0  0  0
    3.8157    0.0459   -0.0292 C   0  0  0  0  0  0  0  0  0  0  0  0
    3.2151    0.5976    1.2712 C   0  0  0  0  0  0  0  0  0  0  0  0
    1.7987    1.1617    1.1147 C   0  0  0  0  0  0  0  0  0  0  0  0
    0.8230    0.0795    0.9851 N   0  0  0  0  0  0  0  0  0  0  0  0
   -0.5382    0.3839    0.8678 C   0  0  0  0  0  0  0  0  0  0  0  0
   -1.1110    1.5785    1.3013 C   0  0  0  0  0  0  0  0  0  0  0  0
   -2.4939    1.7858    1.2236 C   0  0  0  0  0  0  0  0  0  0  0  0
   -3.3520    0.7913    0.7356 C   0  0  0  0  0  0  0  0  0  0  0  0
   -5.0783    1.1786    0.6820 S   0  0  0  0  0  0  0  0  0  0  0  0
   -5.8181   -0.3226    0.1012 C   0  0  0  0  0  0  0  0  0  0  0  0
   -7.2199   -0.3371   -0.0040 C   0  0  0  0  0  0  0  0  0  0  0  0
   -7.8985   -1.4704   -0.4562 C   0  0  0  0  0  0  0  0  0  0  0  0
   -7.1834   -2.6072   -0.8113 C   0  0  0  0  0  0  0  0  0  0  0  0
   -5.7926   -2.6055   -0.7121 C   0  0  0  0  0  0  0  0  0  0  0  0
   -5.1030   -1.4665   -0.2558 C   0  0  0  0  0  0  0  0  0  0  0  0
   -3.6253   -1.5418   -0.1771 C   0  0  0  0  0  0  0  0  0  0  0  0
   -3.0649   -2.5720   -0.5500 O   0  0  0  0  0  0  0  0  0  0  0  0
   -2.8014   -0.4226    0.3357 C   0  0  0  0  0  0  0  0  0  0  0  0
   -1.4079   -0.6192    0.4183 C   0  0  0  0  0  0  0  0  0  0  0  0
    4.7965    2.8667   -1.6848 H   0  0  0  0  0  0  0  0  0  0  0  0
    3.9537    2.8457   -0.1545 H   0  0  0  0  0  0  0  0  0  0  0  0
    5.5821    2.1465   -0.2689 H   0  0  0  0  0  0  0  0  0  0  0  0
    4.2760   -0.4568   -2.6636 H   0  0  0  0  0  0  0  0  0  0  0  0
    5.4195    0.8717   -2.7946 H   0  0  0  0  0  0  0  0  0  0  0  0
    5.9956   -1.5717   -1.5858 H   0  0  0  0  0  0  0  0  0  0  0  0
    6.8260   -0.0740   -1.1318 H   0  0  0  0  0  0  0  0  0  0  0  0
    5.1103   -1.6108    0.5667 H   0  0  0  0  0  0  0  0  0  0  0  0
    5.7982   -0.0135    0.8938 H   0  0  0  0  0  0  0  0  0  0  0  0
    3.1469   -0.7473   -0.3912 H   0  0  0  0  0  0  0  0  0  0  0  0
    3.2046   -0.2010    2.0249 H   0  0  0  0  0  0  0  0  0  0  0  0
    3.8642    1.3838    1.6762 H   0  0  0  0  0  0  0  0  0  0  0  0
    1.5844    1.7385    2.0218 H   0  0  0  0  0  0  0  0  0  0  0  0
    1.7358    1.8404    0.2572 H   0  0  0  0  0  0  0  0  0  0  0  0
    1.0924   -0.6031    0.2785 H   0  0  0  0  0  0  0  0  0  0  0  0
   -0.5015    2.3790    1.7089 H   0  0  0  0  0  0  0  0  0  0  0  0
   -2.8928    2.7413    1.5606 H   0  0  0  0  0  0  0  0  0  0  0  0
   -7.8010    0.5429    0.2676 H   0  0  0  0  0  0  0  0  0  0  0  0
   -8.9832   -1.4620   -0.5305 H   0  0  0  0  0  0  0  0  0  0  0  0
   -7.7027   -3.4944   -1.1652 H   0  0  0  0  0  0  0  0  0  0  0  0
   -5.2429   -3.5027   -0.9935 H   0  0  0  0  0  0  0  0  0  0  0  0
   -0.9929   -1.5826    0.1244 H   0  0  0  0  0  0  0  0  0  0  0  0
  1  2  1  0
  2  3  1  0
  3  4  1  0
  4  5  1  0
  5  6  1  0
  6  7  1  0
  7  8  1  0
  8  9  1  0
  9 10  1  0
 10 11  2  0
 11 12  1  0
 12 13  2  0
 13 14  1  0
 14 15  1  0
 15 16  2  0
 16 17  1  0
 17 18  2  0
 18 19  1  0
 19 20  2  0
 20 21  1  0
 21 22  2  0
 21 23  1  0
 23 24  2  0
  6  2  1  0
 24 10  1  0
 23 13  1  0
 20 15  1  0
  1 25  1  0
  1 26  1  0
  1 27  1  0
  3 28  1  0
  3 29  1  0
  4 30  1  0
  4 31  1  0
  5 32  1  0
  5 33  1  0
  6 34  1  0
  7 35  1  0
  7 36  1  0
  8 37  1  0
  8 38  1  0
  9 39  1  0
 11 40  1  0
 12 41  1  0
 16 42  1  0
 17 43  1  0
 18 44  1  0
 19 45  1  0
 24 46  1  0
M  END
$$$$
