
     RDKit          3D

 42 44  0  0  0  0  0  0  0  0999 V2000
   -5.6395    1.3565   -1.7913 C   0  0  0  0  0  0  0  0  0  0  0  0
   -4.3944    0.9311   -1.0715 C   0  0  0  0  0  0  0  0  0  0  0  0
   -4.4234   -0.1609   -0.1987 C   0  0  0  0  0  0  0  0  0  0  0  0
   -3.2739   -0.5644    0.5011 C   0  0  0  0  0  0  0  0  0  0  0  0
   -3.3627   -1.7693    1.4016 C   0  0  0  0  0  0  0  0  0  0  0  0
   -2.0780    0.1719    0.3463 C   0  0  0  0  0  0  0  0  0  0  0  0
   -0.8773   -0.2058    1.0787 C   0  0  0  0  0  0  0  0  0  0  0  0
   -0.7187    0.0133    2.4331 C   0  0  0  0  0  0  0  0  0  0  0  0
    0.8302   -0.5348    2.9189 S   0  0  0  0  0  0  0  0  0  0  0  0
    1.1623   -0.9975    1.3142 C   0  0  0  0  0  0  0  0  0  0  0  0
    2.3524   -1.5502    0.9239 N   0  0  0  0  0  0  0  0  0  0  0  0
    3.4291   -1.8462    1.7133 C   0  0  0  0  0  0  0  0  0  0  0  0
    3.5333   -1.7605    2.9290 O   0  0  0  0  0  0  0  0  0  0  0  0
    4.5678   -2.4220    0.9485 C   0  0  0  0  0  0  0  0  0  0  0  0
    5.1623   -1.9000   -0.1357 C   0  0  0  0  0  0  0  0  0  0  0  0
    4.8298   -0.6397   -0.7064 C   0  0  0  0  0  0  0  0  0  0  0  0
    4.6149    0.5873   -0.1022 C   0  0  0  0  0  0  0  0  0  0  0  0
    4.3025    1.6204   -1.0330 C   0  0  0  0  0  0  0  0  0  0  0  0
    4.3010    1.1596   -2.3287 C   0  0  0  0  0  0  0  0  0  0  0  0
    4.6795   -0.5044   -2.4148 S   0  0  0  0  0  0  0  0  0  0  0  0
    0.2071   -0.7784    0.4410 N   0  0  0  0  0  0  0  0  0  0  0  0
   -2.0411    1.2811   -0.5285 C   0  0  0  0  0  0  0  0  0  0  0  0
   -0.7791    2.0719   -0.7544 C   0  0  0  0  0  0  0  0  0  0  0  0
   -3.2038    1.6468   -1.2261 C   0  0  0  0  0  0  0  0  0  0  0  0
   -6.2432    0.4864   -2.0690 H   0  0  0  0  0  0  0  0  0  0  0  0
   -6.2353    2.0142   -1.1515 H   0  0  0  0  0  0  0  0  0  0  0  0
   -5.3964    1.8906   -2.7155 H   0  0  0  0  0  0  0  0  0  0  0  0
   -5.3534   -0.7125   -0.0703 H   0  0  0  0  0  0  0  0  0  0  0  0
   -4.2968   -2.3189    1.2408 H   0  0  0  0  0  0  0  0  0  0  0  0
   -2.5444   -2.4677    1.1973 H   0  0  0  0  0  0  0  0  0  0  0  0
   -3.3338   -1.4628    2.4532 H   0  0  0  0  0  0  0  0  0  0  0  0
   -1.4111    0.4555    3.1349 H   0  0  0  0  0  0  0  0  0  0  0  0
    2.3908   -1.7316   -0.0692 H   0  0  0  0  0  0  0  0  0  0  0  0
    4.9380   -3.3536    1.3692 H   0  0  0  0  0  0  0  0  0  0  0  0
    5.9667   -2.4642   -0.6047 H   0  0  0  0  0  0  0  0  0  0  0  0
    4.6853    0.7446    0.9686 H   0  0  0  0  0  0  0  0  0  0  0  0
    4.0975    2.6494   -0.7641 H   0  0  0  0  0  0  0  0  0  0  0  0
    4.1045    1.7217   -3.2306 H   0  0  0  0  0  0  0  0  0  0  0  0
   -0.3524    2.4024    0.1974 H   0  0  0  0  0  0  0  0  0  0  0  0
   -0.0454    1.4686   -1.2969 H   0  0  0  0  0  0  0  0  0  0  0  0
   -0.9717    2.9718   -1.3471 H   0  0  0  0  0  0  0  0  0  0  0  0
   -3.1791    2.5005   -1.9012 H   0  0  0  0  0  0  0  0  0  0  0  0
  1  2  1  0
  2  3  2  0
  3  4  1  0
  4  5  1  0
  4  6  2  0
  6  7  1  0
  7  8  2  0
  8  9  1  0
  9 10  1  0
 10 11  1  0
 11 12  1  0
 12 13  2  0
 12 14  1  0
 14 15  2  3
 15 16  1  0
 16 17  2  0
 17 18  1  0
 18 19  2  0
 19 20  1  0
 10 21  2  0
  6 22  1  0
 22 23  1  0
 22 24  2  0
 24  2  1  0
 21  7  1  0
 20 16  1  0
  1 25  1  0
  1 26  1  0
  1 27  1  0
  3 28  1  0
  5 29  1  0
  5 30  1  0
  5 31  1  0
  8 32  1  0
 11 33  1  0
 14 34  1  0
 15 35  1  0
 17 36  1  0
 18 37  1  0
 19 38  1  0
 23 39  1  0
 23 40  1  0
 23 41  1  0
 24 42  1  0
M  END
$$$$
