
     RDKit          3D

 59 62  0  0  0  0  0  0  0  0999 V2000
   -1.9767   -2.0683   -4.3824 C   0  0  0  0  0  0  0  0  0  0  0  0
   -1.3795   -1.0315   -3.4516 C   0  0  0  0  0  0  0  0  0  0  0  0
   -1.3780   -1.5726   -2.1243 O   0  0  0  0  0  0  0  0  0  0  0  0
   -0.9034   -0.7193   -1.1701 C   0  0  0  0  0  0  0  0  0  0  0  0
   -0.5082    0.4161   -1.4003 O   0  0  0  0  0  0  0  0  0  0  0  0
   -0.9163   -1.3819    0.2129 C   0  0  0  0  0  0  0  0  0  0  0  0
   -2.3637   -1.8419    0.5554 C   0  0  0  0  0  0  0  0  0  0  0  0
   -3.4074   -0.7546    0.6837 C   0  0  0  0  0  0  0  0  0  0  0  0
   -4.1048   -0.2959   -0.4391 C   0  0  0  0  0  0  0  0  0  0  0  0
   -5.0654    0.7108   -0.3135 C   0  0  0  0  0  0  0  0  0  0  0  0
   -5.3519    1.2734    0.9311 C   0  0  0  0  0  0  0  0  0  0  0  0
   -6.3130    2.2460    0.9119 O   0  0  0  0  0  0  0  0  0  0  0  0
   -6.6217    2.8686    2.1522 C   0  0  0  0  0  0  0  0  0  0  0  0
   -4.6686    0.8149    2.0560 C   0  0  0  0  0  0  0  0  0  0  0  0
   -3.7052   -0.1933    1.9327 C   0  0  0  0  0  0  0  0  0  0  0  0
    0.0120   -2.6365    0.1589 C   0  0  0  0  0  0  0  0  0  0  0  0
    1.1168   -2.5986    1.2090 C   0  0  0  0  0  0  0  0  0  0  0  0
    1.8764   -1.3639    1.0826 N   0  0  0  0  0  0  0  0  0  0  0  0
    3.1614   -1.4289    0.5312 C   0  0  0  0  0  0  0  0  0  0  0  0
    3.5999   -2.4901    0.0835 O   0  0  0  0  0  0  0  0  0  0  0  0
    3.9839   -0.2351    0.4610 C   0  0  0  0  0  0  0  0  0  0  0  0
    4.0456    0.9324    1.2031 C   0  0  0  0  0  0  0  0  0  0  0  0
    5.0851    1.7522    0.6798 C   0  0  0  0  0  0  0  0  0  0  0  0
    5.5888    3.0255    1.0076 C   0  0  0  0  0  0  0  0  0  0  0  0
    6.6585    3.5481    0.2709 C   0  0  0  0  0  0  0  0  0  0  0  0
    7.2261    2.8193   -0.7725 C   0  0  0  0  0  0  0  0  0  0  0  0
    6.7456    1.5505   -1.1107 C   0  0  0  0  0  0  0  0  0  0  0  0
    5.6737    1.0469   -0.3653 C   0  0  0  0  0  0  0  0  0  0  0  0
    5.0121   -0.1523   -0.4576 N   0  0  0  0  0  0  0  0  0  0  0  0
    1.1073   -0.1284    1.2014 C   0  0  0  0  0  0  0  0  0  0  0  0
   -0.4057   -0.3682    1.2730 C   0  0  0  0  0  0  0  0  0  0  0  0
   -2.9979   -2.3183   -4.0758 H   0  0  0  0  0  0  0  0  0  0  0  0
   -1.3977   -2.9971   -4.3478 H   0  0  0  0  0  0  0  0  0  0  0  0
   -1.9968   -1.7026   -5.4129 H   0  0  0  0  0  0  0  0  0  0  0  0
   -1.9846   -0.1183   -3.4807 H   0  0  0  0  0  0  0  0  0  0  0  0
   -0.3518   -0.8057   -3.7575 H   0  0  0  0  0  0  0  0  0  0  0  0
   -2.7206   -2.5643   -0.1919 H   0  0  0  0  0  0  0  0  0  0  0  0
   -2.3445   -2.4071    1.4981 H   0  0  0  0  0  0  0  0  0  0  0  0
   -3.9166   -0.7186   -1.4230 H   0  0  0  0  0  0  0  0  0  0  0  0
   -5.5975    1.0589   -1.1957 H   0  0  0  0  0  0  0  0  0  0  0  0
   -5.7462    3.3787    2.5675 H   0  0  0  0  0  0  0  0  0  0  0  0
   -7.0337    2.1461    2.8643 H   0  0  0  0  0  0  0  0  0  0  0  0
   -7.3895    3.6251    1.9644 H   0  0  0  0  0  0  0  0  0  0  0  0
   -4.8618    1.2164    3.0447 H   0  0  0  0  0  0  0  0  0  0  0  0
   -3.1902   -0.5369    2.8270 H   0  0  0  0  0  0  0  0  0  0  0  0
   -0.5658   -3.5588    0.2941 H   0  0  0  0  0  0  0  0  0  0  0  0
    0.4884   -2.7234   -0.8266 H   0  0  0  0  0  0  0  0  0  0  0  0
    0.6994   -2.6401    2.2219 H   0  0  0  0  0  0  0  0  0  0  0  0
    1.7607   -3.4780    1.1038 H   0  0  0  0  0  0  0  0  0  0  0  0
    3.4273    1.1858    2.0516 H   0  0  0  0  0  0  0  0  0  0  0  0
    5.1534    3.5987    1.8204 H   0  0  0  0  0  0  0  0  0  0  0  0
    7.0496    4.5320    0.5177 H   0  0  0  0  0  0  0  0  0  0  0  0
    8.0576    3.2418   -1.3321 H   0  0  0  0  0  0  0  0  0  0  0  0
    7.1920    0.9826   -1.9203 H   0  0  0  0  0  0  0  0  0  0  0  0
    5.2345   -0.8935   -1.1087 H   0  0  0  0  0  0  0  0  0  0  0  0
    1.3519    0.5290    0.3617 H   0  0  0  0  0  0  0  0  0  0  0  0
    1.4160    0.3688    2.1257 H   0  0  0  0  0  0  0  0  0  0  0  0
   -0.9137    0.5997    1.1810 H   0  0  0  0  0  0  0  0  0  0  0  0
   -0.6457   -0.7445    2.2767 H   0  0  0  0  0  0  0  0  0  0  0  0
  1  2  1  0
  2  3  1  0
  3  4  1  0
  4  5  2  0
  4  6  1  0
  6  7  1  0
  7  8  1  0
  8  9  2  0
  9 10  1  0
 10 11  2  0
 11 12  1  0
 12 13  1  0
 11 14  1  0
 14 15  2  0
  6 16  1  0
 16 17  1  0
 17 18  1  0
 18 19  1  0
 19 20  2  0
 19 21  1  0
 21 22  2  0
 22 23  1  0
 23 24  2  0
 24 25  1  0
 25 26  2  0
 26 27  1  0
 27 28  2  0
 28 29  1  0
 18 30  1  0
 30 31  1  0
 31  6  1  0
 15  8  1  0
 29 21  1  0
 28 23  1  0
  1 32  1  0
  1 33  1  0
  1 34  1  0
  2 35  1  0
  2 36  1  0
  7 37  1  0
  7 38  1  0
  9 39  1  0
 10 40  1  0
 13 41  1  0
 13 42  1  0
 13 43  1  0
 14 44  1  0
 15 45  1  0
 16 46  1  0
 16 47  1  0
 17 48  1  0
 17 49  1  0
 22 50  1  0
 24 51  1  0
 25 52  1  0
 26 53  1  0
 27 54  1  0
 29 55  1  0
 30 56  1  0
 30 57  1  0
 31 58  1  0
 31 59  1  0
M  END
$$$$
