
     RDKit          3D

 28 29  0  0  0  0  0  0  0  0999 V2000
   -1.0434   -1.3057    0.8606 O   0  0  0  0  0  0  0  0  0  0  0  0
   -1.6801   -0.6794    0.0256 C   0  0  0  0  0  0  0  0  0  0  0  0
   -1.1710   -0.1396   -1.1116 O   0  0  0  0  0  0  0  0  0  0  0  0
    0.2471   -0.2368   -1.2205 C   0  0  0  0  0  0  0  0  0  0  0  0
    0.9696    0.7467   -0.3057 C   0  0  0  0  0  0  0  0  0  0  0  0
    0.4377    1.7235    0.2131 O   0  0  0  0  0  0  0  0  0  0  0  0
    2.4068    0.4982   -0.0819 C   0  0  0  0  0  0  0  0  0  0  0  0
    3.2738    0.5710   -1.1813 C   0  0  0  0  0  0  0  0  0  0  0  0
    4.6398    0.3477   -1.0042 C   0  0  0  0  0  0  0  0  0  0  0  0
    5.1395    0.0546    0.2641 C   0  0  0  0  0  0  0  0  0  0  0  0
    4.2750   -0.0149    1.3592 C   0  0  0  0  0  0  0  0  0  0  0  0
    2.9050    0.2081    1.1918 C   0  0  0  0  0  0  0  0  0  0  0  0
    1.8914    0.0673    2.5807 Cl  0  0  0  0  0  0  0  0  0  0  0  0
   -3.1359   -0.4138    0.1302 C   0  0  0  0  0  0  0  0  0  0  0  0
   -3.7895   -0.7451    1.3092 C   0  0  0  0  0  0  0  0  0  0  0  0
   -5.1221   -0.5457    1.4861 N   0  0  0  0  0  0  0  0  0  0  0  0
   -5.7675    0.0056    0.4328 C   0  0  0  0  0  0  0  0  0  0  0  0
   -5.1183    0.3360   -0.7465 C   0  0  0  0  0  0  0  0  0  0  0  0
   -3.7941    0.1313   -0.9316 N   0  0  0  0  0  0  0  0  0  0  0  0
    0.5028    0.0123   -2.2554 H   0  0  0  0  0  0  0  0  0  0  0  0
    0.5794   -1.2637   -1.0281 H   0  0  0  0  0  0  0  0  0  0  0  0
    2.9008    0.8212   -2.1717 H   0  0  0  0  0  0  0  0  0  0  0  0
    5.3176    0.4103   -1.8530 H   0  0  0  0  0  0  0  0  0  0  0  0
    6.2048   -0.1169    0.4034 H   0  0  0  0  0  0  0  0  0  0  0  0
    4.6765   -0.2458    2.3435 H   0  0  0  0  0  0  0  0  0  0  0  0
   -3.2636   -1.1808    2.1528 H   0  0  0  0  0  0  0  0  0  0  0  0
   -6.8304    0.1767    0.5624 H   0  0  0  0  0  0  0  0  0  0  0  0
   -5.6520    0.7778   -1.5808 H   0  0  0  0  0  0  0  0  0  0  0  0
  1  2  2  0
  2  3  1  0
  3  4  1  0
  4  5  1  0
  5  6  2  0
  5  7  1  0
  7  8  2  0
  8  9  1  0
  9 10  2  0
 10 11  1  0
 11 12  2  0
 12 13  1  0
  2 14  1  0
 14 15  2  0
 15 16  1  0
 16 17  2  0
 17 18  1  0
 18 19  2  0
 12  7  1  0
 19 14  1  0
  4 20  1  0
  4 21  1  0
  8 22  1  0
  9 23  1  0
 10 24  1  0
 11 25  1  0
 15 26  1  0
 17 27  1  0
 18 28  1  0
M  END
$$$$
