
     RDKit          3D

 43 46  0  0  0  0  0  0  0  0999 V2000
    5.0708    1.8223    1.7630 C   0  0  0  0  0  0  0  0  0  0  0  0
    4.9505    0.4148    1.9156 O   0  0  0  0  0  0  0  0  0  0  0  0
    3.6755   -0.0546    1.6762 C   0  0  0  0  0  0  0  0  0  0  0  0
    2.7334    0.7839    1.2500 N   0  0  0  0  0  0  0  0  0  0  0  0
    1.5433    0.2391    1.0454 C   0  0  0  0  0  0  0  0  0  0  0  0
    0.5700    1.1184    0.6144 N   0  0  0  0  0  0  0  0  0  0  0  0
   -0.5429    0.7084   -0.2422 C   0  0  0  0  0  0  0  0  0  0  0  0
   -0.0714   -0.0456   -1.5081 C   0  0  0  0  0  0  0  0  0  0  0  0
   -1.2725   -0.3816   -2.4107 C   0  0  0  0  0  0  0  0  0  0  0  0
   -2.2742   -1.2438   -1.6225 C   0  0  0  0  0  0  0  0  0  0  0  0
   -2.7797   -0.4774   -0.3875 C   0  0  0  0  0  0  0  0  0  0  0  0
   -3.4570    0.8250   -0.8402 C   0  0  0  0  0  0  0  0  0  0  0  0
   -2.4546    1.6929   -1.6154 C   0  0  0  0  0  0  0  0  0  0  0  0
   -1.9596    0.9214   -2.8484 C   0  0  0  0  0  0  0  0  0  0  0  0
   -1.2569    2.0120   -0.7066 C   0  0  0  0  0  0  0  0  0  0  0  0
   -1.5851   -0.1409    0.5239 C   0  0  0  0  0  0  0  0  0  0  0  0
    1.2760   -1.0420    1.2346 N   0  0  0  0  0  0  0  0  0  0  0  0
    2.2966   -1.7821    1.6570 C   0  0  0  0  0  0  0  0  0  0  0  0
    2.1177   -3.1331    1.8718 O   0  0  0  0  0  0  0  0  0  0  0  0
    0.7807   -3.5640    1.6562 C   0  0  0  0  0  0  0  0  0  0  0  0
    3.5230   -1.3495    1.8917 N   0  0  0  0  0  0  0  0  0  0  0  0
    6.1028    2.0971    2.0017 H   0  0  0  0  0  0  0  0  0  0  0  0
    4.4157    2.3569    2.4600 H   0  0  0  0  0  0  0  0  0  0  0  0
    4.8773    2.1279    0.7289 H   0  0  0  0  0  0  0  0  0  0  0  0
    1.0574    1.9572    0.3159 H   0  0  0  0  0  0  0  0  0  0  0  0
    0.4416   -0.9784   -1.2459 H   0  0  0  0  0  0  0  0  0  0  0  0
    0.6562    0.5605   -2.0636 H   0  0  0  0  0  0  0  0  0  0  0  0
   -0.9270   -0.9308   -3.2937 H   0  0  0  0  0  0  0  0  0  0  0  0
   -1.7980   -2.1821   -1.3122 H   0  0  0  0  0  0  0  0  0  0  0  0
   -3.1206   -1.5139   -2.2658 H   0  0  0  0  0  0  0  0  0  0  0  0
   -3.4991   -1.0952    0.1617 H   0  0  0  0  0  0  0  0  0  0  0  0
   -3.8340    1.3742    0.0313 H   0  0  0  0  0  0  0  0  0  0  0  0
   -4.3239    0.5971   -1.4724 H   0  0  0  0  0  0  0  0  0  0  0  0
   -2.9384    2.6238   -1.9314 H   0  0  0  0  0  0  0  0  0  0  0  0
   -1.2589    1.5403   -3.4221 H   0  0  0  0  0  0  0  0  0  0  0  0
   -2.8027    0.6957   -3.5130 H   0  0  0  0  0  0  0  0  0  0  0  0
   -0.5512    2.6595   -1.2446 H   0  0  0  0  0  0  0  0  0  0  0  0
   -1.5964    2.5882    0.1649 H   0  0  0  0  0  0  0  0  0  0  0  0
   -1.9335    0.3976    1.4150 H   0  0  0  0  0  0  0  0  0  0  0  0
   -1.1525   -1.0796    0.8838 H   0  0  0  0  0  0  0  0  0  0  0  0
    0.7387   -4.6380    1.8621 H   0  0  0  0  0  0  0  0  0  0  0  0
    0.0863   -3.0675    2.3432 H   0  0  0  0  0  0  0  0  0  0  0  0
    0.4768   -3.4144    0.6141 H   0  0  0  0  0  0  0  0  0  0  0  0
  1  2  1  0
  2  3  1  0
  3  4  2  0
  4  5  1  0
  5  6  1  0
  6  7  1  0
  7  8  1  0
  8  9  1  0
  9 10  1  0
 10 11  1  0
 11 12  1  0
 12 13  1  0
 13 14  1  0
 13 15  1  0
 11 16  1  0
  5 17  2  0
 17 18  1  0
 18 19  1  0
 19 20  1  0
 18 21  2  0
 21  3  1  0
 15  7  1  0
 16  7  1  0
 14  9  1  0
  1 22  1  0
  1 23  1  0
  1 24  1  0
  6 25  1  0
  8 26  1  0
  8 27  1  0
  9 28  1  0
 10 29  1  0
 10 30  1  0
 11 31  1  0
 12 32  1  0
 12 33  1  0
 13 34  1  0
 14 35  1  0
 14 36  1  0
 15 37  1  0
 15 38  1  0
 16 39  1  0
 16 40  1  0
 20 41  1  0
 20 42  1  0
 20 43  1  0
M  END
$$$$
