
     RDKit          3D

 40 41  0  0  0  0  0  0  0  0999 V2000
   -4.8190    2.1761    0.7608 C   0  0  0  0  0  0  0  0  0  0  0  0
   -3.7540    1.1639    1.1843 C   0  0  0  0  0  0  0  0  0  0  0  0
   -4.0704   -0.2434    0.6476 C   0  0  0  0  0  0  0  0  0  0  0  0
   -3.2545   -0.5886   -0.5934 C   0  0  0  0  0  0  0  0  0  0  0  0
   -1.8179   -0.5050   -0.3377 N   0  0  0  0  0  0  0  0  0  0  0  0
   -0.9691   -1.2040   -1.1950 C   0  0  0  0  0  0  0  0  0  0  0  0
   -1.3611   -1.7933   -2.2001 O   0  0  0  0  0  0  0  0  0  0  0  0
    0.4822   -1.2513   -0.8982 C   0  0  0  0  0  0  0  0  0  0  0  0
    1.3877   -0.9743   -1.9282 C   0  0  0  0  0  0  0  0  0  0  0  0
    2.7620   -1.0390   -1.6852 C   0  0  0  0  0  0  0  0  0  0  0  0
    3.2299   -1.3883   -0.4163 C   0  0  0  0  0  0  0  0  0  0  0  0
    4.6334   -1.4297   -0.1902 N   0  0  0  0  0  0  0  0  0  0  0  0
    5.3316   -0.3923    0.9372 S   0  0  0  0  0  6  0  0  0  0  0  0
    4.9704    1.2125    0.2511 C   0  0  0  0  0  0  0  0  0  0  0  0
    6.7603   -0.5970    0.8263 O   0  0  0  0  0  0  0  0  0  0  0  0
    4.6516   -0.5124    2.2076 O   0  0  0  0  0  0  0  0  0  0  0  0
    2.3264   -1.6953    0.6023 C   0  0  0  0  0  0  0  0  0  0  0  0
    0.9514   -1.6365    0.3616 C   0  0  0  0  0  0  0  0  0  0  0  0
   -1.3694    0.4937    0.6378 C   0  0  0  0  0  0  0  0  0  0  0  0
   -2.3591    1.6488    0.7558 C   0  0  0  0  0  0  0  0  0  0  0  0
   -4.5917    3.1696    1.1617 H   0  0  0  0  0  0  0  0  0  0  0  0
   -4.8821    2.2549   -0.3299 H   0  0  0  0  0  0  0  0  0  0  0  0
   -5.8050    1.8822    1.1361 H   0  0  0  0  0  0  0  0  0  0  0  0
   -3.7783    1.1096    2.2809 H   0  0  0  0  0  0  0  0  0  0  0  0
   -5.1404   -0.3569    0.4393 H   0  0  0  0  0  0  0  0  0  0  0  0
   -3.8298   -0.9740    1.4317 H   0  0  0  0  0  0  0  0  0  0  0  0
   -3.5039   -1.6002   -0.9334 H   0  0  0  0  0  0  0  0  0  0  0  0
   -3.4872    0.0995   -1.4149 H   0  0  0  0  0  0  0  0  0  0  0  0
    1.0197   -0.7166   -2.9194 H   0  0  0  0  0  0  0  0  0  0  0  0
    3.4519   -0.8195   -2.4952 H   0  0  0  0  0  0  0  0  0  0  0  0
    5.2372   -1.5978   -0.9946 H   0  0  0  0  0  0  0  0  0  0  0  0
    5.3573    1.2579   -0.7686 H   0  0  0  0  0  0  0  0  0  0  0  0
    3.8929    1.3830    0.2742 H   0  0  0  0  0  0  0  0  0  0  0  0
    5.4727    1.9599    0.8695 H   0  0  0  0  0  0  0  0  0  0  0  0
    2.6819   -2.0058    1.5825 H   0  0  0  0  0  0  0  0  0  0  0  0
    0.2565   -1.9112    1.1509 H   0  0  0  0  0  0  0  0  0  0  0  0
   -1.2674   -0.0133    1.6039 H   0  0  0  0  0  0  0  0  0  0  0  0
   -0.3891    0.8866    0.3512 H   0  0  0  0  0  0  0  0  0  0  0  0
   -1.9888    2.3866    1.4773 H   0  0  0  0  0  0  0  0  0  0  0  0
   -2.4188    2.1611   -0.2136 H   0  0  0  0  0  0  0  0  0  0  0  0
  1  2  1  0
  2  3  1  0
  3  4  1  0
  4  5  1  0
  5  6  1  0
  6  7  2  0
  6  8  1  0
  8  9  2  0
  9 10  1  0
 10 11  2  0
 11 12  1  0
 12 13  1  0
 13 14  1  0
 13 15  2  0
 13 16  2  0
 11 17  1  0
 17 18  2  0
  5 19  1  0
 19 20  1  0
 20  2  1  0
 18  8  1  0
  1 21  1  0
  1 22  1  0
  1 23  1  0
  2 24  1  0
  3 25  1  0
  3 26  1  0
  4 27  1  0
  4 28  1  0
  9 29  1  0
 10 30  1  0
 12 31  1  0
 14 32  1  0
 14 33  1  0
 14 34  1  0
 17 35  1  0
 18 36  1  0
 19 37  1  0
 19 38  1  0
 20 39  1  0
 20 40  1  0
M  END
$$$$
