
     RDKit          3D

 55 57  0  0  0  0  0  0  0  0999 V2000
    2.1904    2.5237   -0.3296 O   0  0  0  0  0  0  0  0  0  0  0  0
    1.8696    1.4504    0.1668 C   0  0  0  0  0  0  0  0  0  0  0  0
    2.3196    0.9014    1.3513 N   0  0  0  0  0  0  0  0  0  0  0  0
    3.2999    1.4229    2.2200 C   0  0  0  0  0  0  0  0  0  0  0  0
    3.5514    0.7122    3.4015 C   0  0  0  0  0  0  0  0  0  0  0  0
    4.5125    1.1590    4.3126 C   0  0  0  0  0  0  0  0  0  0  0  0
    5.2338    2.3197    4.0491 C   0  0  0  0  0  0  0  0  0  0  0  0
    4.9921    3.0317    2.8768 C   0  0  0  0  0  0  0  0  0  0  0  0
    4.0294    2.5852    1.9652 C   0  0  0  0  0  0  0  0  0  0  0  0
    0.8392    0.5986   -0.5225 C   0  0  0  0  0  0  0  0  0  0  0  0
    1.0755   -0.7091   -0.7270 C   0  0  0  0  0  0  0  0  0  0  0  0
    0.0818   -1.6038   -1.4177 C   0  0  0  0  0  0  0  0  0  0  0  0
   -0.1060   -2.9190   -0.6790 C   0  0  0  0  0  0  0  0  0  0  0  0
   -0.6314   -2.9618    0.6220 C   0  0  0  0  0  0  0  0  0  0  0  0
   -0.7866   -4.1794    1.2899 C   0  0  0  0  0  0  0  0  0  0  0  0
   -0.4232   -5.3840    0.6719 C   0  0  0  0  0  0  0  0  0  0  0  0
   -0.5680   -6.6955    1.4039 C   0  0  0  0  0  0  0  0  0  0  0  0
    0.5249   -6.9857    2.1622 F   0  0  0  0  0  0  0  0  0  0  0  0
   -1.6309   -6.7169    2.2559 F   0  0  0  0  0  0  0  0  0  0  0  0
   -0.7387   -7.7597    0.5706 F   0  0  0  0  0  0  0  0  0  0  0  0
    0.1126   -5.3425   -0.6227 C   0  0  0  0  0  0  0  0  0  0  0  0
    0.2668   -4.1247   -1.2910 C   0  0  0  0  0  0  0  0  0  0  0  0
   -1.2484   -0.8800   -1.6548 C   0  0  0  0  0  0  0  0  0  0  0  0
   -0.9707    0.5686   -2.0429 C   0  0  0  0  0  0  0  0  0  0  0  0
   -2.2352    1.1876   -2.3006 O   0  0  0  0  0  0  0  0  0  0  0  0
   -2.0862    2.5101   -2.8119 C   0  0  0  0  0  0  0  0  0  0  0  0
   -3.4644    3.1290   -3.0255 C   0  0  0  0  0  0  0  0  0  0  0  0
   -4.3801    3.0792   -1.7963 C   0  0  0  0  0  0  0  0  0  0  0  0
   -3.8091    3.7338   -0.5443 C   0  0  0  0  0  0  0  0  0  0  0  0
   -3.5154    5.1028   -0.7816 O   0  0  0  0  0  0  0  0  0  0  0  0
   -0.2878    1.2473   -0.9852 O   0  0  0  0  0  0  0  0  0  0  0  0
    1.8702    0.0480    1.6563 H   0  0  0  0  0  0  0  0  0  0  0  0
    3.0020   -0.1957    3.6337 H   0  0  0  0  0  0  0  0  0  0  0  0
    4.6963    0.6016    5.2272 H   0  0  0  0  0  0  0  0  0  0  0  0
    5.9817    2.6713    4.7552 H   0  0  0  0  0  0  0  0  0  0  0  0
    5.5517    3.9396    2.6658 H   0  0  0  0  0  0  0  0  0  0  0  0
    3.8760    3.1702    1.0639 H   0  0  0  0  0  0  0  0  0  0  0  0
    2.0149   -1.1600   -0.4146 H   0  0  0  0  0  0  0  0  0  0  0  0
    0.5133   -1.8237   -2.4049 H   0  0  0  0  0  0  0  0  0  0  0  0
   -0.9273   -2.0451    1.1292 H   0  0  0  0  0  0  0  0  0  0  0  0
   -1.1979   -4.1848    2.2988 H   0  0  0  0  0  0  0  0  0  0  0  0
    0.4127   -6.2642   -1.1205 H   0  0  0  0  0  0  0  0  0  0  0  0
    0.6838   -4.1289   -2.2967 H   0  0  0  0  0  0  0  0  0  0  0  0
   -1.8325   -1.3875   -2.4329 H   0  0  0  0  0  0  0  0  0  0  0  0
   -1.8778   -0.8886   -0.7546 H   0  0  0  0  0  0  0  0  0  0  0  0
   -0.3643    0.6097   -2.9587 H   0  0  0  0  0  0  0  0  0  0  0  0
   -1.5026    3.1247   -2.1179 H   0  0  0  0  0  0  0  0  0  0  0  0
   -1.5534    2.4730   -3.7695 H   0  0  0  0  0  0  0  0  0  0  0  0
   -3.9710    2.5856   -3.8332 H   0  0  0  0  0  0  0  0  0  0  0  0
   -3.3464    4.1639   -3.3657 H   0  0  0  0  0  0  0  0  0  0  0  0
   -5.3155    3.5871   -2.0631 H   0  0  0  0  0  0  0  0  0  0  0  0
   -4.6390    2.0387   -1.5685 H   0  0  0  0  0  0  0  0  0  0  0  0
   -2.9071    3.2279   -0.1859 H   0  0  0  0  0  0  0  0  0  0  0  0
   -4.5505    3.6900    0.2599 H   0  0  0  0  0  0  0  0  0  0  0  0
   -2.6347    5.1462   -1.1904 H   0  0  0  0  0  0  0  0  0  0  0  0
  1  2  2  0
  2  3  1  0
  3  4  1  0
  4  5  2  0
  5  6  1  0
  6  7  2  0
  7  8  1  0
  8  9  2  0
  2 10  1  0
 10 11  2  0
 11 12  1  0
 12 13  1  0
 13 14  2  0
 14 15  1  0
 15 16  2  0
 16 17  1  0
 17 18  1  0
 17 19  1  0
 17 20  1  0
 16 21  1  0
 21 22  2  0
 12 23  1  0
 23 24  1  0
 24 25  1  0
 25 26  1  0
 26 27  1  0
 27 28  1  0
 28 29  1  0
 29 30  1  0
 24 31  1  0
  9  4  1  0
 31 10  1  0
 22 13  1  0
  3 32  1  0
  5 33  1  0
  6 34  1  0
  7 35  1  0
  8 36  1  0
  9 37  1  0
 11 38  1  0
 12 39  1  0
 14 40  1  0
 15 41  1  0
 21 42  1  0
 22 43  1  0
 23 44  1  0
 23 45  1  0
 24 46  1  0
 26 47  1  0
 26 48  1  0
 27 49  1  0
 27 50  1  0
 28 51  1  0
 28 52  1  0
 29 53  1  0
 29 54  1  0
 30 55  1  0
M  END
$$$$
