
     RDKit          3D

 39 41  0  0  0  0  0  0  0  0999 V2000
   -1.7724   -2.7843   -1.6405 C   0  0  0  0  0  0  0  0  0  0  0  0
   -1.6361   -2.3086   -0.2002 C   0  0  0  0  0  0  0  0  0  0  0  0
   -1.9669   -0.8867   -0.0613 N   0  0  0  0  0  0  0  0  0  0  0  0
   -1.0215    0.1255   -0.1097 C   0  0  0  0  0  0  0  0  0  0  0  0
    0.3890   -0.2707   -0.3594 C   0  0  0  0  0  0  0  0  0  0  0  0
    1.3547    0.2280    0.4267 C   0  0  0  0  0  0  0  0  0  0  0  0
    2.7848   -0.0643    0.2613 C   0  0  0  0  0  0  0  0  0  0  0  0
    3.2533   -1.3305   -0.1315 C   0  0  0  0  0  0  0  0  0  0  0  0
    4.6250   -1.5853   -0.2510 C   0  0  0  0  0  0  0  0  0  0  0  0
    5.5288   -0.5710    0.0346 C   0  0  0  0  0  0  0  0  0  0  0  0
    6.8798   -0.7562   -0.0617 O   0  0  0  0  0  0  0  0  0  0  0  0
    5.0734    0.6802    0.4388 C   0  0  0  0  0  0  0  0  0  0  0  0
    5.9693    1.6709    0.7248 O   0  0  0  0  0  0  0  0  0  0  0  0
    3.7144    0.9406    0.5597 C   0  0  0  0  0  0  0  0  0  0  0  0
   -1.3035    1.3832    0.0351 N   0  0  0  0  0  0  0  0  0  0  0  0
   -2.6325    1.7566    0.2501 C   0  0  0  0  0  0  0  0  0  0  0  0
   -2.9348    3.1099    0.4193 C   0  0  0  0  0  0  0  0  0  0  0  0
   -4.2527    3.5250    0.6304 C   0  0  0  0  0  0  0  0  0  0  0  0
   -5.2822    2.5855    0.6730 C   0  0  0  0  0  0  0  0  0  0  0  0
   -4.9921    1.2321    0.5050 C   0  0  0  0  0  0  0  0  0  0  0  0
   -3.6674    0.8292    0.2949 C   0  0  0  0  0  0  0  0  0  0  0  0
   -3.3200   -0.5896    0.1170 C   0  0  0  0  0  0  0  0  0  0  0  0
   -4.2144   -1.4335    0.1306 O   0  0  0  0  0  0  0  0  0  0  0  0
   -2.7984   -2.6609   -2.0021 H   0  0  0  0  0  0  0  0  0  0  0  0
   -1.1159   -2.2216   -2.3111 H   0  0  0  0  0  0  0  0  0  0  0  0
   -1.5108   -3.8443   -1.7155 H   0  0  0  0  0  0  0  0  0  0  0  0
   -2.3049   -2.8992    0.4371 H   0  0  0  0  0  0  0  0  0  0  0  0
   -0.6210   -2.5010    0.1606 H   0  0  0  0  0  0  0  0  0  0  0  0
    0.5901   -0.9194   -1.2008 H   0  0  0  0  0  0  0  0  0  0  0  0
    1.1007    0.9202    1.2285 H   0  0  0  0  0  0  0  0  0  0  0  0
    2.5553   -2.1384   -0.3375 H   0  0  0  0  0  0  0  0  0  0  0  0
    4.9587   -2.5710   -0.5580 H   0  0  0  0  0  0  0  0  0  0  0  0
    7.0411   -1.6699   -0.3533 H   0  0  0  0  0  0  0  0  0  0  0  0
    6.8444    1.2630    0.5698 H   0  0  0  0  0  0  0  0  0  0  0  0
    3.3907    1.9282    0.8772 H   0  0  0  0  0  0  0  0  0  0  0  0
   -2.1337    3.8441    0.3842 H   0  0  0  0  0  0  0  0  0  0  0  0
   -4.4728    4.5818    0.7602 H   0  0  0  0  0  0  0  0  0  0  0  0
   -6.3080    2.9066    0.8367 H   0  0  0  0  0  0  0  0  0  0  0  0
   -5.7918    0.4957    0.5379 H   0  0  0  0  0  0  0  0  0  0  0  0
  1  2  1  0
  2  3  1  0
  3  4  1  0
  4  5  1  0
  5  6  2  3
  6  7  1  0
  7  8  2  0
  8  9  1  0
  9 10  2  0
 10 11  1  0
 10 12  1  0
 12 13  1  0
 12 14  2  0
  4 15  2  0
 15 16  1  0
 16 17  2  0
 17 18  1  0
 18 19  2  0
 19 20  1  0
 20 21  2  0
 21 22  1  0
 22 23  2  0
 22  3  1  0
 14  7  1  0
 21 16  1  0
  1 24  1  0
  1 25  1  0
  1 26  1  0
  2 27  1  0
  2 28  1  0
  5 29  1  0
  6 30  1  0
  8 31  1  0
  9 32  1  0
 11 33  1  0
 13 34  1  0
 14 35  1  0
 17 36  1  0
 18 37  1  0
 19 38  1  0
 20 39  1  0
M  END
$$$$
