
     RDKit          3D

 47 49  0  0  0  0  0  0  0  0999 V2000
    7.2774    0.9841   -1.4688 C   0  0  0  0  0  0  0  0  0  0  0  0
    7.0806   -0.2831   -0.6512 C   0  0  0  0  0  0  0  0  0  0  0  0
    5.6104   -0.6518   -0.4441 C   0  0  0  0  0  0  0  0  0  0  0  0
    4.8441    0.3728    0.3969 C   0  0  0  0  0  0  0  0  0  0  0  0
    3.4854   -0.0647    0.7080 N   0  0  0  0  0  0  0  0  0  0  0  0
    2.4819    0.0631   -0.3368 C   0  0  0  0  0  0  0  0  0  0  0  0
    1.0941   -0.1923    0.1417 C   0  0  0  0  0  0  0  0  0  0  0  0
   -0.0365    0.1932   -0.5835 C   0  0  0  0  0  0  0  0  0  0  0  0
   -1.3058   -0.1439   -0.1088 C   0  0  0  0  0  0  0  0  0  0  0  0
   -2.5031    0.2414   -0.8903 C   0  0  0  0  0  0  0  0  0  0  0  0
   -2.3899    0.4251   -2.1008 O   0  0  0  0  0  0  0  0  0  0  0  0
   -3.8411    0.3767   -0.2707 C   0  0  0  0  0  0  0  0  0  0  0  0
   -4.9289   -0.1977   -0.9398 C   0  0  0  0  0  0  0  0  0  0  0  0
   -6.2191   -0.1010   -0.4133 C   0  0  0  0  0  0  0  0  0  0  0  0
   -7.1859   -0.7188   -1.1562 O   0  0  0  0  0  0  0  0  0  0  0  0
   -8.5259   -0.6161   -0.6911 C   0  0  0  0  0  0  0  0  0  0  0  0
   -6.4195    0.5870    0.7846 C   0  0  0  0  0  0  0  0  0  0  0  0
   -5.3405    1.1845    1.4464 C   0  0  0  0  0  0  0  0  0  0  0  0
   -4.0557    1.0849    0.9147 C   0  0  0  0  0  0  0  0  0  0  0  0
   -3.0126    1.6966    1.5482 O   0  0  0  0  0  0  0  0  0  0  0  0
   -1.3802   -0.8945    1.0575 C   0  0  0  0  0  0  0  0  0  0  0  0
   -0.2986   -1.2913    1.7748 N   0  0  0  0  0  0  0  0  0  0  0  0
    0.9085   -0.9202    1.3031 C   0  0  0  0  0  0  0  0  0  0  0  0
    2.0159   -1.3013    2.0343 N   0  0  0  0  0  0  0  0  0  0  0  0
    3.2900   -0.8911    1.7982 C   0  0  0  0  0  0  0  0  0  0  0  0
    4.1928   -1.2332    2.5598 O   0  0  0  0  0  0  0  0  0  0  0  0
    8.3433    1.1461   -1.6591 H   0  0  0  0  0  0  0  0  0  0  0  0
    6.7684    0.9112   -2.4350 H   0  0  0  0  0  0  0  0  0  0  0  0
    6.8977    1.8645   -0.9425 H   0  0  0  0  0  0  0  0  0  0  0  0
    7.5773   -1.1126   -1.1687 H   0  0  0  0  0  0  0  0  0  0  0  0
    7.5780   -0.1722    0.3194 H   0  0  0  0  0  0  0  0  0  0  0  0
    5.5669   -1.6319    0.0470 H   0  0  0  0  0  0  0  0  0  0  0  0
    5.1231   -0.7755   -1.4188 H   0  0  0  0  0  0  0  0  0  0  0  0
    5.3798    0.5475    1.3377 H   0  0  0  0  0  0  0  0  0  0  0  0
    4.7764    1.3373   -0.1178 H   0  0  0  0  0  0  0  0  0  0  0  0
    2.7252   -0.6523   -1.1302 H   0  0  0  0  0  0  0  0  0  0  0  0
    2.5489    1.0798   -0.7406 H   0  0  0  0  0  0  0  0  0  0  0  0
    0.0655    0.7463   -1.5149 H   0  0  0  0  0  0  0  0  0  0  0  0
   -4.7717   -0.7244   -1.8796 H   0  0  0  0  0  0  0  0  0  0  0  0
   -9.1684   -1.1421   -1.4038 H   0  0  0  0  0  0  0  0  0  0  0  0
   -8.8528    0.4283   -0.6552 H   0  0  0  0  0  0  0  0  0  0  0  0
   -8.6424   -1.1011    0.2836 H   0  0  0  0  0  0  0  0  0  0  0  0
   -7.4060    0.6841    1.2272 H   0  0  0  0  0  0  0  0  0  0  0  0
   -5.5266    1.7257    2.3699 H   0  0  0  0  0  0  0  0  0  0  0  0
   -3.3434    2.2054    2.3084 H   0  0  0  0  0  0  0  0  0  0  0  0
   -2.3288   -1.2275    1.4679 H   0  0  0  0  0  0  0  0  0  0  0  0
    1.8519   -1.8449    2.8675 H   0  0  0  0  0  0  0  0  0  0  0  0
  1  2  1  0
  2  3  1  0
  3  4  1  0
  4  5  1  0
  5  6  1  0
  6  7  1  0
  7  8  2  0
  8  9  1  0
  9 10  1  0
 10 11  2  0
 10 12  1  0
 12 13  2  0
 13 14  1  0
 14 15  1  0
 15 16  1  0
 14 17  2  0
 17 18  1  0
 18 19  2  0
 19 20  1  0
  9 21  2  0
 21 22  1  0
 22 23  2  0
 23 24  1  0
 24 25  1  0
 25 26  2  0
 25  5  1  0
 23  7  1  0
 19 12  1  0
  1 27  1  0
  1 28  1  0
  1 29  1  0
  2 30  1  0
  2 31  1  0
  3 32  1  0
  3 33  1  0
  4 34  1  0
  4 35  1  0
  6 36  1  0
  6 37  1  0
  8 38  1  0
 13 39  1  0
 16 40  1  0
 16 41  1  0
 16 42  1  0
 17 43  1  0
 18 44  1  0
 20 45  1  0
 21 46  1  0
 24 47  1  0
M  END
$$$$
