
     RDKit          3D

 35 37  0  0  0  0  0  0  0  0999 V2000
    5.3723    0.9347    1.0564 C   0  0  0  0  0  0  0  0  0  0  0  0
    4.0527    0.2213    1.1745 C   0  0  0  0  0  0  0  0  0  0  0  0
    3.1923    0.5413    2.2358 C   0  0  0  0  0  0  0  0  0  0  0  0
    1.9647   -0.1068    2.3787 C   0  0  0  0  0  0  0  0  0  0  0  0
    1.5712   -1.0776    1.4600 C   0  0  0  0  0  0  0  0  0  0  0  0
    0.3318   -1.7158    1.5931 N   0  0  0  0  0  0  0  0  0  0  0  0
   -0.6929   -1.2107    0.9982 C   0  0  0  0  0  0  0  0  0  0  0  0
   -0.7369   -0.0961    0.2264 N   0  0  0  0  0  0  0  0  0  0  0  0
   -1.9417    0.2752   -0.2994 C   0  0  0  0  0  0  0  0  0  0  0  0
   -2.0882    1.2813   -0.9730 O   0  0  0  0  0  0  0  0  0  0  0  0
   -2.9963   -0.7098    0.0898 C   0  0  0  0  0  0  0  0  0  0  0  0
   -4.3051   -0.7395   -0.2003 C   0  0  0  0  0  0  0  0  0  0  0  0
   -5.0003    0.1910   -1.0220 C   0  0  0  0  0  0  0  0  0  0  0  0
   -4.6806    0.7435   -2.2502 C   0  0  0  0  0  0  0  0  0  0  0  0
   -5.6836    1.6260   -2.7480 C   0  0  0  0  0  0  0  0  0  0  0  0
   -6.7598    1.7111   -1.8973 C   0  0  0  0  0  0  0  0  0  0  0  0
   -6.5618    0.7281   -0.5162 S   0  0  0  0  0  0  0  0  0  0  0  0
   -2.2741   -1.9310    1.1043 S   0  0  0  0  0  0  0  0  0  0  0  0
    2.4322   -1.4183    0.4140 C   0  0  0  0  0  0  0  0  0  0  0  0
    3.6707   -0.7749    0.2537 C   0  0  0  0  0  0  0  0  0  0  0  0
    4.5661   -1.1760   -0.8865 C   0  0  0  0  0  0  0  0  0  0  0  0
    6.1985    0.2234    1.1545 H   0  0  0  0  0  0  0  0  0  0  0  0
    5.4430    1.4478    0.0921 H   0  0  0  0  0  0  0  0  0  0  0  0
    5.4916    1.6913    1.8394 H   0  0  0  0  0  0  0  0  0  0  0  0
    3.4762    1.2953    2.9672 H   0  0  0  0  0  0  0  0  0  0  0  0
    1.3148    0.1435    3.2130 H   0  0  0  0  0  0  0  0  0  0  0  0
    0.0770    0.4745    0.0606 H   0  0  0  0  0  0  0  0  0  0  0  0
   -4.9142   -1.5280    0.2404 H   0  0  0  0  0  0  0  0  0  0  0  0
   -3.7582    0.5331   -2.7787 H   0  0  0  0  0  0  0  0  0  0  0  0
   -5.6155    2.1674   -3.6834 H   0  0  0  0  0  0  0  0  0  0  0  0
   -7.6580    2.2998   -2.0228 H   0  0  0  0  0  0  0  0  0  0  0  0
    2.1291   -2.2007   -0.2785 H   0  0  0  0  0  0  0  0  0  0  0  0
    5.5056   -1.5877   -0.5045 H   0  0  0  0  0  0  0  0  0  0  0  0
    4.7779   -0.3137   -1.5266 H   0  0  0  0  0  0  0  0  0  0  0  0
    4.0992   -1.9428   -1.5139 H   0  0  0  0  0  0  0  0  0  0  0  0
  1  2  1  0
  2  3  2  0
  3  4  1  0
  4  5  2  0
  5  6  1  0
  6  7  2  3
  7  8  1  0
  8  9  1  0
  9 10  2  0
  9 11  1  0
 11 12  2  3
 12 13  1  0
 13 14  2  0
 14 15  1  0
 15 16  2  0
 16 17  1  0
 11 18  1  0
  5 19  1  0
 19 20  2  0
 20 21  1  0
 20  2  1  0
 18  7  1  0
 17 13  1  0
  1 22  1  0
  1 23  1  0
  1 24  1  0
  3 25  1  0
  4 26  1  0
  8 27  1  0
 12 28  1  0
 14 29  1  0
 15 30  1  0
 16 31  1  0
 19 32  1  0
 21 33  1  0
 21 34  1  0
 21 35  1  0
M  END
$$$$
