
     RDKit          3D

 42 44  0  0  0  0  0  0  0  0999 V2000
   -1.2432   -4.1953   -1.5870 C   0  0  0  0  0  0  0  0  0  0  0  0
   -1.4705   -4.2753   -0.0869 C   0  0  0  0  0  0  0  0  0  0  0  0
   -2.6996   -3.0512    0.4787 S   0  0  0  0  0  0  0  0  0  0  0  0
   -1.7398   -1.5409    0.4693 C   0  0  0  0  0  0  0  0  0  0  0  0
   -2.4009   -0.3449    0.6518 C   0  0  0  0  0  0  0  0  0  0  0  0
   -1.6464    0.8091    0.6451 C   0  0  0  0  0  0  0  0  0  0  0  0
   -2.2152    2.0474    0.8292 N   0  0  0  0  0  0  0  0  0  0  0  0
   -3.6182    2.3502    0.5725 C   0  0  0  0  0  0  0  0  0  0  0  0
   -3.6260    3.8447    0.2474 C   0  0  0  0  0  0  0  0  0  0  0  0
   -2.3918    4.3728    0.9613 C   0  0  0  0  0  0  0  0  0  0  0  0
   -1.3845    3.2442    0.7650 C   0  0  0  0  0  0  0  0  0  0  0  0
   -0.3136    0.7429    0.4878 N   0  0  0  0  0  0  0  0  0  0  0  0
    0.2583   -0.4640    0.3222 C   0  0  0  0  0  0  0  0  0  0  0  0
    1.7244   -0.5135    0.1425 C   0  0  0  0  0  0  0  0  0  0  0  0
    2.5053    0.6575    0.1375 C   0  0  0  0  0  0  0  0  0  0  0  0
    3.8943    0.6146   -0.0336 C   0  0  0  0  0  0  0  0  0  0  0  0
    4.5479   -0.6060   -0.2160 C   0  0  0  0  0  0  0  0  0  0  0  0
    6.0390   -0.6587   -0.3646 C   0  0  0  0  0  0  0  0  0  0  0  0
    3.7945   -1.7821   -0.1992 C   0  0  0  0  0  0  0  0  0  0  0  0
    2.4058   -1.7334   -0.0279 C   0  0  0  0  0  0  0  0  0  0  0  0
   -0.4141   -1.6242    0.3040 N   0  0  0  0  0  0  0  0  0  0  0  0
   -0.8226   -3.2319   -1.8905 H   0  0  0  0  0  0  0  0  0  0  0  0
   -0.5373   -4.9732   -1.8964 H   0  0  0  0  0  0  0  0  0  0  0  0
   -2.1743   -4.3562   -2.1407 H   0  0  0  0  0  0  0  0  0  0  0  0
   -0.5308   -4.1710    0.4643 H   0  0  0  0  0  0  0  0  0  0  0  0
   -1.8695   -5.2658    0.1563 H   0  0  0  0  0  0  0  0  0  0  0  0
   -3.4705   -0.3231    0.8066 H   0  0  0  0  0  0  0  0  0  0  0  0
   -4.0350    1.7839   -0.2678 H   0  0  0  0  0  0  0  0  0  0  0  0
   -4.2107    2.1464    1.4713 H   0  0  0  0  0  0  0  0  0  0  0  0
   -4.5480    4.3376    0.5683 H   0  0  0  0  0  0  0  0  0  0  0  0
   -3.5205    3.9910   -0.8346 H   0  0  0  0  0  0  0  0  0  0  0  0
   -2.6060    4.5087    2.0283 H   0  0  0  0  0  0  0  0  0  0  0  0
   -2.0399    5.3253    0.5556 H   0  0  0  0  0  0  0  0  0  0  0  0
   -0.6178    3.2634    1.5468 H   0  0  0  0  0  0  0  0  0  0  0  0
   -0.9049    3.3330   -0.2175 H   0  0  0  0  0  0  0  0  0  0  0  0
    2.0286    1.6274    0.2725 H   0  0  0  0  0  0  0  0  0  0  0  0
    4.4575    1.5450   -0.0230 H   0  0  0  0  0  0  0  0  0  0  0  0
    6.5091   -0.7713    0.6172 H   0  0  0  0  0  0  0  0  0  0  0  0
    6.4181    0.2545   -0.8356 H   0  0  0  0  0  0  0  0  0  0  0  0
    6.3381   -1.4994   -0.9995 H   0  0  0  0  0  0  0  0  0  0  0  0
    4.2797   -2.7481   -0.3190 H   0  0  0  0  0  0  0  0  0  0  0  0
    1.8512   -2.6703   -0.0242 H   0  0  0  0  0  0  0  0  0  0  0  0
  1  2  1  0
  2  3  1  0
  3  4  1  0
  4  5  2  0
  5  6  1  0
  6  7  1  0
  7  8  1  0
  8  9  1  0
  9 10  1  0
 10 11  1  0
  6 12  2  0
 12 13  1  0
 13 14  1  0
 14 15  2  0
 15 16  1  0
 16 17  2  0
 17 18  1  0
 17 19  1  0
 19 20  2  0
 13 21  2  0
 21  4  1  0
 11  7  1  0
 20 14  1  0
  1 22  1  0
  1 23  1  0
  1 24  1  0
  2 25  1  0
  2 26  1  0
  5 27  1  0
  8 28  1  0
  8 29  1  0
  9 30  1  0
  9 31  1  0
 10 32  1  0
 10 33  1  0
 11 34  1  0
 11 35  1  0
 15 36  1  0
 16 37  1  0
 18 38  1  0
 18 39  1  0
 18 40  1  0
 19 41  1  0
 20 42  1  0
M  END
$$$$
