
     RDKit          3D

 70 73  0  0  0  0  0  0  0  0999 V2000
    1.7431    1.6761   -1.9337 C   0  0  0  0  0  0  0  0  0  0  0  0
    0.4592    1.0550   -1.8560 O   0  0  0  0  0  0  0  0  0  0  0  0
   -0.4079    1.7251   -1.0328 C   0  0  0  0  0  0  0  0  0  0  0  0
   -0.7644    3.0461   -1.3464 C   0  0  0  0  0  0  0  0  0  0  0  0
   -1.6800    3.7499   -0.5602 C   0  0  0  0  0  0  0  0  0  0  0  0
   -2.0682    5.0437   -0.8047 O   0  0  0  0  0  0  0  0  0  0  0  0
   -1.7937    5.5689   -2.0974 C   0  0  0  0  0  0  0  0  0  0  0  0
   -2.2444    3.1210    0.5588 C   0  0  0  0  0  0  0  0  0  0  0  0
   -3.2036    3.7927    1.4357 C   0  0  0  0  0  0  0  0  0  0  0  0
   -3.7439    3.1495    2.4736 C   0  0  0  0  0  0  0  0  0  0  0  0
   -3.4039    1.7571    2.7907 C   0  0  0  0  0  0  0  0  0  0  0  0
   -3.9099    1.1830    3.7473 O   0  0  0  0  0  0  0  0  0  0  0  0
   -2.4826    1.1418    1.9569 O   0  0  0  0  0  0  0  0  0  0  0  0
   -1.8981    1.7915    0.8384 C   0  0  0  0  0  0  0  0  0  0  0  0
   -0.9882    1.0528    0.0547 C   0  0  0  0  0  0  0  0  0  0  0  0
   -0.7025   -0.4146    0.3865 C   0  0  0  0  0  0  0  0  0  0  0  0
    0.7963   -0.7915    0.5304 C   0  0  0  0  0  0  0  0  0  0  0  0
    1.5116    0.0559    1.5961 C   0  0  0  0  0  0  0  0  0  0  0  0
    2.9407   -0.2791    1.7127 N   0  0  0  0  0  0  0  0  0  0  0  0
    3.1541   -1.6402    2.2388 C   0  0  0  0  0  0  0  0  0  0  0  0
    4.4082   -1.7970    3.1117 C   0  0  0  0  0  0  0  0  0  0  0  0
    5.5748   -0.9737    2.5809 C   0  0  0  0  0  0  0  0  0  0  0  0
    5.1851    0.5064    2.3799 C   0  0  0  0  0  0  0  0  0  0  0  0
    5.7338    1.0144    1.0410 C   0  0  0  0  0  0  0  0  0  0  0  0
    3.6632    0.7275    2.4946 C   0  0  0  0  0  0  0  0  0  0  0  0
   -1.4841   -1.3560   -0.5284 C   0  0  0  0  0  0  0  0  0  0  0  0
   -0.9749   -1.8315   -1.7377 C   0  0  0  0  0  0  0  0  0  0  0  0
   -1.7403   -2.6638   -2.5696 C   0  0  0  0  0  0  0  0  0  0  0  0
   -3.0413   -3.0719   -2.2340 C   0  0  0  0  0  0  0  0  0  0  0  0
   -3.8170   -3.8863   -3.0718 N   0  0  0  0  0  0  0  0  0  0  0  0
   -3.2142   -4.4437   -4.2798 C   0  0  0  0  0  0  0  0  0  0  0  0
   -4.8393   -4.7240   -2.4417 C   0  0  0  0  0  0  0  0  0  0  0  0
   -3.5435   -2.5671   -1.0232 C   0  0  0  0  0  0  0  0  0  0  0  0
   -2.7868   -1.7319   -0.1860 C   0  0  0  0  0  0  0  0  0  0  0  0
    2.4432    0.9433   -2.3454 H   0  0  0  0  0  0  0  0  0  0  0  0
    2.1092    1.9744   -0.9467 H   0  0  0  0  0  0  0  0  0  0  0  0
    1.7243    2.5336   -2.6103 H   0  0  0  0  0  0  0  0  0  0  0  0
   -0.3238    3.5009   -2.2258 H   0  0  0  0  0  0  0  0  0  0  0  0
   -2.1873    4.9214   -2.8870 H   0  0  0  0  0  0  0  0  0  0  0  0
   -2.2979    6.5369   -2.1793 H   0  0  0  0  0  0  0  0  0  0  0  0
   -0.7190    5.7405   -2.2225 H   0  0  0  0  0  0  0  0  0  0  0  0
   -3.4755    4.8214    1.2224 H   0  0  0  0  0  0  0  0  0  0  0  0
   -4.4631    3.6234    3.1308 H   0  0  0  0  0  0  0  0  0  0  0  0
   -1.0899   -0.6128    1.3959 H   0  0  0  0  0  0  0  0  0  0  0  0
    1.3354   -0.7069   -0.4187 H   0  0  0  0  0  0  0  0  0  0  0  0
    0.8530   -1.8521    0.8080 H   0  0  0  0  0  0  0  0  0  0  0  0
    1.4273    1.1092    1.3067 H   0  0  0  0  0  0  0  0  0  0  0  0
    1.0077   -0.0459    2.5662 H   0  0  0  0  0  0  0  0  0  0  0  0
    2.3014   -1.9734    2.8431 H   0  0  0  0  0  0  0  0  0  0  0  0
    3.2289   -2.3238    1.3833 H   0  0  0  0  0  0  0  0  0  0  0  0
    4.6902   -2.8545    3.1691 H   0  0  0  0  0  0  0  0  0  0  0  0
    4.1841   -1.4789    4.1388 H   0  0  0  0  0  0  0  0  0  0  0  0
    6.4175   -1.0374    3.2836 H   0  0  0  0  0  0  0  0  0  0  0  0
    5.9297   -1.4234    1.6419 H   0  0  0  0  0  0  0  0  0  0  0  0
    5.6589    1.0990    3.1746 H   0  0  0  0  0  0  0  0  0  0  0  0
    5.4863    2.0726    0.8870 H   0  0  0  0  0  0  0  0  0  0  0  0
    5.3228    0.4468    0.1961 H   0  0  0  0  0  0  0  0  0  0  0  0
    6.8249    0.9169    1.0141 H   0  0  0  0  0  0  0  0  0  0  0  0
    3.3540    0.6900    3.5473 H   0  0  0  0  0  0  0  0  0  0  0  0
    3.4310    1.7393    2.1377 H   0  0  0  0  0  0  0  0  0  0  0  0
    0.0200   -1.5505   -2.0728 H   0  0  0  0  0  0  0  0  0  0  0  0
   -1.2741   -2.9798   -3.4993 H   0  0  0  0  0  0  0  0  0  0  0  0
   -2.8075   -3.6584   -4.9239 H   0  0  0  0  0  0  0  0  0  0  0  0
   -2.4256   -5.1606   -4.0312 H   0  0  0  0  0  0  0  0  0  0  0  0
   -3.9621   -4.9682   -4.8830 H   0  0  0  0  0  0  0  0  0  0  0  0
   -5.3182   -5.3819   -3.1761 H   0  0  0  0  0  0  0  0  0  0  0  0
   -5.6439   -4.1205   -2.0125 H   0  0  0  0  0  0  0  0  0  0  0  0
   -4.4030   -5.3637   -1.6670 H   0  0  0  0  0  0  0  0  0  0  0  0
   -4.5563   -2.7912   -0.7055 H   0  0  0  0  0  0  0  0  0  0  0  0
   -3.2401   -1.3716    0.7347 H   0  0  0  0  0  0  0  0  0  0  0  0
  1  2  1  0
  2  3  1  0
  3  4  2  0
  4  5  1  0
  5  6  1  0
  6  7  1  0
  5  8  2  0
  8  9  1  0
  9 10  2  0
 10 11  1  0
 11 12  2  0
 11 13  1  0
 13 14  1  0
 14 15  2  0
 15 16  1  0
 16 17  1  0
 17 18  1  0
 18 19  1  0
 19 20  1  0
 20 21  1  0
 21 22  1  0
 22 23  1  0
 23 24  1  0
 23 25  1  0
 16 26  1  0
 26 27  2  0
 27 28  1  0
 28 29  2  0
 29 30  1  0
 30 31  1  0
 30 32  1  0
 29 33  1  0
 33 34  2  0
 15  3  1  0
 25 19  1  0
 34 26  1  0
 14  8  1  0
  1 35  1  0
  1 36  1  0
  1 37  1  0
  4 38  1  0
  7 39  1  0
  7 40  1  0
  7 41  1  0
  9 42  1  0
 10 43  1  0
 16 44  1  0
 17 45  1  0
 17 46  1  0
 18 47  1  0
 18 48  1  0
 20 49  1  0
 20 50  1  0
 21 51  1  0
 21 52  1  0
 22 53  1  0
 22 54  1  0
 23 55  1  0
 24 56  1  0
 24 57  1  0
 24 58  1  0
 25 59  1  0
 25 60  1  0
 27 61  1  0
 28 62  1  0
 31 63  1  0
 31 64  1  0
 31 65  1  0
 32 66  1  0
 32 67  1  0
 32 68  1  0
 33 69  1  0
 34 70  1  0
M  END
$$$$
