
     RDKit          3D

 47 48  0  0  0  0  0  0  0  0999 V2000
    4.3823   -1.1782    3.3749 C   0  0  0  0  0  0  0  0  0  0  0  0
    3.8339   -1.8785    2.1459 C   0  0  0  0  0  0  0  0  0  0  0  0
    3.3635   -0.9118    1.1974 O   0  0  0  0  0  0  0  0  0  0  0  0
    4.2885   -0.4469    0.3084 C   0  0  0  0  0  0  0  0  0  0  0  0
    5.4759   -0.7499    0.3300 O   0  0  0  0  0  0  0  0  0  0  0  0
    3.7114    0.5004   -0.6476 C   0  0  0  0  0  0  0  0  0  0  0  0
    4.4383    1.3310   -1.4949 C   0  0  0  0  0  0  0  0  0  0  0  0
    5.9081    1.4804   -1.6770 C   0  0  0  0  0  0  0  0  0  0  0  0
    3.5513    2.0768   -2.2296 N   0  0  0  0  0  0  0  0  0  0  0  0
    2.2639    1.7507   -1.8883 C   0  0  0  0  0  0  0  0  0  0  0  0
    1.0973    2.3806   -2.5636 C   0  0  0  0  0  0  0  0  0  0  0  0
    2.3254    0.7720   -0.9073 C   0  0  0  0  0  0  0  0  0  0  0  0
    1.1668    0.1237   -0.2994 C   0  0  0  0  0  0  0  0  0  0  0  0
    0.8716   -1.0381   -0.5764 O   0  0  0  0  0  0  0  0  0  0  0  0
    0.3871    0.9439    0.7302 C   0  0  0  0  0  0  0  0  0  0  0  0
   -0.8886    0.3859    1.0475 O   0  0  0  0  0  0  0  0  0  0  0  0
   -1.8155    0.5676    0.0746 C   0  0  0  0  0  0  0  0  0  0  0  0
   -1.6720    1.2188   -0.9468 O   0  0  0  0  0  0  0  0  0  0  0  0
   -3.0470   -0.1406    0.4753 C   0  0  0  0  0  0  0  0  0  0  0  0
   -4.1354   -0.0825   -0.3070 C   0  0  0  0  0  0  0  0  0  0  0  0
   -5.4009   -0.7651   -0.0070 C   0  0  0  0  0  0  0  0  0  0  0  0
   -5.8992   -0.8851    1.2981 C   0  0  0  0  0  0  0  0  0  0  0  0
   -7.1232   -1.5184    1.5367 C   0  0  0  0  0  0  0  0  0  0  0  0
   -7.8607   -2.0258    0.4699 C   0  0  0  0  0  0  0  0  0  0  0  0
   -9.3665   -2.8035    0.7638 Cl  0  0  0  0  0  0  0  0  0  0  0  0
   -7.3873   -1.9016   -0.8336 C   0  0  0  0  0  0  0  0  0  0  0  0
   -6.1636   -1.2679   -1.0705 C   0  0  0  0  0  0  0  0  0  0  0  0
    5.2413   -0.5496    3.1190 H   0  0  0  0  0  0  0  0  0  0  0  0
    3.6245   -0.5207    3.8128 H   0  0  0  0  0  0  0  0  0  0  0  0
    4.6955   -1.9065    4.1281 H   0  0  0  0  0  0  0  0  0  0  0  0
    2.9736   -2.4949    2.4272 H   0  0  0  0  0  0  0  0  0  0  0  0
    4.5774   -2.5494    1.7002 H   0  0  0  0  0  0  0  0  0  0  0  0
    6.3400    0.5518   -2.0633 H   0  0  0  0  0  0  0  0  0  0  0  0
    6.1468    2.2826   -2.3830 H   0  0  0  0  0  0  0  0  0  0  0  0
    6.3898    1.7200   -0.7236 H   0  0  0  0  0  0  0  0  0  0  0  0
    3.8107    2.7532   -2.9376 H   0  0  0  0  0  0  0  0  0  0  0  0
    0.5895    3.0694   -1.8817 H   0  0  0  0  0  0  0  0  0  0  0  0
    0.3816    1.6174   -2.8842 H   0  0  0  0  0  0  0  0  0  0  0  0
    1.4032    2.9447   -3.4505 H   0  0  0  0  0  0  0  0  0  0  0  0
    0.9734    0.9505    1.6553 H   0  0  0  0  0  0  0  0  0  0  0  0
    0.2784    1.9846    0.4053 H   0  0  0  0  0  0  0  0  0  0  0  0
   -3.0110   -0.7073    1.3971 H   0  0  0  0  0  0  0  0  0  0  0  0
   -4.1061    0.4752   -1.2423 H   0  0  0  0  0  0  0  0  0  0  0  0
   -5.3499   -0.4793    2.1443 H   0  0  0  0  0  0  0  0  0  0  0  0
   -7.4949   -1.6065    2.5542 H   0  0  0  0  0  0  0  0  0  0  0  0
   -7.9618   -2.2930   -1.6688 H   0  0  0  0  0  0  0  0  0  0  0  0
   -5.8071   -1.1799   -2.0950 H   0  0  0  0  0  0  0  0  0  0  0  0
  1  2  1  0
  2  3  1  0
  3  4  1  0
  4  5  2  0
  4  6  1  0
  6  7  2  0
  7  8  1  0
  7  9  1  0
  9 10  1  0
 10 11  1  0
 10 12  2  0
 12 13  1  0
 13 14  2  0
 13 15  1  0
 15 16  1  0
 16 17  1  0
 17 18  2  0
 17 19  1  0
 19 20  2  3
 20 21  1  0
 21 22  2  0
 22 23  1  0
 23 24  2  0
 24 25  1  0
 24 26  1  0
 26 27  2  0
 12  6  1  0
 27 21  1  0
  1 28  1  0
  1 29  1  0
  1 30  1  0
  2 31  1  0
  2 32  1  0
  8 33  1  0
  8 34  1  0
  8 35  1  0
  9 36  1  0
 11 37  1  0
 11 38  1  0
 11 39  1  0
 15 40  1  0
 15 41  1  0
 19 42  1  0
 20 43  1  0
 22 44  1  0
 23 45  1  0
 26 46  1  0
 27 47  1  0
M  END
$$$$
