
     RDKit          3D

 50 53  0  0  0  0  0  0  0  0999 V2000
   -1.8686   -2.3863    2.9741 C   0  0  0  0  0  0  0  0  0  0  0  0
   -1.2303   -2.3158    1.6981 O   0  0  0  0  0  0  0  0  0  0  0  0
   -1.1127   -1.0503    1.2168 C   0  0  0  0  0  0  0  0  0  0  0  0
   -1.4818   -0.0350    1.7829 O   0  0  0  0  0  0  0  0  0  0  0  0
   -0.4545   -1.1047   -0.1104 C   0  0  0  0  0  0  0  0  0  0  0  0
   -0.8377   -0.3372   -1.1604 C   0  0  0  0  0  0  0  0  0  0  0  0
   -1.9543    0.6132   -1.1179 C   0  0  0  0  0  0  0  0  0  0  0  0
   -3.2623    0.1800   -1.3620 C   0  0  0  0  0  0  0  0  0  0  0  0
   -4.3229    1.0854   -1.3076 C   0  0  0  0  0  0  0  0  0  0  0  0
   -4.0809    2.4261   -1.0039 C   0  0  0  0  0  0  0  0  0  0  0  0
   -2.7760    2.8654   -0.7539 C   0  0  0  0  0  0  0  0  0  0  0  0
   -2.5303    4.2408   -0.4338 C   0  0  0  0  0  0  0  0  0  0  0  0
   -2.3417    5.3584   -0.1829 N   0  0  0  0  0  0  0  0  0  0  0  0
   -1.7131    1.9589   -0.8150 C   0  0  0  0  0  0  0  0  0  0  0  0
   -0.0749   -0.3980   -2.4828 C   0  0  0  0  0  0  0  0  0  0  0  0
    1.0438   -1.4750   -2.4616 C   0  0  0  0  0  0  0  0  0  0  0  0
    0.4556   -2.8960   -2.4951 C   0  0  0  0  0  0  0  0  0  0  0  0
    0.3167   -3.3040   -1.0157 C   0  0  0  0  0  0  0  0  0  0  0  0
    0.7289   -2.0519   -0.2329 C   0  0  0  0  0  0  0  0  0  0  0  0
    1.6810   -1.4348   -1.1531 N   0  0  0  0  0  0  0  0  0  0  0  0
    2.5521   -0.4131   -0.8416 C   0  0  0  0  0  0  0  0  0  0  0  0
    2.9697    0.3781   -1.6812 O   0  0  0  0  0  0  0  0  0  0  0  0
    2.8715   -0.3368    0.4875 N   0  0  0  0  0  0  0  0  0  0  0  0
    3.6692    0.7558    0.9955 C   0  0  0  0  0  0  0  0  0  0  0  0
    2.8002    1.9602    1.1799 C   0  0  0  0  0  0  0  0  0  0  0  0
    2.9739    2.8663    2.3723 C   0  0  0  0  0  0  0  0  0  0  0  0
    1.7538    1.9935    2.2667 C   0  0  0  0  0  0  0  0  0  0  0  0
   -1.2822   -1.8489    3.7259 H   0  0  0  0  0  0  0  0  0  0  0  0
   -2.8866   -1.9881    2.9169 H   0  0  0  0  0  0  0  0  0  0  0  0
   -1.9248   -3.4385    3.2663 H   0  0  0  0  0  0  0  0  0  0  0  0
   -3.4636   -0.8635   -1.5928 H   0  0  0  0  0  0  0  0  0  0  0  0
   -5.3383    0.7451   -1.4959 H   0  0  0  0  0  0  0  0  0  0  0  0
   -4.9155    3.1233   -0.9577 H   0  0  0  0  0  0  0  0  0  0  0  0
   -0.6970    2.2934   -0.6092 H   0  0  0  0  0  0  0  0  0  0  0  0
   -0.7609   -0.5915   -3.3162 H   0  0  0  0  0  0  0  0  0  0  0  0
    0.3833    0.5836   -2.6604 H   0  0  0  0  0  0  0  0  0  0  0  0
    1.7604   -1.3041   -3.2715 H   0  0  0  0  0  0  0  0  0  0  0  0
    1.1524   -3.5822   -2.9911 H   0  0  0  0  0  0  0  0  0  0  0  0
   -0.4966   -2.9510   -3.0322 H   0  0  0  0  0  0  0  0  0  0  0  0
   -0.6910   -3.6606   -0.7784 H   0  0  0  0  0  0  0  0  0  0  0  0
    1.0152   -4.1231   -0.8050 H   0  0  0  0  0  0  0  0  0  0  0  0
    1.1882   -2.2829    0.7317 H   0  0  0  0  0  0  0  0  0  0  0  0
    3.0068   -1.2282    0.9358 H   0  0  0  0  0  0  0  0  0  0  0  0
    4.0996    0.4266    1.9474 H   0  0  0  0  0  0  0  0  0  0  0  0
    4.4900    0.9730    0.3040 H   0  0  0  0  0  0  0  0  0  0  0  0
    2.5494    2.4221    0.2303 H   0  0  0  0  0  0  0  0  0  0  0  0
    2.8474    3.9324    2.2190 H   0  0  0  0  0  0  0  0  0  0  0  0
    3.7148    2.6124    3.1211 H   0  0  0  0  0  0  0  0  0  0  0  0
    0.8037    2.4631    2.0359 H   0  0  0  0  0  0  0  0  0  0  0  0
    1.6710    1.1446    2.9353 H   0  0  0  0  0  0  0  0  0  0  0  0
  1  2  1  0
  2  3  1  0
  3  4  2  0
  3  5  1  0
  5  6  2  0
  6  7  1  0
  7  8  2  0
  8  9  1  0
  9 10  2  0
 10 11  1  0
 11 12  1  0
 12 13  3  0
 11 14  2  0
  6 15  1  0
 15 16  1  0
 16 17  1  0
 17 18  1  0
 18 19  1  0
 19 20  1  0
 20 21  1  0
 21 22  2  0
 21 23  1  0
 23 24  1  0
 24 25  1  0
 25 26  1  0
 26 27  1  0
 19  5  1  0
 27 25  1  0
 14  7  1  0
 20 16  1  0
  1 28  1  0
  1 29  1  0
  1 30  1  0
  8 31  1  0
  9 32  1  0
 10 33  1  0
 14 34  1  0
 15 35  1  0
 15 36  1  0
 16 37  1  0
 17 38  1  0
 17 39  1  0
 18 40  1  0
 18 41  1  0
 19 42  1  0
 23 43  1  0
 24 44  1  0
 24 45  1  0
 25 46  1  0
 26 47  1  0
 26 48  1  0
 27 49  1  0
 27 50  1  0
M  END
$$$$
