
     RDKit          3D

 33 34  0  0  0  0  0  0  0  0999 V2000
    7.4010    0.6546    0.1813 C   0  0  0  0  0  0  0  0  0  0  0  0
    6.7077   -0.7008    0.1422 C   0  0  0  0  0  0  0  0  0  0  0  0
    5.1950   -0.6156   -0.0647 C   0  0  0  0  0  0  0  0  0  0  0  0
    4.3451    0.1064    1.3748 S   0  0  0  0  0  0  0  0  0  0  0  0
    2.6847    0.0542    0.8290 C   0  0  0  0  0  0  0  0  0  0  0  0
    2.3288   -0.4131   -0.3475 N   0  0  0  0  0  0  0  0  0  0  0  0
    0.9598   -0.3451   -0.5396 N   0  0  0  0  0  0  0  0  0  0  0  0
    0.3504    0.1673    0.5007 C   0  0  0  0  0  0  0  0  0  0  0  0
   -0.9758    0.4180    0.7279 N   0  0  0  0  0  0  0  0  0  0  0  0
   -1.9568    0.0392   -0.1673 C   0  0  0  0  0  0  0  0  0  0  0  0
   -1.7520   -0.5748   -1.2049 O   0  0  0  0  0  0  0  0  0  0  0  0
   -3.2054    0.4538    0.2808 N   0  0  0  0  0  0  0  0  0  0  0  0
   -4.4616    0.1967   -0.3099 C   0  0  0  0  0  0  0  0  0  0  0  0
   -4.6534   -0.6381   -1.4121 C   0  0  0  0  0  0  0  0  0  0  0  0
   -5.9360   -0.8449   -1.9312 C   0  0  0  0  0  0  0  0  0  0  0  0
   -7.0380   -0.2218   -1.3513 C   0  0  0  0  0  0  0  0  0  0  0  0
   -6.8597    0.6088   -0.2491 C   0  0  0  0  0  0  0  0  0  0  0  0
   -5.5783    0.8155    0.2695 C   0  0  0  0  0  0  0  0  0  0  0  0
    1.3779    0.6144    1.7902 S   0  0  0  0  0  0  0  0  0  0  0  0
    7.0972    1.2417    1.0528 H   0  0  0  0  0  0  0  0  0  0  0  0
    7.1794    1.2342   -0.7205 H   0  0  0  0  0  0  0  0  0  0  0  0
    8.4859    0.5183    0.2362 H   0  0  0  0  0  0  0  0  0  0  0  0
    6.9404   -1.2619    1.0553 H   0  0  0  0  0  0  0  0  0  0  0  0
    7.1331   -1.2744   -0.6906 H   0  0  0  0  0  0  0  0  0  0  0  0
    4.9748   -0.0192   -0.9569 H   0  0  0  0  0  0  0  0  0  0  0  0
    4.8045   -1.6262   -0.2270 H   0  0  0  0  0  0  0  0  0  0  0  0
   -1.2185    0.7914    1.6282 H   0  0  0  0  0  0  0  0  0  0  0  0
   -3.2164    1.0878    1.0637 H   0  0  0  0  0  0  0  0  0  0  0  0
   -3.8260   -1.1502   -1.8938 H   0  0  0  0  0  0  0  0  0  0  0  0
   -6.0680   -1.4965   -2.7915 H   0  0  0  0  0  0  0  0  0  0  0  0
   -8.0322   -0.3852   -1.7587 H   0  0  0  0  0  0  0  0  0  0  0  0
   -7.7172    1.0964    0.2072 H   0  0  0  0  0  0  0  0  0  0  0  0
   -5.4703    1.4692    1.1305 H   0  0  0  0  0  0  0  0  0  0  0  0
  1  2  1  0
  2  3  1  0
  3  4  1  0
  4  5  1  0
  5  6  2  0
  6  7  1  0
  7  8  2  0
  8  9  1  0
  9 10  1  0
 10 11  2  0
 10 12  1  0
 12 13  1  0
 13 14  2  0
 14 15  1  0
 15 16  2  0
 16 17  1  0
 17 18  2  0
  8 19  1  0
 19  5  1  0
 18 13  1  0
  1 20  1  0
  1 21  1  0
  1 22  1  0
  2 23  1  0
  2 24  1  0
  3 25  1  0
  3 26  1  0
  9 27  1  0
 12 28  1  0
 14 29  1  0
 15 30  1  0
 16 31  1  0
 17 32  1  0
 18 33  1  0
M  END
$$$$
