
     RDKit          3D

 60 61  0  0  0  0  0  0  0  0999 V2000
   -0.8590   -3.7568   -0.3507 C   0  0  0  0  0  0  0  0  0  0  0  0
   -0.8942   -2.4000   -0.7758 O   0  0  0  0  0  0  0  0  0  0  0  0
    0.2186   -1.6294   -0.5518 C   0  0  0  0  0  0  0  0  0  0  0  0
    1.4199   -2.1321   -0.0418 C   0  0  0  0  0  0  0  0  0  0  0  0
    2.5092   -1.2861    0.1647 C   0  0  0  0  0  0  0  0  0  0  0  0
    2.4137    0.0772   -0.1293 C   0  0  0  0  0  0  0  0  0  0  0  0
    3.6262    0.9015    0.1240 C   0  0  0  0  0  0  0  0  0  0  0  0
    4.7289    0.4201   -0.1098 O   0  0  0  0  0  0  0  0  0  0  0  0
    3.4297    2.2389    0.7555 C   0  0  0  0  0  0  0  0  0  0  0  0
    4.3240    3.2361    0.8476 C   0  0  0  0  0  0  0  0  0  0  0  0
    5.7014    3.2747    0.3500 C   0  0  0  0  0  0  0  0  0  0  0  0
    6.0476    4.2195   -0.6243 C   0  0  0  0  0  0  0  0  0  0  0  0
    7.3629    4.3095   -1.0849 C   0  0  0  0  0  0  0  0  0  0  0  0
    8.3317    3.4581   -0.5686 C   0  0  0  0  0  0  0  0  0  0  0  0
    9.6025    3.5735   -1.0496 O   0  0  0  0  0  0  0  0  0  0  0  0
    8.0095    2.5206    0.4071 C   0  0  0  0  0  0  0  0  0  0  0  0
    6.6936    2.4361    0.8706 C   0  0  0  0  0  0  0  0  0  0  0  0
    1.2238    0.5839   -0.6751 C   0  0  0  0  0  0  0  0  0  0  0  0
    1.1845    1.9131   -1.0102 O   0  0  0  0  0  0  0  0  0  0  0  0
    0.1070   -0.2578   -0.8858 C   0  0  0  0  0  0  0  0  0  0  0  0
   -1.2112    0.2799   -1.4194 C   0  0  0  0  0  0  0  0  0  0  0  0
   -1.9795    1.0589   -0.3812 C   0  0  0  0  0  0  0  0  0  0  0  0
   -3.2134    0.8102    0.1045 C   0  0  0  0  0  0  0  0  0  0  0  0
   -3.8140    1.7150    1.1519 C   0  0  0  0  0  0  0  0  0  0  0  0
   -4.1041   -0.3348   -0.3346 C   0  0  0  0  0  0  0  0  0  0  0  0
   -4.1095   -1.4904    0.6723 C   0  0  0  0  0  0  0  0  0  0  0  0
   -4.9004   -2.6629    0.1563 C   0  0  0  0  0  0  0  0  0  0  0  0
   -6.1273   -3.0654    0.5410 C   0  0  0  0  0  0  0  0  0  0  0  0
   -6.7578   -4.2916   -0.0662 C   0  0  0  0  0  0  0  0  0  0  0  0
   -6.9855   -2.3702    1.5614 C   0  0  0  0  0  0  0  0  0  0  0  0
   -0.1171   -4.3274   -0.9185 H   0  0  0  0  0  0  0  0  0  0  0  0
   -1.8405   -4.1957   -0.5539 H   0  0  0  0  0  0  0  0  0  0  0  0
   -0.6793   -3.8300    0.7270 H   0  0  0  0  0  0  0  0  0  0  0  0
    1.5468   -3.1814    0.2043 H   0  0  0  0  0  0  0  0  0  0  0  0
    3.4387   -1.6949    0.5579 H   0  0  0  0  0  0  0  0  0  0  0  0
    2.4386    2.4118    1.1651 H   0  0  0  0  0  0  0  0  0  0  0  0
    4.0052    4.1648    1.3174 H   0  0  0  0  0  0  0  0  0  0  0  0
    5.2954    4.8870   -1.0368 H   0  0  0  0  0  0  0  0  0  0  0  0
    7.6280    5.0371   -1.8461 H   0  0  0  0  0  0  0  0  0  0  0  0
   10.1435    2.8746   -0.6470 H   0  0  0  0  0  0  0  0  0  0  0  0
    8.7565    1.8480    0.8148 H   0  0  0  0  0  0  0  0  0  0  0  0
    6.4423    1.6967    1.6274 H   0  0  0  0  0  0  0  0  0  0  0  0
    0.4828    2.0768   -1.6595 H   0  0  0  0  0  0  0  0  0  0  0  0
   -1.0157    0.9334   -2.2781 H   0  0  0  0  0  0  0  0  0  0  0  0
   -1.8068   -0.5284   -1.8505 H   0  0  0  0  0  0  0  0  0  0  0  0
   -1.4466    1.9235    0.0147 H   0  0  0  0  0  0  0  0  0  0  0  0
   -4.7559    2.1402    0.7905 H   0  0  0  0  0  0  0  0  0  0  0  0
   -3.1530    2.5500    1.4076 H   0  0  0  0  0  0  0  0  0  0  0  0
   -4.0129    1.1593    2.0732 H   0  0  0  0  0  0  0  0  0  0  0  0
   -3.8113   -0.7049   -1.3227 H   0  0  0  0  0  0  0  0  0  0  0  0
   -5.1263    0.0439   -0.4687 H   0  0  0  0  0  0  0  0  0  0  0  0
   -3.0836   -1.8315    0.8571 H   0  0  0  0  0  0  0  0  0  0  0  0
   -4.4834   -1.1519    1.6433 H   0  0  0  0  0  0  0  0  0  0  0  0
   -4.3814   -3.2390   -0.6101 H   0  0  0  0  0  0  0  0  0  0  0  0
   -6.9878   -5.0244    0.7140 H   0  0  0  0  0  0  0  0  0  0  0  0
   -6.1023   -4.7786   -0.7958 H   0  0  0  0  0  0  0  0  0  0  0  0
   -7.6875   -4.0258   -0.5799 H   0  0  0  0  0  0  0  0  0  0  0  0
   -7.1147   -3.0078    2.4419 H   0  0  0  0  0  0  0  0  0  0  0  0
   -6.5758   -1.4142    1.8949 H   0  0  0  0  0  0  0  0  0  0  0  0
   -7.9747   -2.1607    1.1401 H   0  0  0  0  0  0  0  0  0  0  0  0
  1  2  1  0
  2  3  1  0
  3  4  2  0
  4  5  1  0
  5  6  2  0
  6  7  1  0
  7  8  2  0
  7  9  1  0
  9 10  2  3
 10 11  1  0
 11 12  2  0
 12 13  1  0
 13 14  2  0
 14 15  1  0
 14 16  1  0
 16 17  2  0
  6 18  1  0
 18 19  1  0
 18 20  2  0
 20 21  1  0
 21 22  1  0
 22 23  2  3
 23 24  1  0
 23 25  1  0
 25 26  1  0
 26 27  1  0
 27 28  2  3
 28 29  1  0
 28 30  1  0
 20  3  1  0
 17 11  1  0
  1 31  1  0
  1 32  1  0
  1 33  1  0
  4 34  1  0
  5 35  1  0
  9 36  1  0
 10 37  1  0
 12 38  1  0
 13 39  1  0
 15 40  1  0
 16 41  1  0
 17 42  1  0
 19 43  1  0
 21 44  1  0
 21 45  1  0
 22 46  1  0
 24 47  1  0
 24 48  1  0
 24 49  1  0
 25 50  1  0
 25 51  1  0
 26 52  1  0
 26 53  1  0
 27 54  1  0
 29 55  1  0
 29 56  1  0
 29 57  1  0
 30 58  1  0
 30 59  1  0
 30 60  1  0
M  END
$$$$
