
     RDKit          3D

 53 56  0  0  0  0  0  0  0  0999 V2000
    3.3186   -5.0096   -1.1384 C   0  0  0  0  0  0  0  0  0  0  0  0
    2.2509   -4.0968   -0.9181 O   0  0  0  0  0  0  0  0  0  0  0  0
    2.4520   -2.8028   -1.3118 C   0  0  0  0  0  0  0  0  0  0  0  0
    3.6138   -2.2890   -1.8813 C   0  0  0  0  0  0  0  0  0  0  0  0
    3.6920   -0.9341   -2.2291 C   0  0  0  0  0  0  0  0  0  0  0  0
    2.6073   -0.0775   -2.0173 C   0  0  0  0  0  0  0  0  0  0  0  0
    2.5984    1.2599   -2.3093 O   0  0  0  0  0  0  0  0  0  0  0  0
    3.8057    1.8374   -2.7867 C   0  0  0  0  0  0  0  0  0  0  0  0
    1.4236   -0.5913   -1.4625 C   0  0  0  0  0  0  0  0  0  0  0  0
    0.2257    0.2906   -1.1925 C   0  0  0  0  0  0  0  0  0  0  0  0
    0.3179    0.8766    0.1513 N   0  0  0  0  0  0  0  0  0  0  0  0
   -0.8572    1.6266    0.4709 N   0  0  0  0  0  0  0  0  0  0  0  0
   -1.9814    1.0143    1.0399 C   0  0  0  0  0  0  0  0  0  0  0  0
   -1.9501   -0.4395    1.3681 C   0  0  0  0  0  0  0  0  0  0  0  0
   -3.0212   -1.2372    0.9516 C   0  0  0  0  0  0  0  0  0  0  0  0
   -3.0251   -2.6027    1.2349 C   0  0  0  0  0  0  0  0  0  0  0  0
   -1.9671   -3.1722    1.9469 C   0  0  0  0  0  0  0  0  0  0  0  0
   -0.9046   -2.3793    2.3971 C   0  0  0  0  0  0  0  0  0  0  0  0
    0.2452   -2.9834    3.1490 C   0  0  0  0  0  0  0  0  0  0  0  0
   -0.9049   -1.0076    2.1067 C   0  0  0  0  0  0  0  0  0  0  0  0
   -3.0814    1.6651    1.2766 N   0  0  0  0  0  0  0  0  0  0  0  0
   -3.1346    3.0345    0.9864 C   0  0  0  0  0  0  0  0  0  0  0  0
   -4.3254    3.7232    1.2334 C   0  0  0  0  0  0  0  0  0  0  0  0
   -4.4277    5.0918    0.9683 C   0  0  0  0  0  0  0  0  0  0  0  0
   -3.3336    5.7877    0.4556 C   0  0  0  0  0  0  0  0  0  0  0  0
   -2.1389    5.1136    0.2038 C   0  0  0  0  0  0  0  0  0  0  0  0
   -2.0502    3.7416    0.4693 C   0  0  0  0  0  0  0  0  0  0  0  0
   -0.8101    2.9972    0.1978 C   0  0  0  0  0  0  0  0  0  0  0  0
    0.1822    3.5770   -0.2425 O   0  0  0  0  0  0  0  0  0  0  0  0
    1.3663   -1.9504   -1.1031 C   0  0  0  0  0  0  0  0  0  0  0  0
    3.5568   -5.0911   -2.2046 H   0  0  0  0  0  0  0  0  0  0  0  0
    2.9914   -5.9956   -0.7949 H   0  0  0  0  0  0  0  0  0  0  0  0
    4.2020   -4.7301   -0.5557 H   0  0  0  0  0  0  0  0  0  0  0  0
    4.4841   -2.9118   -2.0633 H   0  0  0  0  0  0  0  0  0  0  0  0
    4.6206   -0.5798   -2.6639 H   0  0  0  0  0  0  0  0  0  0  0  0
    3.6282    2.9077   -2.9318 H   0  0  0  0  0  0  0  0  0  0  0  0
    4.6129    1.7287   -2.0548 H   0  0  0  0  0  0  0  0  0  0  0  0
    4.0891    1.4132   -3.7557 H   0  0  0  0  0  0  0  0  0  0  0  0
   -0.6830   -0.3169   -1.2894 H   0  0  0  0  0  0  0  0  0  0  0  0
    0.1429    1.0720   -1.9577 H   0  0  0  0  0  0  0  0  0  0  0  0
    1.0910    1.5532    0.1153 H   0  0  0  0  0  0  0  0  0  0  0  0
   -3.8461   -0.7993    0.3960 H   0  0  0  0  0  0  0  0  0  0  0  0
   -3.8509   -3.2249    0.8994 H   0  0  0  0  0  0  0  0  0  0  0  0
   -1.9811   -4.2406    2.1524 H   0  0  0  0  0  0  0  0  0  0  0  0
    0.4620   -2.3956    4.0479 H   0  0  0  0  0  0  0  0  0  0  0  0
    0.0198   -4.0055    3.4707 H   0  0  0  0  0  0  0  0  0  0  0  0
    1.1361   -3.0111    2.5120 H   0  0  0  0  0  0  0  0  0  0  0  0
   -0.0848   -0.3861    2.4556 H   0  0  0  0  0  0  0  0  0  0  0  0
   -5.1794    3.1848    1.6379 H   0  0  0  0  0  0  0  0  0  0  0  0
   -5.3625    5.6123    1.1647 H   0  0  0  0  0  0  0  0  0  0  0  0
   -3.4124    6.8522    0.2504 H   0  0  0  0  0  0  0  0  0  0  0  0
   -1.2850    5.6517   -0.1990 H   0  0  0  0  0  0  0  0  0  0  0  0
    0.4624   -2.3506   -0.6469 H   0  0  0  0  0  0  0  0  0  0  0  0
  1  2  1  0
  2  3  1  0
  3  4  2  0
  4  5  1  0
  5  6  2  0
  6  7  1  0
  7  8  1  0
  6  9  1  0
  9 10  1  0
 10 11  1  0
 11 12  1  0
 12 13  1  0
 13 14  1  0
 14 15  2  0
 15 16  1  0
 16 17  2  0
 17 18  1  0
 18 19  1  0
 18 20  2  0
 13 21  2  0
 21 22  1  0
 22 23  2  0
 23 24  1  0
 24 25  2  0
 25 26  1  0
 26 27  2  0
 27 28  1  0
 28 29  2  0
  9 30  2  0
 30  3  1  0
 28 12  1  0
 20 14  1  0
 27 22  1  0
  1 31  1  0
  1 32  1  0
  1 33  1  0
  4 34  1  0
  5 35  1  0
  8 36  1  0
  8 37  1  0
  8 38  1  0
 10 39  1  0
 10 40  1  0
 11 41  1  0
 15 42  1  0
 16 43  1  0
 17 44  1  0
 19 45  1  0
 19 46  1  0
 19 47  1  0
 20 48  1  0
 23 49  1  0
 24 50  1  0
 25 51  1  0
 26 52  1  0
 30 53  1  0
M  END
$$$$
