
     RDKit          3D

 45 47  0  0  0  0  0  0  0  0999 V2000
   -2.8842   -1.2412   -1.4412 O   0  0  0  0  0  0  0  0  0  0  0  0
   -2.3347   -0.7911   -0.4385 C   0  0  0  0  0  0  0  0  0  0  0  0
   -0.8504   -1.0160   -0.1377 C   0  0  0  0  0  0  0  0  0  0  0  0
   -0.1088   -1.3714   -1.3029 O   0  0  0  0  0  0  0  0  0  0  0  0
    0.1315   -0.3224   -2.1440 C   0  0  0  0  0  0  0  0  0  0  0  0
   -0.1701    0.8396   -1.9016 O   0  0  0  0  0  0  0  0  0  0  0  0
    0.7912   -0.8237   -3.4108 C   0  0  0  0  0  0  0  0  0  0  0  0
    2.1039    0.3032   -3.9865 S   0  0  0  0  0  0  0  0  0  0  0  0
    3.2415    0.1273   -2.6249 C   0  0  0  0  0  0  0  0  0  0  0  0
    4.1114   -0.9612   -2.5678 C   0  0  0  0  0  0  0  0  0  0  0  0
    4.9894   -1.1017   -1.4906 C   0  0  0  0  0  0  0  0  0  0  0  0
    5.0122   -0.1533   -0.4560 C   0  0  0  0  0  0  0  0  0  0  0  0
    5.8862   -0.2809    0.6356 C   0  0  0  0  0  0  0  0  0  0  0  0
    5.8968    0.6712    1.6558 C   0  0  0  0  0  0  0  0  0  0  0  0
    5.0339    1.7616    1.5990 C   0  0  0  0  0  0  0  0  0  0  0  0
    4.1592    1.9036    0.5208 C   0  0  0  0  0  0  0  0  0  0  0  0
    4.1368    0.9551   -0.5144 C   0  0  0  0  0  0  0  0  0  0  0  0
    3.2625    1.0847   -1.6058 C   0  0  0  0  0  0  0  0  0  0  0  0
   -2.9972   -0.0550    0.5237 N   0  0  0  0  0  0  0  0  0  0  0  0
   -4.4266    0.1972    0.4343 C   0  0  0  0  0  0  0  0  0  0  0  0
   -5.2397   -0.9574    1.0143 C   0  0  0  0  0  0  0  0  0  0  0  0
   -5.2066   -0.7243    2.5215 C   0  0  0  0  0  0  0  0  0  0  0  0
   -5.0263    0.7815    2.7106 C   0  0  0  0  0  0  0  0  0  0  0  0
   -4.8457    1.3716    1.3130 C   0  0  0  0  0  0  0  0  0  0  0  0
   -0.7812   -1.8563    0.5616 H   0  0  0  0  0  0  0  0  0  0  0  0
   -0.4107   -0.1404    0.3538 H   0  0  0  0  0  0  0  0  0  0  0  0
    0.0220   -0.9095   -4.1838 H   0  0  0  0  0  0  0  0  0  0  0  0
    1.2233   -1.8164   -3.2490 H   0  0  0  0  0  0  0  0  0  0  0  0
    4.1176   -1.7074   -3.3591 H   0  0  0  0  0  0  0  0  0  0  0  0
    5.6592   -1.9593   -1.4662 H   0  0  0  0  0  0  0  0  0  0  0  0
    6.5699   -1.1251    0.6970 H   0  0  0  0  0  0  0  0  0  0  0  0
    6.5805    0.5613    2.4936 H   0  0  0  0  0  0  0  0  0  0  0  0
    5.0423    2.5050    2.3922 H   0  0  0  0  0  0  0  0  0  0  0  0
    3.4944    2.7641    0.4915 H   0  0  0  0  0  0  0  0  0  0  0  0
    2.5844    1.9350   -1.6575 H   0  0  0  0  0  0  0  0  0  0  0  0
   -2.5110    0.1962    1.3751 H   0  0  0  0  0  0  0  0  0  0  0  0
   -4.6819    0.3728   -0.6162 H   0  0  0  0  0  0  0  0  0  0  0  0
   -6.2764   -0.8943    0.6608 H   0  0  0  0  0  0  0  0  0  0  0  0
   -4.8513   -1.9450    0.7460 H   0  0  0  0  0  0  0  0  0  0  0  0
   -6.1165   -1.0906    3.0058 H   0  0  0  0  0  0  0  0  0  0  0  0
   -4.3595   -1.2568    2.9695 H   0  0  0  0  0  0  0  0  0  0  0  0
   -4.1458    0.9777    3.3322 H   0  0  0  0  0  0  0  0  0  0  0  0
   -5.8886    1.2303    3.2148 H   0  0  0  0  0  0  0  0  0  0  0  0
   -5.8092    1.7644    0.9644 H   0  0  0  0  0  0  0  0  0  0  0  0
   -4.1277    2.1973    1.3054 H   0  0  0  0  0  0  0  0  0  0  0  0
  1  2  2  0
  2  3  1  0
  3  4  1  0
  4  5  1  0
  5  6  2  0
  5  7  1  0
  7  8  1  0
  8  9  1  0
  9 10  2  0
 10 11  1  0
 11 12  2  0
 12 13  1  0
 13 14  2  0
 14 15  1  0
 15 16  2  0
 16 17  1  0
 17 18  2  0
  2 19  1  0
 19 20  1  0
 20 21  1  0
 21 22  1  0
 22 23  1  0
 23 24  1  0
 18  9  1  0
 24 20  1  0
 17 12  1  0
  3 25  1  0
  3 26  1  0
  7 27  1  0
  7 28  1  0
 10 29  1  0
 11 30  1  0
 13 31  1  0
 14 32  1  0
 15 33  1  0
 16 34  1  0
 18 35  1  0
 19 36  1  0
 20 37  1  0
 21 38  1  0
 21 39  1  0
 22 40  1  0
 22 41  1  0
 23 42  1  0
 23 43  1  0
 24 44  1  0
 24 45  1  0
M  END
$$$$
