
     RDKit          3D

 29 31  0  0  0  0  0  0  0  0999 V2000
   -0.2148   -1.0624   -1.9847 O   0  0  0  0  0  0  0  0  0  0  0  0
    0.1414   -0.3904   -1.0233 C   0  0  0  0  0  0  0  0  0  0  0  0
   -0.6914    0.1492   -0.0537 N   0  0  0  0  0  0  0  0  0  0  0  0
   -2.0421   -0.0397   -0.1434 N   0  0  0  0  0  0  0  0  0  0  0  0
   -2.7499    0.4246    0.8369 C   0  0  0  0  0  0  0  0  0  0  0  0
   -4.1891    0.3078    0.8945 C   0  0  0  0  0  0  0  0  0  0  0  0
   -5.0244    0.7677    1.8953 C   0  0  0  0  0  0  0  0  0  0  0  0
   -6.3966    0.4827    1.6317 C   0  0  0  0  0  0  0  0  0  0  0  0
   -6.5625   -0.1847    0.4394 C   0  0  0  0  0  0  0  0  0  0  0  0
   -5.0727   -0.4626   -0.3517 S   0  0  0  0  0  0  0  0  0  0  0  0
    1.5931   -0.1376   -0.8177 C   0  0  0  0  0  0  0  0  0  0  0  0
    2.0611    1.0878   -0.2901 C   0  0  0  0  0  0  0  0  0  0  0  0
    3.4314    1.3023   -0.1062 C   0  0  0  0  0  0  0  0  0  0  0  0
    4.2933    0.2874   -0.4642 C   0  0  0  0  0  0  0  0  0  0  0  0
    3.8402   -0.8990   -0.9928 C   0  0  0  0  0  0  0  0  0  0  0  0
    2.4981   -1.1425   -1.1885 C   0  0  0  0  0  0  0  0  0  0  0  0
    4.8544   -1.7571   -1.2822 O   0  0  0  0  0  0  0  0  0  0  0  0
    5.9987   -0.9710   -0.8906 C   0  0  0  0  0  0  0  0  0  0  0  0
    5.6482    0.3238   -0.3572 O   0  0  0  0  0  0  0  0  0  0  0  0
   -0.3037    0.5749    0.7792 H   0  0  0  0  0  0  0  0  0  0  0  0
   -2.2706    0.9411    1.6883 H   0  0  0  0  0  0  0  0  0  0  0  0
   -4.6741    1.2858    2.7798 H   0  0  0  0  0  0  0  0  0  0  0  0
   -7.2197    0.7525    2.2823 H   0  0  0  0  0  0  0  0  0  0  0  0
   -7.4857   -0.5248   -0.0096 H   0  0  0  0  0  0  0  0  0  0  0  0
    1.3701    1.8928   -0.0533 H   0  0  0  0  0  0  0  0  0  0  0  0
    3.8090    2.2385    0.2902 H   0  0  0  0  0  0  0  0  0  0  0  0
    2.1564   -2.0807   -1.6146 H   0  0  0  0  0  0  0  0  0  0  0  0
    6.6427   -0.8273   -1.7659 H   0  0  0  0  0  0  0  0  0  0  0  0
    6.5592   -1.5236   -0.1279 H   0  0  0  0  0  0  0  0  0  0  0  0
  1  2  2  0
  2  3  1  0
  3  4  1  0
  4  5  2  3
  5  6  1  0
  6  7  2  0
  7  8  1  0
  8  9  2  0
  9 10  1  0
  2 11  1  0
 11 12  2  0
 12 13  1  0
 13 14  2  0
 14 15  1  0
 15 16  2  0
 15 17  1  0
 17 18  1  0
 18 19  1  0
 10  6  1  0
 16 11  1  0
 19 14  1  0
  3 20  1  0
  5 21  1  0
  7 22  1  0
  8 23  1  0
  9 24  1  0
 12 25  1  0
 13 26  1  0
 16 27  1  0
 18 28  1  0
 18 29  1  0
M  END
$$$$
