
     RDKit          3D

 31 34  0  0  0  0  0  0  0  0999 V2000
    3.7801   -1.8659    0.1259 O   0  0  0  0  0  0  0  0  0  0  0  0
    2.5923   -2.1003   -0.0195 C   0  0  0  0  0  0  0  0  0  0  0  0
    2.1150   -3.3514    0.1425 O   0  0  0  0  0  0  0  0  0  0  0  0
    1.4856   -1.1000   -0.3176 C   0  0  0  0  0  0  0  0  0  0  0  0
    2.0430   -0.0459   -1.7197 S   0  0  0  0  0  0  0  0  0  0  0  0
    1.4283    1.4808   -1.2936 C   0  0  0  0  0  0  0  0  0  0  0  0
    1.7824    2.5631   -2.0398 N   0  0  0  0  0  0  0  0  0  0  0  0
    1.2996    3.7761   -1.6241 C   0  0  0  0  0  0  0  0  0  0  0  0
    1.4923    4.8638   -2.1353 O   0  0  0  0  0  0  0  0  0  0  0  0
    0.3248    3.4918   -0.1749 S   0  0  0  0  0  0  0  0  0  0  0  0
    0.6241    1.7663   -0.2635 C   0  0  0  0  0  0  0  0  0  0  0  0
    0.1186    0.8037    0.7702 C   0  0  0  0  0  0  0  0  0  0  0  0
   -1.2442    0.2068    0.4836 C   0  0  0  0  0  0  0  0  0  0  0  0
   -2.2229    0.8115   -0.3191 C   0  0  0  0  0  0  0  0  0  0  0  0
   -3.4663    0.1968   -0.5056 C   0  0  0  0  0  0  0  0  0  0  0  0
   -4.7622    1.0265   -1.6049 Br  0  0  0  0  0  0  0  0  0  0  0  0
   -3.7634   -1.0161    0.1119 C   0  0  0  0  0  0  0  0  0  0  0  0
   -2.8108   -1.6186    0.9281 C   0  0  0  0  0  0  0  0  0  0  0  0
   -1.5720   -1.0023    1.1016 C   0  0  0  0  0  0  0  0  0  0  0  0
   -0.6686   -1.6503    1.9612 O   0  0  0  0  0  0  0  0  0  0  0  0
    0.6633   -1.2821    2.0224 C   0  0  0  0  0  0  0  0  0  0  0  0
    1.4220   -1.7673    2.8553 O   0  0  0  0  0  0  0  0  0  0  0  0
    1.1447   -0.3233    0.9618 C   0  0  0  0  0  0  0  0  0  0  0  0
    2.9016   -3.8808    0.4001 H   0  0  0  0  0  0  0  0  0  0  0  0
    0.6187   -1.6579   -0.6903 H   0  0  0  0  0  0  0  0  0  0  0  0
    2.3885    2.4948   -2.8442 H   0  0  0  0  0  0  0  0  0  0  0  0
    0.0262    1.3348    1.7293 H   0  0  0  0  0  0  0  0  0  0  0  0
   -2.0400    1.7652   -0.8072 H   0  0  0  0  0  0  0  0  0  0  0  0
   -4.7312   -1.4906   -0.0288 H   0  0  0  0  0  0  0  0  0  0  0  0
   -3.0340   -2.5576    1.4282 H   0  0  0  0  0  0  0  0  0  0  0  0
    2.0646    0.1285    1.3660 H   0  0  0  0  0  0  0  0  0  0  0  0
  1  2  2  0
  2  3  1  0
  2  4  1  0
  4  5  1  0
  5  6  1  0
  6  7  1  0
  7  8  1  0
  8  9  2  0
  8 10  1  0
 10 11  1  0
 11 12  1  0
 12 13  1  0
 13 14  2  0
 14 15  1  0
 15 16  1  0
 15 17  2  0
 17 18  1  0
 18 19  2  0
 19 20  1  0
 20 21  1  0
 21 22  2  0
 21 23  1  0
 23  4  1  0
 11  6  2  0
 23 12  1  0
 19 13  1  0
  3 24  1  0
  4 25  1  0
  7 26  1  0
 12 27  1  0
 14 28  1  0
 17 29  1  0
 18 30  1  0
 23 31  1  0
M  END
$$$$
