
     RDKit          3D

 44 46  0  0  0  0  0  0  0  0999 V2000
    5.1309   -3.3644   -0.8213 C   0  0  0  0  0  0  0  0  0  0  0  0
    4.3855   -2.0813   -0.5972 C   0  0  0  0  0  0  0  0  0  0  0  0
    4.1166   -1.2214   -1.6689 C   0  0  0  0  0  0  0  0  0  0  0  0
    3.4496   -0.0108   -1.4584 C   0  0  0  0  0  0  0  0  0  0  0  0
    3.0520    0.3576   -0.1671 C   0  0  0  0  0  0  0  0  0  0  0  0
    2.3350    1.6294    0.1151 C   0  0  0  0  0  0  0  0  0  0  0  0
    2.0655    2.0200    1.2389 O   0  0  0  0  0  0  0  0  0  0  0  0
    1.9932    2.2537   -1.0407 O   0  0  0  0  0  0  0  0  0  0  0  0
    1.3047    3.4951   -0.8626 C   0  0  0  0  0  0  0  0  0  0  0  0
   -0.1657    3.3532   -0.4606 C   0  0  0  0  0  0  0  0  0  0  0  0
   -0.7934    4.2619    0.0753 O   0  0  0  0  0  0  0  0  0  0  0  0
   -0.7355    2.1445   -0.7984 N   0  0  0  0  0  0  0  0  0  0  0  0
   -2.1037    1.8104   -0.4510 C   0  0  0  0  0  0  0  0  0  0  0  0
   -2.3389    1.5644    1.0528 C   0  0  0  0  0  0  0  0  0  0  0  0
   -1.4486    0.4756    1.6498 C   0  0  0  0  0  0  0  0  0  0  0  0
   -1.6831   -0.7926    1.0265 O   0  0  0  0  0  0  0  0  0  0  0  0
   -3.0261   -1.0674    0.9837 C   0  0  0  0  0  0  0  0  0  0  0  0
   -3.3899   -2.3962    0.7753 C   0  0  0  0  0  0  0  0  0  0  0  0
   -4.7400   -2.7475    0.7311 C   0  0  0  0  0  0  0  0  0  0  0  0
   -5.7227   -1.7688    0.8899 C   0  0  0  0  0  0  0  0  0  0  0  0
   -5.3572   -0.4353    1.0825 C   0  0  0  0  0  0  0  0  0  0  0  0
   -4.0096   -0.0823    1.1167 C   0  0  0  0  0  0  0  0  0  0  0  0
   -3.7285    1.2506    1.2742 O   0  0  0  0  0  0  0  0  0  0  0  0
    3.3362   -0.4928    0.9085 C   0  0  0  0  0  0  0  0  0  0  0  0
    4.0024   -1.7021    0.6945 C   0  0  0  0  0  0  0  0  0  0  0  0
    4.9177   -3.7713   -1.8154 H   0  0  0  0  0  0  0  0  0  0  0  0
    4.8321   -4.1224   -0.0896 H   0  0  0  0  0  0  0  0  0  0  0  0
    6.2079   -3.1916   -0.7328 H   0  0  0  0  0  0  0  0  0  0  0  0
    4.4264   -1.4897   -2.6772 H   0  0  0  0  0  0  0  0  0  0  0  0
    3.2561    0.6341   -2.3117 H   0  0  0  0  0  0  0  0  0  0  0  0
    1.8252    4.1178   -0.1255 H   0  0  0  0  0  0  0  0  0  0  0  0
    1.3320    4.0222   -1.8220 H   0  0  0  0  0  0  0  0  0  0  0  0
   -0.1414    1.4225   -1.1895 H   0  0  0  0  0  0  0  0  0  0  0  0
   -2.7520    2.6304   -0.7836 H   0  0  0  0  0  0  0  0  0  0  0  0
   -2.3835    0.9376   -1.0506 H   0  0  0  0  0  0  0  0  0  0  0  0
   -2.1450    2.4947    1.5992 H   0  0  0  0  0  0  0  0  0  0  0  0
   -1.6311    0.3683    2.7273 H   0  0  0  0  0  0  0  0  0  0  0  0
   -0.3893    0.7164    1.5229 H   0  0  0  0  0  0  0  0  0  0  0  0
   -2.6239   -3.1576    0.6593 H   0  0  0  0  0  0  0  0  0  0  0  0
   -5.0258   -3.7850    0.5771 H   0  0  0  0  0  0  0  0  0  0  0  0
   -6.7740   -2.0434    0.8594 H   0  0  0  0  0  0  0  0  0  0  0  0
   -6.1215    0.3286    1.1961 H   0  0  0  0  0  0  0  0  0  0  0  0
    3.0419   -0.2185    1.9200 H   0  0  0  0  0  0  0  0  0  0  0  0
    4.2192   -2.3466    1.5442 H   0  0  0  0  0  0  0  0  0  0  0  0
  1  2  1  0
  2  3  2  0
  3  4  1  0
  4  5  2  0
  5  6  1  0
  6  7  2  0
  6  8  1  0
  8  9  1  0
  9 10  1  0
 10 11  2  0
 10 12  1  0
 12 13  1  0
 13 14  1  0
 14 15  1  0
 15 16  1  0
 16 17  1  0
 17 18  2  0
 18 19  1  0
 19 20  2  0
 20 21  1  0
 21 22  2  0
 22 23  1  0
  5 24  1  0
 24 25  2  0
 25  2  1  0
 23 14  1  0
 22 17  1  0
  1 26  1  0
  1 27  1  0
  1 28  1  0
  3 29  1  0
  4 30  1  0
  9 31  1  0
  9 32  1  0
 12 33  1  0
 13 34  1  0
 13 35  1  0
 14 36  1  0
 15 37  1  0
 15 38  1  0
 18 39  1  0
 19 40  1  0
 20 41  1  0
 21 42  1  0
 24 43  1  0
 25 44  1  0
M  END
$$$$
