
     RDKit          3D

 53 55  0  0  0  0  0  0  0  0999 V2000
   -1.8965    1.0417    1.6262 O   0  0  0  0  0  0  0  0  0  0  0  0
   -1.4867    0.6429    0.5430 C   0  0  0  0  0  0  0  0  0  0  0  0
   -2.2476   -0.1204   -0.3211 N   0  0  0  0  0  0  0  0  0  0  0  0
   -3.5678   -0.6370    0.0832 C   0  0  0  0  0  0  0  0  0  0  0  0
   -4.5303    0.4635    0.5670 C   0  0  0  0  0  0  0  0  0  0  0  0
   -5.9590    0.2251    0.1229 C   0  0  0  0  0  0  0  0  0  0  0  0
   -6.9058   -0.3066    1.0072 C   0  0  0  0  0  0  0  0  0  0  0  0
   -8.2169   -0.5358    0.5869 C   0  0  0  0  0  0  0  0  0  0  0  0
   -8.5946   -0.2347   -0.7202 C   0  0  0  0  0  0  0  0  0  0  0  0
   -7.6621    0.2975   -1.6083 C   0  0  0  0  0  0  0  0  0  0  0  0
   -6.3505    0.5268   -1.1899 C   0  0  0  0  0  0  0  0  0  0  0  0
   -3.3353   -1.7853    1.0737 C   0  0  0  0  0  0  0  0  0  0  0  0
   -2.3787   -2.5513    1.0483 O   0  0  0  0  0  0  0  0  0  0  0  0
   -4.3123   -1.9813    1.9761 O   0  0  0  0  0  0  0  0  0  0  0  0
   -0.0866    0.9274    0.1180 C   0  0  0  0  0  0  0  0  0  0  0  0
    0.8633    1.2169    1.1088 C   0  0  0  0  0  0  0  0  0  0  0  0
    2.1868    1.4895    0.7580 C   0  0  0  0  0  0  0  0  0  0  0  0
    2.5565    1.4750   -0.5898 C   0  0  0  0  0  0  0  0  0  0  0  0
    4.2462    1.8155   -1.0212 S   0  0  0  0  0  6  0  0  0  0  0  0
    4.4123    1.5801   -2.4406 O   0  0  0  0  0  0  0  0  0  0  0  0
    4.5850    3.0885   -0.4235 O   0  0  0  0  0  0  0  0  0  0  0  0
    5.1030    0.5793   -0.1973 N   0  0  0  0  0  0  0  0  0  0  0  0
    4.8349   -0.8002   -0.6956 C   0  0  0  0  0  0  0  0  0  0  0  0
    5.4425   -1.8143    0.2701 C   0  0  0  0  0  0  0  0  0  0  0  0
    6.9397   -1.5801    0.4457 C   0  0  0  0  0  0  0  0  0  0  0  0
    7.2152   -0.1356    0.8514 C   0  0  0  0  0  0  0  0  0  0  0  0
    6.5678    0.8488   -0.1195 C   0  0  0  0  0  0  0  0  0  0  0  0
    1.6163    1.2081   -1.5890 C   0  0  0  0  0  0  0  0  0  0  0  0
    0.2918    0.9375   -1.2333 C   0  0  0  0  0  0  0  0  0  0  0  0
   -1.7338   -0.7158   -0.9582 H   0  0  0  0  0  0  0  0  0  0  0  0
   -3.9679   -1.1082   -0.8237 H   0  0  0  0  0  0  0  0  0  0  0  0
   -4.4972    0.5753    1.6579 H   0  0  0  0  0  0  0  0  0  0  0  0
   -4.2303    1.4395    0.1616 H   0  0  0  0  0  0  0  0  0  0  0  0
   -6.6279   -0.5453    2.0318 H   0  0  0  0  0  0  0  0  0  0  0  0
   -8.9441   -0.9473    1.2819 H   0  0  0  0  0  0  0  0  0  0  0  0
   -9.6166   -0.4108   -1.0448 H   0  0  0  0  0  0  0  0  0  0  0  0
   -7.9576    0.5383   -2.6260 H   0  0  0  0  0  0  0  0  0  0  0  0
   -5.6360    0.9495   -1.8929 H   0  0  0  0  0  0  0  0  0  0  0  0
   -3.9929   -2.7384    2.5101 H   0  0  0  0  0  0  0  0  0  0  0  0
    0.5719    1.2302    2.1580 H   0  0  0  0  0  0  0  0  0  0  0  0
    2.9202    1.7139    1.5300 H   0  0  0  0  0  0  0  0  0  0  0  0
    5.2601   -0.9300   -1.6977 H   0  0  0  0  0  0  0  0  0  0  0  0
    3.7581   -0.9844   -0.7528 H   0  0  0  0  0  0  0  0  0  0  0  0
    5.2678   -2.8305   -0.1002 H   0  0  0  0  0  0  0  0  0  0  0  0
    4.9464   -1.7349    1.2456 H   0  0  0  0  0  0  0  0  0  0  0  0
    7.4590   -1.8027   -0.4944 H   0  0  0  0  0  0  0  0  0  0  0  0
    7.3382   -2.2634    1.2037 H   0  0  0  0  0  0  0  0  0  0  0  0
    6.8232    0.0361    1.8619 H   0  0  0  0  0  0  0  0  0  0  0  0
    8.2962    0.0384    0.8906 H   0  0  0  0  0  0  0  0  0  0  0  0
    7.0200    0.7607   -1.1143 H   0  0  0  0  0  0  0  0  0  0  0  0
    6.7465    1.8627    0.2530 H   0  0  0  0  0  0  0  0  0  0  0  0
    1.9021    1.2208   -2.6390 H   0  0  0  0  0  0  0  0  0  0  0  0
   -0.4361    0.7648   -2.0215 H   0  0  0  0  0  0  0  0  0  0  0  0
  1  2  2  0
  2  3  1  0
  3  4  1  0
  4  5  1  0
  5  6  1  0
  6  7  2  0
  7  8  1  0
  8  9  2  0
  9 10  1  0
 10 11  2  0
  4 12  1  0
 12 13  2  0
 12 14  1  0
  2 15  1  0
 15 16  2  0
 16 17  1  0
 17 18  2  0
 18 19  1  0
 19 20  2  0
 19 21  2  0
 19 22  1  0
 22 23  1  0
 23 24  1  0
 24 25  1  0
 25 26  1  0
 26 27  1  0
 18 28  1  0
 28 29  2  0
 11  6  1  0
 29 15  1  0
 27 22  1  0
  3 30  1  0
  4 31  1  0
  5 32  1  0
  5 33  1  0
  7 34  1  0
  8 35  1  0
  9 36  1  0
 10 37  1  0
 11 38  1  0
 14 39  1  0
 16 40  1  0
 17 41  1  0
 23 42  1  0
 23 43  1  0
 24 44  1  0
 24 45  1  0
 25 46  1  0
 25 47  1  0
 26 48  1  0
 26 49  1  0
 27 50  1  0
 27 51  1  0
 28 52  1  0
 29 53  1  0
M  END
$$$$
