
     RDKit          3D

 66 68  0  0  0  0  0  0  0  0999 V2000
   -2.2294   -3.1433    3.1491 C   0  0  0  0  0  0  0  0  0  0  0  0
   -1.8066   -3.5077    1.7322 C   0  0  0  0  0  0  0  0  0  0  0  0
   -2.6690   -2.8073    0.7621 N   0  0  0  0  0  0  0  0  0  0  0  0
   -3.4774   -3.7498   -0.0326 C   0  0  0  0  0  0  0  0  0  0  0  0
   -4.5382   -4.4635    0.8006 C   0  0  0  0  0  0  0  0  0  0  0  0
   -1.8799   -1.9406   -0.1386 C   0  0  0  0  0  0  0  0  0  0  0  0
   -1.3390   -0.6957    0.5906 C   0  0  0  0  0  0  0  0  0  0  0  0
   -0.6059    0.2711   -0.3756 C   0  0  0  0  0  0  0  0  0  0  0  0
    0.7028   -0.3074   -0.9045 C   0  0  0  0  0  0  0  0  0  0  0  0
    1.7394   -0.6981   -0.0552 C   0  0  0  0  0  0  0  0  0  0  0  0
    2.9324   -1.2290   -0.5705 C   0  0  0  0  0  0  0  0  0  0  0  0
    3.1575   -1.3821   -1.9493 C   0  0  0  0  0  0  0  0  0  0  0  0
    4.3454   -1.9300   -2.4529 N   0  0  0  0  0  0  0  0  0  0  0  0
    5.5309   -1.9273   -1.5974 C   0  0  0  0  0  0  0  0  0  0  0  0
    4.6058   -1.8548   -3.8889 C   0  0  0  0  0  0  0  0  0  0  0  0
    2.0973   -0.9903   -2.7836 C   0  0  0  0  0  0  0  0  0  0  0  0
    0.9004   -0.4580   -2.2798 C   0  0  0  0  0  0  0  0  0  0  0  0
   -0.4271    1.7080    0.1293 C   0  0  0  0  0  0  0  0  0  0  0  0
   -0.1203    2.0471    1.4561 C   0  0  0  0  0  0  0  0  0  0  0  0
    0.0742    1.0524    2.3799 O   0  0  0  0  0  0  0  0  0  0  0  0
   -0.7734    1.1838    3.5223 C   0  0  0  0  0  0  0  0  0  0  0  0
    0.0854    3.3849    1.8376 C   0  0  0  0  0  0  0  0  0  0  0  0
   -0.0433    4.4268    0.9150 C   0  0  0  0  0  0  0  0  0  0  0  0
    0.1309    5.7547    1.2143 O   0  0  0  0  0  0  0  0  0  0  0  0
    0.4380    6.0949    2.5608 C   0  0  0  0  0  0  0  0  0  0  0  0
   -0.3582    4.1211   -0.4170 C   0  0  0  0  0  0  0  0  0  0  0  0
   -0.4954    5.1497   -1.4474 C   0  0  0  0  0  0  0  0  0  0  0  0
   -0.7707    4.8176   -2.7111 C   0  0  0  0  0  0  0  0  0  0  0  0
   -0.9529    3.4220   -3.1285 C   0  0  0  0  0  0  0  0  0  0  0  0
   -1.2005    3.1364   -4.2939 O   0  0  0  0  0  0  0  0  0  0  0  0
   -0.8381    2.4633   -2.1349 O   0  0  0  0  0  0  0  0  0  0  0  0
   -0.5361    2.7798   -0.7832 C   0  0  0  0  0  0  0  0  0  0  0  0
   -2.1332   -2.0675    3.3281 H   0  0  0  0  0  0  0  0  0  0  0  0
   -1.5947   -3.6619    3.8749 H   0  0  0  0  0  0  0  0  0  0  0  0
   -3.2670   -3.4312    3.3456 H   0  0  0  0  0  0  0  0  0  0  0  0
   -1.8479   -4.5973    1.6124 H   0  0  0  0  0  0  0  0  0  0  0  0
   -0.7472   -3.2516    1.6066 H   0  0  0  0  0  0  0  0  0  0  0  0
   -2.8411   -4.4843   -0.5426 H   0  0  0  0  0  0  0  0  0  0  0  0
   -4.0161   -3.1986   -0.8139 H   0  0  0  0  0  0  0  0  0  0  0  0
   -5.1744   -5.0728    0.1499 H   0  0  0  0  0  0  0  0  0  0  0  0
   -4.0969   -5.1305    1.5472 H   0  0  0  0  0  0  0  0  0  0  0  0
   -5.1813   -3.7432    1.3177 H   0  0  0  0  0  0  0  0  0  0  0  0
   -1.0691   -2.5113   -0.6085 H   0  0  0  0  0  0  0  0  0  0  0  0
   -2.5270   -1.5818   -0.9496 H   0  0  0  0  0  0  0  0  0  0  0  0
   -2.1874   -0.1697    1.0487 H   0  0  0  0  0  0  0  0  0  0  0  0
   -0.6799   -1.0110    1.4043 H   0  0  0  0  0  0  0  0  0  0  0  0
   -1.2960    0.3418   -1.2282 H   0  0  0  0  0  0  0  0  0  0  0  0
    1.6393   -0.5970    1.0226 H   0  0  0  0  0  0  0  0  0  0  0  0
    3.6842   -1.5254    0.1541 H   0  0  0  0  0  0  0  0  0  0  0  0
    5.3872   -2.5650   -0.7190 H   0  0  0  0  0  0  0  0  0  0  0  0
    5.7855   -0.9109   -1.2781 H   0  0  0  0  0  0  0  0  0  0  0  0
    6.4019   -2.3344   -2.1230 H   0  0  0  0  0  0  0  0  0  0  0  0
    3.8343   -2.3810   -4.4615 H   0  0  0  0  0  0  0  0  0  0  0  0
    5.5523   -2.3445   -4.1441 H   0  0  0  0  0  0  0  0  0  0  0  0
    4.6696   -0.8138   -4.2243 H   0  0  0  0  0  0  0  0  0  0  0  0
    2.1694   -1.0826   -3.8628 H   0  0  0  0  0  0  0  0  0  0  0  0
    0.1254   -0.1633   -2.9851 H   0  0  0  0  0  0  0  0  0  0  0  0
   -0.8210    0.2081    4.0151 H   0  0  0  0  0  0  0  0  0  0  0  0
   -0.3522    1.8985    4.2360 H   0  0  0  0  0  0  0  0  0  0  0  0
   -1.7935    1.4716    3.2435 H   0  0  0  0  0  0  0  0  0  0  0  0
    0.3754    3.5855    2.8629 H   0  0  0  0  0  0  0  0  0  0  0  0
   -0.3617    5.7822    3.2404 H   0  0  0  0  0  0  0  0  0  0  0  0
    1.4033    5.6755    2.8628 H   0  0  0  0  0  0  0  0  0  0  0  0
    0.5159    7.1849    2.6196 H   0  0  0  0  0  0  0  0  0  0  0  0
   -0.3635    6.1896   -1.1671 H   0  0  0  0  0  0  0  0  0  0  0  0
   -0.8716    5.5638   -3.4894 H   0  0  0  0  0  0  0  0  0  0  0  0
  1  2  1  0
  2  3  1  0
  3  4  1  0
  4  5  1  0
  3  6  1  0
  6  7  1  0
  7  8  1  0
  8  9  1  0
  9 10  2  0
 10 11  1  0
 11 12  2  0
 12 13  1  0
 13 14  1  0
 13 15  1  0
 12 16  1  0
 16 17  2  0
  8 18  1  0
 18 19  2  0
 19 20  1  0
 20 21  1  0
 19 22  1  0
 22 23  2  0
 23 24  1  0
 24 25  1  0
 23 26  1  0
 26 27  1  0
 27 28  2  0
 28 29  1  0
 29 30  2  0
 29 31  1  0
 31 32  1  0
 17  9  1  0
 32 18  1  0
 32 26  2  0
  1 33  1  0
  1 34  1  0
  1 35  1  0
  2 36  1  0
  2 37  1  0
  4 38  1  0
  4 39  1  0
  5 40  1  0
  5 41  1  0
  5 42  1  0
  6 43  1  0
  6 44  1  0
  7 45  1  0
  7 46  1  0
  8 47  1  0
 10 48  1  0
 11 49  1  0
 14 50  1  0
 14 51  1  0
 14 52  1  0
 15 53  1  0
 15 54  1  0
 15 55  1  0
 16 56  1  0
 17 57  1  0
 21 58  1  0
 21 59  1  0
 21 60  1  0
 22 61  1  0
 25 62  1  0
 25 63  1  0
 25 64  1  0
 27 65  1  0
 28 66  1  0
M  END
$$$$
