
     RDKit          3D

 51 53  0  0  0  0  0  0  0  0999 V2000
    2.3496   -1.1354    2.1943 O   0  0  0  0  0  0  0  0  0  0  0  0
    2.1121   -1.2342    0.9948 C   0  0  0  0  0  0  0  0  0  0  0  0
    3.0105   -1.7510    0.0911 N   0  0  0  0  0  0  0  0  0  0  0  0
    4.3561   -2.1566    0.4619 C   0  0  0  0  0  0  0  0  0  0  0  0
    5.4104   -1.1148    0.0785 C   0  0  0  0  0  0  0  0  0  0  0  0
    5.3191    0.2157    0.8079 C   0  0  0  0  0  0  0  0  0  0  0  0
    6.0364    1.1298   -0.1546 C   0  0  0  0  0  0  0  0  0  0  0  0
    5.5730    0.5997   -1.4953 C   0  0  0  0  0  0  0  0  0  0  0  0
    5.3241   -0.8053   -1.3307 O   0  0  0  0  0  0  0  0  0  0  0  0
    0.8118   -0.7618    0.3634 C   0  0  0  0  0  0  0  0  0  0  0  0
    1.0533    0.5184   -0.4472 C   0  0  0  0  0  0  0  0  0  0  0  0
   -0.2527    1.0832   -0.9996 C   0  0  0  0  0  0  0  0  0  0  0  0
   -1.3150    1.2451    0.0830 C   0  0  0  0  0  0  0  0  0  0  0  0
   -1.5090   -0.0019    0.8634 N   0  0  0  0  0  0  0  0  0  0  0  0
   -2.5619   -1.1870    0.2427 S   0  0  0  0  0  6  0  0  0  0  0  0
   -2.1830   -1.4444   -1.1303 O   0  0  0  0  0  0  0  0  0  0  0  0
   -2.6632   -2.2639    1.2031 O   0  0  0  0  0  0  0  0  0  0  0  0
   -4.1301   -0.3500    0.2399 C   0  0  0  0  0  0  0  0  0  0  0  0
   -4.6979    0.0204    1.4618 C   0  0  0  0  0  0  0  0  0  0  0  0
   -5.9258    0.6785    1.4757 C   0  0  0  0  0  0  0  0  0  0  0  0
   -6.5834    0.9581    0.2746 C   0  0  0  0  0  0  0  0  0  0  0  0
   -6.0265    0.5742   -0.9574 C   0  0  0  0  0  0  0  0  0  0  0  0
   -6.7288    0.8912   -2.2561 C   0  0  0  0  0  0  0  0  0  0  0  0
   -6.6372   -0.1160   -3.1673 F   0  0  0  0  0  0  0  0  0  0  0  0
   -8.0596    1.1380   -2.1051 F   0  0  0  0  0  0  0  0  0  0  0  0
   -6.2097    1.9942   -2.8626 F   0  0  0  0  0  0  0  0  0  0  0  0
   -4.7853   -0.0827   -0.9667 C   0  0  0  0  0  0  0  0  0  0  0  0
   -0.2336   -0.5078    1.4491 C   0  0  0  0  0  0  0  0  0  0  0  0
    2.8141   -1.7036   -0.9018 H   0  0  0  0  0  0  0  0  0  0  0  0
    4.5452   -3.0823   -0.0923 H   0  0  0  0  0  0  0  0  0  0  0  0
    4.4047   -2.3778    1.5329 H   0  0  0  0  0  0  0  0  0  0  0  0
    6.4049   -1.5491    0.2432 H   0  0  0  0  0  0  0  0  0  0  0  0
    4.2832    0.5534    0.9154 H   0  0  0  0  0  0  0  0  0  0  0  0
    5.7755    0.1869    1.8010 H   0  0  0  0  0  0  0  0  0  0  0  0
    5.8050    2.1885   -0.0117 H   0  0  0  0  0  0  0  0  0  0  0  0
    7.1204    0.9992   -0.0543 H   0  0  0  0  0  0  0  0  0  0  0  0
    6.3133    0.7524   -2.2856 H   0  0  0  0  0  0  0  0  0  0  0  0
    4.6321    1.0686   -1.8023 H   0  0  0  0  0  0  0  0  0  0  0  0
    0.4557   -1.5561   -0.3047 H   0  0  0  0  0  0  0  0  0  0  0  0
    1.7439    0.3278   -1.2770 H   0  0  0  0  0  0  0  0  0  0  0  0
    1.5371    1.2736    0.1864 H   0  0  0  0  0  0  0  0  0  0  0  0
   -0.0600    2.0551   -1.4684 H   0  0  0  0  0  0  0  0  0  0  0  0
   -0.6193    0.4255   -1.7948 H   0  0  0  0  0  0  0  0  0  0  0  0
   -1.0149    2.0357    0.7823 H   0  0  0  0  0  0  0  0  0  0  0  0
   -2.2570    1.5807   -0.3605 H   0  0  0  0  0  0  0  0  0  0  0  0
   -4.1877   -0.2029    2.3969 H   0  0  0  0  0  0  0  0  0  0  0  0
   -6.3739    0.9720    2.4227 H   0  0  0  0  0  0  0  0  0  0  0  0
   -7.5427    1.4748    0.3041 H   0  0  0  0  0  0  0  0  0  0  0  0
   -4.3382   -0.3852   -1.9134 H   0  0  0  0  0  0  0  0  0  0  0  0
   -0.4163   -1.4129    2.0392 H   0  0  0  0  0  0  0  0  0  0  0  0
    0.1213    0.2419    2.1692 H   0  0  0  0  0  0  0  0  0  0  0  0
  1  2  2  0
  2  3  1  0
  3  4  1  0
  4  5  1  0
  5  6  1  0
  6  7  1  0
  7  8  1  0
  8  9  1  0
  2 10  1  0
 10 11  1  0
 11 12  1  0
 12 13  1  0
 13 14  1  0
 14 15  1  0
 15 16  2  0
 15 17  2  0
 15 18  1  0
 18 19  2  0
 19 20  1  0
 20 21  2  0
 21 22  1  0
 22 23  1  0
 23 24  1  0
 23 25  1  0
 23 26  1  0
 22 27  2  0
 14 28  1  0
  9  5  1  0
 28 10  1  0
 27 18  1  0
  3 29  1  0
  4 30  1  0
  4 31  1  0
  5 32  1  0
  6 33  1  0
  6 34  1  0
  7 35  1  0
  7 36  1  0
  8 37  1  0
  8 38  1  0
 10 39  1  0
 11 40  1  0
 11 41  1  0
 12 42  1  0
 12 43  1  0
 13 44  1  0
 13 45  1  0
 19 46  1  0
 20 47  1  0
 21 48  1  0
 27 49  1  0
 28 50  1  0
 28 51  1  0
M  END
$$$$
