
     RDKit          3D

123129  0  0  0  0  0  0  0  0999 V2000
    4.8751    0.1850   -3.9722 C   0  0  0  0  0  0  0  0  0  0  0  0
    5.2040   -0.0732   -2.5054 C   0  0  0  0  0  0  0  0  0  0  0  0
    4.0899   -0.7794   -1.9411 O   0  0  0  0  0  0  0  0  0  0  0  0
    4.2263   -0.9908   -0.5377 C   0  0  0  0  0  0  0  0  0  0  0  0
    3.1510   -1.7816   -0.0163 O   0  0  0  0  0  0  0  0  0  0  0  0
    1.8168   -1.2820   -0.2243 C   0  0  0  0  0  0  0  0  0  0  0  0
    1.5772   -0.0524    0.6402 C   0  0  0  0  0  0  0  0  0  0  0  0
    0.1414    0.4643    0.6437 C   0  0  0  0  0  0  0  0  0  0  0  0
   -0.9505   -0.3926   -0.0737 C   0  0  0  0  0  0  0  0  0  0  0  0
   -0.8920   -0.0693   -1.5954 C   0  0  0  0  0  0  0  0  0  0  0  0
   -0.7063   -1.9306    0.1649 C   0  0  0  0  0  0  0  0  0  0  0  0
   -1.4976   -2.4099    1.4014 C   0  0  0  0  0  0  0  0  0  0  0  0
   -3.0214   -2.2842    1.2631 C   0  0  0  0  0  0  0  0  0  0  0  0
   -3.5076   -1.0221    0.5021 C   0  0  0  0  0  0  0  0  0  0  0  0
   -3.8380   -1.4568   -0.9642 C   0  0  0  0  0  0  0  0  0  0  0  0
   -2.3640    0.0576    0.5298 C   0  0  0  0  0  0  0  0  0  0  0  0
   -2.8752    1.4093    0.0699 C   0  0  0  0  0  0  0  0  0  0  0  0
   -4.1738    1.7310   -0.0362 C   0  0  0  0  0  0  0  0  0  0  0  0
   -5.2729    0.8220    0.3062 C   0  0  0  0  0  0  0  0  0  0  0  0
   -6.5421    0.9971   -0.1444 C   0  0  0  0  0  0  0  0  0  0  0  0
   -6.9622    2.0990   -1.1157 C   0  0  0  0  0  0  0  0  0  0  0  0
   -8.1900    2.9048   -0.6419 C   0  0  0  0  0  0  0  0  0  0  0  0
   -8.6051    3.8885   -1.7504 C   0  0  0  0  0  0  0  0  0  0  0  0
   -7.8424    3.7190    0.6193 C   0  0  0  0  0  0  0  0  0  0  0  0
   -9.3558    1.9316   -0.3771 C   0  0  0  0  0  0  0  0  0  0  0  0
   -8.9829    0.8131    0.5934 C   0  0  0  0  0  0  0  0  0  0  0  0
   -7.6931    0.0274    0.2171 C   0  0  0  0  0  0  0  0  0  0  0  0
   -7.9535   -0.8792   -1.0270 C   0  0  0  0  0  0  0  0  0  0  0  0
   -8.8702   -1.9426   -0.7694 O   0  0  0  0  0  0  0  0  0  0  0  0
   -7.3291   -0.8254    1.4719 C   0  0  0  0  0  0  0  0  0  0  0  0
   -8.2845   -1.8548    1.7467 O   0  0  0  0  0  0  0  0  0  0  0  0
   -5.9468   -1.4546    1.3419 C   0  0  0  0  0  0  0  0  0  0  0  0
   -4.8280   -0.3839    1.1766 C   0  0  0  0  0  0  0  0  0  0  0  0
   -4.5580    0.1689    2.6189 C   0  0  0  0  0  0  0  0  0  0  0  0
    0.8132   -2.4239    0.1418 C   0  0  0  0  0  0  0  0  0  0  0  0
    1.2513   -3.0782    1.4864 C   0  0  0  0  0  0  0  0  0  0  0  0
    0.9585   -3.5471   -0.9303 C   0  0  0  0  0  0  0  0  0  0  0  0
    0.5704   -3.0924   -2.2210 O   0  0  0  0  0  0  0  0  0  0  0  0
    5.4925   -1.8205   -0.2379 C   0  0  0  0  0  0  0  0  0  0  0  0
    5.6751   -2.0488    1.1683 O   0  0  0  0  0  0  0  0  0  0  0  0
    6.7295   -1.1519   -0.8366 C   0  0  0  0  0  0  0  0  0  0  0  0
    6.9527    0.1269   -0.2051 O   0  0  0  0  0  0  0  0  0  0  0  0
    8.0958    0.1382    0.6492 C   0  0  0  0  0  0  0  0  0  0  0  0
    7.8504    1.0300    1.7446 O   0  0  0  0  0  0  0  0  0  0  0  0
    8.4553    2.3235    1.6102 C   0  0  0  0  0  0  0  0  0  0  0  0
    7.9421    3.2505    2.7243 C   0  0  0  0  0  0  0  0  0  0  0  0
    8.2586    2.7916    4.0359 O   0  0  0  0  0  0  0  0  0  0  0  0
   10.0007    2.1971    1.5766 C   0  0  0  0  0  0  0  0  0  0  0  0
   10.5620    2.1299    2.8986 O   0  0  0  0  0  0  0  0  0  0  0  0
   10.4385    0.9381    0.8098 C   0  0  0  0  0  0  0  0  0  0  0  0
   11.6699    1.2051    0.1269 O   0  0  0  0  0  0  0  0  0  0  0  0
    9.3538    0.5183   -0.1755 C   0  0  0  0  0  0  0  0  0  0  0  0
    9.8393   -0.5562   -0.9963 O   0  0  0  0  0  0  0  0  0  0  0  0
    6.4908   -0.9122   -2.3349 C   0  0  0  0  0  0  0  0  0  0  0  0
    7.6608   -0.2972   -2.8942 O   0  0  0  0  0  0  0  0  0  0  0  0
    5.6386    0.8002   -4.4585 H   0  0  0  0  0  0  0  0  0  0  0  0
    4.7763   -0.7554   -4.5265 H   0  0  0  0  0  0  0  0  0  0  0  0
    3.9143    0.7060   -4.0588 H   0  0  0  0  0  0  0  0  0  0  0  0
    5.3027    0.9044   -2.0165 H   0  0  0  0  0  0  0  0  0  0  0  0
    4.2600   -0.0359   -0.0005 H   0  0  0  0  0  0  0  0  0  0  0  0
    1.7294   -1.0216   -1.2799 H   0  0  0  0  0  0  0  0  0  0  0  0
    1.8893   -0.2614    1.6726 H   0  0  0  0  0  0  0  0  0  0  0  0
    2.2402    0.7658    0.3263 H   0  0  0  0  0  0  0  0  0  0  0  0
    0.1500    1.4760    0.2094 H   0  0  0  0  0  0  0  0  0  0  0  0
   -0.1291    0.6238    1.6974 H   0  0  0  0  0  0  0  0  0  0  0  0
   -0.8808    1.0114   -1.7815 H   0  0  0  0  0  0  0  0  0  0  0  0
   -1.7454   -0.4758   -2.1404 H   0  0  0  0  0  0  0  0  0  0  0  0
   -0.0066   -0.4718   -2.0855 H   0  0  0  0  0  0  0  0  0  0  0  0
   -1.1881   -2.4477   -0.6718 H   0  0  0  0  0  0  0  0  0  0  0  0
   -1.3036   -3.4652    1.6112 H   0  0  0  0  0  0  0  0  0  0  0  0
   -1.1724   -1.8428    2.2830 H   0  0  0  0  0  0  0  0  0  0  0  0
   -3.3964   -3.1853    0.7589 H   0  0  0  0  0  0  0  0  0  0  0  0
   -3.4362   -2.3401    2.2729 H   0  0  0  0  0  0  0  0  0  0  0  0
   -4.7167   -2.0962   -1.0264 H   0  0  0  0  0  0  0  0  0  0  0  0
   -3.0425   -2.0506   -1.4141 H   0  0  0  0  0  0  0  0  0  0  0  0
   -4.0157   -0.6076   -1.6269 H   0  0  0  0  0  0  0  0  0  0  0  0
   -2.1541    0.2111    1.5970 H   0  0  0  0  0  0  0  0  0  0  0  0
   -2.1386    2.1792   -0.1507 H   0  0  0  0  0  0  0  0  0  0  0  0
   -4.4082    2.7380   -0.3630 H   0  0  0  0  0  0  0  0  0  0  0  0
   -6.1560    2.8015   -1.3444 H   0  0  0  0  0  0  0  0  0  0  0  0
   -7.1892    1.6255   -2.0816 H   0  0  0  0  0  0  0  0  0  0  0  0
   -7.7973    4.5950   -1.9779 H   0  0  0  0  0  0  0  0  0  0  0  0
   -9.4828    4.4726   -1.4528 H   0  0  0  0  0  0  0  0  0  0  0  0
   -8.8524    3.3610   -2.6784 H   0  0  0  0  0  0  0  0  0  0  0  0
   -8.7138    4.2811    0.9792 H   0  0  0  0  0  0  0  0  0  0  0  0
   -7.4929    3.0873    1.4451 H   0  0  0  0  0  0  0  0  0  0  0  0
   -7.0453    4.4423    0.4074 H   0  0  0  0  0  0  0  0  0  0  0  0
   -9.6927    1.4860   -1.3224 H   0  0  0  0  0  0  0  0  0  0  0  0
  -10.2205    2.4774    0.0223 H   0  0  0  0  0  0  0  0  0  0  0  0
   -9.8348    0.1297    0.6803 H   0  0  0  0  0  0  0  0  0  0  0  0
   -8.8713    1.2566    1.5927 H   0  0  0  0  0  0  0  0  0  0  0  0
   -8.3410   -0.3167   -1.8805 H   0  0  0  0  0  0  0  0  0  0  0  0
   -7.0228   -1.3445   -1.3633 H   0  0  0  0  0  0  0  0  0  0  0  0
   -9.7628   -1.5484   -0.7140 H   0  0  0  0  0  0  0  0  0  0  0  0
   -7.3415   -0.1859    2.3601 H   0  0  0  0  0  0  0  0  0  0  0  0
   -8.4065   -2.3512    0.9126 H   0  0  0  0  0  0  0  0  0  0  0  0
   -5.7579   -2.0743    2.2295 H   0  0  0  0  0  0  0  0  0  0  0  0
   -5.9686   -2.1778    0.5240 H   0  0  0  0  0  0  0  0  0  0  0  0
   -4.1882   -0.6118    3.2899 H   0  0  0  0  0  0  0  0  0  0  0  0
   -5.4674    0.5708    3.0723 H   0  0  0  0  0  0  0  0  0  0  0  0
   -3.8332    0.9893    2.6482 H   0  0  0  0  0  0  0  0  0  0  0  0
    2.2974   -3.4018    1.4655 H   0  0  0  0  0  0  0  0  0  0  0  0
    1.1401   -2.3900    2.3301 H   0  0  0  0  0  0  0  0  0  0  0  0
    0.6830   -3.9859    1.7068 H   0  0  0  0  0  0  0  0  0  0  0  0
    0.3194   -4.4038   -0.6757 H   0  0  0  0  0  0  0  0  0  0  0  0
    1.9917   -3.9073   -0.9967 H   0  0  0  0  0  0  0  0  0  0  0  0
    0.6531   -3.8472   -2.8273 H   0  0  0  0  0  0  0  0  0  0  0  0
    5.3799   -2.8123   -0.6923 H   0  0  0  0  0  0  0  0  0  0  0  0
    4.7780   -2.0628    1.5521 H   0  0  0  0  0  0  0  0  0  0  0  0
    7.6035   -1.8039   -0.7057 H   0  0  0  0  0  0  0  0  0  0  0  0
    8.2259   -0.8469    1.1076 H   0  0  0  0  0  0  0  0  0  0  0  0
    8.1135    2.7482    0.6590 H   0  0  0  0  0  0  0  0  0  0  0  0
    6.8534    3.3295    2.6710 H   0  0  0  0  0  0  0  0  0  0  0  0
    8.3647    4.2530    2.6098 H   0  0  0  0  0  0  0  0  0  0  0  0
    9.1524    2.3956    3.9763 H   0  0  0  0  0  0  0  0  0  0  0  0
   10.4164    3.1042    1.1245 H   0  0  0  0  0  0  0  0  0  0  0  0
   11.5188    1.9593    2.7774 H   0  0  0  0  0  0  0  0  0  0  0  0
   10.6589    0.1134    1.4994 H   0  0  0  0  0  0  0  0  0  0  0  0
   11.7759    0.4520   -0.4940 H   0  0  0  0  0  0  0  0  0  0  0  0
    9.1416    1.3448   -0.8664 H   0  0  0  0  0  0  0  0  0  0  0  0
    9.2443   -0.5660   -1.7799 H   0  0  0  0  0  0  0  0  0  0  0  0
    6.3632   -1.8877   -2.8247 H   0  0  0  0  0  0  0  0  0  0  0  0
    7.4974   -0.1822   -3.8541 H   0  0  0  0  0  0  0  0  0  0  0  0
  1  2  1  0
  2  3  1  0
  3  4  1  0
  4  5  1  0
  5  6  1  0
  6  7  1  0
  7  8  1  0
  8  9  1  0
  9 10  1  0
  9 11  1  0
 11 12  1  0
 12 13  1  0
 13 14  1  0
 14 15  1  0
 14 16  1  0
 16 17  1  0
 17 18  2  0
 18 19  1  0
 19 20  2  0
 20 21  1  0
 21 22  1  0
 22 23  1  0
 22 24  1  0
 22 25  1  0
 25 26  1  0
 26 27  1  0
 27 28  1  0
 28 29  1  0
 27 30  1  0
 30 31  1  0
 30 32  1  0
 32 33  1  0
 33 34  1  0
 11 35  1  0
 35 36  1  0
 35 37  1  0
 37 38  1  0
  4 39  1  0
 39 40  1  0
 39 41  1  0
 41 42  1  0
 42 43  1  0
 43 44  1  0
 44 45  1  0
 45 46  1  0
 46 47  1  0
 45 48  1  0
 48 49  1  0
 48 50  1  0
 50 51  1  0
 50 52  1  0
 52 53  1  0
 41 54  1  0
 54 55  1  0
 54  2  1  0
 35  6  1  0
 52 43  1  0
 16  9  1  0
 33 19  1  0
 33 14  1  0
 27 20  1  0
  1 56  1  0
  1 57  1  0
  1 58  1  0
  2 59  1  0
  4 60  1  0
  6 61  1  0
  7 62  1  0
  7 63  1  0
  8 64  1  0
  8 65  1  0
 10 66  1  0
 10 67  1  0
 10 68  1  0
 11 69  1  0
 12 70  1  0
 12 71  1  0
 13 72  1  0
 13 73  1  0
 15 74  1  0
 15 75  1  0
 15 76  1  0
 16 77  1  0
 17 78  1  0
 18 79  1  0
 21 80  1  0
 21 81  1  0
 23 82  1  0
 23 83  1  0
 23 84  1  0
 24 85  1  0
 24 86  1  0
 24 87  1  0
 25 88  1  0
 25 89  1  0
 26 90  1  0
 26 91  1  0
 28 92  1  0
 28 93  1  0
 29 94  1  0
 30 95  1  0
 31 96  1  0
 32 97  1  0
 32 98  1  0
 34 99  1  0
 34100  1  0
 34101  1  0
 36102  1  0
 36103  1  0
 36104  1  0
 37105  1  0
 37106  1  0
 38107  1  0
 39108  1  0
 40109  1  0
 41110  1  0
 43111  1  0
 45112  1  0
 46113  1  0
 46114  1  0
 47115  1  0
 48116  1  0
 49117  1  0
 50118  1  0
 51119  1  0
 52120  1  0
 53121  1  0
 54122  1  0
 55123  1  0
M  END
$$$$
