
     RDKit          3D

 52 54  0  0  0  0  0  0  0  0999 V2000
    3.4722    0.2332   -3.5618 C   0  0  0  0  0  0  0  0  0  0  0  0
    2.9875    1.1809   -2.4671 C   0  0  0  0  0  0  0  0  0  0  0  0
    3.9939    1.3162   -1.3099 C   0  0  0  0  0  0  0  0  0  0  0  0
    4.2611    0.0110   -0.5524 C   0  0  0  0  0  0  0  0  0  0  0  0
    5.2064    0.2233    0.6048 C   0  0  0  0  0  0  0  0  0  0  0  0
    6.5797   -0.0112    0.4569 C   0  0  0  0  0  0  0  0  0  0  0  0
    7.4518    0.2009    1.5260 C   0  0  0  0  0  0  0  0  0  0  0  0
    6.9604    0.6530    2.7494 C   0  0  0  0  0  0  0  0  0  0  0  0
    5.5970    0.8960    2.9044 C   0  0  0  0  0  0  0  0  0  0  0  0
    4.7236    0.6845    1.8369 C   0  0  0  0  0  0  0  0  0  0  0  0
    1.6723    0.7706   -1.9910 N   0  0  0  0  0  0  0  0  0  0  0  0
    0.7996    1.6627   -1.4025 C   0  0  0  0  0  0  0  0  0  0  0  0
    1.0229    2.8640   -1.3046 O   0  0  0  0  0  0  0  0  0  0  0  0
   -0.4855    1.1043   -0.8985 C   0  0  0  0  0  0  0  0  0  0  0  0
   -1.5999    1.9478   -0.8502 C   0  0  0  0  0  0  0  0  0  0  0  0
   -2.8277    1.4694   -0.3816 C   0  0  0  0  0  0  0  0  0  0  0  0
   -2.9586    0.1451    0.0547 C   0  0  0  0  0  0  0  0  0  0  0  0
   -4.2317   -0.2600    0.5065 N   0  0  0  0  0  0  0  0  0  0  0  0
   -4.5838   -1.4907    1.0308 C   0  0  0  0  0  0  0  0  0  0  0  0
   -3.8405   -2.4389    1.2493 O   0  0  0  0  0  0  0  0  0  0  0  0
   -6.0228   -1.6289    1.3892 C   0  0  0  0  0  0  0  0  0  0  0  0
   -7.0348   -1.0638    0.5996 C   0  0  0  0  0  0  0  0  0  0  0  0
   -8.3733   -1.2169    0.9674 C   0  0  0  0  0  0  0  0  0  0  0  0
   -8.7037   -1.9388    2.1153 C   0  0  0  0  0  0  0  0  0  0  0  0
   -7.6950   -2.5149    2.8877 C   0  0  0  0  0  0  0  0  0  0  0  0
   -8.1502   -3.5019    4.4346 Br  0  0  0  0  0  0  0  0  0  0  0  0
   -6.3565   -2.3701    2.5291 C   0  0  0  0  0  0  0  0  0  0  0  0
   -1.8399   -0.6899    0.0177 C   0  0  0  0  0  0  0  0  0  0  0  0
   -0.6069   -0.2144   -0.4497 C   0  0  0  0  0  0  0  0  0  0  0  0
    4.4666    0.5207   -3.9177 H   0  0  0  0  0  0  0  0  0  0  0  0
    3.5143   -0.8046   -3.2155 H   0  0  0  0  0  0  0  0  0  0  0  0
    2.7874    0.2573   -4.4171 H   0  0  0  0  0  0  0  0  0  0  0  0
    2.8737    2.1757   -2.9165 H   0  0  0  0  0  0  0  0  0  0  0  0
    4.9407    1.7056   -1.7069 H   0  0  0  0  0  0  0  0  0  0  0  0
    3.6267    2.0742   -0.6055 H   0  0  0  0  0  0  0  0  0  0  0  0
    4.6853   -0.7439   -1.2251 H   0  0  0  0  0  0  0  0  0  0  0  0
    3.3250   -0.4148   -0.1701 H   0  0  0  0  0  0  0  0  0  0  0  0
    6.9795   -0.3589   -0.4923 H   0  0  0  0  0  0  0  0  0  0  0  0
    8.5156    0.0156    1.4038 H   0  0  0  0  0  0  0  0  0  0  0  0
    7.6399    0.8194    3.5806 H   0  0  0  0  0  0  0  0  0  0  0  0
    5.2132    1.2541    3.8557 H   0  0  0  0  0  0  0  0  0  0  0  0
    3.6629    0.8867    1.9692 H   0  0  0  0  0  0  0  0  0  0  0  0
    1.4063   -0.1987   -2.0932 H   0  0  0  0  0  0  0  0  0  0  0  0
   -1.5150    2.9820   -1.1795 H   0  0  0  0  0  0  0  0  0  0  0  0
   -3.6736    2.1518   -0.3619 H   0  0  0  0  0  0  0  0  0  0  0  0
   -4.9442    0.4580    0.5021 H   0  0  0  0  0  0  0  0  0  0  0  0
   -6.7995   -0.5305   -0.3178 H   0  0  0  0  0  0  0  0  0  0  0  0
   -9.1609   -0.7843    0.3545 H   0  0  0  0  0  0  0  0  0  0  0  0
   -9.7485   -2.0556    2.3937 H   0  0  0  0  0  0  0  0  0  0  0  0
   -5.5710   -2.8265    3.1276 H   0  0  0  0  0  0  0  0  0  0  0  0
   -1.8887   -1.7209    0.3557 H   0  0  0  0  0  0  0  0  0  0  0  0
    0.2466   -0.8852   -0.4243 H   0  0  0  0  0  0  0  0  0  0  0  0
  1  2  1  0
  2  3  1  0
  3  4  1  0
  4  5  1  0
  5  6  2  0
  6  7  1  0
  7  8  2  0
  8  9  1  0
  9 10  2  0
  2 11  1  0
 11 12  1  0
 12 13  2  0
 12 14  1  0
 14 15  2  0
 15 16  1  0
 16 17  2  0
 17 18  1  0
 18 19  1  0
 19 20  2  0
 19 21  1  0
 21 22  2  0
 22 23  1  0
 23 24  2  0
 24 25  1  0
 25 26  1  0
 25 27  2  0
 17 28  1  0
 28 29  2  0
 10  5  1  0
 29 14  1  0
 27 21  1  0
  1 30  1  0
  1 31  1  0
  1 32  1  0
  2 33  1  0
  3 34  1  0
  3 35  1  0
  4 36  1  0
  4 37  1  0
  6 38  1  0
  7 39  1  0
  8 40  1  0
  9 41  1  0
 10 42  1  0
 11 43  1  0
 15 44  1  0
 16 45  1  0
 18 46  1  0
 22 47  1  0
 23 48  1  0
 24 49  1  0
 27 50  1  0
 28 51  1  0
 29 52  1  0
M  END
$$$$
