
     RDKit          3D

 54 56  0  0  0  0  0  0  0  0999 V2000
   -4.4477   -0.8273    3.5076 C   0  0  0  0  0  0  0  0  0  0  0  0
   -4.6710   -1.3341    2.0814 C   0  0  0  0  0  0  0  0  0  0  0  0
   -5.7686   -0.5230    1.3917 C   0  0  0  0  0  0  0  0  0  0  0  0
   -3.3644   -1.3791    1.2602 C   0  0  0  0  0  0  0  0  0  0  0  0
   -2.7176   -0.0111    0.9830 C   0  0  0  0  0  0  0  0  0  0  0  0
   -1.4030   -0.1119    0.3142 N   0  0  0  0  0  0  0  0  0  0  0  0
   -1.4931   -0.7872   -0.9884 C   0  0  0  0  0  0  0  0  0  0  0  0
   -0.2717   -0.5298   -1.8621 C   0  0  0  0  0  0  0  0  0  0  0  0
   -0.1859    0.9611   -2.1991 C   0  0  0  0  0  0  0  0  0  0  0  0
    1.1044    1.3601   -2.7556 N   0  0  0  0  0  0  0  0  0  0  0  0
    1.0941    1.8980   -3.9985 N   0  0  0  0  0  0  0  0  0  0  0  0
    2.3707    2.1926   -4.2366 C   0  0  0  0  0  0  0  0  0  0  0  0
    3.2032    1.8515   -3.1612 C   0  0  0  0  0  0  0  0  0  0  0  0
    2.3722    1.3056   -2.2038 C   0  0  0  0  0  0  0  0  0  0  0  0
    2.6579    0.7893   -0.9497 N   0  0  0  0  0  0  0  0  0  0  0  0
    3.9420    0.7278   -0.4232 C   0  0  0  0  0  0  0  0  0  0  0  0
    4.9575    1.1715   -0.9481 O   0  0  0  0  0  0  0  0  0  0  0  0
    3.9677    0.0900    0.9567 C   0  0  0  0  0  0  0  0  0  0  0  0
    3.3851   -1.3075    1.0088 C   0  0  0  0  0  0  0  0  0  0  0  0
    4.0305   -1.8806    2.2508 C   0  0  0  0  0  0  0  0  0  0  0  0
    5.3114   -1.2552    2.3804 O   0  0  0  0  0  0  0  0  0  0  0  0
    5.3796   -0.1517    1.4627 C   0  0  0  0  0  0  0  0  0  0  0  0
   -0.6760    1.8775   -1.0673 C   0  0  0  0  0  0  0  0  0  0  0  0
   -0.7112    1.1845    0.2907 C   0  0  0  0  0  0  0  0  0  0  0  0
   -4.1986    0.2384    3.5287 H   0  0  0  0  0  0  0  0  0  0  0  0
   -5.3511   -0.9653    4.1106 H   0  0  0  0  0  0  0  0  0  0  0  0
   -3.6356   -1.3793    3.9942 H   0  0  0  0  0  0  0  0  0  0  0  0
   -5.0285   -2.3700    2.1592 H   0  0  0  0  0  0  0  0  0  0  0  0
   -5.5274    0.5438    1.3623 H   0  0  0  0  0  0  0  0  0  0  0  0
   -6.7186   -0.6317    1.9275 H   0  0  0  0  0  0  0  0  0  0  0  0
   -5.9251   -0.8672    0.3636 H   0  0  0  0  0  0  0  0  0  0  0  0
   -3.5873   -1.8798    0.3100 H   0  0  0  0  0  0  0  0  0  0  0  0
   -2.6430   -2.0179    1.7881 H   0  0  0  0  0  0  0  0  0  0  0  0
   -2.5772    0.4950    1.9467 H   0  0  0  0  0  0  0  0  0  0  0  0
   -3.3912    0.6144    0.3821 H   0  0  0  0  0  0  0  0  0  0  0  0
   -1.5755   -1.8689   -0.8283 H   0  0  0  0  0  0  0  0  0  0  0  0
   -2.3907   -0.4663   -1.5360 H   0  0  0  0  0  0  0  0  0  0  0  0
   -0.3496   -1.1094   -2.7907 H   0  0  0  0  0  0  0  0  0  0  0  0
    0.6235   -0.9032   -1.3556 H   0  0  0  0  0  0  0  0  0  0  0  0
   -0.8994    1.1206   -3.0244 H   0  0  0  0  0  0  0  0  0  0  0  0
    2.6426    2.6434   -5.1832 H   0  0  0  0  0  0  0  0  0  0  0  0
    4.2748    1.9855   -3.1028 H   0  0  0  0  0  0  0  0  0  0  0  0
    1.9057    0.4016   -0.4013 H   0  0  0  0  0  0  0  0  0  0  0  0
    3.4343    0.7463    1.6578 H   0  0  0  0  0  0  0  0  0  0  0  0
    3.6854   -1.8836    0.1245 H   0  0  0  0  0  0  0  0  0  0  0  0
    2.2925   -1.3278    1.0628 H   0  0  0  0  0  0  0  0  0  0  0  0
    3.4477   -1.6358    3.1457 H   0  0  0  0  0  0  0  0  0  0  0  0
    4.1497   -2.9665    2.2031 H   0  0  0  0  0  0  0  0  0  0  0  0
    5.7908    0.7210    1.9802 H   0  0  0  0  0  0  0  0  0  0  0  0
    6.0755   -0.4332    0.6643 H   0  0  0  0  0  0  0  0  0  0  0  0
   -1.6985    2.2026   -1.3041 H   0  0  0  0  0  0  0  0  0  0  0  0
   -0.0767    2.7931   -1.0022 H   0  0  0  0  0  0  0  0  0  0  0  0
   -1.1274    1.8807    1.0311 H   0  0  0  0  0  0  0  0  0  0  0  0
    0.3129    1.0081    0.6350 H   0  0  0  0  0  0  0  0  0  0  0  0
  1  2  1  0
  2  3  1  0
  2  4  1  0
  4  5  1  0
  5  6  1  0
  6  7  1  0
  7  8  1  0
  8  9  1  0
  9 10  1  0
 10 11  1  0
 11 12  2  0
 12 13  1  0
 13 14  2  0
 14 15  1  0
 15 16  1  0
 16 17  2  0
 16 18  1  0
 18 19  1  0
 19 20  1  0
 20 21  1  0
 21 22  1  0
  9 23  1  0
 23 24  1  0
 24  6  1  0
 14 10  1  0
 22 18  1  0
  1 25  1  0
  1 26  1  0
  1 27  1  0
  2 28  1  0
  3 29  1  0
  3 30  1  0
  3 31  1  0
  4 32  1  0
  4 33  1  0
  5 34  1  0
  5 35  1  0
  7 36  1  0
  7 37  1  0
  8 38  1  0
  8 39  1  0
  9 40  1  0
 12 41  1  0
 13 42  1  0
 15 43  1  0
 18 44  1  0
 19 45  1  0
 19 46  1  0
 20 47  1  0
 20 48  1  0
 22 49  1  0
 22 50  1  0
 23 51  1  0
 23 52  1  0
 24 53  1  0
 24 54  1  0
M  END
$$$$
