
     RDKit          3D

 53 56  0  0  0  0  0  0  0  0999 V2000
   -5.2991   -0.6239   -1.9488 C   0  0  0  0  0  0  0  0  0  0  0  0
   -5.2930   -0.6367   -0.4264 C   0  0  0  0  0  0  0  0  0  0  0  0
   -4.3885    0.4605    0.1600 C   0  0  0  0  0  0  0  0  0  0  0  0
   -4.6339    0.6836    1.6717 C   0  0  0  0  0  0  0  0  0  0  0  0
   -4.1631   -0.4357    2.5748 C   0  0  0  0  0  0  0  0  0  0  0  0
   -4.9730   -1.5503    2.8296 C   0  0  0  0  0  0  0  0  0  0  0  0
   -4.5190   -2.5829    3.6536 C   0  0  0  0  0  0  0  0  0  0  0  0
   -3.2546   -2.5091    4.2345 C   0  0  0  0  0  0  0  0  0  0  0  0
   -2.4441   -1.4011    3.9964 C   0  0  0  0  0  0  0  0  0  0  0  0
   -2.8963   -0.3696    3.1727 C   0  0  0  0  0  0  0  0  0  0  0  0
   -2.9831    0.1745   -0.1201 N   0  0  0  0  0  0  0  0  0  0  0  0
   -2.0403    1.1762   -0.1982 C   0  0  0  0  0  0  0  0  0  0  0  0
   -2.3167    2.3700   -0.2070 O   0  0  0  0  0  0  0  0  0  0  0  0
   -0.6162    0.7465   -0.2740 C   0  0  0  0  0  0  0  0  0  0  0  0
   -0.1595   -0.4067    0.3727 C   0  0  0  0  0  0  0  0  0  0  0  0
    1.1945   -0.7601    0.3174 C   0  0  0  0  0  0  0  0  0  0  0  0
    2.1045    0.0514   -0.3905 C   0  0  0  0  0  0  0  0  0  0  0  0
    3.4631   -0.1733   -0.5092 N   0  0  0  0  0  0  0  0  0  0  0  0
    4.0430    0.7661   -1.2280 C   0  0  0  0  0  0  0  0  0  0  0  0
    5.3796    0.7724   -1.4883 N   0  0  0  0  0  0  0  0  0  0  0  0
    6.2182   -0.3190   -0.9826 C   0  0  0  0  0  0  0  0  0  0  0  0
    7.4667   -0.4663   -1.8673 C   0  0  0  0  0  0  0  0  0  0  0  0
    8.2775    0.7166   -1.9437 O   0  0  0  0  0  0  0  0  0  0  0  0
    7.5501    1.9239   -1.6766 C   0  0  0  0  0  0  0  0  0  0  0  0
    6.0800    1.8863   -2.1294 C   0  0  0  0  0  0  0  0  0  0  0  0
    2.9448    1.9714   -1.8124 S   0  0  0  0  0  0  0  0  0  0  0  0
    1.6305    1.1947   -1.0297 C   0  0  0  0  0  0  0  0  0  0  0  0
    0.2769    1.5686   -0.9802 C   0  0  0  0  0  0  0  0  0  0  0  0
   -5.6335    0.3462   -2.3312 H   0  0  0  0  0  0  0  0  0  0  0  0
   -4.3035   -0.8310   -2.3518 H   0  0  0  0  0  0  0  0  0  0  0  0
   -5.9818   -1.3901   -2.3287 H   0  0  0  0  0  0  0  0  0  0  0  0
   -4.9724   -1.6280   -0.0857 H   0  0  0  0  0  0  0  0  0  0  0  0
   -6.3208   -0.4904   -0.0764 H   0  0  0  0  0  0  0  0  0  0  0  0
   -4.6410    1.4056   -0.3370 H   0  0  0  0  0  0  0  0  0  0  0  0
   -5.7005    0.8655    1.8527 H   0  0  0  0  0  0  0  0  0  0  0  0
   -4.1294    1.6082    1.9813 H   0  0  0  0  0  0  0  0  0  0  0  0
   -5.9670   -1.6210    2.3943 H   0  0  0  0  0  0  0  0  0  0  0  0
   -5.1570   -3.4423    3.8487 H   0  0  0  0  0  0  0  0  0  0  0  0
   -2.9072   -3.3083    4.8851 H   0  0  0  0  0  0  0  0  0  0  0  0
   -1.4636   -1.3350    4.4599 H   0  0  0  0  0  0  0  0  0  0  0  0
   -2.2576    0.4957    3.0041 H   0  0  0  0  0  0  0  0  0  0  0  0
   -2.6907   -0.7904   -0.0613 H   0  0  0  0  0  0  0  0  0  0  0  0
   -0.8292   -1.0313    0.9579 H   0  0  0  0  0  0  0  0  0  0  0  0
    1.5572   -1.6488    0.8278 H   0  0  0  0  0  0  0  0  0  0  0  0
    6.5137   -0.0901    0.0475 H   0  0  0  0  0  0  0  0  0  0  0  0
    5.6807   -1.2742   -0.9845 H   0  0  0  0  0  0  0  0  0  0  0  0
    8.1023   -1.2760   -1.4946 H   0  0  0  0  0  0  0  0  0  0  0  0
    7.1737   -0.7274   -2.8919 H   0  0  0  0  0  0  0  0  0  0  0  0
    7.6069    2.1144   -0.5967 H   0  0  0  0  0  0  0  0  0  0  0  0
    8.0767    2.7418   -2.1775 H   0  0  0  0  0  0  0  0  0  0  0  0
    6.0325    1.7551   -3.2158 H   0  0  0  0  0  0  0  0  0  0  0  0
    5.6320    2.8495   -1.8697 H   0  0  0  0  0  0  0  0  0  0  0  0
   -0.0696    2.4742   -1.4723 H   0  0  0  0  0  0  0  0  0  0  0  0
  1  2  1  0
  2  3  1  0
  3  4  1  0
  4  5  1  0
  5  6  2  0
  6  7  1  0
  7  8  2  0
  8  9  1  0
  9 10  2  0
  3 11  1  0
 11 12  1  0
 12 13  2  0
 12 14  1  0
 14 15  2  0
 15 16  1  0
 16 17  2  0
 17 18  1  0
 18 19  2  0
 19 20  1  0
 20 21  1  0
 21 22  1  0
 22 23  1  0
 23 24  1  0
 24 25  1  0
 19 26  1  0
 26 27  1  0
 27 28  2  0
 10  5  1  0
 28 14  1  0
 27 17  1  0
 25 20  1  0
  1 29  1  0
  1 30  1  0
  1 31  1  0
  2 32  1  0
  2 33  1  0
  3 34  1  0
  4 35  1  0
  4 36  1  0
  6 37  1  0
  7 38  1  0
  8 39  1  0
  9 40  1  0
 10 41  1  0
 11 42  1  0
 15 43  1  0
 16 44  1  0
 21 45  1  0
 21 46  1  0
 22 47  1  0
 22 48  1  0
 24 49  1  0
 24 50  1  0
 25 51  1  0
 25 52  1  0
 28 53  1  0
M  END
$$$$
