
     RDKit          3D

 43 45  0  0  0  0  0  0  0  0999 V2000
   -7.4439    1.4537    0.1317 C   0  0  0  0  0  0  0  0  0  0  0  0
   -6.6795    0.5224   -0.4543 C   0  0  0  0  0  0  0  0  0  0  0  0
   -6.2022   -0.7350    0.2187 C   0  0  0  0  0  0  0  0  0  0  0  0
   -4.7810   -0.6097    0.4984 N   0  0  0  0  0  0  0  0  0  0  0  0
   -4.4050   -0.1442    1.7502 C   0  0  0  0  0  0  0  0  0  0  0  0
   -5.1911    0.1463    2.6495 O   0  0  0  0  0  0  0  0  0  0  0  0
   -3.0676   -0.0185    1.9727 N   0  0  0  0  0  0  0  0  0  0  0  0
   -2.0964   -0.3279    1.0391 C   0  0  0  0  0  0  0  0  0  0  0  0
   -0.8098   -0.1504    1.4014 N   0  0  0  0  0  0  0  0  0  0  0  0
    0.1242   -0.4641    0.4765 C   0  0  0  0  0  0  0  0  0  0  0  0
    1.4678   -0.3050    0.7795 C   0  0  0  0  0  0  0  0  0  0  0  0
    2.4712   -0.6042   -0.1474 C   0  0  0  0  0  0  0  0  0  0  0  0
    3.8148   -0.4397    0.2186 N   0  0  0  0  0  0  0  0  0  0  0  0
    4.3212    0.7327    0.0163 C   0  0  0  0  0  0  0  0  0  0  0  0
    5.6137    1.1163    0.2930 N   0  0  0  0  0  0  0  0  0  0  0  0
    6.4676    0.2290    1.0716 C   0  0  0  0  0  0  0  0  0  0  0  0
    5.9667    2.5264    0.3173 C   0  0  0  0  0  0  0  0  0  0  0  0
    2.1181   -1.1085   -1.4054 C   0  0  0  0  0  0  0  0  0  0  0  0
    3.1696   -1.4673   -2.4170 C   0  0  0  0  0  0  0  0  0  0  0  0
    0.7597   -1.2642   -1.7181 C   0  0  0  0  0  0  0  0  0  0  0  0
   -0.2385   -0.9522   -0.8056 C   0  0  0  0  0  0  0  0  0  0  0  0
   -1.5268   -1.1208   -1.1540 N   0  0  0  0  0  0  0  0  0  0  0  0
   -2.4458   -0.8010   -0.2087 C   0  0  0  0  0  0  0  0  0  0  0  0
   -3.8836   -0.9610   -0.5161 C   0  0  0  0  0  0  0  0  0  0  0  0
   -4.2373   -1.3808   -1.6163 O   0  0  0  0  0  0  0  0  0  0  0  0
   -7.7643    2.3356   -0.4145 H   0  0  0  0  0  0  0  0  0  0  0  0
   -7.7561    1.3636    1.1686 H   0  0  0  0  0  0  0  0  0  0  0  0
   -6.3896    0.6519   -1.4956 H   0  0  0  0  0  0  0  0  0  0  0  0
   -6.7575   -0.9214    1.1450 H   0  0  0  0  0  0  0  0  0  0  0  0
   -6.3851   -1.5899   -0.4421 H   0  0  0  0  0  0  0  0  0  0  0  0
   -2.7656    0.3202    2.8755 H   0  0  0  0  0  0  0  0  0  0  0  0
    1.7498    0.0585    1.7643 H   0  0  0  0  0  0  0  0  0  0  0  0
    3.7204    1.5540   -0.4204 H   0  0  0  0  0  0  0  0  0  0  0  0
    6.4214   -0.7965    0.6898 H   0  0  0  0  0  0  0  0  0  0  0  0
    6.1595    0.2283    2.1223 H   0  0  0  0  0  0  0  0  0  0  0  0
    7.5154    0.5435    1.0198 H   0  0  0  0  0  0  0  0  0  0  0  0
    5.4985    3.0618   -0.5156 H   0  0  0  0  0  0  0  0  0  0  0  0
    7.0491    2.6638    0.2235 H   0  0  0  0  0  0  0  0  0  0  0  0
    5.6373    2.9851    1.2552 H   0  0  0  0  0  0  0  0  0  0  0  0
    2.7315   -1.9597   -3.2916 H   0  0  0  0  0  0  0  0  0  0  0  0
    3.8980   -2.1605   -1.9839 H   0  0  0  0  0  0  0  0  0  0  0  0
    3.6854   -0.5657   -2.7623 H   0  0  0  0  0  0  0  0  0  0  0  0
    0.4659   -1.6447   -2.6948 H   0  0  0  0  0  0  0  0  0  0  0  0
  1  2  2  0
  2  3  1  0
  3  4  1  0
  4  5  1  0
  5  6  2  0
  5  7  1  0
  7  8  1  0
  8  9  2  0
  9 10  1  0
 10 11  2  0
 11 12  1  0
 12 13  1  0
 13 14  2  3
 14 15  1  0
 15 16  1  0
 15 17  1  0
 12 18  2  0
 18 19  1  0
 18 20  1  0
 20 21  2  0
 21 22  1  0
 22 23  2  0
 23 24  1  0
 24 25  2  0
 24  4  1  0
 23  8  1  0
 21 10  1  0
  1 26  1  0
  1 27  1  0
  2 28  1  0
  3 29  1  0
  3 30  1  0
  7 31  1  0
 11 32  1  0
 14 33  1  0
 16 34  1  0
 16 35  1  0
 16 36  1  0
 17 37  1  0
 17 38  1  0
 17 39  1  0
 19 40  1  0
 19 41  1  0
 19 42  1  0
 20 43  1  0
M  END
$$$$
