
     RDKit          3D

 45 47  0  0  0  0  0  0  0  0999 V2000
   -1.8829    0.0648    3.0200 C   0  0  0  0  0  0  0  0  0  0  0  0
   -0.6012    0.0086    2.2745 C   0  0  0  0  0  0  0  0  0  0  0  0
    0.5624    0.3729    2.7721 N   0  0  0  0  0  0  0  0  0  0  0  0
    1.4703    0.0030    1.8134 C   0  0  0  0  0  0  0  0  0  0  0  0
    2.9367    0.1792    1.9359 C   0  0  0  0  0  0  0  0  0  0  0  0
    3.4586    0.7171    2.9068 O   0  0  0  0  0  0  0  0  0  0  0  0
    3.6048   -0.3326    0.8359 N   0  0  0  0  0  0  0  0  0  0  0  0
    4.9884   -0.3654    0.5698 C   0  0  0  0  0  0  0  0  0  0  0  0
    5.9468    0.1538    1.4448 C   0  0  0  0  0  0  0  0  0  0  0  0
    7.3081    0.0909    1.1249 C   0  0  0  0  0  0  0  0  0  0  0  0
    7.7190   -0.4913   -0.0715 C   0  0  0  0  0  0  0  0  0  0  0  0
    9.3938   -0.5636   -0.4560 Cl  0  0  0  0  0  0  0  0  0  0  0  0
    6.7833   -1.0140   -0.9574 C   0  0  0  0  0  0  0  0  0  0  0  0
    5.4258   -0.9498   -0.6357 C   0  0  0  0  0  0  0  0  0  0  0  0
    4.2929   -1.6099   -1.7682 Cl  0  0  0  0  0  0  0  0  0  0  0  0
    0.9087   -0.5561    0.7274 N   0  0  0  0  0  0  0  0  0  0  0  0
   -0.4159   -0.5258    1.0057 N   0  0  0  0  0  0  0  0  0  0  0  0
   -1.3698   -0.9100    0.0236 C   0  0  0  0  0  0  0  0  0  0  0  0
   -2.5899   -0.2145   -0.0489 C   0  0  0  0  0  0  0  0  0  0  0  0
   -3.5303   -0.5270   -1.0372 C   0  0  0  0  0  0  0  0  0  0  0  0
   -4.7284    0.1362   -1.0667 O   0  0  0  0  0  0  0  0  0  0  0  0
   -4.6041    1.5171   -1.4497 C   0  0  0  0  0  0  0  0  0  0  0  0
   -5.2636    2.3627   -0.3657 C   0  0  0  0  0  0  0  0  0  0  0  0
   -5.3167    1.7072   -2.7844 C   0  0  0  0  0  0  0  0  0  0  0  0
   -3.2828   -1.5642   -1.9361 C   0  0  0  0  0  0  0  0  0  0  0  0
   -4.4387   -2.0185   -3.1322 Cl  0  0  0  0  0  0  0  0  0  0  0  0
   -2.0744   -2.2559   -1.8785 C   0  0  0  0  0  0  0  0  0  0  0  0
   -1.1130   -1.9328   -0.9098 C   0  0  0  0  0  0  0  0  0  0  0  0
    0.2887   -2.9504   -0.8889 Cl  0  0  0  0  0  0  0  0  0  0  0  0
   -1.6890    0.0247    4.0973 H   0  0  0  0  0  0  0  0  0  0  0  0
   -2.4091    1.0016    2.8161 H   0  0  0  0  0  0  0  0  0  0  0  0
   -2.5347   -0.7796    2.7779 H   0  0  0  0  0  0  0  0  0  0  0  0
    2.9935   -0.7472    0.1310 H   0  0  0  0  0  0  0  0  0  0  0  0
    5.6715    0.6158    2.3886 H   0  0  0  0  0  0  0  0  0  0  0  0
    8.0390    0.5000    1.8189 H   0  0  0  0  0  0  0  0  0  0  0  0
    7.1064   -1.4675   -1.8901 H   0  0  0  0  0  0  0  0  0  0  0  0
   -2.8184    0.6072    0.6220 H   0  0  0  0  0  0  0  0  0  0  0  0
   -3.5571    1.8293   -1.5620 H   0  0  0  0  0  0  0  0  0  0  0  0
   -5.2251    3.4276   -0.6142 H   0  0  0  0  0  0  0  0  0  0  0  0
   -6.3106    2.0727   -0.2235 H   0  0  0  0  0  0  0  0  0  0  0  0
   -4.7632    2.2126    0.5967 H   0  0  0  0  0  0  0  0  0  0  0  0
   -6.3559    1.3647   -2.7289 H   0  0  0  0  0  0  0  0  0  0  0  0
   -5.3076    2.7568   -3.0938 H   0  0  0  0  0  0  0  0  0  0  0  0
   -4.8301    1.1145   -3.5659 H   0  0  0  0  0  0  0  0  0  0  0  0
   -1.8862   -3.0650   -2.5817 H   0  0  0  0  0  0  0  0  0  0  0  0
  1  2  1  0
  2  3  2  0
  3  4  1  0
  4  5  1  0
  5  6  2  0
  5  7  1  0
  7  8  1  0
  8  9  2  0
  9 10  1  0
 10 11  2  0
 11 12  1  0
 11 13  1  0
 13 14  2  0
 14 15  1  0
  4 16  2  0
 16 17  1  0
 17 18  1  0
 18 19  2  0
 19 20  1  0
 20 21  1  0
 21 22  1  0
 22 23  1  0
 22 24  1  0
 20 25  2  0
 25 26  1  0
 25 27  1  0
 27 28  2  0
 28 29  1  0
 17  2  1  0
 28 18  1  0
 14  8  1  0
  1 30  1  0
  1 31  1  0
  1 32  1  0
  7 33  1  0
  9 34  1  0
 10 35  1  0
 13 36  1  0
 19 37  1  0
 22 38  1  0
 23 39  1  0
 23 40  1  0
 23 41  1  0
 24 42  1  0
 24 43  1  0
 24 44  1  0
 27 45  1  0
M  END
$$$$
