
     RDKit          3D

 41 42  0  0  0  0  0  0  0  0999 V2000
   -5.1496   -0.5213   -0.6493 C   0  0  0  0  0  0  0  0  0  0  0  0
   -3.6804   -0.3803   -0.3407 C   0  0  0  0  0  0  0  0  0  0  0  0
   -2.7486   -1.3335   -0.5633 C   0  0  0  0  0  0  0  0  0  0  0  0
   -3.0413   -2.7224   -1.0721 C   0  0  0  0  0  0  0  0  0  0  0  0
   -1.2775   -1.0937   -0.2944 C   0  0  0  0  0  0  0  0  0  0  0  0
   -0.8971    0.3763   -0.0743 C   0  0  0  0  0  0  0  0  0  0  0  0
    0.5139    0.4304    0.5142 C   0  0  0  0  0  0  0  0  0  0  0  0
    0.7006    0.6316    1.7095 O   0  0  0  0  0  0  0  0  0  0  0  0
    1.4926    0.1878   -0.4372 N   0  0  0  0  0  0  0  0  0  0  0  0
    2.8878    0.1209   -0.2377 C   0  0  0  0  0  0  0  0  0  0  0  0
    3.5069    0.2454    1.0095 C   0  0  0  0  0  0  0  0  0  0  0  0
    4.8993    0.1657    1.1320 C   0  0  0  0  0  0  0  0  0  0  0  0
    5.6933   -0.0416    0.0067 C   0  0  0  0  0  0  0  0  0  0  0  0
    5.0796   -0.1688   -1.2432 C   0  0  0  0  0  0  0  0  0  0  0  0
    5.9030   -0.3903   -2.4376 N   0  0  0  0  0  4  0  0  0  0  0  0
    7.1328   -0.4318   -2.2927 O   0  0  0  0  0  0  0  0  0  0  0  0
    5.3181   -0.5252   -3.5222 O   0  0  0  0  0  1  0  0  0  0  0  0
    3.6838   -0.0891   -1.3702 C   0  0  0  0  0  0  0  0  0  0  0  0
   -1.9167    1.0535    0.8485 C   0  0  0  0  0  0  0  0  0  0  0  0
   -1.5696    2.5105    1.0350 C   0  0  0  0  0  0  0  0  0  0  0  0
   -0.9148    3.2044    0.2738 O   0  0  0  0  0  0  0  0  0  0  0  0
   -2.1036    3.0325    2.1552 O   0  0  0  0  0  0  0  0  0  0  0  0
   -3.3234    0.9683    0.2517 C   0  0  0  0  0  0  0  0  0  0  0  0
   -5.5109    0.3722   -1.1708 H   0  0  0  0  0  0  0  0  0  0  0  0
   -5.3805   -1.3684   -1.2984 H   0  0  0  0  0  0  0  0  0  0  0  0
   -5.7200   -0.6312    0.2785 H   0  0  0  0  0  0  0  0  0  0  0  0
   -4.0984   -2.9919   -1.0245 H   0  0  0  0  0  0  0  0  0  0  0  0
   -2.7059   -2.8213   -2.1093 H   0  0  0  0  0  0  0  0  0  0  0  0
   -2.5081   -3.4639   -0.4665 H   0  0  0  0  0  0  0  0  0  0  0  0
   -0.6949   -1.4797   -1.1414 H   0  0  0  0  0  0  0  0  0  0  0  0
   -0.9858   -1.6931    0.5787 H   0  0  0  0  0  0  0  0  0  0  0  0
   -0.8840    0.8984   -1.0420 H   0  0  0  0  0  0  0  0  0  0  0  0
    1.1762    0.0971   -1.3956 H   0  0  0  0  0  0  0  0  0  0  0  0
    2.9328    0.4070    1.9176 H   0  0  0  0  0  0  0  0  0  0  0  0
    5.3586    0.2672    2.1132 H   0  0  0  0  0  0  0  0  0  0  0  0
    6.7736   -0.1007    0.1205 H   0  0  0  0  0  0  0  0  0  0  0  0
    3.2206   -0.1886   -2.3494 H   0  0  0  0  0  0  0  0  0  0  0  0
   -1.8947    0.5677    1.8337 H   0  0  0  0  0  0  0  0  0  0  0  0
   -1.7718    3.9545    2.1747 H   0  0  0  0  0  0  0  0  0  0  0  0
   -4.0464    1.2168    1.0402 H   0  0  0  0  0  0  0  0  0  0  0  0
   -3.4498    1.7283   -0.5315 H   0  0  0  0  0  0  0  0  0  0  0  0
  1  2  1  0
  2  3  2  0
  3  4  1  0
  3  5  1  0
  5  6  1  0
  6  7  1  0
  7  8  2  0
  7  9  1  0
  9 10  1  0
 10 11  2  0
 11 12  1  0
 12 13  2  0
 13 14  1  0
 14 15  1  0
 15 16  2  0
 15 17  1  0
 14 18  2  0
  6 19  1  0
 19 20  1  0
 20 21  2  0
 20 22  1  0
 19 23  1  0
 23  2  1  0
 18 10  1  0
  1 24  1  0
  1 25  1  0
  1 26  1  0
  4 27  1  0
  4 28  1  0
  4 29  1  0
  5 30  1  0
  5 31  1  0
  6 32  1  0
  9 33  1  0
 11 34  1  0
 12 35  1  0
 13 36  1  0
 18 37  1  0
 19 38  1  0
 22 39  1  0
 23 40  1  0
 23 41  1  0
M  CHG  2  15   1  17  -1
M  END
$$$$
