
     RDKit          3D

 46 50  0  0  0  0  0  0  0  0999 V2000
    5.0513   -1.3816   -1.0479 O   0  0  0  0  0  0  0  0  0  0  0  0
    5.3116   -0.3007   -0.5431 C   0  0  0  0  0  0  0  0  0  0  0  0
    4.4174    0.6368   -0.0629 O   0  0  0  0  0  0  0  0  0  0  0  0
    3.0812    0.2516   -0.1983 C   0  0  0  0  0  0  0  0  0  0  0  0
    2.3136    0.8663   -1.1874 C   0  0  0  0  0  0  0  0  0  0  0  0
    0.9660    0.5276   -1.3123 C   0  0  0  0  0  0  0  0  0  0  0  0
    0.4015   -0.4095   -0.4372 C   0  0  0  0  0  0  0  0  0  0  0  0
   -1.0211   -0.7823   -0.5571 C   0  0  0  0  0  0  0  0  0  0  0  0
   -1.7119   -0.3327   -1.4628 O   0  0  0  0  0  0  0  0  0  0  0  0
   -1.5334   -1.7342    0.4676 C   0  0  0  0  0  0  0  0  0  0  0  0
   -2.8552   -2.1531    0.4671 O   0  0  0  0  0  0  0  0  0  0  0  0
   -3.8342   -1.1877    0.5142 C   0  0  0  0  0  0  0  0  0  0  0  0
   -3.7868   -0.1084    1.3959 C   0  0  0  0  0  0  0  0  0  0  0  0
   -4.8400    0.8086    1.4248 C   0  0  0  0  0  0  0  0  0  0  0  0
   -5.9546    0.6496    0.5851 C   0  0  0  0  0  0  0  0  0  0  0  0
   -7.0209    1.5630    0.6032 C   0  0  0  0  0  0  0  0  0  0  0  0
   -8.1235    1.3895   -0.2352 C   0  0  0  0  0  0  0  0  0  0  0  0
   -8.1744    0.3016   -1.1017 C   0  0  0  0  0  0  0  0  0  0  0  0
   -7.1230   -0.6159   -1.1322 C   0  0  0  0  0  0  0  0  0  0  0  0
   -6.0067   -0.4563   -0.2955 C   0  0  0  0  0  0  0  0  0  0  0  0
   -4.9419   -1.3709   -0.3143 C   0  0  0  0  0  0  0  0  0  0  0  0
   -0.6570   -2.2404    1.3432 C   0  0  0  0  0  0  0  0  0  0  0  0
    0.6760   -1.9279    1.4417 O   0  0  0  0  0  0  0  0  0  0  0  0
    1.1782   -1.0041    0.5593 C   0  0  0  0  0  0  0  0  0  0  0  0
    2.5250   -0.6696    0.6897 C   0  0  0  0  0  0  0  0  0  0  0  0
    6.6953    0.1915   -0.3610 C   0  0  0  0  0  0  0  0  0  0  0  0
    7.7407   -0.6173   -0.7949 C   0  0  0  0  0  0  0  0  0  0  0  0
    9.0512   -0.2833   -0.6851 N   0  0  0  0  0  0  0  0  0  0  0  0
    9.3286    0.9135   -0.1165 C   0  0  0  0  0  0  0  0  0  0  0  0
    8.3537    1.7851    0.3448 C   0  0  0  0  0  0  0  0  0  0  0  0
    8.8291    3.4344    1.1252 Br  0  0  0  0  0  0  0  0  0  0  0  0
    7.0147    1.4221    0.2227 C   0  0  0  0  0  0  0  0  0  0  0  0
    2.7568    1.5956   -1.8594 H   0  0  0  0  0  0  0  0  0  0  0  0
    0.3581    0.9906   -2.0872 H   0  0  0  0  0  0  0  0  0  0  0  0
   -2.9476    0.0278    2.0704 H   0  0  0  0  0  0  0  0  0  0  0  0
   -4.7870    1.6494    2.1126 H   0  0  0  0  0  0  0  0  0  0  0  0
   -6.9994    2.4202    1.2722 H   0  0  0  0  0  0  0  0  0  0  0  0
   -8.9411    2.1052   -0.2119 H   0  0  0  0  0  0  0  0  0  0  0  0
   -9.0312    0.1665   -1.7566 H   0  0  0  0  0  0  0  0  0  0  0  0
   -7.1790   -1.4581   -1.8183 H   0  0  0  0  0  0  0  0  0  0  0  0
   -4.9630   -2.2259   -0.9853 H   0  0  0  0  0  0  0  0  0  0  0  0
   -0.9317   -2.9671    2.0967 H   0  0  0  0  0  0  0  0  0  0  0  0
    3.1316   -1.1290    1.4638 H   0  0  0  0  0  0  0  0  0  0  0  0
    7.5570   -1.5854   -1.2573 H   0  0  0  0  0  0  0  0  0  0  0  0
   10.3865    1.1510   -0.0439 H   0  0  0  0  0  0  0  0  0  0  0  0
    6.2392    2.0937    0.5795 H   0  0  0  0  0  0  0  0  0  0  0  0
  1  2  2  0
  2  3  1  0
  3  4  1  0
  4  5  2  0
  5  6  1  0
  6  7  2  0
  7  8  1  0
  8  9  2  0
  8 10  1  0
 10 11  1  0
 11 12  1  0
 12 13  2  0
 13 14  1  0
 14 15  2  0
 15 16  1  0
 16 17  2  0
 17 18  1  0
 18 19  2  0
 19 20  1  0
 20 21  2  0
 10 22  2  0
 22 23  1  0
 23 24  1  0
 24 25  2  0
  2 26  1  0
 26 27  2  0
 27 28  1  0
 28 29  2  0
 29 30  1  0
 30 31  1  0
 30 32  2  0
 25  4  1  0
 32 26  1  0
 24  7  1  0
 21 12  1  0
 20 15  1  0
  5 33  1  0
  6 34  1  0
 13 35  1  0
 14 36  1  0
 16 37  1  0
 17 38  1  0
 18 39  1  0
 19 40  1  0
 21 41  1  0
 22 42  1  0
 25 43  1  0
 27 44  1  0
 29 45  1  0
 32 46  1  0
M  END
$$$$
