
     RDKit          3D

 51 54  0  0  0  0  0  0  0  0999 V2000
    4.5504   -1.3042    1.7412 C   0  0  0  0  0  0  0  0  0  0  0  0
    3.7709   -0.2842    0.9252 C   0  0  0  0  0  0  0  0  0  0  0  0
    3.5630   -0.6851   -0.5366 C   0  0  0  0  0  0  0  0  0  0  0  0
    2.6034   -1.8196   -0.7076 C   0  0  0  0  0  0  0  0  0  0  0  0
    1.2140   -1.8106   -0.6516 C   0  0  0  0  0  0  0  0  0  0  0  0
    0.3131   -0.6863   -0.3913 C   0  0  0  0  0  0  0  0  0  0  0  0
    0.7239    0.4583   -0.2256 O   0  0  0  0  0  0  0  0  0  0  0  0
   -1.0230   -1.0776   -0.3697 N   0  0  0  0  0  0  0  0  0  0  0  0
   -2.1078   -0.2399   -0.2983 N   0  0  0  0  0  0  0  0  0  0  0  0
   -2.0100    0.8053    0.4615 C   0  0  0  0  0  0  0  0  0  0  0  0
   -3.0882    1.8132    0.5616 C   0  0  0  0  0  0  0  0  0  0  0  0
   -4.4197    1.3983    0.7186 C   0  0  0  0  0  0  0  0  0  0  0  0
   -4.7228    0.0677    0.8528 O   0  0  0  0  0  0  0  0  0  0  0  0
   -5.5121   -0.3930   -0.2430 C   0  0  0  0  0  0  0  0  0  0  0  0
   -5.4318    2.3445    0.8695 C   0  0  0  0  0  0  0  0  0  0  0  0
   -5.1220    3.7033    0.8408 C   0  0  0  0  0  0  0  0  0  0  0  0
   -3.7981    4.1409    0.6729 C   0  0  0  0  0  0  0  0  0  0  0  0
   -3.5115    5.5160    0.6524 C   0  0  0  0  0  0  0  0  0  0  0  0
   -2.2062    5.9762    0.4824 C   0  0  0  0  0  0  0  0  0  0  0  0
   -1.1691    5.0664    0.3241 C   0  0  0  0  0  0  0  0  0  0  0  0
   -1.4364    3.6957    0.3429 C   0  0  0  0  0  0  0  0  0  0  0  0
   -2.7506    3.1951    0.5279 C   0  0  0  0  0  0  0  0  0  0  0  0
    0.7424   -3.0739   -0.8891 N   0  0  0  0  0  0  0  0  0  0  0  0
    1.7740   -3.8686   -1.0971 N   0  0  0  0  0  0  0  0  0  0  0  0
    2.9329   -3.1496   -0.9862 N   0  0  0  0  0  0  0  0  0  0  0  0
    4.1937   -3.7840   -1.1357 C   0  0  0  0  0  0  0  0  0  0  0  0
    5.3348   -3.1180   -0.9710 N   0  0  0  0  0  0  0  0  0  0  0  0
    6.3240   -4.0781   -1.1697 O   0  0  0  0  0  0  0  0  0  0  0  0
    5.7716   -5.3207   -1.4572 N   0  0  0  0  0  0  0  0  0  0  0  0
    4.4538   -5.1358   -1.4410 C   0  0  0  0  0  0  0  0  0  0  0  0
    3.5520   -6.1034   -1.6804 N   0  0  0  0  0  0  0  0  0  0  0  0
    4.6572   -0.9550    2.7694 H   0  0  0  0  0  0  0  0  0  0  0  0
    5.5543   -1.4503    1.3349 H   0  0  0  0  0  0  0  0  0  0  0  0
    4.0428   -2.2694    1.7701 H   0  0  0  0  0  0  0  0  0  0  0  0
    2.8081   -0.1010    1.4144 H   0  0  0  0  0  0  0  0  0  0  0  0
    4.3177    0.6644    0.9480 H   0  0  0  0  0  0  0  0  0  0  0  0
    4.5230   -0.8669   -1.0216 H   0  0  0  0  0  0  0  0  0  0  0  0
    3.1533    0.1830   -1.0702 H   0  0  0  0  0  0  0  0  0  0  0  0
   -1.2322   -2.0029   -0.7380 H   0  0  0  0  0  0  0  0  0  0  0  0
   -1.1213    1.0060    1.0836 H   0  0  0  0  0  0  0  0  0  0  0  0
   -5.4277   -1.4823   -0.2874 H   0  0  0  0  0  0  0  0  0  0  0  0
   -5.1729    0.0140   -1.1968 H   0  0  0  0  0  0  0  0  0  0  0  0
   -6.5657   -0.1477   -0.0836 H   0  0  0  0  0  0  0  0  0  0  0  0
   -6.4590    2.0319    1.0400 H   0  0  0  0  0  0  0  0  0  0  0  0
   -5.9292    4.4240    0.9650 H   0  0  0  0  0  0  0  0  0  0  0  0
   -4.3103    6.2464    0.7699 H   0  0  0  0  0  0  0  0  0  0  0  0
   -2.0022    7.0437    0.4690 H   0  0  0  0  0  0  0  0  0  0  0  0
   -0.1494    5.4173    0.1826 H   0  0  0  0  0  0  0  0  0  0  0  0
   -0.5940    3.0196    0.1980 H   0  0  0  0  0  0  0  0  0  0  0  0
    3.8474   -7.0654   -1.7943 H   0  0  0  0  0  0  0  0  0  0  0  0
    2.5516   -5.9579   -1.5613 H   0  0  0  0  0  0  0  0  0  0  0  0
  1  2  1  0
  2  3  1  0
  3  4  1  0
  4  5  2  0
  5  6  1  0
  6  7  2  0
  6  8  1  0
  8  9  1  0
  9 10  2  3
 10 11  1  0
 11 12  2  0
 12 13  1  0
 13 14  1  0
 12 15  1  0
 15 16  2  0
 16 17  1  0
 17 18  2  0
 18 19  1  0
 19 20  2  0
 20 21  1  0
 21 22  2  0
  5 23  1  0
 23 24  2  0
 24 25  1  0
 25 26  1  0
 26 27  2  0
 27 28  1  0
 28 29  1  0
 29 30  2  0
 30 31  1  0
 25  4  1  0
 30 26  1  0
 22 11  1  0
 22 17  1  0
  1 32  1  0
  1 33  1  0
  1 34  1  0
  2 35  1  0
  2 36  1  0
  3 37  1  0
  3 38  1  0
  8 39  1  0
 10 40  1  0
 14 41  1  0
 14 42  1  0
 14 43  1  0
 15 44  1  0
 16 45  1  0
 18 46  1  0
 19 47  1  0
 20 48  1  0
 21 49  1  0
 31 50  1  0
 31 51  1  0
M  END
$$$$
