
     RDKit          3D

 51 54  0  0  0  0  0  0  0  0999 V2000
   -6.2100   -2.6789    0.5555 C   0  0  0  0  0  0  0  0  0  0  0  0
   -5.4548   -2.1095   -0.6454 C   0  0  0  0  0  0  0  0  0  0  0  0
   -6.3872   -1.7411   -1.7989 C   0  0  0  0  0  0  0  0  0  0  0  0
   -4.5541   -1.0171   -0.2744 N   0  0  0  0  0  0  0  0  0  0  0  0
   -3.1884   -1.1122   -0.3900 C   0  0  0  0  0  0  0  0  0  0  0  0
   -2.6180    0.0657    0.0493 C   0  0  0  0  0  0  0  0  0  0  0  0
   -1.1986    0.3610    0.0988 C   0  0  0  0  0  0  0  0  0  0  0  0
   -0.3542   -0.5190   -0.3386 N   0  0  0  0  0  0  0  0  0  0  0  0
    0.9863   -0.2402   -0.2425 N   0  0  0  0  0  0  0  0  0  0  0  0
    1.6015    0.4604    0.7913 C   0  0  0  0  0  0  0  0  0  0  0  0
    1.0216    1.0751    1.6857 O   0  0  0  0  0  0  0  0  0  0  0  0
    3.1300    0.3816    0.7402 C   0  0  0  0  0  0  0  0  0  0  0  0
    3.5719   -0.2272   -0.4727 O   0  0  0  0  0  0  0  0  0  0  0  0
    4.8913   -0.0346   -0.8221 C   0  0  0  0  0  0  0  0  0  0  0  0
    5.1000   -0.1742   -2.2035 C   0  0  0  0  0  0  0  0  0  0  0  0
    6.3661   -0.0104   -2.7497 C   0  0  0  0  0  0  0  0  0  0  0  0
    7.4342    0.2838   -1.9118 C   0  0  0  0  0  0  0  0  0  0  0  0
    7.2440    0.4015   -0.5239 C   0  0  0  0  0  0  0  0  0  0  0  0
    8.3336    0.6782    0.3148 C   0  0  0  0  0  0  0  0  0  0  0  0
    8.1503    0.7809    1.6857 C   0  0  0  0  0  0  0  0  0  0  0  0
    6.8759    0.6013    2.1754 C   0  0  0  0  0  0  0  0  0  0  0  0
    5.8038    0.3365    1.3972 N   0  0  0  0  0  0  0  0  0  0  0  0
    5.9612    0.2391    0.0539 C   0  0  0  0  0  0  0  0  0  0  0  0
   -3.6946    0.9200    0.4445 C   0  0  0  0  0  0  0  0  0  0  0  0
   -3.7513    2.2314    0.9688 C   0  0  0  0  0  0  0  0  0  0  0  0
   -4.9871    2.8133    1.2619 C   0  0  0  0  0  0  0  0  0  0  0  0
   -6.1637    2.1081    1.0453 C   0  0  0  0  0  0  0  0  0  0  0  0
   -6.1378    0.8077    0.5320 C   0  0  0  0  0  0  0  0  0  0  0  0
   -4.8935    0.2243    0.2329 C   0  0  0  0  0  0  0  0  0  0  0  0
   -6.9142   -1.9597    0.9833 H   0  0  0  0  0  0  0  0  0  0  0  0
   -5.5131   -2.9729    1.3488 H   0  0  0  0  0  0  0  0  0  0  0  0
   -6.7802   -3.5673    0.2638 H   0  0  0  0  0  0  0  0  0  0  0  0
   -4.8067   -2.9149   -1.0170 H   0  0  0  0  0  0  0  0  0  0  0  0
   -6.9268   -2.6268   -2.1513 H   0  0  0  0  0  0  0  0  0  0  0  0
   -5.8207   -1.3354   -2.6445 H   0  0  0  0  0  0  0  0  0  0  0  0
   -7.1336   -0.9961   -1.5105 H   0  0  0  0  0  0  0  0  0  0  0  0
   -2.7167   -2.0106   -0.7686 H   0  0  0  0  0  0  0  0  0  0  0  0
   -0.9136    1.3530    0.4838 H   0  0  0  0  0  0  0  0  0  0  0  0
    1.5853   -0.8756   -0.7665 H   0  0  0  0  0  0  0  0  0  0  0  0
    3.4982    1.4107    0.8207 H   0  0  0  0  0  0  0  0  0  0  0  0
    3.4315   -0.2314    1.5961 H   0  0  0  0  0  0  0  0  0  0  0  0
    4.2607   -0.4033   -2.8561 H   0  0  0  0  0  0  0  0  0  0  0  0
    6.5174   -0.1069   -3.8222 H   0  0  0  0  0  0  0  0  0  0  0  0
    8.4231    0.4115   -2.3479 H   0  0  0  0  0  0  0  0  0  0  0  0
    9.3315    0.8090   -0.0959 H   0  0  0  0  0  0  0  0  0  0  0  0
    8.9821    0.9842    2.3513 H   0  0  0  0  0  0  0  0  0  0  0  0
    6.6703    0.6627    3.2408 H   0  0  0  0  0  0  0  0  0  0  0  0
   -2.8385    2.7929    1.1481 H   0  0  0  0  0  0  0  0  0  0  0  0
   -5.0246    3.8228    1.6633 H   0  0  0  0  0  0  0  0  0  0  0  0
   -7.1193    2.5716    1.2790 H   0  0  0  0  0  0  0  0  0  0  0  0
   -7.0702    0.2770    0.3766 H   0  0  0  0  0  0  0  0  0  0  0  0
  1  2  1  0
  2  3  1  0
  2  4  1  0
  4  5  1  0
  5  6  2  0
  6  7  1  0
  7  8  2  3
  8  9  1  0
  9 10  1  0
 10 11  2  0
 10 12  1  0
 12 13  1  0
 13 14  1  0
 14 15  2  0
 15 16  1  0
 16 17  2  0
 17 18  1  0
 18 19  2  0
 19 20  1  0
 20 21  2  0
 21 22  1  0
 22 23  2  0
  6 24  1  0
 24 25  2  0
 25 26  1  0
 26 27  2  0
 27 28  1  0
 28 29  2  0
 29  4  1  0
 23 14  1  0
 29 24  1  0
 23 18  1  0
  1 30  1  0
  1 31  1  0
  1 32  1  0
  2 33  1  0
  3 34  1  0
  3 35  1  0
  3 36  1  0
  5 37  1  0
  7 38  1  0
  9 39  1  0
 12 40  1  0
 12 41  1  0
 15 42  1  0
 16 43  1  0
 17 44  1  0
 19 45  1  0
 20 46  1  0
 21 47  1  0
 25 48  1  0
 26 49  1  0
 27 50  1  0
 28 51  1  0
M  END
$$$$
