
     RDKit          3D

 48 50  0  0  0  0  0  0  0  0999 V2000
    2.3468   -5.2963   -1.6270 C   0  0  0  0  0  0  0  0  0  0  0  0
    2.7986   -3.9514   -1.6991 O   0  0  0  0  0  0  0  0  0  0  0  0
    1.9071   -2.9772   -1.3344 C   0  0  0  0  0  0  0  0  0  0  0  0
    0.6989   -3.1993   -0.6725 C   0  0  0  0  0  0  0  0  0  0  0  0
   -0.1330   -2.1221   -0.3407 C   0  0  0  0  0  0  0  0  0  0  0  0
    0.2410   -0.8157   -0.6691 C   0  0  0  0  0  0  0  0  0  0  0  0
   -0.6169    0.3336   -0.3189 C   0  0  0  0  0  0  0  0  0  0  0  0
   -1.7754    0.1660    0.2357 N   0  0  0  0  0  0  0  0  0  0  0  0
   -2.4529    1.3091    0.5311 N   0  0  0  0  0  0  0  0  0  0  0  0
   -3.7203    1.3219    1.0212 C   0  0  0  0  0  0  0  0  0  0  0  0
   -4.5216    0.2881    1.1549 N   0  0  0  0  0  0  0  0  0  0  0  0
   -5.7207    0.6619    1.7062 C   0  0  0  0  0  0  0  0  0  0  0  0
   -6.6831   -0.2489    1.9389 O   0  0  0  0  0  0  0  0  0  0  0  0
   -5.8628    2.0115    1.9815 C   0  0  0  0  0  0  0  0  0  0  0  0
   -7.0134    2.8105    2.5078 C   0  0  0  0  0  0  0  0  0  0  0  0
   -7.5583    2.2158    3.7802 C   0  0  0  0  0  0  0  0  0  0  0  0
   -7.8194    1.0358    3.9691 O   0  0  0  0  0  0  0  0  0  0  0  0
   -7.7959    3.1309    4.7386 O   0  0  0  0  0  0  0  0  0  0  0  0
   -4.4090    2.8182    1.5312 S   0  0  0  0  0  0  0  0  0  0  0  0
    1.4428   -0.5790   -1.3282 C   0  0  0  0  0  0  0  0  0  0  0  0
    2.2698   -1.6577   -1.6443 C   0  0  0  0  0  0  0  0  0  0  0  0
    3.4213   -1.3886   -2.3420 O   0  0  0  0  0  0  0  0  0  0  0  0
    4.5511   -1.2992   -1.4574 C   0  0  0  0  0  0  0  0  0  0  0  0
    5.0258    0.1376   -1.4141 C   0  0  0  0  0  0  0  0  0  0  0  0
    5.2079    0.8000   -0.1915 C   0  0  0  0  0  0  0  0  0  0  0  0
    5.6390    2.1299   -0.1667 C   0  0  0  0  0  0  0  0  0  0  0  0
    5.8916    2.8016   -1.3619 C   0  0  0  0  0  0  0  0  0  0  0  0
    6.4131    4.4425   -1.3291 Cl  0  0  0  0  0  0  0  0  0  0  0  0
    5.7239    2.1543   -2.5836 C   0  0  0  0  0  0  0  0  0  0  0  0
    5.2963    0.8256   -2.6086 C   0  0  0  0  0  0  0  0  0  0  0  0
    3.1235   -5.9320   -2.0626 H   0  0  0  0  0  0  0  0  0  0  0  0
    1.4299   -5.4454   -2.2085 H   0  0  0  0  0  0  0  0  0  0  0  0
    2.2068   -5.6076   -0.5877 H   0  0  0  0  0  0  0  0  0  0  0  0
    0.3705   -4.1955   -0.3986 H   0  0  0  0  0  0  0  0  0  0  0  0
   -1.0747   -2.3082    0.1709 H   0  0  0  0  0  0  0  0  0  0  0  0
   -0.2198    1.3458   -0.5537 H   0  0  0  0  0  0  0  0  0  0  0  0
   -1.9923    2.2112    0.4371 H   0  0  0  0  0  0  0  0  0  0  0  0
   -7.2467    0.0195    2.6900 H   0  0  0  0  0  0  0  0  0  0  0  0
   -7.8247    2.8410    1.7711 H   0  0  0  0  0  0  0  0  0  0  0  0
   -6.7130    3.8467    2.7063 H   0  0  0  0  0  0  0  0  0  0  0  0
   -8.1531    2.6190    5.4947 H   0  0  0  0  0  0  0  0  0  0  0  0
    1.7460    0.4233   -1.6009 H   0  0  0  0  0  0  0  0  0  0  0  0
    5.3518   -1.9307   -1.8737 H   0  0  0  0  0  0  0  0  0  0  0  0
    4.3377   -1.6740   -0.4419 H   0  0  0  0  0  0  0  0  0  0  0  0
    5.0127    0.2903    0.7490 H   0  0  0  0  0  0  0  0  0  0  0  0
    5.7739    2.6365    0.7854 H   0  0  0  0  0  0  0  0  0  0  0  0
    5.9191    2.6739   -3.5168 H   0  0  0  0  0  0  0  0  0  0  0  0
    5.1602    0.3268   -3.5674 H   0  0  0  0  0  0  0  0  0  0  0  0
  1  2  1  0
  2  3  1  0
  3  4  2  0
  4  5  1  0
  5  6  2  0
  6  7  1  0
  7  8  2  3
  8  9  1  0
  9 10  1  0
 10 11  2  0
 11 12  1  0
 12 13  1  0
 12 14  2  0
 14 15  1  0
 15 16  1  0
 16 17  2  0
 16 18  1  0
 14 19  1  0
  6 20  1  0
 20 21  2  0
 21 22  1  0
 22 23  1  0
 23 24  1  0
 24 25  2  0
 25 26  1  0
 26 27  2  0
 27 28  1  0
 27 29  1  0
 29 30  2  0
 21  3  1  0
 30 24  1  0
 19 10  1  0
  1 31  1  0
  1 32  1  0
  1 33  1  0
  4 34  1  0
  5 35  1  0
  7 36  1  0
  9 37  1  0
 13 38  1  0
 15 39  1  0
 15 40  1  0
 18 41  1  0
 20 42  1  0
 23 43  1  0
 23 44  1  0
 25 45  1  0
 26 46  1  0
 29 47  1  0
 30 48  1  0
M  END
$$$$
