
     RDKit          3D

 37 40  0  0  0  0  0  0  0  0999 V2000
    1.8573    0.2734    2.1625 O   0  0  0  0  0  0  0  0  0  0  0  0
    1.8168    0.1387    0.9478 C   0  0  0  0  0  0  0  0  0  0  0  0
    2.7878    0.4272    0.0205 N   0  0  0  0  0  0  0  0  0  0  0  0
    4.0564    0.8831    0.2666 C   0  0  0  0  0  0  0  0  0  0  0  0
    4.8824    1.1358   -0.7227 N   0  0  0  0  0  0  0  0  0  0  0  0
    6.0895    1.5747   -0.2130 C   0  0  0  0  0  0  0  0  0  0  0  0
    6.1623    1.6429    1.1610 C   0  0  0  0  0  0  0  0  0  0  0  0
    4.6693    1.1408    1.8347 S   0  0  0  0  0  0  0  0  0  0  0  0
    0.5474   -0.3361    0.3498 C   0  0  0  0  0  0  0  0  0  0  0  0
   -0.5836    0.4383    0.6157 C   0  0  0  0  0  0  0  0  0  0  0  0
   -1.7862    0.0753    0.0357 C   0  0  0  0  0  0  0  0  0  0  0  0
   -3.0437    0.8285    0.2358 C   0  0  0  0  0  0  0  0  0  0  0  0
   -3.0602    2.2131    0.4899 C   0  0  0  0  0  0  0  0  0  0  0  0
   -4.2613    2.9058    0.6805 C   0  0  0  0  0  0  0  0  0  0  0  0
   -5.4757    2.2297    0.6175 C   0  0  0  0  0  0  0  0  0  0  0  0
   -5.4909    0.8631    0.3596 C   0  0  0  0  0  0  0  0  0  0  0  0
   -4.2891    0.1742    0.1693 C   0  0  0  0  0  0  0  0  0  0  0  0
   -1.8750   -1.0165   -0.7654 N   0  0  0  0  0  0  0  0  0  0  0  0
   -0.7934   -1.7801   -0.9937 C   0  0  0  0  0  0  0  0  0  0  0  0
   -0.9385   -2.8995   -1.8022 C   0  0  0  0  0  0  0  0  0  0  0  0
    0.1278   -3.7586   -2.0765 C   0  0  0  0  0  0  0  0  0  0  0  0
    1.3743   -3.5032   -1.5246 C   0  0  0  0  0  0  0  0  0  0  0  0
    1.5475   -2.3843   -0.7123 C   0  0  0  0  0  0  0  0  0  0  0  0
    0.4710   -1.4971   -0.4488 C   0  0  0  0  0  0  0  0  0  0  0  0
    2.5900    0.3301   -0.9666 H   0  0  0  0  0  0  0  0  0  0  0  0
    6.8910    1.8336   -0.8943 H   0  0  0  0  0  0  0  0  0  0  0  0
    6.9911    1.9520    1.7811 H   0  0  0  0  0  0  0  0  0  0  0  0
   -0.5076    1.2982    1.2735 H   0  0  0  0  0  0  0  0  0  0  0  0
   -2.1349    2.7831    0.5281 H   0  0  0  0  0  0  0  0  0  0  0  0
   -4.2454    3.9755    0.8738 H   0  0  0  0  0  0  0  0  0  0  0  0
   -6.4086    2.7672    0.7644 H   0  0  0  0  0  0  0  0  0  0  0  0
   -6.4352    0.3280    0.3043 H   0  0  0  0  0  0  0  0  0  0  0  0
   -4.3273   -0.8958   -0.0315 H   0  0  0  0  0  0  0  0  0  0  0  0
   -1.9166   -3.1138   -2.2285 H   0  0  0  0  0  0  0  0  0  0  0  0
   -0.0251   -4.6283   -2.7104 H   0  0  0  0  0  0  0  0  0  0  0  0
    2.2072   -4.1750   -1.7174 H   0  0  0  0  0  0  0  0  0  0  0  0
    2.5291   -2.2237   -0.2703 H   0  0  0  0  0  0  0  0  0  0  0  0
  1  2  2  0
  2  3  1  0
  3  4  1  0
  4  5  2  0
  5  6  1  0
  6  7  2  0
  7  8  1  0
  2  9  1  0
  9 10  2  0
 10 11  1  0
 11 12  1  0
 12 13  2  0
 13 14  1  0
 14 15  2  0
 15 16  1  0
 16 17  2  0
 11 18  2  0
 18 19  1  0
 19 20  2  0
 20 21  1  0
 21 22  2  0
 22 23  1  0
 23 24  2  0
  8  4  1  0
 24  9  1  0
 17 12  1  0
 24 19  1  0
  3 25  1  0
  6 26  1  0
  7 27  1  0
 10 28  1  0
 13 29  1  0
 14 30  1  0
 15 31  1  0
 16 32  1  0
 17 33  1  0
 20 34  1  0
 21 35  1  0
 22 36  1  0
 23 37  1  0
M  END
$$$$
