
     RDKit          3D

 39 42  0  0  0  0  0  0  0  0999 V2000
    0.5373   -1.7736    3.6001 N   0  0  0  0  0  0  0  0  0  0  0  0
    0.4917   -2.2051    2.5228 C   0  0  0  0  0  0  0  0  0  0  0  0
    0.4138   -2.7384    1.1557 C   0  0  0  0  0  0  0  0  0  0  0  0
   -1.0283   -2.1210    0.2313 S   0  0  0  0  0  0  0  0  0  0  0  0
   -0.6646   -0.3952    0.1671 C   0  0  0  0  0  0  0  0  0  0  0  0
    0.5818   -0.0735    0.3163 N   0  0  0  0  0  0  0  0  0  0  0  0
    0.9066    1.2311    0.1421 C   0  0  0  0  0  0  0  0  0  0  0  0
    0.0505    2.1802   -0.2214 C   0  0  0  0  0  0  0  0  0  0  0  0
    0.7624    3.7273   -0.3907 S   0  0  0  0  0  0  0  0  0  0  0  0
    2.3527    3.0599    0.0561 C   0  0  0  0  0  0  0  0  0  0  0  0
    3.7304    3.9920    0.1321 S   0  0  0  0  0  0  0  0  0  0  0  0
    2.2009    1.6938    0.3077 N   0  0  0  0  0  0  0  0  0  0  0  0
    3.2864    0.7850    0.6828 C   0  0  0  0  0  0  0  0  0  0  0  0
    3.7973    0.0699   -0.5194 C   0  0  0  0  0  0  0  0  0  0  0  0
    4.5639    0.4536   -1.6016 C   0  0  0  0  0  0  0  0  0  0  0  0
    4.7162   -0.6960   -2.4132 C   0  0  0  0  0  0  0  0  0  0  0  0
    4.0405   -1.7083   -1.7748 C   0  0  0  0  0  0  0  0  0  0  0  0
    3.4824   -1.2558   -0.6232 O   0  0  0  0  0  0  0  0  0  0  0  0
   -1.3679    1.8547   -0.4100 C   0  0  0  0  0  0  0  0  0  0  0  0
   -2.1625    2.7316   -0.7434 O   0  0  0  0  0  0  0  0  0  0  0  0
   -1.6885    0.5141   -0.1372 N   0  0  0  0  0  0  0  0  0  0  0  0
   -3.0800    0.1597   -0.1354 C   0  0  0  0  0  0  0  0  0  0  0  0
   -3.9080    0.5116   -1.2147 C   0  0  0  0  0  0  0  0  0  0  0  0
   -5.2667    0.1846   -1.2074 C   0  0  0  0  0  0  0  0  0  0  0  0
   -5.8061   -0.4817   -0.1156 C   0  0  0  0  0  0  0  0  0  0  0  0
   -7.1081   -0.7938   -0.1082 F   0  0  0  0  0  0  0  0  0  0  0  0
   -5.0145   -0.8200    0.9739 C   0  0  0  0  0  0  0  0  0  0  0  0
   -3.6552   -0.4944    0.9682 C   0  0  0  0  0  0  0  0  0  0  0  0
    0.3200   -3.8286    1.2025 H   0  0  0  0  0  0  0  0  0  0  0  0
    1.3322   -2.5314    0.5987 H   0  0  0  0  0  0  0  0  0  0  0  0
    2.9230    0.0801    1.4399 H   0  0  0  0  0  0  0  0  0  0  0  0
    4.1043    1.3425    1.1492 H   0  0  0  0  0  0  0  0  0  0  0  0
    4.9647    1.4416   -1.7834 H   0  0  0  0  0  0  0  0  0  0  0  0
    5.2551   -0.7776   -3.3468 H   0  0  0  0  0  0  0  0  0  0  0  0
    3.8741   -2.7529   -1.9979 H   0  0  0  0  0  0  0  0  0  0  0  0
   -3.5057    1.0356   -2.0794 H   0  0  0  0  0  0  0  0  0  0  0  0
   -5.9048    0.4520   -2.0440 H   0  0  0  0  0  0  0  0  0  0  0  0
   -5.4609   -1.3237    1.8257 H   0  0  0  0  0  0  0  0  0  0  0  0
   -3.0666   -0.7300    1.8522 H   0  0  0  0  0  0  0  0  0  0  0  0
  1  2  3  0
  2  3  1  0
  3  4  1  0
  4  5  1  0
  5  6  2  0
  6  7  1  0
  7  8  2  0
  8  9  1  0
  9 10  1  0
 10 11  2  0
 10 12  1  0
 12 13  1  0
 13 14  1  0
 14 15  2  0
 15 16  1  0
 16 17  2  0
 17 18  1  0
  8 19  1  0
 19 20  2  0
 19 21  1  0
 21 22  1  0
 22 23  2  0
 23 24  1  0
 24 25  2  0
 25 26  1  0
 25 27  1  0
 27 28  2  0
 21  5  1  0
 28 22  1  0
 12  7  1  0
 18 14  1  0
  3 29  1  0
  3 30  1  0
 13 31  1  0
 13 32  1  0
 15 33  1  0
 16 34  1  0
 17 35  1  0
 23 36  1  0
 24 37  1  0
 27 38  1  0
 28 39  1  0
M  END
$$$$
