
     RDKit          3D

 39 41  0  0  0  0  0  0  0  0999 V2000
    0.6087   -1.5077    1.6071 O   0  0  0  0  0  0  0  0  0  0  0  0
    0.1415   -0.6729    0.8357 C   0  0  0  0  0  0  0  0  0  0  0  0
    0.9132    0.2373    0.1446 N   0  0  0  0  0  0  0  0  0  0  0  0
    2.3682    0.2175    0.2152 C   0  0  0  0  0  0  0  0  0  0  0  0
    2.9490    1.5798   -0.1665 C   0  0  0  0  0  0  0  0  0  0  0  0
    4.4700    1.6179   -0.0023 C   0  0  0  0  0  0  0  0  0  0  0  0
    5.1416    0.2588   -0.2049 C   0  0  0  0  0  0  0  0  0  0  0  0
    4.3615   -0.6184   -1.1736 C   0  0  0  0  0  0  0  0  0  0  0  0
    2.9416   -0.8993   -0.6752 C   0  0  0  0  0  0  0  0  0  0  0  0
   -1.3359   -0.5972    0.6655 C   0  0  0  0  0  0  0  0  0  0  0  0
   -1.9186   -0.0403   -0.4826 C   0  0  0  0  0  0  0  0  0  0  0  0
   -3.3169    0.0374   -0.6170 C   0  0  0  0  0  0  0  0  0  0  0  0
   -3.9118    0.5994   -1.7586 C   0  0  0  0  0  0  0  0  0  0  0  0
   -5.3008    0.6730   -1.8777 C   0  0  0  0  0  0  0  0  0  0  0  0
   -6.1134    0.1848   -0.8591 C   0  0  0  0  0  0  0  0  0  0  0  0
   -5.5395   -0.3804    0.2804 C   0  0  0  0  0  0  0  0  0  0  0  0
   -4.1447   -0.4623    0.4155 C   0  0  0  0  0  0  0  0  0  0  0  0
   -3.5563   -1.0388    1.5498 C   0  0  0  0  0  0  0  0  0  0  0  0
   -2.1695   -1.1150    1.6660 C   0  0  0  0  0  0  0  0  0  0  0  0
   -1.6925   -1.7181    2.8011 O   0  0  0  0  0  0  0  0  0  0  0  0
    0.4763    0.9602   -0.4088 H   0  0  0  0  0  0  0  0  0  0  0  0
    2.6407    0.0060    1.2579 H   0  0  0  0  0  0  0  0  0  0  0  0
    2.6911    1.8071   -1.2097 H   0  0  0  0  0  0  0  0  0  0  0  0
    2.4971    2.3775    0.4357 H   0  0  0  0  0  0  0  0  0  0  0  0
    4.8812    2.3450   -0.7131 H   0  0  0  0  0  0  0  0  0  0  0  0
    4.7262    1.9903    0.9970 H   0  0  0  0  0  0  0  0  0  0  0  0
    5.2208   -0.2554    0.7613 H   0  0  0  0  0  0  0  0  0  0  0  0
    6.1664    0.4051   -0.5644 H   0  0  0  0  0  0  0  0  0  0  0  0
    4.3106   -0.1181   -2.1491 H   0  0  0  0  0  0  0  0  0  0  0  0
    4.8875   -1.5658   -1.3368 H   0  0  0  0  0  0  0  0  0  0  0  0
    2.9339   -1.8385   -0.1072 H   0  0  0  0  0  0  0  0  0  0  0  0
    2.2971   -1.0747   -1.5464 H   0  0  0  0  0  0  0  0  0  0  0  0
   -1.2967    0.3155   -1.2986 H   0  0  0  0  0  0  0  0  0  0  0  0
   -3.2976    0.9869   -2.5685 H   0  0  0  0  0  0  0  0  0  0  0  0
   -5.7479    1.1110   -2.7665 H   0  0  0  0  0  0  0  0  0  0  0  0
   -7.1952    0.2407   -0.9507 H   0  0  0  0  0  0  0  0  0  0  0  0
   -6.1911   -0.7605    1.0645 H   0  0  0  0  0  0  0  0  0  0  0  0
   -4.1727   -1.4416    2.3503 H   0  0  0  0  0  0  0  0  0  0  0  0
   -0.7230   -1.8462    2.6877 H   0  0  0  0  0  0  0  0  0  0  0  0
  1  2  2  0
  2  3  1  0
  3  4  1  0
  4  5  1  0
  5  6  1  0
  6  7  1  0
  7  8  1  0
  8  9  1  0
  2 10  1  0
 10 11  2  0
 11 12  1  0
 12 13  2  0
 13 14  1  0
 14 15  2  0
 15 16  1  0
 16 17  2  0
 17 18  1  0
 18 19  2  0
 19 20  1  0
  9  4  1  0
 19 10  1  0
 17 12  1  0
  3 21  1  0
  4 22  1  0
  5 23  1  0
  5 24  1  0
  6 25  1  0
  6 26  1  0
  7 27  1  0
  7 28  1  0
  8 29  1  0
  8 30  1  0
  9 31  1  0
  9 32  1  0
 11 33  1  0
 13 34  1  0
 14 35  1  0
 15 36  1  0
 16 37  1  0
 18 38  1  0
 20 39  1  0
M  END
$$$$
