
     RDKit          3D

 44 46  0  0  0  0  0  0  0  0999 V2000
    2.6506    4.1333   -3.2895 C   0  0  0  0  0  0  0  0  0  0  0  0
    3.0052    2.8313   -2.7316 N   0  0  0  0  0  0  0  0  0  0  0  0
    3.0683    2.8986   -1.2562 C   0  0  0  0  0  0  0  0  0  0  0  0
    2.8456    1.5382   -0.5587 C   0  0  0  0  0  0  0  0  0  0  0  0
    1.4965    0.9972   -0.8531 N   0  0  0  0  0  0  0  0  0  0  0  0
    0.7981    0.1602    0.0351 C   0  0  0  0  0  0  0  0  0  0  0  0
   -0.5237   -0.0976   -0.0635 C   0  0  0  0  0  0  0  0  0  0  0  0
   -1.2758   -0.9418    0.8541 C   0  0  0  0  0  0  0  0  0  0  0  0
   -2.5606   -1.2600    0.6051 C   0  0  0  0  0  0  0  0  0  0  0  0
   -3.3823   -2.0961    1.4886 C   0  0  0  0  0  0  0  0  0  0  0  0
   -4.6321   -2.5131    1.1596 C   0  0  0  0  0  0  0  0  0  0  0  0
   -5.4138   -3.3010    2.0554 C   0  0  0  0  0  0  0  0  0  0  0  0
   -6.0399   -3.9404    2.7945 N   0  0  0  0  0  0  0  0  0  0  0  0
   -5.2427   -2.1839   -0.0868 C   0  0  0  0  0  0  0  0  0  0  0  0
   -5.7297   -1.9070   -1.1034 N   0  0  0  0  0  0  0  0  0  0  0  0
   -2.7222   -2.4495    2.8162 C   0  0  0  0  0  0  0  0  0  0  0  0
   -1.2191   -2.6817    2.6693 C   0  0  0  0  0  0  0  0  0  0  0  0
   -0.5398   -1.4417    2.0776 C   0  0  0  0  0  0  0  0  0  0  0  0
    0.9234   -1.7372    1.7447 C   0  0  0  0  0  0  0  0  0  0  0  0
    1.6008   -0.5018    1.1489 C   0  0  0  0  0  0  0  0  0  0  0  0
    0.9561    1.4069   -2.1720 C   0  0  0  0  0  0  0  0  0  0  0  0
    2.0765    1.7709   -3.1731 C   0  0  0  0  0  0  0  0  0  0  0  0
    2.7018    4.1081   -4.3836 H   0  0  0  0  0  0  0  0  0  0  0  0
    3.3611    4.8996   -2.9601 H   0  0  0  0  0  0  0  0  0  0  0  0
    1.6418    4.4483   -2.9993 H   0  0  0  0  0  0  0  0  0  0  0  0
    4.0490    3.2937   -0.9671 H   0  0  0  0  0  0  0  0  0  0  0  0
    2.3119    3.5965   -0.8707 H   0  0  0  0  0  0  0  0  0  0  0  0
    3.6057    0.8156   -0.8789 H   0  0  0  0  0  0  0  0  0  0  0  0
    2.9664    1.6974    0.5188 H   0  0  0  0  0  0  0  0  0  0  0  0
   -1.0971    0.3605   -0.8642 H   0  0  0  0  0  0  0  0  0  0  0  0
   -3.0169   -0.8788   -0.3080 H   0  0  0  0  0  0  0  0  0  0  0  0
   -3.1544   -3.3521    3.2611 H   0  0  0  0  0  0  0  0  0  0  0  0
   -2.8972   -1.6287    3.5242 H   0  0  0  0  0  0  0  0  0  0  0  0
   -0.7848   -2.9111    3.6499 H   0  0  0  0  0  0  0  0  0  0  0  0
   -1.0447   -3.5589    2.0315 H   0  0  0  0  0  0  0  0  0  0  0  0
   -0.5677   -0.6413    2.8314 H   0  0  0  0  0  0  0  0  0  0  0  0
    1.4647   -2.0500    2.6457 H   0  0  0  0  0  0  0  0  0  0  0  0
    0.9906   -2.5687    1.0299 H   0  0  0  0  0  0  0  0  0  0  0  0
    1.7732    0.2350    1.9435 H   0  0  0  0  0  0  0  0  0  0  0  0
    2.5822   -0.8149    0.7727 H   0  0  0  0  0  0  0  0  0  0  0  0
    0.3773    0.5866   -2.6128 H   0  0  0  0  0  0  0  0  0  0  0  0
    0.2824    2.2612   -2.0349 H   0  0  0  0  0  0  0  0  0  0  0  0
    1.6340    2.0124   -4.1477 H   0  0  0  0  0  0  0  0  0  0  0  0
    2.6814    0.8702   -3.3427 H   0  0  0  0  0  0  0  0  0  0  0  0
  1  2  1  0
  2  3  1  0
  3  4  1  0
  4  5  1  0
  5  6  1  0
  6  7  2  0
  7  8  1  0
  8  9  2  0
  9 10  1  0
 10 11  2  3
 11 12  1  0
 12 13  3  0
 11 14  1  0
 14 15  3  0
 10 16  1  0
 16 17  1  0
 17 18  1  0
 18 19  1  0
 19 20  1  0
  5 21  1  0
 21 22  1  0
 22  2  1  0
 20  6  1  0
 18  8  1  0
  1 23  1  0
  1 24  1  0
  1 25  1  0
  3 26  1  0
  3 27  1  0
  4 28  1  0
  4 29  1  0
  7 30  1  0
  9 31  1  0
 16 32  1  0
 16 33  1  0
 17 34  1  0
 17 35  1  0
 18 36  1  0
 19 37  1  0
 19 38  1  0
 20 39  1  0
 20 40  1  0
 21 41  1  0
 21 42  1  0
 22 43  1  0
 22 44  1  0
M  END
$$$$
