
     RDKit          3D

 53 56  0  0  0  0  0  0  0  0999 V2000
    7.0964    0.1335   -3.0476 C   0  0  0  0  0  0  0  0  0  0  0  0
    6.6173   -0.7286   -2.0229 O   0  0  0  0  0  0  0  0  0  0  0  0
    5.6582   -0.2208   -1.1898 C   0  0  0  0  0  0  0  0  0  0  0  0
    5.2319   -1.0956   -0.1874 C   0  0  0  0  0  0  0  0  0  0  0  0
    4.2563   -0.7070    0.7343 C   0  0  0  0  0  0  0  0  0  0  0  0
    3.6953    0.5738    0.6694 C   0  0  0  0  0  0  0  0  0  0  0  0
    2.6217    1.0012    1.6356 C   0  0  0  0  0  0  0  0  0  0  0  0
    1.3146    0.8008    1.0525 N   0  0  0  0  0  0  0  0  0  0  0  0
    0.5928    1.8398    0.4836 C   0  0  0  0  0  0  0  0  0  0  0  0
    1.0199    2.9939    0.4810 O   0  0  0  0  0  0  0  0  0  0  0  0
   -0.6937    1.4127   -0.2162 C   0  0  0  0  0  0  0  0  0  0  0  0
   -1.3544    2.5527   -0.8707 C   0  0  0  0  0  0  0  0  0  0  0  0
   -1.9212    3.3975   -1.4345 N   0  0  0  0  0  0  0  0  0  0  0  0
   -1.6615    0.7055    0.7094 C   0  0  0  0  0  0  0  0  0  0  0  0
   -1.7217    1.1178    2.0072 N   0  0  0  0  0  0  0  0  0  0  0  0
   -2.5912    0.4880    2.8149 C   0  0  0  0  0  0  0  0  0  0  0  0
   -2.6979    0.8717    4.1461 C   0  0  0  0  0  0  0  0  0  0  0  0
   -3.5878    0.2378    5.0140 C   0  0  0  0  0  0  0  0  0  0  0  0
   -4.3883   -0.7935    4.5405 C   0  0  0  0  0  0  0  0  0  0  0  0
   -4.2865   -1.1855    3.2046 C   0  0  0  0  0  0  0  0  0  0  0  0
   -3.4007   -0.5628    2.3330 C   0  0  0  0  0  0  0  0  0  0  0  0
   -3.3326   -0.9686    1.0509 N   0  0  0  0  0  0  0  0  0  0  0  0
   -2.4713   -0.3349    0.2248 C   0  0  0  0  0  0  0  0  0  0  0  0
   -2.4145   -0.7048   -1.1302 N   0  0  0  0  0  0  0  0  0  0  0  0
   -2.5545   -2.1558   -1.3684 C   0  0  0  0  0  0  0  0  0  0  0  0
   -3.2843   -2.2425   -2.7027 C   0  0  0  0  0  0  0  0  0  0  0  0
   -4.2793   -1.1057   -2.5837 C   0  0  0  0  0  0  0  0  0  0  0  0
   -3.4587   -0.0037   -1.9183 C   0  0  0  0  0  0  0  0  0  0  0  0
    4.1193    1.4456   -0.3431 C   0  0  0  0  0  0  0  0  0  0  0  0
    5.0949    1.0528   -1.2655 C   0  0  0  0  0  0  0  0  0  0  0  0
    6.2960    0.3949   -3.7473 H   0  0  0  0  0  0  0  0  0  0  0  0
    7.8670   -0.4065   -3.6079 H   0  0  0  0  0  0  0  0  0  0  0  0
    7.5621    1.0302   -2.6250 H   0  0  0  0  0  0  0  0  0  0  0  0
    5.6674   -2.0903   -0.1247 H   0  0  0  0  0  0  0  0  0  0  0  0
    3.9437   -1.4114    1.5017 H   0  0  0  0  0  0  0  0  0  0  0  0
    2.6678    0.4003    2.5507 H   0  0  0  0  0  0  0  0  0  0  0  0
    2.7648    2.0476    1.9284 H   0  0  0  0  0  0  0  0  0  0  0  0
    0.9666   -0.1476    1.0038 H   0  0  0  0  0  0  0  0  0  0  0  0
   -0.3548    0.7188   -0.9978 H   0  0  0  0  0  0  0  0  0  0  0  0
   -2.0733    1.6833    4.5129 H   0  0  0  0  0  0  0  0  0  0  0  0
   -3.6566    0.5555    6.0514 H   0  0  0  0  0  0  0  0  0  0  0  0
   -5.0906   -1.2942    5.2031 H   0  0  0  0  0  0  0  0  0  0  0  0
   -4.9145   -1.9915    2.8321 H   0  0  0  0  0  0  0  0  0  0  0  0
   -3.1468   -2.6747   -0.6049 H   0  0  0  0  0  0  0  0  0  0  0  0
   -1.5702   -2.6319   -1.4218 H   0  0  0  0  0  0  0  0  0  0  0  0
   -2.5912   -2.0576   -3.5323 H   0  0  0  0  0  0  0  0  0  0  0  0
   -3.7625   -3.2134   -2.8581 H   0  0  0  0  0  0  0  0  0  0  0  0
   -4.6924   -0.7964   -3.5478 H   0  0  0  0  0  0  0  0  0  0  0  0
   -5.1115   -1.3999   -1.9321 H   0  0  0  0  0  0  0  0  0  0  0  0
   -2.9596    0.6012   -2.6844 H   0  0  0  0  0  0  0  0  0  0  0  0
   -4.1029    0.6597   -1.3270 H   0  0  0  0  0  0  0  0  0  0  0  0
    3.6850    2.4420   -0.4197 H   0  0  0  0  0  0  0  0  0  0  0  0
    5.3880    1.7667   -2.0282 H   0  0  0  0  0  0  0  0  0  0  0  0
  1  2  1  0
  2  3  1  0
  3  4  2  0
  4  5  1  0
  5  6  2  0
  6  7  1  0
  7  8  1  0
  8  9  1  0
  9 10  2  0
  9 11  1  0
 11 12  1  0
 12 13  3  0
 11 14  1  0
 14 15  2  0
 15 16  1  0
 16 17  2  0
 17 18  1  0
 18 19  2  0
 19 20  1  0
 20 21  2  0
 21 22  1  0
 22 23  2  0
 23 24  1  0
 24 25  1  0
 25 26  1  0
 26 27  1  0
 27 28  1  0
  6 29  1  0
 29 30  2  0
 30  3  1  0
 23 14  1  0
 28 24  1  0
 21 16  1  0
  1 31  1  0
  1 32  1  0
  1 33  1  0
  4 34  1  0
  5 35  1  0
  7 36  1  0
  7 37  1  0
  8 38  1  0
 11 39  1  0
 17 40  1  0
 18 41  1  0
 19 42  1  0
 20 43  1  0
 25 44  1  0
 25 45  1  0
 26 46  1  0
 26 47  1  0
 27 48  1  0
 27 49  1  0
 28 50  1  0
 28 51  1  0
 29 52  1  0
 30 53  1  0
M  END
$$$$
