
     RDKit          3D

 46 49  0  0  0  0  0  0  0  0999 V2000
    6.1440    1.1625   -1.6921 N   0  0  0  0  0  0  0  0  0  0  0  0
    6.0150   -0.3252   -0.9110 S   0  0  0  0  0  6  0  0  0  0  0  0
    6.7350   -0.2357    0.3369 O   0  0  0  0  0  0  0  0  0  0  0  0
    6.3192   -1.3186   -1.9151 O   0  0  0  0  0  0  0  0  0  0  0  0
    4.2809   -0.3859   -0.5582 C   0  0  0  0  0  0  0  0  0  0  0  0
    3.4113   -1.0187   -1.4414 C   0  0  0  0  0  0  0  0  0  0  0  0
    2.0436   -1.0496   -1.1490 C   0  0  0  0  0  0  0  0  0  0  0  0
    1.5140   -0.4690    0.0198 C   0  0  0  0  0  0  0  0  0  0  0  0
    0.1448   -0.5132    0.2766 N   0  0  0  0  0  0  0  0  0  0  0  0
   -0.7062   -1.1540   -0.5781 N   0  0  0  0  0  0  0  0  0  0  0  0
   -1.8634   -1.2218    0.0079 C   0  0  0  0  0  0  0  0  0  0  0  0
   -3.0563   -1.8342   -0.6225 C   0  0  0  0  0  0  0  0  0  0  0  0
   -4.2644   -1.9673    0.0714 C   0  0  0  0  0  0  0  0  0  0  0  0
   -5.3703   -2.5489   -0.5547 C   0  0  0  0  0  0  0  0  0  0  0  0
   -5.2742   -2.9992   -1.8708 C   0  0  0  0  0  0  0  0  0  0  0  0
   -4.0729   -2.8710   -2.5654 C   0  0  0  0  0  0  0  0  0  0  0  0
   -2.9659   -2.2905   -1.9436 C   0  0  0  0  0  0  0  0  0  0  0  0
   -1.9047   -0.6593    1.4020 C   0  0  0  0  0  0  0  0  0  0  0  0
   -0.5226   -0.0079    1.4784 C   0  0  0  0  0  0  0  0  0  0  0  0
   -0.6346    1.5108    1.5080 C   0  0  0  0  0  0  0  0  0  0  0  0
   -0.8454    2.2642    0.3403 C   0  0  0  0  0  0  0  0  0  0  0  0
   -0.9666    3.6544    0.3982 C   0  0  0  0  0  0  0  0  0  0  0  0
   -0.8847    4.3038    1.6267 C   0  0  0  0  0  0  0  0  0  0  0  0
   -1.0483    6.1851    1.7072 Br  0  0  0  0  0  0  0  0  0  0  0  0
   -0.6847    3.5765    2.7977 C   0  0  0  0  0  0  0  0  0  0  0  0
   -0.5634    2.1857    2.7388 C   0  0  0  0  0  0  0  0  0  0  0  0
    2.4264    0.1464    0.8937 C   0  0  0  0  0  0  0  0  0  0  0  0
    3.7982    0.1893    0.6159 C   0  0  0  0  0  0  0  0  0  0  0  0
    6.4321    1.0000   -2.6585 H   0  0  0  0  0  0  0  0  0  0  0  0
    5.2887    1.7153   -1.6401 H   0  0  0  0  0  0  0  0  0  0  0  0
    3.7751   -1.4901   -2.3513 H   0  0  0  0  0  0  0  0  0  0  0  0
    1.3741   -1.5451   -1.8503 H   0  0  0  0  0  0  0  0  0  0  0  0
   -4.3710   -1.6312    1.0981 H   0  0  0  0  0  0  0  0  0  0  0  0
   -6.3086   -2.6524   -0.0149 H   0  0  0  0  0  0  0  0  0  0  0  0
   -6.1359   -3.4521   -2.3555 H   0  0  0  0  0  0  0  0  0  0  0  0
   -3.9956   -3.2233   -3.5911 H   0  0  0  0  0  0  0  0  0  0  0  0
   -2.0335   -2.1972   -2.4968 H   0  0  0  0  0  0  0  0  0  0  0  0
   -1.9874   -1.4884    2.1130 H   0  0  0  0  0  0  0  0  0  0  0  0
   -2.7364    0.0366    1.5411 H   0  0  0  0  0  0  0  0  0  0  0  0
   -0.0062   -0.3623    2.3797 H   0  0  0  0  0  0  0  0  0  0  0  0
   -0.9073    1.7690   -0.6283 H   0  0  0  0  0  0  0  0  0  0  0  0
   -1.1224    4.2159   -0.5192 H   0  0  0  0  0  0  0  0  0  0  0  0
   -0.6223    4.0810    3.7584 H   0  0  0  0  0  0  0  0  0  0  0  0
   -0.4100    1.6333    3.6639 H   0  0  0  0  0  0  0  0  0  0  0  0
    2.0878    0.6118    1.8146 H   0  0  0  0  0  0  0  0  0  0  0  0
    4.4751    0.6704    1.3193 H   0  0  0  0  0  0  0  0  0  0  0  0
  1  2  1  0
  2  3  2  0
  2  4  2  0
  2  5  1  0
  5  6  2  0
  6  7  1  0
  7  8  2  0
  8  9  1  0
  9 10  1  0
 10 11  2  0
 11 12  1  0
 12 13  2  0
 13 14  1  0
 14 15  2  0
 15 16  1  0
 16 17  2  0
 11 18  1  0
 18 19  1  0
 19 20  1  0
 20 21  2  0
 21 22  1  0
 22 23  2  0
 23 24  1  0
 23 25  1  0
 25 26  2  0
  8 27  1  0
 27 28  2  0
 28  5  1  0
 19  9  1  0
 26 20  1  0
 17 12  1  0
  1 29  1  0
  1 30  1  0
  6 31  1  0
  7 32  1  0
 13 33  1  0
 14 34  1  0
 15 35  1  0
 16 36  1  0
 17 37  1  0
 18 38  1  0
 18 39  1  0
 19 40  1  0
 21 41  1  0
 22 42  1  0
 25 43  1  0
 26 44  1  0
 27 45  1  0
 28 46  1  0
M  END
$$$$
