
     RDKit          3D

 53 56  0  0  0  0  0  0  0  0999 V2000
   -9.3513    0.0772    0.6819 C   0  0  0  0  0  0  0  0  0  0  0  0
   -7.9844   -0.1910    0.3987 O   0  0  0  0  0  0  0  0  0  0  0  0
   -7.6576    0.1050   -0.9566 C   0  0  0  0  0  0  0  0  0  0  0  0
   -6.1936   -0.2069   -1.2355 C   0  0  0  0  0  0  0  0  0  0  0  0
   -5.7907   -1.6580   -0.9610 C   0  0  0  0  0  0  0  0  0  0  0  0
   -4.2701   -1.5794   -0.8733 C   0  0  0  0  0  0  0  0  0  0  0  0
   -3.9973   -0.2335   -0.3882 N   0  0  0  0  0  0  0  0  0  0  0  0
   -2.7951    0.2965    0.0633 C   0  0  0  0  0  0  0  0  0  0  0  0
   -2.7591    1.4359    0.5355 O   0  0  0  0  0  0  0  0  0  0  0  0
   -1.5535   -0.4925   -0.0243 C   0  0  0  0  0  0  0  0  0  0  0  0
   -0.2863   -0.0879    0.4824 C   0  0  0  0  0  0  0  0  0  0  0  0
    0.5719   -1.1102    0.1629 C   0  0  0  0  0  0  0  0  0  0  0  0
    2.0125   -1.3706    0.3851 C   0  0  0  0  0  0  0  0  0  0  0  0
    2.6908   -0.1325    0.1856 O   0  0  0  0  0  0  0  0  0  0  0  0
    4.0629   -0.1278    0.2744 C   0  0  0  0  0  0  0  0  0  0  0  0
    4.8236   -1.2366    0.6511 C   0  0  0  0  0  0  0  0  0  0  0  0
    6.2152   -1.1516    0.7176 C   0  0  0  0  0  0  0  0  0  0  0  0
    6.8695    0.0433    0.4112 C   0  0  0  0  0  0  0  0  0  0  0  0
    8.2348    0.2008    0.4518 O   0  0  0  0  0  0  0  0  0  0  0  0
    9.0220   -0.9210    0.8273 C   0  0  0  0  0  0  0  0  0  0  0  0
    6.1185    1.1840    0.0326 C   0  0  0  0  0  0  0  0  0  0  0  0
    6.7346    2.4168   -0.2829 C   0  0  0  0  0  0  0  0  0  0  0  0
    5.9919    3.5378   -0.6531 C   0  0  0  0  0  0  0  0  0  0  0  0
    4.6098    3.4542   -0.7179 C   0  0  0  0  0  0  0  0  0  0  0  0
    3.9752    2.2498   -0.4136 C   0  0  0  0  0  0  0  0  0  0  0  0
    4.7029    1.0982   -0.0350 C   0  0  0  0  0  0  0  0  0  0  0  0
   -0.1233   -2.0759   -0.4909 O   0  0  0  0  0  0  0  0  0  0  0  0
   -1.4422   -1.6932   -0.6192 N   0  0  0  0  0  0  0  0  0  0  0  0
   -5.2152    0.5609   -0.3492 C   0  0  0  0  0  0  0  0  0  0  0  0
  -10.0004   -0.5407    0.0545 H   0  0  0  0  0  0  0  0  0  0  0  0
   -9.5427   -0.1695    1.7302 H   0  0  0  0  0  0  0  0  0  0  0  0
   -9.5735    1.1368    0.5256 H   0  0  0  0  0  0  0  0  0  0  0  0
   -8.2918   -0.4942   -1.6206 H   0  0  0  0  0  0  0  0  0  0  0  0
   -7.8519    1.1661   -1.1519 H   0  0  0  0  0  0  0  0  0  0  0  0
   -5.9768    0.0226   -2.2877 H   0  0  0  0  0  0  0  0  0  0  0  0
   -6.1260   -2.3473   -1.7415 H   0  0  0  0  0  0  0  0  0  0  0  0
   -6.1961   -2.0072   -0.0038 H   0  0  0  0  0  0  0  0  0  0  0  0
   -3.8156   -1.6862   -1.8635 H   0  0  0  0  0  0  0  0  0  0  0  0
   -3.8710   -2.3345   -0.1911 H   0  0  0  0  0  0  0  0  0  0  0  0
   -0.0484    0.8298    1.0007 H   0  0  0  0  0  0  0  0  0  0  0  0
    2.1556   -1.7230    1.4132 H   0  0  0  0  0  0  0  0  0  0  0  0
    2.3704   -2.1221   -0.3289 H   0  0  0  0  0  0  0  0  0  0  0  0
    4.3699   -2.1889    0.9043 H   0  0  0  0  0  0  0  0  0  0  0  0
    6.7599   -2.0417    1.0146 H   0  0  0  0  0  0  0  0  0  0  0  0
   10.0722   -0.6145    0.8026 H   0  0  0  0  0  0  0  0  0  0  0  0
    8.9003   -1.7462    0.1177 H   0  0  0  0  0  0  0  0  0  0  0  0
    8.7936   -1.2392    1.8499 H   0  0  0  0  0  0  0  0  0  0  0  0
    7.8184    2.5091   -0.2398 H   0  0  0  0  0  0  0  0  0  0  0  0
    6.4966    4.4708   -0.8877 H   0  0  0  0  0  0  0  0  0  0  0  0
    4.0212    4.3214   -1.0042 H   0  0  0  0  0  0  0  0  0  0  0  0
    2.8888    2.2130   -0.4741 H   0  0  0  0  0  0  0  0  0  0  0  0
   -5.0295    1.5758   -0.7150 H   0  0  0  0  0  0  0  0  0  0  0  0
   -5.5396    0.6181    0.6959 H   0  0  0  0  0  0  0  0  0  0  0  0
  1  2  1  0
  2  3  1  0
  3  4  1  0
  4  5  1  0
  5  6  1  0
  6  7  1  0
  7  8  1  0
  8  9  2  0
  8 10  1  0
 10 11  1  0
 11 12  2  0
 12 13  1  0
 13 14  1  0
 14 15  1  0
 15 16  2  0
 16 17  1  0
 17 18  2  0
 18 19  1  0
 19 20  1  0
 18 21  1  0
 21 22  2  0
 22 23  1  0
 23 24  2  0
 24 25  1  0
 25 26  2  0
 12 27  1  0
 27 28  1  0
  7 29  1  0
 29  4  1  0
 28 10  2  0
 26 15  1  0
 26 21  1  0
  1 30  1  0
  1 31  1  0
  1 32  1  0
  3 33  1  0
  3 34  1  0
  4 35  1  0
  5 36  1  0
  5 37  1  0
  6 38  1  0
  6 39  1  0
 11 40  1  0
 13 41  1  0
 13 42  1  0
 16 43  1  0
 17 44  1  0
 20 45  1  0
 20 46  1  0
 20 47  1  0
 22 48  1  0
 23 49  1  0
 24 50  1  0
 25 51  1  0
 29 52  1  0
 29 53  1  0
M  END
$$$$
