
     RDKit          3D

 45 46  0  0  0  0  0  0  0  0999 V2000
    4.6414    2.5984   -2.1029 C   0  0  0  0  0  0  0  0  0  0  0  0
    4.9039    1.2104   -2.3260 O   0  0  0  0  0  0  0  0  0  0  0  0
    3.8384    0.4384   -1.9408 C   0  0  0  0  0  0  0  0  0  0  0  0
    3.2118   -0.2881   -2.9548 C   0  0  0  0  0  0  0  0  0  0  0  0
    2.0844   -1.0556   -2.6676 C   0  0  0  0  0  0  0  0  0  0  0  0
    1.5753   -1.0922   -1.3674 C   0  0  0  0  0  0  0  0  0  0  0  0
    2.2044   -0.3801   -0.3343 C   0  0  0  0  0  0  0  0  0  0  0  0
    1.6628   -0.4314    1.0323 C   0  0  0  0  0  0  0  0  0  0  0  0
    0.4389   -0.0370    1.4191 C   0  0  0  0  0  0  0  0  0  0  0  0
   -0.5648    0.5955    0.5258 C   0  0  0  0  0  0  0  0  0  0  0  0
   -0.2396    1.4926   -0.2444 O   0  0  0  0  0  0  0  0  0  0  0  0
   -1.8739    0.1459    0.6597 N   0  0  0  0  0  0  0  0  0  0  0  0
   -2.2294   -1.1670    1.2149 C   0  0  0  0  0  0  0  0  0  0  0  0
   -3.6929   -1.1968    1.6950 C   0  0  0  0  0  0  0  0  0  0  0  0
   -4.0975   -2.5959    2.1308 C   0  0  0  0  0  0  0  0  0  0  0  0
   -4.5808   -0.7848    0.6427 O   0  0  0  0  0  0  0  0  0  0  0  0
   -4.2894    0.5638    0.2353 C   0  0  0  0  0  0  0  0  0  0  0  0
   -5.3019    0.9536   -0.8342 C   0  0  0  0  0  0  0  0  0  0  0  0
   -2.8518    0.6691   -0.2987 C   0  0  0  0  0  0  0  0  0  0  0  0
    3.3772    0.3440   -0.6181 C   0  0  0  0  0  0  0  0  0  0  0  0
    4.0169    0.9829    0.4186 O   0  0  0  0  0  0  0  0  0  0  0  0
    5.2922    0.3906    0.6698 C   0  0  0  0  0  0  0  0  0  0  0  0
    4.8789    2.8737   -1.0700 H   0  0  0  0  0  0  0  0  0  0  0  0
    3.6096    2.8708   -2.3454 H   0  0  0  0  0  0  0  0  0  0  0  0
    5.2988    3.1716   -2.7634 H   0  0  0  0  0  0  0  0  0  0  0  0
    3.5893   -0.2342   -3.9721 H   0  0  0  0  0  0  0  0  0  0  0  0
    1.5872   -1.6057   -3.4640 H   0  0  0  0  0  0  0  0  0  0  0  0
    0.6805   -1.6776   -1.1680 H   0  0  0  0  0  0  0  0  0  0  0  0
    2.3556   -0.8096    1.7806 H   0  0  0  0  0  0  0  0  0  0  0  0
    0.1590   -0.1049    2.4645 H   0  0  0  0  0  0  0  0  0  0  0  0
   -1.5646   -1.4451    2.0369 H   0  0  0  0  0  0  0  0  0  0  0  0
   -2.0764   -1.8927    0.4058 H   0  0  0  0  0  0  0  0  0  0  0  0
   -3.8242   -0.5146    2.5447 H   0  0  0  0  0  0  0  0  0  0  0  0
   -3.4865   -2.9427    2.9707 H   0  0  0  0  0  0  0  0  0  0  0  0
   -5.1494   -2.6096    2.4349 H   0  0  0  0  0  0  0  0  0  0  0  0
   -3.9984   -3.3105    1.3062 H   0  0  0  0  0  0  0  0  0  0  0  0
   -4.4167    1.2217    1.1039 H   0  0  0  0  0  0  0  0  0  0  0  0
   -5.1387    1.9779   -1.1834 H   0  0  0  0  0  0  0  0  0  0  0  0
   -6.3203    0.8776   -0.4397 H   0  0  0  0  0  0  0  0  0  0  0  0
   -5.2489    0.2746   -1.6946 H   0  0  0  0  0  0  0  0  0  0  0  0
   -2.7368    0.0691   -1.2114 H   0  0  0  0  0  0  0  0  0  0  0  0
   -2.6182    1.7095   -0.5526 H   0  0  0  0  0  0  0  0  0  0  0  0
    5.2343   -0.7052    0.6952 H   0  0  0  0  0  0  0  0  0  0  0  0
    6.0337    0.7180   -0.0654 H   0  0  0  0  0  0  0  0  0  0  0  0
    5.6268    0.7314    1.6539 H   0  0  0  0  0  0  0  0  0  0  0  0
  1  2  1  0
  2  3  1  0
  3  4  2  0
  4  5  1  0
  5  6  2  0
  6  7  1  0
  7  8  1  0
  8  9  2  3
  9 10  1  0
 10 11  2  0
 10 12  1  0
 12 13  1  0
 13 14  1  0
 14 15  1  0
 14 16  1  0
 16 17  1  0
 17 18  1  0
 17 19  1  0
  7 20  2  0
 20 21  1  0
 21 22  1  0
 20  3  1  0
 19 12  1  0
  1 23  1  0
  1 24  1  0
  1 25  1  0
  4 26  1  0
  5 27  1  0
  6 28  1  0
  8 29  1  0
  9 30  1  0
 13 31  1  0
 13 32  1  0
 14 33  1  0
 15 34  1  0
 15 35  1  0
 15 36  1  0
 17 37  1  0
 18 38  1  0
 18 39  1  0
 18 40  1  0
 19 41  1  0
 19 42  1  0
 22 43  1  0
 22 44  1  0
 22 45  1  0
M  END
$$$$
