
     RDKit          3D

 43 44  0  0  0  0  0  0  0  0999 V2000
    5.7635   -1.9404    1.3860 C   0  0  0  0  0  0  0  0  0  0  0  0
    4.7185   -1.3423    0.6182 O   0  0  0  0  0  0  0  0  0  0  0  0
    4.4833   -0.0424    0.9212 C   0  0  0  0  0  0  0  0  0  0  0  0
    5.0771    0.6148    1.7612 O   0  0  0  0  0  0  0  0  0  0  0  0
    3.3835    0.5048    0.0825 C   0  0  0  0  0  0  0  0  0  0  0  0
    3.0462    1.8557    0.2346 C   0  0  0  0  0  0  0  0  0  0  0  0
    2.0236    2.4195   -0.5319 C   0  0  0  0  0  0  0  0  0  0  0  0
    1.3470    1.6523   -1.4840 C   0  0  0  0  0  0  0  0  0  0  0  0
    0.2333    2.2027   -2.1515 N   0  0  0  0  0  0  0  0  0  0  0  0
    1.6385    0.2728   -1.5907 C   0  0  0  0  0  0  0  0  0  0  0  0
    0.9553   -0.5579   -2.4969 N   0  0  0  0  0  0  0  0  0  0  0  0
   -0.2501   -0.9697   -2.2280 C   0  0  0  0  0  0  0  0  0  0  0  0
   -1.1038   -0.6332   -1.0289 C   0  0  0  0  0  0  0  0  0  0  0  0
   -2.3205    0.1657   -1.4269 C   0  0  0  0  0  0  0  0  0  0  0  0
   -2.5547    0.4838   -2.5929 O   0  0  0  0  0  0  0  0  0  0  0  0
   -3.2586    0.5869   -0.3122 C   0  0  0  0  0  0  0  0  0  0  0  0
   -3.3038   -0.4191    0.8625 C   0  0  0  0  0  0  0  0  0  0  0  0
   -4.7459   -0.4846    1.4072 C   0  0  0  0  0  0  0  0  0  0  0  0
   -2.3987    0.0531    2.0190 C   0  0  0  0  0  0  0  0  0  0  0  0
   -2.8965   -1.8333    0.3999 C   0  0  0  0  0  0  0  0  0  0  0  0
   -1.5389   -1.8691   -0.2799 C   0  0  0  0  0  0  0  0  0  0  0  0
   -0.8404   -2.8808   -0.2227 O   0  0  0  0  0  0  0  0  0  0  0  0
    2.6727   -0.2825   -0.8305 C   0  0  0  0  0  0  0  0  0  0  0  0
    5.5300   -1.8972    2.4545 H   0  0  0  0  0  0  0  0  0  0  0  0
    6.7195   -1.4486    1.1769 H   0  0  0  0  0  0  0  0  0  0  0  0
    5.8418   -2.9911    1.0923 H   0  0  0  0  0  0  0  0  0  0  0  0
    3.5767    2.4755    0.9555 H   0  0  0  0  0  0  0  0  0  0  0  0
    1.7630    3.4638   -0.3820 H   0  0  0  0  0  0  0  0  0  0  0  0
    0.0233    1.6706   -2.9993 H   0  0  0  0  0  0  0  0  0  0  0  0
    0.3361    3.1919   -2.3561 H   0  0  0  0  0  0  0  0  0  0  0  0
   -0.7181   -1.6319   -2.9792 H   0  0  0  0  0  0  0  0  0  0  0  0
   -0.5365   -0.0227   -0.3236 H   0  0  0  0  0  0  0  0  0  0  0  0
   -2.9630    1.5864    0.0248 H   0  0  0  0  0  0  0  0  0  0  0  0
   -4.2519    0.6761   -0.7688 H   0  0  0  0  0  0  0  0  0  0  0  0
   -5.0847    0.5007    1.7492 H   0  0  0  0  0  0  0  0  0  0  0  0
   -5.4464   -0.8297    0.6389 H   0  0  0  0  0  0  0  0  0  0  0  0
   -4.8189   -1.1768    2.2539 H   0  0  0  0  0  0  0  0  0  0  0  0
   -2.7247    1.0291    2.3972 H   0  0  0  0  0  0  0  0  0  0  0  0
   -2.4349   -0.6513    2.8577 H   0  0  0  0  0  0  0  0  0  0  0  0
   -1.3516    0.1520    1.7205 H   0  0  0  0  0  0  0  0  0  0  0  0
   -2.8692   -2.5196    1.2549 H   0  0  0  0  0  0  0  0  0  0  0  0
   -3.6248   -2.2266   -0.3206 H   0  0  0  0  0  0  0  0  0  0  0  0
    2.9039   -1.3367   -0.9621 H   0  0  0  0  0  0  0  0  0  0  0  0
  1  2  1  0
  2  3  1  0
  3  4  2  0
  3  5  1  0
  5  6  2  0
  6  7  1  0
  7  8  2  0
  8  9  1  0
  8 10  1  0
 10 11  1  0
 11 12  2  3
 12 13  1  0
 13 14  1  0
 14 15  2  0
 14 16  1  0
 16 17  1  0
 17 18  1  0
 17 19  1  0
 17 20  1  0
 20 21  1  0
 21 22  2  0
 10 23  2  0
 23  5  1  0
 21 13  1  0
  1 24  1  0
  1 25  1  0
  1 26  1  0
  6 27  1  0
  7 28  1  0
  9 29  1  0
  9 30  1  0
 12 31  1  0
 13 32  1  0
 16 33  1  0
 16 34  1  0
 18 35  1  0
 18 36  1  0
 18 37  1  0
 19 38  1  0
 19 39  1  0
 19 40  1  0
 20 41  1  0
 20 42  1  0
 23 43  1  0
M  END
$$$$
