
     RDKit          3D

 42 43  0  0  0  0  0  0  0  0999 V2000
    4.8097    4.0691   -2.3814 C   0  0  0  0  0  0  0  0  0  0  0  0
    4.5301    2.8932   -1.5013 C   0  0  0  0  0  0  0  0  0  0  0  0
    5.8272    2.1363   -0.6919 S   0  0  0  0  0  0  0  0  0  0  0  0
    4.8043    0.9882    0.0234 C   0  0  0  0  0  0  0  0  0  0  0  0
    5.3266    0.0497    0.8299 N   0  0  0  0  0  0  0  0  0  0  0  0
    4.4096   -0.7824    1.3150 C   0  0  0  0  0  0  0  0  0  0  0  0
    3.0914   -0.7546    1.0918 N   0  0  0  0  0  0  0  0  0  0  0  0
    2.6055    0.2097    0.2793 C   0  0  0  0  0  0  0  0  0  0  0  0
    0.8635    0.2084   -0.0235 S   0  0  0  0  0  0  0  0  0  0  0  0
    0.2851   -0.1451    1.6680 C   0  0  0  0  0  0  0  0  0  0  0  0
   -1.2296   -0.0962    1.7072 C   0  0  0  0  0  0  0  0  0  0  0  0
   -1.8438    0.8592    2.1757 O   0  0  0  0  0  0  0  0  0  0  0  0
   -1.8487   -1.2158    1.1868 N   0  0  0  0  0  0  0  0  0  0  0  0
   -3.2960   -1.4021    1.2452 C   0  0  0  0  0  0  0  0  0  0  0  0
   -3.6620   -1.9893    2.6122 C   0  0  0  0  0  0  0  0  0  0  0  0
   -3.7760   -2.2860    0.0645 C   0  0  0  0  0  0  0  0  0  0  0  0
   -3.4513   -1.6309   -1.2838 C   0  0  0  0  0  0  0  0  0  0  0  0
   -5.2784   -2.5788    0.1222 C   0  0  0  0  0  0  0  0  0  0  0  0
    3.4678    1.1518   -0.3183 C   0  0  0  0  0  0  0  0  0  0  0  0
    3.3094    2.2893   -1.2224 C   0  0  0  0  0  0  0  0  0  0  0  0
    2.0053    2.7632   -1.7896 C   0  0  0  0  0  0  0  0  0  0  0  0
    5.8787    4.3002   -2.4464 H   0  0  0  0  0  0  0  0  0  0  0  0
    4.4491    3.8779   -3.3982 H   0  0  0  0  0  0  0  0  0  0  0  0
    4.3013    4.9595   -1.9965 H   0  0  0  0  0  0  0  0  0  0  0  0
    4.7718   -1.5734    1.9633 H   0  0  0  0  0  0  0  0  0  0  0  0
    0.6760    0.6030    2.3705 H   0  0  0  0  0  0  0  0  0  0  0  0
    0.6169   -1.1380    1.9985 H   0  0  0  0  0  0  0  0  0  0  0  0
   -1.2705   -1.9924    0.8874 H   0  0  0  0  0  0  0  0  0  0  0  0
   -3.7656   -0.4121    1.1680 H   0  0  0  0  0  0  0  0  0  0  0  0
   -3.2898   -3.0149    2.7107 H   0  0  0  0  0  0  0  0  0  0  0  0
   -4.7452   -1.9965    2.7693 H   0  0  0  0  0  0  0  0  0  0  0  0
   -3.2228   -1.4011    3.4265 H   0  0  0  0  0  0  0  0  0  0  0  0
   -3.2450   -3.2450    0.1023 H   0  0  0  0  0  0  0  0  0  0  0  0
   -2.3738   -1.4826   -1.4100 H   0  0  0  0  0  0  0  0  0  0  0  0
   -3.9419   -0.6559   -1.3771 H   0  0  0  0  0  0  0  0  0  0  0  0
   -3.7922   -2.2624   -2.1118 H   0  0  0  0  0  0  0  0  0  0  0  0
   -5.6044   -3.1346   -0.7628 H   0  0  0  0  0  0  0  0  0  0  0  0
   -5.5298   -3.1914    0.9930 H   0  0  0  0  0  0  0  0  0  0  0  0
   -5.8602   -1.6532    0.1734 H   0  0  0  0  0  0  0  0  0  0  0  0
    1.5629    1.9943   -2.4320 H   0  0  0  0  0  0  0  0  0  0  0  0
    1.3065    3.0180   -0.9861 H   0  0  0  0  0  0  0  0  0  0  0  0
    2.1283    3.6635   -2.3990 H   0  0  0  0  0  0  0  0  0  0  0  0
  1  2  1  0
  2  3  1  0
  3  4  1  0
  4  5  2  0
  5  6  1  0
  6  7  2  0
  7  8  1  0
  8  9  1  0
  9 10  1  0
 10 11  1  0
 11 12  2  0
 11 13  1  0
 13 14  1  0
 14 15  1  0
 14 16  1  0
 16 17  1  0
 16 18  1  0
  8 19  2  0
 19 20  1  0
 20 21  1  0
 20  2  2  0
 19  4  1  0
  1 22  1  0
  1 23  1  0
  1 24  1  0
  6 25  1  0
 10 26  1  0
 10 27  1  0
 13 28  1  0
 14 29  1  0
 15 30  1  0
 15 31  1  0
 15 32  1  0
 16 33  1  0
 17 34  1  0
 17 35  1  0
 17 36  1  0
 18 37  1  0
 18 38  1  0
 18 39  1  0
 21 40  1  0
 21 41  1  0
 21 42  1  0
M  END
$$$$
