
     RDKit          3D

 60 61  0  0  0  0  0  0  0  0999 V2000
   -7.0775   -1.0176    1.9749 C   0  0  0  0  0  0  0  0  0  0  0  0
   -6.3581   -0.2159    1.0471 O   0  0  0  0  0  0  0  0  0  0  0  0
   -5.0003   -0.1364    1.2082 C   0  0  0  0  0  0  0  0  0  0  0  0
   -4.2572   -0.7584    2.2122 C   0  0  0  0  0  0  0  0  0  0  0  0
   -2.8678   -0.5878    2.2738 C   0  0  0  0  0  0  0  0  0  0  0  0
   -2.0681   -1.2011    3.2078 O   0  0  0  0  0  0  0  0  0  0  0  0
   -2.6947   -1.6939    4.3846 C   0  0  0  0  0  0  0  0  0  0  0  0
   -2.2181    0.2077    1.3068 C   0  0  0  0  0  0  0  0  0  0  0  0
   -0.7695    0.3986    1.3643 C   0  0  0  0  0  0  0  0  0  0  0  0
   -0.2002    1.0946    2.3616 N   0  0  0  0  0  0  0  0  0  0  0  0
    1.1509    1.1162    2.0899 O   0  0  0  0  0  0  0  0  0  0  0  0
    1.4059    0.4340    0.9375 C   0  0  0  0  0  0  0  0  0  0  0  0
    2.7727    0.2727    0.5181 C   0  0  0  0  0  0  0  0  0  0  0  0
    3.1698   -0.5410   -0.3050 O   0  0  0  0  0  0  0  0  0  0  0  0
    3.5668    1.1580    1.1811 O   0  0  0  0  0  0  0  0  0  0  0  0
    4.9939    1.2162    0.9317 C   0  0  0  0  0  0  0  0  0  0  0  0
    5.2868    1.6204   -0.5174 C   0  0  0  0  0  0  0  0  0  0  0  0
    5.6817   -0.0994    1.3111 C   0  0  0  0  0  0  0  0  0  0  0  0
    5.5075    2.3232    1.8646 C   0  0  0  0  0  0  0  0  0  0  0  0
    0.2091   -0.0205    0.4199 C   0  0  0  0  0  0  0  0  0  0  0  0
    0.0044   -0.7513   -0.8045 C   0  0  0  0  0  0  0  0  0  0  0  0
   -0.8546   -1.6125   -0.9335 O   0  0  0  0  0  0  0  0  0  0  0  0
    0.8433   -0.3311   -1.7889 O   0  0  0  0  0  0  0  0  0  0  0  0
    0.8243   -0.9402   -3.1035 C   0  0  0  0  0  0  0  0  0  0  0  0
   -0.5172   -0.7025   -3.8045 C   0  0  0  0  0  0  0  0  0  0  0  0
    1.9245   -0.2073   -3.8859 C   0  0  0  0  0  0  0  0  0  0  0  0
    1.1822   -2.4279   -3.0337 C   0  0  0  0  0  0  0  0  0  0  0  0
   -2.9660    0.8193    0.2788 C   0  0  0  0  0  0  0  0  0  0  0  0
   -2.2638    1.5700   -0.6339 O   0  0  0  0  0  0  0  0  0  0  0  0
   -2.9656    2.0277   -1.7830 C   0  0  0  0  0  0  0  0  0  0  0  0
   -4.3527    0.6475    0.2489 C   0  0  0  0  0  0  0  0  0  0  0  0
   -8.1377   -0.9649    1.7105 H   0  0  0  0  0  0  0  0  0  0  0  0
   -6.7687   -2.0654    1.9110 H   0  0  0  0  0  0  0  0  0  0  0  0
   -6.9701   -0.6344    2.9942 H   0  0  0  0  0  0  0  0  0  0  0  0
   -4.7541   -1.3877    2.9385 H   0  0  0  0  0  0  0  0  0  0  0  0
   -3.2801   -2.5929    4.1660 H   0  0  0  0  0  0  0  0  0  0  0  0
   -3.3121   -0.9256    4.8627 H   0  0  0  0  0  0  0  0  0  0  0  0
   -1.9066   -1.9747    5.0896 H   0  0  0  0  0  0  0  0  0  0  0  0
    4.7191    2.5159   -0.7926 H   0  0  0  0  0  0  0  0  0  0  0  0
    5.0002    0.8386   -1.2269 H   0  0  0  0  0  0  0  0  0  0  0  0
    6.3523    1.8239   -0.6676 H   0  0  0  0  0  0  0  0  0  0  0  0
    6.7719    0.0007    1.2897 H   0  0  0  0  0  0  0  0  0  0  0  0
    5.3804   -0.4197    2.3147 H   0  0  0  0  0  0  0  0  0  0  0  0
    5.4159   -0.9122    0.6286 H   0  0  0  0  0  0  0  0  0  0  0  0
    6.5894    2.4647    1.7710 H   0  0  0  0  0  0  0  0  0  0  0  0
    5.0132    3.2770    1.6469 H   0  0  0  0  0  0  0  0  0  0  0  0
    5.2777    2.0880    2.9103 H   0  0  0  0  0  0  0  0  0  0  0  0
   -1.3318   -1.2541   -3.3262 H   0  0  0  0  0  0  0  0  0  0  0  0
   -0.4799   -1.0158   -4.8539 H   0  0  0  0  0  0  0  0  0  0  0  0
   -0.7923    0.3578   -3.7681 H   0  0  0  0  0  0  0  0  0  0  0  0
    2.0119   -0.5806   -4.9116 H   0  0  0  0  0  0  0  0  0  0  0  0
    1.7229    0.8696   -3.9249 H   0  0  0  0  0  0  0  0  0  0  0  0
    2.8967   -0.3212   -3.3915 H   0  0  0  0  0  0  0  0  0  0  0  0
    2.1007   -2.5796   -2.4558 H   0  0  0  0  0  0  0  0  0  0  0  0
    0.4009   -3.0143   -2.5400 H   0  0  0  0  0  0  0  0  0  0  0  0
    1.3267   -2.8502   -4.0340 H   0  0  0  0  0  0  0  0  0  0  0  0
   -3.7139    2.7796   -1.5120 H   0  0  0  0  0  0  0  0  0  0  0  0
   -2.2399    2.5056   -2.4474 H   0  0  0  0  0  0  0  0  0  0  0  0
   -3.4177    1.1951   -2.3314 H   0  0  0  0  0  0  0  0  0  0  0  0
   -4.9673    1.1155   -0.5132 H   0  0  0  0  0  0  0  0  0  0  0  0
  1  2  1  0
  2  3  1  0
  3  4  2  0
  4  5  1  0
  5  6  1  0
  6  7  1  0
  5  8  2  0
  8  9  1  0
  9 10  2  0
 10 11  1  0
 11 12  1  0
 12 13  1  0
 13 14  2  0
 13 15  1  0
 15 16  1  0
 16 17  1  0
 16 18  1  0
 16 19  1  0
 12 20  2  0
 20 21  1  0
 21 22  2  0
 21 23  1  0
 23 24  1  0
 24 25  1  0
 24 26  1  0
 24 27  1  0
  8 28  1  0
 28 29  1  0
 29 30  1  0
 28 31  2  0
 31  3  1  0
 20  9  1  0
  1 32  1  0
  1 33  1  0
  1 34  1  0
  4 35  1  0
  7 36  1  0
  7 37  1  0
  7 38  1  0
 17 39  1  0
 17 40  1  0
 17 41  1  0
 18 42  1  0
 18 43  1  0
 18 44  1  0
 19 45  1  0
 19 46  1  0
 19 47  1  0
 25 48  1  0
 25 49  1  0
 25 50  1  0
 26 51  1  0
 26 52  1  0
 26 53  1  0
 27 54  1  0
 27 55  1  0
 27 56  1  0
 30 57  1  0
 30 58  1  0
 30 59  1  0
 31 60  1  0
M  END
$$$$
