
     RDKit          3D

 54 57  0  0  0  0  0  0  0  0999 V2000
    7.9714    3.9353    1.1937 C   0  0  0  0  0  0  0  0  0  0  0  0
    7.8888    2.5162    1.1623 O   0  0  0  0  0  0  0  0  0  0  0  0
    6.6614    1.9741    0.9021 C   0  0  0  0  0  0  0  0  0  0  0  0
    6.6258    0.5813    0.8939 C   0  0  0  0  0  0  0  0  0  0  0  0
    5.4302   -0.1009    0.6409 C   0  0  0  0  0  0  0  0  0  0  0  0
    4.2295    0.5869    0.3921 C   0  0  0  0  0  0  0  0  0  0  0  0
    2.9752   -0.1537    0.1315 C   0  0  0  0  0  0  0  0  0  0  0  0
    1.7202    0.3505    0.4229 C   0  0  0  0  0  0  0  0  0  0  0  0
    0.5996   -0.4265    0.1230 C   0  0  0  0  0  0  0  0  0  0  0  0
   -0.7122    0.2008    0.3985 C   0  0  0  0  0  0  0  0  0  0  0  0
   -0.9431    0.6738    1.5029 O   0  0  0  0  0  0  0  0  0  0  0  0
   -1.5747    0.2622   -0.6735 N   0  0  0  0  0  0  0  0  0  0  0  0
   -2.8425    0.9705   -0.5983 C   0  0  0  0  0  0  0  0  0  0  0  0
   -3.8855    0.2389    0.2704 C   0  0  0  0  0  0  0  0  0  0  0  0
   -5.2163    0.8736    0.2195 N   0  0  0  0  0  0  0  0  0  0  0  0
   -6.0547    0.4571    1.3681 C   0  0  0  0  0  0  0  0  0  0  0  0
   -6.5832   -0.9829    1.2644 C   0  0  0  0  0  0  0  0  0  0  0  0
   -7.3236   -1.1773    0.0528 O   0  0  0  0  0  0  0  0  0  0  0  0
   -6.5177   -0.8694   -1.0899 C   0  0  0  0  0  0  0  0  0  0  0  0
   -5.9608    0.5647   -1.0223 C   0  0  0  0  0  0  0  0  0  0  0  0
    0.7313   -1.7246   -0.4151 C   0  0  0  0  0  0  0  0  0  0  0  0
   -0.3399   -2.6188   -0.6769 C   0  0  0  0  0  0  0  0  0  0  0  0
   -0.1082   -3.8819   -1.2178 C   0  0  0  0  0  0  0  0  0  0  0  0
    1.1920   -4.2751   -1.4968 C   0  0  0  0  0  0  0  0  0  0  0  0
    2.2505   -3.4070   -1.2206 C   0  0  0  0  0  0  0  0  0  0  0  0
    2.0466   -2.1454   -0.6777 C   0  0  0  0  0  0  0  0  0  0  0  0
    3.1232   -1.3835   -0.4223 N   0  0  0  0  0  0  0  0  0  0  0  0
    4.2897    1.9926    0.3965 C   0  0  0  0  0  0  0  0  0  0  0  0
    5.4876    2.6790    0.6496 C   0  0  0  0  0  0  0  0  0  0  0  0
    9.0075    4.2049    1.4202 H   0  0  0  0  0  0  0  0  0  0  0  0
    7.7207    4.3667    0.2190 H   0  0  0  0  0  0  0  0  0  0  0  0
    7.3387    4.3506    1.9851 H   0  0  0  0  0  0  0  0  0  0  0  0
    7.5347    0.0162    1.0851 H   0  0  0  0  0  0  0  0  0  0  0  0
    5.4419   -1.1900    0.6431 H   0  0  0  0  0  0  0  0  0  0  0  0
    1.5919    1.3256    0.8818 H   0  0  0  0  0  0  0  0  0  0  0  0
   -1.2370   -0.0146   -1.5875 H   0  0  0  0  0  0  0  0  0  0  0  0
   -2.6543    1.9737   -0.1985 H   0  0  0  0  0  0  0  0  0  0  0  0
   -3.1892    1.0763   -1.6303 H   0  0  0  0  0  0  0  0  0  0  0  0
   -3.5174    0.2591    1.3039 H   0  0  0  0  0  0  0  0  0  0  0  0
   -3.9273   -0.8198   -0.0116 H   0  0  0  0  0  0  0  0  0  0  0  0
   -6.9139    1.1394    1.4085 H   0  0  0  0  0  0  0  0  0  0  0  0
   -5.5146    0.5959    2.3120 H   0  0  0  0  0  0  0  0  0  0  0  0
   -7.2617   -1.1864    2.0991 H   0  0  0  0  0  0  0  0  0  0  0  0
   -5.7713   -1.7175    1.3134 H   0  0  0  0  0  0  0  0  0  0  0  0
   -7.1530   -0.9730   -1.9755 H   0  0  0  0  0  0  0  0  0  0  0  0
   -5.7170   -1.6123   -1.1752 H   0  0  0  0  0  0  0  0  0  0  0  0
   -5.3557    0.7713   -1.9108 H   0  0  0  0  0  0  0  0  0  0  0  0
   -6.8080    1.2616   -1.0701 H   0  0  0  0  0  0  0  0  0  0  0  0
   -1.3657   -2.3447   -0.4401 H   0  0  0  0  0  0  0  0  0  0  0  0
   -0.9381   -4.5572   -1.4106 H   0  0  0  0  0  0  0  0  0  0  0  0
    1.3918   -5.2579   -1.9161 H   0  0  0  0  0  0  0  0  0  0  0  0
    3.2692   -3.7283   -1.4288 H   0  0  0  0  0  0  0  0  0  0  0  0
    3.4029    2.5863    0.1859 H   0  0  0  0  0  0  0  0  0  0  0  0
    5.4642    3.7636    0.6366 H   0  0  0  0  0  0  0  0  0  0  0  0
  1  2  1  0
  2  3  1  0
  3  4  2  0
  4  5  1  0
  5  6  2  0
  6  7  1  0
  7  8  2  0
  8  9  1  0
  9 10  1  0
 10 11  2  0
 10 12  1  0
 12 13  1  0
 13 14  1  0
 14 15  1  0
 15 16  1  0
 16 17  1  0
 17 18  1  0
 18 19  1  0
 19 20  1  0
  9 21  2  0
 21 22  1  0
 22 23  2  0
 23 24  1  0
 24 25  2  0
 25 26  1  0
 26 27  2  0
  6 28  1  0
 28 29  2  0
 29  3  1  0
 27  7  1  0
 20 15  1  0
 26 21  1  0
  1 30  1  0
  1 31  1  0
  1 32  1  0
  4 33  1  0
  5 34  1  0
  8 35  1  0
 12 36  1  0
 13 37  1  0
 13 38  1  0
 14 39  1  0
 14 40  1  0
 16 41  1  0
 16 42  1  0
 17 43  1  0
 17 44  1  0
 19 45  1  0
 19 46  1  0
 20 47  1  0
 20 48  1  0
 22 49  1  0
 23 50  1  0
 24 51  1  0
 25 52  1  0
 28 53  1  0
 29 54  1  0
M  END
$$$$
