
     RDKit          3D

 53 56  0  0  0  0  0  0  0  0999 V2000
   -6.6609   -0.1302    0.5074 C   0  0  0  0  0  0  0  0  0  0  0  0
   -5.8452    1.1551    0.2492 C   0  0  0  0  0  0  0  0  0  0  0  0
   -5.9079    2.0566    1.5009 C   0  0  0  0  0  0  0  0  0  0  0  0
   -6.5459    1.9165   -0.8988 C   0  0  0  0  0  0  0  0  0  0  0  0
   -4.3816    0.7885   -0.0503 C   0  0  0  0  0  0  0  0  0  0  0  0
   -3.6197    0.0801    0.8967 C   0  0  0  0  0  0  0  0  0  0  0  0
   -2.2826   -0.2750    0.6605 C   0  0  0  0  0  0  0  0  0  0  0  0
   -1.6630    0.0639   -0.5418 C   0  0  0  0  0  0  0  0  0  0  0  0
   -0.3055   -0.2707   -0.8397 N   0  0  0  0  0  0  0  0  0  0  0  0
    0.2910    0.2995   -1.9298 N   0  0  0  0  0  0  0  0  0  0  0  0
    1.5532   -0.1205   -1.9082 C   0  0  0  0  0  0  0  0  0  0  0  0
    1.8079   -0.9884   -0.8419 C   0  0  0  0  0  0  0  0  0  0  0  0
    0.5893   -1.1173   -0.1971 C   0  0  0  0  0  0  0  0  0  0  0  0
    0.3476   -2.0445    0.9448 C   0  0  0  0  0  0  0  0  0  0  0  0
    1.4856   -3.0803    1.0416 C   0  0  0  0  0  0  0  0  0  0  0  0
    2.8708   -2.4289    0.9023 C   0  0  0  0  0  0  0  0  0  0  0  0
    3.0455   -1.7311   -0.4663 C   0  0  0  0  0  0  0  0  0  0  0  0
    4.1482   -0.7992   -0.4304 N   0  0  0  0  0  0  0  0  0  0  0  0
    5.4608   -1.2067   -0.5205 C   0  0  0  0  0  0  0  0  0  0  0  0
    5.8080   -2.3596   -0.7454 O   0  0  0  0  0  0  0  0  0  0  0  0
    6.4583   -0.1215   -0.3086 C   0  0  0  0  0  0  0  0  0  0  0  0
    7.8144   -0.3913   -0.4108 C   0  0  0  0  0  0  0  0  0  0  0  0
    8.7571    0.5682   -0.2232 N   0  0  0  0  0  0  0  0  0  0  0  0
    8.2792    1.8006    0.0686 C   0  0  0  0  0  0  0  0  0  0  0  0
    6.9220    2.0691    0.1722 C   0  0  0  0  0  0  0  0  0  0  0  0
    5.9738    1.1205   -0.0104 N   0  0  0  0  0  0  0  0  0  0  0  0
   -2.4055    0.7869   -1.4872 C   0  0  0  0  0  0  0  0  0  0  0  0
   -3.7412    1.1379   -1.2465 C   0  0  0  0  0  0  0  0  0  0  0  0
   -6.3000   -0.6820    1.3823 H   0  0  0  0  0  0  0  0  0  0  0  0
   -7.7170    0.1016    0.6889 H   0  0  0  0  0  0  0  0  0  0  0  0
   -6.6114   -0.8083   -0.3528 H   0  0  0  0  0  0  0  0  0  0  0  0
   -6.9388    2.3596    1.7184 H   0  0  0  0  0  0  0  0  0  0  0  0
   -5.5272    1.5511    2.3952 H   0  0  0  0  0  0  0  0  0  0  0  0
   -5.3147    2.9680    1.3607 H   0  0  0  0  0  0  0  0  0  0  0  0
   -6.5672    1.3244   -1.8213 H   0  0  0  0  0  0  0  0  0  0  0  0
   -7.5861    2.1497   -0.6413 H   0  0  0  0  0  0  0  0  0  0  0  0
   -6.0474    2.8686   -1.1153 H   0  0  0  0  0  0  0  0  0  0  0  0
   -4.0586   -0.2040    1.8516 H   0  0  0  0  0  0  0  0  0  0  0  0
   -1.7663   -0.7844    1.4623 H   0  0  0  0  0  0  0  0  0  0  0  0
    2.2324    0.2173   -2.6810 H   0  0  0  0  0  0  0  0  0  0  0  0
   -0.5974   -2.5841    0.8268 H   0  0  0  0  0  0  0  0  0  0  0  0
    0.3154   -1.4707    1.8780 H   0  0  0  0  0  0  0  0  0  0  0  0
    1.3646   -3.8345    0.2531 H   0  0  0  0  0  0  0  0  0  0  0  0
    1.4157   -3.6070    2.0002 H   0  0  0  0  0  0  0  0  0  0  0  0
    3.6536   -3.1854    1.0342 H   0  0  0  0  0  0  0  0  0  0  0  0
    3.0018   -1.7033    1.7170 H   0  0  0  0  0  0  0  0  0  0  0  0
    3.2501   -2.4919   -1.2302 H   0  0  0  0  0  0  0  0  0  0  0  0
    3.9915    0.1598   -0.1294 H   0  0  0  0  0  0  0  0  0  0  0  0
    8.1851   -1.3834   -0.6462 H   0  0  0  0  0  0  0  0  0  0  0  0
    9.0234    2.5752    0.2188 H   0  0  0  0  0  0  0  0  0  0  0  0
    6.5616    3.0649    0.4071 H   0  0  0  0  0  0  0  0  0  0  0  0
   -1.9613    1.0830   -2.4368 H   0  0  0  0  0  0  0  0  0  0  0  0
   -4.2555    1.6915   -2.0274 H   0  0  0  0  0  0  0  0  0  0  0  0
  1  2  1  0
  2  3  1  0
  2  4  1  0
  2  5  1  0
  5  6  2  0
  6  7  1  0
  7  8  2  0
  8  9  1  0
  9 10  1  0
 10 11  2  0
 11 12  1  0
 12 13  2  0
 13 14  1  0
 14 15  1  0
 15 16  1  0
 16 17  1  0
 17 18  1  0
 18 19  1  0
 19 20  2  0
 19 21  1  0
 21 22  2  0
 22 23  1  0
 23 24  2  0
 24 25  1  0
 25 26  2  0
  8 27  1  0
 27 28  2  0
 28  5  1  0
 13  9  1  0
 26 21  1  0
 17 12  1  0
  1 29  1  0
  1 30  1  0
  1 31  1  0
  3 32  1  0
  3 33  1  0
  3 34  1  0
  4 35  1  0
  4 36  1  0
  4 37  1  0
  6 38  1  0
  7 39  1  0
 11 40  1  0
 14 41  1  0
 14 42  1  0
 15 43  1  0
 15 44  1  0
 16 45  1  0
 16 46  1  0
 17 47  1  0
 18 48  1  0
 22 49  1  0
 24 50  1  0
 25 51  1  0
 27 52  1  0
 28 53  1  0
M  END
$$$$
