
     RDKit          3D

 46 48  0  0  0  0  0  0  0  0999 V2000
   -1.8550    5.1003   -1.5118 C   0  0  0  0  0  0  0  0  0  0  0  0
   -2.4911    3.7609   -1.1901 C   0  0  0  0  0  0  0  0  0  0  0  0
   -1.5138    2.7167   -1.2758 O   0  0  0  0  0  0  0  0  0  0  0  0
   -0.8085    2.4893   -0.1511 C   0  0  0  0  0  0  0  0  0  0  0  0
   -0.8971    3.0440    0.9289 O   0  0  0  0  0  0  0  0  0  0  0  0
    0.1496    1.3558   -0.3797 C   0  0  0  0  0  0  0  0  0  0  0  0
    1.1073    1.3918   -1.2599 N   0  0  0  0  0  0  0  0  0  0  0  0
    1.7393    0.1846   -1.1787 N   0  0  0  0  0  0  0  0  0  0  0  0
    1.2798   -0.6229   -0.0448 C   0  0  0  0  0  0  0  0  0  0  0  0
    2.3072   -0.8028    1.0793 C   0  0  0  0  0  0  0  0  0  0  0  0
    1.9783   -1.0013    2.2494 O   0  0  0  0  0  0  0  0  0  0  0  0
    3.7517   -0.8674    0.7488 C   0  0  0  0  0  0  0  0  0  0  0  0
    4.6584   -0.2144    1.5904 C   0  0  0  0  0  0  0  0  0  0  0  0
    6.0243   -0.2642    1.3115 C   0  0  0  0  0  0  0  0  0  0  0  0
    6.4843   -0.9770    0.2040 C   0  0  0  0  0  0  0  0  0  0  0  0
    5.5826   -1.6486   -0.6223 C   0  0  0  0  0  0  0  0  0  0  0  0
    4.2145   -1.6012   -0.3493 C   0  0  0  0  0  0  0  0  0  0  0  0
    0.0310    0.1194    0.4578 C   0  0  0  0  0  0  0  0  0  0  0  0
   -1.2590   -0.6412    0.2337 C   0  0  0  0  0  0  0  0  0  0  0  0
   -1.9822   -1.1114    1.3389 C   0  0  0  0  0  0  0  0  0  0  0  0
   -3.1735   -1.8261    1.1673 C   0  0  0  0  0  0  0  0  0  0  0  0
   -3.6575   -2.0858   -0.1137 C   0  0  0  0  0  0  0  0  0  0  0  0
   -4.8015   -2.7696   -0.4200 O   0  0  0  0  0  0  0  0  0  0  0  0
   -5.5701   -3.2564    0.6728 C   0  0  0  0  0  0  0  0  0  0  0  0
   -2.9376   -1.6274   -1.2185 C   0  0  0  0  0  0  0  0  0  0  0  0
   -1.7479   -0.9142   -1.0514 C   0  0  0  0  0  0  0  0  0  0  0  0
   -1.0799    5.3519   -0.7809 H   0  0  0  0  0  0  0  0  0  0  0  0
   -1.3691    5.0713   -2.4929 H   0  0  0  0  0  0  0  0  0  0  0  0
   -2.6054    5.8958   -1.5123 H   0  0  0  0  0  0  0  0  0  0  0  0
   -3.2680    3.5347   -1.9279 H   0  0  0  0  0  0  0  0  0  0  0  0
   -2.9749    3.7749   -0.2064 H   0  0  0  0  0  0  0  0  0  0  0  0
    2.6716    0.1354   -1.5906 H   0  0  0  0  0  0  0  0  0  0  0  0
    1.0531   -1.6245   -0.4291 H   0  0  0  0  0  0  0  0  0  0  0  0
    4.3037    0.3325    2.4619 H   0  0  0  0  0  0  0  0  0  0  0  0
    6.7303    0.2462    1.9622 H   0  0  0  0  0  0  0  0  0  0  0  0
    7.5502   -1.0182   -0.0092 H   0  0  0  0  0  0  0  0  0  0  0  0
    5.9492   -2.2154   -1.4754 H   0  0  0  0  0  0  0  0  0  0  0  0
    3.5291   -2.1519   -0.9887 H   0  0  0  0  0  0  0  0  0  0  0  0
    0.1101    0.4267    1.5072 H   0  0  0  0  0  0  0  0  0  0  0  0
   -1.6227   -0.9280    2.3512 H   0  0  0  0  0  0  0  0  0  0  0  0
   -3.6947   -2.1661    2.0561 H   0  0  0  0  0  0  0  0  0  0  0  0
   -5.0011   -3.9815    1.2640 H   0  0  0  0  0  0  0  0  0  0  0  0
   -5.9334   -2.4337    1.2976 H   0  0  0  0  0  0  0  0  0  0  0  0
   -6.4430   -3.7736    0.2628 H   0  0  0  0  0  0  0  0  0  0  0  0
   -3.3068   -1.8290   -2.2216 H   0  0  0  0  0  0  0  0  0  0  0  0
   -1.2119   -0.5784   -1.9385 H   0  0  0  0  0  0  0  0  0  0  0  0
  1  2  1  0
  2  3  1  0
  3  4  1  0
  4  5  2  0
  4  6  1  0
  6  7  2  0
  7  8  1  0
  8  9  1  0
  9 10  1  0
 10 11  2  0
 10 12  1  0
 12 13  2  0
 13 14  1  0
 14 15  2  0
 15 16  1  0
 16 17  2  0
  9 18  1  0
 18 19  1  0
 19 20  2  0
 20 21  1  0
 21 22  2  0
 22 23  1  0
 23 24  1  0
 22 25  1  0
 25 26  2  0
 18  6  1  0
 26 19  1  0
 17 12  1  0
  1 27  1  0
  1 28  1  0
  1 29  1  0
  2 30  1  0
  2 31  1  0
  8 32  1  0
  9 33  1  0
 13 34  1  0
 14 35  1  0
 15 36  1  0
 16 37  1  0
 17 38  1  0
 18 39  1  0
 20 40  1  0
 21 41  1  0
 24 42  1  0
 24 43  1  0
 24 44  1  0
 25 45  1  0
 26 46  1  0
M  END
$$$$
