
     RDKit          3D

 50 52  0  0  0  0  0  0  0  0999 V2000
   -4.8391   -2.3982    1.0678 C   0  0  0  0  0  0  0  0  0  0  0  0
   -3.4075   -2.4656    0.5456 C   0  0  0  0  0  0  0  0  0  0  0  0
   -2.5891   -1.1778    0.7871 C   0  0  0  0  0  0  0  0  0  0  0  0
   -3.1503    0.0680    0.1024 C   0  0  0  0  0  0  0  0  0  0  0  0
   -3.3709    1.2722    0.7952 C   0  0  0  0  0  0  0  0  0  0  0  0
   -3.8860    2.3967    0.1436 C   0  0  0  0  0  0  0  0  0  0  0  0
   -4.1839    2.3444   -1.2144 C   0  0  0  0  0  0  0  0  0  0  0  0
   -3.9583    1.1705   -1.9251 C   0  0  0  0  0  0  0  0  0  0  0  0
   -3.4430    0.0465   -1.2749 C   0  0  0  0  0  0  0  0  0  0  0  0
   -2.3646   -1.0018    2.2104 N   0  0  0  0  0  0  0  0  0  0  0  0
   -1.0366   -1.0454    2.5536 C   0  0  0  0  0  0  0  0  0  0  0  0
   -0.6221   -0.8723    3.6875 O   0  0  0  0  0  0  0  0  0  0  0  0
   -0.3102   -1.3279    1.4442 N   0  0  0  0  0  0  0  0  0  0  0  0
    1.1326   -1.3797    1.4042 C   0  0  0  0  0  0  0  0  0  0  0  0
    1.6934    0.0184    1.1112 C   0  0  0  0  0  0  0  0  0  0  0  0
    0.9548    1.0040    1.0382 O   0  0  0  0  0  0  0  0  0  0  0  0
    3.0746    0.1197    0.9416 N   0  0  0  0  0  0  0  0  0  0  0  0
    3.9686   -1.0287    0.8944 C   0  0  0  0  0  0  0  0  0  0  0  0
    3.6207    1.3993    0.4891 C   0  0  0  0  0  0  0  0  0  0  0  0
    3.8833    1.4213   -0.9993 C   0  0  0  0  0  0  0  0  0  0  0  0
    5.1929    1.3571   -1.4972 C   0  0  0  0  0  0  0  0  0  0  0  0
    5.4279    1.3624   -2.8735 C   0  0  0  0  0  0  0  0  0  0  0  0
    4.3584    1.4296   -3.7646 C   0  0  0  0  0  0  0  0  0  0  0  0
    3.0530    1.4926   -3.2817 C   0  0  0  0  0  0  0  0  0  0  0  0
    2.8157    1.4889   -1.9066 C   0  0  0  0  0  0  0  0  0  0  0  0
   -1.1203   -1.4303    0.3484 C   0  0  0  0  0  0  0  0  0  0  0  0
   -0.7460   -1.7013   -0.7872 O   0  0  0  0  0  0  0  0  0  0  0  0
   -4.8634   -2.2157    2.1463 H   0  0  0  0  0  0  0  0  0  0  0  0
   -5.4127   -1.6104    0.5705 H   0  0  0  0  0  0  0  0  0  0  0  0
   -5.3489   -3.3488    0.8797 H   0  0  0  0  0  0  0  0  0  0  0  0
   -2.9084   -3.3160    1.0303 H   0  0  0  0  0  0  0  0  0  0  0  0
   -3.4357   -2.7125   -0.5227 H   0  0  0  0  0  0  0  0  0  0  0  0
   -3.1315    1.3674    1.8518 H   0  0  0  0  0  0  0  0  0  0  0  0
   -4.0431    3.3185    0.6984 H   0  0  0  0  0  0  0  0  0  0  0  0
   -4.5777    3.2217   -1.7203 H   0  0  0  0  0  0  0  0  0  0  0  0
   -4.1724    1.1301   -2.9900 H   0  0  0  0  0  0  0  0  0  0  0  0
   -3.2545   -0.8471   -1.8679 H   0  0  0  0  0  0  0  0  0  0  0  0
   -3.0688   -0.7473    2.8883 H   0  0  0  0  0  0  0  0  0  0  0  0
    1.5054   -1.7154    2.3766 H   0  0  0  0  0  0  0  0  0  0  0  0
    1.4392   -2.0672    0.6102 H   0  0  0  0  0  0  0  0  0  0  0  0
    3.6252   -1.8267    1.5556 H   0  0  0  0  0  0  0  0  0  0  0  0
    4.9704   -0.7280    1.2146 H   0  0  0  0  0  0  0  0  0  0  0  0
    4.0036   -1.4090   -0.1305 H   0  0  0  0  0  0  0  0  0  0  0  0
    4.5460    1.5839    1.0484 H   0  0  0  0  0  0  0  0  0  0  0  0
    2.9466    2.2258    0.7430 H   0  0  0  0  0  0  0  0  0  0  0  0
    6.0392    1.3033   -0.8166 H   0  0  0  0  0  0  0  0  0  0  0  0
    6.4458    1.3145   -3.2514 H   0  0  0  0  0  0  0  0  0  0  0  0
    4.5413    1.4335   -4.8358 H   0  0  0  0  0  0  0  0  0  0  0  0
    2.2164    1.5443   -3.9739 H   0  0  0  0  0  0  0  0  0  0  0  0
    1.7901    1.5387   -1.5430 H   0  0  0  0  0  0  0  0  0  0  0  0
  1  2  1  0
  2  3  1  0
  3  4  1  0
  4  5  2  0
  5  6  1  0
  6  7  2  0
  7  8  1  0
  8  9  2  0
  3 10  1  0
 10 11  1  0
 11 12  2  0
 11 13  1  0
 13 14  1  0
 14 15  1  0
 15 16  2  0
 15 17  1  0
 17 18  1  0
 17 19  1  0
 19 20  1  0
 20 21  2  0
 21 22  1  0
 22 23  2  0
 23 24  1  0
 24 25  2  0
 13 26  1  0
 26 27  2  0
 26  3  1  0
  9  4  1  0
 25 20  1  0
  1 28  1  0
  1 29  1  0
  1 30  1  0
  2 31  1  0
  2 32  1  0
  5 33  1  0
  6 34  1  0
  7 35  1  0
  8 36  1  0
  9 37  1  0
 10 38  1  0
 14 39  1  0
 14 40  1  0
 18 41  1  0
 18 42  1  0
 18 43  1  0
 19 44  1  0
 19 45  1  0
 21 46  1  0
 22 47  1  0
 23 48  1  0
 24 49  1  0
 25 50  1  0
M  END
$$$$
