
     RDKit          3D

 41 42  0  0  0  0  0  0  0  0999 V2000
   -6.8949    0.0024    0.0010 C   0  0  0  0  0  0  0  0  0  0  0  0
   -5.8606   -0.8790    0.6758 C   0  0  0  0  0  0  0  0  0  0  0  0
   -4.5913   -0.2109    0.7164 O   0  0  0  0  0  0  0  0  0  0  0  0
   -3.8041   -0.3570   -0.3832 C   0  0  0  0  0  0  0  0  0  0  0  0
   -4.1143   -1.0152   -1.3684 O   0  0  0  0  0  0  0  0  0  0  0  0
   -2.6069    0.3170   -0.2572 N   0  0  0  0  0  0  0  0  0  0  0  0
   -1.6135    0.2439   -1.3211 C   0  0  0  0  0  0  0  0  0  0  0  0
   -0.1861    0.2030   -0.7609 C   0  0  0  0  0  0  0  0  0  0  0  0
    0.1211    1.3198    0.1583 N   0  0  0  0  0  0  0  0  0  0  0  0
    1.4278    1.8441    0.2877 C   0  0  0  0  0  0  0  0  0  0  0  0
    1.7532    3.4040    0.8116 S   0  0  0  0  0  0  0  0  0  0  0  0
    2.4081    0.9031   -0.0528 N   0  0  0  0  0  0  0  0  0  0  0  0
    3.7899    1.0577   -0.1582 C   0  0  0  0  0  0  0  0  0  0  0  0
    4.3968    2.1017   -0.3541 O   0  0  0  0  0  0  0  0  0  0  0  0
    4.5779   -0.2023   -0.0934 C   0  0  0  0  0  0  0  0  0  0  0  0
    4.1260   -1.3939   -0.6838 C   0  0  0  0  0  0  0  0  0  0  0  0
    4.9069   -2.5507   -0.6011 C   0  0  0  0  0  0  0  0  0  0  0  0
    6.1317   -2.5093    0.0593 C   0  0  0  0  0  0  0  0  0  0  0  0
    6.8722   -3.6230    0.1353 F   0  0  0  0  0  0  0  0  0  0  0  0
    6.5863   -1.3249    0.6280 C   0  0  0  0  0  0  0  0  0  0  0  0
    7.7686   -1.2914    1.2570 F   0  0  0  0  0  0  0  0  0  0  0  0
    5.8206   -0.1668    0.5522 C   0  0  0  0  0  0  0  0  0  0  0  0
   -1.0589    2.0306    0.7012 C   0  0  0  0  0  0  0  0  0  0  0  0
   -2.2647    1.1075    0.9243 C   0  0  0  0  0  0  0  0  0  0  0  0
   -6.9609    0.9723    0.5049 H   0  0  0  0  0  0  0  0  0  0  0  0
   -6.6223    0.2025   -1.0400 H   0  0  0  0  0  0  0  0  0  0  0  0
   -7.8800   -0.4724    0.0188 H   0  0  0  0  0  0  0  0  0  0  0  0
   -6.1569   -1.0640    1.7135 H   0  0  0  0  0  0  0  0  0  0  0  0
   -5.7829   -1.8562    0.1856 H   0  0  0  0  0  0  0  0  0  0  0  0
   -1.7904   -0.6313   -1.9549 H   0  0  0  0  0  0  0  0  0  0  0  0
   -1.7483    1.1363   -1.9439 H   0  0  0  0  0  0  0  0  0  0  0  0
   -0.0445   -0.7194   -0.1849 H   0  0  0  0  0  0  0  0  0  0  0  0
    0.5295    0.2008   -1.5901 H   0  0  0  0  0  0  0  0  0  0  0  0
    2.0967   -0.0368    0.1289 H   0  0  0  0  0  0  0  0  0  0  0  0
    3.1930   -1.4313   -1.2398 H   0  0  0  0  0  0  0  0  0  0  0  0
    4.5779   -3.4804   -1.0566 H   0  0  0  0  0  0  0  0  0  0  0  0
    6.1952    0.7534    0.9941 H   0  0  0  0  0  0  0  0  0  0  0  0
   -1.3191    2.8147   -0.0207 H   0  0  0  0  0  0  0  0  0  0  0  0
   -0.8028    2.5120    1.6501 H   0  0  0  0  0  0  0  0  0  0  0  0
   -2.0417    0.3929    1.7260 H   0  0  0  0  0  0  0  0  0  0  0  0
   -3.1342    1.6969    1.2348 H   0  0  0  0  0  0  0  0  0  0  0  0
  1  2  1  0
  2  3  1  0
  3  4  1  0
  4  5  2  0
  4  6  1  0
  6  7  1  0
  7  8  1  0
  8  9  1  0
  9 10  1  0
 10 11  2  0
 10 12  1  0
 12 13  1  0
 13 14  2  0
 13 15  1  0
 15 16  2  0
 16 17  1  0
 17 18  2  0
 18 19  1  0
 18 20  1  0
 20 21  1  0
 20 22  2  0
  9 23  1  0
 23 24  1  0
 24  6  1  0
 22 15  1  0
  1 25  1  0
  1 26  1  0
  1 27  1  0
  2 28  1  0
  2 29  1  0
  7 30  1  0
  7 31  1  0
  8 32  1  0
  8 33  1  0
 12 34  1  0
 16 35  1  0
 17 36  1  0
 22 37  1  0
 23 38  1  0
 23 39  1  0
 24 40  1  0
 24 41  1  0
M  END
$$$$
