
     RDKit          3D

 44 47  0  0  0  0  0  0  0  0999 V2000
   -5.5291    1.7695   -2.3756 C   0  0  0  0  0  0  0  0  0  0  0  0
   -5.3413    0.3665   -2.2411 O   0  0  0  0  0  0  0  0  0  0  0  0
   -4.2437   -0.0454   -1.5372 C   0  0  0  0  0  0  0  0  0  0  0  0
   -4.0988   -1.4301   -1.4387 C   0  0  0  0  0  0  0  0  0  0  0  0
   -3.0206   -1.9898   -0.7479 C   0  0  0  0  0  0  0  0  0  0  0  0
   -2.0618   -1.1687   -0.1404 C   0  0  0  0  0  0  0  0  0  0  0  0
   -0.8960   -1.7904    0.6133 C   0  0  0  0  0  0  0  0  0  0  0  0
    0.4403   -1.3176    0.0850 C   0  0  0  0  0  0  0  0  0  0  0  0
    1.4981   -1.0660    0.8774 C   0  0  0  0  0  0  0  0  0  0  0  0
    2.7598   -0.5922    0.2755 C   0  0  0  0  0  0  0  0  0  0  0  0
    3.7602   -1.5354    0.0364 C   0  0  0  0  0  0  0  0  0  0  0  0
    4.9378   -1.1062   -0.5389 C   0  0  0  0  0  0  0  0  0  0  0  0
    5.1794    0.1739   -0.8866 N   0  0  0  0  0  0  0  0  0  0  0  0
    4.2210    1.0860   -0.6640 C   0  0  0  0  0  0  0  0  0  0  0  0
    4.4716    2.4032   -1.0272 C   0  0  0  0  0  0  0  0  0  0  0  0
    3.5298    3.4167   -0.8311 C   0  0  0  0  0  0  0  0  0  0  0  0
    2.3074    3.1066   -0.2551 C   0  0  0  0  0  0  0  0  0  0  0  0
    1.1342    4.3384   -0.0062 Cl  0  0  0  0  0  0  0  0  0  0  0  0
    2.0272    1.7964    0.1222 C   0  0  0  0  0  0  0  0  0  0  0  0
    2.9755    0.7635   -0.0788 C   0  0  0  0  0  0  0  0  0  0  0  0
    1.4995   -1.2753    2.3677 C   0  0  0  0  0  0  0  0  0  0  0  0
    0.2214   -1.9571    2.8247 C   0  0  0  0  0  0  0  0  0  0  0  0
    0.2082   -2.7246    3.7875 O   0  0  0  0  0  0  0  0  0  0  0  0
   -1.0501   -1.5564    2.1198 C   0  0  0  0  0  0  0  0  0  0  0  0
   -2.2161    0.2233   -0.2403 C   0  0  0  0  0  0  0  0  0  0  0  0
   -3.2969    0.7804   -0.9341 C   0  0  0  0  0  0  0  0  0  0  0  0
   -4.6973    2.2290   -2.9199 H   0  0  0  0  0  0  0  0  0  0  0  0
   -5.6737    2.2438   -1.3993 H   0  0  0  0  0  0  0  0  0  0  0  0
   -6.4392    1.9303   -2.9615 H   0  0  0  0  0  0  0  0  0  0  0  0
   -4.8343   -2.0811   -1.9057 H   0  0  0  0  0  0  0  0  0  0  0  0
   -2.9413   -3.0734   -0.6915 H   0  0  0  0  0  0  0  0  0  0  0  0
   -0.9119   -2.8755    0.4359 H   0  0  0  0  0  0  0  0  0  0  0  0
    0.5213   -1.1910   -0.9950 H   0  0  0  0  0  0  0  0  0  0  0  0
    3.6279   -2.5832    0.2852 H   0  0  0  0  0  0  0  0  0  0  0  0
    5.7465   -1.8018   -0.7456 H   0  0  0  0  0  0  0  0  0  0  0  0
    5.4312    2.6479   -1.4784 H   0  0  0  0  0  0  0  0  0  0  0  0
    3.7629    4.4349   -1.1303 H   0  0  0  0  0  0  0  0  0  0  0  0
    1.0641    1.5773    0.5746 H   0  0  0  0  0  0  0  0  0  0  0  0
    1.5782   -0.3155    2.8894 H   0  0  0  0  0  0  0  0  0  0  0  0
    2.3411   -1.9117    2.6633 H   0  0  0  0  0  0  0  0  0  0  0  0
   -1.8851   -2.1474    2.5140 H   0  0  0  0  0  0  0  0  0  0  0  0
   -1.2473   -0.5063    2.3674 H   0  0  0  0  0  0  0  0  0  0  0  0
   -1.4928    0.8930    0.2197 H   0  0  0  0  0  0  0  0  0  0  0  0
   -3.3673    1.8619   -0.9833 H   0  0  0  0  0  0  0  0  0  0  0  0
  1  2  1  0
  2  3  1  0
  3  4  2  0
  4  5  1  0
  5  6  2  0
  6  7  1  0
  7  8  1  0
  8  9  2  0
  9 10  1  0
 10 11  2  0
 11 12  1  0
 12 13  2  0
 13 14  1  0
 14 15  2  0
 15 16  1  0
 16 17  2  0
 17 18  1  0
 17 19  1  0
 19 20  2  0
  9 21  1  0
 21 22  1  0
 22 23  2  0
 22 24  1  0
  6 25  1  0
 25 26  2  0
 26  3  1  0
 24  7  1  0
 20 10  1  0
 20 14  1  0
  1 27  1  0
  1 28  1  0
  1 29  1  0
  4 30  1  0
  5 31  1  0
  7 32  1  0
  8 33  1  0
 11 34  1  0
 12 35  1  0
 15 36  1  0
 16 37  1  0
 19 38  1  0
 21 39  1  0
 21 40  1  0
 24 41  1  0
 24 42  1  0
 25 43  1  0
 26 44  1  0
M  END
$$$$
