
     RDKit          3D

 54 56  0  0  0  0  0  0  0  0999 V2000
   -0.0797   -3.0509    1.4057 N   0  0  0  0  0  0  0  0  0  0  0  0
   -1.2769   -2.6527    0.9358 C   0  0  0  0  0  0  0  0  0  0  0  0
   -2.2983   -3.4538    0.8560 N   0  0  0  0  0  0  0  0  0  0  0  0
   -3.3727   -2.6063    0.2641 C   0  0  0  0  0  0  0  0  0  0  0  0
   -2.8601   -1.1511    0.2992 C   0  0  0  0  0  0  0  0  0  0  0  0
   -3.1098   -0.3895   -1.0070 C   0  0  0  0  0  0  0  0  0  0  0  0
   -4.5667   -0.0560   -1.2170 C   0  0  0  0  0  0  0  0  0  0  0  0
   -5.1551    1.0133   -0.5267 C   0  0  0  0  0  0  0  0  0  0  0  0
   -6.5070    1.3112   -0.7034 C   0  0  0  0  0  0  0  0  0  0  0  0
   -7.2838    0.5426   -1.5684 C   0  0  0  0  0  0  0  0  0  0  0  0
   -6.7086   -0.5216   -2.2602 C   0  0  0  0  0  0  0  0  0  0  0  0
   -5.3555   -0.8187   -2.0882 C   0  0  0  0  0  0  0  0  0  0  0  0
   -1.4270   -1.3588    0.5372 N   0  0  0  0  0  0  0  0  0  0  0  0
   -0.6559   -0.2413    1.0693 C   0  0  0  0  0  0  0  0  0  0  0  0
    0.4971    0.0959    0.1205 C   0  0  0  0  0  0  0  0  0  0  0  0
    1.2648    1.3299    0.5978 C   0  0  0  0  0  0  0  0  0  0  0  0
    2.3798    1.7621   -0.3624 C   0  0  0  0  0  0  0  0  0  0  0  0
    3.5273    0.7465   -0.5486 C   0  0  0  0  0  0  0  0  0  0  0  0
    4.5617    1.2715   -1.5681 C   0  0  0  0  0  0  0  0  0  0  0  0
    5.7375    1.9672   -0.8931 C   0  0  0  0  0  0  0  0  0  0  0  0
    6.4964    1.0236    0.0426 C   0  0  0  0  0  0  0  0  0  0  0  0
    5.6207   -0.0853    0.6277 C   0  0  0  0  0  0  0  0  0  0  0  0
    4.1777    0.3727    0.7975 C   0  0  0  0  0  0  0  0  0  0  0  0
   -0.0809   -4.0579    1.5268 H   0  0  0  0  0  0  0  0  0  0  0  0
    0.6834   -2.7663    0.8077 H   0  0  0  0  0  0  0  0  0  0  0  0
   -3.5611   -2.9586   -0.7558 H   0  0  0  0  0  0  0  0  0  0  0  0
   -4.2953   -2.7113    0.8421 H   0  0  0  0  0  0  0  0  0  0  0  0
   -3.3065   -0.6347    1.1592 H   0  0  0  0  0  0  0  0  0  0  0  0
   -2.5420    0.5505   -1.0111 H   0  0  0  0  0  0  0  0  0  0  0  0
   -2.7247   -0.9574   -1.8637 H   0  0  0  0  0  0  0  0  0  0  0  0
   -4.5629    1.6265    0.1492 H   0  0  0  0  0  0  0  0  0  0  0  0
   -6.9553    2.1432   -0.1661 H   0  0  0  0  0  0  0  0  0  0  0  0
   -8.3360    0.7752   -1.7072 H   0  0  0  0  0  0  0  0  0  0  0  0
   -7.3142   -1.1210   -2.9357 H   0  0  0  0  0  0  0  0  0  0  0  0
   -4.9245   -1.6531   -2.6375 H   0  0  0  0  0  0  0  0  0  0  0  0
   -0.2776   -0.4692    2.0739 H   0  0  0  0  0  0  0  0  0  0  0  0
   -1.2967    0.6433    1.1781 H   0  0  0  0  0  0  0  0  0  0  0  0
    0.1042    0.2768   -0.8877 H   0  0  0  0  0  0  0  0  0  0  0  0
    1.1718   -0.7627    0.0451 H   0  0  0  0  0  0  0  0  0  0  0  0
    1.6716    1.1522    1.5995 H   0  0  0  0  0  0  0  0  0  0  0  0
    0.5630    2.1678    0.6960 H   0  0  0  0  0  0  0  0  0  0  0  0
    1.9326    1.9807   -1.3406 H   0  0  0  0  0  0  0  0  0  0  0  0
    2.7952    2.7102    0.0033 H   0  0  0  0  0  0  0  0  0  0  0  0
    3.1011   -0.1647   -0.9881 H   0  0  0  0  0  0  0  0  0  0  0  0
    4.9472    0.4233   -2.1501 H   0  0  0  0  0  0  0  0  0  0  0  0
    4.0913    1.9466   -2.2926 H   0  0  0  0  0  0  0  0  0  0  0  0
    6.4260    2.3658   -1.6474 H   0  0  0  0  0  0  0  0  0  0  0  0
    5.3692    2.8297   -0.3228 H   0  0  0  0  0  0  0  0  0  0  0  0
    7.3370    0.5627   -0.4919 H   0  0  0  0  0  0  0  0  0  0  0  0
    6.9396    1.6156    0.8539 H   0  0  0  0  0  0  0  0  0  0  0  0
    5.6486   -0.9622   -0.0327 H   0  0  0  0  0  0  0  0  0  0  0  0
    6.0319   -0.4074    1.5922 H   0  0  0  0  0  0  0  0  0  0  0  0
    4.1624    1.2292    1.4824 H   0  0  0  0  0  0  0  0  0  0  0  0
    3.5956   -0.4234    1.2769 H   0  0  0  0  0  0  0  0  0  0  0  0
  1  2  1  0
  2  3  2  0
  3  4  1  0
  4  5  1  0
  5  6  1  0
  6  7  1  0
  7  8  2  0
  8  9  1  0
  9 10  2  0
 10 11  1  0
 11 12  2  0
  5 13  1  0
 13 14  1  0
 14 15  1  0
 15 16  1  0
 16 17  1  0
 17 18  1  0
 18 19  1  0
 19 20  1  0
 20 21  1  0
 21 22  1  0
 22 23  1  0
 13  2  1  0
 23 18  1  0
 12  7  1  0
  1 24  1  0
  1 25  1  0
  4 26  1  0
  4 27  1  0
  5 28  1  0
  6 29  1  0
  6 30  1  0
  8 31  1  0
  9 32  1  0
 10 33  1  0
 11 34  1  0
 12 35  1  0
 14 36  1  0
 14 37  1  0
 15 38  1  0
 15 39  1  0
 16 40  1  0
 16 41  1  0
 17 42  1  0
 17 43  1  0
 18 44  1  0
 19 45  1  0
 19 46  1  0
 20 47  1  0
 20 48  1  0
 21 49  1  0
 21 50  1  0
 22 51  1  0
 22 52  1  0
 23 53  1  0
 23 54  1  0
M  END
$$$$
