
     RDKit          3D

 47 50  0  0  0  0  0  0  0  0999 V2000
   -0.5983    3.3760   -0.8368 O   0  0  0  0  0  0  0  0  0  0  0  0
   -0.1197    2.4690   -1.5229 C   0  0  0  0  0  0  0  0  0  0  0  0
   -0.7212    2.1014   -2.8786 C   0  0  0  0  0  0  0  0  0  0  0  0
   -2.5375    2.2020   -2.8494 S   0  0  0  0  0  0  0  0  0  0  0  0
   -2.8828    0.9738   -1.6708 C   0  0  0  0  0  0  0  0  0  0  0  0
   -2.0608   -0.0019   -1.3396 N   0  0  0  0  0  0  0  0  0  0  0  0
   -2.7093   -0.7578   -0.3860 N   0  0  0  0  0  0  0  0  0  0  0  0
   -3.8884   -0.1960   -0.2046 C   0  0  0  0  0  0  0  0  0  0  0  0
   -4.9805   -0.5750    0.6828 C   0  0  0  0  0  0  0  0  0  0  0  0
   -4.8532   -1.7136    1.4936 C   0  0  0  0  0  0  0  0  0  0  0  0
   -5.8848   -2.0995    2.3535 C   0  0  0  0  0  0  0  0  0  0  0  0
   -7.0577   -1.3508    2.4141 C   0  0  0  0  0  0  0  0  0  0  0  0
   -7.2005   -0.2174    1.6167 C   0  0  0  0  0  0  0  0  0  0  0  0
   -6.1687    0.1685    0.7563 C   0  0  0  0  0  0  0  0  0  0  0  0
   -4.0720    0.9060   -0.9974 O   0  0  0  0  0  0  0  0  0  0  0  0
    0.9977    1.7633   -1.1012 N   0  0  0  0  0  0  0  0  0  0  0  0
    1.5068    1.9861    0.2552 C   0  0  0  0  0  0  0  0  0  0  0  0
    2.0903    0.7105    0.8904 C   0  0  0  0  0  0  0  0  0  0  0  0
    3.1381    0.1094    0.0446 N   0  0  0  0  0  0  0  0  0  0  0  0
    4.1535   -0.6528    0.6027 C   0  0  0  0  0  0  0  0  0  0  0  0
    3.9982   -1.2945    1.8432 C   0  0  0  0  0  0  0  0  0  0  0  0
    5.0165   -2.0689    2.4136 C   0  0  0  0  0  0  0  0  0  0  0  0
    6.2279   -2.2232    1.7521 C   0  0  0  0  0  0  0  0  0  0  0  0
    6.4151   -1.6044    0.5227 C   0  0  0  0  0  0  0  0  0  0  0  0
    5.3896   -0.8335   -0.0400 C   0  0  0  0  0  0  0  0  0  0  0  0
    3.1230    0.4435   -1.3862 C   0  0  0  0  0  0  0  0  0  0  0  0
    1.6950    0.7393   -1.8864 C   0  0  0  0  0  0  0  0  0  0  0  0
   -0.3378    2.8103   -3.6189 H   0  0  0  0  0  0  0  0  0  0  0  0
   -0.4498    1.0943   -3.1995 H   0  0  0  0  0  0  0  0  0  0  0  0
   -3.9431   -2.3109    1.4598 H   0  0  0  0  0  0  0  0  0  0  0  0
   -5.7706   -2.9841    2.9752 H   0  0  0  0  0  0  0  0  0  0  0  0
   -7.8605   -1.6501    3.0834 H   0  0  0  0  0  0  0  0  0  0  0  0
   -8.1152    0.3687    1.6639 H   0  0  0  0  0  0  0  0  0  0  0  0
   -6.3046    1.0588    0.1452 H   0  0  0  0  0  0  0  0  0  0  0  0
    0.7162    2.3849    0.8997 H   0  0  0  0  0  0  0  0  0  0  0  0
    2.2861    2.7538    0.1747 H   0  0  0  0  0  0  0  0  0  0  0  0
    2.4894    0.9867    1.8737 H   0  0  0  0  0  0  0  0  0  0  0  0
    1.2896   -0.0245    1.0374 H   0  0  0  0  0  0  0  0  0  0  0  0
    3.0596   -1.2246    2.3860 H   0  0  0  0  0  0  0  0  0  0  0  0
    4.8534   -2.5532    3.3726 H   0  0  0  0  0  0  0  0  0  0  0  0
    7.0202   -2.8225    2.1912 H   0  0  0  0  0  0  0  0  0  0  0  0
    7.3596   -1.7137   -0.0034 H   0  0  0  0  0  0  0  0  0  0  0  0
    5.5936   -0.3529   -0.9923 H   0  0  0  0  0  0  0  0  0  0  0  0
    3.5151   -0.3844   -1.9889 H   0  0  0  0  0  0  0  0  0  0  0  0
    3.7592    1.3211   -1.5548 H   0  0  0  0  0  0  0  0  0  0  0  0
    1.7370    1.0543   -2.9341 H   0  0  0  0  0  0  0  0  0  0  0  0
    1.0863   -0.1712   -1.8288 H   0  0  0  0  0  0  0  0  0  0  0  0
  1  2  2  0
  2  3  1  0
  3  4  1  0
  4  5  1  0
  5  6  2  0
  6  7  1  0
  7  8  2  0
  8  9  1  0
  9 10  2  0
 10 11  1  0
 11 12  2  0
 12 13  1  0
 13 14  2  0
  8 15  1  0
  2 16  1  0
 16 17  1  0
 17 18  1  0
 18 19  1  0
 19 20  1  0
 20 21  2  0
 21 22  1  0
 22 23  2  0
 23 24  1  0
 24 25  2  0
 19 26  1  0
 26 27  1  0
 15  5  1  0
 27 16  1  0
 14  9  1  0
 25 20  1  0
  3 28  1  0
  3 29  1  0
 10 30  1  0
 11 31  1  0
 12 32  1  0
 13 33  1  0
 14 34  1  0
 17 35  1  0
 17 36  1  0
 18 37  1  0
 18 38  1  0
 21 39  1  0
 22 40  1  0
 23 41  1  0
 24 42  1  0
 25 43  1  0
 26 44  1  0
 26 45  1  0
 27 46  1  0
 27 47  1  0
M  END
$$$$
