
     RDKit          3D

 57 59  0  0  0  0  0  0  0  0999 V2000
    4.6995    1.0158    2.8709 C   0  0  0  0  0  0  0  0  0  0  0  0
    3.7564    0.6136    1.7302 C   0  0  0  0  0  0  0  0  0  0  0  0
    2.3091    0.9681    2.1035 C   0  0  0  0  0  0  0  0  0  0  0  0
    4.2032    1.2879    0.4173 C   0  0  0  0  0  0  0  0  0  0  0  0
    3.4477    0.8256   -0.7829 C   0  0  0  0  0  0  0  0  0  0  0  0
    3.4326   -0.4602   -1.3689 C   0  0  0  0  0  0  0  0  0  0  0  0
    2.5596   -0.3409   -2.4221 C   0  0  0  0  0  0  0  0  0  0  0  0
    1.9975   -1.2872   -3.4091 C   0  0  0  0  0  0  0  0  0  0  0  0
    0.6622   -1.6248   -2.9644 N   0  0  0  0  0  0  0  0  0  0  0  0
    0.4531   -2.6602   -2.0831 C   0  0  0  0  0  0  0  0  0  0  0  0
    1.3055   -3.5129   -1.8443 O   0  0  0  0  0  0  0  0  0  0  0  0
   -0.9108   -2.6928   -1.4012 C   0  0  0  0  0  0  0  0  0  0  0  0
   -2.0571   -3.1208   -2.3034 C   0  0  0  0  0  0  0  0  0  0  0  0
   -2.5030   -2.0344   -3.2667 C   0  0  0  0  0  0  0  0  0  0  0  0
   -2.5749   -0.6286   -2.6976 C   0  0  0  0  0  0  0  0  0  0  0  0
   -3.2636    0.2236   -3.2597 O   0  0  0  0  0  0  0  0  0  0  0  0
   -1.7183   -0.3324   -1.6435 N   0  0  0  0  0  0  0  0  0  0  0  0
   -1.6637    1.0517   -1.1595 C   0  0  0  0  0  0  0  0  0  0  0  0
   -2.5438    1.2933    0.0464 C   0  0  0  0  0  0  0  0  0  0  0  0
   -3.9322    1.4224   -0.1003 C   0  0  0  0  0  0  0  0  0  0  0  0
   -4.7475    1.6262    1.0129 C   0  0  0  0  0  0  0  0  0  0  0  0
   -4.1853    1.6950    2.2873 C   0  0  0  0  0  0  0  0  0  0  0  0
   -2.8001    1.5590    2.4623 C   0  0  0  0  0  0  0  0  0  0  0  0
   -2.1817    1.6401    3.8345 C   0  0  0  0  0  0  0  0  0  0  0  0
   -1.7031    2.8813    4.1219 F   0  0  0  0  0  0  0  0  0  0  0  0
   -1.1243    0.7918    3.9841 F   0  0  0  0  0  0  0  0  0  0  0  0
   -3.0521    1.3299    4.8375 F   0  0  0  0  0  0  0  0  0  0  0  0
   -1.9871    1.3683    1.3321 C   0  0  0  0  0  0  0  0  0  0  0  0
   -1.2393   -1.3696   -0.7267 C   0  0  0  0  0  0  0  0  0  0  0  0
    2.1010    0.9385   -2.4824 O   0  0  0  0  0  0  0  0  0  0  0  0
    2.6540    1.6741   -1.4527 N   0  0  0  0  0  0  0  0  0  0  0  0
    4.6731    2.0948    3.0485 H   0  0  0  0  0  0  0  0  0  0  0  0
    5.7338    0.7349    2.6374 H   0  0  0  0  0  0  0  0  0  0  0  0
    4.4223    0.5121    3.8050 H   0  0  0  0  0  0  0  0  0  0  0  0
    3.8191   -0.4770    1.6159 H   0  0  0  0  0  0  0  0  0  0  0  0
    1.6034    0.6092    1.3453 H   0  0  0  0  0  0  0  0  0  0  0  0
    2.0316    0.4997    3.0582 H   0  0  0  0  0  0  0  0  0  0  0  0
    2.1754    2.0518    2.2077 H   0  0  0  0  0  0  0  0  0  0  0  0
    5.2696    1.0771    0.2447 H   0  0  0  0  0  0  0  0  0  0  0  0
    4.1199    2.3789    0.5148 H   0  0  0  0  0  0  0  0  0  0  0  0
    3.9490   -1.3544   -1.0517 H   0  0  0  0  0  0  0  0  0  0  0  0
    1.9127   -0.8190   -4.3944 H   0  0  0  0  0  0  0  0  0  0  0  0
    2.6128   -2.1873   -3.4967 H   0  0  0  0  0  0  0  0  0  0  0  0
    0.0087   -0.8491   -2.9421 H   0  0  0  0  0  0  0  0  0  0  0  0
   -0.8090   -3.4461   -0.6047 H   0  0  0  0  0  0  0  0  0  0  0  0
   -1.7883   -4.0230   -2.8677 H   0  0  0  0  0  0  0  0  0  0  0  0
   -2.9125   -3.3919   -1.6692 H   0  0  0  0  0  0  0  0  0  0  0  0
   -3.4946   -2.2935   -3.6537 H   0  0  0  0  0  0  0  0  0  0  0  0
   -1.8245   -1.9960   -4.1271 H   0  0  0  0  0  0  0  0  0  0  0  0
   -0.6166    1.2711   -0.9179 H   0  0  0  0  0  0  0  0  0  0  0  0
   -1.9418    1.7514   -1.9580 H   0  0  0  0  0  0  0  0  0  0  0  0
   -4.3854    1.3699   -1.0898 H   0  0  0  0  0  0  0  0  0  0  0  0
   -5.8242    1.7333    0.8844 H   0  0  0  0  0  0  0  0  0  0  0  0
   -4.8358    1.8536    3.1462 H   0  0  0  0  0  0  0  0  0  0  0  0
   -0.9083    1.2737    1.4607 H   0  0  0  0  0  0  0  0  0  0  0  0
   -0.3548   -0.9841   -0.2045 H   0  0  0  0  0  0  0  0  0  0  0  0
   -2.0291   -1.5316    0.0185 H   0  0  0  0  0  0  0  0  0  0  0  0
  1  2  1  0
  2  3  1  0
  2  4  1  0
  4  5  1  0
  5  6  1  0
  6  7  2  0
  7  8  1  0
  8  9  1  0
  9 10  1  0
 10 11  2  0
 10 12  1  0
 12 13  1  0
 13 14  1  0
 14 15  1  0
 15 16  2  0
 15 17  1  0
 17 18  1  0
 18 19  1  0
 19 20  2  0
 20 21  1  0
 21 22  2  0
 22 23  1  0
 23 24  1  0
 24 25  1  0
 24 26  1  0
 24 27  1  0
 23 28  2  0
 17 29  1  0
  7 30  1  0
 30 31  1  0
 31  5  2  0
 29 12  1  0
 28 19  1  0
  1 32  1  0
  1 33  1  0
  1 34  1  0
  2 35  1  0
  3 36  1  0
  3 37  1  0
  3 38  1  0
  4 39  1  0
  4 40  1  0
  6 41  1  0
  8 42  1  0
  8 43  1  0
  9 44  1  0
 12 45  1  0
 13 46  1  0
 13 47  1  0
 14 48  1  0
 14 49  1  0
 18 50  1  0
 18 51  1  0
 20 52  1  0
 21 53  1  0
 22 54  1  0
 28 55  1  0
 29 56  1  0
 29 57  1  0
M  END
$$$$
