
     RDKit          3D

 57 61  0  0  0  0  0  0  0  0999 V2000
    7.6243   -0.1825   -3.4790 C   0  0  0  0  0  0  0  0  0  0  0  0
    7.7600    0.1021   -2.0832 O   0  0  0  0  0  0  0  0  0  0  0  0
    6.7053   -0.2480   -1.2823 C   0  0  0  0  0  0  0  0  0  0  0  0
    5.5660   -0.9435   -1.6876 C   0  0  0  0  0  0  0  0  0  0  0  0
    4.5533   -1.2339   -0.7631 C   0  0  0  0  0  0  0  0  0  0  0  0
    4.6625   -0.8381    0.5818 C   0  0  0  0  0  0  0  0  0  0  0  0
    3.5742   -1.1665    1.5736 C   0  0  0  0  0  0  0  0  0  0  0  0
    2.3322   -0.5066    1.2624 N   0  0  0  0  0  0  0  0  0  0  0  0
    1.1778   -0.7911    1.9352 C   0  0  0  0  0  0  0  0  0  0  0  0
    1.1241   -1.5510    2.9016 O   0  0  0  0  0  0  0  0  0  0  0  0
   -0.0323   -0.0736    1.4422 C   0  0  0  0  0  0  0  0  0  0  0  0
   -1.0075    0.1928    2.3312 C   0  0  0  0  0  0  0  0  0  0  0  0
   -2.2507    0.8443    1.9525 C   0  0  0  0  0  0  0  0  0  0  0  0
   -3.2037    1.2735    3.0116 C   0  0  0  0  0  0  0  0  0  0  0  0
   -2.9012    1.1448    4.1889 O   0  0  0  0  0  0  0  0  0  0  0  0
   -4.3933    1.8303    2.5739 N   0  0  0  0  0  0  0  0  0  0  0  0
   -5.3224    2.2929    3.5037 C   0  0  0  0  0  0  0  0  0  0  0  0
   -6.4979    2.8201    3.1369 C   0  0  0  0  0  0  0  0  0  0  0  0
   -6.8256    2.9097    1.7431 C   0  0  0  0  0  0  0  0  0  0  0  0
   -5.9554    2.4826    0.8082 C   0  0  0  0  0  0  0  0  0  0  0  0
   -4.6333    1.9250    1.2161 C   0  0  0  0  0  0  0  0  0  0  0  0
   -3.7950    1.5641    0.2894 N   0  0  0  0  0  0  0  0  0  0  0  0
   -2.5678    1.0471    0.6503 C   0  0  0  0  0  0  0  0  0  0  0  0
   -1.6008    0.7300   -0.3505 N   0  0  0  0  0  0  0  0  0  0  0  0
   -2.0663    0.6056   -1.7438 C   0  0  0  0  0  0  0  0  0  0  0  0
   -2.5720   -0.7849   -2.0257 C   0  0  0  0  0  0  0  0  0  0  0  0
   -1.7178   -1.8843   -2.0852 C   0  0  0  0  0  0  0  0  0  0  0  0
   -2.2327   -3.1593   -2.3444 C   0  0  0  0  0  0  0  0  0  0  0  0
   -3.5975   -3.2936   -2.5615 C   0  0  0  0  0  0  0  0  0  0  0  0
   -4.4522   -2.2580   -2.5139 N   0  0  0  0  0  0  0  0  0  0  0  0
   -3.9255   -1.0307   -2.2359 C   0  0  0  0  0  0  0  0  0  0  0  0
   -0.3007    0.3388    0.0188 C   0  0  0  0  0  0  0  0  0  0  0  0
    0.7187    0.3017   -0.7940 N   0  0  0  0  0  0  0  0  0  0  0  0
    5.8221   -0.1615    0.9877 C   0  0  0  0  0  0  0  0  0  0  0  0
    6.8323    0.1300    0.0599 C   0  0  0  0  0  0  0  0  0  0  0  0
    6.6774    0.2145   -3.8981 H   0  0  0  0  0  0  0  0  0  0  0  0
    7.7139   -1.2747   -3.6569 H   0  0  0  0  0  0  0  0  0  0  0  0
    8.4485    0.3190   -4.0031 H   0  0  0  0  0  0  0  0  0  0  0  0
    5.4329   -1.2874   -2.7148 H   0  0  0  0  0  0  0  0  0  0  0  0
    3.6711   -1.7826   -1.0947 H   0  0  0  0  0  0  0  0  0  0  0  0
    3.4050   -2.2571    1.5814 H   0  0  0  0  0  0  0  0  0  0  0  0
    3.8562   -0.8707    2.5985 H   0  0  0  0  0  0  0  0  0  0  0  0
    2.2551    0.0469    0.3873 H   0  0  0  0  0  0  0  0  0  0  0  0
   -0.8983   -0.0948    3.3799 H   0  0  0  0  0  0  0  0  0  0  0  0
   -5.0539    2.2140    4.5491 H   0  0  0  0  0  0  0  0  0  0  0  0
   -7.2138    3.1818    3.8721 H   0  0  0  0  0  0  0  0  0  0  0  0
   -7.7928    3.3224    1.4649 H   0  0  0  0  0  0  0  0  0  0  0  0
   -6.1685    2.5363   -0.2514 H   0  0  0  0  0  0  0  0  0  0  0  0
   -1.2795    0.8445   -2.4615 H   0  0  0  0  0  0  0  0  0  0  0  0
   -2.8491    1.3392   -1.9732 H   0  0  0  0  0  0  0  0  0  0  0  0
   -0.6486   -1.7643   -1.9205 H   0  0  0  0  0  0  0  0  0  0  0  0
   -1.5894   -4.0248   -2.3775 H   0  0  0  0  0  0  0  0  0  0  0  0
   -4.0486   -4.2726   -2.7828 H   0  0  0  0  0  0  0  0  0  0  0  0
   -4.6563   -0.2309   -2.1872 H   0  0  0  0  0  0  0  0  0  0  0  0
    0.4647    0.6217   -1.7304 H   0  0  0  0  0  0  0  0  0  0  0  0
    5.9509    0.1378    2.0268 H   0  0  0  0  0  0  0  0  0  0  0  0
    7.7218    0.6533    0.3867 H   0  0  0  0  0  0  0  0  0  0  0  0
  1  2  1  0
  2  3  1  0
  3  4  2  0
  4  5  1  0
  5  6  2  0
  6  7  1  0
  7  8  1  0
  8  9  1  0
  9 10  2  0
  9 11  1  0
 11 12  2  0
 12 13  1  0
 13 14  1  0
 14 15  2  0
 14 16  1  0
 16 17  1  0
 17 18  2  0
 18 19  1  0
 19 20  2  0
 20 21  1  0
 21 22  2  0
 22 23  1  0
 23 24  1  0
 24 25  1  0
 25 26  1  0
 26 27  2  0
 27 28  1  0
 28 29  2  0
 29 30  1  0
 30 31  2  0
 24 32  1  0
 32 33  2  3
  6 34  1  0
 34 35  2  0
 35  3  1  0
 32 11  1  0
 23 13  2  0
 31 26  1  0
 21 16  1  0
  1 36  1  0
  1 37  1  0
  1 38  1  0
  4 39  1  0
  5 40  1  0
  7 41  1  0
  7 42  1  0
  8 43  1  0
 12 44  1  0
 17 45  1  0
 18 46  1  0
 19 47  1  0
 20 48  1  0
 25 49  1  0
 25 50  1  0
 27 51  1  0
 28 52  1  0
 29 53  1  0
 31 54  1  0
 33 55  1  0
 34 56  1  0
 35 57  1  0
M  END
$$$$
