
     RDKit          3D

 56 59  0  0  0  0  0  0  0  0999 V2000
   -4.5985    2.3881   -3.4463 C   0  0  0  0  0  0  0  0  0  0  0  0
   -4.3784    2.9584   -2.0578 C   0  0  0  0  0  0  0  0  0  0  0  0
   -4.0722    1.9042   -1.1343 O   0  0  0  0  0  0  0  0  0  0  0  0
   -2.7610    1.5442   -1.0463 C   0  0  0  0  0  0  0  0  0  0  0  0
   -1.8605    2.0718   -1.6951 O   0  0  0  0  0  0  0  0  0  0  0  0
   -2.5110    0.4635   -0.0853 C   0  0  0  0  0  0  0  0  0  0  0  0
   -1.2176    0.0257    0.1900 C   0  0  0  0  0  0  0  0  0  0  0  0
   -0.0544    0.5118   -0.3927 N   0  0  0  0  0  0  0  0  0  0  0  0
    1.2552    0.1031   -0.1596 C   0  0  0  0  0  0  0  0  0  0  0  0
    1.6231   -0.7733    0.6167 O   0  0  0  0  0  0  0  0  0  0  0  0
    2.2356    0.9214   -1.0139 C   0  0  0  0  0  0  0  0  0  0  0  0
    3.6115    0.4835   -0.8340 N   0  0  0  0  0  0  0  0  0  0  0  0
    4.3594    1.1649    0.0996 N   0  0  0  0  0  0  0  0  0  0  0  0
    5.5629    0.7441    0.3538 C   0  0  0  0  0  0  0  0  0  0  0  0
    6.3514    1.5177    1.3954 C   0  0  0  0  0  0  0  0  0  0  0  0
    7.2983    2.2334    1.1400 O   0  0  0  0  0  0  0  0  0  0  0  0
    5.9067    1.2907    2.6339 O   0  0  0  0  0  0  0  0  0  0  0  0
    6.1896   -0.4090   -0.3050 C   0  0  0  0  0  0  0  0  0  0  0  0
    7.4908   -0.8402   -0.0170 C   0  0  0  0  0  0  0  0  0  0  0  0
    8.0212   -1.9448   -0.6886 C   0  0  0  0  0  0  0  0  0  0  0  0
    7.2592   -2.6182   -1.6430 C   0  0  0  0  0  0  0  0  0  0  0  0
    5.9639   -2.1873   -1.9300 C   0  0  0  0  0  0  0  0  0  0  0  0
    5.4313   -1.0793   -1.2587 C   0  0  0  0  0  0  0  0  0  0  0  0
    4.0638   -0.6153   -1.5582 C   0  0  0  0  0  0  0  0  0  0  0  0
    3.3997   -1.1899   -2.4180 O   0  0  0  0  0  0  0  0  0  0  0  0
   -1.1761   -1.1995    1.3599 S   0  0  0  0  0  0  0  0  0  0  0  0
   -2.8614   -1.1963    1.5288 C   0  0  0  0  0  0  0  0  0  0  0  0
   -3.4805   -0.2849    0.6934 C   0  0  0  0  0  0  0  0  0  0  0  0
   -4.9772   -0.1279    0.6895 C   0  0  0  0  0  0  0  0  0  0  0  0
   -5.6916   -1.2750    1.4232 C   0  0  0  0  0  0  0  0  0  0  0  0
   -5.0048   -1.6846    2.7416 C   0  0  0  0  0  0  0  0  0  0  0  0
   -5.0722   -0.5695    3.7898 C   0  0  0  0  0  0  0  0  0  0  0  0
   -3.5505   -2.1296    2.4789 C   0  0  0  0  0  0  0  0  0  0  0  0
   -5.3911    1.6328   -3.4293 H   0  0  0  0  0  0  0  0  0  0  0  0
   -3.6954    1.8926   -3.8160 H   0  0  0  0  0  0  0  0  0  0  0  0
   -4.8778    3.1772   -4.1499 H   0  0  0  0  0  0  0  0  0  0  0  0
   -5.2989    3.4349   -1.7054 H   0  0  0  0  0  0  0  0  0  0  0  0
   -3.5986    3.7284   -2.0581 H   0  0  0  0  0  0  0  0  0  0  0  0
   -0.2054    1.2434   -1.0868 H   0  0  0  0  0  0  0  0  0  0  0  0
    2.1588    1.9779   -0.7333 H   0  0  0  0  0  0  0  0  0  0  0  0
    1.9562    0.8159   -2.0681 H   0  0  0  0  0  0  0  0  0  0  0  0
    6.4430    1.8714    3.2098 H   0  0  0  0  0  0  0  0  0  0  0  0
    8.1122   -0.3343    0.7175 H   0  0  0  0  0  0  0  0  0  0  0  0
    9.0321   -2.2812   -0.4678 H   0  0  0  0  0  0  0  0  0  0  0  0
    7.6722   -3.4792   -2.1639 H   0  0  0  0  0  0  0  0  0  0  0  0
    5.3700   -2.7157   -2.6736 H   0  0  0  0  0  0  0  0  0  0  0  0
   -5.2328    0.8263    1.1657 H   0  0  0  0  0  0  0  0  0  0  0  0
   -5.3531   -0.0965   -0.3391 H   0  0  0  0  0  0  0  0  0  0  0  0
   -6.7356   -0.9948    1.6075 H   0  0  0  0  0  0  0  0  0  0  0  0
   -5.7190   -2.1523    0.7626 H   0  0  0  0  0  0  0  0  0  0  0  0
   -5.5483   -2.5439    3.1557 H   0  0  0  0  0  0  0  0  0  0  0  0
   -4.5088    0.3195    3.4905 H   0  0  0  0  0  0  0  0  0  0  0  0
   -4.6610   -0.9168    4.7439 H   0  0  0  0  0  0  0  0  0  0  0  0
   -6.1102   -0.2682    3.9659 H   0  0  0  0  0  0  0  0  0  0  0  0
   -3.5634   -3.1295    2.0257 H   0  0  0  0  0  0  0  0  0  0  0  0
   -3.0007   -2.2098    3.4241 H   0  0  0  0  0  0  0  0  0  0  0  0
  1  2  1  0
  2  3  1  0
  3  4  1  0
  4  5  2  0
  4  6  1  0
  6  7  2  0
  7  8  1  0
  8  9  1  0
  9 10  2  0
  9 11  1  0
 11 12  1  0
 12 13  1  0
 13 14  2  0
 14 15  1  0
 15 16  2  0
 15 17  1  0
 14 18  1  0
 18 19  2  0
 19 20  1  0
 20 21  2  0
 21 22  1  0
 22 23  2  0
 23 24  1  0
 24 25  2  0
  7 26  1  0
 26 27  1  0
 27 28  2  0
 28 29  1  0
 29 30  1  0
 30 31  1  0
 31 32  1  0
 31 33  1  0
 28  6  1  0
 24 12  1  0
 33 27  1  0
 23 18  1  0
  1 34  1  0
  1 35  1  0
  1 36  1  0
  2 37  1  0
  2 38  1  0
  8 39  1  0
 11 40  1  0
 11 41  1  0
 17 42  1  0
 19 43  1  0
 20 44  1  0
 21 45  1  0
 22 46  1  0
 29 47  1  0
 29 48  1  0
 30 49  1  0
 30 50  1  0
 31 51  1  0
 32 52  1  0
 32 53  1  0
 32 54  1  0
 33 55  1  0
 33 56  1  0
M  END
$$$$
