
     RDKit          3D

 30 31  0  0  0  0  0  0  0  0999 V2000
    2.4504    1.3730   -0.4107 N   0  0  0  0  0  0  0  0  0  0  0  0
    1.5456    0.8146    0.0535 C   0  0  0  0  0  0  0  0  0  0  0  0
    0.4267    0.1000    0.5510 C   0  0  0  0  0  0  0  0  0  0  0  0
    0.0070    0.1538    1.8303 C   0  0  0  0  0  0  0  0  0  0  0  0
    0.6013    0.9013    2.8899 C   0  0  0  0  0  0  0  0  0  0  0  0
    1.8996    1.3639    3.1123 C   0  0  0  0  0  0  0  0  0  0  0  0
    1.9286    2.0469    4.3567 C   0  0  0  0  0  0  0  0  0  0  0  0
    0.6513    1.9552    4.8395 C   0  0  0  0  0  0  0  0  0  0  0  0
    0.0504    2.4346    6.0435 N   0  0  0  0  0  4  0  0  0  0  0  0
    0.7957    3.0493    6.8187 O   0  0  0  0  0  0  0  0  0  0  0  0
   -1.1522    2.2057    6.2221 O   0  0  0  0  0  1  0  0  0  0  0  0
   -0.1522    1.2711    3.9897 O   0  0  0  0  0  0  0  0  0  0  0  0
   -0.3799   -0.7635   -0.3895 C   0  0  0  0  0  0  0  0  0  0  0  0
   -1.3019   -1.4439    0.0520 O   0  0  0  0  0  0  0  0  0  0  0  0
    0.0069   -0.7132   -1.7196 N   0  0  0  0  0  0  0  0  0  0  0  0
   -0.5652   -1.4165   -2.8056 C   0  0  0  0  0  0  0  0  0  0  0  0
    0.0032   -1.1984   -4.0711 C   0  0  0  0  0  0  0  0  0  0  0  0
   -0.4976   -1.8511   -5.2006 C   0  0  0  0  0  0  0  0  0  0  0  0
   -1.5682   -2.7236   -5.0669 C   0  0  0  0  0  0  0  0  0  0  0  0
   -2.0497   -3.3503   -6.1476 F   0  0  0  0  0  0  0  0  0  0  0  0
   -2.1445   -2.9533   -3.8254 C   0  0  0  0  0  0  0  0  0  0  0  0
   -1.6433   -2.3000   -2.6941 C   0  0  0  0  0  0  0  0  0  0  0  0
   -0.8946   -0.3874    2.1179 H   0  0  0  0  0  0  0  0  0  0  0  0
    2.7536    1.2217    2.4625 H   0  0  0  0  0  0  0  0  0  0  0  0
    2.7703    2.5296    4.8348 H   0  0  0  0  0  0  0  0  0  0  0  0
    0.7810   -0.1131   -1.9823 H   0  0  0  0  0  0  0  0  0  0  0  0
    0.8427   -0.5191   -4.1989 H   0  0  0  0  0  0  0  0  0  0  0  0
   -0.0600   -1.6841   -6.1797 H   0  0  0  0  0  0  0  0  0  0  0  0
   -2.9817   -3.6391   -3.7393 H   0  0  0  0  0  0  0  0  0  0  0  0
   -2.1233   -2.5081   -1.7433 H   0  0  0  0  0  0  0  0  0  0  0  0
  1  2  3  0
  2  3  1  0
  3  4  2  3
  4  5  1  0
  5  6  2  0
  6  7  1  0
  7  8  2  0
  8  9  1  0
  9 10  2  0
  9 11  1  0
  8 12  1  0
  3 13  1  0
 13 14  2  0
 13 15  1  0
 15 16  1  0
 16 17  2  0
 17 18  1  0
 18 19  2  0
 19 20  1  0
 19 21  1  0
 21 22  2  0
 12  5  1  0
 22 16  1  0
  4 23  1  0
  6 24  1  0
  7 25  1  0
 15 26  1  0
 17 27  1  0
 18 28  1  0
 21 29  1  0
 22 30  1  0
M  CHG  2   9   1  11  -1
M  END
$$$$
