
     RDKit          3D

 55 57  0  0  0  0  0  0  0  0999 V2000
   -0.0921   -0.7187   -1.7087 O   0  0  0  0  0  0  0  0  0  0  0  0
   -0.0374   -0.6992   -0.4838 C   0  0  0  0  0  0  0  0  0  0  0  0
   -0.9510   -1.3430    0.3248 N   0  0  0  0  0  0  0  0  0  0  0  0
   -2.0001   -2.1662   -0.2424 C   0  0  0  0  0  0  0  0  0  0  0  0
   -3.1638   -2.3602    0.7265 C   0  0  0  0  0  0  0  0  0  0  0  0
   -3.8543   -1.0634    1.1693 C   0  0  0  0  0  0  0  0  0  0  0  0
   -4.4224   -0.2154    0.0296 C   0  0  0  0  0  0  0  0  0  0  0  0
   -5.1765    1.0135    0.5360 C   0  0  0  0  0  0  0  0  0  0  0  0
   -5.9725    1.4726   -0.6788 C   0  0  0  0  0  0  0  0  0  0  0  0
   -6.2484    0.2112   -1.4968 C   0  0  0  0  0  0  0  0  0  0  0  0
   -5.4846   -0.9200   -0.8120 C   0  0  0  0  0  0  0  0  0  0  0  0
    1.0498    0.0360    0.2861 C   0  0  0  0  0  0  0  0  0  0  0  0
    0.4749    1.1758    1.1191 C   0  0  0  0  0  0  0  0  0  0  0  0
    1.5846    1.8280    1.9232 C   0  0  0  0  0  0  0  0  0  0  0  0
    2.8246    2.1906    1.1277 C   0  0  0  0  0  0  0  0  0  0  0  0
    3.5998    3.0406    1.5672 O   0  0  0  0  0  0  0  0  0  0  0  0
    3.0810    1.4583   -0.0194 N   0  0  0  0  0  0  0  0  0  0  0  0
    4.2986    1.7403   -0.7764 C   0  0  0  0  0  0  0  0  0  0  0  0
    5.3164    0.6340   -0.6178 C   0  0  0  0  0  0  0  0  0  0  0  0
    6.0207    0.4946    0.5884 C   0  0  0  0  0  0  0  0  0  0  0  0
    6.9533   -0.5317    0.7513 C   0  0  0  0  0  0  0  0  0  0  0  0
    7.1850   -1.4260   -0.2910 C   0  0  0  0  0  0  0  0  0  0  0  0
    8.3313   -2.6937   -0.0912 Cl  0  0  0  0  0  0  0  0  0  0  0  0
    6.4932   -1.3023   -1.4943 C   0  0  0  0  0  0  0  0  0  0  0  0
    5.5605   -0.2750   -1.6576 C   0  0  0  0  0  0  0  0  0  0  0  0
    2.0737    0.6257   -0.6758 C   0  0  0  0  0  0  0  0  0  0  0  0
   -0.6924   -1.5134    1.2885 H   0  0  0  0  0  0  0  0  0  0  0  0
   -1.5507   -3.1378   -0.4767 H   0  0  0  0  0  0  0  0  0  0  0  0
   -2.3398   -1.7334   -1.1890 H   0  0  0  0  0  0  0  0  0  0  0  0
   -3.9001   -3.0296    0.2664 H   0  0  0  0  0  0  0  0  0  0  0  0
   -2.7988   -2.8737    1.6252 H   0  0  0  0  0  0  0  0  0  0  0  0
   -3.1484   -0.4548    1.7483 H   0  0  0  0  0  0  0  0  0  0  0  0
   -4.6610   -1.3314    1.8639 H   0  0  0  0  0  0  0  0  0  0  0  0
   -3.6083    0.1242   -0.6238 H   0  0  0  0  0  0  0  0  0  0  0  0
   -4.5031    1.7939    0.9036 H   0  0  0  0  0  0  0  0  0  0  0  0
   -5.8615    0.7460    1.3499 H   0  0  0  0  0  0  0  0  0  0  0  0
   -6.8952    1.9847   -0.3889 H   0  0  0  0  0  0  0  0  0  0  0  0
   -5.3787    2.1756   -1.2747 H   0  0  0  0  0  0  0  0  0  0  0  0
   -5.8980    0.3481   -2.5260 H   0  0  0  0  0  0  0  0  0  0  0  0
   -7.3192   -0.0130   -1.5430 H   0  0  0  0  0  0  0  0  0  0  0  0
   -5.0504   -1.6121   -1.5401 H   0  0  0  0  0  0  0  0  0  0  0  0
   -6.1694   -1.4920   -0.1739 H   0  0  0  0  0  0  0  0  0  0  0  0
    1.5470   -0.6918    0.9412 H   0  0  0  0  0  0  0  0  0  0  0  0
   -0.0006    1.9178    0.4644 H   0  0  0  0  0  0  0  0  0  0  0  0
   -0.3047    0.8191    1.8018 H   0  0  0  0  0  0  0  0  0  0  0  0
    1.9054    1.1553    2.7277 H   0  0  0  0  0  0  0  0  0  0  0  0
    1.1981    2.7423    2.3876 H   0  0  0  0  0  0  0  0  0  0  0  0
    4.7551    2.6840   -0.4557 H   0  0  0  0  0  0  0  0  0  0  0  0
    4.0276    1.8790   -1.8303 H   0  0  0  0  0  0  0  0  0  0  0  0
    5.8416    1.1914    1.4067 H   0  0  0  0  0  0  0  0  0  0  0  0
    7.4921   -0.6255    1.6901 H   0  0  0  0  0  0  0  0  0  0  0  0
    6.6740   -2.0007   -2.3069 H   0  0  0  0  0  0  0  0  0  0  0  0
    5.0243   -0.1910   -2.6006 H   0  0  0  0  0  0  0  0  0  0  0  0
    2.5821   -0.1866   -1.2079 H   0  0  0  0  0  0  0  0  0  0  0  0
    1.5887    1.2576   -1.4309 H   0  0  0  0  0  0  0  0  0  0  0  0
  1  2  2  0
  2  3  1  0
  3  4  1  0
  4  5  1  0
  5  6  1  0
  6  7  1  0
  7  8  1  0
  8  9  1  0
  9 10  1  0
 10 11  1  0
  2 12  1  0
 12 13  1  0
 13 14  1  0
 14 15  1  0
 15 16  2  0
 15 17  1  0
 17 18  1  0
 18 19  1  0
 19 20  2  0
 20 21  1  0
 21 22  2  0
 22 23  1  0
 22 24  1  0
 24 25  2  0
 17 26  1  0
 11  7  1  0
 26 12  1  0
 25 19  1  0
  3 27  1  0
  4 28  1  0
  4 29  1  0
  5 30  1  0
  5 31  1  0
  6 32  1  0
  6 33  1  0
  7 34  1  0
  8 35  1  0
  8 36  1  0
  9 37  1  0
  9 38  1  0
 10 39  1  0
 10 40  1  0
 11 41  1  0
 11 42  1  0
 12 43  1  0
 13 44  1  0
 13 45  1  0
 14 46  1  0
 14 47  1  0
 18 48  1  0
 18 49  1  0
 20 50  1  0
 21 51  1  0
 24 52  1  0
 25 53  1  0
 26 54  1  0
 26 55  1  0
M  END
$$$$
