
     RDKit          3D

 44 47  0  0  0  0  0  0  0  0999 V2000
    5.4977    0.0637    2.6450 C   0  0  0  0  0  0  0  0  0  0  0  0
    5.6201   -0.2649    1.1648 C   0  0  0  0  0  0  0  0  0  0  0  0
    4.2792   -0.3242    0.4971 C   0  0  0  0  0  0  0  0  0  0  0  0
    3.4366   -1.4108    0.3668 C   0  0  0  0  0  0  0  0  0  0  0  0
    2.2418   -1.0777   -0.3365 C   0  0  0  0  0  0  0  0  0  0  0  0
    1.1127   -1.9171   -0.6723 C   0  0  0  0  0  0  0  0  0  0  0  0
    1.0857   -3.1004   -0.3453 O   0  0  0  0  0  0  0  0  0  0  0  0
    0.0865   -1.2655   -1.3670 N   0  0  0  0  0  0  0  0  0  0  0  0
   -1.0939   -2.0782   -1.6797 C   0  0  0  0  0  0  0  0  0  0  0  0
   -2.2332   -1.8591   -0.7022 C   0  0  0  0  0  0  0  0  0  0  0  0
   -3.4721   -1.3751   -1.1502 C   0  0  0  0  0  0  0  0  0  0  0  0
   -4.5208   -1.1628   -0.2535 C   0  0  0  0  0  0  0  0  0  0  0  0
   -4.3493   -1.4434    1.0998 C   0  0  0  0  0  0  0  0  0  0  0  0
   -3.1318   -1.9422    1.5564 C   0  0  0  0  0  0  0  0  0  0  0  0
   -2.0810   -2.1532    0.6615 C   0  0  0  0  0  0  0  0  0  0  0  0
    0.2056    0.0851   -1.6996 C   0  0  0  0  0  0  0  0  0  0  0  0
   -1.0940    0.8406   -2.6032 S   0  0  0  0  0  0  0  0  0  0  0  0
   -1.1707    2.4419   -1.7558 C   0  0  0  0  0  0  0  0  0  0  0  0
   -1.5712    2.3207   -0.2999 C   0  0  0  0  0  0  0  0  0  0  0  0
   -2.2023    3.6642   -0.0415 C   0  0  0  0  0  0  0  0  0  0  0  0
   -2.8580    4.0087   -1.2608 O   0  0  0  0  0  0  0  0  0  0  0  0
   -2.2827    3.3122   -2.2930 C   0  0  0  0  0  0  0  0  0  0  0  0
   -2.6214    3.4449   -3.4582 O   0  0  0  0  0  0  0  0  0  0  0  0
    1.2145    0.8451   -1.4034 N   0  0  0  0  0  0  0  0  0  0  0  0
    2.2096    0.2374   -0.7217 C   0  0  0  0  0  0  0  0  0  0  0  0
    3.6111    1.0758   -0.2357 S   0  0  0  0  0  0  0  0  0  0  0  0
    5.0303    1.0422    2.7985 H   0  0  0  0  0  0  0  0  0  0  0  0
    6.4879    0.0843    3.1113 H   0  0  0  0  0  0  0  0  0  0  0  0
    4.8916   -0.6836    3.1686 H   0  0  0  0  0  0  0  0  0  0  0  0
    6.2629    0.4770    0.6759 H   0  0  0  0  0  0  0  0  0  0  0  0
    6.1228   -1.2332    1.0519 H   0  0  0  0  0  0  0  0  0  0  0  0
    3.6601   -2.3978    0.7563 H   0  0  0  0  0  0  0  0  0  0  0  0
   -1.4165   -1.8665   -2.7052 H   0  0  0  0  0  0  0  0  0  0  0  0
   -0.8439   -3.1462   -1.6730 H   0  0  0  0  0  0  0  0  0  0  0  0
   -3.6331   -1.1530   -2.2038 H   0  0  0  0  0  0  0  0  0  0  0  0
   -5.4739   -0.7825   -0.6133 H   0  0  0  0  0  0  0  0  0  0  0  0
   -5.1680   -1.2833    1.7967 H   0  0  0  0  0  0  0  0  0  0  0  0
   -3.0015   -2.1759    2.6104 H   0  0  0  0  0  0  0  0  0  0  0  0
   -1.1468   -2.5617    1.0412 H   0  0  0  0  0  0  0  0  0  0  0  0
   -0.2350    2.9999   -1.8734 H   0  0  0  0  0  0  0  0  0  0  0  0
   -0.7350    2.1181    0.3753 H   0  0  0  0  0  0  0  0  0  0  0  0
   -2.3267    1.5385   -0.1535 H   0  0  0  0  0  0  0  0  0  0  0  0
   -2.9333    3.6220    0.7710 H   0  0  0  0  0  0  0  0  0  0  0  0
   -1.4604    4.4363    0.1883 H   0  0  0  0  0  0  0  0  0  0  0  0
  1  2  1  0
  2  3  1  0
  3  4  2  0
  4  5  1  0
  5  6  1  0
  6  7  2  0
  6  8  1  0
  8  9  1  0
  9 10  1  0
 10 11  2  0
 11 12  1  0
 12 13  2  0
 13 14  1  0
 14 15  2  0
  8 16  1  0
 16 17  1  0
 17 18  1  0
 18 19  1  0
 19 20  1  0
 20 21  1  0
 21 22  1  0
 22 23  2  0
 16 24  2  0
 24 25  1  0
 25 26  1  0
 26  3  1  0
 25  5  2  0
 15 10  1  0
 22 18  1  0
  1 27  1  0
  1 28  1  0
  1 29  1  0
  2 30  1  0
  2 31  1  0
  4 32  1  0
  9 33  1  0
  9 34  1  0
 11 35  1  0
 12 36  1  0
 13 37  1  0
 14 38  1  0
 15 39  1  0
 18 40  1  0
 19 41  1  0
 19 42  1  0
 20 43  1  0
 20 44  1  0
M  END
$$$$
