
     RDKit          3D

 52 55  0  0  0  0  0  0  0  0999 V2000
   -7.4144   -0.0343   -1.2672 C   0  0  0  0  0  0  0  0  0  0  0  0
   -6.1691   -0.1560   -1.9429 O   0  0  0  0  0  0  0  0  0  0  0  0
   -5.1261   -0.6766   -1.2279 C   0  0  0  0  0  0  0  0  0  0  0  0
   -5.1694   -1.0942    0.1027 C   0  0  0  0  0  0  0  0  0  0  0  0
   -4.0219   -1.6121    0.7152 C   0  0  0  0  0  0  0  0  0  0  0  0
   -2.8212   -1.7109    0.0053 C   0  0  0  0  0  0  0  0  0  0  0  0
   -1.6352   -2.2638    0.6651 C   0  0  0  0  0  0  0  0  0  0  0  0
   -0.5343   -1.5768    1.0042 C   0  0  0  0  0  0  0  0  0  0  0  0
   -0.2487    0.1008    0.7842 S   0  0  0  0  0  0  0  0  0  0  0  0
    1.4249   -0.0571    1.2929 C   0  0  0  0  0  0  0  0  0  0  0  0
    2.3320    0.9063    1.0159 C   0  0  0  0  0  0  0  0  0  0  0  0
    3.7390    0.7930    1.1664 C   0  0  0  0  0  0  0  0  0  0  0  0
    4.8950    0.7125    1.2400 N   0  0  0  0  0  0  0  0  0  0  0  0
    1.8943    2.1913    0.4148 C   0  0  0  0  0  0  0  0  0  0  0  0
    1.6619    3.1689    1.1153 O   0  0  0  0  0  0  0  0  0  0  0  0
    1.7897    2.1740   -0.9522 N   0  0  0  0  0  0  0  0  0  0  0  0
    1.2099    3.2934   -1.6589 C   0  0  0  0  0  0  0  0  0  0  0  0
    1.3386    3.0583   -3.1176 C   0  0  0  0  0  0  0  0  0  0  0  0
    1.7476    3.8483   -4.1724 C   0  0  0  0  0  0  0  0  0  0  0  0
    1.6354    3.0509   -5.3366 C   0  0  0  0  0  0  0  0  0  0  0  0
    1.1731    1.8245   -4.9202 C   0  0  0  0  0  0  0  0  0  0  0  0
    0.9888    1.8174   -3.5753 O   0  0  0  0  0  0  0  0  0  0  0  0
    1.6510   -1.3159    1.8654 N   0  0  0  0  0  0  0  0  0  0  0  0
    2.7359   -1.6767    2.7274 C   0  0  0  0  0  0  0  0  0  0  0  0
    3.3391   -2.9386    2.6375 C   0  0  0  0  0  0  0  0  0  0  0  0
    4.3833   -3.2944    3.4952 C   0  0  0  0  0  0  0  0  0  0  0  0
    4.8277   -2.3988    4.4639 C   0  0  0  0  0  0  0  0  0  0  0  0
    4.2228   -1.1505    4.5825 C   0  0  0  0  0  0  0  0  0  0  0  0
    3.1788   -0.7934    3.7247 C   0  0  0  0  0  0  0  0  0  0  0  0
    0.6044   -2.2427    1.6912 C   0  0  0  0  0  0  0  0  0  0  0  0
    0.5553   -3.4118    2.0518 O   0  0  0  0  0  0  0  0  0  0  0  0
   -2.7805   -1.2978   -1.3290 C   0  0  0  0  0  0  0  0  0  0  0  0
   -3.9274   -0.7818   -1.9376 C   0  0  0  0  0  0  0  0  0  0  0  0
   -7.3372    0.6527   -0.4179 H   0  0  0  0  0  0  0  0  0  0  0  0
   -7.7903   -1.0132   -0.9520 H   0  0  0  0  0  0  0  0  0  0  0  0
   -8.1373    0.3876   -1.9723 H   0  0  0  0  0  0  0  0  0  0  0  0
   -6.0773   -1.0308    0.6932 H   0  0  0  0  0  0  0  0  0  0  0  0
   -4.0750   -1.9324    1.7536 H   0  0  0  0  0  0  0  0  0  0  0  0
   -1.7040   -3.3258    0.8989 H   0  0  0  0  0  0  0  0  0  0  0  0
    1.8633    1.3061   -1.4696 H   0  0  0  0  0  0  0  0  0  0  0  0
    1.7219    4.2116   -1.3540 H   0  0  0  0  0  0  0  0  0  0  0  0
    0.1558    3.3735   -1.3732 H   0  0  0  0  0  0  0  0  0  0  0  0
    2.0813    4.8754   -4.1087 H   0  0  0  0  0  0  0  0  0  0  0  0
    1.8650    3.3339   -6.3544 H   0  0  0  0  0  0  0  0  0  0  0  0
    0.9341    0.9017   -5.4311 H   0  0  0  0  0  0  0  0  0  0  0  0
    3.0194   -3.6590    1.8881 H   0  0  0  0  0  0  0  0  0  0  0  0
    4.8479   -4.2733    3.4052 H   0  0  0  0  0  0  0  0  0  0  0  0
    5.6403   -2.6757    5.1302 H   0  0  0  0  0  0  0  0  0  0  0  0
    4.5598   -0.4550    5.3473 H   0  0  0  0  0  0  0  0  0  0  0  0
    2.7018    0.1717    3.8765 H   0  0  0  0  0  0  0  0  0  0  0  0
   -1.8634   -1.3730   -1.9080 H   0  0  0  0  0  0  0  0  0  0  0  0
   -3.8868   -0.4593   -2.9752 H   0  0  0  0  0  0  0  0  0  0  0  0
  1  2  1  0
  2  3  1  0
  3  4  2  0
  4  5  1  0
  5  6  2  0
  6  7  1  0
  7  8  2  3
  8  9  1  0
  9 10  1  0
 10 11  2  3
 11 12  1  0
 12 13  3  0
 11 14  1  0
 14 15  2  0
 14 16  1  0
 16 17  1  0
 17 18  1  0
 18 19  2  0
 19 20  1  0
 20 21  2  0
 21 22  1  0
 10 23  1  0
 23 24  1  0
 24 25  2  0
 25 26  1  0
 26 27  2  0
 27 28  1  0
 28 29  2  0
 23 30  1  0
 30 31  2  0
  6 32  1  0
 32 33  2  0
 33  3  1  0
 30  8  1  0
 22 18  1  0
 29 24  1  0
  1 34  1  0
  1 35  1  0
  1 36  1  0
  4 37  1  0
  5 38  1  0
  7 39  1  0
 16 40  1  0
 17 41  1  0
 17 42  1  0
 19 43  1  0
 20 44  1  0
 21 45  1  0
 25 46  1  0
 26 47  1  0
 27 48  1  0
 28 49  1  0
 29 50  1  0
 32 51  1  0
 33 52  1  0
M  END
$$$$
