
     RDKit          3D

 37 38  0  0  0  0  0  0  0  0999 V2000
   -3.0563    2.4082   -1.2862 C   0  0  0  0  0  0  0  0  0  0  0  0
   -3.3274    1.0486   -0.7143 C   0  0  0  0  0  0  0  0  0  0  0  0
   -4.5433    0.4214   -0.9557 C   0  0  0  0  0  0  0  0  0  0  0  0
   -4.7772   -0.8411   -0.4035 C   0  0  0  0  0  0  0  0  0  0  0  0
   -6.0757   -1.5595   -0.6482 C   0  0  0  0  0  0  0  0  0  0  0  0
   -6.0469   -2.3028   -1.7872 F   0  0  0  0  0  0  0  0  0  0  0  0
   -6.4099   -2.4179    0.3541 F   0  0  0  0  0  0  0  0  0  0  0  0
   -7.1335   -0.7116   -0.7803 F   0  0  0  0  0  0  0  0  0  0  0  0
   -3.7636   -1.4357    0.3549 C   0  0  0  0  0  0  0  0  0  0  0  0
   -2.5659   -0.7573    0.5426 C   0  0  0  0  0  0  0  0  0  0  0  0
   -1.5618   -1.3576    1.3471 N   0  0  0  0  0  0  0  0  0  0  0  0
   -0.3377   -0.6149    1.2638 N   0  0  0  0  0  0  0  0  0  0  0  0
    0.7022   -1.2965    0.6296 C   0  0  0  0  0  0  0  0  0  0  0  0
    0.6074   -2.4807    0.3267 O   0  0  0  0  0  0  0  0  0  0  0  0
    1.7899   -0.4700    0.4455 N   0  0  0  0  0  0  0  0  0  0  0  0
    2.9696   -0.8770   -0.1440 C   0  0  0  0  0  0  0  0  0  0  0  0
    3.1044   -1.8178   -0.9155 O   0  0  0  0  0  0  0  0  0  0  0  0
    4.1607   -0.0360    0.1610 C   0  0  0  0  0  0  0  0  0  0  0  0
    5.4114   -0.6650    0.2342 C   0  0  0  0  0  0  0  0  0  0  0  0
    6.5586    0.0802    0.5184 C   0  0  0  0  0  0  0  0  0  0  0  0
    6.4569    1.4554    0.7187 C   0  0  0  0  0  0  0  0  0  0  0  0
    7.8673    2.3758    1.0676 Cl  0  0  0  0  0  0  0  0  0  0  0  0
    5.2193    2.0935    0.6301 C   0  0  0  0  0  0  0  0  0  0  0  0
    4.0685    1.3506    0.3468 C   0  0  0  0  0  0  0  0  0  0  0  0
   -2.3495    0.4812    0.0303 N   0  0  0  0  0  0  0  0  0  0  0  0
   -2.0574    2.7567   -1.0045 H   0  0  0  0  0  0  0  0  0  0  0  0
   -3.1107    2.3766   -2.3787 H   0  0  0  0  0  0  0  0  0  0  0  0
   -3.7879    3.1296   -0.9094 H   0  0  0  0  0  0  0  0  0  0  0  0
   -5.3032    0.9104   -1.5608 H   0  0  0  0  0  0  0  0  0  0  0  0
   -3.9101   -2.4161    0.8009 H   0  0  0  0  0  0  0  0  0  0  0  0
   -1.3968   -2.3188    1.0179 H   0  0  0  0  0  0  0  0  0  0  0  0
   -0.5219    0.3239    0.9017 H   0  0  0  0  0  0  0  0  0  0  0  0
    1.8322    0.2751    1.1210 H   0  0  0  0  0  0  0  0  0  0  0  0
    5.4936   -1.7387    0.0690 H   0  0  0  0  0  0  0  0  0  0  0  0
    7.5234   -0.4174    0.5762 H   0  0  0  0  0  0  0  0  0  0  0  0
    5.1482    3.1698    0.7686 H   0  0  0  0  0  0  0  0  0  0  0  0
    3.1231    1.8754    0.2420 H   0  0  0  0  0  0  0  0  0  0  0  0
  1  2  1  0
  2  3  2  0
  3  4  1  0
  4  5  1  0
  5  6  1  0
  5  7  1  0
  5  8  1  0
  4  9  2  0
  9 10  1  0
 10 11  1  0
 11 12  1  0
 12 13  1  0
 13 14  2  0
 13 15  1  0
 15 16  1  0
 16 17  2  0
 16 18  1  0
 18 19  2  0
 19 20  1  0
 20 21  2  0
 21 22  1  0
 21 23  1  0
 23 24  2  0
 10 25  2  0
 25  2  1  0
 24 18  1  0
  1 26  1  0
  1 27  1  0
  1 28  1  0
  3 29  1  0
  9 30  1  0
 11 31  1  0
 12 32  1  0
 15 33  1  0
 19 34  1  0
 20 35  1  0
 23 36  1  0
 24 37  1  0
M  END
$$$$
