
     RDKit          3D

 38 40  0  0  0  0  0  0  0  0999 V2000
   -1.0077    1.3251    4.0414 C   0  0  0  0  0  0  0  0  0  0  0  0
   -0.6449    0.8979    2.7290 O   0  0  0  0  0  0  0  0  0  0  0  0
   -0.4113   -0.4291    2.6421 C   0  0  0  0  0  0  0  0  0  0  0  0
   -0.4878   -1.2683    3.5193 O   0  0  0  0  0  0  0  0  0  0  0  0
   -0.0201   -0.7654    1.2165 C   0  0  0  0  0  0  0  0  0  0  0  0
    1.2417   -0.6893    0.9301 N   0  0  0  0  0  0  0  0  0  0  0  0
    1.6492   -0.9968   -0.3601 N   0  0  0  0  0  0  0  0  0  0  0  0
    3.0731   -0.8643   -0.5581 C   0  0  0  0  0  0  0  0  0  0  0  0
    3.9040   -0.4859    0.5166 C   0  0  0  0  0  0  0  0  0  0  0  0
    5.2887   -0.3448    0.3666 C   0  0  0  0  0  0  0  0  0  0  0  0
    5.8810   -0.5785   -0.8674 C   0  0  0  0  0  0  0  0  0  0  0  0
    5.0874   -0.9518   -1.9457 C   0  0  0  0  0  0  0  0  0  0  0  0
    3.7008   -1.0925   -1.7918 C   0  0  0  0  0  0  0  0  0  0  0  0
    0.7481   -1.4043   -1.3529 C   0  0  0  0  0  0  0  0  0  0  0  0
    0.9915   -1.7175   -2.5161 O   0  0  0  0  0  0  0  0  0  0  0  0
   -0.6780   -1.4631   -0.9569 C   0  0  0  0  0  0  0  0  0  0  0  0
   -1.0876   -1.1435    0.2707 C   0  0  0  0  0  0  0  0  0  0  0  0
   -2.7384   -1.1939    0.7668 S   0  0  0  0  0  0  0  0  0  0  0  0
   -3.4127    0.0773   -0.2882 C   0  0  0  0  0  0  0  0  0  0  0  0
   -3.0764    1.4240   -0.1041 C   0  0  0  0  0  0  0  0  0  0  0  0
   -3.6190    2.4057   -0.9383 C   0  0  0  0  0  0  0  0  0  0  0  0
   -4.5044    2.0428   -1.9513 C   0  0  0  0  0  0  0  0  0  0  0  0
   -5.1728    3.2513   -2.9760 Cl  0  0  0  0  0  0  0  0  0  0  0  0
   -4.8548    0.7070   -2.1352 C   0  0  0  0  0  0  0  0  0  0  0  0
   -4.3120   -0.2747   -1.3013 C   0  0  0  0  0  0  0  0  0  0  0  0
   -1.9409    0.8467    4.3555 H   0  0  0  0  0  0  0  0  0  0  0  0
   -0.2034    1.1102    4.7520 H   0  0  0  0  0  0  0  0  0  0  0  0
   -1.1658    2.4068    4.0142 H   0  0  0  0  0  0  0  0  0  0  0  0
    3.4862   -0.2956    1.5024 H   0  0  0  0  0  0  0  0  0  0  0  0
    5.8978   -0.0538    1.2183 H   0  0  0  0  0  0  0  0  0  0  0  0
    6.9552   -0.4712   -0.9894 H   0  0  0  0  0  0  0  0  0  0  0  0
    5.5413   -1.1369   -2.9164 H   0  0  0  0  0  0  0  0  0  0  0  0
    3.1465   -1.3829   -2.6774 H   0  0  0  0  0  0  0  0  0  0  0  0
   -1.3588   -1.7765   -1.7399 H   0  0  0  0  0  0  0  0  0  0  0  0
   -2.3964    1.7275    0.6883 H   0  0  0  0  0  0  0  0  0  0  0  0
   -3.3503    3.4486   -0.7904 H   0  0  0  0  0  0  0  0  0  0  0  0
   -5.5499    0.4232   -2.9213 H   0  0  0  0  0  0  0  0  0  0  0  0
   -4.5992   -1.3134   -1.4516 H   0  0  0  0  0  0  0  0  0  0  0  0
  1  2  1  0
  2  3  1  0
  3  4  2  0
  3  5  1  0
  5  6  2  0
  6  7  1  0
  7  8  1  0
  8  9  2  0
  9 10  1  0
 10 11  2  0
 11 12  1  0
 12 13  2  0
  7 14  1  0
 14 15  2  0
 14 16  1  0
 16 17  2  0
 17 18  1  0
 18 19  1  0
 19 20  2  0
 20 21  1  0
 21 22  2  0
 22 23  1  0
 22 24  1  0
 24 25  2  0
 17  5  1  0
 25 19  1  0
 13  8  1  0
  1 26  1  0
  1 27  1  0
  1 28  1  0
  9 29  1  0
 10 30  1  0
 11 31  1  0
 12 32  1  0
 13 33  1  0
 16 34  1  0
 20 35  1  0
 21 36  1  0
 24 37  1  0
 25 38  1  0
M  END
$$$$
