
     RDKit          3D

 45 47  0  0  0  0  0  0  0  0999 V2000
    1.9692    0.6430   -3.1891 C   0  0  0  0  0  0  0  0  0  0  0  0
    2.8838    0.7449   -2.0053 C   0  0  0  0  0  0  0  0  0  0  0  0
    3.9609   -0.1296   -1.8765 C   0  0  0  0  0  0  0  0  0  0  0  0
    4.7837   -0.0232   -0.7579 C   0  0  0  0  0  0  0  0  0  0  0  0
    4.5039    0.9421    0.2011 C   0  0  0  0  0  0  0  0  0  0  0  0
    3.4103    1.7600   -0.0126 C   0  0  0  0  0  0  0  0  0  0  0  0
    2.9858    2.7350    0.9082 N   0  0  0  0  0  0  0  0  0  0  0  0
    2.3431    2.1589    2.3551 S   0  0  0  0  0  6  0  0  0  0  0  0
    3.3610    1.4007    3.0539 O   0  0  0  0  0  0  0  0  0  0  0  0
    1.6855    3.2808    2.9929 O   0  0  0  0  0  0  0  0  0  0  0  0
    1.0715    1.0303    1.8333 C   0  0  0  0  0  0  0  0  0  0  0  0
   -0.1440    1.5349    1.3705 C   0  0  0  0  0  0  0  0  0  0  0  0
   -1.1411    0.6531    0.9441 C   0  0  0  0  0  0  0  0  0  0  0  0
   -0.9456   -0.7347    0.9875 C   0  0  0  0  0  0  0  0  0  0  0  0
   -1.9931   -1.7376    0.5165 C   0  0  0  0  0  0  0  0  0  0  0  0
   -3.3240   -1.6704    1.2890 C   0  0  0  0  0  0  0  0  0  0  0  0
   -4.3511   -0.6858    0.7341 C   0  0  0  0  0  0  0  0  0  0  0  0
   -4.5330   -0.8303   -0.7712 C   0  0  0  0  0  0  0  0  0  0  0  0
   -3.2093   -0.7169   -1.5165 C   0  0  0  0  0  0  0  0  0  0  0  0
   -2.1868   -1.7309   -1.0105 C   0  0  0  0  0  0  0  0  0  0  0  0
    0.2824   -1.2182    1.4789 C   0  0  0  0  0  0  0  0  0  0  0  0
    1.2856   -0.3454    1.9054 C   0  0  0  0  0  0  0  0  0  0  0  0
    2.6018    1.6962   -1.0842 N   0  0  0  0  0  0  0  0  0  0  0  0
    1.4635   -0.3273   -3.1888 H   0  0  0  0  0  0  0  0  0  0  0  0
    2.5353    0.7554   -4.1187 H   0  0  0  0  0  0  0  0  0  0  0  0
    1.2048    1.4260   -3.1588 H   0  0  0  0  0  0  0  0  0  0  0  0
    4.1585   -0.8837   -2.6319 H   0  0  0  0  0  0  0  0  0  0  0  0
    5.6317   -0.6904   -0.6324 H   0  0  0  0  0  0  0  0  0  0  0  0
    5.1214    1.0462    1.0864 H   0  0  0  0  0  0  0  0  0  0  0  0
    2.3454    3.3892    0.4643 H   0  0  0  0  0  0  0  0  0  0  0  0
   -0.3224    2.6068    1.3301 H   0  0  0  0  0  0  0  0  0  0  0  0
   -2.0675    1.0785    0.5733 H   0  0  0  0  0  0  0  0  0  0  0  0
   -1.5780   -2.7288    0.7533 H   0  0  0  0  0  0  0  0  0  0  0  0
   -3.1476   -1.4602    2.3509 H   0  0  0  0  0  0  0  0  0  0  0  0
   -3.7805   -2.6692    1.2494 H   0  0  0  0  0  0  0  0  0  0  0  0
   -5.3138   -0.8531    1.2322 H   0  0  0  0  0  0  0  0  0  0  0  0
   -4.0638    0.3421    0.9754 H   0  0  0  0  0  0  0  0  0  0  0  0
   -4.9931   -1.8016   -0.9909 H   0  0  0  0  0  0  0  0  0  0  0  0
   -5.2261   -0.0623   -1.1331 H   0  0  0  0  0  0  0  0  0  0  0  0
   -2.8150    0.3002   -1.4247 H   0  0  0  0  0  0  0  0  0  0  0  0
   -3.3814   -0.8828   -2.5867 H   0  0  0  0  0  0  0  0  0  0  0  0
   -1.2299   -1.5774   -1.5247 H   0  0  0  0  0  0  0  0  0  0  0  0
   -2.5369   -2.7284   -1.3096 H   0  0  0  0  0  0  0  0  0  0  0  0
    0.4706   -2.2892    1.5325 H   0  0  0  0  0  0  0  0  0  0  0  0
    2.2242   -0.7469    2.2799 H   0  0  0  0  0  0  0  0  0  0  0  0
  1  2  1  0
  2  3  2  0
  3  4  1  0
  4  5  2  0
  5  6  1  0
  6  7  1  0
  7  8  1  0
  8  9  2  0
  8 10  2  0
  8 11  1  0
 11 12  2  0
 12 13  1  0
 13 14  2  0
 14 15  1  0
 15 16  1  0
 16 17  1  0
 17 18  1  0
 18 19  1  0
 19 20  1  0
 14 21  1  0
 21 22  2  0
  6 23  2  0
 23  2  1  0
 22 11  1  0
 20 15  1  0
  1 24  1  0
  1 25  1  0
  1 26  1  0
  3 27  1  0
  4 28  1  0
  5 29  1  0
  7 30  1  0
 12 31  1  0
 13 32  1  0
 15 33  1  0
 16 34  1  0
 16 35  1  0
 17 36  1  0
 17 37  1  0
 18 38  1  0
 18 39  1  0
 19 40  1  0
 19 41  1  0
 20 42  1  0
 20 43  1  0
 21 44  1  0
 22 45  1  0
M  END
$$$$
