
     RDKit          3D

 42 44  0  0  0  0  0  0  0  0999 V2000
    4.1290   -0.0416   -0.5768 C   0  0  0  0  0  0  0  0  0  0  0  0
    3.8671    0.2458    0.8996 C   0  0  0  0  0  0  0  0  0  0  0  0
    5.1814    0.2544    1.6790 C   0  0  0  0  0  0  0  0  0  0  0  0
    2.7811   -1.0447    1.6263 S   0  0  0  0  0  0  0  0  0  0  0  0
    1.1849   -0.6002    0.9526 C   0  0  0  0  0  0  0  0  0  0  0  0
    0.1633   -1.5242    1.0201 C   0  0  0  0  0  0  0  0  0  0  0  0
   -1.0642   -1.1583    0.5076 C   0  0  0  0  0  0  0  0  0  0  0  0
   -2.1466   -2.0102    0.5430 N   0  0  0  0  0  0  0  0  0  0  0  0
   -3.3963   -1.5928   -0.0867 C   0  0  0  0  0  0  0  0  0  0  0  0
   -4.2758   -2.8316    0.0465 C   0  0  0  0  0  0  0  0  0  0  0  0
   -3.2803   -3.9641   -0.1473 C   0  0  0  0  0  0  0  0  0  0  0  0
   -2.0199   -3.4642    0.5609 C   0  0  0  0  0  0  0  0  0  0  0  0
   -1.2410    0.0696   -0.0076 N   0  0  0  0  0  0  0  0  0  0  0  0
   -0.1903    0.9036   -0.0492 C   0  0  0  0  0  0  0  0  0  0  0  0
   -0.4003    2.2510   -0.5897 C   0  0  0  0  0  0  0  0  0  0  0  0
    0.0541    3.3654    0.1501 C   0  0  0  0  0  0  0  0  0  0  0  0
   -0.1302    4.6739   -0.3043 C   0  0  0  0  0  0  0  0  0  0  0  0
   -0.7708    4.9014   -1.5164 C   0  0  0  0  0  0  0  0  0  0  0  0
   -1.2180    3.8207   -2.2742 C   0  0  0  0  0  0  0  0  0  0  0  0
   -1.0332    2.5062   -1.8201 C   0  0  0  0  0  0  0  0  0  0  0  0
   -1.5692    1.2432   -2.8793 Cl  0  0  0  0  0  0  0  0  0  0  0  0
    1.0294    0.6231    0.4313 N   0  0  0  0  0  0  0  0  0  0  0  0
    4.6136   -1.0139   -0.7216 H   0  0  0  0  0  0  0  0  0  0  0  0
    4.7922    0.7215   -0.9996 H   0  0  0  0  0  0  0  0  0  0  0  0
    3.2071   -0.0289   -1.1668 H   0  0  0  0  0  0  0  0  0  0  0  0
    3.4029    1.2308    1.0150 H   0  0  0  0  0  0  0  0  0  0  0  0
    5.7074   -0.7046    1.6072 H   0  0  0  0  0  0  0  0  0  0  0  0
    5.0152    0.4783    2.7388 H   0  0  0  0  0  0  0  0  0  0  0  0
    5.8518    1.0269    1.2857 H   0  0  0  0  0  0  0  0  0  0  0  0
    0.3221   -2.4926    1.4737 H   0  0  0  0  0  0  0  0  0  0  0  0
   -3.8493   -0.7324    0.4171 H   0  0  0  0  0  0  0  0  0  0  0  0
   -3.2421   -1.3557   -1.1467 H   0  0  0  0  0  0  0  0  0  0  0  0
   -5.0892   -2.8500   -0.6839 H   0  0  0  0  0  0  0  0  0  0  0  0
   -4.7106   -2.8826    1.0520 H   0  0  0  0  0  0  0  0  0  0  0  0
   -3.6353   -4.9171    0.2547 H   0  0  0  0  0  0  0  0  0  0  0  0
   -3.0768   -4.1008   -1.2164 H   0  0  0  0  0  0  0  0  0  0  0  0
   -1.9924   -3.8181    1.5973 H   0  0  0  0  0  0  0  0  0  0  0  0
   -1.1298   -3.8279    0.0354 H   0  0  0  0  0  0  0  0  0  0  0  0
    0.5558    3.2077    1.1048 H   0  0  0  0  0  0  0  0  0  0  0  0
    0.2264    5.5106    0.2915 H   0  0  0  0  0  0  0  0  0  0  0  0
   -0.9171    5.9169   -1.8755 H   0  0  0  0  0  0  0  0  0  0  0  0
   -1.7064    4.0059   -3.2281 H   0  0  0  0  0  0  0  0  0  0  0  0
  1  2  1  0
  2  3  1  0
  2  4  1  0
  4  5  1  0
  5  6  2  0
  6  7  1  0
  7  8  1  0
  8  9  1  0
  9 10  1  0
 10 11  1  0
 11 12  1  0
  7 13  2  0
 13 14  1  0
 14 15  1  0
 15 16  2  0
 16 17  1  0
 17 18  2  0
 18 19  1  0
 19 20  2  0
 20 21  1  0
 14 22  2  0
 22  5  1  0
 12  8  1  0
 20 15  1  0
  1 23  1  0
  1 24  1  0
  1 25  1  0
  2 26  1  0
  3 27  1  0
  3 28  1  0
  3 29  1  0
  6 30  1  0
  9 31  1  0
  9 32  1  0
 10 33  1  0
 10 34  1  0
 11 35  1  0
 11 36  1  0
 12 37  1  0
 12 38  1  0
 16 39  1  0
 17 40  1  0
 18 41  1  0
 19 42  1  0
M  END
$$$$
