
     RDKit          3D

 43 44  0  0  0  0  0  0  0  0999 V2000
   -7.1033    0.5495   -1.6408 C   0  0  0  0  0  0  0  0  0  0  0  0
   -6.2047   -0.0045   -0.5467 C   0  0  0  0  0  0  0  0  0  0  0  0
   -4.7874    0.5548   -0.6497 C   0  0  0  0  0  0  0  0  0  0  0  0
   -3.9139    0.0006    0.4101 C   0  0  0  0  0  0  0  0  0  0  0  0
   -3.1701   -1.0853    0.4036 N   0  0  0  0  0  0  0  0  0  0  0  0
   -2.5733   -1.1456    1.6422 N   0  0  0  0  0  0  0  0  0  0  0  0
   -2.9725   -0.0813    2.3124 C   0  0  0  0  0  0  0  0  0  0  0  0
   -2.4553    0.3219    3.9173 S   0  0  0  0  0  0  0  0  0  0  0  0
   -1.0716   -0.8330    4.1318 C   0  0  0  0  0  0  0  0  0  0  0  0
    0.1483   -0.3703    3.3468 C   0  0  0  0  0  0  0  0  0  0  0  0
    0.9693    0.3874    3.8572 O   0  0  0  0  0  0  0  0  0  0  0  0
    0.2001   -0.8810    2.0607 N   0  0  0  0  0  0  0  0  0  0  0  0
    1.1982   -0.6724    1.0888 C   0  0  0  0  0  0  0  0  0  0  0  0
    0.9550   -1.1849   -0.1915 C   0  0  0  0  0  0  0  0  0  0  0  0
    1.8946   -1.0255   -1.2152 C   0  0  0  0  0  0  0  0  0  0  0  0
    3.0962   -0.3525   -0.9717 C   0  0  0  0  0  0  0  0  0  0  0  0
    4.0649   -0.2113   -2.0924 C   0  0  0  0  0  0  0  0  0  0  0  0
    3.8512   -0.6193   -3.2233 O   0  0  0  0  0  0  0  0  0  0  0  0
    5.1925    0.4156   -1.6744 O   0  0  0  0  0  0  0  0  0  0  0  0
    6.1868    0.5788   -2.6927 C   0  0  0  0  0  0  0  0  0  0  0  0
    7.3937    1.2534   -2.0700 C   0  0  0  0  0  0  0  0  0  0  0  0
    3.3434    0.1566    0.3087 C   0  0  0  0  0  0  0  0  0  0  0  0
    2.3991   -0.0045    1.3315 C   0  0  0  0  0  0  0  0  0  0  0  0
   -3.8401    0.6911    1.5886 O   0  0  0  0  0  0  0  0  0  0  0  0
   -8.1128    0.1373   -1.5474 H   0  0  0  0  0  0  0  0  0  0  0  0
   -6.7205    0.2869   -2.6321 H   0  0  0  0  0  0  0  0  0  0  0  0
   -7.1742    1.6399   -1.5768 H   0  0  0  0  0  0  0  0  0  0  0  0
   -6.1838   -1.0992   -0.6173 H   0  0  0  0  0  0  0  0  0  0  0  0
   -6.6357    0.2402    0.4318 H   0  0  0  0  0  0  0  0  0  0  0  0
   -4.3595    0.3099   -1.6288 H   0  0  0  0  0  0  0  0  0  0  0  0
   -4.8086    1.6482   -0.5754 H   0  0  0  0  0  0  0  0  0  0  0  0
   -0.7983   -0.8570    5.1921 H   0  0  0  0  0  0  0  0  0  0  0  0
   -1.3518   -1.8551    3.8573 H   0  0  0  0  0  0  0  0  0  0  0  0
   -0.6264   -1.3822    1.7361 H   0  0  0  0  0  0  0  0  0  0  0  0
    0.0275   -1.7093   -0.4139 H   0  0  0  0  0  0  0  0  0  0  0  0
    1.6821   -1.4305   -2.2029 H   0  0  0  0  0  0  0  0  0  0  0  0
    6.4756   -0.4006   -3.0903 H   0  0  0  0  0  0  0  0  0  0  0  0
    5.7891    1.2036   -3.5001 H   0  0  0  0  0  0  0  0  0  0  0  0
    7.7871    0.6517   -1.2433 H   0  0  0  0  0  0  0  0  0  0  0  0
    8.1850    1.3983   -2.8110 H   0  0  0  0  0  0  0  0  0  0  0  0
    7.1176    2.2268   -1.6527 H   0  0  0  0  0  0  0  0  0  0  0  0
    4.2677    0.6834    0.5336 H   0  0  0  0  0  0  0  0  0  0  0  0
    2.6386    0.4015    2.3099 H   0  0  0  0  0  0  0  0  0  0  0  0
  1  2  1  0
  2  3  1  0
  3  4  1  0
  4  5  2  0
  5  6  1  0
  6  7  2  0
  7  8  1  0
  8  9  1  0
  9 10  1  0
 10 11  2  0
 10 12  1  0
 12 13  1  0
 13 14  2  0
 14 15  1  0
 15 16  2  0
 16 17  1  0
 17 18  2  0
 17 19  1  0
 19 20  1  0
 20 21  1  0
 16 22  1  0
 22 23  2  0
  7 24  1  0
 24  4  1  0
 23 13  1  0
  1 25  1  0
  1 26  1  0
  1 27  1  0
  2 28  1  0
  2 29  1  0
  3 30  1  0
  3 31  1  0
  9 32  1  0
  9 33  1  0
 12 34  1  0
 14 35  1  0
 15 36  1  0
 20 37  1  0
 20 38  1  0
 21 39  1  0
 21 40  1  0
 21 41  1  0
 22 42  1  0
 23 43  1  0
M  END
$$$$
