
     RDKit          3D

 60 64  0  0  0  0  0  0  0  0999 V2000
   -5.1810   -2.7536    2.4038 C   0  0  0  0  0  0  0  0  0  0  0  0
   -5.0213   -2.2576    0.9721 C   0  0  0  0  0  0  0  0  0  0  0  0
   -3.5699   -1.8923    0.6268 C   0  0  0  0  0  0  0  0  0  0  0  0
   -3.4207   -1.9099   -0.8278 N   0  0  0  0  0  0  0  0  0  0  0  0
   -2.1202   -1.5739   -1.2219 C   0  0  0  0  0  0  0  0  0  0  0  0
   -1.6811   -2.2005   -2.3204 N   0  0  0  0  0  0  0  0  0  0  0  0
   -0.4633   -1.8516   -2.7321 C   0  0  0  0  0  0  0  0  0  0  0  0
    0.3626   -0.9979   -2.1174 N   0  0  0  0  0  0  0  0  0  0  0  0
   -0.0722   -0.4085   -0.9854 C   0  0  0  0  0  0  0  0  0  0  0  0
    0.8768    0.3211   -0.2445 N   0  0  0  0  0  0  0  0  0  0  0  0
    2.0125    0.8525   -1.0410 C   0  0  0  0  0  0  0  0  0  0  0  0
    3.1302    1.3680   -0.1102 C   0  0  0  0  0  0  0  0  0  0  0  0
    3.7011    0.2741    0.7144 N   0  0  0  0  0  0  0  0  0  0  0  0
    4.9928   -0.1899    0.4179 C   0  0  0  0  0  0  0  0  0  0  0  0
    5.7599   -0.7599    1.4470 C   0  0  0  0  0  0  0  0  0  0  0  0
    7.0456   -1.2542    1.2126 C   0  0  0  0  0  0  0  0  0  0  0  0
    7.5902   -1.1922   -0.0653 C   0  0  0  0  0  0  0  0  0  0  0  0
    6.8482   -0.6366   -1.1034 C   0  0  0  0  0  0  0  0  0  0  0  0
    5.5626   -0.1411   -0.8617 C   0  0  0  0  0  0  0  0  0  0  0  0
    2.7630   -0.8537    0.9665 C   0  0  0  0  0  0  0  0  0  0  0  0
    1.2911   -0.3805    1.0055 C   0  0  0  0  0  0  0  0  0  0  0  0
   -1.3792   -0.6170   -0.5161 C   0  0  0  0  0  0  0  0  0  0  0  0
   -1.9958    0.0407    0.6105 N   0  0  0  0  0  0  0  0  0  0  0  0
   -1.6808    1.4323    0.9308 C   0  0  0  0  0  0  0  0  0  0  0  0
   -2.3751    2.4156    0.0103 C   0  0  0  0  0  0  0  0  0  0  0  0
   -3.6588    2.8890    0.3149 C   0  0  0  0  0  0  0  0  0  0  0  0
   -4.3113    3.7789   -0.5407 C   0  0  0  0  0  0  0  0  0  0  0  0
   -3.6898    4.2025   -1.7126 C   0  0  0  0  0  0  0  0  0  0  0  0
   -2.4127    3.7388   -2.0292 C   0  0  0  0  0  0  0  0  0  0  0  0
   -1.7587    2.8508   -1.1728 C   0  0  0  0  0  0  0  0  0  0  0  0
   -3.1677   -0.4956    1.1688 C   0  0  0  0  0  0  0  0  0  0  0  0
   -3.7906    0.0620    2.0735 O   0  0  0  0  0  0  0  0  0  0  0  0
   -4.5600   -3.6382    2.5795 H   0  0  0  0  0  0  0  0  0  0  0  0
   -6.2244   -3.0322    2.5904 H   0  0  0  0  0  0  0  0  0  0  0  0
   -4.9018   -1.9890    3.1338 H   0  0  0  0  0  0  0  0  0  0  0  0
   -5.3760   -3.0539    0.3045 H   0  0  0  0  0  0  0  0  0  0  0  0
   -5.6822   -1.3968    0.8084 H   0  0  0  0  0  0  0  0  0  0  0  0
   -2.8947   -2.6333    1.0742 H   0  0  0  0  0  0  0  0  0  0  0  0
   -3.6932   -2.7571   -1.3158 H   0  0  0  0  0  0  0  0  0  0  0  0
   -0.1006   -2.3150   -3.6423 H   0  0  0  0  0  0  0  0  0  0  0  0
    1.6539    1.6787   -1.6633 H   0  0  0  0  0  0  0  0  0  0  0  0
    2.4430    0.0904   -1.7007 H   0  0  0  0  0  0  0  0  0  0  0  0
    2.7027    2.1069    0.5805 H   0  0  0  0  0  0  0  0  0  0  0  0
    3.8946    1.9061   -0.6825 H   0  0  0  0  0  0  0  0  0  0  0  0
    5.3565   -0.8009    2.4561 H   0  0  0  0  0  0  0  0  0  0  0  0
    7.6201   -1.6810    2.0294 H   0  0  0  0  0  0  0  0  0  0  0  0
    8.5891   -1.5760   -0.2526 H   0  0  0  0  0  0  0  0  0  0  0  0
    7.2663   -0.5904   -2.1062 H   0  0  0  0  0  0  0  0  0  0  0  0
    5.0100    0.2593   -1.7047 H   0  0  0  0  0  0  0  0  0  0  0  0
    2.8664   -1.6143    0.1806 H   0  0  0  0  0  0  0  0  0  0  0  0
    3.0006   -1.3253    1.9272 H   0  0  0  0  0  0  0  0  0  0  0  0
    1.1736    0.3262    1.8364 H   0  0  0  0  0  0  0  0  0  0  0  0
    0.6506   -1.2419    1.2332 H   0  0  0  0  0  0  0  0  0  0  0  0
   -1.9966    1.6416    1.9612 H   0  0  0  0  0  0  0  0  0  0  0  0
   -0.6115    1.6325    0.9421 H   0  0  0  0  0  0  0  0  0  0  0  0
   -4.1637    2.5600    1.2218 H   0  0  0  0  0  0  0  0  0  0  0  0
   -5.3104    4.1340   -0.2947 H   0  0  0  0  0  0  0  0  0  0  0  0
   -4.2032    4.8886   -2.3830 H   0  0  0  0  0  0  0  0  0  0  0  0
   -1.9297    4.0643   -2.9468 H   0  0  0  0  0  0  0  0  0  0  0  0
   -0.7659    2.4964   -1.4395 H   0  0  0  0  0  0  0  0  0  0  0  0
  1  2  1  0
  2  3  1  0
  3  4  1  0
  4  5  1  0
  5  6  2  0
  6  7  1  0
  7  8  2  0
  8  9  1  0
  9 10  1  0
 10 11  1  0
 11 12  1  0
 12 13  1  0
 13 14  1  0
 14 15  2  0
 15 16  1  0
 16 17  2  0
 17 18  1  0
 18 19  2  0
 13 20  1  0
 20 21  1  0
  9 22  2  0
 22 23  1  0
 23 24  1  0
 24 25  1  0
 25 26  2  0
 26 27  1  0
 27 28  2  0
 28 29  1  0
 29 30  2  0
 23 31  1  0
 31 32  2  0
 31  3  1  0
 22  5  1  0
 30 25  1  0
 21 10  1  0
 19 14  1  0
  1 33  1  0
  1 34  1  0
  1 35  1  0
  2 36  1  0
  2 37  1  0
  3 38  1  0
  4 39  1  0
  7 40  1  0
 11 41  1  0
 11 42  1  0
 12 43  1  0
 12 44  1  0
 15 45  1  0
 16 46  1  0
 17 47  1  0
 18 48  1  0
 19 49  1  0
 20 50  1  0
 20 51  1  0
 21 52  1  0
 21 53  1  0
 24 54  1  0
 24 55  1  0
 26 56  1  0
 27 57  1  0
 28 58  1  0
 29 59  1  0
 30 60  1  0
M  END
$$$$
