
     RDKit          3D

 57 58  0  0  0  0  0  0  0  0999 V2000
    8.9314   -0.9314    0.7777 C   0  0  0  0  0  0  0  0  0  0  0  0
    8.3135   -1.0463    2.1626 C   0  0  0  0  0  0  0  0  0  0  0  0
    7.2047   -2.0996    2.2529 C   0  0  0  0  0  0  0  0  0  0  0  0
    5.9970   -1.8310    1.3541 C   0  0  0  0  0  0  0  0  0  0  0  0
    5.4633   -0.5455    1.6649 O   0  0  0  0  0  0  0  0  0  0  0  0
    4.4079   -0.1087    0.9147 C   0  0  0  0  0  0  0  0  0  0  0  0
    3.7250   -0.8455   -0.0507 C   0  0  0  0  0  0  0  0  0  0  0  0
    2.6533   -0.2734   -0.7480 C   0  0  0  0  0  0  0  0  0  0  0  0
    2.2514    1.0478   -0.4967 C   0  0  0  0  0  0  0  0  0  0  0  0
    1.0765    1.6846   -1.2180 C   0  0  0  0  0  0  0  0  0  0  0  0
    1.1414    1.4981   -2.7371 C   0  0  0  0  0  0  0  0  0  0  0  0
   -0.1655    1.1583   -0.6726 N   0  0  0  0  0  0  0  0  0  0  0  0
   -1.3563    1.8335   -0.7843 C   0  0  0  0  0  0  0  0  0  0  0  0
   -1.4860    2.8915   -1.3887 O   0  0  0  0  0  0  0  0  0  0  0  0
   -2.5118    1.1165   -0.1283 C   0  0  0  0  0  0  0  0  0  0  0  0
   -3.7224    2.0272   -0.0149 C   0  0  0  0  0  0  0  0  0  0  0  0
   -5.1686    1.1642    0.5612 S   0  0  0  0  0  6  0  0  0  0  0  0
   -4.7280    0.1702    1.5229 O   0  0  0  0  0  0  0  0  0  0  0  0
   -6.1394    2.1783    0.9310 O   0  0  0  0  0  0  0  0  0  0  0  0
   -5.7523    0.3320   -0.9161 C   0  0  0  0  0  0  0  0  0  0  0  0
   -6.9947   -0.4561   -0.5936 C   0  0  0  0  0  0  0  0  0  0  0  0
   -8.2600    0.1467   -0.6607 C   0  0  0  0  0  0  0  0  0  0  0  0
   -9.4123   -0.5829   -0.3603 C   0  0  0  0  0  0  0  0  0  0  0  0
   -9.3139   -1.9230    0.0117 C   0  0  0  0  0  0  0  0  0  0  0  0
   -8.0616   -2.5272    0.0872 C   0  0  0  0  0  0  0  0  0  0  0  0
   -7.9372   -4.1809    0.5477 Cl  0  0  0  0  0  0  0  0  0  0  0  0
   -6.9060   -1.8034   -0.2102 C   0  0  0  0  0  0  0  0  0  0  0  0
    2.9354    1.7738    0.4887 C   0  0  0  0  0  0  0  0  0  0  0  0
    4.0033    1.1995    1.1830 C   0  0  0  0  0  0  0  0  0  0  0  0
    9.7776   -0.2371    0.8011 H   0  0  0  0  0  0  0  0  0  0  0  0
    8.2114   -0.5495    0.0479 H   0  0  0  0  0  0  0  0  0  0  0  0
    9.2988   -1.9018    0.4287 H   0  0  0  0  0  0  0  0  0  0  0  0
    7.9318   -0.0665    2.4722 H   0  0  0  0  0  0  0  0  0  0  0  0
    9.1022   -1.3135    2.8762 H   0  0  0  0  0  0  0  0  0  0  0  0
    6.8632   -2.1307    3.2955 H   0  0  0  0  0  0  0  0  0  0  0  0
    7.6144   -3.0891    2.0190 H   0  0  0  0  0  0  0  0  0  0  0  0
    5.2425   -2.6028    1.5497 H   0  0  0  0  0  0  0  0  0  0  0  0
    6.2975   -1.8801    0.3014 H   0  0  0  0  0  0  0  0  0  0  0  0
    3.9955   -1.8702   -0.2839 H   0  0  0  0  0  0  0  0  0  0  0  0
    2.1339   -0.8784   -1.4879 H   0  0  0  0  0  0  0  0  0  0  0  0
    1.0868    2.7660   -1.0275 H   0  0  0  0  0  0  0  0  0  0  0  0
    2.1033    1.8404   -3.1352 H   0  0  0  0  0  0  0  0  0  0  0  0
    0.3510    2.0708   -3.2342 H   0  0  0  0  0  0  0  0  0  0  0  0
    1.0056    0.4505   -3.0284 H   0  0  0  0  0  0  0  0  0  0  0  0
   -0.1109    0.3315   -0.0905 H   0  0  0  0  0  0  0  0  0  0  0  0
   -2.2031    0.7753    0.8665 H   0  0  0  0  0  0  0  0  0  0  0  0
   -2.7406    0.2318   -0.7323 H   0  0  0  0  0  0  0  0  0  0  0  0
   -3.5233    2.8284    0.7059 H   0  0  0  0  0  0  0  0  0  0  0  0
   -3.9862    2.4999   -0.9668 H   0  0  0  0  0  0  0  0  0  0  0  0
   -4.9582   -0.3257   -1.2803 H   0  0  0  0  0  0  0  0  0  0  0  0
   -5.9563    1.0909   -1.6776 H   0  0  0  0  0  0  0  0  0  0  0  0
   -8.3585    1.1969   -0.9332 H   0  0  0  0  0  0  0  0  0  0  0  0
  -10.3868   -0.1027   -0.4088 H   0  0  0  0  0  0  0  0  0  0  0  0
  -10.2130   -2.4855    0.2478 H   0  0  0  0  0  0  0  0  0  0  0  0
   -5.9363   -2.2902   -0.1310 H   0  0  0  0  0  0  0  0  0  0  0  0
    2.6435    2.7949    0.7265 H   0  0  0  0  0  0  0  0  0  0  0  0
    4.5263    1.7792    1.9401 H   0  0  0  0  0  0  0  0  0  0  0  0
  1  2  1  0
  2  3  1  0
  3  4  1  0
  4  5  1  0
  5  6  1  0
  6  7  2  0
  7  8  1  0
  8  9  2  0
  9 10  1  0
 10 11  1  0
 10 12  1  0
 12 13  1  0
 13 14  2  0
 13 15  1  0
 15 16  1  0
 16 17  1  0
 17 18  2  0
 17 19  2  0
 17 20  1  0
 20 21  1  0
 21 22  2  0
 22 23  1  0
 23 24  2  0
 24 25  1  0
 25 26  1  0
 25 27  2  0
  9 28  1  0
 28 29  2  0
 29  6  1  0
 27 21  1  0
  1 30  1  0
  1 31  1  0
  1 32  1  0
  2 33  1  0
  2 34  1  0
  3 35  1  0
  3 36  1  0
  4 37  1  0
  4 38  1  0
  7 39  1  0
  8 40  1  0
 10 41  1  0
 11 42  1  0
 11 43  1  0
 11 44  1  0
 12 45  1  0
 15 46  1  0
 15 47  1  0
 16 48  1  0
 16 49  1  0
 20 50  1  0
 20 51  1  0
 22 52  1  0
 23 53  1  0
 24 54  1  0
 27 55  1  0
 28 56  1  0
 29 57  1  0
M  END
$$$$
