
     RDKit          3D

 43 45  0  0  0  0  0  0  0  0999 V2000
    6.9001    0.7191   -1.2179 C   0  0  0  0  0  0  0  0  0  0  0  0
    5.8686    1.7944   -0.9133 C   0  0  0  0  0  0  0  0  0  0  0  0
    4.6530    1.2735   -0.1443 C   0  0  0  0  0  0  0  0  0  0  0  0
    3.8029    0.2896   -0.9531 C   0  0  0  0  0  0  0  0  0  0  0  0
    2.6090   -0.1444   -0.2308 N   0  0  0  0  0  0  0  0  0  0  0  0
    1.4671    0.7552   -0.2134 C   0  0  0  0  0  0  0  0  0  0  0  0
    0.2320    0.1303    0.3404 C   0  0  0  0  0  0  0  0  0  0  0  0
   -1.0420    0.6688    0.1416 C   0  0  0  0  0  0  0  0  0  0  0  0
   -2.1408    0.0667    0.7562 C   0  0  0  0  0  0  0  0  0  0  0  0
   -3.4868    0.6403    0.5662 C   0  0  0  0  0  0  0  0  0  0  0  0
   -3.6034    1.8641    0.5075 O   0  0  0  0  0  0  0  0  0  0  0  0
   -4.7097   -0.1947    0.4607 C   0  0  0  0  0  0  0  0  0  0  0  0
   -4.6626   -1.4993   -0.0431 C   0  0  0  0  0  0  0  0  0  0  0  0
   -5.8355   -2.2460   -0.1182 C   0  0  0  0  0  0  0  0  0  0  0  0
   -5.7840   -3.4962   -0.5950 F   0  0  0  0  0  0  0  0  0  0  0  0
   -7.0571   -1.7201    0.2876 C   0  0  0  0  0  0  0  0  0  0  0  0
   -7.1154   -0.4127    0.7652 C   0  0  0  0  0  0  0  0  0  0  0  0
   -5.9495    0.3485    0.8372 C   0  0  0  0  0  0  0  0  0  0  0  0
   -6.0916    1.6335    1.2877 O   0  0  0  0  0  0  0  0  0  0  0  0
   -1.9093   -1.0182    1.5908 C   0  0  0  0  0  0  0  0  0  0  0  0
   -0.6843   -1.5573    1.7988 N   0  0  0  0  0  0  0  0  0  0  0  0
    0.3534   -0.9754    1.1632 C   0  0  0  0  0  0  0  0  0  0  0  0
    1.6035   -1.5270    1.3583 N   0  0  0  0  0  0  0  0  0  0  0  0
    2.7299   -1.1733    0.6842 C   0  0  0  0  0  0  0  0  0  0  0  0
    3.7777   -1.7851    0.8819 O   0  0  0  0  0  0  0  0  0  0  0  0
    7.7862    1.1687   -1.6775 H   0  0  0  0  0  0  0  0  0  0  0  0
    6.5087   -0.0269   -1.9156 H   0  0  0  0  0  0  0  0  0  0  0  0
    7.2159    0.2069   -0.3035 H   0  0  0  0  0  0  0  0  0  0  0  0
    6.3490    2.5768   -0.3137 H   0  0  0  0  0  0  0  0  0  0  0  0
    5.5451    2.2659   -1.8485 H   0  0  0  0  0  0  0  0  0  0  0  0
    4.0375    2.1345    0.1430 H   0  0  0  0  0  0  0  0  0  0  0  0
    4.9811    0.8057    0.7919 H   0  0  0  0  0  0  0  0  0  0  0  0
    4.3932   -0.5997   -1.1999 H   0  0  0  0  0  0  0  0  0  0  0  0
    3.4861    0.7380   -1.9017 H   0  0  0  0  0  0  0  0  0  0  0  0
    1.7303    1.6285    0.3939 H   0  0  0  0  0  0  0  0  0  0  0  0
    1.2822    1.0800   -1.2436 H   0  0  0  0  0  0  0  0  0  0  0  0
   -1.1786    1.5535   -0.4768 H   0  0  0  0  0  0  0  0  0  0  0  0
   -3.7436   -1.9543   -0.3982 H   0  0  0  0  0  0  0  0  0  0  0  0
   -7.9557   -2.3255    0.2183 H   0  0  0  0  0  0  0  0  0  0  0  0
   -8.0655    0.0184    1.0706 H   0  0  0  0  0  0  0  0  0  0  0  0
   -5.2560    2.1169    1.0969 H   0  0  0  0  0  0  0  0  0  0  0  0
   -2.7080   -1.4989    2.1492 H   0  0  0  0  0  0  0  0  0  0  0  0
    1.6668   -2.3227    1.9752 H   0  0  0  0  0  0  0  0  0  0  0  0
  1  2  1  0
  2  3  1  0
  3  4  1  0
  4  5  1  0
  5  6  1  0
  6  7  1  0
  7  8  2  0
  8  9  1  0
  9 10  1  0
 10 11  2  0
 10 12  1  0
 12 13  2  0
 13 14  1  0
 14 15  1  0
 14 16  2  0
 16 17  1  0
 17 18  2  0
 18 19  1  0
  9 20  2  0
 20 21  1  0
 21 22  2  0
 22 23  1  0
 23 24  1  0
 24 25  2  0
 24  5  1  0
 22  7  1  0
 18 12  1  0
  1 26  1  0
  1 27  1  0
  1 28  1  0
  2 29  1  0
  2 30  1  0
  3 31  1  0
  3 32  1  0
  4 33  1  0
  4 34  1  0
  6 35  1  0
  6 36  1  0
  8 37  1  0
 13 38  1  0
 16 39  1  0
 17 40  1  0
 19 41  1  0
 20 42  1  0
 23 43  1  0
M  END
$$$$
