
     RDKit          3D

 45 47  0  0  0  0  0  0  0  0999 V2000
    8.2693    0.4851    1.3808 C   0  0  0  0  0  0  0  0  0  0  0  0
    6.7514    0.4816    1.3748 C   0  0  0  0  0  0  0  0  0  0  0  0
    6.3162    0.0965    0.0650 O   0  0  0  0  0  0  0  0  0  0  0  0
    4.9554   -0.0280    0.0200 C   0  0  0  0  0  0  0  0  0  0  0  0
    4.1263    1.0890    0.0493 C   0  0  0  0  0  0  0  0  0  0  0  0
    2.7394    0.9295   -0.0345 C   0  0  0  0  0  0  0  0  0  0  0  0
    2.1788   -0.3439   -0.1580 C   0  0  0  0  0  0  0  0  0  0  0  0
    0.7939   -0.5844   -0.2544 N   0  0  0  0  0  0  0  0  0  0  0  0
   -0.2302    0.3250   -0.1070 C   0  0  0  0  0  0  0  0  0  0  0  0
   -0.1277    1.5012    0.2117 O   0  0  0  0  0  0  0  0  0  0  0  0
   -1.4494   -0.2721   -0.3488 N   0  0  0  0  0  0  0  0  0  0  0  0
   -2.6846    0.5029   -0.3083 C   0  0  0  0  0  0  0  0  0  0  0  0
   -2.8023    1.3648   -1.5780 C   0  0  0  0  0  0  0  0  0  0  0  0
   -4.1997    1.9513   -1.7129 C   0  0  0  0  0  0  0  0  0  0  0  0
   -5.2214    0.8311   -1.8754 C   0  0  0  0  0  0  0  0  0  0  0  0
   -5.0793   -0.2410   -0.8216 C   0  0  0  0  0  0  0  0  0  0  0  0
   -6.1627   -1.1036   -0.5865 C   0  0  0  0  0  0  0  0  0  0  0  0
   -6.0801   -2.1069    0.3775 C   0  0  0  0  0  0  0  0  0  0  0  0
   -4.9144   -2.2604    1.1188 C   0  0  0  0  0  0  0  0  0  0  0  0
   -3.8263   -1.4189    0.8856 C   0  0  0  0  0  0  0  0  0  0  0  0
   -3.8815   -0.4159   -0.1014 C   0  0  0  0  0  0  0  0  0  0  0  0
    3.0291   -1.4578   -0.2126 C   0  0  0  0  0  0  0  0  0  0  0  0
    4.4150   -1.2996   -0.1329 C   0  0  0  0  0  0  0  0  0  0  0  0
    8.6531    1.1974    0.6432 H   0  0  0  0  0  0  0  0  0  0  0  0
    8.6557    0.7551    2.3678 H   0  0  0  0  0  0  0  0  0  0  0  0
    8.6578   -0.5016    1.1059 H   0  0  0  0  0  0  0  0  0  0  0  0
    6.3864   -0.2347    2.1222 H   0  0  0  0  0  0  0  0  0  0  0  0
    6.3892    1.4857    1.6233 H   0  0  0  0  0  0  0  0  0  0  0  0
    4.5477    2.0877    0.1211 H   0  0  0  0  0  0  0  0  0  0  0  0
    2.1235    1.8227   -0.0115 H   0  0  0  0  0  0  0  0  0  0  0  0
    0.5081   -1.5488   -0.3171 H   0  0  0  0  0  0  0  0  0  0  0  0
   -1.4503   -1.0553   -0.9833 H   0  0  0  0  0  0  0  0  0  0  0  0
   -2.6399    1.1745    0.5602 H   0  0  0  0  0  0  0  0  0  0  0  0
   -2.5715    0.7649   -2.4697 H   0  0  0  0  0  0  0  0  0  0  0  0
   -2.0649    2.1756   -1.5522 H   0  0  0  0  0  0  0  0  0  0  0  0
   -4.2455    2.6204   -2.5785 H   0  0  0  0  0  0  0  0  0  0  0  0
   -4.4365    2.5537   -0.8259 H   0  0  0  0  0  0  0  0  0  0  0  0
   -6.2284    1.2652   -1.8370 H   0  0  0  0  0  0  0  0  0  0  0  0
   -5.1016    0.3628   -2.8600 H   0  0  0  0  0  0  0  0  0  0  0  0
   -7.0860   -0.9867   -1.1502 H   0  0  0  0  0  0  0  0  0  0  0  0
   -6.9291   -2.7617    0.5571 H   0  0  0  0  0  0  0  0  0  0  0  0
   -4.8516   -3.0319    1.8826 H   0  0  0  0  0  0  0  0  0  0  0  0
   -2.9272   -1.5436    1.4875 H   0  0  0  0  0  0  0  0  0  0  0  0
    2.6266   -2.4617   -0.3196 H   0  0  0  0  0  0  0  0  0  0  0  0
    5.0691   -2.1651   -0.1826 H   0  0  0  0  0  0  0  0  0  0  0  0
  1  2  1  0
  2  3  1  0
  3  4  1  0
  4  5  2  0
  5  6  1  0
  6  7  2  0
  7  8  1  0
  8  9  1  0
  9 10  2  0
  9 11  1  0
 11 12  1  0
 12 13  1  0
 13 14  1  0
 14 15  1  0
 15 16  1  0
 16 17  2  0
 17 18  1  0
 18 19  2  0
 19 20  1  0
 20 21  2  0
  7 22  1  0
 22 23  2  0
 23  4  1  0
 21 12  1  0
 21 16  1  0
  1 24  1  0
  1 25  1  0
  1 26  1  0
  2 27  1  0
  2 28  1  0
  5 29  1  0
  6 30  1  0
  8 31  1  0
 11 32  1  0
 12 33  1  0
 13 34  1  0
 13 35  1  0
 14 36  1  0
 14 37  1  0
 15 38  1  0
 15 39  1  0
 17 40  1  0
 18 41  1  0
 19 42  1  0
 20 43  1  0
 22 44  1  0
 23 45  1  0
M  END
$$$$
