
     RDKit          3D

 44 46  0  0  0  0  0  0  0  0999 V2000
   -0.5992   -0.8642    3.2559 N   0  0  0  0  0  0  0  0  0  0  0  0
   -0.4168   -0.5990    2.1405 C   0  0  0  0  0  0  0  0  0  0  0  0
   -0.2466   -0.3171    0.7614 C   0  0  0  0  0  0  0  0  0  0  0  0
    0.8364    0.2862    0.2361 C   0  0  0  0  0  0  0  0  0  0  0  0
    1.9931    0.7313    0.9406 C   0  0  0  0  0  0  0  0  0  0  0  0
    2.5532    0.3839    2.1646 C   0  0  0  0  0  0  0  0  0  0  0  0
    3.7281    1.1558    2.3482 C   0  0  0  0  0  0  0  0  0  0  0  0
    3.8590    1.9411    1.2262 C   0  0  0  0  0  0  0  0  0  0  0  0
    4.8280    2.9392    0.7784 C   0  0  0  0  0  0  0  0  0  0  0  0
    4.6933    3.5796   -0.4643 C   0  0  0  0  0  0  0  0  0  0  0  0
    5.6232    4.5344   -0.8892 C   0  0  0  0  0  0  0  0  0  0  0  0
    6.7011    4.8590   -0.0713 C   0  0  0  0  0  0  0  0  0  0  0  0
    7.9598    6.1482   -0.6410 Br  0  0  0  0  0  0  0  0  0  0  0  0
    6.8566    4.2383    1.1649 C   0  0  0  0  0  0  0  0  0  0  0  0
    5.9238    3.2837    1.5858 C   0  0  0  0  0  0  0  0  0  0  0  0
    2.8236    1.6790    0.3800 O   0  0  0  0  0  0  0  0  0  0  0  0
   -1.3401   -0.6802   -0.2038 C   0  0  0  0  0  0  0  0  0  0  0  0
   -1.2262   -0.4726   -1.4094 O   0  0  0  0  0  0  0  0  0  0  0  0
   -2.4674   -1.2632    0.3379 N   0  0  0  0  0  0  0  0  0  0  0  0
   -3.5527   -1.7548   -0.5044 C   0  0  0  0  0  0  0  0  0  0  0  0
   -4.8822   -1.7441    0.2682 C   0  0  0  0  0  0  0  0  0  0  0  0
   -5.9059   -2.7536   -0.2579 C   0  0  0  0  0  0  0  0  0  0  0  0
   -5.7038   -3.0564   -1.7357 C   0  0  0  0  0  0  0  0  0  0  0  0
   -4.3196   -3.6462   -2.0100 C   0  0  0  0  0  0  0  0  0  0  0  0
   -3.2401   -3.1532   -1.0434 C   0  0  0  0  0  0  0  0  0  0  0  0
    0.8576    0.5021   -0.8317 H   0  0  0  0  0  0  0  0  0  0  0  0
    2.1800   -0.3525    2.8628 H   0  0  0  0  0  0  0  0  0  0  0  0
    4.3953    1.1280    3.1977 H   0  0  0  0  0  0  0  0  0  0  0  0
    3.8572    3.3397   -1.1188 H   0  0  0  0  0  0  0  0  0  0  0  0
    5.4936    5.0137   -1.8559 H   0  0  0  0  0  0  0  0  0  0  0  0
    7.6960    4.4873    1.8088 H   0  0  0  0  0  0  0  0  0  0  0  0
    6.0680    2.8142    2.5558 H   0  0  0  0  0  0  0  0  0  0  0  0
   -2.4954   -1.5272    1.3158 H   0  0  0  0  0  0  0  0  0  0  0  0
   -3.6433   -1.0710   -1.3589 H   0  0  0  0  0  0  0  0  0  0  0  0
   -4.7213   -1.9427    1.3356 H   0  0  0  0  0  0  0  0  0  0  0  0
   -5.3042   -0.7320    0.2174 H   0  0  0  0  0  0  0  0  0  0  0  0
   -6.9191   -2.3746   -0.0825 H   0  0  0  0  0  0  0  0  0  0  0  0
   -5.8194   -3.6867    0.3133 H   0  0  0  0  0  0  0  0  0  0  0  0
   -6.4753   -3.7488   -2.0913 H   0  0  0  0  0  0  0  0  0  0  0  0
   -5.8261   -2.1308   -2.3124 H   0  0  0  0  0  0  0  0  0  0  0  0
   -4.0333   -3.4033   -3.0405 H   0  0  0  0  0  0  0  0  0  0  0  0
   -4.3649   -4.7407   -1.9562 H   0  0  0  0  0  0  0  0  0  0  0  0
   -2.2663   -3.1745   -1.5473 H   0  0  0  0  0  0  0  0  0  0  0  0
   -3.1577   -3.8552   -0.2026 H   0  0  0  0  0  0  0  0  0  0  0  0
  1  2  3  0
  2  3  1  0
  3  4  2  3
  4  5  1  0
  5  6  2  0
  6  7  1  0
  7  8  2  0
  8  9  1  0
  9 10  2  0
 10 11  1  0
 11 12  2  0
 12 13  1  0
 12 14  1  0
 14 15  2  0
  8 16  1  0
  3 17  1  0
 17 18  2  0
 17 19  1  0
 19 20  1  0
 20 21  1  0
 21 22  1  0
 22 23  1  0
 23 24  1  0
 24 25  1  0
 16  5  1  0
 25 20  1  0
 15  9  1  0
  4 26  1  0
  6 27  1  0
  7 28  1  0
 10 29  1  0
 11 30  1  0
 14 31  1  0
 15 32  1  0
 19 33  1  0
 20 34  1  0
 21 35  1  0
 21 36  1  0
 22 37  1  0
 22 38  1  0
 23 39  1  0
 23 40  1  0
 24 41  1  0
 24 42  1  0
 25 43  1  0
 25 44  1  0
M  END
$$$$
