
     RDKit          3D

 47 48  0  0  0  0  0  0  0  0999 V2000
    5.9895   -2.0668    1.1681 C   0  0  0  0  0  0  0  0  0  0  0  0
    5.4596   -1.0698    0.1802 C   0  0  0  0  0  0  0  0  0  0  0  0
    4.7767    0.0705    0.6162 C   0  0  0  0  0  0  0  0  0  0  0  0
    4.3107    1.0133   -0.3041 C   0  0  0  0  0  0  0  0  0  0  0  0
    4.5201    0.8358   -1.6790 C   0  0  0  0  0  0  0  0  0  0  0  0
    4.0127    1.8576   -2.6686 C   0  0  0  0  0  0  0  0  0  0  0  0
    2.7358    1.2280   -3.7909 S   0  0  0  0  0  0  0  0  0  0  0  0
    1.3883    1.0335   -2.7151 C   0  0  0  0  0  0  0  0  0  0  0  0
    0.2706    0.4177   -3.0490 N   0  0  0  0  0  0  0  0  0  0  0  0
   -0.5516    0.4477   -1.9415 N   0  0  0  0  0  0  0  0  0  0  0  0
    0.1212    1.0827   -1.0062 C   0  0  0  0  0  0  0  0  0  0  0  0
   -0.2471    1.3615    0.4015 C   0  0  0  0  0  0  0  0  0  0  0  0
   -0.5333    0.0660    1.1627 C   0  0  0  0  0  0  0  0  0  0  0  0
   -1.7902   -0.5442    0.7835 N   0  0  0  0  0  0  0  0  0  0  0  0
   -2.9837   -0.1210    1.2840 C   0  0  0  0  0  0  0  0  0  0  0  0
   -3.1062    0.6943    2.1831 O   0  0  0  0  0  0  0  0  0  0  0  0
   -3.9812   -0.7313    0.6089 O   0  0  0  0  0  0  0  0  0  0  0  0
   -5.3692   -0.4784    0.9442 C   0  0  0  0  0  0  0  0  0  0  0  0
   -6.1731   -1.3254   -0.0554 C   0  0  0  0  0  0  0  0  0  0  0  0
   -5.6877   -0.9584    2.3655 C   0  0  0  0  0  0  0  0  0  0  0  0
   -5.7397    0.9971    0.7449 C   0  0  0  0  0  0  0  0  0  0  0  0
    1.3519    1.5041   -1.4274 O   0  0  0  0  0  0  0  0  0  0  0  0
    5.2257   -0.2972   -2.1095 C   0  0  0  0  0  0  0  0  0  0  0  0
    5.6929   -1.2386   -1.1884 C   0  0  0  0  0  0  0  0  0  0  0  0
    5.3841   -2.0738    2.0804 H   0  0  0  0  0  0  0  0  0  0  0  0
    5.9631   -3.0805    0.7521 H   0  0  0  0  0  0  0  0  0  0  0  0
    7.0223   -1.8184    1.4329 H   0  0  0  0  0  0  0  0  0  0  0  0
    4.6036    0.2318    1.6785 H   0  0  0  0  0  0  0  0  0  0  0  0
    3.7805    1.8894    0.0642 H   0  0  0  0  0  0  0  0  0  0  0  0
    4.8588    2.1954   -3.2782 H   0  0  0  0  0  0  0  0  0  0  0  0
    3.6376    2.7509   -2.1544 H   0  0  0  0  0  0  0  0  0  0  0  0
    0.5796    1.8868    0.8947 H   0  0  0  0  0  0  0  0  0  0  0  0
   -1.1163    2.0295    0.4244 H   0  0  0  0  0  0  0  0  0  0  0  0
   -0.5704    0.2813    2.2368 H   0  0  0  0  0  0  0  0  0  0  0  0
    0.2535   -0.6777    0.9945 H   0  0  0  0  0  0  0  0  0  0  0  0
   -1.8505   -1.0797   -0.0757 H   0  0  0  0  0  0  0  0  0  0  0  0
   -7.2519   -1.2342    0.1081 H   0  0  0  0  0  0  0  0  0  0  0  0
   -5.8996   -2.3847    0.0209 H   0  0  0  0  0  0  0  0  0  0  0  0
   -5.9531   -1.0226   -1.0863 H   0  0  0  0  0  0  0  0  0  0  0  0
   -6.7628   -0.9146    2.5702 H   0  0  0  0  0  0  0  0  0  0  0  0
   -5.3470   -1.9887    2.5167 H   0  0  0  0  0  0  0  0  0  0  0  0
   -5.1848   -0.3482    3.1212 H   0  0  0  0  0  0  0  0  0  0  0  0
   -5.2598    1.6429    1.4865 H   0  0  0  0  0  0  0  0  0  0  0  0
   -6.8214    1.1515    0.8314 H   0  0  0  0  0  0  0  0  0  0  0  0
   -5.4142    1.3510   -0.2403 H   0  0  0  0  0  0  0  0  0  0  0  0
    5.4162   -0.4582   -3.1681 H   0  0  0  0  0  0  0  0  0  0  0  0
    6.2400   -2.1080   -1.5481 H   0  0  0  0  0  0  0  0  0  0  0  0
  1  2  1  0
  2  3  2  0
  3  4  1  0
  4  5  2  0
  5  6  1  0
  6  7  1  0
  7  8  1  0
  8  9  2  0
  9 10  1  0
 10 11  2  0
 11 12  1  0
 12 13  1  0
 13 14  1  0
 14 15  1  0
 15 16  2  0
 15 17  1  0
 17 18  1  0
 18 19  1  0
 18 20  1  0
 18 21  1  0
 11 22  1  0
  5 23  1  0
 23 24  2  0
 24  2  1  0
 22  8  1  0
  1 25  1  0
  1 26  1  0
  1 27  1  0
  3 28  1  0
  4 29  1  0
  6 30  1  0
  6 31  1  0
 12 32  1  0
 12 33  1  0
 13 34  1  0
 13 35  1  0
 14 36  1  0
 19 37  1  0
 19 38  1  0
 19 39  1  0
 20 40  1  0
 20 41  1  0
 20 42  1  0
 21 43  1  0
 21 44  1  0
 21 45  1  0
 23 46  1  0
 24 47  1  0
M  END
$$$$
