
     RDKit          3D

 55 57  0  0  0  0  0  0  0  0999 V2000
    1.4733    3.3617    1.5308 C   0  0  0  0  0  0  0  0  0  0  0  0
    1.4985    2.4323    0.3167 C   0  0  0  0  0  0  0  0  0  0  0  0
    1.9751    3.2114   -0.9136 C   0  0  0  0  0  0  0  0  0  0  0  0
    0.1214    1.7957    0.0239 C   0  0  0  0  0  0  0  0  0  0  0  0
   -0.4226    0.8660    1.1292 C   0  0  0  0  0  0  0  0  0  0  0  0
    0.3683   -0.4295    1.1940 C   0  0  0  0  0  0  0  0  0  0  0  0
    0.1806   -1.4395    0.5238 O   0  0  0  0  0  0  0  0  0  0  0  0
    1.4033   -0.3059    2.0787 O   0  0  0  0  0  0  0  0  0  0  0  0
    2.2569   -1.4462    2.1939 C   0  0  0  0  0  0  0  0  0  0  0  0
    3.2954   -1.5449    1.0691 C   0  0  0  0  0  0  0  0  0  0  0  0
    4.4732   -1.2673    1.2764 O   0  0  0  0  0  0  0  0  0  0  0  0
    2.7506   -1.9632   -0.1323 N   0  0  0  0  0  0  0  0  0  0  0  0
    3.4046   -2.1449   -1.3659 C   0  0  0  0  0  0  0  0  0  0  0  0
    2.6031   -2.5081   -2.4579 C   0  0  0  0  0  0  0  0  0  0  0  0
    3.1641   -2.7112   -3.7210 C   0  0  0  0  0  0  0  0  0  0  0  0
    4.5354   -2.5524   -3.9029 C   0  0  0  0  0  0  0  0  0  0  0  0
    5.3351   -2.1919   -2.8201 C   0  0  0  0  0  0  0  0  0  0  0  0
    7.0312   -1.9980   -3.0499 Cl  0  0  0  0  0  0  0  0  0  0  0  0
    4.7784   -1.9882   -1.5552 C   0  0  0  0  0  0  0  0  0  0  0  0
   -1.8573    0.5745    1.0201 N   0  0  0  0  0  0  0  0  0  0  0  0
   -2.7143    0.5393    2.1036 C   0  0  0  0  0  0  0  0  0  0  0  0
   -2.2667    0.7672    3.3330 O   0  0  0  0  0  0  0  0  0  0  0  0
   -3.9773    0.2399    1.6375 C   0  0  0  0  0  0  0  0  0  0  0  0
   -3.8766    0.0597    0.2252 C   0  0  0  0  0  0  0  0  0  0  0  0
   -2.5560    0.2569   -0.1246 C   0  0  0  0  0  0  0  0  0  0  0  0
   -1.9504    0.1786   -1.3025 O   0  0  0  0  0  0  0  0  0  0  0  0
   -5.0461   -0.2923   -0.6372 C   0  0  0  0  0  0  0  0  0  0  0  0
   -6.3248   -0.4342    0.1552 C   0  0  0  0  0  0  0  0  0  0  0  0
   -6.4195   -0.2643    1.4880 C   0  0  0  0  0  0  0  0  0  0  0  0
   -5.2611    0.0943    2.3894 C   0  0  0  0  0  0  0  0  0  0  0  0
    1.2879    2.8091    2.4561 H   0  0  0  0  0  0  0  0  0  0  0  0
    0.6979    4.1281    1.4279 H   0  0  0  0  0  0  0  0  0  0  0  0
    2.4362    3.8703    1.6500 H   0  0  0  0  0  0  0  0  0  0  0  0
    2.2320    1.6395    0.5029 H   0  0  0  0  0  0  0  0  0  0  0  0
    1.2884    4.0293   -1.1571 H   0  0  0  0  0  0  0  0  0  0  0  0
    2.0452    2.5547   -1.7873 H   0  0  0  0  0  0  0  0  0  0  0  0
    2.9676    3.6413   -0.7418 H   0  0  0  0  0  0  0  0  0  0  0  0
   -0.6045    2.5975   -0.1670 H   0  0  0  0  0  0  0  0  0  0  0  0
    0.2179    1.2292   -0.9107 H   0  0  0  0  0  0  0  0  0  0  0  0
   -0.3132    1.3739    2.0928 H   0  0  0  0  0  0  0  0  0  0  0  0
    1.6782   -2.3760    2.2583 H   0  0  0  0  0  0  0  0  0  0  0  0
    2.7967   -1.3527    3.1427 H   0  0  0  0  0  0  0  0  0  0  0  0
    1.7372   -2.0996   -0.1389 H   0  0  0  0  0  0  0  0  0  0  0  0
    1.5286   -2.6343   -2.3377 H   0  0  0  0  0  0  0  0  0  0  0  0
    2.5314   -2.9910   -4.5593 H   0  0  0  0  0  0  0  0  0  0  0  0
    4.9743   -2.7101   -4.8845 H   0  0  0  0  0  0  0  0  0  0  0  0
    5.4364   -1.7117   -0.7384 H   0  0  0  0  0  0  0  0  0  0  0  0
   -3.0259    0.6917    3.9379 H   0  0  0  0  0  0  0  0  0  0  0  0
   -2.6151   -0.1006   -1.9554 H   0  0  0  0  0  0  0  0  0  0  0  0
   -4.8451   -1.2368   -1.1559 H   0  0  0  0  0  0  0  0  0  0  0  0
   -5.1851    0.4851   -1.3973 H   0  0  0  0  0  0  0  0  0  0  0  0
   -7.2160   -0.6924   -0.4112 H   0  0  0  0  0  0  0  0  0  0  0  0
   -7.3853   -0.3893    1.9712 H   0  0  0  0  0  0  0  0  0  0  0  0
   -5.1511   -0.6859    3.1512 H   0  0  0  0  0  0  0  0  0  0  0  0
   -5.4907    1.0349    2.9028 H   0  0  0  0  0  0  0  0  0  0  0  0
  1  2  1  0
  2  3  1  0
  2  4  1  0
  4  5  1  0
  5  6  1  0
  6  7  2  0
  6  8  1  0
  8  9  1  0
  9 10  1  0
 10 11  2  0
 10 12  1  0
 12 13  1  0
 13 14  2  0
 14 15  1  0
 15 16  2  0
 16 17  1  0
 17 18  1  0
 17 19  2  0
  5 20  1  0
 20 21  1  0
 21 22  1  0
 21 23  2  0
 23 24  1  0
 24 25  2  0
 25 26  1  0
 24 27  1  0
 27 28  1  0
 28 29  2  0
 29 30  1  0
 19 13  1  0
 25 20  1  0
 30 23  1  0
  1 31  1  0
  1 32  1  0
  1 33  1  0
  2 34  1  0
  3 35  1  0
  3 36  1  0
  3 37  1  0
  4 38  1  0
  4 39  1  0
  5 40  1  0
  9 41  1  0
  9 42  1  0
 12 43  1  0
 14 44  1  0
 15 45  1  0
 16 46  1  0
 19 47  1  0
 22 48  1  0
 26 49  1  0
 27 50  1  0
 27 51  1  0
 28 52  1  0
 29 53  1  0
 30 54  1  0
 30 55  1  0
M  END
$$$$
