
     RDKit          3D

 66 68  0  0  0  0  0  0  0  0999 V2000
   -3.9829    2.0752    4.0190 C   0  0  0  0  0  0  0  0  0  0  0  0
   -5.0817    1.6628    3.0556 C   0  0  0  0  0  0  0  0  0  0  0  0
   -4.6020    0.5611    2.2884 O   0  0  0  0  0  0  0  0  0  0  0  0
   -5.4462    0.0307    1.3442 C   0  0  0  0  0  0  0  0  0  0  0  0
   -6.7411    0.4946    1.0848 C   0  0  0  0  0  0  0  0  0  0  0  0
   -7.5309   -0.1157    0.1059 C   0  0  0  0  0  0  0  0  0  0  0  0
   -7.0381   -1.1967   -0.6197 C   0  0  0  0  0  0  0  0  0  0  0  0
   -5.7515   -1.6697   -0.3691 C   0  0  0  0  0  0  0  0  0  0  0  0
   -4.9445   -1.0560    0.6015 C   0  0  0  0  0  0  0  0  0  0  0  0
   -3.5990   -1.5940    0.8574 C   0  0  0  0  0  0  0  0  0  0  0  0
   -2.5233   -1.5886    0.0530 C   0  0  0  0  0  0  0  0  0  0  0  0
   -2.4614   -0.9991   -1.2462 C   0  0  0  0  0  0  0  0  0  0  0  0
   -3.4387   -0.1633   -1.7442 O   0  0  0  0  0  0  0  0  0  0  0  0
   -3.1520    0.2424   -3.0236 N   0  0  0  0  0  0  0  0  0  0  0  0
   -1.9870   -0.3266   -3.3378 C   0  0  0  0  0  0  0  0  0  0  0  0
   -1.4241   -0.1054   -4.6920 C   0  0  0  0  0  0  0  0  0  0  0  0
   -1.4962   -1.0813   -2.2444 C   0  0  0  0  0  0  0  0  0  0  0  0
   -0.0042   -1.9264   -2.1896 S   0  0  0  0  0  6  0  0  0  0  0  0
   -0.2724   -3.0971   -1.3824 O   0  0  0  0  0  0  0  0  0  0  0  0
    0.4014   -2.0540   -3.5723 O   0  0  0  0  0  0  0  0  0  0  0  0
    1.1406   -0.9658   -1.3887 N   0  0  0  0  0  0  0  0  0  0  0  0
    1.0528   -0.8390    0.0702 C   0  0  0  0  0  0  0  0  0  0  0  0
    2.4226   -0.4594    0.6263 C   0  0  0  0  0  0  0  0  0  0  0  0
    3.0290    0.7916   -0.0329 C   0  0  0  0  0  0  0  0  0  0  0  0
    4.4509    0.5129   -0.5415 C   0  0  0  0  0  0  0  0  0  0  0  0
    4.6707    0.4073   -1.7505 O   0  0  0  0  0  0  0  0  0  0  0  0
    5.4735    0.3613    0.3922 N   0  0  0  0  0  0  0  0  0  0  0  0
    6.8077    0.0238   -0.1109 C   0  0  0  0  0  0  0  0  0  0  0  0
    6.9794   -1.4794   -0.2606 C   0  0  0  0  0  0  0  0  0  0  0  0
    5.3695    0.6530    1.8237 C   0  0  0  0  0  0  0  0  0  0  0  0
    5.7188    2.1028    2.1296 C   0  0  0  0  0  0  0  0  0  0  0  0
    2.1364    1.3160   -1.1684 C   0  0  0  0  0  0  0  0  0  0  0  0
    1.6548    0.2170   -2.1158 C   0  0  0  0  0  0  0  0  0  0  0  0
   -3.0855    2.3820    3.4708 H   0  0  0  0  0  0  0  0  0  0  0  0
   -4.3108    2.9052    4.6524 H   0  0  0  0  0  0  0  0  0  0  0  0
   -3.6950    1.2341    4.6591 H   0  0  0  0  0  0  0  0  0  0  0  0
   -5.9676    1.3681    3.6300 H   0  0  0  0  0  0  0  0  0  0  0  0
   -5.3194    2.5106    2.4023 H   0  0  0  0  0  0  0  0  0  0  0  0
   -7.1692    1.3316    1.6261 H   0  0  0  0  0  0  0  0  0  0  0  0
   -8.5338    0.2555   -0.0912 H   0  0  0  0  0  0  0  0  0  0  0  0
   -7.6515   -1.6687   -1.3828 H   0  0  0  0  0  0  0  0  0  0  0  0
   -5.3757   -2.5149   -0.9421 H   0  0  0  0  0  0  0  0  0  0  0  0
   -3.5046   -2.0502    1.8419 H   0  0  0  0  0  0  0  0  0  0  0  0
   -1.6342   -2.0817    0.4340 H   0  0  0  0  0  0  0  0  0  0  0  0
   -1.4767   -1.0264   -5.2820 H   0  0  0  0  0  0  0  0  0  0  0  0
   -1.9820    0.6667   -5.2338 H   0  0  0  0  0  0  0  0  0  0  0  0
   -0.3827    0.2244   -4.6433 H   0  0  0  0  0  0  0  0  0  0  0  0
    0.2986   -0.0941    0.3453 H   0  0  0  0  0  0  0  0  0  0  0  0
    0.7640   -1.7908    0.5255 H   0  0  0  0  0  0  0  0  0  0  0  0
    2.3113   -0.2865    1.7038 H   0  0  0  0  0  0  0  0  0  0  0  0
    3.0992   -1.3185    0.5218 H   0  0  0  0  0  0  0  0  0  0  0  0
    3.0981    1.6005    0.7042 H   0  0  0  0  0  0  0  0  0  0  0  0
    6.9696    0.5091   -1.0791 H   0  0  0  0  0  0  0  0  0  0  0  0
    7.5647    0.4212    0.5744 H   0  0  0  0  0  0  0  0  0  0  0  0
    6.2560   -1.8912   -0.9716 H   0  0  0  0  0  0  0  0  0  0  0  0
    7.9856   -1.7154   -0.6216 H   0  0  0  0  0  0  0  0  0  0  0  0
    6.8306   -1.9876    0.6979 H   0  0  0  0  0  0  0  0  0  0  0  0
    6.0408   -0.0234    2.3653 H   0  0  0  0  0  0  0  0  0  0  0  0
    4.3614    0.4482    2.1851 H   0  0  0  0  0  0  0  0  0  0  0  0
    5.0570    2.7909    1.5934 H   0  0  0  0  0  0  0  0  0  0  0  0
    6.7475    2.3340    1.8324 H   0  0  0  0  0  0  0  0  0  0  0  0
    5.6220    2.3005    3.2024 H   0  0  0  0  0  0  0  0  0  0  0  0
    2.6535    2.0932   -1.7441 H   0  0  0  0  0  0  0  0  0  0  0  0
    1.2595    1.8052   -0.7230 H   0  0  0  0  0  0  0  0  0  0  0  0
    2.4635   -0.1136   -2.7750 H   0  0  0  0  0  0  0  0  0  0  0  0
    0.8748    0.6474   -2.7497 H   0  0  0  0  0  0  0  0  0  0  0  0
  1  2  1  0
  2  3  1  0
  3  4  1  0
  4  5  2  0
  5  6  1  0
  6  7  2  0
  7  8  1  0
  8  9  2  0
  9 10  1  0
 10 11  2  3
 11 12  1  0
 12 13  1  0
 13 14  1  0
 14 15  2  0
 15 16  1  0
 15 17  1  0
 17 18  1  0
 18 19  2  0
 18 20  2  0
 18 21  1  0
 21 22  1  0
 22 23  1  0
 23 24  1  0
 24 25  1  0
 25 26  2  0
 25 27  1  0
 27 28  1  0
 28 29  1  0
 27 30  1  0
 30 31  1  0
 24 32  1  0
 32 33  1  0
  9  4  1  0
 17 12  2  0
 33 21  1  0
  1 34  1  0
  1 35  1  0
  1 36  1  0
  2 37  1  0
  2 38  1  0
  5 39  1  0
  6 40  1  0
  7 41  1  0
  8 42  1  0
 10 43  1  0
 11 44  1  0
 16 45  1  0
 16 46  1  0
 16 47  1  0
 22 48  1  0
 22 49  1  0
 23 50  1  0
 23 51  1  0
 24 52  1  0
 28 53  1  0
 28 54  1  0
 29 55  1  0
 29 56  1  0
 29 57  1  0
 30 58  1  0
 30 59  1  0
 31 60  1  0
 31 61  1  0
 31 62  1  0
 32 63  1  0
 32 64  1  0
 33 65  1  0
 33 66  1  0
M  END
$$$$
