
     RDKit          3D

 40 40  0  0  0  0  0  0  0  0999 V2000
   -6.1347   -0.1404   -1.2175 C   0  0  0  0  0  0  0  0  0  0  0  0
   -5.1368    0.2891   -0.1275 C   0  0  0  0  0  0  0  0  0  0  0  0
   -5.3187   -0.6292    1.0908 C   0  0  0  0  0  0  0  0  0  0  0  0
   -5.4380    1.7448    0.2618 C   0  0  0  0  0  0  0  0  0  0  0  0
   -3.7821    0.1648   -0.6737 N   0  0  0  0  0  0  0  0  0  0  0  0
   -2.6179    0.4628   -0.0003 C   0  0  0  0  0  0  0  0  0  0  0  0
   -2.5153    0.8908    1.1390 O   0  0  0  0  0  0  0  0  0  0  0  0
   -1.3481    0.1982   -0.8331 C   0  0  0  0  0  0  0  0  0  0  0  0
   -1.4236   -0.2702   -1.9635 O   0  0  0  0  0  0  0  0  0  0  0  0
   -0.1774    0.5227   -0.1808 N   0  0  0  0  0  0  0  0  0  0  0  0
    1.0349    0.0694   -0.7312 N   0  0  0  0  0  0  0  0  0  0  0  0
    1.9484   -0.5031    0.1434 C   0  0  0  0  0  0  0  0  0  0  0  0
    1.8084   -0.4536    1.3629 O   0  0  0  0  0  0  0  0  0  0  0  0
    3.1256   -1.1692   -0.5759 C   0  0  0  0  0  0  0  0  0  0  0  0
    4.1347   -1.7150    0.2550 O   0  0  0  0  0  0  0  0  0  0  0  0
    5.1256   -0.8791    0.6891 C   0  0  0  0  0  0  0  0  0  0  0  0
    5.1040    0.5155    0.6485 C   0  0  0  0  0  0  0  0  0  0  0  0
    6.1923    1.2489    1.1327 C   0  0  0  0  0  0  0  0  0  0  0  0
    7.3021    0.5937    1.6633 C   0  0  0  0  0  0  0  0  0  0  0  0
    7.3235   -0.7974    1.7176 C   0  0  0  0  0  0  0  0  0  0  0  0
    6.2365   -1.5283    1.2353 C   0  0  0  0  0  0  0  0  0  0  0  0
   -6.0382    0.4881   -2.1107 H   0  0  0  0  0  0  0  0  0  0  0  0
   -7.1696   -0.0676   -0.8650 H   0  0  0  0  0  0  0  0  0  0  0  0
   -5.9575   -1.1765   -1.5290 H   0  0  0  0  0  0  0  0  0  0  0  0
   -4.6678   -0.3380    1.9217 H   0  0  0  0  0  0  0  0  0  0  0  0
   -6.3508   -0.6001    1.4580 H   0  0  0  0  0  0  0  0  0  0  0  0
   -5.0800   -1.6689    0.8386 H   0  0  0  0  0  0  0  0  0  0  0  0
   -5.2800    2.4197   -0.5874 H   0  0  0  0  0  0  0  0  0  0  0  0
   -6.4761    1.8589    0.5940 H   0  0  0  0  0  0  0  0  0  0  0  0
   -4.7948    2.0911    1.0774 H   0  0  0  0  0  0  0  0  0  0  0  0
   -3.6582   -0.2067   -1.6130 H   0  0  0  0  0  0  0  0  0  0  0  0
   -0.2038    0.6788    0.8315 H   0  0  0  0  0  0  0  0  0  0  0  0
    0.9850   -0.2357   -1.7032 H   0  0  0  0  0  0  0  0  0  0  0  0
    2.7030   -2.0131   -1.1350 H   0  0  0  0  0  0  0  0  0  0  0  0
    3.5461   -0.4868   -1.3255 H   0  0  0  0  0  0  0  0  0  0  0  0
    4.2519    1.0680    0.2692 H   0  0  0  0  0  0  0  0  0  0  0  0
    6.1678    2.3354    1.1048 H   0  0  0  0  0  0  0  0  0  0  0  0
    8.1438    1.1669    2.0429 H   0  0  0  0  0  0  0  0  0  0  0  0
    8.1812   -1.3146    2.1389 H   0  0  0  0  0  0  0  0  0  0  0  0
    6.2547   -2.6142    1.2853 H   0  0  0  0  0  0  0  0  0  0  0  0
  1  2  1  0
  2  3  1  0
  2  4  1  0
  2  5  1  0
  5  6  1  0
  6  7  2  0
  6  8  1  0
  8  9  2  0
  8 10  1  0
 10 11  1  0
 11 12  1  0
 12 13  2  0
 12 14  1  0
 14 15  1  0
 15 16  1  0
 16 17  2  0
 17 18  1  0
 18 19  2  0
 19 20  1  0
 20 21  2  0
 21 16  1  0
  1 22  1  0
  1 23  1  0
  1 24  1  0
  3 25  1  0
  3 26  1  0
  3 27  1  0
  4 28  1  0
  4 29  1  0
  4 30  1  0
  5 31  1  0
 10 32  1  0
 11 33  1  0
 14 34  1  0
 14 35  1  0
 17 36  1  0
 18 37  1  0
 19 38  1  0
 20 39  1  0
 21 40  1  0
M  END
$$$$
