
     RDKit          3D

 36 38  0  0  0  0  0  0  0  0999 V2000
    1.0668    1.9843    2.0526 C   0  0  0  0  0  0  0  0  0  0  0  0
    2.1229    1.2343    1.3427 C   0  0  0  0  0  0  0  0  0  0  0  0
    3.4173    1.5242    0.9889 C   0  0  0  0  0  0  0  0  0  0  0  0
    3.9037    0.3728    0.3236 C   0  0  0  0  0  0  0  0  0  0  0  0
    2.8840   -0.5730    0.2927 C   0  0  0  0  0  0  0  0  0  0  0  0
    2.9159   -1.8776   -0.2719 C   0  0  0  0  0  0  0  0  0  0  0  0
    1.8861   -2.7440   -0.3440 C   0  0  0  0  0  0  0  0  0  0  0  0
    2.1403   -4.0425   -0.8804 C   0  0  0  0  0  0  0  0  0  0  0  0
    2.4061   -5.0667   -1.3579 N   0  0  0  0  0  0  0  0  0  0  0  0
    0.4794   -2.5248    0.1200 C   0  0  0  0  0  0  0  0  0  0  0  0
   -0.0436   -3.3684    0.8396 O   0  0  0  0  0  0  0  0  0  0  0  0
   -0.1148   -1.3872   -0.3902 N   0  0  0  0  0  0  0  0  0  0  0  0
   -1.4409   -0.9214   -0.1809 C   0  0  0  0  0  0  0  0  0  0  0  0
   -2.4041   -1.7254    0.4370 C   0  0  0  0  0  0  0  0  0  0  0  0
   -3.6998   -1.2582    0.6272 C   0  0  0  0  0  0  0  0  0  0  0  0
   -4.0448    0.0190    0.1982 C   0  0  0  0  0  0  0  0  0  0  0  0
   -3.1288    0.8509   -0.4210 C   0  0  0  0  0  0  0  0  0  0  0  0
   -3.5609    2.0675   -0.7971 N   0  0  0  0  0  0  0  0  0  0  0  0
   -2.6912    2.9008   -1.3996 C   0  0  0  0  0  0  0  0  0  0  0  0
   -1.3776    2.5755   -1.6498 C   0  0  0  0  0  0  0  0  0  0  0  0
   -0.9335    1.3159   -1.2589 C   0  0  0  0  0  0  0  0  0  0  0  0
   -1.8035    0.3935   -0.6243 C   0  0  0  0  0  0  0  0  0  0  0  0
    1.8011   -0.0162    0.9256 O   0  0  0  0  0  0  0  0  0  0  0  0
    0.2883    1.3129    2.4286 H   0  0  0  0  0  0  0  0  0  0  0  0
    0.5986    2.7090    1.3798 H   0  0  0  0  0  0  0  0  0  0  0  0
    1.4864    2.5270    2.9052 H   0  0  0  0  0  0  0  0  0  0  0  0
    3.9475    2.4446    1.1914 H   0  0  0  0  0  0  0  0  0  0  0  0
    4.8957    0.2415   -0.0883 H   0  0  0  0  0  0  0  0  0  0  0  0
    3.8862   -2.1988   -0.6506 H   0  0  0  0  0  0  0  0  0  0  0  0
    0.5065   -0.7500   -0.8650 H   0  0  0  0  0  0  0  0  0  0  0  0
   -2.1844   -2.7326    0.7761 H   0  0  0  0  0  0  0  0  0  0  0  0
   -4.4415   -1.8910    1.1078 H   0  0  0  0  0  0  0  0  0  0  0  0
   -5.0610    0.3761    0.3512 H   0  0  0  0  0  0  0  0  0  0  0  0
   -3.0962    3.8682   -1.6819 H   0  0  0  0  0  0  0  0  0  0  0  0
   -0.7127    3.2811   -2.1346 H   0  0  0  0  0  0  0  0  0  0  0  0
    0.1065    1.0788   -1.4541 H   0  0  0  0  0  0  0  0  0  0  0  0
  1  2  1  0
  2  3  2  0
  3  4  1  0
  4  5  2  0
  5  6  1  0
  6  7  2  3
  7  8  1  0
  8  9  3  0
  7 10  1  0
 10 11  2  0
 10 12  1  0
 12 13  1  0
 13 14  2  0
 14 15  1  0
 15 16  2  0
 16 17  1  0
 17 18  2  0
 18 19  1  0
 19 20  2  0
 20 21  1  0
 21 22  2  0
  5 23  1  0
 23  2  1  0
 22 13  1  0
 22 17  1  0
  1 24  1  0
  1 25  1  0
  1 26  1  0
  3 27  1  0
  4 28  1  0
  6 29  1  0
 12 30  1  0
 14 31  1  0
 15 32  1  0
 16 33  1  0
 19 34  1  0
 20 35  1  0
 21 36  1  0
M  END
$$$$
