
     RDKit          3D

 44 46  0  0  0  0  0  0  0  0999 V2000
   -1.5770   -2.8322    0.0500 O   0  0  0  0  0  0  0  0  0  0  0  0
   -1.2489   -2.4313    1.1649 C   0  0  0  0  0  0  0  0  0  0  0  0
   -0.4445   -3.3118    2.1079 C   0  0  0  0  0  0  0  0  0  0  0  0
    0.8529   -2.4151    3.0196 S   0  0  0  0  0  0  0  0  0  0  0  0
    1.6783   -1.6332    1.6580 C   0  0  0  0  0  0  0  0  0  0  0  0
    2.4530   -2.3414    0.7593 C   0  0  0  0  0  0  0  0  0  0  0  0
    3.0383   -1.6564   -0.3056 C   0  0  0  0  0  0  0  0  0  0  0  0
    2.8348   -0.2865   -0.4357 C   0  0  0  0  0  0  0  0  0  0  0  0
    3.3990    0.5279   -1.5286 C   0  0  0  0  0  0  0  0  0  0  0  0
    4.6313    0.2177   -2.1345 C   0  0  0  0  0  0  0  0  0  0  0  0
    5.1494    0.9987   -3.1734 C   0  0  0  0  0  0  0  0  0  0  0  0
    4.4475    2.1107   -3.6284 C   0  0  0  0  0  0  0  0  0  0  0  0
    3.2309    2.4454   -3.0429 C   0  0  0  0  0  0  0  0  0  0  0  0
    2.7159    1.6637   -2.0043 C   0  0  0  0  0  0  0  0  0  0  0  0
    2.0697    0.3674    0.4699 N   0  0  0  0  0  0  0  0  0  0  0  0
    1.4934   -0.3063    1.5234 N   0  0  0  0  0  0  0  0  0  0  0  0
   -1.6250   -1.2052    1.6732 N   0  0  0  0  0  0  0  0  0  0  0  0
   -2.2829   -0.2061    0.8402 C   0  0  0  0  0  0  0  0  0  0  0  0
   -3.7661   -0.5486    0.6358 C   0  0  0  0  0  0  0  0  0  0  0  0
   -4.4866    0.5225   -0.1796 C   0  0  0  0  0  0  0  0  0  0  0  0
   -4.3216    1.9078    0.4370 C   0  0  0  0  0  0  0  0  0  0  0  0
   -2.8517    2.2559    0.6473 C   0  0  0  0  0  0  0  0  0  0  0  0
   -2.1337    1.1869    1.4660 C   0  0  0  0  0  0  0  0  0  0  0  0
    0.0230   -4.1145    1.5285 H   0  0  0  0  0  0  0  0  0  0  0  0
   -1.1336   -3.7666    2.8261 H   0  0  0  0  0  0  0  0  0  0  0  0
    2.6018   -3.4106    0.8649 H   0  0  0  0  0  0  0  0  0  0  0  0
    3.6273   -2.2073   -1.0314 H   0  0  0  0  0  0  0  0  0  0  0  0
    5.2203   -0.6304   -1.7929 H   0  0  0  0  0  0  0  0  0  0  0  0
    6.1052    0.7401   -3.6222 H   0  0  0  0  0  0  0  0  0  0  0  0
    4.8501    2.7189   -4.4341 H   0  0  0  0  0  0  0  0  0  0  0  0
    2.6793    3.3155   -3.3897 H   0  0  0  0  0  0  0  0  0  0  0  0
    1.7607    1.9484   -1.5641 H   0  0  0  0  0  0  0  0  0  0  0  0
   -1.0678   -0.8634    2.4511 H   0  0  0  0  0  0  0  0  0  0  0  0
   -1.7796   -0.2098   -0.1358 H   0  0  0  0  0  0  0  0  0  0  0  0
   -4.2588   -0.6565    1.6111 H   0  0  0  0  0  0  0  0  0  0  0  0
   -3.8721   -1.5150    0.1298 H   0  0  0  0  0  0  0  0  0  0  0  0
   -4.0906    0.5287   -1.2026 H   0  0  0  0  0  0  0  0  0  0  0  0
   -5.5520    0.2761   -0.2513 H   0  0  0  0  0  0  0  0  0  0  0  0
   -4.8462    1.9432    1.3997 H   0  0  0  0  0  0  0  0  0  0  0  0
   -4.7899    2.6581   -0.2099 H   0  0  0  0  0  0  0  0  0  0  0  0
   -2.3579    2.3624   -0.3265 H   0  0  0  0  0  0  0  0  0  0  0  0
   -2.7711    3.2242    1.1539 H   0  0  0  0  0  0  0  0  0  0  0  0
   -2.5332    1.1816    2.4887 H   0  0  0  0  0  0  0  0  0  0  0  0
   -1.0714    1.4464    1.5505 H   0  0  0  0  0  0  0  0  0  0  0  0
  1  2  2  0
  2  3  1  0
  3  4  1  0
  4  5  1  0
  5  6  2  0
  6  7  1  0
  7  8  2  0
  8  9  1  0
  9 10  2  0
 10 11  1  0
 11 12  2  0
 12 13  1  0
 13 14  2  0
  8 15  1  0
 15 16  2  0
  2 17  1  0
 17 18  1  0
 18 19  1  0
 19 20  1  0
 20 21  1  0
 21 22  1  0
 22 23  1  0
 16  5  1  0
 23 18  1  0
 14  9  1  0
  3 24  1  0
  3 25  1  0
  6 26  1  0
  7 27  1  0
 10 28  1  0
 11 29  1  0
 12 30  1  0
 13 31  1  0
 14 32  1  0
 17 33  1  0
 18 34  1  0
 19 35  1  0
 19 36  1  0
 20 37  1  0
 20 38  1  0
 21 39  1  0
 21 40  1  0
 22 41  1  0
 22 42  1  0
 23 43  1  0
 23 44  1  0
M  END
$$$$
