
     RDKit          3D

 53 56  0  0  0  0  0  0  0  0999 V2000
    8.1140   -1.1734    0.3176 C   0  0  0  0  0  0  0  0  0  0  0  0
    7.2194   -1.3379    1.5341 C   0  0  0  0  0  0  0  0  0  0  0  0
    6.1159   -2.1930    1.2418 O   0  0  0  0  0  0  0  0  0  0  0  0
    4.9746   -1.6470    0.7287 C   0  0  0  0  0  0  0  0  0  0  0  0
    4.7797   -0.3190    0.3638 C   0  0  0  0  0  0  0  0  0  0  0  0
    3.5451    0.0953   -0.1573 C   0  0  0  0  0  0  0  0  0  0  0  0
    2.4714   -0.7978   -0.3268 C   0  0  0  0  0  0  0  0  0  0  0  0
    1.1781   -0.3316   -0.8715 C   0  0  0  0  0  0  0  0  0  0  0  0
   -0.0345   -0.9065   -0.5329 C   0  0  0  0  0  0  0  0  0  0  0  0
   -1.1933   -0.3814   -1.1011 C   0  0  0  0  0  0  0  0  0  0  0  0
   -2.4683   -1.0022   -0.7066 C   0  0  0  0  0  0  0  0  0  0  0  0
   -2.7761   -2.0605   -1.2473 O   0  0  0  0  0  0  0  0  0  0  0  0
   -3.2402   -0.3694    0.2565 N   0  0  0  0  0  0  0  0  0  0  0  0
   -4.5091   -0.9938    0.6303 C   0  0  0  0  0  0  0  0  0  0  0  0
   -5.2027   -0.3064    1.8202 C   0  0  0  0  0  0  0  0  0  0  0  0
   -5.3264    1.1434    1.6108 N   0  0  0  0  0  0  0  0  0  0  0  0
   -5.9814    1.7999    2.7355 C   0  0  0  0  0  0  0  0  0  0  0  0
   -4.0384    1.7778    1.2688 C   0  0  0  0  0  0  0  0  0  0  0  0
   -2.8542    0.8156    1.0270 C   0  0  0  0  0  0  0  0  0  0  0  0
   -1.1508    0.6817   -2.0224 C   0  0  0  0  0  0  0  0  0  0  0  0
   -2.2845    1.2373   -2.6663 C   0  0  0  0  0  0  0  0  0  0  0  0
   -2.1506    2.3012   -3.5551 C   0  0  0  0  0  0  0  0  0  0  0  0
   -0.8890    2.8193   -3.8124 C   0  0  0  0  0  0  0  0  0  0  0  0
    0.2293    2.2671   -3.1815 C   0  0  0  0  0  0  0  0  0  0  0  0
    0.1237    1.2052   -2.2924 C   0  0  0  0  0  0  0  0  0  0  0  0
    1.2443    0.7241   -1.7239 N   0  0  0  0  0  0  0  0  0  0  0  0
    2.6953   -2.1368    0.0350 C   0  0  0  0  0  0  0  0  0  0  0  0
    3.9274   -2.5520    0.5556 C   0  0  0  0  0  0  0  0  0  0  0  0
    7.5897   -0.6700   -0.4995 H   0  0  0  0  0  0  0  0  0  0  0  0
    9.0045   -0.5909    0.5697 H   0  0  0  0  0  0  0  0  0  0  0  0
    8.4283   -2.1514   -0.0621 H   0  0  0  0  0  0  0  0  0  0  0  0
    7.7966   -1.8383    2.3197 H   0  0  0  0  0  0  0  0  0  0  0  0
    6.9071   -0.3779    1.9589 H   0  0  0  0  0  0  0  0  0  0  0  0
    5.5619    0.4259    0.4565 H   0  0  0  0  0  0  0  0  0  0  0  0
    3.4242    1.1412   -0.4382 H   0  0  0  0  0  0  0  0  0  0  0  0
   -0.1009   -1.7338    0.1647 H   0  0  0  0  0  0  0  0  0  0  0  0
   -4.3248   -2.0486    0.8659 H   0  0  0  0  0  0  0  0  0  0  0  0
   -5.1571   -0.9639   -0.2546 H   0  0  0  0  0  0  0  0  0  0  0  0
   -4.6362   -0.5109    2.7386 H   0  0  0  0  0  0  0  0  0  0  0  0
   -6.1962   -0.7531    1.9462 H   0  0  0  0  0  0  0  0  0  0  0  0
   -5.4003    1.7087    3.6606 H   0  0  0  0  0  0  0  0  0  0  0  0
   -6.9737    1.3692    2.9091 H   0  0  0  0  0  0  0  0  0  0  0  0
   -6.1335    2.8643    2.5247 H   0  0  0  0  0  0  0  0  0  0  0  0
   -3.7275    2.5025    2.0321 H   0  0  0  0  0  0  0  0  0  0  0  0
   -4.2063    2.3521    0.3490 H   0  0  0  0  0  0  0  0  0  0  0  0
   -2.0365    1.3600    0.5499 H   0  0  0  0  0  0  0  0  0  0  0  0
   -2.4735    0.4489    1.9883 H   0  0  0  0  0  0  0  0  0  0  0  0
   -3.2799    0.8359   -2.4810 H   0  0  0  0  0  0  0  0  0  0  0  0
   -3.0267    2.7173   -4.0463 H   0  0  0  0  0  0  0  0  0  0  0  0
   -0.7669    3.6470   -4.5063 H   0  0  0  0  0  0  0  0  0  0  0  0
    1.2153    2.6749   -3.3945 H   0  0  0  0  0  0  0  0  0  0  0  0
    1.9218   -2.8893   -0.1014 H   0  0  0  0  0  0  0  0  0  0  0  0
    4.0719   -3.5965    0.8215 H   0  0  0  0  0  0  0  0  0  0  0  0
  1  2  1  0
  2  3  1  0
  3  4  1  0
  4  5  2  0
  5  6  1  0
  6  7  2  0
  7  8  1  0
  8  9  2  0
  9 10  1  0
 10 11  1  0
 11 12  2  0
 11 13  1  0
 13 14  1  0
 14 15  1  0
 15 16  1  0
 16 17  1  0
 16 18  1  0
 18 19  1  0
 10 20  2  0
 20 21  1  0
 21 22  2  0
 22 23  1  0
 23 24  2  0
 24 25  1  0
 25 26  2  0
  7 27  1  0
 27 28  2  0
 28  4  1  0
 26  8  1  0
 19 13  1  0
 25 20  1  0
  1 29  1  0
  1 30  1  0
  1 31  1  0
  2 32  1  0
  2 33  1  0
  5 34  1  0
  6 35  1  0
  9 36  1  0
 14 37  1  0
 14 38  1  0
 15 39  1  0
 15 40  1  0
 17 41  1  0
 17 42  1  0
 17 43  1  0
 18 44  1  0
 18 45  1  0
 19 46  1  0
 19 47  1  0
 21 48  1  0
 22 49  1  0
 23 50  1  0
 24 51  1  0
 27 52  1  0
 28 53  1  0
M  END
$$$$
