
     RDKit          3D

 43 46  0  0  0  0  0  0  0  0999 V2000
    5.7216   -0.8123    2.3102 C   0  0  0  0  0  0  0  0  0  0  0  0
    4.4116   -0.3918    2.6687 O   0  0  0  0  0  0  0  0  0  0  0  0
    3.5828   -0.2054    1.5815 C   0  0  0  0  0  0  0  0  0  0  0  0
    2.3647    0.2224    1.8923 N   0  0  0  0  0  0  0  0  0  0  0  0
    1.5484    0.4042    0.8663 C   0  0  0  0  0  0  0  0  0  0  0  0
    0.2890    0.8615    1.2013 N   0  0  0  0  0  0  0  0  0  0  0  0
   -0.9067    0.5014    0.4397 C   0  0  0  0  0  0  0  0  0  0  0  0
   -0.9679    1.2287   -0.9247 C   0  0  0  0  0  0  0  0  0  0  0  0
   -2.2804    0.8917   -1.6559 C   0  0  0  0  0  0  0  0  0  0  0  0
   -3.4712    1.3590   -0.8054 C   0  0  0  0  0  0  0  0  0  0  0  0
   -3.4509    0.6491    0.5565 C   0  0  0  0  0  0  0  0  0  0  0  0
   -3.5440   -0.8694    0.3408 C   0  0  0  0  0  0  0  0  0  0  0  0
   -2.3543   -1.3531   -0.5031 C   0  0  0  0  0  0  0  0  0  0  0  0
   -2.3687   -0.6307   -1.8617 C   0  0  0  0  0  0  0  0  0  0  0  0
   -1.0418   -1.0258    0.2321 C   0  0  0  0  0  0  0  0  0  0  0  0
   -2.1322    0.9759    1.2749 C   0  0  0  0  0  0  0  0  0  0  0  0
    1.8850    0.1798   -0.3934 N   0  0  0  0  0  0  0  0  0  0  0  0
    3.1290   -0.2465   -0.5831 C   0  0  0  0  0  0  0  0  0  0  0  0
    3.5723   -0.5165   -1.8614 O   0  0  0  0  0  0  0  0  0  0  0  0
    2.6018   -0.2363   -2.8618 C   0  0  0  0  0  0  0  0  0  0  0  0
    4.0288   -0.4642    0.3616 N   0  0  0  0  0  0  0  0  0  0  0  0
    5.7044   -1.7903    1.8166 H   0  0  0  0  0  0  0  0  0  0  0  0
    6.2234   -0.0648    1.6857 H   0  0  0  0  0  0  0  0  0  0  0  0
    6.3020   -0.9171    3.2320 H   0  0  0  0  0  0  0  0  0  0  0  0
    0.2119    0.7388    2.2070 H   0  0  0  0  0  0  0  0  0  0  0  0
   -0.1315    0.9427   -1.5703 H   0  0  0  0  0  0  0  0  0  0  0  0
   -0.8870    2.3142   -0.7810 H   0  0  0  0  0  0  0  0  0  0  0  0
   -2.3006    1.3976   -2.6277 H   0  0  0  0  0  0  0  0  0  0  0  0
   -4.4121    1.1443   -1.3268 H   0  0  0  0  0  0  0  0  0  0  0  0
   -3.4269    2.4458   -0.6630 H   0  0  0  0  0  0  0  0  0  0  0  0
   -4.2976    0.9889    1.1633 H   0  0  0  0  0  0  0  0  0  0  0  0
   -4.4865   -1.1197   -0.1616 H   0  0  0  0  0  0  0  0  0  0  0  0
   -3.5521   -1.3861    1.3084 H   0  0  0  0  0  0  0  0  0  0  0  0
   -2.4288   -2.4351   -0.6591 H   0  0  0  0  0  0  0  0  0  0  0  0
   -1.5288   -0.9748   -2.4779 H   0  0  0  0  0  0  0  0  0  0  0  0
   -3.2870   -0.8805   -2.4072 H   0  0  0  0  0  0  0  0  0  0  0  0
   -0.2038   -1.4216   -0.3536 H   0  0  0  0  0  0  0  0  0  0  0  0
   -1.0150   -1.5455    1.1989 H   0  0  0  0  0  0  0  0  0  0  0  0
   -2.0686    2.0570    1.4588 H   0  0  0  0  0  0  0  0  0  0  0  0
   -2.1252    0.4971    2.2635 H   0  0  0  0  0  0  0  0  0  0  0  0
    2.3304    0.8252   -2.8674 H   0  0  0  0  0  0  0  0  0  0  0  0
    3.0478   -0.4692   -3.8336 H   0  0  0  0  0  0  0  0  0  0  0  0
    1.7146   -0.8686   -2.7444 H   0  0  0  0  0  0  0  0  0  0  0  0
  1  2  1  0
  2  3  1  0
  3  4  2  0
  4  5  1  0
  5  6  1  0
  6  7  1  0
  7  8  1  0
  8  9  1  0
  9 10  1  0
 10 11  1  0
 11 12  1  0
 12 13  1  0
 13 14  1  0
 13 15  1  0
 11 16  1  0
  5 17  2  0
 17 18  1  0
 18 19  1  0
 19 20  1  0
 18 21  2  0
 21  3  1  0
 15  7  1  0
 16  7  1  0
 14  9  1  0
  1 22  1  0
  1 23  1  0
  1 24  1  0
  6 25  1  0
  8 26  1  0
  8 27  1  0
  9 28  1  0
 10 29  1  0
 10 30  1  0
 11 31  1  0
 12 32  1  0
 12 33  1  0
 13 34  1  0
 14 35  1  0
 14 36  1  0
 15 37  1  0
 15 38  1  0
 16 39  1  0
 16 40  1  0
 20 41  1  0
 20 42  1  0
 20 43  1  0
M  END
$$$$
