
     RDKit          3D

 50 52  0  0  0  0  0  0  0  0999 V2000
   -6.0741   -1.6882    1.1438 C   0  0  0  0  0  0  0  0  0  0  0  0
   -5.6846   -0.3073    0.6117 C   0  0  0  0  0  0  0  0  0  0  0  0
   -4.3204    0.1450    1.1631 C   0  0  0  0  0  0  0  0  0  0  0  0
   -3.1894   -0.0503    0.1572 C   0  0  0  0  0  0  0  0  0  0  0  0
   -3.4479    0.6744   -1.0907 N   0  0  0  0  0  0  0  0  0  0  0  0
   -2.4713    1.1530   -1.9584 C   0  0  0  0  0  0  0  0  0  0  0  0
   -2.7028    1.6907   -3.0368 O   0  0  0  0  0  0  0  0  0  0  0  0
   -1.0548    1.0047   -1.5814 C   0  0  0  0  0  0  0  0  0  0  0  0
   -0.2796    0.0331   -2.2213 C   0  0  0  0  0  0  0  0  0  0  0  0
    1.0762   -0.0929   -1.9050 C   0  0  0  0  0  0  0  0  0  0  0  0
    1.6577    0.7484   -0.9425 C   0  0  0  0  0  0  0  0  0  0  0  0
    3.4175    0.6219   -0.6761 S   0  0  0  0  0  6  0  0  0  0  0  0
    3.9490   -0.0088   -1.8705 O   0  0  0  0  0  0  0  0  0  0  0  0
    3.8745    1.9429   -0.2949 O   0  0  0  0  0  0  0  0  0  0  0  0
    3.5578   -0.5154    0.7021 C   0  0  0  0  0  0  0  0  0  0  0  0
    5.0117   -0.7888    0.9608 C   0  0  0  0  0  0  0  0  0  0  0  0
    5.7841    0.0765    1.7486 C   0  0  0  0  0  0  0  0  0  0  0  0
    7.1385   -0.1887    1.9661 C   0  0  0  0  0  0  0  0  0  0  0  0
    7.7343   -1.3157    1.3982 C   0  0  0  0  0  0  0  0  0  0  0  0
    6.9756   -2.1792    0.6098 C   0  0  0  0  0  0  0  0  0  0  0  0
    5.6274   -1.9101    0.3983 C   0  0  0  0  0  0  0  0  0  0  0  0
    4.9062   -2.7557   -0.3522 F   0  0  0  0  0  0  0  0  0  0  0  0
    0.8705    1.7297   -0.3290 C   0  0  0  0  0  0  0  0  0  0  0  0
    1.3801    2.5741    0.7335 N   0  0  0  0  0  4  0  0  0  0  0  0
    1.7945    1.9885    1.7428 O   0  0  0  0  0  0  0  0  0  0  0  0
    1.2713    3.7969    0.5911 O   0  0  0  0  0  1  0  0  0  0  0  0
   -0.4879    1.8725   -0.6464 C   0  0  0  0  0  0  0  0  0  0  0  0
   -4.8455    0.8080   -1.5050 C   0  0  0  0  0  0  0  0  0  0  0  0
   -5.7197   -0.2990   -0.9255 C   0  0  0  0  0  0  0  0  0  0  0  0
   -7.0513   -1.9932    0.7540 H   0  0  0  0  0  0  0  0  0  0  0  0
   -6.1394   -1.6783    2.2373 H   0  0  0  0  0  0  0  0  0  0  0  0
   -5.3390   -2.4485    0.8554 H   0  0  0  0  0  0  0  0  0  0  0  0
   -6.4384    0.4041    0.9777 H   0  0  0  0  0  0  0  0  0  0  0  0
   -4.0830   -0.3681    2.1024 H   0  0  0  0  0  0  0  0  0  0  0  0
   -4.3835    1.2156    1.4041 H   0  0  0  0  0  0  0  0  0  0  0  0
   -2.2481    0.2754    0.6059 H   0  0  0  0  0  0  0  0  0  0  0  0
   -3.0774   -1.1110   -0.0989 H   0  0  0  0  0  0  0  0  0  0  0  0
   -0.7248   -0.6047   -2.9834 H   0  0  0  0  0  0  0  0  0  0  0  0
    1.6735   -0.8336   -2.4380 H   0  0  0  0  0  0  0  0  0  0  0  0
    3.0873   -0.0851    1.5868 H   0  0  0  0  0  0  0  0  0  0  0  0
    3.0202   -1.4319    0.4385 H   0  0  0  0  0  0  0  0  0  0  0  0
    5.3425    0.9700    2.1891 H   0  0  0  0  0  0  0  0  0  0  0  0
    7.7314    0.4909    2.5739 H   0  0  0  0  0  0  0  0  0  0  0  0
    8.7897   -1.5161    1.5658 H   0  0  0  0  0  0  0  0  0  0  0  0
    7.4248   -3.0586    0.1588 H   0  0  0  0  0  0  0  0  0  0  0  0
   -1.1005    2.6397   -0.1760 H   0  0  0  0  0  0  0  0  0  0  0  0
   -5.1919    1.7905   -1.1615 H   0  0  0  0  0  0  0  0  0  0  0  0
   -4.9158    0.7996   -2.5985 H   0  0  0  0  0  0  0  0  0  0  0  0
   -5.3711   -1.2644   -1.3163 H   0  0  0  0  0  0  0  0  0  0  0  0
   -6.7539   -0.1776   -1.2685 H   0  0  0  0  0  0  0  0  0  0  0  0
  1  2  1  0
  2  3  1  0
  3  4  1  0
  4  5  1  0
  5  6  1  0
  6  7  2  0
  6  8  1  0
  8  9  2  0
  9 10  1  0
 10 11  2  0
 11 12  1  0
 12 13  2  0
 12 14  2  0
 12 15  1  0
 15 16  1  0
 16 17  2  0
 17 18  1  0
 18 19  2  0
 19 20  1  0
 20 21  2  0
 21 22  1  0
 11 23  1  0
 23 24  1  0
 24 25  2  0
 24 26  1  0
 23 27  2  0
  5 28  1  0
 28 29  1  0
 29  2  1  0
 27  8  1  0
 21 16  1  0
  1 30  1  0
  1 31  1  0
  1 32  1  0
  2 33  1  0
  3 34  1  0
  3 35  1  0
  4 36  1  0
  4 37  1  0
  9 38  1  0
 10 39  1  0
 15 40  1  0
 15 41  1  0
 17 42  1  0
 18 43  1  0
 19 44  1  0
 20 45  1  0
 27 46  1  0
 28 47  1  0
 28 48  1  0
 29 49  1  0
 29 50  1  0
M  CHG  2  24   1  26  -1
M  END
$$$$
