
     RDKit          3D

 49 52  0  0  0  0  0  0  0  0999 V2000
    4.4291   -1.7988    0.9442 O   0  0  0  0  0  0  0  0  0  0  0  0
    3.7870   -0.7513    0.9382 C   0  0  0  0  0  0  0  0  0  0  0  0
    2.4786   -0.6295    1.7009 C   0  0  0  0  0  0  0  0  0  0  0  0
    1.1026   -0.9977    0.5728 S   0  0  0  0  0  0  0  0  0  0  0  0
   -0.2397   -0.6487    1.6028 C   0  0  0  0  0  0  0  0  0  0  0  0
   -0.1646   -0.1569    2.8175 N   0  0  0  0  0  0  0  0  0  0  0  0
   -1.4452   -0.0146    3.2891 N   0  0  0  0  0  0  0  0  0  0  0  0
   -2.2831   -0.4500    2.3636 C   0  0  0  0  0  0  0  0  0  0  0  0
   -3.7362   -0.4561    2.4816 C   0  0  0  0  0  0  0  0  0  0  0  0
   -4.4596   -1.6512    2.4821 C   0  0  0  0  0  0  0  0  0  0  0  0
   -5.8382   -1.5827    2.5960 C   0  0  0  0  0  0  0  0  0  0  0  0
   -6.5242   -0.4246    2.7057 N   0  0  0  0  0  0  0  0  0  0  0  0
   -5.8011    0.7147    2.7314 C   0  0  0  0  0  0  0  0  0  0  0  0
   -4.4213    0.7505    2.6265 C   0  0  0  0  0  0  0  0  0  0  0  0
   -1.5518   -0.8374    1.2560 N   0  0  0  0  0  0  0  0  0  0  0  0
   -2.0867   -1.2947   -0.0154 C   0  0  0  0  0  0  0  0  0  0  0  0
   -2.5827   -0.1462   -0.8946 C   0  0  0  0  0  0  0  0  0  0  0  0
   -3.3186   -0.6342   -2.1332 C   0  0  0  0  0  0  0  0  0  0  0  0
   -3.1438    0.5340   -3.0717 C   0  0  0  0  0  0  0  0  0  0  0  0
   -1.7325    0.9849   -2.7560 C   0  0  0  0  0  0  0  0  0  0  0  0
   -1.4789    0.6375   -1.3857 O   0  0  0  0  0  0  0  0  0  0  0  0
    4.1278    0.4134    0.2690 N   0  0  0  0  0  0  0  0  0  0  0  0
    5.2597    0.6574   -0.5449 C   0  0  0  0  0  0  0  0  0  0  0  0
    6.2531   -0.2959   -0.7868 C   0  0  0  0  0  0  0  0  0  0  0  0
    7.3443    0.0055   -1.6109 C   0  0  0  0  0  0  0  0  0  0  0  0
    7.4580    1.2627   -2.2020 C   0  0  0  0  0  0  0  0  0  0  0  0
    6.4788    2.2265   -1.9700 C   0  0  0  0  0  0  0  0  0  0  0  0
    5.3893    1.9254   -1.1472 C   0  0  0  0  0  0  0  0  0  0  0  0
    4.2005    3.1613   -0.8897 Cl  0  0  0  0  0  0  0  0  0  0  0  0
    2.3879    0.3802    2.1170 H   0  0  0  0  0  0  0  0  0  0  0  0
    2.4894   -1.3431    2.5310 H   0  0  0  0  0  0  0  0  0  0  0  0
   -3.9679   -2.6174    2.4168 H   0  0  0  0  0  0  0  0  0  0  0  0
   -6.4459   -2.4846    2.6082 H   0  0  0  0  0  0  0  0  0  0  0  0
   -6.3772    1.6278    2.8457 H   0  0  0  0  0  0  0  0  0  0  0  0
   -3.8917    1.6977    2.6615 H   0  0  0  0  0  0  0  0  0  0  0  0
   -1.3092   -1.8673   -0.5292 H   0  0  0  0  0  0  0  0  0  0  0  0
   -2.8978   -1.9976    0.2006 H   0  0  0  0  0  0  0  0  0  0  0  0
   -3.2278    0.5350   -0.3274 H   0  0  0  0  0  0  0  0  0  0  0  0
   -2.8305   -1.5209   -2.5565 H   0  0  0  0  0  0  0  0  0  0  0  0
   -4.3661   -0.8807   -1.9350 H   0  0  0  0  0  0  0  0  0  0  0  0
   -3.8564    1.3263   -2.8147 H   0  0  0  0  0  0  0  0  0  0  0  0
   -3.2844    0.2769   -4.1242 H   0  0  0  0  0  0  0  0  0  0  0  0
   -1.5939    2.0606   -2.8946 H   0  0  0  0  0  0  0  0  0  0  0  0
   -0.9989    0.4557   -3.3735 H   0  0  0  0  0  0  0  0  0  0  0  0
    3.4788    1.1936    0.3352 H   0  0  0  0  0  0  0  0  0  0  0  0
    6.2094   -1.2905   -0.3516 H   0  0  0  0  0  0  0  0  0  0  0  0
    8.1063   -0.7518   -1.7895 H   0  0  0  0  0  0  0  0  0  0  0  0
    8.3073    1.4894   -2.8421 H   0  0  0  0  0  0  0  0  0  0  0  0
    6.5680    3.2075   -2.4313 H   0  0  0  0  0  0  0  0  0  0  0  0
  1  2  2  0
  2  3  1  0
  3  4  1  0
  4  5  1  0
  5  6  2  0
  6  7  1  0
  7  8  2  0
  8  9  1  0
  9 10  2  0
 10 11  1  0
 11 12  2  0
 12 13  1  0
 13 14  2  0
  8 15  1  0
 15 16  1  0
 16 17  1  0
 17 18  1  0
 18 19  1  0
 19 20  1  0
 20 21  1  0
  2 22  1  0
 22 23  1  0
 23 24  2  0
 24 25  1  0
 25 26  2  0
 26 27  1  0
 27 28  2  0
 28 29  1  0
 15  5  1  0
 21 17  1  0
 28 23  1  0
 14  9  1  0
  3 30  1  0
  3 31  1  0
 10 32  1  0
 11 33  1  0
 13 34  1  0
 14 35  1  0
 16 36  1  0
 16 37  1  0
 17 38  1  0
 18 39  1  0
 18 40  1  0
 19 41  1  0
 19 42  1  0
 20 43  1  0
 20 44  1  0
 22 45  1  0
 24 46  1  0
 25 47  1  0
 26 48  1  0
 27 49  1  0
M  END
$$$$
