
     RDKit          3D

 39 41  0  0  0  0  0  0  0  0999 V2000
   -6.2985   -1.0668   -2.1903 C   0  0  0  0  0  0  0  0  0  0  0  0
   -6.0679   -0.4725   -0.9196 O   0  0  0  0  0  0  0  0  0  0  0  0
   -4.7956   -0.0505   -0.6582 C   0  0  0  0  0  0  0  0  0  0  0  0
   -3.7240   -0.0779   -1.5422 C   0  0  0  0  0  0  0  0  0  0  0  0
   -2.4604    0.3828   -1.1398 C   0  0  0  0  0  0  0  0  0  0  0  0
   -2.2469    0.8765    0.1547 C   0  0  0  0  0  0  0  0  0  0  0  0
   -0.9467    1.3376    0.5703 N   0  0  0  0  0  0  0  0  0  0  0  0
   -0.6671    2.2269    1.6233 C   0  0  0  0  0  0  0  0  0  0  0  0
   -1.6166    2.8279    2.3357 O   0  0  0  0  0  0  0  0  0  0  0  0
    0.7003    2.3841    1.7265 C   0  0  0  0  0  0  0  0  0  0  0  0
    1.2878    1.5889    0.7385 C   0  0  0  0  0  0  0  0  0  0  0  0
    2.6174    1.4417    0.5300 N   0  0  0  0  0  0  0  0  0  0  0  0
    3.1582    0.2269    0.0621 N   0  0  0  0  0  0  0  0  0  0  0  0
    4.5416    0.0952    0.0948 C   0  0  0  0  0  0  0  0  0  0  0  0
    5.2892    1.0481    0.3106 O   0  0  0  0  0  0  0  0  0  0  0  0
    5.0000   -1.2602   -0.1156 C   0  0  0  0  0  0  0  0  0  0  0  0
    6.2721   -1.7947   -0.1878 C   0  0  0  0  0  0  0  0  0  0  0  0
    6.1185   -3.1845   -0.4074 C   0  0  0  0  0  0  0  0  0  0  0  0
    4.7643   -3.4193   -0.4459 C   0  0  0  0  0  0  0  0  0  0  0  0
    4.0766   -2.2627   -0.2665 O   0  0  0  0  0  0  0  0  0  0  0  0
    0.2848    0.9968    0.0009 C   0  0  0  0  0  0  0  0  0  0  0  0
    0.4213    0.2002   -1.0616 O   0  0  0  0  0  0  0  0  0  0  0  0
   -3.3347    0.9039    1.0345 C   0  0  0  0  0  0  0  0  0  0  0  0
   -4.5949    0.4467    0.6279 C   0  0  0  0  0  0  0  0  0  0  0  0
   -5.6870   -1.9674   -2.3201 H   0  0  0  0  0  0  0  0  0  0  0  0
   -7.3486   -1.3695   -2.2342 H   0  0  0  0  0  0  0  0  0  0  0  0
   -6.1229   -0.3502   -2.9973 H   0  0  0  0  0  0  0  0  0  0  0  0
   -3.8292   -0.4414   -2.5581 H   0  0  0  0  0  0  0  0  0  0  0  0
   -1.6739    0.3750   -1.8855 H   0  0  0  0  0  0  0  0  0  0  0  0
   -1.1854    3.4490    2.9478 H   0  0  0  0  0  0  0  0  0  0  0  0
    1.2098    3.0064    2.4500 H   0  0  0  0  0  0  0  0  0  0  0  0
    3.2943    1.9744    1.0888 H   0  0  0  0  0  0  0  0  0  0  0  0
    2.6125   -0.6179    0.2342 H   0  0  0  0  0  0  0  0  0  0  0  0
    7.1945   -1.2384   -0.0941 H   0  0  0  0  0  0  0  0  0  0  0  0
    6.9007   -3.9245   -0.5230 H   0  0  0  0  0  0  0  0  0  0  0  0
    4.1589   -4.3045   -0.5882 H   0  0  0  0  0  0  0  0  0  0  0  0
    1.3568    0.3048   -1.3292 H   0  0  0  0  0  0  0  0  0  0  0  0
   -3.2374    1.2411    2.0610 H   0  0  0  0  0  0  0  0  0  0  0  0
   -5.4222    0.4681    1.3300 H   0  0  0  0  0  0  0  0  0  0  0  0
  1  2  1  0
  2  3  1  0
  3  4  2  0
  4  5  1  0
  5  6  2  0
  6  7  1  0
  7  8  1  0
  8  9  1  0
  8 10  2  0
 10 11  1  0
 11 12  1  0
 12 13  1  0
 13 14  1  0
 14 15  2  0
 14 16  1  0
 16 17  2  0
 17 18  1  0
 18 19  2  0
 19 20  1  0
 11 21  2  0
 21 22  1  0
  6 23  1  0
 23 24  2  0
 24  3  1  0
 21  7  1  0
 20 16  1  0
  1 25  1  0
  1 26  1  0
  1 27  1  0
  4 28  1  0
  5 29  1  0
  9 30  1  0
 10 31  1  0
 12 32  1  0
 13 33  1  0
 17 34  1  0
 18 35  1  0
 19 36  1  0
 22 37  1  0
 23 38  1  0
 24 39  1  0
M  END
$$$$
