
     RDKit          3D

 49 51  0  0  0  0  0  0  0  0999 V2000
   -8.2913    4.1510    3.0870 C   0  0  0  0  0  0  0  0  0  0  0  0
   -8.1781    2.7352    3.0257 O   0  0  0  0  0  0  0  0  0  0  0  0
   -7.0547    2.2280    2.4358 C   0  0  0  0  0  0  0  0  0  0  0  0
   -5.9963    2.9660    1.9121 C   0  0  0  0  0  0  0  0  0  0  0  0
   -4.9005    2.3111    1.3339 C   0  0  0  0  0  0  0  0  0  0  0  0
   -4.8479    0.9129    1.2694 C   0  0  0  0  0  0  0  0  0  0  0  0
   -3.7055    0.3376    0.6737 N   0  0  0  0  0  0  0  0  0  0  0  0
   -3.4600   -1.0077    0.4606 C   0  0  0  0  0  0  0  0  0  0  0  0
   -4.2043   -1.9463    0.7127 O   0  0  0  0  0  0  0  0  0  0  0  0
   -2.1366   -1.2684   -0.1734 C   0  0  0  0  0  0  0  0  0  0  0  0
   -2.1309   -2.0219   -1.3790 C   0  0  0  0  0  0  0  0  0  0  0  0
   -2.1029   -2.6130   -2.3778 N   0  0  0  0  0  0  0  0  0  0  0  0
   -1.0324   -0.8173    0.4535 C   0  0  0  0  0  0  0  0  0  0  0  0
    0.3498   -0.9962   -0.0075 C   0  0  0  0  0  0  0  0  0  0  0  0
    1.1492    0.1318   -0.2222 C   0  0  0  0  0  0  0  0  0  0  0  0
    2.4784   -0.0043   -0.6425 C   0  0  0  0  0  0  0  0  0  0  0  0
    3.0236   -1.2717   -0.8442 C   0  0  0  0  0  0  0  0  0  0  0  0
    4.2991   -1.5463   -1.2516 O   0  0  0  0  0  0  0  0  0  0  0  0
    5.1451   -0.4323   -1.5446 C   0  0  0  0  0  0  0  0  0  0  0  0
    6.4920   -0.9054   -2.0321 C   0  0  0  0  0  0  0  0  0  0  0  0
    6.6680   -2.1347   -2.6838 C   0  0  0  0  0  0  0  0  0  0  0  0
    7.9287   -2.5162   -3.1523 C   0  0  0  0  0  0  0  0  0  0  0  0
    9.0253   -1.6705   -2.9866 C   0  0  0  0  0  0  0  0  0  0  0  0
    8.8600   -0.4389   -2.3571 C   0  0  0  0  0  0  0  0  0  0  0  0
    7.6015   -0.0663   -1.8927 C   0  0  0  0  0  0  0  0  0  0  0  0
    7.4599    1.1309   -1.3050 F   0  0  0  0  0  0  0  0  0  0  0  0
    2.2304   -2.3977   -0.6148 C   0  0  0  0  0  0  0  0  0  0  0  0
    0.9040   -2.2654   -0.1946 C   0  0  0  0  0  0  0  0  0  0  0  0
   -5.9088    0.1794    1.7968 C   0  0  0  0  0  0  0  0  0  0  0  0
   -7.0024    0.8352    2.3749 C   0  0  0  0  0  0  0  0  0  0  0  0
   -9.2421    4.3900    3.5731 H   0  0  0  0  0  0  0  0  0  0  0  0
   -8.3106    4.5896    2.0838 H   0  0  0  0  0  0  0  0  0  0  0  0
   -7.4892    4.5849    3.6929 H   0  0  0  0  0  0  0  0  0  0  0  0
   -5.9892    4.0505    1.9362 H   0  0  0  0  0  0  0  0  0  0  0  0
   -4.0925    2.9183    0.9340 H   0  0  0  0  0  0  0  0  0  0  0  0
   -3.0145    0.9952    0.3345 H   0  0  0  0  0  0  0  0  0  0  0  0
   -1.1174   -0.2703    1.3916 H   0  0  0  0  0  0  0  0  0  0  0  0
    0.7498    1.1320   -0.0700 H   0  0  0  0  0  0  0  0  0  0  0  0
    3.0571    0.9003   -0.7986 H   0  0  0  0  0  0  0  0  0  0  0  0
    4.6990    0.1850   -2.3339 H   0  0  0  0  0  0  0  0  0  0  0  0
    5.2824    0.1581   -0.6304 H   0  0  0  0  0  0  0  0  0  0  0  0
    5.8235   -2.8058   -2.8299 H   0  0  0  0  0  0  0  0  0  0  0  0
    8.0527   -3.4755   -3.6498 H   0  0  0  0  0  0  0  0  0  0  0  0
   10.0041   -1.9696   -3.3524 H   0  0  0  0  0  0  0  0  0  0  0  0
    9.7011    0.2346   -2.2276 H   0  0  0  0  0  0  0  0  0  0  0  0
    2.6490   -3.3906   -0.7635 H   0  0  0  0  0  0  0  0  0  0  0  0
    0.3216   -3.1667   -0.0153 H   0  0  0  0  0  0  0  0  0  0  0  0
   -5.9249   -0.9057    1.7799 H   0  0  0  0  0  0  0  0  0  0  0  0
   -7.8226    0.2471    2.7807 H   0  0  0  0  0  0  0  0  0  0  0  0
  1  2  1  0
  2  3  1  0
  3  4  2  0
  4  5  1  0
  5  6  2  0
  6  7  1  0
  7  8  1  0
  8  9  2  0
  8 10  1  0
 10 11  1  0
 11 12  3  0
 10 13  2  3
 13 14  1  0
 14 15  2  0
 15 16  1  0
 16 17  2  0
 17 18  1  0
 18 19  1  0
 19 20  1  0
 20 21  2  0
 21 22  1  0
 22 23  2  0
 23 24  1  0
 24 25  2  0
 25 26  1  0
 17 27  1  0
 27 28  2  0
  6 29  1  0
 29 30  2  0
 30  3  1  0
 28 14  1  0
 25 20  1  0
  1 31  1  0
  1 32  1  0
  1 33  1  0
  4 34  1  0
  5 35  1  0
  7 36  1  0
 13 37  1  0
 15 38  1  0
 16 39  1  0
 19 40  1  0
 19 41  1  0
 21 42  1  0
 22 43  1  0
 23 44  1  0
 24 45  1  0
 27 46  1  0
 28 47  1  0
 29 48  1  0
 30 49  1  0
M  END
$$$$
