
     RDKit          3D

 53 56  0  0  0  0  0  0  0  0999 V2000
    4.6353   -1.2980    3.1268 C   0  0  0  0  0  0  0  0  0  0  0  0
    4.3558   -0.7255    1.8000 N   0  0  0  0  0  0  0  0  0  0  0  0
    5.3794    0.0465    1.1899 C   0  0  0  0  0  0  0  0  0  0  0  0
    6.6755    0.1677    1.7194 C   0  0  0  0  0  0  0  0  0  0  0  0
    7.6627    0.9290    1.0795 C   0  0  0  0  0  0  0  0  0  0  0  0
    7.3808    1.5803   -0.1160 C   0  0  0  0  0  0  0  0  0  0  0  0
    6.1145    1.4636   -0.6759 C   0  0  0  0  0  0  0  0  0  0  0  0
    5.1319    0.7026   -0.0327 C   0  0  0  0  0  0  0  0  0  0  0  0
    2.9700   -0.4657    1.6399 C   0  0  0  0  0  0  0  0  0  0  0  0
    2.4362    0.7713    2.0359 C   0  0  0  0  0  0  0  0  0  0  0  0
    1.0742    1.0568    1.8767 C   0  0  0  0  0  0  0  0  0  0  0  0
    0.2106    0.1156    1.3059 C   0  0  0  0  0  0  0  0  0  0  0  0
   -1.2118    0.4447    1.1578 C   0  0  0  0  0  0  0  0  0  0  0  0
   -1.8651    0.6134   -0.0113 C   0  0  0  0  0  0  0  0  0  0  0  0
   -1.1935    0.5255   -1.2689 C   0  0  0  0  0  0  0  0  0  0  0  0
   -0.6937    0.4127   -2.3102 N   0  0  0  0  0  0  0  0  0  0  0  0
   -3.2427    0.9769    0.0589 C   0  0  0  0  0  0  0  0  0  0  0  0
   -3.8261    1.8028    0.9074 N   0  0  0  0  0  0  0  0  0  0  0  0
   -5.1476    1.9057    0.5809 N   0  0  0  0  0  0  0  0  0  0  0  0
   -5.3829    1.1245   -0.4512 C   0  0  0  0  0  0  0  0  0  0  0  0
   -4.2192    0.4636   -0.7813 N   0  0  0  0  0  0  0  0  0  0  0  0
   -4.0646   -0.5891   -1.7702 C   0  0  0  0  0  0  0  0  0  0  0  0
   -5.3059   -1.4384   -2.0287 C   0  0  0  0  0  0  0  0  0  0  0  0
   -6.3338   -0.7619   -2.9335 C   0  0  0  0  0  0  0  0  0  0  0  0
   -6.6243    0.7030   -2.6101 C   0  0  0  0  0  0  0  0  0  0  0  0
   -6.7116    0.9844   -1.1156 C   0  0  0  0  0  0  0  0  0  0  0  0
    0.7152   -1.1248    0.9082 C   0  0  0  0  0  0  0  0  0  0  0  0
    2.0807   -1.3974    1.0829 C   0  0  0  0  0  0  0  0  0  0  0  0
    2.5621   -2.6882    0.6365 N   0  0  0  0  0  4  0  0  0  0  0  0
    2.9346   -3.4900    1.5066 O   0  0  0  0  0  0  0  0  0  0  0  0
    2.4893   -2.9232   -0.5784 O   0  0  0  0  0  1  0  0  0  0  0  0
    3.7967   -1.8955    3.5067 H   0  0  0  0  0  0  0  0  0  0  0  0
    5.4938   -1.9781    3.0820 H   0  0  0  0  0  0  0  0  0  0  0  0
    4.8322   -0.5106    3.8652 H   0  0  0  0  0  0  0  0  0  0  0  0
    6.9573   -0.3237    2.6450 H   0  0  0  0  0  0  0  0  0  0  0  0
    8.6546    1.0059    1.5181 H   0  0  0  0  0  0  0  0  0  0  0  0
    8.1475    2.1672   -0.6148 H   0  0  0  0  0  0  0  0  0  0  0  0
    5.8864    1.9555   -1.6181 H   0  0  0  0  0  0  0  0  0  0  0  0
    4.1614    0.6173   -0.5166 H   0  0  0  0  0  0  0  0  0  0  0  0
    3.0891    1.5275    2.4694 H   0  0  0  0  0  0  0  0  0  0  0  0
    0.6998    2.0291    2.1947 H   0  0  0  0  0  0  0  0  0  0  0  0
   -1.7382    0.5819    2.1029 H   0  0  0  0  0  0  0  0  0  0  0  0
   -3.2880   -1.2657   -1.3958 H   0  0  0  0  0  0  0  0  0  0  0  0
   -3.7052   -0.1208   -2.6933 H   0  0  0  0  0  0  0  0  0  0  0  0
   -5.0010   -2.3756   -2.5107 H   0  0  0  0  0  0  0  0  0  0  0  0
   -5.7732   -1.7239   -1.0776 H   0  0  0  0  0  0  0  0  0  0  0  0
   -5.9997   -0.8263   -3.9768 H   0  0  0  0  0  0  0  0  0  0  0  0
   -7.2675   -1.3359   -2.8786 H   0  0  0  0  0  0  0  0  0  0  0  0
   -5.8644    1.3441   -3.0749 H   0  0  0  0  0  0  0  0  0  0  0  0
   -7.5781    0.9690   -3.0830 H   0  0  0  0  0  0  0  0  0  0  0  0
   -7.3024    0.2158   -0.6050 H   0  0  0  0  0  0  0  0  0  0  0  0
   -7.2511    1.9313   -0.9794 H   0  0  0  0  0  0  0  0  0  0  0  0
    0.0642   -1.8766    0.4671 H   0  0  0  0  0  0  0  0  0  0  0  0
  1  2  1  0
  2  3  1  0
  3  4  2  0
  4  5  1  0
  5  6  2  0
  6  7  1  0
  7  8  2  0
  2  9  1  0
  9 10  2  0
 10 11  1  0
 11 12  2  0
 12 13  1  0
 13 14  2  3
 14 15  1  0
 15 16  3  0
 14 17  1  0
 17 18  2  0
 18 19  1  0
 19 20  2  0
 20 21  1  0
 21 22  1  0
 22 23  1  0
 23 24  1  0
 24 25  1  0
 25 26  1  0
 12 27  1  0
 27 28  2  0
 28 29  1  0
 29 30  2  0
 29 31  1  0
  8  3  1  0
 28  9  1  0
 21 17  1  0
 26 20  1  0
  1 32  1  0
  1 33  1  0
  1 34  1  0
  4 35  1  0
  5 36  1  0
  6 37  1  0
  7 38  1  0
  8 39  1  0
 10 40  1  0
 11 41  1  0
 13 42  1  0
 22 43  1  0
 22 44  1  0
 23 45  1  0
 23 46  1  0
 24 47  1  0
 24 48  1  0
 25 49  1  0
 25 50  1  0
 26 51  1  0
 26 52  1  0
 27 53  1  0
M  CHG  2  29   1  31  -1
M  END
$$$$
