
     RDKit          3D

 48 50  0  0  0  0  0  0  0  0999 V2000
    5.4684    2.9219    0.0620 C   0  0  0  0  0  0  0  0  0  0  0  0
    5.1322    1.7182    0.7380 O   0  0  0  0  0  0  0  0  0  0  0  0
    4.2423    0.8829    0.1196 C   0  0  0  0  0  0  0  0  0  0  0  0
    3.9622   -0.2894    0.8251 C   0  0  0  0  0  0  0  0  0  0  0  0
    3.0828   -1.2433    0.3070 C   0  0  0  0  0  0  0  0  0  0  0  0
    2.4668   -1.0344   -0.9314 C   0  0  0  0  0  0  0  0  0  0  0  0
    1.5168   -2.0701   -1.4882 C   0  0  0  0  0  0  0  0  0  0  0  0
    0.2531   -2.2619   -0.6578 C   0  0  0  0  0  0  0  0  0  0  0  0
   -0.1153   -3.3915   -0.3464 O   0  0  0  0  0  0  0  0  0  0  0  0
   -0.4053   -1.0718   -0.3812 N   0  0  0  0  0  0  0  0  0  0  0  0
   -1.6106   -0.9635    0.2947 C   0  0  0  0  0  0  0  0  0  0  0  0
   -2.4501   -1.9099    0.8455 C   0  0  0  0  0  0  0  0  0  0  0  0
   -3.5268   -1.2029    1.3721 C   0  0  0  0  0  0  0  0  0  0  0  0
   -3.4173    0.1094    1.2221 N   0  0  0  0  0  0  0  0  0  0  0  0
   -2.2413    0.2625    0.5514 N   0  0  0  0  0  0  0  0  0  0  0  0
   -1.8063    1.6370    0.2099 C   0  0  0  0  0  0  0  0  0  0  0  0
   -0.4840    1.9757    0.9272 C   0  0  0  0  0  0  0  0  0  0  0  0
   -1.6621    1.8036   -1.3165 C   0  0  0  0  0  0  0  0  0  0  0  0
   -2.8461    2.6964    0.6694 C   0  0  0  0  0  0  0  0  0  0  0  0
   -4.6127   -1.9453    2.0257 C   0  0  0  0  0  0  0  0  0  0  0  0
   -4.0046   -3.7024    2.0823 S   0  0  0  0  0  3  0  0  0  0  0  0
   -5.0613   -4.6365    1.1974 O   0  0  0  0  0  1  0  0  0  0  0  0
   -2.4993   -3.3709    1.0141 C   0  0  0  0  0  0  0  0  0  0  0  0
    2.7480    0.1429   -1.6398 C   0  0  0  0  0  0  0  0  0  0  0  0
    3.6277    1.0985   -1.1144 C   0  0  0  0  0  0  0  0  0  0  0  0
    6.2221    3.4409    0.6656 H   0  0  0  0  0  0  0  0  0  0  0  0
    4.5949    3.5782   -0.0239 H   0  0  0  0  0  0  0  0  0  0  0  0
    5.9119    2.7173   -0.9188 H   0  0  0  0  0  0  0  0  0  0  0  0
    4.4417   -0.4663    1.7869 H   0  0  0  0  0  0  0  0  0  0  0  0
    2.8910   -2.1525    0.8751 H   0  0  0  0  0  0  0  0  0  0  0  0
    1.2119   -1.8157   -2.5111 H   0  0  0  0  0  0  0  0  0  0  0  0
    2.0449   -3.0299   -1.5463 H   0  0  0  0  0  0  0  0  0  0  0  0
    0.0590   -0.2269   -0.6813 H   0  0  0  0  0  0  0  0  0  0  0  0
    0.3480    1.3438    0.6052 H   0  0  0  0  0  0  0  0  0  0  0  0
   -0.5829    1.8510    2.0142 H   0  0  0  0  0  0  0  0  0  0  0  0
   -0.1869    3.0153    0.7369 H   0  0  0  0  0  0  0  0  0  0  0  0
   -2.5763    1.4914   -1.8318 H   0  0  0  0  0  0  0  0  0  0  0  0
   -1.4694    2.8488   -1.5825 H   0  0  0  0  0  0  0  0  0  0  0  0
   -0.8380    1.2217   -1.7355 H   0  0  0  0  0  0  0  0  0  0  0  0
   -3.8214    2.5359    0.1896 H   0  0  0  0  0  0  0  0  0  0  0  0
   -2.5176    3.7128    0.4094 H   0  0  0  0  0  0  0  0  0  0  0  0
   -2.9941    2.6713    1.7569 H   0  0  0  0  0  0  0  0  0  0  0  0
   -4.7899   -1.6209    3.0565 H   0  0  0  0  0  0  0  0  0  0  0  0
   -5.5414   -1.9211    1.4456 H   0  0  0  0  0  0  0  0  0  0  0  0
   -1.6445   -3.7617    1.5735 H   0  0  0  0  0  0  0  0  0  0  0  0
   -2.6398   -3.9056    0.0696 H   0  0  0  0  0  0  0  0  0  0  0  0
    2.2978    0.3242   -2.6151 H   0  0  0  0  0  0  0  0  0  0  0  0
    3.8219    1.9931   -1.6977 H   0  0  0  0  0  0  0  0  0  0  0  0
  1  2  1  0
  2  3  1  0
  3  4  2  0
  4  5  1  0
  5  6  2  0
  6  7  1  0
  7  8  1  0
  8  9  2  0
  8 10  1  0
 10 11  1  0
 11 12  2  0
 12 13  1  0
 13 14  2  0
 14 15  1  0
 15 16  1  0
 16 17  1  0
 16 18  1  0
 16 19  1  0
 13 20  1  0
 20 21  1  0
 21 22  1  0
 21 23  1  0
  6 24  1  0
 24 25  2  0
 25  3  1  0
 15 11  1  0
 23 12  1  0
  1 26  1  0
  1 27  1  0
  1 28  1  0
  4 29  1  0
  5 30  1  0
  7 31  1  0
  7 32  1  0
 10 33  1  0
 17 34  1  0
 17 35  1  0
 17 36  1  0
 18 37  1  0
 18 38  1  0
 18 39  1  0
 19 40  1  0
 19 41  1  0
 19 42  1  0
 20 43  1  0
 20 44  1  0
 23 45  1  0
 23 46  1  0
 24 47  1  0
 25 48  1  0
M  CHG  2  21   1  22  -1
M  END
$$$$
