
     RDKit          3D

 43 45  0  0  0  0  0  0  0  0999 V2000
    5.6628   -3.5246   -0.5510 C   0  0  0  0  0  0  0  0  0  0  0  0
    5.9398   -2.2380   -0.0123 O   0  0  0  0  0  0  0  0  0  0  0  0
    4.9119   -1.3365   -0.0145 C   0  0  0  0  0  0  0  0  0  0  0  0
    3.6302   -1.5519   -0.5144 C   0  0  0  0  0  0  0  0  0  0  0  0
    2.6671   -0.5344   -0.4523 C   0  0  0  0  0  0  0  0  0  0  0  0
    2.9633    0.7158    0.0970 C   0  0  0  0  0  0  0  0  0  0  0  0
    2.0207    1.7633    0.2129 N   0  0  0  0  0  0  0  0  0  0  0  0
    0.6671    1.7692    0.1241 C   0  0  0  0  0  0  0  0  0  0  0  0
   -0.0728    2.9050   -0.2728 C   0  0  0  0  0  0  0  0  0  0  0  0
   -1.4095    2.5730   -0.2406 C   0  0  0  0  0  0  0  0  0  0  0  0
   -2.4678    3.2815   -0.6281 O   0  0  0  0  0  0  0  0  0  0  0  0
   -1.5194    1.2648    0.2200 N   0  0  0  0  0  0  0  0  0  0  0  0
   -2.7239    0.5041    0.3132 C   0  0  0  0  0  0  0  0  0  0  0  0
   -2.7370   -0.7602   -0.3061 C   0  0  0  0  0  0  0  0  0  0  0  0
   -3.9097   -1.5250   -0.2990 C   0  0  0  0  0  0  0  0  0  0  0  0
   -3.9307   -2.8342   -0.9630 N   0  0  0  0  0  4  0  0  0  0  0  0
   -5.0130   -3.4351   -1.0191 O   0  0  0  0  0  0  0  0  0  0  0  0
   -2.8632   -3.2646   -1.4216 O   0  0  0  0  0  1  0  0  0  0  0  0
   -5.0650   -1.0479    0.3254 C   0  0  0  0  0  0  0  0  0  0  0  0
   -5.0393    0.1970    0.9575 C   0  0  0  0  0  0  0  0  0  0  0  0
   -3.8710    0.9828    0.9799 C   0  0  0  0  0  0  0  0  0  0  0  0
   -3.9250    2.2757    1.7503 C   0  0  0  0  0  0  0  0  0  0  0  0
   -0.2336    0.7807    0.4769 C   0  0  0  0  0  0  0  0  0  0  0  0
   -0.0043   -0.4126    1.0352 O   0  0  0  0  0  0  0  0  0  0  0  0
    4.2539    0.9147    0.6073 C   0  0  0  0  0  0  0  0  0  0  0  0
    5.2176   -0.0975    0.5472 C   0  0  0  0  0  0  0  0  0  0  0  0
    4.8766   -4.0310    0.0188 H   0  0  0  0  0  0  0  0  0  0  0  0
    6.5736   -4.1252   -0.4667 H   0  0  0  0  0  0  0  0  0  0  0  0
    5.4038   -3.4603   -1.6130 H   0  0  0  0  0  0  0  0  0  0  0  0
    3.3373   -2.4966   -0.9592 H   0  0  0  0  0  0  0  0  0  0  0  0
    1.6813   -0.7334   -0.8622 H   0  0  0  0  0  0  0  0  0  0  0  0
    2.4965    2.6598    0.1657 H   0  0  0  0  0  0  0  0  0  0  0  0
    0.3309    3.8552   -0.5939 H   0  0  0  0  0  0  0  0  0  0  0  0
   -2.1436    4.1324   -0.9737 H   0  0  0  0  0  0  0  0  0  0  0  0
   -1.8524   -1.1209   -0.8314 H   0  0  0  0  0  0  0  0  0  0  0  0
   -5.9863   -1.6271    0.3338 H   0  0  0  0  0  0  0  0  0  0  0  0
   -5.9436    0.5527    1.4510 H   0  0  0  0  0  0  0  0  0  0  0  0
   -4.3302    3.0770    1.1260 H   0  0  0  0  0  0  0  0  0  0  0  0
   -2.9427    2.5651    2.1345 H   0  0  0  0  0  0  0  0  0  0  0  0
   -4.5726    2.1687    2.6283 H   0  0  0  0  0  0  0  0  0  0  0  0
   -0.8101   -0.7228    1.4811 H   0  0  0  0  0  0  0  0  0  0  0  0
    4.5208    1.8605    1.0710 H   0  0  0  0  0  0  0  0  0  0  0  0
    6.2114    0.0809    0.9496 H   0  0  0  0  0  0  0  0  0  0  0  0
  1  2  1  0
  2  3  1  0
  3  4  2  0
  4  5  1  0
  5  6  2  0
  6  7  1  0
  7  8  1  0
  8  9  1  0
  9 10  2  0
 10 11  1  0
 10 12  1  0
 12 13  1  0
 13 14  2  0
 14 15  1  0
 15 16  1  0
 16 17  2  0
 16 18  1  0
 15 19  2  0
 19 20  1  0
 20 21  2  0
 21 22  1  0
 12 23  1  0
 23 24  1  0
  6 25  1  0
 25 26  2  0
 26  3  1  0
 23  8  2  0
 21 13  1  0
  1 27  1  0
  1 28  1  0
  1 29  1  0
  4 30  1  0
  5 31  1  0
  7 32  1  0
  9 33  1  0
 11 34  1  0
 14 35  1  0
 19 36  1  0
 20 37  1  0
 22 38  1  0
 22 39  1  0
 22 40  1  0
 24 41  1  0
 25 42  1  0
 26 43  1  0
M  CHG  2  16   1  18  -1
M  END
$$$$
