
     RDKit          3D

 59 62  0  0  0  0  0  0  0  0999 V2000
    9.1920    2.7983    2.4086 C   0  0  0  0  0  0  0  0  0  0  0  0
    7.6995    3.0702    2.4811 C   0  0  0  0  0  0  0  0  0  0  0  0
    7.1219    3.0845    1.1768 O   0  0  0  0  0  0  0  0  0  0  0  0
    6.6602    1.9139    0.6448 C   0  0  0  0  0  0  0  0  0  0  0  0
    6.0079    2.0544   -0.5824 C   0  0  0  0  0  0  0  0  0  0  0  0
    5.4825    0.9432   -1.2465 C   0  0  0  0  0  0  0  0  0  0  0  0
    5.6043   -0.3344   -0.6894 C   0  0  0  0  0  0  0  0  0  0  0  0
    5.0191   -1.5379   -1.3920 C   0  0  0  0  0  0  0  0  0  0  0  0
    3.8030   -2.1262   -0.6712 C   0  0  0  0  0  0  0  0  0  0  0  0
    2.6936   -1.1919   -0.5895 N   0  0  0  0  0  0  0  0  0  0  0  0
    1.4293   -1.6373   -0.2394 C   0  0  0  0  0  0  0  0  0  0  0  0
    1.1601   -2.8261   -0.1077 O   0  0  0  0  0  0  0  0  0  0  0  0
    0.4448   -0.4982   -0.0213 C   0  0  0  0  0  0  0  0  0  0  0  0
   -1.0052   -0.9152   -0.0127 C   0  0  0  0  0  0  0  0  0  0  0  0
   -1.6614   -1.1862    1.1956 C   0  0  0  0  0  0  0  0  0  0  0  0
   -3.0060   -1.5670    1.1996 C   0  0  0  0  0  0  0  0  0  0  0  0
   -3.7167   -1.6750    0.0023 C   0  0  0  0  0  0  0  0  0  0  0  0
   -5.0584   -2.0775    0.0079 N   0  0  0  0  0  0  0  0  0  0  0  0
   -6.0012   -1.2000    0.0972 C   0  0  0  0  0  0  0  0  0  0  0  0
   -7.3244   -1.5438    0.0879 N   0  0  0  0  0  0  0  0  0  0  0  0
   -8.2609   -0.4745   -0.1935 C   0  0  0  0  0  0  0  0  0  0  0  0
   -8.4421   -0.2643   -1.6891 C   0  0  0  0  0  0  0  0  0  0  0  0
   -8.9554    1.4273   -1.8124 S   0  0  0  0  0  6  0  0  0  0  0  0
   -8.3162    2.0323   -2.9602 O   0  0  0  0  0  0  0  0  0  0  0  0
  -10.3918    1.4628   -1.6209 O   0  0  0  0  0  0  0  0  0  0  0  0
   -8.1869    2.0208   -0.3190 C   0  0  0  0  0  0  0  0  0  0  0  0
   -7.6333    0.8004    0.3951 C   0  0  0  0  0  0  0  0  0  0  0  0
   -5.8290    0.5541    0.1839 S   0  0  0  0  0  0  0  0  0  0  0  0
   -3.0557   -1.4378   -1.2047 C   0  0  0  0  0  0  0  0  0  0  0  0
   -1.7112   -1.0566   -1.2150 C   0  0  0  0  0  0  0  0  0  0  0  0
    6.2686   -0.4748    0.5357 C   0  0  0  0  0  0  0  0  0  0  0  0
    6.7927    0.6418    1.1983 C   0  0  0  0  0  0  0  0  0  0  0  0
    9.3992    1.8095    1.9887 H   0  0  0  0  0  0  0  0  0  0  0  0
    9.6438    2.8557    3.4032 H   0  0  0  0  0  0  0  0  0  0  0  0
    9.6834    3.5285    1.7568 H   0  0  0  0  0  0  0  0  0  0  0  0
    7.1815    2.3871    3.1634 H   0  0  0  0  0  0  0  0  0  0  0  0
    7.5522    4.0744    2.8950 H   0  0  0  0  0  0  0  0  0  0  0  0
    5.9098    3.0423   -1.0273 H   0  0  0  0  0  0  0  0  0  0  0  0
    4.9813    1.0870   -2.2014 H   0  0  0  0  0  0  0  0  0  0  0  0
    4.7392   -1.2684   -2.4185 H   0  0  0  0  0  0  0  0  0  0  0  0
    5.7997   -2.3038   -1.4782 H   0  0  0  0  0  0  0  0  0  0  0  0
    3.4634   -3.0233   -1.2015 H   0  0  0  0  0  0  0  0  0  0  0  0
    4.0526   -2.4263    0.3532 H   0  0  0  0  0  0  0  0  0  0  0  0
    2.9204   -0.2286   -0.3692 H   0  0  0  0  0  0  0  0  0  0  0  0
    0.6980   -0.0127    0.9298 H   0  0  0  0  0  0  0  0  0  0  0  0
    0.5908    0.2560   -0.8055 H   0  0  0  0  0  0  0  0  0  0  0  0
   -1.1301   -1.1125    2.1417 H   0  0  0  0  0  0  0  0  0  0  0  0
   -3.5034   -1.7848    2.1404 H   0  0  0  0  0  0  0  0  0  0  0  0
   -7.5155   -2.4895   -0.2264 H   0  0  0  0  0  0  0  0  0  0  0  0
   -9.2286   -0.6724    0.2821 H   0  0  0  0  0  0  0  0  0  0  0  0
   -9.2102   -0.9159   -2.1133 H   0  0  0  0  0  0  0  0  0  0  0  0
   -7.5160   -0.3832   -2.2600 H   0  0  0  0  0  0  0  0  0  0  0  0
   -7.4336    2.7732   -0.5666 H   0  0  0  0  0  0  0  0  0  0  0  0
   -8.9772    2.4893    0.2768 H   0  0  0  0  0  0  0  0  0  0  0  0
   -7.8082    0.8658    1.4748 H   0  0  0  0  0  0  0  0  0  0  0  0
   -3.5909   -1.5537   -2.1424 H   0  0  0  0  0  0  0  0  0  0  0  0
   -1.2190   -0.8797   -2.1685 H   0  0  0  0  0  0  0  0  0  0  0  0
    6.3879   -1.4586    0.9862 H   0  0  0  0  0  0  0  0  0  0  0  0
    7.3060    0.4757    2.1390 H   0  0  0  0  0  0  0  0  0  0  0  0
  1  2  1  0
  2  3  1  0
  3  4  1  0
  4  5  2  0
  5  6  1  0
  6  7  2  0
  7  8  1  0
  8  9  1  0
  9 10  1  0
 10 11  1  0
 11 12  2  0
 11 13  1  0
 13 14  1  0
 14 15  2  0
 15 16  1  0
 16 17  2  0
 17 18  1  0
 18 19  2  3
 19 20  1  0
 20 21  1  0
 21 22  1  0
 22 23  1  0
 23 24  2  0
 23 25  2  0
 23 26  1  0
 26 27  1  0
 27 28  1  0
 17 29  1  0
 29 30  2  0
  7 31  1  0
 31 32  2  0
 32  4  1  0
 30 14  1  0
 28 19  1  0
 27 21  1  0
  1 33  1  0
  1 34  1  0
  1 35  1  0
  2 36  1  0
  2 37  1  0
  5 38  1  0
  6 39  1  0
  8 40  1  0
  8 41  1  0
  9 42  1  0
  9 43  1  0
 10 44  1  0
 13 45  1  0
 13 46  1  0
 15 47  1  0
 16 48  1  0
 20 49  1  0
 21 50  1  0
 22 51  1  0
 22 52  1  0
 26 53  1  0
 26 54  1  0
 27 55  1  0
 29 56  1  0
 30 57  1  0
 31 58  1  0
 32 59  1  0
M  END
$$$$
