
     RDKit          3D

 56 59  0  0  0  0  0  0  0  0999 V2000
   -0.7062   -0.0119    3.5352 O   0  0  0  0  0  0  0  0  0  0  0  0
   -0.2136   -0.1295    2.1922 C   0  0  0  0  0  0  0  0  0  0  0  0
   -1.1022   -1.1195    1.4252 C   0  0  0  0  0  0  0  0  0  0  0  0
   -2.4727   -0.6835    1.4625 O   0  0  0  0  0  0  0  0  0  0  0  0
   -2.7898    0.2361    0.4072 C   0  0  0  0  0  0  0  0  0  0  0  0
   -4.2944    0.5308    0.4187 C   0  0  0  0  0  0  0  0  0  0  0  0
   -4.6110    1.7040   -0.5038 C   0  0  0  0  0  0  0  0  0  0  0  0
   -6.0051    2.0319   -0.4587 O   0  0  0  0  0  0  0  0  0  0  0  0
   -6.7819    0.9094   -0.5609 C   0  0  0  0  0  0  0  0  0  0  0  0
   -8.1291    1.1048   -0.8620 C   0  0  0  0  0  0  0  0  0  0  0  0
   -8.9744    0.0050   -1.0077 C   0  0  0  0  0  0  0  0  0  0  0  0
   -8.4757   -1.2886   -0.8397 C   0  0  0  0  0  0  0  0  0  0  0  0
   -7.1319   -1.4823   -0.5187 C   0  0  0  0  0  0  0  0  0  0  0  0
   -6.2871   -0.3828   -0.3680 C   0  0  0  0  0  0  0  0  0  0  0  0
   -4.9834   -0.6473   -0.0379 O   0  0  0  0  0  0  0  0  0  0  0  0
    1.2580   -0.5853    2.2391 C   0  0  0  0  0  0  0  0  0  0  0  0
    1.8763   -0.7189    0.9106 N   0  0  0  0  0  0  0  0  0  0  0  0
    3.0642   -1.5992    0.9763 C   0  0  0  0  0  0  0  0  0  0  0  0
    4.0074   -1.4596   -0.2408 C   0  0  0  0  0  0  0  0  0  0  0  0
    4.5348   -0.0841   -0.3360 N   0  0  0  0  0  0  0  0  0  0  0  0
    5.7383    0.1870   -0.9658 C   0  0  0  0  0  0  0  0  0  0  0  0
    6.3079   -0.7051   -1.8910 C   0  0  0  0  0  0  0  0  0  0  0  0
    7.5229   -0.4368   -2.5350 C   0  0  0  0  0  0  0  0  0  0  0  0
    8.2086    0.7408   -2.2646 C   0  0  0  0  0  0  0  0  0  0  0  0
    7.6753    1.6453   -1.3539 C   0  0  0  0  0  0  0  0  0  0  0  0
    6.4592    1.3679   -0.7157 C   0  0  0  0  0  0  0  0  0  0  0  0
    3.7219    0.9723    0.2836 C   0  0  0  0  0  0  0  0  0  0  0  0
    2.2188    0.5882    0.2985 C   0  0  0  0  0  0  0  0  0  0  0  0
   -1.6800   -0.0592    3.4627 H   0  0  0  0  0  0  0  0  0  0  0  0
   -0.2952    0.8697    1.7555 H   0  0  0  0  0  0  0  0  0  0  0  0
   -0.7729   -1.2698    0.3923 H   0  0  0  0  0  0  0  0  0  0  0  0
   -1.0839   -2.0915    1.9296 H   0  0  0  0  0  0  0  0  0  0  0  0
   -2.2216    1.1605    0.5617 H   0  0  0  0  0  0  0  0  0  0  0  0
   -2.5064   -0.2118   -0.5557 H   0  0  0  0  0  0  0  0  0  0  0  0
   -4.6302    0.7309    1.4438 H   0  0  0  0  0  0  0  0  0  0  0  0
   -4.0586    2.5973   -0.1915 H   0  0  0  0  0  0  0  0  0  0  0  0
   -4.3405    1.4862   -1.5457 H   0  0  0  0  0  0  0  0  0  0  0  0
   -8.5133    2.1119   -0.9983 H   0  0  0  0  0  0  0  0  0  0  0  0
  -10.0218    0.1565   -1.2503 H   0  0  0  0  0  0  0  0  0  0  0  0
   -9.1336   -2.1461   -0.9566 H   0  0  0  0  0  0  0  0  0  0  0  0
   -6.7441   -2.4872   -0.3748 H   0  0  0  0  0  0  0  0  0  0  0  0
    1.8396    0.0947    2.8759 H   0  0  0  0  0  0  0  0  0  0  0  0
    1.2796   -1.5526    2.7595 H   0  0  0  0  0  0  0  0  0  0  0  0
    2.7257   -2.6411    1.0432 H   0  0  0  0  0  0  0  0  0  0  0  0
    3.6458   -1.3847    1.8847 H   0  0  0  0  0  0  0  0  0  0  0  0
    3.4717   -1.7135   -1.1682 H   0  0  0  0  0  0  0  0  0  0  0  0
    4.8226   -2.1834   -0.1043 H   0  0  0  0  0  0  0  0  0  0  0  0
    5.7969   -1.6283   -2.1543 H   0  0  0  0  0  0  0  0  0  0  0  0
    7.9256   -1.1511   -3.2486 H   0  0  0  0  0  0  0  0  0  0  0  0
    9.1501    0.9516   -2.7631 H   0  0  0  0  0  0  0  0  0  0  0  0
    8.2042    2.5685   -1.1283 H   0  0  0  0  0  0  0  0  0  0  0  0
    6.0939    2.0962    0.0038 H   0  0  0  0  0  0  0  0  0  0  0  0
    4.0718    1.1535    1.3073 H   0  0  0  0  0  0  0  0  0  0  0  0
    3.8097    1.9094   -0.2783 H   0  0  0  0  0  0  0  0  0  0  0  0
    1.8795    0.5341   -0.7461 H   0  0  0  0  0  0  0  0  0  0  0  0
    1.6502    1.4104    0.7496 H   0  0  0  0  0  0  0  0  0  0  0  0
  1  2  1  0
  2  3  1  0
  3  4  1  0
  4  5  1  0
  5  6  1  0
  6  7  1  0
  7  8  1  0
  8  9  1  0
  9 10  2  0
 10 11  1  0
 11 12  2  0
 12 13  1  0
 13 14  2  0
 14 15  1  0
  2 16  1  0
 16 17  1  0
 17 18  1  0
 18 19  1  0
 19 20  1  0
 20 21  1  0
 21 22  2  0
 22 23  1  0
 23 24  2  0
 24 25  1  0
 25 26  2  0
 20 27  1  0
 27 28  1  0
 15  6  1  0
 28 17  1  0
 14  9  1  0
 26 21  1  0
  1 29  1  0
  2 30  1  0
  3 31  1  0
  3 32  1  0
  5 33  1  0
  5 34  1  0
  6 35  1  0
  7 36  1  0
  7 37  1  0
 10 38  1  0
 11 39  1  0
 12 40  1  0
 13 41  1  0
 16 42  1  0
 16 43  1  0
 18 44  1  0
 18 45  1  0
 19 46  1  0
 19 47  1  0
 22 48  1  0
 23 49  1  0
 24 50  1  0
 25 51  1  0
 26 52  1  0
 27 53  1  0
 27 54  1  0
 28 55  1  0
 28 56  1  0
M  END
$$$$
