
     RDKit          3D

 45 48  0  0  0  0  0  0  0  0999 V2000
    2.7645    2.3162   -5.4168 O   0  0  0  0  0  0  0  0  0  0  0  0
    1.9902    1.3899   -5.2604 C   0  0  0  0  0  0  0  0  0  0  0  0
    1.8730    0.4081   -6.1660 O   0  0  0  0  0  0  0  0  0  0  0  0
    1.1194    1.2288   -4.0902 C   0  0  0  0  0  0  0  0  0  0  0  0
    0.2793    0.1955   -3.9219 C   0  0  0  0  0  0  0  0  0  0  0  0
   -0.5918    0.0529   -2.8065 C   0  0  0  0  0  0  0  0  0  0  0  0
   -1.9604   -0.0169   -2.9345 C   0  0  0  0  0  0  0  0  0  0  0  0
   -2.4817   -0.0965   -1.6621 N   0  0  0  0  0  0  0  0  0  0  0  0
   -3.8513   -0.1700   -1.2788 C   0  0  0  0  0  0  0  0  0  0  0  0
   -4.8775   -0.1707   -2.2342 C   0  0  0  0  0  0  0  0  0  0  0  0
   -6.2131   -0.2439   -1.8265 C   0  0  0  0  0  0  0  0  0  0  0  0
   -6.5322   -0.3165   -0.4716 C   0  0  0  0  0  0  0  0  0  0  0  0
   -5.5178   -0.3165    0.4830 C   0  0  0  0  0  0  0  0  0  0  0  0
   -4.1816   -0.2436    0.0839 C   0  0  0  0  0  0  0  0  0  0  0  0
   -1.4999   -0.0966   -0.7295 N   0  0  0  0  0  0  0  0  0  0  0  0
   -0.3517   -0.0415   -1.4160 C   0  0  0  0  0  0  0  0  0  0  0  0
    1.0136   -0.1064   -0.6386 C   0  0  0  0  0  0  0  0  0  0  0  0
    2.2915   -0.1692   -1.1566 C   0  0  0  0  0  0  0  0  0  0  0  0
    3.1838   -0.2168   -0.0542 C   0  0  0  0  0  0  0  0  0  0  0  0
    2.4073   -0.1917    1.0856 C   0  0  0  0  0  0  0  0  0  0  0  0
    2.6845   -0.2189    2.5203 C   0  0  0  0  0  0  0  0  0  0  0  0
    4.0065   -0.2673    2.9923 C   0  0  0  0  0  0  0  0  0  0  0  0
    4.2825   -0.2938    4.3649 C   0  0  0  0  0  0  0  0  0  0  0  0
    3.2262   -0.2718    5.2827 C   0  0  0  0  0  0  0  0  0  0  0  0
    3.5106   -0.2998    6.7227 N   0  0  0  0  0  4  0  0  0  0  0  0
    4.6984   -0.3438    7.0744 O   0  0  0  0  0  0  0  0  0  0  0  0
    2.5476   -0.2781    7.5024 O   0  0  0  0  0  1  0  0  0  0  0  0
    1.9021   -0.2234    4.8360 C   0  0  0  0  0  0  0  0  0  0  0  0
    1.6404   -0.1973    3.4614 C   0  0  0  0  0  0  0  0  0  0  0  0
    1.0923   -0.1321    0.7283 O   0  0  0  0  0  0  0  0  0  0  0  0
    2.5052    0.6619   -6.8709 H   0  0  0  0  0  0  0  0  0  0  0  0
    1.1991    2.0246   -3.3567 H   0  0  0  0  0  0  0  0  0  0  0  0
    0.1956   -0.5610   -4.7007 H   0  0  0  0  0  0  0  0  0  0  0  0
   -2.5885    0.0085   -3.8114 H   0  0  0  0  0  0  0  0  0  0  0  0
   -4.6783   -0.1159   -3.2994 H   0  0  0  0  0  0  0  0  0  0  0  0
   -7.0078   -0.2442   -2.5688 H   0  0  0  0  0  0  0  0  0  0  0  0
   -7.5719   -0.3732   -0.1591 H   0  0  0  0  0  0  0  0  0  0  0  0
   -5.7640   -0.3731    1.5404 H   0  0  0  0  0  0  0  0  0  0  0  0
   -3.4065   -0.2451    0.8488 H   0  0  0  0  0  0  0  0  0  0  0  0
    2.5694   -0.1975   -2.1983 H   0  0  0  0  0  0  0  0  0  0  0  0
    4.2621   -0.2719   -0.0964 H   0  0  0  0  0  0  0  0  0  0  0  0
    4.8427   -0.2846    2.2967 H   0  0  0  0  0  0  0  0  0  0  0  0
    5.3185   -0.3312    4.6955 H   0  0  0  0  0  0  0  0  0  0  0  0
    1.0666   -0.2056    5.5328 H   0  0  0  0  0  0  0  0  0  0  0  0
    0.6033   -0.1600    3.1280 H   0  0  0  0  0  0  0  0  0  0  0  0
  1  2  2  0
  2  3  1  0
  2  4  1  0
  4  5  2  3
  5  6  1  0
  6  7  2  0
  7  8  1  0
  8  9  1  0
  9 10  2  0
 10 11  1  0
 11 12  2  0
 12 13  1  0
 13 14  2  0
  8 15  1  0
 15 16  2  0
 16 17  1  0
 17 18  2  0
 18 19  1  0
 19 20  2  0
 20 21  1  0
 21 22  2  0
 22 23  1  0
 23 24  2  0
 24 25  1  0
 25 26  2  0
 25 27  1  0
 24 28  1  0
 28 29  2  0
 20 30  1  0
 16  6  1  0
 30 17  1  0
 14  9  1  0
 29 21  1  0
  3 31  1  0
  4 32  1  0
  5 33  1  0
  7 34  1  0
 10 35  1  0
 11 36  1  0
 12 37  1  0
 13 38  1  0
 14 39  1  0
 18 40  1  0
 19 41  1  0
 22 42  1  0
 23 43  1  0
 28 44  1  0
 29 45  1  0
M  CHG  2  25   1  27  -1
M  END
$$$$
