
     RDKit          3D

 57 60  0  0  0  0  0  0  0  0999 V2000
    7.5087   -0.5022   -0.6667 C   0  0  0  0  0  0  0  0  0  0  0  0
    7.6015    0.7126    0.2448 C   0  0  0  0  0  0  0  0  0  0  0  0
    6.5942    1.8395   -0.0498 C   0  0  0  0  0  0  0  0  0  0  0  0
    6.6988    2.3674   -1.4776 C   0  0  0  0  0  0  0  0  0  0  0  0
    5.2283    1.4231    0.2395 N   0  0  0  0  0  0  0  0  0  0  0  0
    4.2572    2.3190    0.6353 C   0  0  0  0  0  0  0  0  0  0  0  0
    4.4806    3.5001    0.8642 O   0  0  0  0  0  0  0  0  0  0  0  0
    2.8883    1.7660    0.8228 C   0  0  0  0  0  0  0  0  0  0  0  0
    2.0721    2.3312    1.8054 C   0  0  0  0  0  0  0  0  0  0  0  0
    0.7889    1.8258    2.0329 C   0  0  0  0  0  0  0  0  0  0  0  0
    0.3010    0.7556    1.2729 C   0  0  0  0  0  0  0  0  0  0  0  0
   -1.0785    0.1970    1.5223 C   0  0  0  0  0  0  0  0  0  0  0  0
   -2.3504    1.0005    0.5088 S   0  0  0  0  0  0  0  0  0  0  0  0
   -2.6784   -0.2492   -0.6465 C   0  0  0  0  0  0  0  0  0  0  0  0
   -1.7712   -1.0343   -1.1788 N   0  0  0  0  0  0  0  0  0  0  0  0
   -2.4584   -1.8522   -2.0394 C   0  0  0  0  0  0  0  0  0  0  0  0
   -1.9810   -2.8676   -2.8652 C   0  0  0  0  0  0  0  0  0  0  0  0
   -2.9370   -3.5262   -3.6236 C   0  0  0  0  0  0  0  0  0  0  0  0
   -4.2610   -3.2515   -3.6086 N   0  0  0  0  0  0  0  0  0  0  0  0
   -4.7218   -2.2611   -2.8128 C   0  0  0  0  0  0  0  0  0  0  0  0
   -3.8183   -1.5608   -2.0243 C   0  0  0  0  0  0  0  0  0  0  0  0
   -3.9394   -0.5323   -1.1122 N   0  0  0  0  0  0  0  0  0  0  0  0
   -5.1854    0.1249   -0.7413 C   0  0  0  0  0  0  0  0  0  0  0  0
   -5.7025   -0.3457    0.5982 C   0  0  0  0  0  0  0  0  0  0  0  0
   -5.8906    0.5707    1.6456 C   0  0  0  0  0  0  0  0  0  0  0  0
   -6.3516    0.1451    2.8935 C   0  0  0  0  0  0  0  0  0  0  0  0
   -6.6360   -1.1962    3.0969 C   0  0  0  0  0  0  0  0  0  0  0  0
   -7.0656   -1.6055    4.2994 F   0  0  0  0  0  0  0  0  0  0  0  0
   -6.4757   -2.1191    2.0723 C   0  0  0  0  0  0  0  0  0  0  0  0
   -6.0160   -1.6947    0.8223 C   0  0  0  0  0  0  0  0  0  0  0  0
    1.1112    0.2202    0.2616 C   0  0  0  0  0  0  0  0  0  0  0  0
    2.3967    0.7215    0.0338 C   0  0  0  0  0  0  0  0  0  0  0  0
    6.5150   -0.9593   -0.6389 H   0  0  0  0  0  0  0  0  0  0  0  0
    8.2335   -1.2590   -0.3500 H   0  0  0  0  0  0  0  0  0  0  0  0
    7.7420   -0.2431   -1.7021 H   0  0  0  0  0  0  0  0  0  0  0  0
    8.6173    1.1151    0.1680 H   0  0  0  0  0  0  0  0  0  0  0  0
    7.4734    0.3818    1.2815 H   0  0  0  0  0  0  0  0  0  0  0  0
    6.8320    2.6674    0.6290 H   0  0  0  0  0  0  0  0  0  0  0  0
    7.7232    2.6692   -1.7039 H   0  0  0  0  0  0  0  0  0  0  0  0
    6.3884    1.6185   -2.2128 H   0  0  0  0  0  0  0  0  0  0  0  0
    6.0514    3.2393   -1.6205 H   0  0  0  0  0  0  0  0  0  0  0  0
    4.9790    0.4538    0.1053 H   0  0  0  0  0  0  0  0  0  0  0  0
    2.4369    3.1610    2.4023 H   0  0  0  0  0  0  0  0  0  0  0  0
    0.1719    2.2765    2.8087 H   0  0  0  0  0  0  0  0  0  0  0  0
   -1.0796   -0.8924    1.3842 H   0  0  0  0  0  0  0  0  0  0  0  0
   -1.3459    0.3558    2.5758 H   0  0  0  0  0  0  0  0  0  0  0  0
   -0.9317   -3.1206   -2.9117 H   0  0  0  0  0  0  0  0  0  0  0  0
   -2.6507   -4.3305   -4.2949 H   0  0  0  0  0  0  0  0  0  0  0  0
   -5.7909   -2.0760   -2.8357 H   0  0  0  0  0  0  0  0  0  0  0  0
   -5.9327   -0.0780   -1.5136 H   0  0  0  0  0  0  0  0  0  0  0  0
   -5.0066    1.2052   -0.7538 H   0  0  0  0  0  0  0  0  0  0  0  0
   -5.6677    1.6233    1.5055 H   0  0  0  0  0  0  0  0  0  0  0  0
   -6.4865    0.8501    3.7065 H   0  0  0  0  0  0  0  0  0  0  0  0
   -6.7062   -3.1641    2.2527 H   0  0  0  0  0  0  0  0  0  0  0  0
   -5.8951   -2.4332    0.0332 H   0  0  0  0  0  0  0  0  0  0  0  0
    0.7364   -0.5877   -0.3646 H   0  0  0  0  0  0  0  0  0  0  0  0
    2.9850    0.3053   -0.7761 H   0  0  0  0  0  0  0  0  0  0  0  0
  1  2  1  0
  2  3  1  0
  3  4  1  0
  3  5  1  0
  5  6  1  0
  6  7  2  0
  6  8  1  0
  8  9  2  0
  9 10  1  0
 10 11  2  0
 11 12  1  0
 12 13  1  0
 13 14  1  0
 14 15  2  0
 15 16  1  0
 16 17  2  0
 17 18  1  0
 18 19  2  0
 19 20  1  0
 20 21  2  0
 21 22  1  0
 22 23  1  0
 23 24  1  0
 24 25  2  0
 25 26  1  0
 26 27  2  0
 27 28  1  0
 27 29  1  0
 29 30  2  0
 11 31  1  0
 31 32  2  0
 32  8  1  0
 22 14  1  0
 30 24  1  0
 21 16  1  0
  1 33  1  0
  1 34  1  0
  1 35  1  0
  2 36  1  0
  2 37  1  0
  3 38  1  0
  4 39  1  0
  4 40  1  0
  4 41  1  0
  5 42  1  0
  9 43  1  0
 10 44  1  0
 12 45  1  0
 12 46  1  0
 17 47  1  0
 18 48  1  0
 20 49  1  0
 23 50  1  0
 23 51  1  0
 25 52  1  0
 26 53  1  0
 29 54  1  0
 30 55  1  0
 31 56  1  0
 32 57  1  0
M  END
$$$$
