
     RDKit          3D

 52 54  0  0  0  0  0  0  0  0999 V2000
    3.1705   -0.3161   -1.0984 O   0  0  0  0  0  0  0  0  0  0  0  0
    2.0543   -0.5896   -0.6767 C   0  0  0  0  0  0  0  0  0  0  0  0
    1.5431   -1.8415   -0.3988 N   0  0  0  0  0  0  0  0  0  0  0  0
    2.1874   -3.0861   -0.5220 C   0  0  0  0  0  0  0  0  0  0  0  0
    1.4845   -4.2184   -0.0819 C   0  0  0  0  0  0  0  0  0  0  0  0
    2.0593   -5.4910   -0.1560 C   0  0  0  0  0  0  0  0  0  0  0  0
    3.3404   -5.6436   -0.6786 C   0  0  0  0  0  0  0  0  0  0  0  0
    4.0422   -4.5247   -1.1289 C   0  0  0  0  0  0  0  0  0  0  0  0
    3.4694   -3.2498   -1.0503 C   0  0  0  0  0  0  0  0  0  0  0  0
    1.0397    0.4881   -0.3790 C   0  0  0  0  0  0  0  0  0  0  0  0
    1.4277    1.7732   -0.4184 C   0  0  0  0  0  0  0  0  0  0  0  0
    0.5069    2.9032   -0.0526 C   0  0  0  0  0  0  0  0  0  0  0  0
    1.1678    3.9731    0.8000 C   0  0  0  0  0  0  0  0  0  0  0  0
    1.0130    5.3279    0.4576 C   0  0  0  0  0  0  0  0  0  0  0  0
    1.6066    6.3298    1.2302 C   0  0  0  0  0  0  0  0  0  0  0  0
    2.3490    5.9879    2.3544 C   0  0  0  0  0  0  0  0  0  0  0  0
    3.1506    7.3460    3.3978 Br  0  0  0  0  0  0  0  0  0  0  0  0
    2.5040    4.6524    2.7184 C   0  0  0  0  0  0  0  0  0  0  0  0
    1.9128    3.6492    1.9450 C   0  0  0  0  0  0  0  0  0  0  0  0
   -0.7544    2.3664    0.6268 C   0  0  0  0  0  0  0  0  0  0  0  0
   -1.2306    1.1265   -0.1260 C   0  0  0  0  0  0  0  0  0  0  0  0
   -2.4509    0.7003    0.4905 O   0  0  0  0  0  0  0  0  0  0  0  0
   -3.2835   -0.0948   -0.3589 C   0  0  0  0  0  0  0  0  0  0  0  0
   -2.9626   -1.5802   -0.2219 C   0  0  0  0  0  0  0  0  0  0  0  0
   -3.6946   -2.4847   -1.2208 C   0  0  0  0  0  0  0  0  0  0  0  0
   -5.2148   -2.3932   -1.1572 C   0  0  0  0  0  0  0  0  0  0  0  0
   -5.6677   -1.1865   -1.7506 O   0  0  0  0  0  0  0  0  0  0  0  0
   -0.2487    0.0855   -0.0655 O   0  0  0  0  0  0  0  0  0  0  0  0
    0.5991   -1.8477   -0.0300 H   0  0  0  0  0  0  0  0  0  0  0  0
    0.4860   -4.1240    0.3375 H   0  0  0  0  0  0  0  0  0  0  0  0
    1.5102   -6.3614    0.2030 H   0  0  0  0  0  0  0  0  0  0  0  0
    3.7922   -6.6316   -0.7353 H   0  0  0  0  0  0  0  0  0  0  0  0
    5.0395   -4.6391   -1.5420 H   0  0  0  0  0  0  0  0  0  0  0  0
    4.0494   -2.4041   -1.4164 H   0  0  0  0  0  0  0  0  0  0  0  0
    2.4510    2.0278   -0.6976 H   0  0  0  0  0  0  0  0  0  0  0  0
    0.2127    3.3646   -1.0069 H   0  0  0  0  0  0  0  0  0  0  0  0
    0.4259    5.6125   -0.4145 H   0  0  0  0  0  0  0  0  0  0  0  0
    1.4754    7.3709    0.9451 H   0  0  0  0  0  0  0  0  0  0  0  0
    3.0795    4.3808    3.5997 H   0  0  0  0  0  0  0  0  0  0  0  0
    2.0432    2.6104    2.2477 H   0  0  0  0  0  0  0  0  0  0  0  0
   -0.5590    2.1004    1.6752 H   0  0  0  0  0  0  0  0  0  0  0  0
   -1.5408    3.1314    0.6493 H   0  0  0  0  0  0  0  0  0  0  0  0
   -1.4199    1.3854   -1.1783 H   0  0  0  0  0  0  0  0  0  0  0  0
   -4.3084    0.0873   -0.0210 H   0  0  0  0  0  0  0  0  0  0  0  0
   -3.2203    0.2427   -1.3996 H   0  0  0  0  0  0  0  0  0  0  0  0
   -3.1928   -1.8965    0.8033 H   0  0  0  0  0  0  0  0  0  0  0  0
   -1.8882   -1.7468   -0.3395 H   0  0  0  0  0  0  0  0  0  0  0  0
   -3.3507   -2.2455   -2.2314 H   0  0  0  0  0  0  0  0  0  0  0  0
   -3.4012   -3.5181   -1.0134 H   0  0  0  0  0  0  0  0  0  0  0  0
   -5.6707   -3.2275   -1.6949 H   0  0  0  0  0  0  0  0  0  0  0  0
   -5.5708   -2.4203   -0.1206 H   0  0  0  0  0  0  0  0  0  0  0  0
   -5.5627   -1.2610   -2.7107 H   0  0  0  0  0  0  0  0  0  0  0  0
  1  2  2  0
  2  3  1  0
  3  4  1  0
  4  5  2  0
  5  6  1  0
  6  7  2  0
  7  8  1  0
  8  9  2  0
  2 10  1  0
 10 11  2  0
 11 12  1  0
 12 13  1  0
 13 14  2  0
 14 15  1  0
 15 16  2  0
 16 17  1  0
 16 18  1  0
 18 19  2  0
 12 20  1  0
 20 21  1  0
 21 22  1  0
 22 23  1  0
 23 24  1  0
 24 25  1  0
 25 26  1  0
 26 27  1  0
 21 28  1  0
  9  4  1  0
 28 10  1  0
 19 13  1  0
  3 29  1  0
  5 30  1  0
  6 31  1  0
  7 32  1  0
  8 33  1  0
  9 34  1  0
 11 35  1  0
 12 36  1  0
 14 37  1  0
 15 38  1  0
 18 39  1  0
 19 40  1  0
 20 41  1  0
 20 42  1  0
 21 43  1  0
 23 44  1  0
 23 45  1  0
 24 46  1  0
 24 47  1  0
 25 48  1  0
 25 49  1  0
 26 50  1  0
 26 51  1  0
 27 52  1  0
M  END
$$$$
