
     RDKit          3D

 38 40  0  0  0  0  0  0  0  0999 V2000
   -2.4962    2.7301    0.3266 C   0  0  0  0  0  0  0  0  0  0  0  0
   -3.2814    1.4883    0.0652 C   0  0  0  0  0  0  0  0  0  0  0  0
   -4.6583    1.3742    0.0470 C   0  0  0  0  0  0  0  0  0  0  0  0
   -4.9767    0.0171   -0.1182 C   0  0  0  0  0  0  0  0  0  0  0  0
   -3.7926   -0.6871   -0.2244 C   0  0  0  0  0  0  0  0  0  0  0  0
   -3.6470   -2.1432   -0.5138 C   0  0  0  0  0  0  0  0  0  0  0  0
   -2.7345    0.2158   -0.1098 N   0  0  0  0  0  0  0  0  0  0  0  0
   -1.3504   -0.1026   -0.1587 C   0  0  0  0  0  0  0  0  0  0  0  0
   -0.8361   -1.2173    0.4941 C   0  0  0  0  0  0  0  0  0  0  0  0
    0.5326   -1.4803    0.4139 C   0  0  0  0  0  0  0  0  0  0  0  0
    1.3703   -0.6315   -0.3133 C   0  0  0  0  0  0  0  0  0  0  0  0
    2.7495   -0.9123   -0.3724 N   0  0  0  0  0  0  0  0  0  0  0  0
    3.3755   -0.8260    0.9703 C   0  0  0  0  0  0  0  0  0  0  0  0
    4.8738   -0.5045    0.8527 C   0  0  0  0  0  0  0  0  0  0  0  0
    5.1319    0.7553    0.2120 O   0  0  0  0  0  0  0  0  0  0  0  0
    4.1619    1.0837   -0.8014 C   0  0  0  0  0  0  0  0  0  0  0  0
    3.4834   -0.1513   -1.4102 C   0  0  0  0  0  0  0  0  0  0  0  0
    0.8703    0.4450   -0.9561 N   0  0  0  0  0  0  0  0  0  0  0  0
   -0.4618    0.6874   -0.8701 C   0  0  0  0  0  0  0  0  0  0  0  0
   -1.6371    2.5393    0.9766 H   0  0  0  0  0  0  0  0  0  0  0  0
   -2.1523    3.1759   -0.6112 H   0  0  0  0  0  0  0  0  0  0  0  0
   -3.1198    3.4753    0.8331 H   0  0  0  0  0  0  0  0  0  0  0  0
   -5.3587    2.1915    0.1673 H   0  0  0  0  0  0  0  0  0  0  0  0
   -5.9700   -0.4102   -0.1789 H   0  0  0  0  0  0  0  0  0  0  0  0
   -2.8387   -2.3385   -1.2249 H   0  0  0  0  0  0  0  0  0  0  0  0
   -3.4672   -2.7056    0.4070 H   0  0  0  0  0  0  0  0  0  0  0  0
   -4.5668   -2.5362   -0.9616 H   0  0  0  0  0  0  0  0  0  0  0  0
   -1.4599   -1.8676    1.0979 H   0  0  0  0  0  0  0  0  0  0  0  0
    0.9405   -2.3539    0.9117 H   0  0  0  0  0  0  0  0  0  0  0  0
    2.9033   -0.0326    1.5659 H   0  0  0  0  0  0  0  0  0  0  0  0
    3.2501   -1.7788    1.4966 H   0  0  0  0  0  0  0  0  0  0  0  0
    5.3289   -0.4641    1.8475 H   0  0  0  0  0  0  0  0  0  0  0  0
    5.3956   -1.2854    0.2872 H   0  0  0  0  0  0  0  0  0  0  0  0
    4.6861    1.6480   -1.5791 H   0  0  0  0  0  0  0  0  0  0  0  0
    3.4235    1.7548   -0.3485 H   0  0  0  0  0  0  0  0  0  0  0  0
    2.8575    0.1218   -2.2677 H   0  0  0  0  0  0  0  0  0  0  0  0
    4.2580   -0.8187   -1.8093 H   0  0  0  0  0  0  0  0  0  0  0  0
   -0.7871    1.5441   -1.4516 H   0  0  0  0  0  0  0  0  0  0  0  0
  1  2  1  0
  2  3  2  0
  3  4  1  0
  4  5  2  0
  5  6  1  0
  5  7  1  0
  7  8  1  0
  8  9  2  0
  9 10  1  0
 10 11  2  0
 11 12  1  0
 12 13  1  0
 13 14  1  0
 14 15  1  0
 15 16  1  0
 16 17  1  0
 11 18  1  0
 18 19  2  0
  7  2  1  0
 19  8  1  0
 17 12  1  0
  1 20  1  0
  1 21  1  0
  1 22  1  0
  3 23  1  0
  4 24  1  0
  6 25  1  0
  6 26  1  0
  6 27  1  0
  9 28  1  0
 10 29  1  0
 13 30  1  0
 13 31  1  0
 14 32  1  0
 14 33  1  0
 16 34  1  0
 16 35  1  0
 17 36  1  0
 17 37  1  0
 19 38  1  0
M  END
$$$$
