
     RDKit          3D

 40 42  0  0  0  0  0  0  0  0999 V2000
    3.6699    2.6198    0.0895 C   0  0  0  0  0  0  0  0  0  0  0  0
    3.1895    1.1986    0.0421 C   0  0  0  0  0  0  0  0  0  0  0  0
    2.5229    0.7170   -1.0929 C   0  0  0  0  0  0  0  0  0  0  0  0
    2.1029   -0.6123   -1.1567 C   0  0  0  0  0  0  0  0  0  0  0  0
    2.3442   -1.4622   -0.0747 C   0  0  0  0  0  0  0  0  0  0  0  0
    1.8044   -3.1559   -0.1395 S   0  0  0  0  0  6  0  0  0  0  0  0
    2.6959   -3.9275    0.7010 O   0  0  0  0  0  0  0  0  0  0  0  0
    1.5785   -3.5110   -1.5244 O   0  0  0  0  0  0  0  0  0  0  0  0
    0.3066   -3.1227    0.6677 N   0  0  0  0  0  0  0  0  0  0  0  0
   -0.6500   -2.1160    0.2073 C   0  0  0  0  0  0  0  0  0  0  0  0
   -1.0134   -0.9935    0.9071 C   0  0  0  0  0  0  0  0  0  0  0  0
   -1.9084   -0.2855    0.0548 C   0  0  0  0  0  0  0  0  0  0  0  0
   -2.5578    1.0082    0.2981 C   0  0  0  0  0  0  0  0  0  0  0  0
   -3.6348    1.4233   -0.5007 C   0  0  0  0  0  0  0  0  0  0  0  0
   -4.2628    2.6515   -0.2771 C   0  0  0  0  0  0  0  0  0  0  0  0
   -3.8201    3.4837    0.7477 C   0  0  0  0  0  0  0  0  0  0  0  0
   -2.7491    3.0899    1.5468 C   0  0  0  0  0  0  0  0  0  0  0  0
   -2.1207    1.8604    1.3235 C   0  0  0  0  0  0  0  0  0  0  0  0
   -2.1134   -0.9731   -1.0828 N   0  0  0  0  0  0  0  0  0  0  0  0
   -1.3657   -2.0857   -0.9557 N   0  0  0  0  0  0  0  0  0  0  0  0
   -1.4262   -3.0924   -1.9872 C   0  0  0  0  0  0  0  0  0  0  0  0
    3.0377   -1.0056    1.0495 C   0  0  0  0  0  0  0  0  0  0  0  0
    3.4592    0.3240    1.1037 C   0  0  0  0  0  0  0  0  0  0  0  0
    3.6947    2.9893    1.1200 H   0  0  0  0  0  0  0  0  0  0  0  0
    2.9999    3.2771   -0.4746 H   0  0  0  0  0  0  0  0  0  0  0  0
    4.6757    2.6890   -0.3360 H   0  0  0  0  0  0  0  0  0  0  0  0
    2.3263    1.3768   -1.9361 H   0  0  0  0  0  0  0  0  0  0  0  0
    1.5832   -0.9682   -2.0435 H   0  0  0  0  0  0  0  0  0  0  0  0
    0.4449   -3.2040    1.6755 H   0  0  0  0  0  0  0  0  0  0  0  0
   -0.6600   -0.6966    1.8829 H   0  0  0  0  0  0  0  0  0  0  0  0
   -3.9937    0.7863   -1.3072 H   0  0  0  0  0  0  0  0  0  0  0  0
   -5.0958    2.9547   -0.9059 H   0  0  0  0  0  0  0  0  0  0  0  0
   -4.3075    4.4395    0.9210 H   0  0  0  0  0  0  0  0  0  0  0  0
   -2.3989    3.7416    2.3433 H   0  0  0  0  0  0  0  0  0  0  0  0
   -1.2803    1.5907    1.9565 H   0  0  0  0  0  0  0  0  0  0  0  0
   -2.4589   -3.1744   -2.3371 H   0  0  0  0  0  0  0  0  0  0  0  0
   -0.7743   -2.7815   -2.8066 H   0  0  0  0  0  0  0  0  0  0  0  0
   -1.1092   -4.0551   -1.5805 H   0  0  0  0  0  0  0  0  0  0  0  0
    3.2599   -1.6734    1.8785 H   0  0  0  0  0  0  0  0  0  0  0  0
    4.0049    0.6752    1.9773 H   0  0  0  0  0  0  0  0  0  0  0  0
  1  2  1  0
  2  3  2  0
  3  4  1  0
  4  5  2  0
  5  6  1  0
  6  7  2  0
  6  8  2  0
  6  9  1  0
  9 10  1  0
 10 11  2  0
 11 12  1  0
 12 13  1  0
 13 14  2  0
 14 15  1  0
 15 16  2  0
 16 17  1  0
 17 18  2  0
 12 19  2  0
 19 20  1  0
 20 21  1  0
  5 22  1  0
 22 23  2  0
 23  2  1  0
 20 10  1  0
 18 13  1  0
  1 24  1  0
  1 25  1  0
  1 26  1  0
  3 27  1  0
  4 28  1  0
  9 29  1  0
 11 30  1  0
 14 31  1  0
 15 32  1  0
 16 33  1  0
 17 34  1  0
 18 35  1  0
 21 36  1  0
 21 37  1  0
 21 38  1  0
 22 39  1  0
 23 40  1  0
M  END
$$$$
