
     RDKit          3D

 40 41  0  0  0  0  0  0  0  0999 V2000
   -4.8943    0.1489   -1.5036 C   0  0  0  0  0  0  0  0  0  0  0  0
   -4.9242   -0.2607   -0.1020 N   0  0  0  0  0  0  0  0  0  0  0  0
   -4.4715   -1.6559    0.0722 C   0  0  0  0  0  0  0  0  0  0  0  0
   -2.9608   -1.8775   -0.1406 C   0  0  0  0  0  0  0  0  0  0  0  0
   -2.1345   -0.9422    0.6295 N   0  0  0  0  0  0  0  0  0  0  0  0
   -0.7812   -1.2819    0.7847 C   0  0  0  0  0  0  0  0  0  0  0  0
   -0.3270   -2.3340    0.3274 O   0  0  0  0  0  0  0  0  0  0  0  0
    0.0901   -0.2589    1.5132 C   0  0  0  0  0  0  0  0  0  0  0  0
    1.6136   -1.0006    2.1982 S   0  0  0  0  0  0  0  0  0  0  0  0
    2.8226   -0.2794    1.0947 C   0  0  0  0  0  0  0  0  0  0  0  0
    3.3060   -1.0902    0.0570 C   0  0  0  0  0  0  0  0  0  0  0  0
    4.2984   -0.6266   -0.8224 C   0  0  0  0  0  0  0  0  0  0  0  0
    4.8388    0.6622   -0.6859 C   0  0  0  0  0  0  0  0  0  0  0  0
    5.9274    1.1498   -1.6186 C   0  0  0  0  0  0  0  0  0  0  0  0
    5.7123    0.7982   -2.9189 F   0  0  0  0  0  0  0  0  0  0  0  0
    6.0485    2.5118   -1.6095 F   0  0  0  0  0  0  0  0  0  0  0  0
    7.1574    0.6583   -1.2868 F   0  0  0  0  0  0  0  0  0  0  0  0
    4.3723    1.4790    0.3571 C   0  0  0  0  0  0  0  0  0  0  0  0
    3.3730    1.0048    1.2253 C   0  0  0  0  0  0  0  0  0  0  0  0
    2.9146    1.9146    2.2605 N   0  0  0  0  0  4  0  0  0  0  0  0
    1.7331    2.2787    2.2076 O   0  0  0  0  0  0  0  0  0  0  0  0
    3.7494    2.2893    3.0935 O   0  0  0  0  0  1  0  0  0  0  0  0
   -2.5824    0.4583    0.6036 C   0  0  0  0  0  0  0  0  0  0  0  0
   -4.1101    0.6230    0.7502 C   0  0  0  0  0  0  0  0  0  0  0  0
   -5.5523   -0.4970   -2.0982 H   0  0  0  0  0  0  0  0  0  0  0  0
   -5.2813    1.1702   -1.6102 H   0  0  0  0  0  0  0  0  0  0  0  0
   -3.8917    0.1164   -1.9462 H   0  0  0  0  0  0  0  0  0  0  0  0
   -4.7258   -1.9590    1.0979 H   0  0  0  0  0  0  0  0  0  0  0  0
   -5.0426   -2.3266   -0.5839 H   0  0  0  0  0  0  0  0  0  0  0  0
   -2.6925   -1.7579   -1.1969 H   0  0  0  0  0  0  0  0  0  0  0  0
   -2.7060   -2.9062    0.1402 H   0  0  0  0  0  0  0  0  0  0  0  0
    0.3196    0.5470    0.8086 H   0  0  0  0  0  0  0  0  0  0  0  0
   -0.4517    0.1535    2.3724 H   0  0  0  0  0  0  0  0  0  0  0  0
    2.9168   -2.1023   -0.0740 H   0  0  0  0  0  0  0  0  0  0  0  0
    4.6532   -1.2881   -1.6153 H   0  0  0  0  0  0  0  0  0  0  0  0
    4.7848    2.4807    0.4926 H   0  0  0  0  0  0  0  0  0  0  0  0
   -2.2335    0.8912   -0.3404 H   0  0  0  0  0  0  0  0  0  0  0  0
   -2.1061    1.0210    1.4092 H   0  0  0  0  0  0  0  0  0  0  0  0
   -4.3784    0.4148    1.7951 H   0  0  0  0  0  0  0  0  0  0  0  0
   -4.3843    1.6731    0.5840 H   0  0  0  0  0  0  0  0  0  0  0  0
  1  2  1  0
  2  3  1  0
  3  4  1  0
  4  5  1  0
  5  6  1  0
  6  7  2  0
  6  8  1  0
  8  9  1  0
  9 10  1  0
 10 11  2  0
 11 12  1  0
 12 13  2  0
 13 14  1  0
 14 15  1  0
 14 16  1  0
 14 17  1  0
 13 18  1  0
 18 19  2  0
 19 20  1  0
 20 21  2  0
 20 22  1  0
  5 23  1  0
 23 24  1  0
 24  2  1  0
 19 10  1  0
  1 25  1  0
  1 26  1  0
  1 27  1  0
  3 28  1  0
  3 29  1  0
  4 30  1  0
  4 31  1  0
  8 32  1  0
  8 33  1  0
 11 34  1  0
 12 35  1  0
 18 36  1  0
 23 37  1  0
 23 38  1  0
 24 39  1  0
 24 40  1  0
M  CHG  2  20   1  22  -1
M  END
$$$$
