
     RDKit          3D

 39 40  0  0  0  0  0  0  0  0999 V2000
   -3.0784   -2.0229    2.5867 C   0  0  0  0  0  0  0  0  0  0  0  0
   -3.8628   -1.2057    1.5718 C   0  0  0  0  0  0  0  0  0  0  0  0
   -2.9881   -0.2731    0.7318 C   0  0  0  0  0  0  0  0  0  0  0  0
   -2.0129   -1.0179   -0.1828 C   0  0  0  0  0  0  0  0  0  0  0  0
   -1.2859   -0.0625   -1.0120 N   0  0  0  0  0  0  0  0  0  0  0  0
   -1.5783    0.1925   -2.3170 C   0  0  0  0  0  0  0  0  0  0  0  0
   -2.8462    0.0297   -2.7374 N   0  0  0  0  0  0  0  0  0  0  0  0
   -0.6230    0.5808   -3.1084 N   0  0  0  0  0  0  0  0  0  0  0  0
    0.5731    0.6450   -2.2229 C   0  0  0  0  0  0  0  0  0  0  0  0
    0.1745   -0.0130   -0.8846 C   0  0  0  0  0  0  0  0  0  0  0  0
    0.6040    0.7990    0.3416 C   0  0  0  0  0  0  0  0  0  0  0  0
    2.0998    0.8000    0.5515 C   0  0  0  0  0  0  0  0  0  0  0  0
    2.7428   -0.3313    1.0745 C   0  0  0  0  0  0  0  0  0  0  0  0
    4.1264   -0.3365    1.2551 C   0  0  0  0  0  0  0  0  0  0  0  0
    4.8700    0.7861    0.9140 C   0  0  0  0  0  0  0  0  0  0  0  0
    6.2189    0.7366    1.1055 O   0  0  0  0  0  0  0  0  0  0  0  0
    4.2523    1.9188    0.3952 C   0  0  0  0  0  0  0  0  0  0  0  0
    2.8671    1.9247    0.2152 C   0  0  0  0  0  0  0  0  0  0  0  0
   -2.4737   -1.3760    3.2300 H   0  0  0  0  0  0  0  0  0  0  0  0
   -2.4155   -2.7418    2.0966 H   0  0  0  0  0  0  0  0  0  0  0  0
   -3.7653   -2.5887    3.2244 H   0  0  0  0  0  0  0  0  0  0  0  0
   -4.4259   -1.8804    0.9164 H   0  0  0  0  0  0  0  0  0  0  0  0
   -4.6001   -0.5981    2.1100 H   0  0  0  0  0  0  0  0  0  0  0  0
   -2.4333    0.4052    1.3919 H   0  0  0  0  0  0  0  0  0  0  0  0
   -3.6475    0.3622    0.1284 H   0  0  0  0  0  0  0  0  0  0  0  0
   -1.3082   -1.5951    0.4266 H   0  0  0  0  0  0  0  0  0  0  0  0
   -2.5478   -1.7461   -0.8042 H   0  0  0  0  0  0  0  0  0  0  0  0
   -3.5200    0.4489   -2.1118 H   0  0  0  0  0  0  0  0  0  0  0  0
   -2.9468    0.4011   -3.6765 H   0  0  0  0  0  0  0  0  0  0  0  0
    0.8593    1.6959   -2.1075 H   0  0  0  0  0  0  0  0  0  0  0  0
    1.4088    0.1101   -2.6862 H   0  0  0  0  0  0  0  0  0  0  0  0
    0.5803   -1.0328   -0.8533 H   0  0  0  0  0  0  0  0  0  0  0  0
    0.2318    1.8295    0.2679 H   0  0  0  0  0  0  0  0  0  0  0  0
    0.1355    0.3907    1.2467 H   0  0  0  0  0  0  0  0  0  0  0  0
    2.1720   -1.2160    1.3477 H   0  0  0  0  0  0  0  0  0  0  0  0
    4.6230   -1.2134    1.6608 H   0  0  0  0  0  0  0  0  0  0  0  0
    6.6034    1.5794    0.8136 H   0  0  0  0  0  0  0  0  0  0  0  0
    4.8257    2.8004    0.1271 H   0  0  0  0  0  0  0  0  0  0  0  0
    2.3907    2.8146   -0.1914 H   0  0  0  0  0  0  0  0  0  0  0  0
  1  2  1  0
  2  3  1  0
  3  4  1  0
  4  5  1  0
  5  6  1  0
  6  7  1  0
  6  8  2  0
  8  9  1  0
  9 10  1  0
 10 11  1  0
 11 12  1  0
 12 13  2  0
 13 14  1  0
 14 15  2  0
 15 16  1  0
 15 17  1  0
 17 18  2  0
 10  5  1  0
 18 12  1  0
  1 19  1  0
  1 20  1  0
  1 21  1  0
  2 22  1  0
  2 23  1  0
  3 24  1  0
  3 25  1  0
  4 26  1  0
  4 27  1  0
  7 28  1  0
  7 29  1  0
  9 30  1  0
  9 31  1  0
 10 32  1  0
 11 33  1  0
 11 34  1  0
 13 35  1  0
 14 36  1  0
 16 37  1  0
 17 38  1  0
 18 39  1  0
M  END
$$$$
