
     RDKit          3D

 41 42  0  0  0  0  0  0  0  0999 V2000
   -1.6963   -1.3852   -0.8293 O   0  0  0  0  0  0  0  0  0  0  0  0
   -1.2708   -0.2540   -0.6153 C   0  0  0  0  0  0  0  0  0  0  0  0
    0.2012    0.0749   -0.3746 C   0  0  0  0  0  0  0  0  0  0  0  0
    1.0045   -1.0948   -0.3808 O   0  0  0  0  0  0  0  0  0  0  0  0
    2.3394   -0.7267   -0.1409 N   0  0  0  0  0  0  0  0  0  0  0  0
    3.0672   -1.7972   -0.1589 C   0  0  0  0  0  0  0  0  0  0  0  0
    4.5246   -1.7525    0.0611 C   0  0  0  0  0  0  0  0  0  0  0  0
    5.2463   -2.9507    0.0199 C   0  0  0  0  0  0  0  0  0  0  0  0
    6.6278   -2.9412    0.2243 C   0  0  0  0  0  0  0  0  0  0  0  0
    7.2899   -1.7369    0.4707 C   0  0  0  0  0  0  0  0  0  0  0  0
    6.5597   -0.5397    0.5117 C   0  0  0  0  0  0  0  0  0  0  0  0
    7.2565    0.7261    0.7725 N   0  0  0  0  0  4  0  0  0  0  0  0
    6.5792    1.7628    0.8037 O   0  0  0  0  0  0  0  0  0  0  0  0
    8.4828    0.6820    0.9473 O   0  0  0  0  0  1  0  0  0  0  0  0
    5.1747   -0.5394    0.3070 C   0  0  0  0  0  0  0  0  0  0  0  0
   -2.0915    0.8638   -0.5775 N   0  0  0  0  0  0  0  0  0  0  0  0
   -3.5396    0.7515   -0.6901 C   0  0  0  0  0  0  0  0  0  0  0  0
   -4.1318    2.0707   -1.1990 C   0  0  0  0  0  0  0  0  0  0  0  0
   -5.6552    2.0143   -1.2738 C   0  0  0  0  0  0  0  0  0  0  0  0
   -6.2679    1.6150    0.0652 C   0  0  0  0  0  0  0  0  0  0  0  0
   -5.6858    0.3015    0.5788 C   0  0  0  0  0  0  0  0  0  0  0  0
   -4.1618    0.3515    0.6549 C   0  0  0  0  0  0  0  0  0  0  0  0
    0.5361    0.7517   -1.1689 H   0  0  0  0  0  0  0  0  0  0  0  0
    0.2894    0.5716    0.5985 H   0  0  0  0  0  0  0  0  0  0  0  0
    2.6144   -2.7892   -0.3418 H   0  0  0  0  0  0  0  0  0  0  0  0
    4.7426   -3.8968   -0.1690 H   0  0  0  0  0  0  0  0  0  0  0  0
    7.1888   -3.8734    0.1924 H   0  0  0  0  0  0  0  0  0  0  0  0
    8.3671   -1.7476    0.6285 H   0  0  0  0  0  0  0  0  0  0  0  0
    4.6023    0.3860    0.3360 H   0  0  0  0  0  0  0  0  0  0  0  0
   -1.7097    1.7251   -0.2072 H   0  0  0  0  0  0  0  0  0  0  0  0
   -3.7575   -0.0369   -1.4225 H   0  0  0  0  0  0  0  0  0  0  0  0
   -3.8318    2.8949   -0.5379 H   0  0  0  0  0  0  0  0  0  0  0  0
   -3.7245    2.3054   -2.1901 H   0  0  0  0  0  0  0  0  0  0  0  0
   -6.0454    2.9908   -1.5817 H   0  0  0  0  0  0  0  0  0  0  0  0
   -5.9562    1.2926   -2.0430 H   0  0  0  0  0  0  0  0  0  0  0  0
   -6.0846    2.4076    0.8013 H   0  0  0  0  0  0  0  0  0  0  0  0
   -7.3546    1.5212   -0.0396 H   0  0  0  0  0  0  0  0  0  0  0  0
   -6.0970    0.0786    1.5698 H   0  0  0  0  0  0  0  0  0  0  0  0
   -5.9905   -0.5168   -0.0852 H   0  0  0  0  0  0  0  0  0  0  0  0
   -3.7827   -0.6274    0.9725 H   0  0  0  0  0  0  0  0  0  0  0  0
   -3.8592    1.0666    1.4315 H   0  0  0  0  0  0  0  0  0  0  0  0
  1  2  2  0
  2  3  1  0
  3  4  1  0
  4  5  1  0
  5  6  2  3
  6  7  1  0
  7  8  2  0
  8  9  1  0
  9 10  2  0
 10 11  1  0
 11 12  1  0
 12 13  2  0
 12 14  1  0
 11 15  2  0
  2 16  1  0
 16 17  1  0
 17 18  1  0
 18 19  1  0
 19 20  1  0
 20 21  1  0
 21 22  1  0
 15  7  1  0
 22 17  1  0
  3 23  1  0
  3 24  1  0
  6 25  1  0
  8 26  1  0
  9 27  1  0
 10 28  1  0
 15 29  1  0
 16 30  1  0
 17 31  1  0
 18 32  1  0
 18 33  1  0
 19 34  1  0
 19 35  1  0
 20 36  1  0
 20 37  1  0
 21 38  1  0
 21 39  1  0
 22 40  1  0
 22 41  1  0
M  CHG  2  12   1  14  -1
M  END
$$$$
