
     RDKit          3D

 47 50  0  0  0  0  0  0  0  0999 V2000
   -7.3867   -0.0928    0.8317 C   0  0  0  0  0  0  0  0  0  0  0  0
   -5.9864    0.3416    0.4014 C   0  0  0  0  0  0  0  0  0  0  0  0
   -5.9241    0.5575   -1.1221 C   0  0  0  0  0  0  0  0  0  0  0  0
   -4.5539    1.0850   -1.5804 C   0  0  0  0  0  0  0  0  0  0  0  0
   -3.3989    0.3782   -0.9147 C   0  0  0  0  0  0  0  0  0  0  0  0
   -3.6097   -0.4097    0.2040 C   0  0  0  0  0  0  0  0  0  0  0  0
   -2.1792   -1.0647    0.8291 S   0  0  0  0  0  0  0  0  0  0  0  0
   -1.2252   -0.2486   -0.3043 C   0  0  0  0  0  0  0  0  0  0  0  0
    0.1629   -0.3192   -0.2764 N   0  0  0  0  0  0  0  0  0  0  0  0
    0.9732   -0.9513    0.6536 C   0  0  0  0  0  0  0  0  0  0  0  0
    0.5773   -1.5806    1.6285 O   0  0  0  0  0  0  0  0  0  0  0  0
    2.3979   -0.7878    0.3791 C   0  0  0  0  0  0  0  0  0  0  0  0
    3.1147   -0.2166   -0.6597 C   0  0  0  0  0  0  0  0  0  0  0  0
    4.4878   -0.3724   -0.3495 C   0  0  0  0  0  0  0  0  0  0  0  0
    4.5459   -1.0127    0.8698 C   0  0  0  0  0  0  0  0  0  0  0  0
    5.6418   -1.4778    1.7569 C   0  0  0  0  0  0  0  0  0  0  0  0
    6.8724   -0.7243    1.5309 N   0  0  0  0  0  0  0  0  0  0  0  0
    7.1922    0.4999    2.0586 C   0  0  0  0  0  0  0  0  0  0  0  0
    8.4352    0.7954    1.5644 C   0  0  0  0  0  0  0  0  0  0  0  0
    9.4652    2.3224    1.8787 Br  0  0  0  0  0  0  0  0  0  0  0  0
    8.7980   -0.2915    0.7595 C   0  0  0  0  0  0  0  0  0  0  0  0
    7.8443   -1.2317    0.7348 N   0  0  0  0  0  0  0  0  0  0  0  0
    3.2834   -1.2760    1.3072 O   0  0  0  0  0  0  0  0  0  0  0  0
   -1.9807    0.4625   -1.2361 C   0  0  0  0  0  0  0  0  0  0  0  0
   -1.3127    1.1936   -2.3188 C   0  0  0  0  0  0  0  0  0  0  0  0
   -2.0436    1.4791   -3.4325 N   0  0  0  0  0  0  0  0  0  0  0  0
   -0.1175    1.4809   -2.2920 O   0  0  0  0  0  0  0  0  0  0  0  0
   -4.9364   -0.7011    0.8395 C   0  0  0  0  0  0  0  0  0  0  0  0
   -8.1316    0.6592    0.5459 H   0  0  0  0  0  0  0  0  0  0  0  0
   -7.6707   -1.0441    0.3657 H   0  0  0  0  0  0  0  0  0  0  0  0
   -7.4382   -0.2167    1.9191 H   0  0  0  0  0  0  0  0  0  0  0  0
   -5.7602    1.2988    0.8945 H   0  0  0  0  0  0  0  0  0  0  0  0
   -6.1291   -0.3938   -1.6307 H   0  0  0  0  0  0  0  0  0  0  0  0
   -6.7029    1.2590   -1.4426 H   0  0  0  0  0  0  0  0  0  0  0  0
   -4.4820    2.1573   -1.3578 H   0  0  0  0  0  0  0  0  0  0  0  0
   -4.5139    0.9671   -2.6658 H   0  0  0  0  0  0  0  0  0  0  0  0
    0.6152    0.2522   -0.9855 H   0  0  0  0  0  0  0  0  0  0  0  0
    2.7095    0.2543   -1.5465 H   0  0  0  0  0  0  0  0  0  0  0  0
    5.3343   -0.0530   -0.9418 H   0  0  0  0  0  0  0  0  0  0  0  0
    5.8533   -2.5352    1.5863 H   0  0  0  0  0  0  0  0  0  0  0  0
    5.3786   -1.3497    2.8137 H   0  0  0  0  0  0  0  0  0  0  0  0
    6.5211    1.0350    2.7143 H   0  0  0  0  0  0  0  0  0  0  0  0
    9.7088   -0.4466    0.1930 H   0  0  0  0  0  0  0  0  0  0  0  0
   -1.5012    1.8321   -4.2102 H   0  0  0  0  0  0  0  0  0  0  0  0
   -2.8182    0.8877   -3.6684 H   0  0  0  0  0  0  0  0  0  0  0  0
   -5.2555   -1.7088    0.5395 H   0  0  0  0  0  0  0  0  0  0  0  0
   -4.8545   -0.6922    1.9340 H   0  0  0  0  0  0  0  0  0  0  0  0
  1  2  1  0
  2  3  1  0
  3  4  1  0
  4  5  1  0
  5  6  2  0
  6  7  1  0
  7  8  1  0
  8  9  1  0
  9 10  1  0
 10 11  2  0
 10 12  1  0
 12 13  2  0
 13 14  1  0
 14 15  2  0
 15 16  1  0
 16 17  1  0
 17 18  1  0
 18 19  2  0
 19 20  1  0
 19 21  1  0
 21 22  2  0
 15 23  1  0
  8 24  2  0
 24 25  1  0
 25 26  1  0
 25 27  2  0
  6 28  1  0
 28  2  1  0
 24  5  1  0
 23 12  1  0
 22 17  1  0
  1 29  1  0
  1 30  1  0
  1 31  1  0
  2 32  1  0
  3 33  1  0
  3 34  1  0
  4 35  1  0
  4 36  1  0
  9 37  1  0
 13 38  1  0
 14 39  1  0
 16 40  1  0
 16 41  1  0
 18 42  1  0
 21 43  1  0
 26 44  1  0
 26 45  1  0
 28 46  1  0
 28 47  1  0
M  END
$$$$
