
     RDKit          3D

 61 64  0  0  0  0  0  0  0  0999 V2000
   -6.2007   -4.9355   -0.9075 C   0  0  0  0  0  0  0  0  0  0  0  0
   -5.1566   -3.9629   -0.8484 O   0  0  0  0  0  0  0  0  0  0  0  0
   -4.1577   -4.2760    0.0249 C   0  0  0  0  0  0  0  0  0  0  0  0
   -4.1082   -5.2890    0.7097 O   0  0  0  0  0  0  0  0  0  0  0  0
   -3.0880   -3.2115    0.0217 C   0  0  0  0  0  0  0  0  0  0  0  0
   -3.6351   -1.8870    0.5341 C   0  0  0  0  0  0  0  0  0  0  0  0
   -2.7603   -0.6647    0.6855 C   0  0  0  0  0  0  0  0  0  0  0  0
   -1.4616   -0.3376    0.4777 C   0  0  0  0  0  0  0  0  0  0  0  0
   -0.4731   -1.3274    0.0147 C   0  0  0  0  0  0  0  0  0  0  0  0
    0.8476   -1.0621   -0.0619 C   0  0  0  0  0  0  0  0  0  0  0  0
    1.8739   -2.0918   -0.4264 C   0  0  0  0  0  0  0  0  0  0  0  0
    2.9407   -1.5304   -1.3493 C   0  0  0  0  0  0  0  0  0  0  0  0
    3.4135   -2.2318   -2.2508 O   0  0  0  0  0  0  0  0  0  0  0  0
    3.4745   -0.1143   -1.0795 C   0  0  0  0  0  0  0  0  0  0  0  0
    3.2219    0.7022   -2.3593 C   0  0  0  0  0  0  0  0  0  0  0  0
    4.8988   -0.1057   -0.9054 O   0  0  0  0  0  0  0  0  0  0  0  0
    5.3582   -0.7776    0.1910 C   0  0  0  0  0  0  0  0  0  0  0  0
    4.6194   -1.3811    0.9614 O   0  0  0  0  0  0  0  0  0  0  0  0
    6.8011   -0.6703    0.2690 C   0  0  0  0  0  0  0  0  0  0  0  0
    7.6880   -0.0406   -0.5874 C   0  0  0  0  0  0  0  0  0  0  0  0
    9.0427   -0.1631   -0.1613 C   0  0  0  0  0  0  0  0  0  0  0  0
    9.1498   -0.8795    1.0088 C   0  0  0  0  0  0  0  0  0  0  0  0
    7.6272   -1.4030    1.5823 S   0  0  0  0  0  0  0  0  0  0  0  0
    2.7492    0.6339    0.0465 C   0  0  0  0  0  0  0  0  0  0  0  0
    3.2745    1.5493    0.6796 O   0  0  0  0  0  0  0  0  0  0  0  0
    1.3277    0.2608    0.2715 C   0  0  0  0  0  0  0  0  0  0  0  0
    0.4470    1.1938    0.6593 C   0  0  0  0  0  0  0  0  0  0  0  0
   -0.9305    0.9636    0.7572 N   0  0  0  0  0  0  0  0  0  0  0  0
   -1.7639    2.1000    1.0102 C   0  0  0  0  0  0  0  0  0  0  0  0
   -2.7036    2.5334    0.0608 C   0  0  0  0  0  0  0  0  0  0  0  0
   -3.5048    3.6569    0.2996 C   0  0  0  0  0  0  0  0  0  0  0  0
   -3.3747    4.3681    1.4925 C   0  0  0  0  0  0  0  0  0  0  0  0
   -4.0890    5.4779    1.8498 O   0  0  0  0  0  0  0  0  0  0  0  0
   -5.0982    5.9118    0.9472 C   0  0  0  0  0  0  0  0  0  0  0  0
   -2.4345    3.9501    2.4370 C   0  0  0  0  0  0  0  0  0  0  0  0
   -1.6330    2.8299    2.1998 C   0  0  0  0  0  0  0  0  0  0  0  0
   -6.6308   -5.1058    0.0860 H   0  0  0  0  0  0  0  0  0  0  0  0
   -5.8222   -5.8712   -1.3319 H   0  0  0  0  0  0  0  0  0  0  0  0
   -6.9873   -4.5473   -1.5617 H   0  0  0  0  0  0  0  0  0  0  0  0
   -2.2843   -3.5701    0.6749 H   0  0  0  0  0  0  0  0  0  0  0  0
   -2.6993   -3.1291   -0.9992 H   0  0  0  0  0  0  0  0  0  0  0  0
   -4.0904   -2.0702    1.5179 H   0  0  0  0  0  0  0  0  0  0  0  0
   -4.4687   -1.5840   -0.1150 H   0  0  0  0  0  0  0  0  0  0  0  0
   -3.3824    0.1329    1.0966 H   0  0  0  0  0  0  0  0  0  0  0  0
   -0.7974   -2.3253   -0.2316 H   0  0  0  0  0  0  0  0  0  0  0  0
    2.3621   -2.4732    0.4764 H   0  0  0  0  0  0  0  0  0  0  0  0
    1.4045   -2.9427   -0.9348 H   0  0  0  0  0  0  0  0  0  0  0  0
    2.1599    0.7253   -2.6284 H   0  0  0  0  0  0  0  0  0  0  0  0
    3.5646    1.7372   -2.2384 H   0  0  0  0  0  0  0  0  0  0  0  0
    3.7784    0.2873   -3.2082 H   0  0  0  0  0  0  0  0  0  0  0  0
    7.3803    0.4856   -1.4838 H   0  0  0  0  0  0  0  0  0  0  0  0
    9.8941    0.2543   -0.6854 H   0  0  0  0  0  0  0  0  0  0  0  0
   10.0495   -1.1234    1.5574 H   0  0  0  0  0  0  0  0  0  0  0  0
    0.7587    2.2156    0.8662 H   0  0  0  0  0  0  0  0  0  0  0  0
   -2.8051    1.9998   -0.8821 H   0  0  0  0  0  0  0  0  0  0  0  0
   -4.2123    3.9509   -0.4688 H   0  0  0  0  0  0  0  0  0  0  0  0
   -5.8647    5.1420    0.8140 H   0  0  0  0  0  0  0  0  0  0  0  0
   -5.5812    6.7906    1.3842 H   0  0  0  0  0  0  0  0  0  0  0  0
   -4.6677    6.2117   -0.0129 H   0  0  0  0  0  0  0  0  0  0  0  0
   -2.3256    4.5005    3.3689 H   0  0  0  0  0  0  0  0  0  0  0  0
   -0.9147    2.5195    2.9544 H   0  0  0  0  0  0  0  0  0  0  0  0
  1  2  1  0
  2  3  1  0
  3  4  2  0
  3  5  1  0
  5  6  1  0
  6  7  1  0
  7  8  2  3
  8  9  1  0
  9 10  2  0
 10 11  1  0
 11 12  1  0
 12 13  2  0
 12 14  1  0
 14 15  1  0
 14 16  1  0
 16 17  1  0
 17 18  2  0
 17 19  1  0
 19 20  2  0
 20 21  1  0
 21 22  2  0
 22 23  1  0
 14 24  1  0
 24 25  2  0
 24 26  1  0
 26 27  2  0
 27 28  1  0
 28 29  1  0
 29 30  2  0
 30 31  1  0
 31 32  2  0
 32 33  1  0
 33 34  1  0
 32 35  1  0
 35 36  2  0
 28  8  1  0
 36 29  1  0
 26 10  1  0
 23 19  1  0
  1 37  1  0
  1 38  1  0
  1 39  1  0
  5 40  1  0
  5 41  1  0
  6 42  1  0
  6 43  1  0
  7 44  1  0
  9 45  1  0
 11 46  1  0
 11 47  1  0
 15 48  1  0
 15 49  1  0
 15 50  1  0
 20 51  1  0
 21 52  1  0
 22 53  1  0
 27 54  1  0
 30 55  1  0
 31 56  1  0
 34 57  1  0
 34 58  1  0
 34 59  1  0
 35 60  1  0
 36 61  1  0
M  END
$$$$
