
     RDKit          3D

 72 77  0  0  0  0  0  0  0  0999 V2000
    5.9970   -3.8673   -0.0175 O   0  0  0  0  0  0  0  0  0  0  0  0
    5.3522   -2.8744    0.3103 C   0  0  0  0  0  0  0  0  0  0  0  0
    4.2714   -2.9264    1.3789 C   0  0  0  0  0  0  0  0  0  0  0  0
    2.6095   -2.7981    0.6591 S   0  0  0  0  0  0  0  0  0  0  0  0
    2.3879   -1.0527    0.5372 C   0  0  0  0  0  0  0  0  0  0  0  0
    3.3852   -0.2716    0.8495 N   0  0  0  0  0  0  0  0  0  0  0  0
    3.2374    1.1320    0.7510 C   0  0  0  0  0  0  0  0  0  0  0  0
    4.3203    1.9496    1.0795 C   0  0  0  0  0  0  0  0  0  0  0  0
    4.2084    3.3391    0.9856 C   0  0  0  0  0  0  0  0  0  0  0  0
    3.0122    3.9203    0.5619 C   0  0  0  0  0  0  0  0  0  0  0  0
    1.9237    3.1141    0.2281 C   0  0  0  0  0  0  0  0  0  0  0  0
    2.0386    1.7258    0.3219 C   0  0  0  0  0  0  0  0  0  0  0  0
    0.9511    0.8269   -0.0111 C   0  0  0  0  0  0  0  0  0  0  0  0
   -0.2615    1.1162   -0.4299 N   0  0  0  0  0  0  0  0  0  0  0  0
   -0.8981   -0.0970   -0.5579 C   0  0  0  0  0  0  0  0  0  0  0  0
   -2.3230   -0.1615   -0.9819 C   0  0  0  0  0  0  0  0  0  0  0  0
   -3.2754   -0.4316    0.1775 C   0  0  0  0  0  0  0  0  0  0  0  0
   -2.8964   -0.5242    1.3472 O   0  0  0  0  0  0  0  0  0  0  0  0
   -4.6240   -0.5687   -0.1432 N   0  0  0  0  0  0  0  0  0  0  0  0
   -5.5695   -0.8388    0.9477 C   0  0  0  0  0  0  0  0  0  0  0  0
   -6.9406   -1.3152    0.4455 C   0  0  0  0  0  0  0  0  0  0  0  0
   -7.5324   -0.3635   -0.5170 N   0  0  0  0  0  0  0  0  0  0  0  0
   -8.5571    0.5016   -0.1084 C   0  0  0  0  0  0  0  0  0  0  0  0
   -8.8102    0.8255    1.2323 C   0  0  0  0  0  0  0  0  0  0  0  0
   -9.8402    1.7044    1.5916 C   0  0  0  0  0  0  0  0  0  0  0  0
  -10.6461    2.2767    0.6137 C   0  0  0  0  0  0  0  0  0  0  0  0
  -10.4239    1.9685   -0.7233 C   0  0  0  0  0  0  0  0  0  0  0  0
   -9.3910    1.0928   -1.0750 C   0  0  0  0  0  0  0  0  0  0  0  0
   -6.5790    0.2603   -1.4680 C   0  0  0  0  0  0  0  0  0  0  0  0
   -5.2086   -0.4471   -1.4872 C   0  0  0  0  0  0  0  0  0  0  0  0
   -0.0339   -1.1426   -0.2824 C   0  0  0  0  0  0  0  0  0  0  0  0
   -0.2531   -2.4551   -0.3464 O   0  0  0  0  0  0  0  0  0  0  0  0
    1.1528   -0.5346    0.1032 N   0  0  0  0  0  0  0  0  0  0  0  0
    5.5606   -1.6337   -0.2408 N   0  0  0  0  0  0  0  0  0  0  0  0
    6.6790   -1.3359   -1.1141 C   0  0  0  0  0  0  0  0  0  0  0  0
    7.9070   -0.8993   -0.3114 C   0  0  0  0  0  0  0  0  0  0  0  0
    9.1161   -0.6074   -1.1838 C   0  0  0  0  0  0  0  0  0  0  0  0
    9.8873    0.3611   -0.3225 C   0  0  0  0  0  0  0  0  0  0  0  0
    8.7779    1.1824    0.3002 C   0  0  0  0  0  0  0  0  0  0  0  0
    7.6260    0.3310    0.3965 O   0  0  0  0  0  0  0  0  0  0  0  0
    4.3428   -3.9002    1.8749 H   0  0  0  0  0  0  0  0  0  0  0  0
    4.4547   -2.1703    2.1485 H   0  0  0  0  0  0  0  0  0  0  0  0
    5.2573    1.5066    1.4096 H   0  0  0  0  0  0  0  0  0  0  0  0
    5.0569    3.9675    1.2453 H   0  0  0  0  0  0  0  0  0  0  0  0
    2.9269    5.0016    0.4927 H   0  0  0  0  0  0  0  0  0  0  0  0
    0.9899    3.5643   -0.1015 H   0  0  0  0  0  0  0  0  0  0  0  0
   -2.4413   -0.9522   -1.7318 H   0  0  0  0  0  0  0  0  0  0  0  0
   -2.5956    0.7976   -1.4372 H   0  0  0  0  0  0  0  0  0  0  0  0
   -5.6731    0.0927    1.5174 H   0  0  0  0  0  0  0  0  0  0  0  0
   -5.1376   -1.5925    1.6164 H   0  0  0  0  0  0  0  0  0  0  0  0
   -7.6085   -1.5418    1.2836 H   0  0  0  0  0  0  0  0  0  0  0  0
   -6.8095   -2.2701   -0.0814 H   0  0  0  0  0  0  0  0  0  0  0  0
   -8.1948    0.4270    2.0327 H   0  0  0  0  0  0  0  0  0  0  0  0
  -10.0064    1.9423    2.6390 H   0  0  0  0  0  0  0  0  0  0  0  0
  -11.4445    2.9582    0.8927 H   0  0  0  0  0  0  0  0  0  0  0  0
  -11.0551    2.3998   -1.4956 H   0  0  0  0  0  0  0  0  0  0  0  0
   -9.2552    0.8512   -2.1263 H   0  0  0  0  0  0  0  0  0  0  0  0
   -6.4090    1.3104   -1.1938 H   0  0  0  0  0  0  0  0  0  0  0  0
   -6.9995    0.2361   -2.4793 H   0  0  0  0  0  0  0  0  0  0  0  0
   -5.3181   -1.4669   -1.8760 H   0  0  0  0  0  0  0  0  0  0  0  0
   -4.5377    0.0889   -2.1619 H   0  0  0  0  0  0  0  0  0  0  0  0
    0.5454   -2.9465   -0.0757 H   0  0  0  0  0  0  0  0  0  0  0  0
    5.0747   -0.8406    0.1787 H   0  0  0  0  0  0  0  0  0  0  0  0
    6.9104   -2.2167   -1.7225 H   0  0  0  0  0  0  0  0  0  0  0  0
    6.3433   -0.5270   -1.7717 H   0  0  0  0  0  0  0  0  0  0  0  0
    8.1588   -1.6507    0.4471 H   0  0  0  0  0  0  0  0  0  0  0  0
    9.6822   -1.5073   -1.4393 H   0  0  0  0  0  0  0  0  0  0  0  0
    8.8176   -0.1130   -2.1157 H   0  0  0  0  0  0  0  0  0  0  0  0
   10.6051    0.9693   -0.8801 H   0  0  0  0  0  0  0  0  0  0  0  0
   10.4328   -0.1848    0.4565 H   0  0  0  0  0  0  0  0  0  0  0  0
    9.0409    1.5588    1.2931 H   0  0  0  0  0  0  0  0  0  0  0  0
    8.5088    2.0334   -0.3351 H   0  0  0  0  0  0  0  0  0  0  0  0
  1  2  2  0
  2  3  1  0
  3  4  1  0
  4  5  1  0
  5  6  2  0
  6  7  1  0
  7  8  2  0
  8  9  1  0
  9 10  2  0
 10 11  1  0
 11 12  2  0
 12 13  1  0
 13 14  2  0
 14 15  1  0
 15 16  1  0
 16 17  1  0
 17 18  2  0
 17 19  1  0
 19 20  1  0
 20 21  1  0
 21 22  1  0
 22 23  1  0
 23 24  2  0
 24 25  1  0
 25 26  2  0
 26 27  1  0
 27 28  2  0
 22 29  1  0
 29 30  1  0
 15 31  2  0
 31 32  1  0
 31 33  1  0
  2 34  1  0
 34 35  1  0
 35 36  1  0
 36 37  1  0
 37 38  1  0
 38 39  1  0
 39 40  1  0
 33  5  1  0
 40 36  1  0
 12  7  1  0
 33 13  1  0
 30 19  1  0
 28 23  1  0
  3 41  1  0
  3 42  1  0
  8 43  1  0
  9 44  1  0
 10 45  1  0
 11 46  1  0
 16 47  1  0
 16 48  1  0
 20 49  1  0
 20 50  1  0
 21 51  1  0
 21 52  1  0
 24 53  1  0
 25 54  1  0
 26 55  1  0
 27 56  1  0
 28 57  1  0
 29 58  1  0
 29 59  1  0
 30 60  1  0
 30 61  1  0
 32 62  1  0
 34 63  1  0
 35 64  1  0
 35 65  1  0
 36 66  1  0
 37 67  1  0
 37 68  1  0
 38 69  1  0
 38 70  1  0
 39 71  1  0
 39 72  1  0
M  END
$$$$
