
     RDKit          3D

 60 64  0  0  0  0  0  0  0  0999 V2000
   -6.0241   -1.9019   -0.5739 C   0  0  0  0  0  0  0  0  0  0  0  0
   -4.9334   -1.0913    0.1110 C   0  0  0  0  0  0  0  0  0  0  0  0
   -3.9788   -1.9548    0.9497 C   0  0  0  0  0  0  0  0  0  0  0  0
   -3.1898   -2.8526    0.1227 N   0  0  0  0  0  0  0  0  0  0  0  0
   -2.1263   -2.2617   -0.5498 C   0  0  0  0  0  0  0  0  0  0  0  0
   -1.8365   -2.8424   -1.7231 N   0  0  0  0  0  0  0  0  0  0  0  0
   -0.7706   -2.3651   -2.3600 C   0  0  0  0  0  0  0  0  0  0  0  0
    0.0477   -1.4134   -1.9078 N   0  0  0  0  0  0  0  0  0  0  0  0
   -0.2399   -0.8608   -0.7062 C   0  0  0  0  0  0  0  0  0  0  0  0
    0.7639   -0.0299   -0.1573 N   0  0  0  0  0  0  0  0  0  0  0  0
    1.5240    0.7423   -1.1773 C   0  0  0  0  0  0  0  0  0  0  0  0
    2.8960    0.1237   -1.5297 C   0  0  0  0  0  0  0  0  0  0  0  0
    3.7368   -0.0127   -0.3246 N   0  0  0  0  0  0  0  0  0  0  0  0
    5.1174    0.0218   -0.3874 C   0  0  0  0  0  0  0  0  0  0  0  0
    5.9030    0.3237    0.7376 C   0  0  0  0  0  0  0  0  0  0  0  0
    7.3025    0.3589    0.6808 C   0  0  0  0  0  0  0  0  0  0  0  0
    7.9575    0.0892   -0.5137 C   0  0  0  0  0  0  0  0  0  0  0  0
    7.2105   -0.2128   -1.6456 C   0  0  0  0  0  0  0  0  0  0  0  0
    5.8113   -0.2422   -1.5787 C   0  0  0  0  0  0  0  0  0  0  0  0
    3.0225   -0.2113    0.9501 C   0  0  0  0  0  0  0  0  0  0  0  0
    1.6407   -0.8647    0.7182 C   0  0  0  0  0  0  0  0  0  0  0  0
   -1.4042   -1.1970    0.0074 C   0  0  0  0  0  0  0  0  0  0  0  0
   -1.9035   -0.5798    1.2173 N   0  0  0  0  0  0  0  0  0  0  0  0
   -1.3836    0.6709    1.7572 C   0  0  0  0  0  0  0  0  0  0  0  0
   -2.1413    1.8792    1.2374 C   0  0  0  0  0  0  0  0  0  0  0  0
   -1.8732    2.4135   -0.0301 C   0  0  0  0  0  0  0  0  0  0  0  0
   -2.5857    3.5161   -0.5050 C   0  0  0  0  0  0  0  0  0  0  0  0
   -3.5766    4.0978    0.2815 C   0  0  0  0  0  0  0  0  0  0  0  0
   -3.8600    3.5736    1.5409 C   0  0  0  0  0  0  0  0  0  0  0  0
   -3.1481    2.4706    2.0147 C   0  0  0  0  0  0  0  0  0  0  0  0
   -3.0920   -1.0387    1.8061 C   0  0  0  0  0  0  0  0  0  0  0  0
   -3.4900   -0.6541    2.9106 O   0  0  0  0  0  0  0  0  0  0  0  0
   -5.6076   -2.5965   -1.3078 H   0  0  0  0  0  0  0  0  0  0  0  0
   -6.7112   -1.2348   -1.1017 H   0  0  0  0  0  0  0  0  0  0  0  0
   -6.6037   -2.4747    0.1545 H   0  0  0  0  0  0  0  0  0  0  0  0
   -5.4128   -0.3499    0.7616 H   0  0  0  0  0  0  0  0  0  0  0  0
   -4.3850   -0.5205   -0.6468 H   0  0  0  0  0  0  0  0  0  0  0  0
   -4.5584   -2.5730    1.6445 H   0  0  0  0  0  0  0  0  0  0  0  0
   -3.6859   -3.4788   -0.5026 H   0  0  0  0  0  0  0  0  0  0  0  0
   -0.5344   -2.8016   -3.3233 H   0  0  0  0  0  0  0  0  0  0  0  0
    1.6989    1.7377   -0.7468 H   0  0  0  0  0  0  0  0  0  0  0  0
    0.9362    0.9190   -2.0874 H   0  0  0  0  0  0  0  0  0  0  0  0
    3.3724    0.7876   -2.2610 H   0  0  0  0  0  0  0  0  0  0  0  0
    2.7672   -0.8603   -1.9950 H   0  0  0  0  0  0  0  0  0  0  0  0
    5.4348    0.5648    1.6875 H   0  0  0  0  0  0  0  0  0  0  0  0
    7.8735    0.6029    1.5729 H   0  0  0  0  0  0  0  0  0  0  0  0
    9.0428    0.1131   -0.5626 H   0  0  0  0  0  0  0  0  0  0  0  0
    7.7101   -0.4323   -2.5849 H   0  0  0  0  0  0  0  0  0  0  0  0
    5.2718   -0.5063   -2.4844 H   0  0  0  0  0  0  0  0  0  0  0  0
    2.8979    0.7570    1.4495 H   0  0  0  0  0  0  0  0  0  0  0  0
    3.5899   -0.8725    1.6162 H   0  0  0  0  0  0  0  0  0  0  0  0
    1.1521   -1.0161    1.6880 H   0  0  0  0  0  0  0  0  0  0  0  0
    1.8050   -1.8579    0.2752 H   0  0  0  0  0  0  0  0  0  0  0  0
   -1.4855    0.6414    2.8511 H   0  0  0  0  0  0  0  0  0  0  0  0
   -0.3170    0.8123    1.6147 H   0  0  0  0  0  0  0  0  0  0  0  0
   -1.1070    1.9763   -0.6612 H   0  0  0  0  0  0  0  0  0  0  0  0
   -2.3651    3.9207   -1.4896 H   0  0  0  0  0  0  0  0  0  0  0  0
   -4.1294    4.9575   -0.0874 H   0  0  0  0  0  0  0  0  0  0  0  0
   -4.6369    4.0215    2.1563 H   0  0  0  0  0  0  0  0  0  0  0  0
   -3.3890    2.0688    2.9976 H   0  0  0  0  0  0  0  0  0  0  0  0
  1  2  1  0
  2  3  1  0
  3  4  1  0
  4  5  1  0
  5  6  2  0
  6  7  1  0
  7  8  2  0
  8  9  1  0
  9 10  1  0
 10 11  1  0
 11 12  1  0
 12 13  1  0
 13 14  1  0
 14 15  2  0
 15 16  1  0
 16 17  2  0
 17 18  1  0
 18 19  2  0
 13 20  1  0
 20 21  1  0
  9 22  2  0
 22 23  1  0
 23 24  1  0
 24 25  1  0
 25 26  2  0
 26 27  1  0
 27 28  2  0
 28 29  1  0
 29 30  2  0
 23 31  1  0
 31 32  2  0
 31  3  1  0
 22  5  1  0
 30 25  1  0
 21 10  1  0
 19 14  1  0
  1 33  1  0
  1 34  1  0
  1 35  1  0
  2 36  1  0
  2 37  1  0
  3 38  1  0
  4 39  1  0
  7 40  1  0
 11 41  1  0
 11 42  1  0
 12 43  1  0
 12 44  1  0
 15 45  1  0
 16 46  1  0
 17 47  1  0
 18 48  1  0
 19 49  1  0
 20 50  1  0
 20 51  1  0
 21 52  1  0
 21 53  1  0
 24 54  1  0
 24 55  1  0
 26 56  1  0
 27 57  1  0
 28 58  1  0
 29 59  1  0
 30 60  1  0
M  END
$$$$
