
     RDKit          3D

 43 45  0  0  0  0  0  0  0  0999 V2000
    6.6027   -2.6178   -0.0902 C   0  0  0  0  0  0  0  0  0  0  0  0
    5.2542   -2.4116   -0.4883 O   0  0  0  0  0  0  0  0  0  0  0  0
    4.6755   -1.2216   -0.1346 C   0  0  0  0  0  0  0  0  0  0  0  0
    5.2951   -0.1914    0.5703 C   0  0  0  0  0  0  0  0  0  0  0  0
    4.6079    0.9893    0.8809 C   0  0  0  0  0  0  0  0  0  0  0  0
    3.2786    1.1025    0.4595 C   0  0  0  0  0  0  0  0  0  0  0  0
    2.3829    2.1301    0.6274 N   0  0  0  0  0  0  0  0  0  0  0  0
    1.1859    1.8134    0.0451 C   0  0  0  0  0  0  0  0  0  0  0  0
    1.2844    0.5498   -0.5131 C   0  0  0  0  0  0  0  0  0  0  0  0
    0.2217   -0.1700   -1.2275 C   0  0  0  0  0  0  0  0  0  0  0  0
    0.3859   -1.3271   -1.6245 O   0  0  0  0  0  0  0  0  0  0  0  0
   -1.1146    0.5347   -1.4928 C   0  0  0  0  0  0  0  0  0  0  0  0
   -1.9471    0.6452   -0.2730 N   0  0  0  0  0  0  0  0  0  0  0  0
   -2.2470   -0.6855    0.2895 C   0  0  0  0  0  0  0  0  0  0  0  0
   -3.4708   -0.6580    1.2036 C   0  0  0  0  0  0  0  0  0  0  0  0
   -4.7371   -0.2848    0.4166 C   0  0  0  0  0  0  0  0  0  0  0  0
   -5.7797    0.3340    1.3476 C   0  0  0  0  0  0  0  0  0  0  0  0
   -4.4114    0.6406   -0.7676 C   0  0  0  0  0  0  0  0  0  0  0  0
   -3.1471    1.4609   -0.5144 C   0  0  0  0  0  0  0  0  0  0  0  0
    2.6217    0.0955   -0.2481 C   0  0  0  0  0  0  0  0  0  0  0  0
    3.3421   -1.0824   -0.5445 C   0  0  0  0  0  0  0  0  0  0  0  0
    6.9078   -3.6078   -0.4427 H   0  0  0  0  0  0  0  0  0  0  0  0
    7.2680   -1.8809   -0.5523 H   0  0  0  0  0  0  0  0  0  0  0  0
    6.6986   -2.6092    1.0006 H   0  0  0  0  0  0  0  0  0  0  0  0
    6.3258   -0.2714    0.9003 H   0  0  0  0  0  0  0  0  0  0  0  0
    5.0982    1.7855    1.4317 H   0  0  0  0  0  0  0  0  0  0  0  0
    2.5837    2.9912    1.1173 H   0  0  0  0  0  0  0  0  0  0  0  0
    0.3581    2.5090    0.0943 H   0  0  0  0  0  0  0  0  0  0  0  0
   -0.8871    1.5270   -1.9015 H   0  0  0  0  0  0  0  0  0  0  0  0
   -1.6454   -0.0152   -2.2807 H   0  0  0  0  0  0  0  0  0  0  0  0
   -2.4260   -1.4216   -0.5058 H   0  0  0  0  0  0  0  0  0  0  0  0
   -1.3832   -1.0332    0.8676 H   0  0  0  0  0  0  0  0  0  0  0  0
   -3.6086   -1.6398    1.6723 H   0  0  0  0  0  0  0  0  0  0  0  0
   -3.2950    0.0526    2.0221 H   0  0  0  0  0  0  0  0  0  0  0  0
   -5.1748   -1.2039    0.0048 H   0  0  0  0  0  0  0  0  0  0  0  0
   -6.7125    0.5311    0.8090 H   0  0  0  0  0  0  0  0  0  0  0  0
   -6.0095   -0.3434    2.1769 H   0  0  0  0  0  0  0  0  0  0  0  0
   -5.4265    1.2810    1.7694 H   0  0  0  0  0  0  0  0  0  0  0  0
   -5.2536    1.3073   -0.9865 H   0  0  0  0  0  0  0  0  0  0  0  0
   -4.2635    0.0314   -1.6693 H   0  0  0  0  0  0  0  0  0  0  0  0
   -2.9933    2.1662   -1.3404 H   0  0  0  0  0  0  0  0  0  0  0  0
   -3.3070    2.0876    0.3724 H   0  0  0  0  0  0  0  0  0  0  0  0
    2.8620   -1.8894   -1.0930 H   0  0  0  0  0  0  0  0  0  0  0  0
  1  2  1  0
  2  3  1  0
  3  4  2  0
  4  5  1  0
  5  6  2  0
  6  7  1  0
  7  8  1  0
  8  9  2  0
  9 10  1  0
 10 11  2  0
 10 12  1  0
 12 13  1  0
 13 14  1  0
 14 15  1  0
 15 16  1  0
 16 17  1  0
 16 18  1  0
 18 19  1  0
  9 20  1  0
 20 21  2  0
 21  3  1  0
 20  6  1  0
 19 13  1  0
  1 22  1  0
  1 23  1  0
  1 24  1  0
  4 25  1  0
  5 26  1  0
  7 27  1  0
  8 28  1  0
 12 29  1  0
 12 30  1  0
 14 31  1  0
 14 32  1  0
 15 33  1  0
 15 34  1  0
 16 35  1  0
 17 36  1  0
 17 37  1  0
 17 38  1  0
 18 39  1  0
 18 40  1  0
 19 41  1  0
 19 42  1  0
 21 43  1  0
M  END
$$$$
