
     RDKit          3D

 63 67  0  0  0  0  0  0  0  0999 V2000
   -3.6413    4.3600    1.6781 Cl  0  0  0  0  0  0  0  0  0  0  0  0
   -3.1735    2.7169    1.8614 C   0  0  0  0  0  0  0  0  0  0  0  0
   -3.2726    1.8438    0.7823 C   0  0  0  0  0  0  0  0  0  0  0  0
   -2.8799    0.5100    0.9256 C   0  0  0  0  0  0  0  0  0  0  0  0
   -2.3834    0.0327    2.1532 C   0  0  0  0  0  0  0  0  0  0  0  0
   -1.9010   -1.4015    2.3289 C   0  0  0  0  0  0  0  0  0  0  0  0
   -2.8951   -2.4550    1.8489 C   0  0  0  0  0  0  0  0  0  0  0  0
   -3.8729   -2.9322    2.7428 C   0  0  0  0  0  0  0  0  0  0  0  0
   -4.8116   -3.8858    2.3377 C   0  0  0  0  0  0  0  0  0  0  0  0
   -4.7912   -4.3682    1.0325 C   0  0  0  0  0  0  0  0  0  0  0  0
   -5.9430   -5.5420    0.5342 Cl  0  0  0  0  0  0  0  0  0  0  0  0
   -3.8425   -3.9014    0.1276 C   0  0  0  0  0  0  0  0  0  0  0  0
   -2.9034   -2.9484    0.5320 C   0  0  0  0  0  0  0  0  0  0  0  0
   -0.5573   -1.5917    1.7258 N   0  0  0  0  0  0  0  0  0  0  0  0
    0.1534   -2.7892    1.6915 C   0  0  0  0  0  0  0  0  0  0  0  0
    1.3664   -2.5237    1.1216 C   0  0  0  0  0  0  0  0  0  0  0  0
    1.3966   -1.1665    0.8683 N   0  0  0  0  0  4  0  0  0  0  0  0
    2.5398   -0.3911    0.3472 C   0  0  0  0  0  0  0  0  0  0  0  0
    2.3019    0.3031   -1.0188 C   0  0  0  0  0  0  0  0  0  0  0  0
    1.1516    1.1462   -0.9039 O   0  0  0  0  0  0  0  0  0  0  0  0
    1.1294    2.2616   -1.7976 C   0  0  0  0  0  0  0  0  0  0  0  0
    1.9898    3.3942   -1.2905 C   0  0  0  0  0  0  0  0  0  0  0  0
    3.0338    3.8703   -2.1038 C   0  0  0  0  0  0  0  0  0  0  0  0
    3.8494    4.9203   -1.6762 C   0  0  0  0  0  0  0  0  0  0  0  0
    3.6268    5.5088   -0.4347 C   0  0  0  0  0  0  0  0  0  0  0  0
    4.6370    6.7958    0.0927 Cl  0  0  0  0  0  0  0  0  0  0  0  0
    2.5945    5.0604    0.3835 C   0  0  0  0  0  0  0  0  0  0  0  0
    1.7782    4.0096   -0.0432 C   0  0  0  0  0  0  0  0  0  0  0  0
    0.5178    3.4988    1.0242 Cl  0  0  0  0  0  0  0  0  0  0  0  0
    2.2431   -0.6966   -2.1675 C   0  0  0  0  0  0  0  0  0  0  0  0
    3.4710   -1.0365   -2.7787 C   0  0  0  0  0  0  0  0  0  0  0  0
    3.5310   -1.9558   -3.8284 C   0  0  0  0  0  0  0  0  0  0  0  0
    2.3647   -2.5539   -4.2874 C   0  0  0  0  0  0  0  0  0  0  0  0
    2.4345   -3.6899   -5.5743 Cl  0  0  0  0  0  0  0  0  0  0  0  0
    1.1414   -2.2396   -3.7064 C   0  0  0  0  0  0  0  0  0  0  0  0
    1.0776   -1.3187   -2.6528 C   0  0  0  0  0  0  0  0  0  0  0  0
   -0.4958   -1.0117   -2.0137 Cl  0  0  0  0  0  0  0  0  0  0  0  0
    0.2255   -0.6140    1.2346 C   0  0  0  0  0  0  0  0  0  0  0  0
   -2.2918    0.9334    3.2313 C   0  0  0  0  0  0  0  0  0  0  0  0
   -2.6866    2.2665    3.0853 C   0  0  0  0  0  0  0  0  0  0  0  0
   -3.6568    2.1955   -0.1729 H   0  0  0  0  0  0  0  0  0  0  0  0
   -2.9685   -0.1441    0.0603 H   0  0  0  0  0  0  0  0  0  0  0  0
   -1.7368   -1.5819    3.4019 H   0  0  0  0  0  0  0  0  0  0  0  0
   -3.9221   -2.5622    3.7665 H   0  0  0  0  0  0  0  0  0  0  0  0
   -5.5601   -4.2433    3.0419 H   0  0  0  0  0  0  0  0  0  0  0  0
   -3.8347   -4.2708   -0.8955 H   0  0  0  0  0  0  0  0  0  0  0  0
   -2.1831   -2.5932   -0.1998 H   0  0  0  0  0  0  0  0  0  0  0  0
   -0.3021   -3.6870    2.0753 H   0  0  0  0  0  0  0  0  0  0  0  0
    2.2257   -3.1277    0.8862 H   0  0  0  0  0  0  0  0  0  0  0  0
    3.4163   -1.0481    0.3024 H   0  0  0  0  0  0  0  0  0  0  0  0
    2.7418    0.3772    1.1049 H   0  0  0  0  0  0  0  0  0  0  0  0
    3.1760    0.9478   -1.1805 H   0  0  0  0  0  0  0  0  0  0  0  0
    1.4184    1.9451   -2.8066 H   0  0  0  0  0  0  0  0  0  0  0  0
    0.0934    2.6127   -1.8673 H   0  0  0  0  0  0  0  0  0  0  0  0
    3.2179    3.4347   -3.0850 H   0  0  0  0  0  0  0  0  0  0  0  0
    4.6506    5.2805   -2.3183 H   0  0  0  0  0  0  0  0  0  0  0  0
    2.4239    5.5335    1.3476 H   0  0  0  0  0  0  0  0  0  0  0  0
    4.4050   -0.5811   -2.4483 H   0  0  0  0  0  0  0  0  0  0  0  0
    4.4887   -2.1972   -4.2860 H   0  0  0  0  0  0  0  0  0  0  0  0
    0.2346   -2.7110   -4.0800 H   0  0  0  0  0  0  0  0  0  0  0  0
   -0.0149    0.4401    1.1642 H   0  0  0  0  0  0  0  0  0  0  0  0
   -1.9134    0.6115    4.2008 H   0  0  0  0  0  0  0  0  0  0  0  0
   -2.6123    2.9503    3.9283 H   0  0  0  0  0  0  0  0  0  0  0  0
  1  2  1  0
  2  3  2  0
  3  4  1  0
  4  5  2  0
  5  6  1  0
  6  7  1  0
  7  8  2  0
  8  9  1  0
  9 10  2  0
 10 11  1  0
 10 12  1  0
 12 13  2  0
  6 14  1  0
 14 15  1  0
 15 16  2  0
 16 17  1  0
 17 18  1  0
 18 19  1  0
 19 20  1  0
 20 21  1  0
 21 22  1  0
 22 23  2  0
 23 24  1  0
 24 25  2  0
 25 26  1  0
 25 27  1  0
 27 28  2  0
 28 29  1  0
 19 30  1  0
 30 31  2  0
 31 32  1  0
 32 33  2  0
 33 34  1  0
 33 35  1  0
 35 36  2  0
 36 37  1  0
 17 38  2  0
  5 39  1  0
 39 40  2  0
 40  2  1  0
 13  7  1  0
 38 14  1  0
 28 22  1  0
 36 30  1  0
  3 41  1  0
  4 42  1  0
  6 43  1  0
  8 44  1  0
  9 45  1  0
 12 46  1  0
 13 47  1  0
 15 48  1  0
 16 49  1  0
 18 50  1  0
 18 51  1  0
 19 52  1  0
 21 53  1  0
 21 54  1  0
 23 55  1  0
 24 56  1  0
 27 57  1  0
 31 58  1  0
 32 59  1  0
 35 60  1  0
 38 61  1  0
 39 62  1  0
 40 63  1  0
M  CHG  1  17   1
M  END
$$$$
