
     RDKit          3D

 40 43  0  0  0  0  0  0  0  0999 V2000
   -1.3557    3.0566   -2.5787 C   0  0  0  0  0  0  0  0  0  0  0  0
   -1.4024    3.4357   -1.2931 C   0  0  0  0  0  0  0  0  0  0  0  0
   -1.7988    2.6225   -0.0848 C   0  0  0  0  0  0  0  0  0  0  0  0
   -2.0707    1.2223   -0.4085 N   0  0  0  0  0  0  0  0  0  0  0  0
   -1.0907    0.2416   -0.4665 C   0  0  0  0  0  0  0  0  0  0  0  0
    0.5733    0.6977   -0.1465 S   0  0  0  0  0  0  0  0  0  0  0  0
    1.2175   -0.8827    0.4764 C   0  0  0  0  0  0  0  0  0  0  0  0
    2.6107   -0.6793    1.0327 C   0  0  0  0  0  0  0  0  0  0  0  0
    3.6923   -1.0224    0.3121 C   0  0  0  0  0  0  0  0  0  0  0  0
    5.0420   -0.8178    0.8788 C   0  0  0  0  0  0  0  0  0  0  0  0
    6.0343   -1.1290    0.2266 O   0  0  0  0  0  0  0  0  0  0  0  0
    5.0498   -0.2793    2.1403 N   0  0  0  0  0  0  0  0  0  0  0  0
    6.1837    0.0021    2.8709 C   0  0  0  0  0  0  0  0  0  0  0  0
    5.9347    0.5132    4.0821 C   0  0  0  0  0  0  0  0  0  0  0  0
    4.2226    0.6674    4.3718 S   0  0  0  0  0  0  0  0  0  0  0  0
    3.8679    0.0125    2.7807 C   0  0  0  0  0  0  0  0  0  0  0  0
    2.6805   -0.1620    2.3115 N   0  0  0  0  0  0  0  0  0  0  0  0
   -1.3179   -0.9975   -0.7598 N   0  0  0  0  0  0  0  0  0  0  0  0
   -2.6289   -1.3925   -1.0338 C   0  0  0  0  0  0  0  0  0  0  0  0
   -2.8778   -2.7286   -1.3580 C   0  0  0  0  0  0  0  0  0  0  0  0
   -4.1763   -3.1637   -1.6377 C   0  0  0  0  0  0  0  0  0  0  0  0
   -5.2389   -2.2621   -1.5949 C   0  0  0  0  0  0  0  0  0  0  0  0
   -5.0015   -0.9266   -1.2727 C   0  0  0  0  0  0  0  0  0  0  0  0
   -3.6961   -0.5025   -0.9947 C   0  0  0  0  0  0  0  0  0  0  0  0
   -3.4055    0.8990   -0.6508 C   0  0  0  0  0  0  0  0  0  0  0  0
   -4.3388    1.6968   -0.5901 O   0  0  0  0  0  0  0  0  0  0  0  0
   -1.6202    2.0571   -2.9066 H   0  0  0  0  0  0  0  0  0  0  0  0
   -1.0512    3.7599   -3.3484 H   0  0  0  0  0  0  0  0  0  0  0  0
   -1.1270    4.4642   -1.0633 H   0  0  0  0  0  0  0  0  0  0  0  0
   -1.0130    2.6905    0.6736 H   0  0  0  0  0  0  0  0  0  0  0  0
   -2.6860    3.0854    0.3629 H   0  0  0  0  0  0  0  0  0  0  0  0
    1.2315   -1.6146   -0.3391 H   0  0  0  0  0  0  0  0  0  0  0  0
    0.5633   -1.2739    1.2640 H   0  0  0  0  0  0  0  0  0  0  0  0
    3.6392   -1.4354   -0.6869 H   0  0  0  0  0  0  0  0  0  0  0  0
    7.1600   -0.1962    2.4463 H   0  0  0  0  0  0  0  0  0  0  0  0
    6.6806    0.8017    4.8101 H   0  0  0  0  0  0  0  0  0  0  0  0
   -2.0522   -3.4349   -1.3930 H   0  0  0  0  0  0  0  0  0  0  0  0
   -4.3562   -4.2063   -1.8888 H   0  0  0  0  0  0  0  0  0  0  0  0
   -6.2499   -2.5985   -1.8122 H   0  0  0  0  0  0  0  0  0  0  0  0
   -5.8282   -0.2204   -1.2387 H   0  0  0  0  0  0  0  0  0  0  0  0
  1  2  2  0
  2  3  1  0
  3  4  1  0
  4  5  1  0
  5  6  1  0
  6  7  1  0
  7  8  1  0
  8  9  2  0
  9 10  1  0
 10 11  2  0
 10 12  1  0
 12 13  1  0
 13 14  2  0
 14 15  1  0
 15 16  1  0
 16 17  2  0
  5 18  2  0
 18 19  1  0
 19 20  2  0
 20 21  1  0
 21 22  2  0
 22 23  1  0
 23 24  2  0
 24 25  1  0
 25 26  2  0
 25  4  1  0
 17  8  1  0
 24 19  1  0
 16 12  1  0
  1 27  1  0
  1 28  1  0
  2 29  1  0
  3 30  1  0
  3 31  1  0
  7 32  1  0
  7 33  1  0
  9 34  1  0
 13 35  1  0
 14 36  1  0
 20 37  1  0
 21 38  1  0
 22 39  1  0
 23 40  1  0
M  END
$$$$
