
     RDKit          3D

 61 66  0  0  0  0  0  0  0  0999 V2000
   -2.2205    0.4517   -2.0585 O   0  0  0  0  0  0  0  0  0  0  0  0
   -2.7205    0.3651   -0.9320 C   0  0  0  0  0  0  0  0  0  0  0  0
   -1.8979    0.8312    0.2533 C   0  0  0  0  0  0  0  0  0  0  0  0
   -0.6174    0.1655    0.2799 N   0  0  0  0  0  0  0  0  0  0  0  0
   -0.5107   -1.1394    0.5857 N   0  0  0  0  0  0  0  0  0  0  0  0
    0.7924   -1.3600    0.6707 N   0  0  0  0  0  0  0  0  0  0  0  0
    1.4191   -0.1534    0.4523 C   0  0  0  0  0  0  0  0  0  0  0  0
    2.8671    0.0019    0.4693 C   0  0  0  0  0  0  0  0  0  0  0  0
    3.4652    1.2233    0.1455 C   0  0  0  0  0  0  0  0  0  0  0  0
    4.8600    1.3580    0.1523 C   0  0  0  0  0  0  0  0  0  0  0  0
    5.7081    0.2855    0.4748 C   0  0  0  0  0  0  0  0  0  0  0  0
    7.0984    0.4780    0.4694 N   0  0  0  0  0  0  0  0  0  0  0  0
    7.6430    0.8803   -0.8526 C   0  0  0  0  0  0  0  0  0  0  0  0
    9.1146    1.3062   -0.7086 C   0  0  0  0  0  0  0  0  0  0  0  0
    9.9130    0.2742   -0.1085 O   0  0  0  0  0  0  0  0  0  0  0  0
    9.3998   -0.0440    1.1958 C   0  0  0  0  0  0  0  0  0  0  0  0
    7.9474   -0.5428    1.1203 C   0  0  0  0  0  0  0  0  0  0  0  0
    5.0929   -0.9259    0.8182 C   0  0  0  0  0  0  0  0  0  0  0  0
    3.6968   -1.0721    0.8072 C   0  0  0  0  0  0  0  0  0  0  0  0
    0.5440    0.8465    0.2428 N   0  0  0  0  0  0  0  0  0  0  0  0
   -4.0643    0.0113   -0.6887 N   0  0  0  0  0  0  0  0  0  0  0  0
   -4.5174   -0.3687    0.6059 C   0  0  0  0  0  0  0  0  0  0  0  0
   -3.9031   -1.4345    1.2795 C   0  0  0  0  0  0  0  0  0  0  0  0
   -4.3024   -1.7751    2.5720 C   0  0  0  0  0  0  0  0  0  0  0  0
   -5.3211   -1.0590    3.1962 C   0  0  0  0  0  0  0  0  0  0  0  0
   -5.9495   -0.0093    2.5257 C   0  0  0  0  0  0  0  0  0  0  0  0
   -5.5533    0.3387    1.2274 C   0  0  0  0  0  0  0  0  0  0  0  0
   -6.2425    1.4373    0.4740 C   0  0  0  0  0  0  0  0  0  0  0  0
   -7.0753    0.8341   -0.6479 C   0  0  0  0  0  0  0  0  0  0  0  0
   -6.3581    0.0518   -1.7323 C   0  0  0  0  0  0  0  0  0  0  0  0
   -7.1789   -0.3174   -2.8253 C   0  0  0  0  0  0  0  0  0  0  0  0
   -6.6685   -0.9869   -3.9329 C   0  0  0  0  0  0  0  0  0  0  0  0
   -5.3230   -1.3085   -3.9715 C   0  0  0  0  0  0  0  0  0  0  0  0
   -4.4970   -0.9641   -2.8992 C   0  0  0  0  0  0  0  0  0  0  0  0
   -4.9830   -0.2843   -1.7619 C   0  0  0  0  0  0  0  0  0  0  0  0
   -2.3557    0.6988    1.2325 H   0  0  0  0  0  0  0  0  0  0  0  0
   -1.7236    1.9059    0.1292 H   0  0  0  0  0  0  0  0  0  0  0  0
    2.8534    2.0849   -0.1161 H   0  0  0  0  0  0  0  0  0  0  0  0
    5.2828    2.3329   -0.0830 H   0  0  0  0  0  0  0  0  0  0  0  0
    7.0889    1.7163   -1.2908 H   0  0  0  0  0  0  0  0  0  0  0  0
    7.5767    0.0271   -1.5402 H   0  0  0  0  0  0  0  0  0  0  0  0
    9.5378    1.5185   -1.6961 H   0  0  0  0  0  0  0  0  0  0  0  0
    9.2011    2.2182   -0.1050 H   0  0  0  0  0  0  0  0  0  0  0  0
    9.4814    0.8420    1.8375 H   0  0  0  0  0  0  0  0  0  0  0  0
   10.0390   -0.8243    1.6204 H   0  0  0  0  0  0  0  0  0  0  0  0
    7.9219   -1.4723    0.5374 H   0  0  0  0  0  0  0  0  0  0  0  0
    7.5957   -0.7466    2.1386 H   0  0  0  0  0  0  0  0  0  0  0  0
    5.6820   -1.7991    1.0825 H   0  0  0  0  0  0  0  0  0  0  0  0
    3.2705   -2.0392    1.0632 H   0  0  0  0  0  0  0  0  0  0  0  0
   -3.1243   -2.0241    0.7981 H   0  0  0  0  0  0  0  0  0  0  0  0
   -3.8227   -2.6040    3.0873 H   0  0  0  0  0  0  0  0  0  0  0  0
   -5.6356   -1.3271    4.2023 H   0  0  0  0  0  0  0  0  0  0  0  0
   -6.7559    0.5279    3.0197 H   0  0  0  0  0  0  0  0  0  0  0  0
   -5.5059    2.1522    0.0872 H   0  0  0  0  0  0  0  0  0  0  0  0
   -6.8954    2.0076    1.1460 H   0  0  0  0  0  0  0  0  0  0  0  0
   -7.8375    0.1735   -0.2126 H   0  0  0  0  0  0  0  0  0  0  0  0
   -7.6094    1.6635   -1.1313 H   0  0  0  0  0  0  0  0  0  0  0  0
   -8.2385   -0.0643   -2.8166 H   0  0  0  0  0  0  0  0  0  0  0  0
   -7.3192   -1.2517   -4.7620 H   0  0  0  0  0  0  0  0  0  0  0  0
   -4.9081   -1.8349   -4.8269 H   0  0  0  0  0  0  0  0  0  0  0  0
   -3.4568   -1.2768   -2.9624 H   0  0  0  0  0  0  0  0  0  0  0  0
  1  2  2  0
  2  3  1  0
  3  4  1  0
  4  5  1  0
  5  6  2  0
  6  7  1  0
  7  8  1  0
  8  9  2  0
  9 10  1  0
 10 11  2  0
 11 12  1  0
 12 13  1  0
 13 14  1  0
 14 15  1  0
 15 16  1  0
 16 17  1  0
 11 18  1  0
 18 19  2  0
  7 20  2  0
  2 21  1  0
 21 22  1  0
 22 23  2  0
 23 24  1  0
 24 25  2  0
 25 26  1  0
 26 27  2  0
 27 28  1  0
 28 29  1  0
 29 30  1  0
 30 31  2  0
 31 32  1  0
 32 33  2  0
 33 34  1  0
 34 35  2  0
 20  4  1  0
 35 21  1  0
 19  8  1  0
 27 22  1  0
 35 30  1  0
 17 12  1  0
  3 36  1  0
  3 37  1  0
  9 38  1  0
 10 39  1  0
 13 40  1  0
 13 41  1  0
 14 42  1  0
 14 43  1  0
 16 44  1  0
 16 45  1  0
 17 46  1  0
 17 47  1  0
 18 48  1  0
 19 49  1  0
 23 50  1  0
 24 51  1  0
 25 52  1  0
 26 53  1  0
 28 54  1  0
 28 55  1  0
 29 56  1  0
 29 57  1  0
 31 58  1  0
 32 59  1  0
 33 60  1  0
 34 61  1  0
M  END
$$$$
