
     RDKit          3D

 52 54  0  0  0  0  0  0  0  0999 V2000
    2.2925   -0.2938   -0.8386 O   0  0  0  0  0  0  0  0  0  0  0  0
    2.8813    0.5830   -0.2121 C   0  0  0  0  0  0  0  0  0  0  0  0
    4.3870    0.6656   -0.0835 C   0  0  0  0  0  0  0  0  0  0  0  0
    5.0817   -0.4599   -0.8447 C   0  0  0  0  0  0  0  0  0  0  0  0
    6.5808   -0.3652   -0.7101 C   0  0  0  0  0  0  0  0  0  0  0  0
    7.3298    0.3869   -1.6249 C   0  0  0  0  0  0  0  0  0  0  0  0
    8.7145    0.4934   -1.4858 C   0  0  0  0  0  0  0  0  0  0  0  0
    9.3616   -0.1468   -0.4305 C   0  0  0  0  0  0  0  0  0  0  0  0
    8.6251   -0.8940    0.4867 C   0  0  0  0  0  0  0  0  0  0  0  0
    7.2404   -1.0020    0.3496 C   0  0  0  0  0  0  0  0  0  0  0  0
    2.2295    1.6059    0.4670 N   0  0  0  0  0  0  0  0  0  0  0  0
    0.8691    1.8746    0.5608 C   0  0  0  0  0  0  0  0  0  0  0  0
    0.4645    3.1869    1.5092 S   0  0  0  0  0  0  0  0  0  0  0  0
    0.0675    1.0027   -0.1381 N   0  0  0  0  0  0  0  0  0  0  0  0
   -1.3235    0.9165   -0.3625 C   0  0  0  0  0  0  0  0  0  0  0  0
   -2.2738    1.8612    0.0260 C   0  0  0  0  0  0  0  0  0  0  0  0
   -3.6336    1.6669   -0.2515 C   0  0  0  0  0  0  0  0  0  0  0  0
   -4.0528    0.5110   -0.9109 C   0  0  0  0  0  0  0  0  0  0  0  0
   -5.7794    0.2756   -1.2794 S   0  0  0  0  0  6  0  0  0  0  0  0
   -5.8619   -0.6149   -2.4179 O   0  0  0  0  0  0  0  0  0  0  0  0
   -6.3996    1.5833   -1.3034 O   0  0  0  0  0  0  0  0  0  0  0  0
   -6.3608   -0.5550    0.0735 N   0  0  0  0  0  0  0  0  0  0  0  0
   -5.9851   -1.9875    0.2153 C   0  0  0  0  0  0  0  0  0  0  0  0
   -6.4897   -2.5260    1.5580 C   0  0  0  0  0  0  0  0  0  0  0  0
   -5.9015   -1.8594    2.6846 O   0  0  0  0  0  0  0  0  0  0  0  0
   -5.5675   -0.4875    2.4292 C   0  0  0  0  0  0  0  0  0  0  0  0
   -6.4557    0.1730    1.3693 C   0  0  0  0  0  0  0  0  0  0  0  0
   -3.1154   -0.4250   -1.3438 C   0  0  0  0  0  0  0  0  0  0  0  0
   -1.7613   -0.2208   -1.0630 C   0  0  0  0  0  0  0  0  0  0  0  0
    4.7115    1.6409   -0.4665 H   0  0  0  0  0  0  0  0  0  0  0  0
    4.6436    0.6195    0.9820 H   0  0  0  0  0  0  0  0  0  0  0  0
    4.7418   -1.4372   -0.4783 H   0  0  0  0  0  0  0  0  0  0  0  0
    4.8063   -0.4309   -1.9070 H   0  0  0  0  0  0  0  0  0  0  0  0
    6.8404    0.8919   -2.4548 H   0  0  0  0  0  0  0  0  0  0  0  0
    9.2892    1.0747   -2.2022 H   0  0  0  0  0  0  0  0  0  0  0  0
   10.4401   -0.0650   -0.3242 H   0  0  0  0  0  0  0  0  0  0  0  0
    9.1302   -1.3948    1.3086 H   0  0  0  0  0  0  0  0  0  0  0  0
    6.6806   -1.5899    1.0735 H   0  0  0  0  0  0  0  0  0  0  0  0
    2.8006    2.2662    0.9799 H   0  0  0  0  0  0  0  0  0  0  0  0
    0.6004    0.2447   -0.5700 H   0  0  0  0  0  0  0  0  0  0  0  0
   -2.0062    2.7824    0.5264 H   0  0  0  0  0  0  0  0  0  0  0  0
   -4.3499    2.4317    0.0419 H   0  0  0  0  0  0  0  0  0  0  0  0
   -6.4370   -2.5627   -0.5988 H   0  0  0  0  0  0  0  0  0  0  0  0
   -4.8971   -2.0944    0.1733 H   0  0  0  0  0  0  0  0  0  0  0  0
   -6.2569   -3.5915    1.6501 H   0  0  0  0  0  0  0  0  0  0  0  0
   -7.5781   -2.4196    1.6348 H   0  0  0  0  0  0  0  0  0  0  0  0
   -5.6495    0.0511    3.3786 H   0  0  0  0  0  0  0  0  0  0  0  0
   -4.5150   -0.4540    2.1256 H   0  0  0  0  0  0  0  0  0  0  0  0
   -6.1851    1.2269    1.2646 H   0  0  0  0  0  0  0  0  0  0  0  0
   -7.5052    0.1380    1.6846 H   0  0  0  0  0  0  0  0  0  0  0  0
   -3.4224   -1.3084   -1.8991 H   0  0  0  0  0  0  0  0  0  0  0  0
   -1.0460   -0.9680   -1.4038 H   0  0  0  0  0  0  0  0  0  0  0  0
  1  2  2  0
  2  3  1  0
  3  4  1  0
  4  5  1  0
  5  6  2  0
  6  7  1  0
  7  8  2  0
  8  9  1  0
  9 10  2  0
  2 11  1  0
 11 12  1  0
 12 13  2  0
 12 14  1  0
 14 15  1  0
 15 16  2  0
 16 17  1  0
 17 18  2  0
 18 19  1  0
 19 20  2  0
 19 21  2  0
 19 22  1  0
 22 23  1  0
 23 24  1  0
 24 25  1  0
 25 26  1  0
 26 27  1  0
 18 28  1  0
 28 29  2  0
 10  5  1  0
 29 15  1  0
 27 22  1  0
  3 30  1  0
  3 31  1  0
  4 32  1  0
  4 33  1  0
  6 34  1  0
  7 35  1  0
  8 36  1  0
  9 37  1  0
 10 38  1  0
 11 39  1  0
 14 40  1  0
 16 41  1  0
 17 42  1  0
 23 43  1  0
 23 44  1  0
 24 45  1  0
 24 46  1  0
 26 47  1  0
 26 48  1  0
 27 49  1  0
 27 50  1  0
 28 51  1  0
 29 52  1  0
M  END
$$$$
