
     RDKit          3D

 43 46  0  0  0  0  0  0  0  0999 V2000
    7.6245    1.9318    0.4324 C   0  0  0  0  0  0  0  0  0  0  0  0
    6.2206    1.4218    0.2879 C   0  0  0  0  0  0  0  0  0  0  0  0
    5.5577    1.5057   -0.9423 C   0  0  0  0  0  0  0  0  0  0  0  0
    4.2417    1.0547   -1.0681 C   0  0  0  0  0  0  0  0  0  0  0  0
    3.5653    0.5341    0.0412 C   0  0  0  0  0  0  0  0  0  0  0  0
    2.1591    0.0703   -0.1381 C   0  0  0  0  0  0  0  0  0  0  0  0
    1.8335   -0.3887   -1.2261 O   0  0  0  0  0  0  0  0  0  0  0  0
    1.3513    0.2529    0.9554 N   0  0  0  0  0  0  0  0  0  0  0  0
    0.0188   -0.1114    1.0543 C   0  0  0  0  0  0  0  0  0  0  0  0
   -0.5645    0.2580    2.2068 N   0  0  0  0  0  0  0  0  0  0  0  0
   -1.8677   -0.0699    2.3587 C   0  0  0  0  0  0  0  0  0  0  0  0
   -2.5903   -0.7491    1.4061 C   0  0  0  0  0  0  0  0  0  0  0  0
   -1.9088   -1.0916    0.2593 C   0  0  0  0  0  0  0  0  0  0  0  0
   -0.6062   -0.7830    0.0788 N   0  0  0  0  0  0  0  0  0  0  0  0
   -2.5881   -1.8493   -0.8496 C   0  0  0  0  0  0  0  0  0  0  0  0
   -4.0945   -1.5658   -0.8986 C   0  0  0  0  0  0  0  0  0  0  0  0
   -4.4234   -0.1945   -1.4145 C   0  0  0  0  0  0  0  0  0  0  0  0
   -3.6843    0.9014   -1.8167 C   0  0  0  0  0  0  0  0  0  0  0  0
   -4.6154    1.8949   -2.2053 C   0  0  0  0  0  0  0  0  0  0  0  0
   -5.8608    1.3441   -2.0250 C   0  0  0  0  0  0  0  0  0  0  0  0
   -5.7543    0.0772   -1.5521 O   0  0  0  0  0  0  0  0  0  0  0  0
   -4.7200   -1.8208    0.4788 C   0  0  0  0  0  0  0  0  0  0  0  0
   -4.0070   -1.0893    1.5960 C   0  0  0  0  0  0  0  0  0  0  0  0
   -4.5512   -0.8354    2.6666 O   0  0  0  0  0  0  0  0  0  0  0  0
    4.2250    0.4451    1.2735 C   0  0  0  0  0  0  0  0  0  0  0  0
    5.5428    0.8958    1.3952 C   0  0  0  0  0  0  0  0  0  0  0  0
    8.1548    1.9017   -0.5253 H   0  0  0  0  0  0  0  0  0  0  0  0
    7.6115    2.9644    0.7948 H   0  0  0  0  0  0  0  0  0  0  0  0
    8.1909    1.3138    1.1370 H   0  0  0  0  0  0  0  0  0  0  0  0
    6.0624    1.9171   -1.8140 H   0  0  0  0  0  0  0  0  0  0  0  0
    3.7424    1.1143   -2.0335 H   0  0  0  0  0  0  0  0  0  0  0  0
    1.6756    0.7585    1.7633 H   0  0  0  0  0  0  0  0  0  0  0  0
   -2.3190    0.2427    3.2971 H   0  0  0  0  0  0  0  0  0  0  0  0
   -2.4229   -2.9194   -0.6700 H   0  0  0  0  0  0  0  0  0  0  0  0
   -2.1160   -1.6086   -1.8102 H   0  0  0  0  0  0  0  0  0  0  0  0
   -4.5415   -2.2754   -1.6086 H   0  0  0  0  0  0  0  0  0  0  0  0
   -2.6049    0.9830   -1.8357 H   0  0  0  0  0  0  0  0  0  0  0  0
   -4.4042    2.8881   -2.5758 H   0  0  0  0  0  0  0  0  0  0  0  0
   -6.8690    1.7023   -2.1804 H   0  0  0  0  0  0  0  0  0  0  0  0
   -4.6763   -2.8909    0.7156 H   0  0  0  0  0  0  0  0  0  0  0  0
   -5.7738   -1.5190    0.4910 H   0  0  0  0  0  0  0  0  0  0  0  0
    3.7426    0.0053    2.1417 H   0  0  0  0  0  0  0  0  0  0  0  0
    6.0437    0.8244    2.3588 H   0  0  0  0  0  0  0  0  0  0  0  0
  1  2  1  0
  2  3  2  0
  3  4  1  0
  4  5  2  0
  5  6  1  0
  6  7  2  0
  6  8  1  0
  8  9  1  0
  9 10  2  0
 10 11  1  0
 11 12  2  0
 12 13  1  0
 13 14  2  0
 13 15  1  0
 15 16  1  0
 16 17  1  0
 17 18  2  0
 18 19  1  0
 19 20  2  0
 20 21  1  0
 16 22  1  0
 22 23  1  0
 23 24  2  0
  5 25  1  0
 25 26  2  0
 26  2  1  0
 14  9  1  0
 21 17  1  0
 23 12  1  0
  1 27  1  0
  1 28  1  0
  1 29  1  0
  3 30  1  0
  4 31  1  0
  8 32  1  0
 11 33  1  0
 15 34  1  0
 15 35  1  0
 16 36  1  0
 18 37  1  0
 19 38  1  0
 20 39  1  0
 22 40  1  0
 22 41  1  0
 25 42  1  0
 26 43  1  0
M  END
$$$$
