
     RDKit          3D

 38 39  0  0  0  0  0  0  0  0999 V2000
   -2.5112   -2.7747   -2.3543 O   0  0  0  0  0  0  0  0  0  0  0  0
   -2.9610   -2.9590   -1.2360 C   0  0  0  0  0  0  0  0  0  0  0  0
   -2.9123   -4.1736   -0.6604 O   0  0  0  0  0  0  0  0  0  0  0  0
   -3.6272   -1.9272   -0.3716 C   0  0  0  0  0  0  0  0  0  0  0  0
   -2.7726   -1.5545    0.8296 C   0  0  0  0  0  0  0  0  0  0  0  0
   -1.4588   -0.9256    0.3930 C   0  0  0  0  0  0  0  0  0  0  0  0
   -0.4112   -1.7004    0.3429 N   0  0  0  0  0  0  0  0  0  0  0  0
    0.8001   -1.1277    0.0540 N   0  0  0  0  0  0  0  0  0  0  0  0
    1.3909   -0.2289    0.9393 C   0  0  0  0  0  0  0  0  0  0  0  0
    0.8602    0.2695    1.9278 O   0  0  0  0  0  0  0  0  0  0  0  0
    2.7632    0.1986    0.5781 C   0  0  0  0  0  0  0  0  0  0  0  0
    2.9830    1.5859    0.5271 C   0  0  0  0  0  0  0  0  0  0  0  0
    4.2374    2.0914    0.1828 C   0  0  0  0  0  0  0  0  0  0  0  0
    5.2817    1.2155   -0.1053 C   0  0  0  0  0  0  0  0  0  0  0  0
    5.0759   -0.1652   -0.0406 C   0  0  0  0  0  0  0  0  0  0  0  0
    3.8191   -0.6792    0.3044 C   0  0  0  0  0  0  0  0  0  0  0  0
    3.6638   -2.5684    0.4252 Br  0  0  0  0  0  0  0  0  0  0  0  0
   -1.5177    0.4954   -0.0377 C   0  0  0  0  0  0  0  0  0  0  0  0
   -1.8772    1.4923    0.8709 C   0  0  0  0  0  0  0  0  0  0  0  0
   -1.9506    2.8180    0.4426 C   0  0  0  0  0  0  0  0  0  0  0  0
   -1.6734    3.1402   -0.8879 C   0  0  0  0  0  0  0  0  0  0  0  0
   -1.3184    2.1395   -1.7947 C   0  0  0  0  0  0  0  0  0  0  0  0
   -1.2407    0.8132   -1.3717 C   0  0  0  0  0  0  0  0  0  0  0  0
   -2.4168   -4.7219   -1.3035 H   0  0  0  0  0  0  0  0  0  0  0  0
   -3.8365   -1.0501   -0.9933 H   0  0  0  0  0  0  0  0  0  0  0  0
   -4.5971   -2.3213   -0.0513 H   0  0  0  0  0  0  0  0  0  0  0  0
   -2.5543   -2.4375    1.4422 H   0  0  0  0  0  0  0  0  0  0  0  0
   -3.3218   -0.8528    1.4668 H   0  0  0  0  0  0  0  0  0  0  0  0
    1.4362   -1.7533   -0.4321 H   0  0  0  0  0  0  0  0  0  0  0  0
    2.1693    2.2736    0.7542 H   0  0  0  0  0  0  0  0  0  0  0  0
    4.3977    3.1673    0.1428 H   0  0  0  0  0  0  0  0  0  0  0  0
    6.2623    1.6073   -0.3693 H   0  0  0  0  0  0  0  0  0  0  0  0
    5.9093   -0.8329   -0.2514 H   0  0  0  0  0  0  0  0  0  0  0  0
   -2.0628    1.2484    1.9134 H   0  0  0  0  0  0  0  0  0  0  0  0
   -2.2173    3.6009    1.1483 H   0  0  0  0  0  0  0  0  0  0  0  0
   -1.7294    4.1742   -1.2172 H   0  0  0  0  0  0  0  0  0  0  0  0
   -1.1060    2.3929   -2.8306 H   0  0  0  0  0  0  0  0  0  0  0  0
   -0.9758    0.0301   -2.0782 H   0  0  0  0  0  0  0  0  0  0  0  0
  1  2  2  0
  2  3  1  0
  2  4  1  0
  4  5  1  0
  5  6  1  0
  6  7  2  3
  7  8  1  0
  8  9  1  0
  9 10  2  0
  9 11  1  0
 11 12  2  0
 12 13  1  0
 13 14  2  0
 14 15  1  0
 15 16  2  0
 16 17  1  0
  6 18  1  0
 18 19  2  0
 19 20  1  0
 20 21  2  0
 21 22  1  0
 22 23  2  0
 16 11  1  0
 23 18  1  0
  3 24  1  0
  4 25  1  0
  4 26  1  0
  5 27  1  0
  5 28  1  0
  8 29  1  0
 12 30  1  0
 13 31  1  0
 14 32  1  0
 15 33  1  0
 19 34  1  0
 20 35  1  0
 21 36  1  0
 22 37  1  0
 23 38  1  0
M  END
$$$$
