
     RDKit          3D

 39 40  0  0  0  0  0  0  0  0999 V2000
   -3.5945    1.5604    1.4442 C   0  0  0  0  0  0  0  0  0  0  0  0
   -2.1222    1.3732    1.1137 C   0  0  0  0  0  0  0  0  0  0  0  0
   -1.9010    0.4154    0.0247 N   0  0  0  0  0  0  0  0  0  0  0  0
   -1.7018    0.9656   -1.3193 C   0  0  0  0  0  0  0  0  0  0  0  0
   -2.9965    1.0673   -2.1098 C   0  0  0  0  0  0  0  0  0  0  0  0
   -1.9365   -0.9696    0.1619 C   0  0  0  0  0  0  0  0  0  0  0  0
   -1.7528   -1.7118   -0.8118 O   0  0  0  0  0  0  0  0  0  0  0  0
   -2.1503   -1.5818    1.5462 C   0  0  0  0  0  0  0  0  0  0  0  0
   -0.7668   -2.6938    1.9702 S   0  0  0  0  0  0  0  0  0  0  0  0
    0.5510   -1.6047    1.7019 C   0  0  0  0  0  0  0  0  0  0  0  0
    0.8767   -0.5847    2.4547 N   0  0  0  0  0  0  0  0  0  0  0  0
    1.9060    0.0720    1.8204 N   0  0  0  0  0  0  0  0  0  0  0  0
    2.1941   -0.5585    0.6871 C   0  0  0  0  0  0  0  0  0  0  0  0
    3.2216   -0.1288   -0.2684 C   0  0  0  0  0  0  0  0  0  0  0  0
    3.6547    1.2020   -0.2417 C   0  0  0  0  0  0  0  0  0  0  0  0
    4.6312    1.6113   -1.1348 C   0  0  0  0  0  0  0  0  0  0  0  0
    5.2027    0.7956   -2.0430 N   0  0  0  0  0  0  0  0  0  0  0  0
    4.7854   -0.4869   -2.0483 C   0  0  0  0  0  0  0  0  0  0  0  0
    3.8174   -0.9897   -1.1922 C   0  0  0  0  0  0  0  0  0  0  0  0
    1.3288   -1.6332    0.5703 N   0  0  0  0  0  0  0  0  0  0  0  0
    1.1573   -2.5210   -0.5581 N   0  0  0  0  0  0  0  0  0  0  0  0
   -4.1407    1.9773    0.5941 H   0  0  0  0  0  0  0  0  0  0  0  0
   -3.7067    2.2517    2.2849 H   0  0  0  0  0  0  0  0  0  0  0  0
   -4.0732    0.6149    1.7138 H   0  0  0  0  0  0  0  0  0  0  0  0
   -1.6799    2.3373    0.8394 H   0  0  0  0  0  0  0  0  0  0  0  0
   -1.5789    1.0372    2.0010 H   0  0  0  0  0  0  0  0  0  0  0  0
   -1.2227    1.9478   -1.2430 H   0  0  0  0  0  0  0  0  0  0  0  0
   -1.0023    0.3218   -1.8654 H   0  0  0  0  0  0  0  0  0  0  0  0
   -3.6920    1.7700   -1.6428 H   0  0  0  0  0  0  0  0  0  0  0  0
   -3.4971    0.0964   -2.1836 H   0  0  0  0  0  0  0  0  0  0  0  0
   -2.7913    1.4230   -3.1241 H   0  0  0  0  0  0  0  0  0  0  0  0
   -3.0743   -2.1681    1.5116 H   0  0  0  0  0  0  0  0  0  0  0  0
   -2.2628   -0.8534    2.3459 H   0  0  0  0  0  0  0  0  0  0  0  0
    3.2418    1.9134    0.4678 H   0  0  0  0  0  0  0  0  0  0  0  0
    4.9906    2.6365   -1.1396 H   0  0  0  0  0  0  0  0  0  0  0  0
    5.2692   -1.1278   -2.7804 H   0  0  0  0  0  0  0  0  0  0  0  0
    3.5595   -2.0403   -1.2556 H   0  0  0  0  0  0  0  0  0  0  0  0
    0.9687   -3.4676   -0.2247 H   0  0  0  0  0  0  0  0  0  0  0  0
    0.2875   -2.2683   -1.0464 H   0  0  0  0  0  0  0  0  0  0  0  0
  1  2  1  0
  2  3  1  0
  3  4  1  0
  4  5  1  0
  3  6  1  0
  6  7  2  0
  6  8  1  0
  8  9  1  0
  9 10  1  0
 10 11  2  0
 11 12  1  0
 12 13  2  0
 13 14  1  0
 14 15  2  0
 15 16  1  0
 16 17  2  0
 17 18  1  0
 18 19  2  0
 13 20  1  0
 20 21  1  0
 20 10  1  0
 19 14  1  0
  1 22  1  0
  1 23  1  0
  1 24  1  0
  2 25  1  0
  2 26  1  0
  4 27  1  0
  4 28  1  0
  5 29  1  0
  5 30  1  0
  5 31  1  0
  8 32  1  0
  8 33  1  0
 15 34  1  0
 16 35  1  0
 18 36  1  0
 19 37  1  0
 21 38  1  0
 21 39  1  0
M  END
$$$$
