
     RDKit          3D

 48 50  0  0  0  0  0  0  0  0999 V2000
   -1.8807    1.3907   -1.4678 O   0  0  0  0  0  0  0  0  0  0  0  0
   -2.2453    1.6700   -0.3290 C   0  0  0  0  0  0  0  0  0  0  0  0
   -1.3134    1.7983    0.8572 C   0  0  0  0  0  0  0  0  0  0  0  0
    0.1563    1.5729    0.5050 C   0  0  0  0  0  0  0  0  0  0  0  0
    0.4681    0.1117    0.1578 C   0  0  0  0  0  0  0  0  0  0  0  0
    1.9118   -0.1232    0.0810 N   0  0  0  0  0  0  0  0  0  0  0  0
    2.5936   -0.4184    1.2498 C   0  0  0  0  0  0  0  0  0  0  0  0
    2.0994   -0.5226    2.3646 O   0  0  0  0  0  0  0  0  0  0  0  0
    4.0427   -0.5876    0.9730 C   0  0  0  0  0  0  0  0  0  0  0  0
    4.9200   -0.8720    1.9443 C   0  0  0  0  0  0  0  0  0  0  0  0
    6.3669   -1.0304    1.7479 C   0  0  0  0  0  0  0  0  0  0  0  0
    6.8655   -2.3125    1.4750 C   0  0  0  0  0  0  0  0  0  0  0  0
    8.2327   -2.5124    1.2713 C   0  0  0  0  0  0  0  0  0  0  0  0
    9.1143   -1.4352    1.3380 C   0  0  0  0  0  0  0  0  0  0  0  0
    8.6307   -0.1551    1.6092 C   0  0  0  0  0  0  0  0  0  0  0  0
    7.2631    0.0492    1.8137 C   0  0  0  0  0  0  0  0  0  0  0  0
    6.7260    1.6584    2.1519 Cl  0  0  0  0  0  0  0  0  0  0  0  0
    4.3596   -0.3526   -0.6970 S   0  0  0  0  0  0  0  0  0  0  0  0
    2.6713   -0.0139   -1.0661 C   0  0  0  0  0  0  0  0  0  0  0  0
    2.1683    0.3681   -2.6092 S   0  0  0  0  0  0  0  0  0  0  0  0
   -3.5690    1.9029   -0.0067 N   0  0  0  0  0  0  0  0  0  0  0  0
   -4.5245    1.5568   -0.9834 N   0  0  0  0  0  0  0  0  0  0  0  0
   -5.6132    0.8228   -0.5480 C   0  0  0  0  0  0  0  0  0  0  0  0
   -5.8413    0.6319    0.6446 O   0  0  0  0  0  0  0  0  0  0  0  0
   -6.4885    0.2334   -1.5995 C   0  0  0  0  0  0  0  0  0  0  0  0
   -6.5333    0.7377   -2.9070 C   0  0  0  0  0  0  0  0  0  0  0  0
   -7.3761    0.1487   -3.8559 C   0  0  0  0  0  0  0  0  0  0  0  0
   -8.1771   -0.9356   -3.4992 C   0  0  0  0  0  0  0  0  0  0  0  0
   -9.2118   -1.6547   -4.6698 Cl  0  0  0  0  0  0  0  0  0  0  0  0
   -8.1491   -1.4354   -2.1990 C   0  0  0  0  0  0  0  0  0  0  0  0
   -7.3086   -0.8489   -1.2488 C   0  0  0  0  0  0  0  0  0  0  0  0
   -1.4279    2.8126    1.2582 H   0  0  0  0  0  0  0  0  0  0  0  0
   -1.6300    1.0923    1.6335 H   0  0  0  0  0  0  0  0  0  0  0  0
    0.7620    1.8771    1.3679 H   0  0  0  0  0  0  0  0  0  0  0  0
    0.4537    2.2248   -0.3251 H   0  0  0  0  0  0  0  0  0  0  0  0
    0.0549   -0.5450    0.9330 H   0  0  0  0  0  0  0  0  0  0  0  0
   -0.0011   -0.1791   -0.7857 H   0  0  0  0  0  0  0  0  0  0  0  0
    4.5828   -0.9853    2.9729 H   0  0  0  0  0  0  0  0  0  0  0  0
    6.1923   -3.1654    1.4154 H   0  0  0  0  0  0  0  0  0  0  0  0
    8.6093   -3.5102    1.0581 H   0  0  0  0  0  0  0  0  0  0  0  0
   10.1784   -1.5916    1.1776 H   0  0  0  0  0  0  0  0  0  0  0  0
    9.3245    0.6804    1.6591 H   0  0  0  0  0  0  0  0  0  0  0  0
   -3.8919    1.7966    0.9564 H   0  0  0  0  0  0  0  0  0  0  0  0
   -4.1424    1.4227   -1.9198 H   0  0  0  0  0  0  0  0  0  0  0  0
   -5.9420    1.5995   -3.2044 H   0  0  0  0  0  0  0  0  0  0  0  0
   -7.4086    0.5446   -4.8683 H   0  0  0  0  0  0  0  0  0  0  0  0
   -8.7778   -2.2761   -1.9168 H   0  0  0  0  0  0  0  0  0  0  0  0
   -7.2944   -1.2410   -0.2330 H   0  0  0  0  0  0  0  0  0  0  0  0
  1  2  2  0
  2  3  1  0
  3  4  1  0
  4  5  1  0
  5  6  1  0
  6  7  1  0
  7  8  2  0
  7  9  1  0
  9 10  2  3
 10 11  1  0
 11 12  2  0
 12 13  1  0
 13 14  2  0
 14 15  1  0
 15 16  2  0
 16 17  1  0
  9 18  1  0
 18 19  1  0
 19 20  2  0
  2 21  1  0
 21 22  1  0
 22 23  1  0
 23 24  2  0
 23 25  1  0
 25 26  2  0
 26 27  1  0
 27 28  2  0
 28 29  1  0
 28 30  1  0
 30 31  2  0
 19  6  1  0
 31 25  1  0
 16 11  1  0
  3 32  1  0
  3 33  1  0
  4 34  1  0
  4 35  1  0
  5 36  1  0
  5 37  1  0
 10 38  1  0
 12 39  1  0
 13 40  1  0
 14 41  1  0
 15 42  1  0
 21 43  1  0
 22 44  1  0
 26 45  1  0
 27 46  1  0
 30 47  1  0
 31 48  1  0
M  END
$$$$
