
     RDKit          3D

 52 54  0  0  0  0  0  0  0  0999 V2000
   -7.4276    0.0566    1.5692 C   0  0  0  0  0  0  0  0  0  0  0  0
   -6.4703   -0.9153    0.8739 C   0  0  0  0  0  0  0  0  0  0  0  0
   -7.2686   -2.0005    0.1508 C   0  0  0  0  0  0  0  0  0  0  0  0
   -5.5393   -0.1420   -0.0758 C   0  0  0  0  0  0  0  0  0  0  0  0
   -4.4645   -1.0174   -0.7243 C   0  0  0  0  0  0  0  0  0  0  0  0
   -3.5852   -0.2253   -1.5246 O   0  0  0  0  0  0  0  0  0  0  0  0
   -2.4817    0.3327   -0.9429 C   0  0  0  0  0  0  0  0  0  0  0  0
   -1.6336    0.9966   -1.8390 C   0  0  0  0  0  0  0  0  0  0  0  0
   -0.4680    1.6190   -1.3901 C   0  0  0  0  0  0  0  0  0  0  0  0
   -0.1502    1.5680   -0.0329 C   0  0  0  0  0  0  0  0  0  0  0  0
    1.0783    2.2233    0.4468 C   0  0  0  0  0  0  0  0  0  0  0  0
    1.0250    3.4289    0.6778 O   0  0  0  0  0  0  0  0  0  0  0  0
    2.2217    1.4444    0.5957 N   0  0  0  0  0  0  0  0  0  0  0  0
    2.2436   -0.0230    0.5179 C   0  0  0  0  0  0  0  0  0  0  0  0
    3.5951   -0.5760    0.0298 C   0  0  0  0  0  0  0  0  0  0  0  0
    4.7115    0.0177    0.7806 N   0  0  0  0  0  0  0  0  0  0  0  0
    5.9545   -0.5389    0.4609 C   0  0  0  0  0  0  0  0  0  0  0  0
    6.0000   -1.7907   -0.0294 N   0  0  0  0  0  0  0  0  0  0  0  0
    7.2094   -2.3213   -0.2964 C   0  0  0  0  0  0  0  0  0  0  0  0
    8.3892   -1.6545   -0.0995 C   0  0  0  0  0  0  0  0  0  0  0  0
    8.2566   -0.3871    0.4014 C   0  0  0  0  0  0  0  0  0  0  0  0
    7.0687    0.1807    0.6847 N   0  0  0  0  0  0  0  0  0  0  0  0
    4.7169    1.4905    0.8000 C   0  0  0  0  0  0  0  0  0  0  0  0
    3.3668    2.0385    1.2902 C   0  0  0  0  0  0  0  0  0  0  0  0
   -0.9944    0.9278    0.8771 C   0  0  0  0  0  0  0  0  0  0  0  0
   -2.1604    0.3069    0.4177 C   0  0  0  0  0  0  0  0  0  0  0  0
   -8.0724    0.5682    0.8456 H   0  0  0  0  0  0  0  0  0  0  0  0
   -8.0699   -0.4722    2.2818 H   0  0  0  0  0  0  0  0  0  0  0  0
   -6.8722    0.8185    2.1264 H   0  0  0  0  0  0  0  0  0  0  0  0
   -5.8605   -1.3958    1.6500 H   0  0  0  0  0  0  0  0  0  0  0  0
   -6.6127   -2.7828   -0.2428 H   0  0  0  0  0  0  0  0  0  0  0  0
   -7.8428   -1.5792   -0.6827 H   0  0  0  0  0  0  0  0  0  0  0  0
   -7.9737   -2.4849    0.8355 H   0  0  0  0  0  0  0  0  0  0  0  0
   -5.0600    0.6756    0.4765 H   0  0  0  0  0  0  0  0  0  0  0  0
   -6.1223    0.3476   -0.8672 H   0  0  0  0  0  0  0  0  0  0  0  0
   -4.9425   -1.7186   -1.4184 H   0  0  0  0  0  0  0  0  0  0  0  0
   -3.9208   -1.6351    0.0006 H   0  0  0  0  0  0  0  0  0  0  0  0
   -1.8901    1.0328   -2.8961 H   0  0  0  0  0  0  0  0  0  0  0  0
    0.1790    2.1418   -2.0895 H   0  0  0  0  0  0  0  0  0  0  0  0
    1.4538   -0.3915   -0.1423 H   0  0  0  0  0  0  0  0  0  0  0  0
    2.0301   -0.3938    1.5282 H   0  0  0  0  0  0  0  0  0  0  0  0
    3.7075   -0.3522   -1.0399 H   0  0  0  0  0  0  0  0  0  0  0  0
    3.5624   -1.6659    0.1505 H   0  0  0  0  0  0  0  0  0  0  0  0
    7.1931   -3.3352   -0.6851 H   0  0  0  0  0  0  0  0  0  0  0  0
    9.3505   -2.0965   -0.3177 H   0  0  0  0  0  0  0  0  0  0  0  0
    9.1249    0.2334    0.6015 H   0  0  0  0  0  0  0  0  0  0  0  0
    4.9138    1.8733   -0.2106 H   0  0  0  0  0  0  0  0  0  0  0  0
    5.4904    1.8813    1.4726 H   0  0  0  0  0  0  0  0  0  0  0  0
    3.2375    1.8135    2.3569 H   0  0  0  0  0  0  0  0  0  0  0  0
    3.3578    3.1290    1.1837 H   0  0  0  0  0  0  0  0  0  0  0  0
   -0.7523    0.9198    1.9372 H   0  0  0  0  0  0  0  0  0  0  0  0
   -2.8017   -0.1709    1.1506 H   0  0  0  0  0  0  0  0  0  0  0  0
  1  2  1  0
  2  3  1  0
  2  4  1  0
  4  5  1  0
  5  6  1  0
  6  7  1  0
  7  8  2  0
  8  9  1  0
  9 10  2  0
 10 11  1  0
 11 12  2  0
 11 13  1  0
 13 14  1  0
 14 15  1  0
 15 16  1  0
 16 17  1  0
 17 18  2  0
 18 19  1  0
 19 20  2  0
 20 21  1  0
 21 22  2  0
 16 23  1  0
 23 24  1  0
 10 25  1  0
 25 26  2  0
 26  7  1  0
 24 13  1  0
 22 17  1  0
  1 27  1  0
  1 28  1  0
  1 29  1  0
  2 30  1  0
  3 31  1  0
  3 32  1  0
  3 33  1  0
  4 34  1  0
  4 35  1  0
  5 36  1  0
  5 37  1  0
  8 38  1  0
  9 39  1  0
 14 40  1  0
 14 41  1  0
 15 42  1  0
 15 43  1  0
 19 44  1  0
 20 45  1  0
 21 46  1  0
 23 47  1  0
 23 48  1  0
 24 49  1  0
 24 50  1  0
 25 51  1  0
 26 52  1  0
M  END
$$$$
