
     RDKit          3D

 50 52  0  0  0  0  0  0  0  0999 V2000
   -8.8316    1.0208    0.4639 C   0  0  0  0  0  0  0  0  0  0  0  0
   -7.9996    0.5862   -0.6018 O   0  0  0  0  0  0  0  0  0  0  0  0
   -6.6515    0.4878   -0.3640 C   0  0  0  0  0  0  0  0  0  0  0  0
   -6.0407    0.7917    0.8579 C   0  0  0  0  0  0  0  0  0  0  0  0
   -4.6575    0.6593    1.0114 C   0  0  0  0  0  0  0  0  0  0  0  0
   -3.8765    0.2117   -0.0582 C   0  0  0  0  0  0  0  0  0  0  0  0
   -2.4017    0.0543    0.0562 C   0  0  0  0  0  0  0  0  0  0  0  0
   -1.6866    0.2152   -0.9289 O   0  0  0  0  0  0  0  0  0  0  0  0
   -1.9194   -0.3196    1.3038 N   0  0  0  0  0  0  0  0  0  0  0  0
   -0.6050   -0.4857    1.7247 C   0  0  0  0  0  0  0  0  0  0  0  0
   -0.4264   -0.9693    3.3126 S   0  0  0  0  0  0  0  0  0  0  0  0
    0.3387   -0.2230    0.7613 N   0  0  0  0  0  0  0  0  0  0  0  0
    1.7500   -0.2289    0.7445 C   0  0  0  0  0  0  0  0  0  0  0  0
    2.3526    0.0544   -0.4847 C   0  0  0  0  0  0  0  0  0  0  0  0
    3.7491    0.0787   -0.6240 C   0  0  0  0  0  0  0  0  0  0  0  0
    4.6065   -0.1744    0.4523 C   0  0  0  0  0  0  0  0  0  0  0  0
    5.9732   -0.1509    0.3181 N   0  0  0  0  0  0  0  0  0  0  0  0
    6.6727   -0.0091   -0.9564 C   0  0  0  0  0  0  0  0  0  0  0  0
    8.1213   -0.3558   -0.6213 C   0  0  0  0  0  0  0  0  0  0  0  0
    8.2581    0.0996    0.8207 C   0  0  0  0  0  0  0  0  0  0  0  0
    6.9111   -0.2802    1.4306 C   0  0  0  0  0  0  0  0  0  0  0  0
    3.9827   -0.4510    1.6760 C   0  0  0  0  0  0  0  0  0  0  0  0
    2.5836   -0.4786    1.8254 C   0  0  0  0  0  0  0  0  0  0  0  0
   -4.4780   -0.0752   -1.2905 C   0  0  0  0  0  0  0  0  0  0  0  0
   -5.8616    0.0565   -1.4501 C   0  0  0  0  0  0  0  0  0  0  0  0
   -6.5356   -0.2137   -2.6152 O   0  0  0  0  0  0  0  0  0  0  0  0
   -5.7677   -0.5706   -3.7563 C   0  0  0  0  0  0  0  0  0  0  0  0
   -8.5758    2.0392    0.7742 H   0  0  0  0  0  0  0  0  0  0  0  0
   -8.7870    0.3259    1.3089 H   0  0  0  0  0  0  0  0  0  0  0  0
   -9.8632    1.0342    0.0990 H   0  0  0  0  0  0  0  0  0  0  0  0
   -6.6149    1.1442    1.7089 H   0  0  0  0  0  0  0  0  0  0  0  0
   -4.2126    0.9393    1.9626 H   0  0  0  0  0  0  0  0  0  0  0  0
   -2.5871   -0.5448    2.0283 H   0  0  0  0  0  0  0  0  0  0  0  0
   -0.0793    0.0059   -0.1426 H   0  0  0  0  0  0  0  0  0  0  0  0
    1.7469    0.2630   -1.3639 H   0  0  0  0  0  0  0  0  0  0  0  0
    4.1496    0.3125   -1.6061 H   0  0  0  0  0  0  0  0  0  0  0  0
    6.5977    1.0244   -1.3136 H   0  0  0  0  0  0  0  0  0  0  0  0
    6.2917   -0.6884   -1.7264 H   0  0  0  0  0  0  0  0  0  0  0  0
    8.2732   -1.4401   -0.6862 H   0  0  0  0  0  0  0  0  0  0  0  0
    8.8344    0.1309   -1.2924 H   0  0  0  0  0  0  0  0  0  0  0  0
    8.3945    1.1873    0.8573 H   0  0  0  0  0  0  0  0  0  0  0  0
    9.0994   -0.3691    1.3385 H   0  0  0  0  0  0  0  0  0  0  0  0
    6.6732    0.3889    2.2645 H   0  0  0  0  0  0  0  0  0  0  0  0
    6.9302   -1.3158    1.7888 H   0  0  0  0  0  0  0  0  0  0  0  0
    4.5776   -0.6639    2.5599 H   0  0  0  0  0  0  0  0  0  0  0  0
    2.2077   -0.6973    2.8149 H   0  0  0  0  0  0  0  0  0  0  0  0
   -3.8446   -0.4057   -2.1084 H   0  0  0  0  0  0  0  0  0  0  0  0
   -5.2445   -1.5192   -3.5973 H   0  0  0  0  0  0  0  0  0  0  0  0
   -6.4581   -0.7088   -4.5940 H   0  0  0  0  0  0  0  0  0  0  0  0
   -5.0693    0.2272   -4.0293 H   0  0  0  0  0  0  0  0  0  0  0  0
  1  2  1  0
  2  3  1  0
  3  4  2  0
  4  5  1  0
  5  6  2  0
  6  7  1  0
  7  8  2  0
  7  9  1  0
  9 10  1  0
 10 11  2  0
 10 12  1  0
 12 13  1  0
 13 14  2  0
 14 15  1  0
 15 16  2  0
 16 17  1  0
 17 18  1  0
 18 19  1  0
 19 20  1  0
 20 21  1  0
 16 22  1  0
 22 23  2  0
  6 24  1  0
 24 25  2  0
 25 26  1  0
 26 27  1  0
 25  3  1  0
 23 13  1  0
 21 17  1  0
  1 28  1  0
  1 29  1  0
  1 30  1  0
  4 31  1  0
  5 32  1  0
  9 33  1  0
 12 34  1  0
 14 35  1  0
 15 36  1  0
 18 37  1  0
 18 38  1  0
 19 39  1  0
 19 40  1  0
 20 41  1  0
 20 42  1  0
 21 43  1  0
 21 44  1  0
 22 45  1  0
 23 46  1  0
 24 47  1  0
 27 48  1  0
 27 49  1  0
 27 50  1  0
M  END
$$$$
