
     RDKit          3D

 52 56  0  0  0  0  0  0  0  0999 V2000
   -3.9499   -0.5767    0.3766 C   0  0  0  0  0  0  0  0  0  0  0  0
   -2.7849    0.2341   -0.1660 C   0  0  0  0  0  0  0  0  0  0  0  0
   -1.4513   -0.5105   -0.0770 C   0  0  0  0  0  0  0  0  0  0  0  0
   -1.0901   -1.0841    1.2802 C   0  0  0  0  0  0  0  0  0  0  0  0
   -1.4483   -2.2177    1.5726 O   0  0  0  0  0  0  0  0  0  0  0  0
   -0.2963   -0.2917    2.2446 C   0  0  0  0  0  0  0  0  0  0  0  0
    0.7826   -0.9235    2.8784 C   0  0  0  0  0  0  0  0  0  0  0  0
    1.5747   -0.2127    3.7836 C   0  0  0  0  0  0  0  0  0  0  0  0
    1.2665    1.1154    4.0778 C   0  0  0  0  0  0  0  0  0  0  0  0
    2.2154    1.9775    5.2291 Cl  0  0  0  0  0  0  0  0  0  0  0  0
    0.1761    1.7420    3.4741 C   0  0  0  0  0  0  0  0  0  0  0  0
   -0.6066    1.0417    2.5515 C   0  0  0  0  0  0  0  0  0  0  0  0
   -1.0543   -1.4121   -1.2505 C   0  0  0  0  0  0  0  0  0  0  0  0
   -1.8081   -1.5228   -2.5369 C   0  0  0  0  0  0  0  0  0  0  0  0
   -2.5536   -2.6658   -2.8570 C   0  0  0  0  0  0  0  0  0  0  0  0
   -3.1995   -2.7880   -4.0878 C   0  0  0  0  0  0  0  0  0  0  0  0
   -3.1055   -1.7685   -5.0305 C   0  0  0  0  0  0  0  0  0  0  0  0
   -2.3782   -0.6178   -4.7360 C   0  0  0  0  0  0  0  0  0  0  0  0
   -1.7487   -0.5080   -3.4975 C   0  0  0  0  0  0  0  0  0  0  0  0
   -1.0884    0.7132   -3.2346 O   0  0  0  0  0  0  0  0  0  0  0  0
   -0.5522    1.0120   -1.9846 C   0  0  0  0  0  0  0  0  0  0  0  0
   -0.2926    2.1605   -1.6331 O   0  0  0  0  0  0  0  0  0  0  0  0
   -0.2923   -0.1168   -1.0448 C   0  0  0  0  0  0  0  0  0  0  0  0
    1.1339   -0.2344   -0.5697 C   0  0  0  0  0  0  0  0  0  0  0  0
    1.6873   -1.3266   -0.5904 O   0  0  0  0  0  0  0  0  0  0  0  0
    1.6628    0.9464   -0.0876 N   0  0  0  0  0  0  0  0  0  0  0  0
    2.9114    1.1470    0.5345 C   0  0  0  0  0  0  0  0  0  0  0  0
    3.1943    2.4427    0.9844 C   0  0  0  0  0  0  0  0  0  0  0  0
    4.3915    2.7228    1.6456 C   0  0  0  0  0  0  0  0  0  0  0  0
    5.3225    1.7112    1.8556 C   0  0  0  0  0  0  0  0  0  0  0  0
    5.0576    0.4221    1.3938 C   0  0  0  0  0  0  0  0  0  0  0  0
    3.8550    0.1418    0.7370 C   0  0  0  0  0  0  0  0  0  0  0  0
   -3.8260   -0.7804    1.4437 H   0  0  0  0  0  0  0  0  0  0  0  0
   -4.0404   -1.5375   -0.1407 H   0  0  0  0  0  0  0  0  0  0  0  0
   -4.8871   -0.0262    0.2397 H   0  0  0  0  0  0  0  0  0  0  0  0
   -2.7137    1.1753    0.3852 H   0  0  0  0  0  0  0  0  0  0  0  0
   -3.0274    0.5179   -1.1944 H   0  0  0  0  0  0  0  0  0  0  0  0
    1.0237   -1.9599    2.6477 H   0  0  0  0  0  0  0  0  0  0  0  0
    2.4252   -0.7024    4.2542 H   0  0  0  0  0  0  0  0  0  0  0  0
   -0.0873    2.7644    3.7384 H   0  0  0  0  0  0  0  0  0  0  0  0
   -1.4693    1.5421    2.1211 H   0  0  0  0  0  0  0  0  0  0  0  0
   -0.5396   -2.3335   -0.9676 H   0  0  0  0  0  0  0  0  0  0  0  0
   -2.6232   -3.4810   -2.1381 H   0  0  0  0  0  0  0  0  0  0  0  0
   -3.7712   -3.6851   -4.3106 H   0  0  0  0  0  0  0  0  0  0  0  0
   -3.6032   -1.8717   -5.9920 H   0  0  0  0  0  0  0  0  0  0  0  0
   -2.3076    0.1872   -5.4620 H   0  0  0  0  0  0  0  0  0  0  0  0
    1.0872    1.7758   -0.1952 H   0  0  0  0  0  0  0  0  0  0  0  0
    2.4869    3.2514    0.8267 H   0  0  0  0  0  0  0  0  0  0  0  0
    4.5983    3.7299    1.9922 H   0  0  0  0  0  0  0  0  0  0  0  0
    6.2575    1.9253    2.3670 H   0  0  0  0  0  0  0  0  0  0  0  0
    5.7887   -0.3710    1.5426 H   0  0  0  0  0  0  0  0  0  0  0  0
    3.6981   -0.8729    0.3858 H   0  0  0  0  0  0  0  0  0  0  0  0
  1  2  1  0
  2  3  1  0
  3  4  1  0
  4  5  2  0
  4  6  1  0
  6  7  2  0
  7  8  1  0
  8  9  2  0
  9 10  1  0
  9 11  1  0
 11 12  2  0
  3 13  1  0
 13 14  1  0
 14 15  2  0
 15 16  1  0
 16 17  2  0
 17 18  1  0
 18 19  2  0
 19 20  1  0
 20 21  1  0
 21 22  2  0
 21 23  1  0
 23 24  1  0
 24 25  2  0
 24 26  1  0
 26 27  1  0
 27 28  2  0
 28 29  1  0
 29 30  2  0
 30 31  1  0
 31 32  2  0
 23  3  1  0
 32 27  1  0
 12  6  1  0
 23 13  1  0
 19 14  1  0
  1 33  1  0
  1 34  1  0
  1 35  1  0
  2 36  1  0
  2 37  1  0
  7 38  1  0
  8 39  1  0
 11 40  1  0
 12 41  1  0
 13 42  1  0
 15 43  1  0
 16 44  1  0
 17 45  1  0
 18 46  1  0
 26 47  1  0
 28 48  1  0
 29 49  1  0
 30 50  1  0
 31 51  1  0
 32 52  1  0
M  END
$$$$
