
     RDKit          3D

 40 42  0  0  0  0  0  0  0  0999 V2000
   -2.0058   -1.3223   -1.3135 O   0  0  0  0  0  0  0  0  0  0  0  0
   -1.6327   -0.3720   -0.6247 C   0  0  0  0  0  0  0  0  0  0  0  0
   -2.6149    0.5433    0.1026 C   0  0  0  0  0  0  0  0  0  0  0  0
   -4.0258    0.0047    0.1820 C   0  0  0  0  0  0  0  0  0  0  0  0
   -4.9509    0.2807   -0.8354 C   0  0  0  0  0  0  0  0  0  0  0  0
   -6.2513   -0.2238   -0.7663 C   0  0  0  0  0  0  0  0  0  0  0  0
   -6.6301   -1.0117    0.3183 C   0  0  0  0  0  0  0  0  0  0  0  0
   -8.3903   -1.6954    0.4124 Br  0  0  0  0  0  0  0  0  0  0  0  0
   -5.7201   -1.3033    1.3320 C   0  0  0  0  0  0  0  0  0  0  0  0
   -4.4197   -0.7989    1.2621 C   0  0  0  0  0  0  0  0  0  0  0  0
   -0.2839   -0.0662   -0.4837 N   0  0  0  0  0  0  0  0  0  0  0  0
    0.7177   -0.9172   -1.1312 C   0  0  0  0  0  0  0  0  0  0  0  0
    1.9924   -1.0983   -0.2840 C   0  0  0  0  0  0  0  0  0  0  0  0
    2.5220    0.1791    0.2326 N   0  0  0  0  0  0  0  0  0  0  0  0
    3.9050    0.3606    0.2048 C   0  0  0  0  0  0  0  0  0  0  0  0
    4.7688   -0.6702    0.5830 C   0  0  0  0  0  0  0  0  0  0  0  0
    6.1494   -0.4718    0.5660 C   0  0  0  0  0  0  0  0  0  0  0  0
    6.6500    0.7600    0.1792 C   0  0  0  0  0  0  0  0  0  0  0  0
    5.7411    1.7406   -0.1659 C   0  0  0  0  0  0  0  0  0  0  0  0
    4.3998    1.5665   -0.1544 N   0  0  0  0  0  0  0  0  0  0  0  0
    1.7226    1.3823   -0.0391 C   0  0  0  0  0  0  0  0  0  0  0  0
    0.2337    1.1045    0.2368 C   0  0  0  0  0  0  0  0  0  0  0  0
   -2.6286    1.5113   -0.4126 H   0  0  0  0  0  0  0  0  0  0  0  0
   -2.2598    0.7243    1.1237 H   0  0  0  0  0  0  0  0  0  0  0  0
   -4.6605    0.8812   -1.6948 H   0  0  0  0  0  0  0  0  0  0  0  0
   -6.9545   -0.0035   -1.5646 H   0  0  0  0  0  0  0  0  0  0  0  0
   -6.0094   -1.9252    2.1747 H   0  0  0  0  0  0  0  0  0  0  0  0
   -3.7143   -1.0429    2.0534 H   0  0  0  0  0  0  0  0  0  0  0  0
    0.9695   -0.4337   -2.0832 H   0  0  0  0  0  0  0  0  0  0  0  0
    0.2977   -1.9000   -1.3696 H   0  0  0  0  0  0  0  0  0  0  0  0
    2.7268   -1.6281   -0.9034 H   0  0  0  0  0  0  0  0  0  0  0  0
    1.7608   -1.7366    0.5771 H   0  0  0  0  0  0  0  0  0  0  0  0
    4.3770   -1.6255    0.9149 H   0  0  0  0  0  0  0  0  0  0  0  0
    6.8206   -1.2725    0.8617 H   0  0  0  0  0  0  0  0  0  0  0  0
    7.7157    0.9542    0.1552 H   0  0  0  0  0  0  0  0  0  0  0  0
    6.0733    2.7288   -0.4702 H   0  0  0  0  0  0  0  0  0  0  0  0
    1.8497    1.6933   -1.0844 H   0  0  0  0  0  0  0  0  0  0  0  0
    2.0342    2.2128    0.6066 H   0  0  0  0  0  0  0  0  0  0  0  0
   -0.3625    1.9833   -0.0288 H   0  0  0  0  0  0  0  0  0  0  0  0
    0.0872    0.9073    1.3055 H   0  0  0  0  0  0  0  0  0  0  0  0
  1  2  2  0
  2  3  1  0
  3  4  1  0
  4  5  2  0
  5  6  1  0
  6  7  2  0
  7  8  1  0
  7  9  1  0
  9 10  2  0
  2 11  1  0
 11 12  1  0
 12 13  1  0
 13 14  1  0
 14 15  1  0
 15 16  2  0
 16 17  1  0
 17 18  2  0
 18 19  1  0
 19 20  2  0
 14 21  1  0
 21 22  1  0
 10  4  1  0
 22 11  1  0
 20 15  1  0
  3 23  1  0
  3 24  1  0
  5 25  1  0
  6 26  1  0
  9 27  1  0
 10 28  1  0
 12 29  1  0
 12 30  1  0
 13 31  1  0
 13 32  1  0
 16 33  1  0
 17 34  1  0
 18 35  1  0
 19 36  1  0
 21 37  1  0
 21 38  1  0
 22 39  1  0
 22 40  1  0
M  END
$$$$
