
     RDKit          3D

 41 43  0  0  0  0  0  0  0  0999 V2000
   -7.0057   -0.2289   -1.1158 C   0  0  0  0  0  0  0  0  0  0  0  0
   -6.6901    0.5182    0.1683 C   0  0  0  0  0  0  0  0  0  0  0  0
   -5.7145   -0.1854    0.9354 O   0  0  0  0  0  0  0  0  0  0  0  0
   -4.3926    0.0944    0.7383 C   0  0  0  0  0  0  0  0  0  0  0  0
   -3.5282   -0.5267    1.6410 C   0  0  0  0  0  0  0  0  0  0  0  0
   -2.1454   -0.3334    1.5599 C   0  0  0  0  0  0  0  0  0  0  0  0
   -1.5983    0.4960    0.5728 C   0  0  0  0  0  0  0  0  0  0  0  0
   -0.1705    0.6881    0.4832 N   0  0  0  0  0  0  0  0  0  0  0  0
    0.6076   -0.4841    0.4339 C   0  0  0  0  0  0  0  0  0  0  0  0
    0.1506   -1.6281    0.4894 O   0  0  0  0  0  0  0  0  0  0  0  0
    2.0746   -0.2931    0.2509 C   0  0  0  0  0  0  0  0  0  0  0  0
    2.7852   -1.3937   -0.0655 C   0  0  0  0  0  0  0  0  0  0  0  0
    4.1555   -1.3962   -0.4373 C   0  0  0  0  0  0  0  0  0  0  0  0
    5.1289   -2.3464   -0.1537 C   0  0  0  0  0  0  0  0  0  0  0  0
    6.3336   -1.9338   -0.7708 C   0  0  0  0  0  0  0  0  0  0  0  0
    6.0403   -0.7613   -1.4237 C   0  0  0  0  0  0  0  0  0  0  0  0
    6.8321    0.1769   -2.2414 C   0  0  0  0  0  0  0  0  0  0  0  0
    4.7312   -0.4442   -1.2466 O   0  0  0  0  0  0  0  0  0  0  0  0
    2.6499    1.0510    0.4158 C   0  0  0  0  0  0  0  0  0  0  0  0
    3.8096    1.2934    0.7225 O   0  0  0  0  0  0  0  0  0  0  0  0
    1.7415    2.0629    0.3121 N   0  0  0  0  0  0  0  0  0  0  0  0
    0.3788    1.9784    0.4429 C   0  0  0  0  0  0  0  0  0  0  0  0
   -0.3984    3.4619    0.6195 S   0  0  0  0  0  0  0  0  0  0  0  0
   -2.4702    1.0953   -0.3473 C   0  0  0  0  0  0  0  0  0  0  0  0
   -3.8560    0.8994   -0.2631 C   0  0  0  0  0  0  0  0  0  0  0  0
   -7.3231   -1.2534   -0.8943 H   0  0  0  0  0  0  0  0  0  0  0  0
   -6.1265   -0.3033   -1.7625 H   0  0  0  0  0  0  0  0  0  0  0  0
   -7.8037    0.2741   -1.6693 H   0  0  0  0  0  0  0  0  0  0  0  0
   -6.4120    1.5624   -0.0125 H   0  0  0  0  0  0  0  0  0  0  0  0
   -7.5988    0.5519    0.7801 H   0  0  0  0  0  0  0  0  0  0  0  0
   -3.9343   -1.1703    2.4182 H   0  0  0  0  0  0  0  0  0  0  0  0
   -1.5096   -0.8328    2.2871 H   0  0  0  0  0  0  0  0  0  0  0  0
    2.2973   -2.3655   -0.1044 H   0  0  0  0  0  0  0  0  0  0  0  0
    4.9814   -3.2342    0.4459 H   0  0  0  0  0  0  0  0  0  0  0  0
    7.2937   -2.4292   -0.7420 H   0  0  0  0  0  0  0  0  0  0  0  0
    6.8225    1.1761   -1.7951 H   0  0  0  0  0  0  0  0  0  0  0  0
    7.8731   -0.1515   -2.3193 H   0  0  0  0  0  0  0  0  0  0  0  0
    6.4197    0.2456   -3.2527 H   0  0  0  0  0  0  0  0  0  0  0  0
    2.1394    2.9872    0.4300 H   0  0  0  0  0  0  0  0  0  0  0  0
   -2.0884    1.7013   -1.1656 H   0  0  0  0  0  0  0  0  0  0  0  0
   -4.4802    1.3808   -1.0081 H   0  0  0  0  0  0  0  0  0  0  0  0
  1  2  1  0
  2  3  1  0
  3  4  1  0
  4  5  2  0
  5  6  1  0
  6  7  2  0
  7  8  1  0
  8  9  1  0
  9 10  2  0
  9 11  1  0
 11 12  2  3
 12 13  1  0
 13 14  2  0
 14 15  1  0
 15 16  2  0
 16 17  1  0
 16 18  1  0
 11 19  1  0
 19 20  2  0
 19 21  1  0
 21 22  1  0
 22 23  2  0
  7 24  1  0
 24 25  2  0
 25  4  1  0
 22  8  1  0
 18 13  1  0
  1 26  1  0
  1 27  1  0
  1 28  1  0
  2 29  1  0
  2 30  1  0
  5 31  1  0
  6 32  1  0
 12 33  1  0
 14 34  1  0
 15 35  1  0
 17 36  1  0
 17 37  1  0
 17 38  1  0
 21 39  1  0
 24 40  1  0
 25 41  1  0
M  END
$$$$
