
     RDKit          3D

 52 55  0  0  0  0  0  0  0  0999 V2000
   -5.9004    3.1105   -0.1967 C   0  0  0  0  0  0  0  0  0  0  0  0
   -5.1379    2.4792    0.9572 C   0  0  0  0  0  0  0  0  0  0  0  0
   -3.7918    1.9186    0.4989 C   0  0  0  0  0  0  0  0  0  0  0  0
   -3.0271    1.2900    1.6653 C   0  0  0  0  0  0  0  0  0  0  0  0
   -1.7323    0.7050    1.2243 C   0  0  0  0  0  0  0  0  0  0  0  0
   -0.5751    1.3316    1.3630 N   0  0  0  0  0  0  0  0  0  0  0  0
    0.4193    0.5334    0.8684 N   0  0  0  0  0  0  0  0  0  0  0  0
   -0.1503   -0.5550    0.4090 C   0  0  0  0  0  0  0  0  0  0  0  0
    0.4738   -1.6997   -0.1802 C   0  0  0  0  0  0  0  0  0  0  0  0
    1.8699   -1.6601   -0.4090 N   0  0  0  0  0  0  0  0  0  0  0  0
    2.6827   -2.8801   -0.2314 C   0  0  0  0  0  0  0  0  0  0  0  0
    2.4391   -0.6257   -1.6437 S   0  0  0  0  0  6  0  0  0  0  0  0
    3.0164   -1.4569   -2.6834 O   0  0  0  0  0  0  0  0  0  0  0  0
    1.4248    0.3501   -1.9803 O   0  0  0  0  0  0  0  0  0  0  0  0
    3.7804    0.2303   -0.8462 C   0  0  0  0  0  0  0  0  0  0  0  0
    3.5137    1.3563   -0.0657 C   0  0  0  0  0  0  0  0  0  0  0  0
    4.5682    2.0424    0.5398 C   0  0  0  0  0  0  0  0  0  0  0  0
    5.8921    1.6262    0.3469 C   0  0  0  0  0  0  0  0  0  0  0  0
    7.0191    2.3490    1.0244 C   0  0  0  0  0  0  0  0  0  0  0  0
    6.1479    0.5007   -0.4475 C   0  0  0  0  0  0  0  0  0  0  0  0
    5.0973   -0.1905   -1.0545 C   0  0  0  0  0  0  0  0  0  0  0  0
   -0.1978   -2.7826   -0.4223 N   0  0  0  0  0  0  0  0  0  0  0  0
   -1.5932   -2.7693   -0.1956 C   0  0  0  0  0  0  0  0  0  0  0  0
   -2.3047   -3.9267   -0.5210 C   0  0  0  0  0  0  0  0  0  0  0  0
   -3.6855   -3.9874   -0.3401 C   0  0  0  0  0  0  0  0  0  0  0  0
   -4.3682   -2.8846    0.1675 C   0  0  0  0  0  0  0  0  0  0  0  0
   -3.6783   -1.7157    0.5019 C   0  0  0  0  0  0  0  0  0  0  0  0
   -2.2949   -1.6555    0.3248 C   0  0  0  0  0  0  0  0  0  0  0  0
   -1.5017   -0.5311    0.6467 N   0  0  0  0  0  0  0  0  0  0  0  0
   -5.3329    3.9368   -0.6365 H   0  0  0  0  0  0  0  0  0  0  0  0
   -6.1022    2.3753   -0.9823 H   0  0  0  0  0  0  0  0  0  0  0  0
   -6.8593    3.5052    0.1535 H   0  0  0  0  0  0  0  0  0  0  0  0
   -5.7455    1.6776    1.3931 H   0  0  0  0  0  0  0  0  0  0  0  0
   -4.9818    3.2310    1.7394 H   0  0  0  0  0  0  0  0  0  0  0  0
   -3.1899    2.7234    0.0572 H   0  0  0  0  0  0  0  0  0  0  0  0
   -3.9536    1.1823   -0.2973 H   0  0  0  0  0  0  0  0  0  0  0  0
   -2.8125    2.0762    2.4017 H   0  0  0  0  0  0  0  0  0  0  0  0
   -3.6296    0.5552    2.2061 H   0  0  0  0  0  0  0  0  0  0  0  0
    3.7489   -2.6482   -0.1750 H   0  0  0  0  0  0  0  0  0  0  0  0
    2.4139   -3.3623    0.7145 H   0  0  0  0  0  0  0  0  0  0  0  0
    2.5024   -3.5901   -1.0440 H   0  0  0  0  0  0  0  0  0  0  0  0
    2.4948    1.7099    0.0766 H   0  0  0  0  0  0  0  0  0  0  0  0
    4.3473    2.9102    1.1584 H   0  0  0  0  0  0  0  0  0  0  0  0
    6.7830    3.4110    1.1497 H   0  0  0  0  0  0  0  0  0  0  0  0
    7.9360    2.2886    0.4288 H   0  0  0  0  0  0  0  0  0  0  0  0
    7.2067    1.9095    2.0089 H   0  0  0  0  0  0  0  0  0  0  0  0
    7.1697    0.1614   -0.6047 H   0  0  0  0  0  0  0  0  0  0  0  0
    5.3160   -1.0488   -1.6854 H   0  0  0  0  0  0  0  0  0  0  0  0
   -1.7748   -4.7864   -0.9249 H   0  0  0  0  0  0  0  0  0  0  0  0
   -4.2274   -4.8934   -0.6008 H   0  0  0  0  0  0  0  0  0  0  0  0
   -5.4472   -2.9345    0.3008 H   0  0  0  0  0  0  0  0  0  0  0  0
   -4.2674   -0.8923    0.8798 H   0  0  0  0  0  0  0  0  0  0  0  0
  1  2  1  0
  2  3  1  0
  3  4  1  0
  4  5  1  0
  5  6  2  0
  6  7  1  0
  7  8  2  0
  8  9  1  0
  9 10  1  0
 10 11  1  0
 10 12  1  0
 12 13  2  0
 12 14  2  0
 12 15  1  0
 15 16  2  0
 16 17  1  0
 17 18  2  0
 18 19  1  0
 18 20  1  0
 20 21  2  0
  9 22  2  0
 22 23  1  0
 23 24  2  0
 24 25  1  0
 25 26  2  0
 26 27  1  0
 27 28  2  0
 28 29  1  0
 29  5  1  0
 29  8  1  0
 21 15  1  0
 28 23  1  0
  1 30  1  0
  1 31  1  0
  1 32  1  0
  2 33  1  0
  2 34  1  0
  3 35  1  0
  3 36  1  0
  4 37  1  0
  4 38  1  0
 11 39  1  0
 11 40  1  0
 11 41  1  0
 16 42  1  0
 17 43  1  0
 19 44  1  0
 19 45  1  0
 19 46  1  0
 20 47  1  0
 21 48  1  0
 24 49  1  0
 25 50  1  0
 26 51  1  0
 27 52  1  0
M  END
$$$$
