
     RDKit          3D

 41 42  0  0  0  0  0  0  0  0999 V2000
   -5.1014   -0.3763   -0.7694 C   0  0  0  0  0  0  0  0  0  0  0  0
   -3.7709   -0.8513   -0.6033 O   0  0  0  0  0  0  0  0  0  0  0  0
   -3.3244   -1.7802   -1.5068 C   0  0  0  0  0  0  0  0  0  0  0  0
   -3.9800   -2.1074   -2.6986 C   0  0  0  0  0  0  0  0  0  0  0  0
   -3.4355   -3.0564   -3.5664 C   0  0  0  0  0  0  0  0  0  0  0  0
   -2.2286   -3.6753   -3.2583 C   0  0  0  0  0  0  0  0  0  0  0  0
   -1.5638   -3.3528   -2.0764 C   0  0  0  0  0  0  0  0  0  0  0  0
   -2.1061   -2.4095   -1.1871 C   0  0  0  0  0  0  0  0  0  0  0  0
   -1.3650   -2.0846    0.0852 C   0  0  0  0  0  0  0  0  0  0  0  0
   -0.7808   -0.7642    0.0344 N   0  0  0  0  0  0  0  0  0  0  0  0
    0.0704   -0.3466    1.0394 C   0  0  0  0  0  0  0  0  0  0  0  0
    0.4704   -1.1004    1.9232 O   0  0  0  0  0  0  0  0  0  0  0  0
    0.4734    1.1270    0.9211 C   0  0  0  0  0  0  0  0  0  0  0  0
    1.4182    1.5613    1.8920 O   0  0  0  0  0  0  0  0  0  0  0  0
    2.6968    1.6374    1.4087 C   0  0  0  0  0  0  0  0  0  0  0  0
    3.3439    0.5118    0.8891 C   0  0  0  0  0  0  0  0  0  0  0  0
    4.6482    0.6141    0.4001 C   0  0  0  0  0  0  0  0  0  0  0  0
    5.3109    1.8406    0.4288 C   0  0  0  0  0  0  0  0  0  0  0  0
    4.6764    2.9612    0.9671 C   0  0  0  0  0  0  0  0  0  0  0  0
    3.3854    2.8543    1.4876 C   0  0  0  0  0  0  0  0  0  0  0  0
    2.8311    4.0054    1.9893 O   0  0  0  0  0  0  0  0  0  0  0  0
    2.5554    3.8859    3.3843 C   0  0  0  0  0  0  0  0  0  0  0  0
   -5.3415    0.2540    0.0935 H   0  0  0  0  0  0  0  0  0  0  0  0
   -5.1852    0.2431   -1.6685 H   0  0  0  0  0  0  0  0  0  0  0  0
   -5.8162   -1.2053   -0.7882 H   0  0  0  0  0  0  0  0  0  0  0  0
   -4.9152   -1.6370   -2.9869 H   0  0  0  0  0  0  0  0  0  0  0  0
   -3.9527   -3.3081   -4.4903 H   0  0  0  0  0  0  0  0  0  0  0  0
   -1.8004   -4.4056   -3.9396 H   0  0  0  0  0  0  0  0  0  0  0  0
   -0.6183   -3.8405   -1.8499 H   0  0  0  0  0  0  0  0  0  0  0  0
   -0.5639   -2.8093    0.2637 H   0  0  0  0  0  0  0  0  0  0  0  0
   -2.0356   -2.1434    0.9498 H   0  0  0  0  0  0  0  0  0  0  0  0
   -1.3155   -0.0640   -0.4650 H   0  0  0  0  0  0  0  0  0  0  0  0
   -0.4363    1.7157    1.0870 H   0  0  0  0  0  0  0  0  0  0  0  0
    0.8062    1.3360   -0.1057 H   0  0  0  0  0  0  0  0  0  0  0  0
    2.8505   -0.4560    0.8777 H   0  0  0  0  0  0  0  0  0  0  0  0
    5.1490   -0.2647    0.0038 H   0  0  0  0  0  0  0  0  0  0  0  0
    6.3256    1.9208    0.0438 H   0  0  0  0  0  0  0  0  0  0  0  0
    5.1931    3.9171    0.9963 H   0  0  0  0  0  0  0  0  0  0  0  0
    3.3669    3.3819    3.9201 H   0  0  0  0  0  0  0  0  0  0  0  0
    1.6041    3.3737    3.5573 H   0  0  0  0  0  0  0  0  0  0  0  0
    2.4612    4.8975    3.7945 H   0  0  0  0  0  0  0  0  0  0  0  0
  1  2  1  0
  2  3  1  0
  3  4  2  0
  4  5  1  0
  5  6  2  0
  6  7  1  0
  7  8  2  0
  8  9  1  0
  9 10  1  0
 10 11  1  0
 11 12  2  0
 11 13  1  0
 13 14  1  0
 14 15  1  0
 15 16  2  0
 16 17  1  0
 17 18  2  0
 18 19  1  0
 19 20  2  0
 20 21  1  0
 21 22  1  0
  8  3  1  0
 20 15  1  0
  1 23  1  0
  1 24  1  0
  1 25  1  0
  4 26  1  0
  5 27  1  0
  6 28  1  0
  7 29  1  0
  9 30  1  0
  9 31  1  0
 10 32  1  0
 13 33  1  0
 13 34  1  0
 16 35  1  0
 17 36  1  0
 18 37  1  0
 19 38  1  0
 22 39  1  0
 22 40  1  0
 22 41  1  0
M  END
$$$$
