
     RDKit          3D

 43 46  0  0  0  0  0  0  0  0999 V2000
    2.5411    2.2099    2.1505 C   0  0  0  0  0  0  0  0  0  0  0  0
    3.6209    1.4521    1.6217 O   0  0  0  0  0  0  0  0  0  0  0  0
    3.2135    0.3205    0.9458 C   0  0  0  0  0  0  0  0  0  0  0  0
    1.9154    0.0718    0.8014 N   0  0  0  0  0  0  0  0  0  0  0  0
    1.6191   -1.0285    0.1303 C   0  0  0  0  0  0  0  0  0  0  0  0
    0.3086   -1.4059   -0.0847 N   0  0  0  0  0  0  0  0  0  0  0  0
   -0.7836   -0.4395   -0.2024 C   0  0  0  0  0  0  0  0  0  0  0  0
   -2.0336   -1.2305   -0.6888 C   0  0  0  0  0  0  0  0  0  0  0  0
   -3.2497   -0.3033   -0.8421 C   0  0  0  0  0  0  0  0  0  0  0  0
   -2.9190    0.7963   -1.8630 C   0  0  0  0  0  0  0  0  0  0  0  0
   -1.7012    1.6040   -1.3877 C   0  0  0  0  0  0  0  0  0  0  0  0
   -2.0142    2.2374   -0.0207 C   0  0  0  0  0  0  0  0  0  0  0  0
   -2.3515    1.1438    1.0080 C   0  0  0  0  0  0  0  0  0  0  0  0
   -3.5653    0.3410    0.5160 C   0  0  0  0  0  0  0  0  0  0  0  0
   -1.1437    0.2009    1.1594 C   0  0  0  0  0  0  0  0  0  0  0  0
   -0.4902    0.6639   -1.2464 C   0  0  0  0  0  0  0  0  0  0  0  0
    2.5250   -1.8500   -0.3792 N   0  0  0  0  0  0  0  0  0  0  0  0
    3.7916   -1.4996   -0.1673 C   0  0  0  0  0  0  0  0  0  0  0  0
    4.8104   -2.2881   -0.6609 O   0  0  0  0  0  0  0  0  0  0  0  0
    4.3503   -3.4834   -1.2761 C   0  0  0  0  0  0  0  0  0  0  0  0
    4.2018   -0.4232    0.4806 N   0  0  0  0  0  0  0  0  0  0  0  0
    1.9660    1.6288    2.8798 H   0  0  0  0  0  0  0  0  0  0  0  0
    1.8935    2.5911    1.3529 H   0  0  0  0  0  0  0  0  0  0  0  0
    2.9638    3.0729    2.6742 H   0  0  0  0  0  0  0  0  0  0  0  0
    0.3333   -2.1184   -0.8071 H   0  0  0  0  0  0  0  0  0  0  0  0
   -2.2695   -2.0370    0.0187 H   0  0  0  0  0  0  0  0  0  0  0  0
   -1.8224   -1.7194   -1.6496 H   0  0  0  0  0  0  0  0  0  0  0  0
   -4.1146   -0.8805   -1.1874 H   0  0  0  0  0  0  0  0  0  0  0  0
   -3.7824    1.4605   -1.9916 H   0  0  0  0  0  0  0  0  0  0  0  0
   -2.7129    0.3488   -2.8431 H   0  0  0  0  0  0  0  0  0  0  0  0
   -1.4734    2.3905   -2.1159 H   0  0  0  0  0  0  0  0  0  0  0  0
   -2.8575    2.9324   -0.1162 H   0  0  0  0  0  0  0  0  0  0  0  0
   -1.1550    2.8252    0.3254 H   0  0  0  0  0  0  0  0  0  0  0  0
   -2.5821    1.6048    1.9750 H   0  0  0  0  0  0  0  0  0  0  0  0
   -4.4387    0.9984    0.4257 H   0  0  0  0  0  0  0  0  0  0  0  0
   -3.8242   -0.4338    1.2480 H   0  0  0  0  0  0  0  0  0  0  0  0
   -1.3675   -0.5790    1.8990 H   0  0  0  0  0  0  0  0  0  0  0  0
   -0.3070    0.7771    1.5666 H   0  0  0  0  0  0  0  0  0  0  0  0
   -0.2501    0.2141   -2.2187 H   0  0  0  0  0  0  0  0  0  0  0  0
    0.3841    1.2595   -0.9587 H   0  0  0  0  0  0  0  0  0  0  0  0
    5.2277   -4.0487   -1.6052 H   0  0  0  0  0  0  0  0  0  0  0  0
    3.7987   -4.1106   -0.5671 H   0  0  0  0  0  0  0  0  0  0  0  0
    3.7445   -3.2662   -2.1628 H   0  0  0  0  0  0  0  0  0  0  0  0
  1  2  1  0
  2  3  1  0
  3  4  2  0
  4  5  1  0
  5  6  1  0
  6  7  1  0
  7  8  1  0
  8  9  1  0
  9 10  1  0
 10 11  1  0
 11 12  1  0
 12 13  1  0
 13 14  1  0
 13 15  1  0
 11 16  1  0
  5 17  2  0
 17 18  1  0
 18 19  1  0
 19 20  1  0
 18 21  2  0
 21  3  1  0
 15  7  1  0
 16  7  1  0
 14  9  1  0
  1 22  1  0
  1 23  1  0
  1 24  1  0
  6 25  1  0
  8 26  1  0
  8 27  1  0
  9 28  1  0
 10 29  1  0
 10 30  1  0
 11 31  1  0
 12 32  1  0
 12 33  1  0
 13 34  1  0
 14 35  1  0
 14 36  1  0
 15 37  1  0
 15 38  1  0
 16 39  1  0
 16 40  1  0
 20 41  1  0
 20 42  1  0
 20 43  1  0
M  END
$$$$
