
     RDKit          3D

 48 49  0  0  0  0  0  0  0  0999 V2000
    2.7329   -2.7495   -0.0994 C   0  0  0  0  0  0  0  0  0  0  0  0
    2.1946   -1.8545    0.8762 O   0  0  0  0  0  0  0  0  0  0  0  0
    1.6105   -0.7764    0.2588 C   0  0  0  0  0  0  0  0  0  0  0  0
    0.2151   -0.7310    0.2426 C   0  0  0  0  0  0  0  0  0  0  0  0
   -0.4492    0.3499   -0.3468 C   0  0  0  0  0  0  0  0  0  0  0  0
   -1.8519    0.3187   -0.3329 N   0  0  0  0  0  0  0  0  0  0  0  0
   -2.7462    1.2482   -0.8367 C   0  0  0  0  0  0  0  0  0  0  0  0
   -2.4740    2.3012   -1.4059 O   0  0  0  0  0  0  0  0  0  0  0  0
   -4.2106    0.7813   -0.6646 C   0  0  0  0  0  0  0  0  0  0  0  0
   -4.5929   -0.1037   -1.8619 C   0  0  0  0  0  0  0  0  0  0  0  0
   -5.6980   -1.1116   -1.5437 C   0  0  0  0  0  0  0  0  0  0  0  0
   -6.5605   -0.6202   -0.3916 C   0  0  0  0  0  0  0  0  0  0  0  0
   -5.7181   -0.3932    0.8660 C   0  0  0  0  0  0  0  0  0  0  0  0
   -4.3365    0.0288    0.6077 N   0  0  0  0  0  0  0  0  0  0  0  0
    0.3026    1.3787   -0.9154 C   0  0  0  0  0  0  0  0  0  0  0  0
    1.7029    1.3461   -0.8733 C   0  0  0  0  0  0  0  0  0  0  0  0
    2.3625    0.2821   -0.2563 C   0  0  0  0  0  0  0  0  0  0  0  0
    3.7249    0.2046   -0.1696 O   0  0  0  0  0  0  0  0  0  0  0  0
    4.3655    1.4173    0.2401 C   0  0  0  0  0  0  0  0  0  0  0  0
    5.5347    1.0908    1.1868 C   0  0  0  0  0  0  0  0  0  0  0  0
    6.5654    0.1721    0.5311 C   0  0  0  0  0  0  0  0  0  0  0  0
    5.0192    0.4553    2.4827 C   0  0  0  0  0  0  0  0  0  0  0  0
    3.6540   -2.3552   -0.5343 H   0  0  0  0  0  0  0  0  0  0  0  0
    2.0048   -2.9744   -0.8893 H   0  0  0  0  0  0  0  0  0  0  0  0
    2.9725   -3.6855    0.4101 H   0  0  0  0  0  0  0  0  0  0  0  0
   -0.3373   -1.5477    0.6953 H   0  0  0  0  0  0  0  0  0  0  0  0
   -2.3056   -0.4683    0.1284 H   0  0  0  0  0  0  0  0  0  0  0  0
   -4.8406    1.6782   -0.6155 H   0  0  0  0  0  0  0  0  0  0  0  0
   -3.7273   -0.6470   -2.2599 H   0  0  0  0  0  0  0  0  0  0  0  0
   -4.9325    0.5509   -2.6736 H   0  0  0  0  0  0  0  0  0  0  0  0
   -5.2446   -2.0734   -1.2705 H   0  0  0  0  0  0  0  0  0  0  0  0
   -6.3084   -1.2935   -2.4352 H   0  0  0  0  0  0  0  0  0  0  0  0
   -7.3556   -1.3432   -0.1777 H   0  0  0  0  0  0  0  0  0  0  0  0
   -7.0515    0.3183   -0.6813 H   0  0  0  0  0  0  0  0  0  0  0  0
   -5.6749   -1.3235    1.4453 H   0  0  0  0  0  0  0  0  0  0  0  0
   -6.2231    0.3466    1.5014 H   0  0  0  0  0  0  0  0  0  0  0  0
   -4.0348    0.6311    1.3778 H   0  0  0  0  0  0  0  0  0  0  0  0
   -0.1724    2.2297   -1.3955 H   0  0  0  0  0  0  0  0  0  0  0  0
    2.2599    2.1597   -1.3267 H   0  0  0  0  0  0  0  0  0  0  0  0
    4.7381    1.9302   -0.6548 H   0  0  0  0  0  0  0  0  0  0  0  0
    3.6755    2.0919    0.7672 H   0  0  0  0  0  0  0  0  0  0  0  0
    6.0328    2.0338    1.4446 H   0  0  0  0  0  0  0  0  0  0  0  0
    6.9740    0.6305   -0.3769 H   0  0  0  0  0  0  0  0  0  0  0  0
    6.1326   -0.7942    0.2576 H   0  0  0  0  0  0  0  0  0  0  0  0
    7.4044   -0.0180    1.2148 H   0  0  0  0  0  0  0  0  0  0  0  0
    5.8293    0.3400    3.2101 H   0  0  0  0  0  0  0  0  0  0  0  0
    4.2484    1.0837    2.9444 H   0  0  0  0  0  0  0  0  0  0  0  0
    4.5894   -0.5356    2.3004 H   0  0  0  0  0  0  0  0  0  0  0  0
  1  2  1  0
  2  3  1  0
  3  4  2  0
  4  5  1  0
  5  6  1  0
  6  7  1  0
  7  8  2  0
  7  9  1  0
  9 10  1  0
 10 11  1  0
 11 12  1  0
 12 13  1  0
 13 14  1  0
  5 15  2  0
 15 16  1  0
 16 17  2  0
 17 18  1  0
 18 19  1  0
 19 20  1  0
 20 21  1  0
 20 22  1  0
 17  3  1  0
 14  9  1  0
  1 23  1  0
  1 24  1  0
  1 25  1  0
  4 26  1  0
  6 27  1  0
  9 28  1  0
 10 29  1  0
 10 30  1  0
 11 31  1  0
 11 32  1  0
 12 33  1  0
 12 34  1  0
 13 35  1  0
 13 36  1  0
 14 37  1  0
 15 38  1  0
 16 39  1  0
 19 40  1  0
 19 41  1  0
 20 42  1  0
 21 43  1  0
 21 44  1  0
 21 45  1  0
 22 46  1  0
 22 47  1  0
 22 48  1  0
M  END
$$$$
