
     RDKit          3D

 35 36  0  0  0  0  0  0  0  0999 V2000
   -5.1617    1.7531    0.6493 N   0  0  0  0  0  0  0  0  0  0  0  0
   -4.2885    0.9274   -0.0027 C   0  0  0  0  0  0  0  0  0  0  0  0
   -4.3038   -0.5219    0.2814 C   0  0  0  0  0  0  0  0  0  0  0  0
   -3.4459   -1.2599   -0.4206 C   0  0  0  0  0  0  0  0  0  0  0  0
   -2.6082   -0.6783   -1.3424 N   0  0  0  0  0  0  0  0  0  0  0  0
   -1.6506   -1.4985   -2.0767 C   0  0  0  0  0  0  0  0  0  0  0  0
   -0.3171   -1.5218   -1.3335 C   0  0  0  0  0  0  0  0  0  0  0  0
   -0.0216   -2.4175   -0.5452 O   0  0  0  0  0  0  0  0  0  0  0  0
    0.4877   -0.4284   -1.5807 N   0  0  0  0  0  0  0  0  0  0  0  0
    1.7260   -0.2173   -0.8544 C   0  0  0  0  0  0  0  0  0  0  0  0
    1.4858    0.3228    0.5538 C   0  0  0  0  0  0  0  0  0  0  0  0
    2.7840    0.4549    1.3037 C   0  0  0  0  0  0  0  0  0  0  0  0
    3.2371   -0.5807    2.1179 C   0  0  0  0  0  0  0  0  0  0  0  0
    4.4528   -0.4323    2.7792 C   0  0  0  0  0  0  0  0  0  0  0  0
    5.1824    0.7375    2.6083 C   0  0  0  0  0  0  0  0  0  0  0  0
    4.6637    1.7144    1.7759 C   0  0  0  0  0  0  0  0  0  0  0  0
    3.4886    1.5977    1.1194 N   0  0  0  0  0  0  0  0  0  0  0  0
   -2.5798    0.7040   -1.5386 C   0  0  0  0  0  0  0  0  0  0  0  0
   -1.7522    1.2086   -2.2981 O   0  0  0  0  0  0  0  0  0  0  0  0
   -3.4827    1.4795   -0.8551 N   0  0  0  0  0  0  0  0  0  0  0  0
   -5.2068    2.6729    0.2201 H   0  0  0  0  0  0  0  0  0  0  0  0
   -6.0740    1.3748    0.8712 H   0  0  0  0  0  0  0  0  0  0  0  0
   -4.9711   -0.9263    1.0278 H   0  0  0  0  0  0  0  0  0  0  0  0
   -3.3725   -2.3342   -0.2787 H   0  0  0  0  0  0  0  0  0  0  0  0
   -2.0232   -2.5235   -2.1836 H   0  0  0  0  0  0  0  0  0  0  0  0
   -1.5011   -1.0992   -3.0865 H   0  0  0  0  0  0  0  0  0  0  0  0
    0.0517    0.3823   -2.0247 H   0  0  0  0  0  0  0  0  0  0  0  0
    2.2665   -1.1707   -0.8154 H   0  0  0  0  0  0  0  0  0  0  0  0
    2.3285    0.4836   -1.4428 H   0  0  0  0  0  0  0  0  0  0  0  0
    0.9983    1.3043    0.4973 H   0  0  0  0  0  0  0  0  0  0  0  0
    0.7970   -0.3227    1.1123 H   0  0  0  0  0  0  0  0  0  0  0  0
    2.6562   -1.4906    2.2353 H   0  0  0  0  0  0  0  0  0  0  0  0
    4.8268   -1.2246    3.4211 H   0  0  0  0  0  0  0  0  0  0  0  0
    6.1320    0.8844    3.1096 H   0  0  0  0  0  0  0  0  0  0  0  0
    5.1956    2.6464    1.6078 H   0  0  0  0  0  0  0  0  0  0  0  0
  1  2  1  0
  2  3  1  0
  3  4  2  0
  4  5  1  0
  5  6  1  0
  6  7  1  0
  7  8  2  0
  7  9  1  0
  9 10  1  0
 10 11  1  0
 11 12  1  0
 12 13  2  0
 13 14  1  0
 14 15  2  0
 15 16  1  0
 16 17  2  0
  5 18  1  0
 18 19  2  0
 18 20  1  0
 20  2  2  0
 17 12  1  0
  1 21  1  0
  1 22  1  0
  3 23  1  0
  4 24  1  0
  6 25  1  0
  6 26  1  0
  9 27  1  0
 10 28  1  0
 10 29  1  0
 11 30  1  0
 11 31  1  0
 13 32  1  0
 14 33  1  0
 15 34  1  0
 16 35  1  0
M  END
$$$$
