
     RDKit          3D

 69 73  0  0  0  0  0  0  0  0999 V2000
   -2.3267    4.8994    3.7759 C   0  0  0  0  0  0  0  0  0  0  0  0
   -2.0404    3.5426    3.2049 C   0  0  0  0  0  0  0  0  0  0  0  0
   -0.9067    3.3305    2.4142 C   0  0  0  0  0  0  0  0  0  0  0  0
   -0.6231    2.0598    1.9061 C   0  0  0  0  0  0  0  0  0  0  0  0
   -1.4579    0.9721    2.1891 C   0  0  0  0  0  0  0  0  0  0  0  0
   -1.1662   -0.4101    1.6310 C   0  0  0  0  0  0  0  0  0  0  0  0
   -1.4814   -0.5105    0.2120 N   0  0  0  0  0  0  0  0  0  0  0  0
   -2.8526   -0.5955   -0.0929 C   0  0  0  0  0  0  0  0  0  0  0  0
   -3.7034   -0.9051    0.7461 O   0  0  0  0  0  0  0  0  0  0  0  0
   -3.2503   -0.1391   -1.5147 C   0  0  0  0  0  0  0  0  0  0  0  0
   -4.6603   -0.6461   -1.8694 C   0  0  0  0  0  0  0  0  0  0  0  0
   -5.2048   -0.2055   -3.2448 C   0  0  0  0  0  0  0  0  0  0  0  0
   -6.6037   -0.7927   -3.4566 C   0  0  0  0  0  0  0  0  0  0  0  0
   -5.2553    1.3152   -3.3958 C   0  0  0  0  0  0  0  0  0  0  0  0
   -2.2877   -0.6096   -2.4999 N   0  0  0  0  0  0  0  0  0  0  0  0
   -0.9715   -0.2767   -2.1706 C   0  0  0  0  0  0  0  0  0  0  0  0
   -0.2044    0.0058   -3.2337 N   0  0  0  0  0  0  0  0  0  0  0  0
    1.0828    0.2177   -2.9766 C   0  0  0  0  0  0  0  0  0  0  0  0
    1.6650    0.1202   -1.7799 N   0  0  0  0  0  0  0  0  0  0  0  0
    0.8842   -0.1874   -0.7200 C   0  0  0  0  0  0  0  0  0  0  0  0
    1.5652   -0.5034    0.4734 N   0  0  0  0  0  0  0  0  0  0  0  0
    1.7992   -1.9794    0.5542 C   0  0  0  0  0  0  0  0  0  0  0  0
    3.2679   -2.3735    0.2749 C   0  0  0  0  0  0  0  0  0  0  0  0
    4.2052   -1.7045    1.2198 N   0  0  0  0  0  0  0  0  0  0  0  0
    5.5417   -1.8283    0.8104 C   0  0  0  0  0  0  0  0  0  0  0  0
    6.1435   -3.0981    0.8281 C   0  0  0  0  0  0  0  0  0  0  0  0
    7.4690   -3.2882    0.4259 C   0  0  0  0  0  0  0  0  0  0  0  0
    8.2241   -2.2045   -0.0084 C   0  0  0  0  0  0  0  0  0  0  0  0
    7.6511   -0.9369   -0.0390 C   0  0  0  0  0  0  0  0  0  0  0  0
    6.3236   -0.7531    0.3661 C   0  0  0  0  0  0  0  0  0  0  0  0
    3.7213   -0.3990    1.7291 C   0  0  0  0  0  0  0  0  0  0  0  0
    2.7996    0.2979    0.7058 C   0  0  0  0  0  0  0  0  0  0  0  0
   -0.5115   -0.3222   -0.8455 C   0  0  0  0  0  0  0  0  0  0  0  0
   -2.5886    1.1885    2.9899 C   0  0  0  0  0  0  0  0  0  0  0  0
   -2.8736    2.4587    3.4979 C   0  0  0  0  0  0  0  0  0  0  0  0
   -3.4016    5.0406    3.9301 H   0  0  0  0  0  0  0  0  0  0  0  0
   -1.9906    5.6882    3.0946 H   0  0  0  0  0  0  0  0  0  0  0  0
   -1.8139    5.0174    4.7354 H   0  0  0  0  0  0  0  0  0  0  0  0
   -0.2361    4.1554    2.1845 H   0  0  0  0  0  0  0  0  0  0  0  0
    0.2565    1.9288    1.2843 H   0  0  0  0  0  0  0  0  0  0  0  0
   -1.7827   -1.1441    2.1675 H   0  0  0  0  0  0  0  0  0  0  0  0
   -0.1538   -0.7006    1.8891 H   0  0  0  0  0  0  0  0  0  0  0  0
   -3.2554    0.9588   -1.4898 H   0  0  0  0  0  0  0  0  0  0  0  0
   -4.6635   -1.7444   -1.8276 H   0  0  0  0  0  0  0  0  0  0  0  0
   -5.3635   -0.3130   -1.0937 H   0  0  0  0  0  0  0  0  0  0  0  0
   -4.5603   -0.6085   -4.0351 H   0  0  0  0  0  0  0  0  0  0  0  0
   -6.9895   -0.5307   -4.4476 H   0  0  0  0  0  0  0  0  0  0  0  0
   -6.5820   -1.8854   -3.3867 H   0  0  0  0  0  0  0  0  0  0  0  0
   -7.3102   -0.4185   -2.7081 H   0  0  0  0  0  0  0  0  0  0  0  0
   -4.2507    1.7495   -3.3897 H   0  0  0  0  0  0  0  0  0  0  0  0
   -5.8327    1.7757   -2.5869 H   0  0  0  0  0  0  0  0  0  0  0  0
   -5.7217    1.5957   -4.3466 H   0  0  0  0  0  0  0  0  0  0  0  0
   -2.4401   -0.3200   -3.4613 H   0  0  0  0  0  0  0  0  0  0  0  0
    1.7207    0.4708   -3.8162 H   0  0  0  0  0  0  0  0  0  0  0  0
    1.1371   -2.5425   -0.1167 H   0  0  0  0  0  0  0  0  0  0  0  0
    1.5428   -2.2960    1.5733 H   0  0  0  0  0  0  0  0  0  0  0  0
    3.5168   -2.1049   -0.7606 H   0  0  0  0  0  0  0  0  0  0  0  0
    3.3581   -3.4614    0.3733 H   0  0  0  0  0  0  0  0  0  0  0  0
    5.5778   -3.9555    1.1850 H   0  0  0  0  0  0  0  0  0  0  0  0
    7.9078   -4.2815    0.4595 H   0  0  0  0  0  0  0  0  0  0  0  0
    9.2548   -2.3462   -0.3212 H   0  0  0  0  0  0  0  0  0  0  0  0
    8.2335   -0.0862   -0.3827 H   0  0  0  0  0  0  0  0  0  0  0  0
    5.9124    0.2489    0.2995 H   0  0  0  0  0  0  0  0  0  0  0  0
    3.1503   -0.5964    2.6457 H   0  0  0  0  0  0  0  0  0  0  0  0
    4.5387    0.2648    2.0311 H   0  0  0  0  0  0  0  0  0  0  0  0
    3.3777    0.4615   -0.2118 H   0  0  0  0  0  0  0  0  0  0  0  0
    2.5112    1.2803    1.0950 H   0  0  0  0  0  0  0  0  0  0  0  0
   -3.2654    0.3657    3.2156 H   0  0  0  0  0  0  0  0  0  0  0  0
   -3.7559    2.5943    4.1194 H   0  0  0  0  0  0  0  0  0  0  0  0
  1  2  1  0
  2  3  2  0
  3  4  1  0
  4  5  2  0
  5  6  1  0
  6  7  1  0
  7  8  1  0
  8  9  2  0
  8 10  1  0
 10 11  1  0
 11 12  1  0
 12 13  1  0
 12 14  1  0
 10 15  1  0
 15 16  1  0
 16 17  2  0
 17 18  1  0
 18 19  2  0
 19 20  1  0
 20 21  1  0
 21 22  1  0
 22 23  1  0
 23 24  1  0
 24 25  1  0
 25 26  2  0
 26 27  1  0
 27 28  2  0
 28 29  1  0
 29 30  2  0
 24 31  1  0
 31 32  1  0
 20 33  2  0
  5 34  1  0
 34 35  2  0
 35  2  1  0
 33  7  1  0
 33 16  1  0
 32 21  1  0
 30 25  1  0
  1 36  1  0
  1 37  1  0
  1 38  1  0
  3 39  1  0
  4 40  1  0
  6 41  1  0
  6 42  1  0
 10 43  1  0
 11 44  1  0
 11 45  1  0
 12 46  1  0
 13 47  1  0
 13 48  1  0
 13 49  1  0
 14 50  1  0
 14 51  1  0
 14 52  1  0
 15 53  1  0
 18 54  1  0
 22 55  1  0
 22 56  1  0
 23 57  1  0
 23 58  1  0
 26 59  1  0
 27 60  1  0
 28 61  1  0
 29 62  1  0
 30 63  1  0
 31 64  1  0
 31 65  1  0
 32 66  1  0
 32 67  1  0
 34 68  1  0
 35 69  1  0
M  END
$$$$
