
     RDKit          3D

 37 38  0  0  0  0  0  0  0  0999 V2000
    5.3564    1.7771   -0.3275 C   0  0  0  0  0  0  0  0  0  0  0  0
    4.0325    1.3296   -0.5882 O   0  0  0  0  0  0  0  0  0  0  0  0
    3.6072    0.2048    0.0714 C   0  0  0  0  0  0  0  0  0  0  0  0
    4.4317   -0.6293    0.8332 C   0  0  0  0  0  0  0  0  0  0  0  0
    3.9049   -1.7560    1.4713 C   0  0  0  0  0  0  0  0  0  0  0  0
    2.5472   -2.0515    1.3638 C   0  0  0  0  0  0  0  0  0  0  0  0
    1.7036   -1.2212    0.6141 C   0  0  0  0  0  0  0  0  0  0  0  0
    0.2703   -1.5893    0.5562 C   0  0  0  0  0  0  0  0  0  0  0  0
   -0.1095   -2.7515    0.5568 O   0  0  0  0  0  0  0  0  0  0  0  0
   -0.4759   -0.4517    0.5654 O   0  0  0  0  0  0  0  0  0  0  0  0
   -1.8485   -0.7550    0.5117 N   0  0  0  0  0  0  0  0  0  0  0  0
   -2.5514    0.3328    0.3953 C   0  0  0  0  0  0  0  0  0  0  0  0
   -1.9869    1.5882    0.3207 N   0  0  0  0  0  0  0  0  0  0  0  0
   -4.0392    0.2015    0.3207 C   0  0  0  0  0  0  0  0  0  0  0  0
   -4.8635    1.2908    0.6029 C   0  0  0  0  0  0  0  0  0  0  0  0
   -6.2320    1.1082    0.5112 C   0  0  0  0  0  0  0  0  0  0  0  0
   -6.8126   -0.0597    0.1610 N   0  0  0  0  0  0  0  0  0  0  0  0
   -5.9891   -1.1008   -0.0924 C   0  0  0  0  0  0  0  0  0  0  0  0
   -4.6104   -1.0232   -0.0244 C   0  0  0  0  0  0  0  0  0  0  0  0
    2.2420   -0.1133   -0.0605 C   0  0  0  0  0  0  0  0  0  0  0  0
    1.4321    0.7020   -0.8192 O   0  0  0  0  0  0  0  0  0  0  0  0
    1.4933    0.3109   -2.1930 C   0  0  0  0  0  0  0  0  0  0  0  0
    5.5111    1.9638    0.7402 H   0  0  0  0  0  0  0  0  0  0  0  0
    6.0933    1.0666   -0.7166 H   0  0  0  0  0  0  0  0  0  0  0  0
    5.4979    2.7251   -0.8547 H   0  0  0  0  0  0  0  0  0  0  0  0
    5.4937   -0.4352    0.9466 H   0  0  0  0  0  0  0  0  0  0  0  0
    4.5542   -2.4018    2.0580 H   0  0  0  0  0  0  0  0  0  0  0  0
    2.1437   -2.9270    1.8708 H   0  0  0  0  0  0  0  0  0  0  0  0
   -2.4184    2.2160   -0.3476 H   0  0  0  0  0  0  0  0  0  0  0  0
   -0.9801    1.5326    0.1748 H   0  0  0  0  0  0  0  0  0  0  0  0
   -4.4636    2.2488    0.9112 H   0  0  0  0  0  0  0  0  0  0  0  0
   -6.9215    1.9191    0.7287 H   0  0  0  0  0  0  0  0  0  0  0  0
   -6.4840   -2.0308   -0.3604 H   0  0  0  0  0  0  0  0  0  0  0  0
   -4.0005   -1.8959   -0.2369 H   0  0  0  0  0  0  0  0  0  0  0  0
    1.1686   -0.7272   -2.3238 H   0  0  0  0  0  0  0  0  0  0  0  0
    2.4974    0.4498   -2.6071 H   0  0  0  0  0  0  0  0  0  0  0  0
    0.8058    0.9526   -2.7519 H   0  0  0  0  0  0  0  0  0  0  0  0
  1  2  1  0
  2  3  1  0
  3  4  2  0
  4  5  1  0
  5  6  2  0
  6  7  1  0
  7  8  1  0
  8  9  2  0
  8 10  1  0
 10 11  1  0
 11 12  2  3
 12 13  1  0
 12 14  1  0
 14 15  2  0
 15 16  1  0
 16 17  2  0
 17 18  1  0
 18 19  2  0
  7 20  2  0
 20 21  1  0
 21 22  1  0
 20  3  1  0
 19 14  1  0
  1 23  1  0
  1 24  1  0
  1 25  1  0
  4 26  1  0
  5 27  1  0
  6 28  1  0
 13 29  1  0
 13 30  1  0
 15 31  1  0
 16 32  1  0
 18 33  1  0
 19 34  1  0
 22 35  1  0
 22 36  1  0
 22 37  1  0
M  END
$$$$
