
     RDKit          3D

 43 46  0  0  0  0  0  0  0  0999 V2000
   -1.9120   -2.6952    1.2147 C   0  0  0  0  0  0  0  0  0  0  0  0
   -1.7334   -2.1434   -0.1865 C   0  0  0  0  0  0  0  0  0  0  0  0
   -1.8297   -0.7116   -0.1604 O   0  0  0  0  0  0  0  0  0  0  0  0
   -3.0767   -0.1932   -0.3334 C   0  0  0  0  0  0  0  0  0  0  0  0
   -4.0901   -0.8645   -0.4772 O   0  0  0  0  0  0  0  0  0  0  0  0
   -3.0371    1.2612   -0.3407 C   0  0  0  0  0  0  0  0  0  0  0  0
   -4.0967    2.0689   -0.7429 C   0  0  0  0  0  0  0  0  0  0  0  0
   -3.6525    3.4129   -0.6487 C   0  0  0  0  0  0  0  0  0  0  0  0
   -4.2450    5.0129   -0.9410 S   0  0  0  0  0  0  0  0  0  0  0  0
   -2.7295    5.6586   -0.4485 C   0  0  0  0  0  0  0  0  0  0  0  0
   -1.8076    4.7076   -0.0659 C   0  0  0  0  0  0  0  0  0  0  0  0
   -2.3724    3.4064   -0.1868 C   0  0  0  0  0  0  0  0  0  0  0  0
   -1.9959    2.0962    0.0366 N   0  0  0  0  0  0  0  0  0  0  0  0
   -0.7295    1.7431    0.6630 C   0  0  0  0  0  0  0  0  0  0  0  0
    0.3358    1.3542   -0.3412 C   0  0  0  0  0  0  0  0  0  0  0  0
    0.4253    1.8680   -1.4549 O   0  0  0  0  0  0  0  0  0  0  0  0
    1.3336    0.3174    0.0501 C   0  0  0  0  0  0  0  0  0  0  0  0
    1.6293    0.0348    1.3907 C   0  0  0  0  0  0  0  0  0  0  0  0
    2.5639   -0.9558    1.7068 C   0  0  0  0  0  0  0  0  0  0  0  0
    3.2082   -1.6568    0.6898 C   0  0  0  0  0  0  0  0  0  0  0  0
    2.9041   -1.3882   -0.6475 C   0  0  0  0  0  0  0  0  0  0  0  0
    1.9850   -0.3913   -0.9686 C   0  0  0  0  0  0  0  0  0  0  0  0
    3.4753   -2.0613   -1.6964 O   0  0  0  0  0  0  0  0  0  0  0  0
    4.1288   -3.2587   -1.2599 C   0  0  0  0  0  0  0  0  0  0  0  0
    4.9620   -2.9934   -0.0169 C   0  0  0  0  0  0  0  0  0  0  0  0
    4.1251   -2.5990    1.0775 O   0  0  0  0  0  0  0  0  0  0  0  0
   -2.9055   -2.4548    1.6063 H   0  0  0  0  0  0  0  0  0  0  0  0
   -1.7851   -3.7813    1.2235 H   0  0  0  0  0  0  0  0  0  0  0  0
   -1.1831   -2.2486    1.8991 H   0  0  0  0  0  0  0  0  0  0  0  0
   -2.4504   -2.5850   -0.8877 H   0  0  0  0  0  0  0  0  0  0  0  0
   -0.7321   -2.3904   -0.5542 H   0  0  0  0  0  0  0  0  0  0  0  0
   -5.0654    1.7243   -1.0824 H   0  0  0  0  0  0  0  0  0  0  0  0
   -2.5909    6.7309   -0.4694 H   0  0  0  0  0  0  0  0  0  0  0  0
   -0.8031    4.9362    0.2648 H   0  0  0  0  0  0  0  0  0  0  0  0
   -0.3713    2.6048    1.2362 H   0  0  0  0  0  0  0  0  0  0  0  0
   -0.9444    0.9423    1.3757 H   0  0  0  0  0  0  0  0  0  0  0  0
    1.1644    0.5790    2.2076 H   0  0  0  0  0  0  0  0  0  0  0  0
    2.8023   -1.1714    2.7455 H   0  0  0  0  0  0  0  0  0  0  0  0
    1.7656   -0.1814   -2.0138 H   0  0  0  0  0  0  0  0  0  0  0  0
    4.7683   -3.6049   -2.0779 H   0  0  0  0  0  0  0  0  0  0  0  0
    3.3650   -4.0242   -1.0751 H   0  0  0  0  0  0  0  0  0  0  0  0
    5.7035   -2.2038   -0.1909 H   0  0  0  0  0  0  0  0  0  0  0  0
    5.4942   -3.9014    0.2833 H   0  0  0  0  0  0  0  0  0  0  0  0
  1  2  1  0
  2  3  1  0
  3  4  1  0
  4  5  2  0
  4  6  1  0
  6  7  2  0
  7  8  1  0
  8  9  1  0
  9 10  1  0
 10 11  2  0
 11 12  1  0
 12 13  1  0
 13 14  1  0
 14 15  1  0
 15 16  2  0
 15 17  1  0
 17 18  2  0
 18 19  1  0
 19 20  2  0
 20 21  1  0
 21 22  2  0
 21 23  1  0
 23 24  1  0
 24 25  1  0
 25 26  1  0
 13  6  1  0
 22 17  1  0
 12  8  2  0
 26 20  1  0
  1 27  1  0
  1 28  1  0
  1 29  1  0
  2 30  1  0
  2 31  1  0
  7 32  1  0
 10 33  1  0
 11 34  1  0
 14 35  1  0
 14 36  1  0
 18 37  1  0
 19 38  1  0
 22 39  1  0
 24 40  1  0
 24 41  1  0
 25 42  1  0
 25 43  1  0
M  END
$$$$
