
     RDKit          3D

 49 52  0  0  0  0  0  0  0  0999 V2000
   -1.8990    3.8066    0.3208 C   0  0  0  0  0  0  0  0  0  0  0  0
   -0.6399    3.6853    1.1685 C   0  0  0  0  0  0  0  0  0  0  0  0
   -0.5747    2.3825    1.9676 C   0  0  0  0  0  0  0  0  0  0  0  0
   -0.3995    1.1713    1.0930 C   0  0  0  0  0  0  0  0  0  0  0  0
    0.8381    0.9088    0.6320 N   0  0  0  0  0  0  0  0  0  0  0  0
    1.0243   -0.1588   -0.1726 C   0  0  0  0  0  0  0  0  0  0  0  0
    2.3142   -0.4002   -0.6539 N   0  0  0  0  0  0  0  0  0  0  0  0
    2.8705   -1.7523   -0.4281 C   0  0  0  0  0  0  0  0  0  0  0  0
    4.2739   -1.7091    0.2250 C   0  0  0  0  0  0  0  0  0  0  0  0
    5.2724   -0.8528   -0.4471 N   0  0  0  0  0  0  0  0  0  0  0  0
    6.0737   -1.6033   -1.4103 C   0  0  0  0  0  0  0  0  0  0  0  0
    4.6332    0.3140   -1.0989 C   0  0  0  0  0  0  0  0  0  0  0  0
    3.2750    0.7062   -0.4769 C   0  0  0  0  0  0  0  0  0  0  0  0
   -0.0636   -0.9390   -0.5298 C   0  0  0  0  0  0  0  0  0  0  0  0
   -0.1947   -2.2899   -1.6569 S   0  0  0  0  0  0  0  0  0  0  0  0
   -1.9390   -2.4434   -1.3622 C   0  0  0  0  0  0  0  0  0  0  0  0
   -2.7967   -3.7110   -2.0380 S   0  0  0  0  0  0  0  0  0  0  0  0
   -2.3534   -1.4449   -0.4739 N   0  0  0  0  0  0  0  0  0  0  0  0
   -3.6914   -1.1865   -0.0525 C   0  0  0  0  0  0  0  0  0  0  0  0
   -3.9910   -0.9098    1.2913 C   0  0  0  0  0  0  0  0  0  0  0  0
   -5.3045   -0.6653    1.7042 C   0  0  0  0  0  0  0  0  0  0  0  0
   -6.3424   -0.6906    0.7783 C   0  0  0  0  0  0  0  0  0  0  0  0
   -6.0665   -0.9573   -0.5591 C   0  0  0  0  0  0  0  0  0  0  0  0
   -4.7521   -1.2026   -0.9702 C   0  0  0  0  0  0  0  0  0  0  0  0
   -1.2985   -0.6026   -0.0070 C   0  0  0  0  0  0  0  0  0  0  0  0
   -1.4892    0.4479    0.8054 N   0  0  0  0  0  0  0  0  0  0  0  0
   -1.9279    3.0467   -0.4659 H   0  0  0  0  0  0  0  0  0  0  0  0
   -2.7984    3.7021    0.9360 H   0  0  0  0  0  0  0  0  0  0  0  0
   -1.9323    4.7879   -0.1635 H   0  0  0  0  0  0  0  0  0  0  0  0
    0.2414    3.7834    0.5234 H   0  0  0  0  0  0  0  0  0  0  0  0
   -0.6154    4.5259    1.8722 H   0  0  0  0  0  0  0  0  0  0  0  0
    0.2724    2.4298    2.6627 H   0  0  0  0  0  0  0  0  0  0  0  0
   -1.4770    2.2683    2.5803 H   0  0  0  0  0  0  0  0  0  0  0  0
    2.9436   -2.2615   -1.3962 H   0  0  0  0  0  0  0  0  0  0  0  0
    2.2261   -2.3573    0.2217 H   0  0  0  0  0  0  0  0  0  0  0  0
    4.1570   -1.3210    1.2458 H   0  0  0  0  0  0  0  0  0  0  0  0
    4.6530   -2.7313    0.3492 H   0  0  0  0  0  0  0  0  0  0  0  0
    6.6264   -2.4046   -0.9076 H   0  0  0  0  0  0  0  0  0  0  0  0
    5.4611   -2.0514   -2.2007 H   0  0  0  0  0  0  0  0  0  0  0  0
    6.8213   -0.9528   -1.8778 H   0  0  0  0  0  0  0  0  0  0  0  0
    5.3205    1.1652   -1.0357 H   0  0  0  0  0  0  0  0  0  0  0  0
    4.4627    0.1141   -2.1659 H   0  0  0  0  0  0  0  0  0  0  0  0
    3.4145    0.9498    0.5848 H   0  0  0  0  0  0  0  0  0  0  0  0
    2.9058    1.6043   -0.9878 H   0  0  0  0  0  0  0  0  0  0  0  0
   -3.2089   -0.9061    2.0466 H   0  0  0  0  0  0  0  0  0  0  0  0
   -5.5131   -0.4594    2.7508 H   0  0  0  0  0  0  0  0  0  0  0  0
   -7.3637   -0.5003    1.0975 H   0  0  0  0  0  0  0  0  0  0  0  0
   -6.8723   -0.9691   -1.2888 H   0  0  0  0  0  0  0  0  0  0  0  0
   -4.5757   -1.3660   -2.0300 H   0  0  0  0  0  0  0  0  0  0  0  0
  1  2  1  0
  2  3  1  0
  3  4  1  0
  4  5  2  0
  5  6  1  0
  6  7  1  0
  7  8  1  0
  8  9  1  0
  9 10  1  0
 10 11  1  0
 10 12  1  0
 12 13  1  0
  6 14  2  0
 14 15  1  0
 15 16  1  0
 16 17  2  0
 16 18  1  0
 18 19  1  0
 19 20  2  0
 20 21  1  0
 21 22  2  0
 22 23  1  0
 23 24  2  0
 18 25  1  0
 25 26  2  0
 26  4  1  0
 13  7  1  0
 25 14  1  0
 24 19  1  0
  1 27  1  0
  1 28  1  0
  1 29  1  0
  2 30  1  0
  2 31  1  0
  3 32  1  0
  3 33  1  0
  8 34  1  0
  8 35  1  0
  9 36  1  0
  9 37  1  0
 11 38  1  0
 11 39  1  0
 11 40  1  0
 12 41  1  0
 12 42  1  0
 13 43  1  0
 13 44  1  0
 20 45  1  0
 21 46  1  0
 22 47  1  0
 23 48  1  0
 24 49  1  0
M  END
$$$$
