
     RDKit          3D

 50 53  0  0  0  0  0  0  0  0999 V2000
    7.6495    1.8913    0.0579 C   0  0  0  0  0  0  0  0  0  0  0  0
    6.8192    0.8881   -0.5140 O   0  0  0  0  0  0  0  0  0  0  0  0
    5.4899    0.9356   -0.1997 C   0  0  0  0  0  0  0  0  0  0  0  0
    4.8702    1.8800    0.6130 C   0  0  0  0  0  0  0  0  0  0  0  0
    3.4910    1.8071    0.8494 C   0  0  0  0  0  0  0  0  0  0  0  0
    2.7086    0.7831    0.2856 C   0  0  0  0  0  0  0  0  0  0  0  0
    1.3058    0.7585    0.5620 N   0  0  0  0  0  0  0  0  0  0  0  0
    0.7363    1.8422    1.1697 N   0  0  0  0  0  0  0  0  0  0  0  0
   -0.5661    1.5793    1.2252 C   0  0  0  0  0  0  0  0  0  0  0  0
   -0.8805    0.3298    0.6816 C   0  0  0  0  0  0  0  0  0  0  0  0
    0.3399   -0.2101    0.3148 C   0  0  0  0  0  0  0  0  0  0  0  0
    0.5227   -1.6005   -0.1996 C   0  0  0  0  0  0  0  0  0  0  0  0
   -0.7346   -2.4824    0.0845 C   0  0  0  0  0  0  0  0  0  0  0  0
   -0.7356   -2.9629    1.5502 C   0  0  0  0  0  0  0  0  0  0  0  0
   -0.6796   -3.7265   -0.8225 C   0  0  0  0  0  0  0  0  0  0  0  0
   -2.0363   -1.6887   -0.2320 C   0  0  0  0  0  0  0  0  0  0  0  0
   -2.1865   -0.3808    0.5819 C   0  0  0  0  0  0  0  0  0  0  0  0
   -3.1351    0.5108   -0.0509 N   0  0  0  0  0  0  0  0  0  0  0  0
   -4.4910    0.3169    0.0773 C   0  0  0  0  0  0  0  0  0  0  0  0
   -4.9729   -0.5530    0.7946 O   0  0  0  0  0  0  0  0  0  0  0  0
   -5.3217    1.2094   -0.7117 C   0  0  0  0  0  0  0  0  0  0  0  0
   -6.7319    1.1680   -0.8221 C   0  0  0  0  0  0  0  0  0  0  0  0
   -7.2199    2.1199   -1.6216 N   0  0  0  0  0  0  0  0  0  0  0  0
   -6.1277    2.7864   -2.0209 N   0  0  0  0  0  0  0  0  0  0  0  0
   -4.9654    2.2823   -1.5086 C   0  0  0  0  0  0  0  0  0  0  0  0
    3.3363   -0.1510   -0.5416 C   0  0  0  0  0  0  0  0  0  0  0  0
    4.7158   -0.0727   -0.7755 C   0  0  0  0  0  0  0  0  0  0  0  0
    7.6458    1.8313    1.1513 H   0  0  0  0  0  0  0  0  0  0  0  0
    7.3562    2.8890   -0.2852 H   0  0  0  0  0  0  0  0  0  0  0  0
    8.6740    1.7107   -0.2817 H   0  0  0  0  0  0  0  0  0  0  0  0
    5.4229    2.6881    1.0803 H   0  0  0  0  0  0  0  0  0  0  0  0
    3.0406    2.5621    1.4929 H   0  0  0  0  0  0  0  0  0  0  0  0
   -1.2305    2.3097    1.6700 H   0  0  0  0  0  0  0  0  0  0  0  0
    1.4007   -2.0737    0.2540 H   0  0  0  0  0  0  0  0  0  0  0  0
    0.6811   -1.5435   -1.2839 H   0  0  0  0  0  0  0  0  0  0  0  0
    0.1419   -3.5858    1.7587 H   0  0  0  0  0  0  0  0  0  0  0  0
   -1.6264   -3.5643    1.7640 H   0  0  0  0  0  0  0  0  0  0  0  0
   -0.7189   -2.1322    2.2623 H   0  0  0  0  0  0  0  0  0  0  0  0
   -1.5360   -4.3859   -0.6419 H   0  0  0  0  0  0  0  0  0  0  0  0
   -0.6939   -3.4468   -1.8819 H   0  0  0  0  0  0  0  0  0  0  0  0
    0.2332   -4.3058   -0.6435 H   0  0  0  0  0  0  0  0  0  0  0  0
   -2.0413   -1.4466   -1.3053 H   0  0  0  0  0  0  0  0  0  0  0  0
   -2.9185   -2.3212   -0.0670 H   0  0  0  0  0  0  0  0  0  0  0  0
   -2.5449   -0.6191    1.5910 H   0  0  0  0  0  0  0  0  0  0  0  0
   -2.7961    1.1245   -0.7765 H   0  0  0  0  0  0  0  0  0  0  0  0
   -7.4153    0.4742   -0.3469 H   0  0  0  0  0  0  0  0  0  0  0  0
   -6.2503    3.5789   -2.6437 H   0  0  0  0  0  0  0  0  0  0  0  0
   -4.0168    2.7379   -1.7511 H   0  0  0  0  0  0  0  0  0  0  0  0
    2.8003   -0.9364   -1.0560 H   0  0  0  0  0  0  0  0  0  0  0  0
    5.1918   -0.8053   -1.4241 H   0  0  0  0  0  0  0  0  0  0  0  0
  1  2  1  0
  2  3  1  0
  3  4  2  0
  4  5  1  0
  5  6  2  0
  6  7  1  0
  7  8  1  0
  8  9  2  0
  9 10  1  0
 10 11  2  0
 11 12  1  0
 12 13  1  0
 13 14  1  0
 13 15  1  0
 13 16  1  0
 16 17  1  0
 17 18  1  0
 18 19  1  0
 19 20  2  0
 19 21  1  0
 21 22  1  0
 22 23  2  0
 23 24  1  0
 24 25  1  0
  6 26  1  0
 26 27  2  0
 27  3  1  0
 11  7  1  0
 25 21  2  0
 17 10  1  0
  1 28  1  0
  1 29  1  0
  1 30  1  0
  4 31  1  0
  5 32  1  0
  9 33  1  0
 12 34  1  0
 12 35  1  0
 14 36  1  0
 14 37  1  0
 14 38  1  0
 15 39  1  0
 15 40  1  0
 15 41  1  0
 16 42  1  0
 16 43  1  0
 17 44  1  0
 18 45  1  0
 22 46  1  0
 24 47  1  0
 25 48  1  0
 26 49  1  0
 27 50  1  0
M  END
$$$$
