
     RDKit          3D

 38 40  0  0  0  0  0  0  0  0999 V2000
   -3.7888    1.7562   -2.0380 C   0  0  0  0  0  0  0  0  0  0  0  0
   -4.6988    0.8370   -1.4465 O   0  0  0  0  0  0  0  0  0  0  0  0
   -4.1708   -0.1711   -0.6886 C   0  0  0  0  0  0  0  0  0  0  0  0
   -5.1195   -1.0104   -0.0976 C   0  0  0  0  0  0  0  0  0  0  0  0
   -4.7229   -2.0923    0.6883 C   0  0  0  0  0  0  0  0  0  0  0  0
   -3.3696   -2.3328    0.8935 C   0  0  0  0  0  0  0  0  0  0  0  0
   -3.0508   -3.4275    1.6507 O   0  0  0  0  0  0  0  0  0  0  0  0
   -2.4044   -1.4810    0.3392 C   0  0  0  0  0  0  0  0  0  0  0  0
   -0.9671   -1.7496    0.5992 C   0  0  0  0  0  0  0  0  0  0  0  0
   -0.6139   -2.9082    0.8170 O   0  0  0  0  0  0  0  0  0  0  0  0
    0.0516   -0.6816    0.6266 C   0  0  0  0  0  0  0  0  0  0  0  0
   -0.2076    0.5790    1.1472 C   0  0  0  0  0  0  0  0  0  0  0  0
    0.7032    1.5811    1.1763 N   0  0  0  0  0  0  0  0  0  0  0  0
    1.9373    1.2965    0.7116 C   0  0  0  0  0  0  0  0  0  0  0  0
    2.3042    0.0640    0.2010 C   0  0  0  0  0  0  0  0  0  0  0  0
    1.3390   -0.9456    0.1563 C   0  0  0  0  0  0  0  0  0  0  0  0
    3.6761   -0.1100   -0.3556 C   0  0  0  0  0  0  0  0  0  0  0  0
    4.6158    0.9026    0.0913 N   0  0  0  0  0  0  0  0  0  0  0  0
    6.0076    0.7110   -0.2719 C   0  0  0  0  0  0  0  0  0  0  0  0
    4.1979    2.1624    0.4708 C   0  0  0  0  0  0  0  0  0  0  0  0
    4.9553    3.1233    0.5890 O   0  0  0  0  0  0  0  0  0  0  0  0
    2.8759    2.3074    0.7533 N   0  0  0  0  0  0  0  0  0  0  0  0
   -2.8109   -0.4129   -0.4779 C   0  0  0  0  0  0  0  0  0  0  0  0
   -3.2010    2.2769   -1.2748 H   0  0  0  0  0  0  0  0  0  0  0  0
   -4.3745    2.5066   -2.5776 H   0  0  0  0  0  0  0  0  0  0  0  0
   -3.1398    1.2546   -2.7633 H   0  0  0  0  0  0  0  0  0  0  0  0
   -6.1793   -0.8263   -0.2606 H   0  0  0  0  0  0  0  0  0  0  0  0
   -5.4669   -2.7497    1.1302 H   0  0  0  0  0  0  0  0  0  0  0  0
   -2.0902   -3.6051    1.5358 H   0  0  0  0  0  0  0  0  0  0  0  0
   -1.1706    0.8393    1.5786 H   0  0  0  0  0  0  0  0  0  0  0  0
    1.5831   -1.9275   -0.2441 H   0  0  0  0  0  0  0  0  0  0  0  0
    3.6323   -0.0650   -1.4501 H   0  0  0  0  0  0  0  0  0  0  0  0
    4.0722   -1.0871   -0.0557 H   0  0  0  0  0  0  0  0  0  0  0  0
    6.1086    0.8353   -1.3542 H   0  0  0  0  0  0  0  0  0  0  0  0
    6.3203   -0.2971    0.0148 H   0  0  0  0  0  0  0  0  0  0  0  0
    6.6542    1.4358    0.2306 H   0  0  0  0  0  0  0  0  0  0  0  0
    2.5777    3.2017    1.1123 H   0  0  0  0  0  0  0  0  0  0  0  0
   -2.0651    0.2100   -0.9586 H   0  0  0  0  0  0  0  0  0  0  0  0
  1  2  1  0
  2  3  1  0
  3  4  2  0
  4  5  1  0
  5  6  2  0
  6  7  1  0
  6  8  1  0
  8  9  1  0
  9 10  2  0
  9 11  1  0
 11 12  2  0
 12 13  1  0
 13 14  2  0
 14 15  1  0
 15 16  2  0
 15 17  1  0
 17 18  1  0
 18 19  1  0
 18 20  1  0
 20 21  2  0
 20 22  1  0
  8 23  2  0
 23  3  1  0
 16 11  1  0
 22 14  1  0
  1 24  1  0
  1 25  1  0
  1 26  1  0
  4 27  1  0
  5 28  1  0
  7 29  1  0
 12 30  1  0
 16 31  1  0
 17 32  1  0
 17 33  1  0
 19 34  1  0
 19 35  1  0
 19 36  1  0
 22 37  1  0
 23 38  1  0
M  END
$$$$
