
     RDKit          3D

 51 52  0  0  0  0  0  0  0  0999 V2000
    2.7969   -3.4710   -1.9002 C   0  0  0  0  0  0  0  0  0  0  0  0
    3.1534   -2.4707   -0.8718 N   0  0  0  0  0  0  0  0  0  0  0  0
    4.3444   -2.8872   -0.0996 C   0  0  0  0  0  0  0  0  0  0  0  0
    3.2063   -0.8858   -1.4564 S   0  0  0  0  0  6  0  0  0  0  0  0
    4.5231   -0.6377   -1.9935 O   0  0  0  0  0  0  0  0  0  0  0  0
    2.0217   -0.6259   -2.2414 O   0  0  0  0  0  0  0  0  0  0  0  0
    3.0859    0.0056   -0.0207 N   0  0  0  0  0  0  0  0  0  0  0  0
    1.8149   -0.0423    0.6342 C   0  0  0  0  0  0  0  0  0  0  0  0
    1.5926   -0.9862    1.6289 C   0  0  0  0  0  0  0  0  0  0  0  0
    0.3359   -1.0850    2.2320 C   0  0  0  0  0  0  0  0  0  0  0  0
   -0.7301   -0.2813    1.8120 C   0  0  0  0  0  0  0  0  0  0  0  0
   -1.9922   -0.3558    2.4769 N   0  0  0  0  0  0  0  0  0  0  0  0
   -2.8315   -1.7971    2.6676 S   0  0  0  0  0  6  0  0  0  0  0  0
   -3.9089   -1.4984    3.5829 O   0  0  0  0  0  0  0  0  0  0  0  0
   -1.9077   -2.8705    2.9470 O   0  0  0  0  0  0  0  0  0  0  0  0
   -3.4856   -2.0262    1.1420 N   0  0  0  0  0  0  0  0  0  0  0  0
   -4.5755   -1.1185    0.7485 C   0  0  0  0  0  0  0  0  0  0  0  0
   -2.5986   -2.4198    0.0424 C   0  0  0  0  0  0  0  0  0  0  0  0
   -0.4752    0.7073    0.8488 C   0  0  0  0  0  0  0  0  0  0  0  0
   -1.7490    1.8551    0.3862 S   0  0  0  0  0  6  0  0  0  0  0  0
   -2.5783    1.1824   -0.5970 O   0  0  0  0  0  0  0  0  0  0  0  0
   -2.3176    2.3891    1.6119 O   0  0  0  0  0  0  0  0  0  0  0  0
   -1.0021    3.2519   -0.4349 C   0  0  0  0  0  0  0  0  0  0  0  0
   -0.9984    3.3170   -1.8317 C   0  0  0  0  0  0  0  0  0  0  0  0
   -0.4078    4.4112   -2.4629 C   0  0  0  0  0  0  0  0  0  0  0  0
    0.1612    5.4346   -1.7025 C   0  0  0  0  0  0  0  0  0  0  0  0
    0.1374    5.3731   -0.3079 C   0  0  0  0  0  0  0  0  0  0  0  0
   -0.4491    4.2823    0.3328 C   0  0  0  0  0  0  0  0  0  0  0  0
    0.7864    0.8108    0.2419 C   0  0  0  0  0  0  0  0  0  0  0  0
    1.8080   -3.2571   -2.3160 H   0  0  0  0  0  0  0  0  0  0  0  0
    3.5391   -3.4896   -2.7041 H   0  0  0  0  0  0  0  0  0  0  0  0
    2.7460   -4.4684   -1.4511 H   0  0  0  0  0  0  0  0  0  0  0  0
    4.1245   -3.8169    0.4356 H   0  0  0  0  0  0  0  0  0  0  0  0
    5.2015   -3.0579   -0.7581 H   0  0  0  0  0  0  0  0  0  0  0  0
    4.6107   -2.1408    0.6537 H   0  0  0  0  0  0  0  0  0  0  0  0
    3.3812    0.9558   -0.2482 H   0  0  0  0  0  0  0  0  0  0  0  0
    2.3915   -1.6499    1.9481 H   0  0  0  0  0  0  0  0  0  0  0  0
    0.2133   -1.8119    3.0317 H   0  0  0  0  0  0  0  0  0  0  0  0
   -2.0665    0.2044    3.3286 H   0  0  0  0  0  0  0  0  0  0  0  0
   -4.8053   -1.2180   -0.3171 H   0  0  0  0  0  0  0  0  0  0  0  0
   -4.3206   -0.0748    0.9446 H   0  0  0  0  0  0  0  0  0  0  0  0
   -5.4833   -1.3737    1.3035 H   0  0  0  0  0  0  0  0  0  0  0  0
   -1.7890   -3.0687    0.3872 H   0  0  0  0  0  0  0  0  0  0  0  0
   -3.1691   -2.9943   -0.6950 H   0  0  0  0  0  0  0  0  0  0  0  0
   -2.1702   -1.5481   -0.4567 H   0  0  0  0  0  0  0  0  0  0  0  0
   -1.4467    2.5283   -2.4326 H   0  0  0  0  0  0  0  0  0  0  0  0
   -0.3967    4.4714   -3.5491 H   0  0  0  0  0  0  0  0  0  0  0  0
    0.6144    6.2897   -2.1995 H   0  0  0  0  0  0  0  0  0  0  0  0
    0.5677    6.1824    0.2777 H   0  0  0  0  0  0  0  0  0  0  0  0
   -0.4787    4.2488    1.4197 H   0  0  0  0  0  0  0  0  0  0  0  0
    0.9756    1.5279   -0.5507 H   0  0  0  0  0  0  0  0  0  0  0  0
  1  2  1  0
  2  3  1  0
  2  4  1  0
  4  5  2  0
  4  6  2  0
  4  7  1  0
  7  8  1  0
  8  9  2  0
  9 10  1  0
 10 11  2  0
 11 12  1  0
 12 13  1  0
 13 14  2  0
 13 15  2  0
 13 16  1  0
 16 17  1  0
 16 18  1  0
 11 19  1  0
 19 20  1  0
 20 21  2  0
 20 22  2  0
 20 23  1  0
 23 24  2  0
 24 25  1  0
 25 26  2  0
 26 27  1  0
 27 28  2  0
 19 29  2  0
 29  8  1  0
 28 23  1  0
  1 30  1  0
  1 31  1  0
  1 32  1  0
  3 33  1  0
  3 34  1  0
  3 35  1  0
  7 36  1  0
  9 37  1  0
 10 38  1  0
 12 39  1  0
 17 40  1  0
 17 41  1  0
 17 42  1  0
 18 43  1  0
 18 44  1  0
 18 45  1  0
 24 46  1  0
 25 47  1  0
 26 48  1  0
 27 49  1  0
 28 50  1  0
 29 51  1  0
M  END
$$$$
