
     RDKit          3D

 45 47  0  0  0  0  0  0  0  0999 V2000
    7.6389    0.6341    0.7673 C   0  0  0  0  0  0  0  0  0  0  0  0
    6.9828   -0.4131    1.6493 C   0  0  0  0  0  0  0  0  0  0  0  0
    6.0171   -1.1666    0.9164 O   0  0  0  0  0  0  0  0  0  0  0  0
    4.7541   -0.6688    0.7721 C   0  0  0  0  0  0  0  0  0  0  0  0
    4.2516    0.4996    1.3375 C   0  0  0  0  0  0  0  0  0  0  0  0
    2.9260    0.8862    1.0952 C   0  0  0  0  0  0  0  0  0  0  0  0
    2.0870    0.1153    0.2812 C   0  0  0  0  0  0  0  0  0  0  0  0
    0.7684    0.5729    0.0914 N   0  0  0  0  0  0  0  0  0  0  0  0
   -0.1743    0.0783   -0.7849 C   0  0  0  0  0  0  0  0  0  0  0  0
   -0.0085   -0.8011   -1.6179 O   0  0  0  0  0  0  0  0  0  0  0  0
   -1.3774    0.7330   -0.6178 N   0  0  0  0  0  0  0  0  0  0  0  0
   -2.5571    0.3783   -1.4017 C   0  0  0  0  0  0  0  0  0  0  0  0
   -3.1523    1.6785   -1.9660 C   0  0  0  0  0  0  0  0  0  0  0  0
   -4.5354    1.4380   -2.5493 C   0  0  0  0  0  0  0  0  0  0  0  0
   -5.4930    0.9929   -1.4474 C   0  0  0  0  0  0  0  0  0  0  0  0
   -4.9386   -0.1333   -0.6116 C   0  0  0  0  0  0  0  0  0  0  0  0
   -5.8294   -0.8917    0.1656 C   0  0  0  0  0  0  0  0  0  0  0  0
   -5.3707   -1.9511    0.9449 C   0  0  0  0  0  0  0  0  0  0  0  0
   -4.0169   -2.2660    0.9547 C   0  0  0  0  0  0  0  0  0  0  0  0
   -3.1197   -1.5101    0.1984 C   0  0  0  0  0  0  0  0  0  0  0  0
   -3.5581   -0.4176   -0.5715 C   0  0  0  0  0  0  0  0  0  0  0  0
    2.5910   -1.0570   -0.2774 C   0  0  0  0  0  0  0  0  0  0  0  0
    3.9143   -1.4429   -0.0312 C   0  0  0  0  0  0  0  0  0  0  0  0
    8.4532    1.1348    1.2978 H   0  0  0  0  0  0  0  0  0  0  0  0
    8.0427    0.1751   -0.1419 H   0  0  0  0  0  0  0  0  0  0  0  0
    6.9198    1.3927    0.4485 H   0  0  0  0  0  0  0  0  0  0  0  0
    7.7516   -1.1265    1.9639 H   0  0  0  0  0  0  0  0  0  0  0  0
    6.5726    0.0117    2.5726 H   0  0  0  0  0  0  0  0  0  0  0  0
    4.8594    1.1408    1.9655 H   0  0  0  0  0  0  0  0  0  0  0  0
    2.5654    1.8057    1.5488 H   0  0  0  0  0  0  0  0  0  0  0  0
    0.5275    1.4494    0.5281 H   0  0  0  0  0  0  0  0  0  0  0  0
   -1.5696    1.0679    0.3124 H   0  0  0  0  0  0  0  0  0  0  0  0
   -2.2649   -0.2576   -2.2478 H   0  0  0  0  0  0  0  0  0  0  0  0
   -3.2197    2.4442   -1.1796 H   0  0  0  0  0  0  0  0  0  0  0  0
   -2.4840    2.0854   -2.7365 H   0  0  0  0  0  0  0  0  0  0  0  0
   -4.4792    0.6734   -3.3339 H   0  0  0  0  0  0  0  0  0  0  0  0
   -4.9122    2.3534   -3.0174 H   0  0  0  0  0  0  0  0  0  0  0  0
   -6.4377    0.6840   -1.9091 H   0  0  0  0  0  0  0  0  0  0  0  0
   -5.7094    1.8381   -0.7818 H   0  0  0  0  0  0  0  0  0  0  0  0
   -6.8936   -0.6655    0.1563 H   0  0  0  0  0  0  0  0  0  0  0  0
   -6.0716   -2.5394    1.5322 H   0  0  0  0  0  0  0  0  0  0  0  0
   -3.6565   -3.1054    1.5427 H   0  0  0  0  0  0  0  0  0  0  0  0
   -2.0683   -1.7923    0.2032 H   0  0  0  0  0  0  0  0  0  0  0  0
    1.9829   -1.6984   -0.9082 H   0  0  0  0  0  0  0  0  0  0  0  0
    4.2917   -2.3593   -0.4788 H   0  0  0  0  0  0  0  0  0  0  0  0
  1  2  1  0
  2  3  1  0
  3  4  1  0
  4  5  2  0
  5  6  1  0
  6  7  2  0
  7  8  1  0
  8  9  1  0
  9 10  2  0
  9 11  1  0
 11 12  1  0
 12 13  1  0
 13 14  1  0
 14 15  1  0
 15 16  1  0
 16 17  2  0
 17 18  1  0
 18 19  2  0
 19 20  1  0
 20 21  2  0
  7 22  1  0
 22 23  2  0
 23  4  1  0
 21 12  1  0
 21 16  1  0
  1 24  1  0
  1 25  1  0
  1 26  1  0
  2 27  1  0
  2 28  1  0
  5 29  1  0
  6 30  1  0
  8 31  1  0
 11 32  1  0
 12 33  1  0
 13 34  1  0
 13 35  1  0
 14 36  1  0
 14 37  1  0
 15 38  1  0
 15 39  1  0
 17 40  1  0
 18 41  1  0
 19 42  1  0
 20 43  1  0
 22 44  1  0
 23 45  1  0
M  END
$$$$
