
     RDKit          3D

 44 46  0  0  0  0  0  0  0  0999 V2000
    7.8548   -1.0361   -1.8810 C   0  0  0  0  0  0  0  0  0  0  0  0
    7.0745   -1.0885   -0.6932 O   0  0  0  0  0  0  0  0  0  0  0  0
    5.8036   -0.5908   -0.7688 C   0  0  0  0  0  0  0  0  0  0  0  0
    5.2022   -0.0380   -1.8979 C   0  0  0  0  0  0  0  0  0  0  0  0
    3.8842    0.4382   -1.8390 C   0  0  0  0  0  0  0  0  0  0  0  0
    3.1545    0.3677   -0.6525 C   0  0  0  0  0  0  0  0  0  0  0  0
    1.8306    0.8216   -0.5118 N   0  0  0  0  0  0  0  0  0  0  0  0
    1.0217    1.4106   -1.4654 C   0  0  0  0  0  0  0  0  0  0  0  0
    1.3344    1.6759   -2.6237 O   0  0  0  0  0  0  0  0  0  0  0  0
   -0.3660    1.7802   -0.9289 C   0  0  0  0  0  0  0  0  0  0  0  0
   -1.0479    0.6846   -0.3282 O   0  0  0  0  0  0  0  0  0  0  0  0
   -1.1537    0.7747    1.0213 C   0  0  0  0  0  0  0  0  0  0  0  0
   -0.0309    1.0627    1.6869 N   0  0  0  0  0  0  0  0  0  0  0  0
   -0.4833    0.9988    3.2916 S   0  0  0  0  0  0  0  0  0  0  0  0
   -2.0740    0.5494    3.1368 N   0  0  0  0  0  0  0  0  0  0  0  0
   -2.3341    0.4469    1.8243 C   0  0  0  0  0  0  0  0  0  0  0  0
   -3.5841    0.0848    1.3463 N   0  0  0  0  0  0  0  0  0  0  0  0
   -4.3738   -0.8126    2.2136 C   0  0  0  0  0  0  0  0  0  0  0  0
   -5.8613   -0.7450    1.8820 C   0  0  0  0  0  0  0  0  0  0  0  0
   -6.1085   -1.0195    0.4069 C   0  0  0  0  0  0  0  0  0  0  0  0
   -5.3050   -0.0411   -0.4348 C   0  0  0  0  0  0  0  0  0  0  0  0
   -3.8153   -0.0840   -0.0944 C   0  0  0  0  0  0  0  0  0  0  0  0
    3.7612   -0.1884    0.4782 C   0  0  0  0  0  0  0  0  0  0  0  0
    5.0750   -0.6629    0.4185 C   0  0  0  0  0  0  0  0  0  0  0  0
    8.8347   -1.4682   -1.6563 H   0  0  0  0  0  0  0  0  0  0  0  0
    8.0133   -0.0018   -2.2041 H   0  0  0  0  0  0  0  0  0  0  0  0
    7.4017   -1.6352   -2.6779 H   0  0  0  0  0  0  0  0  0  0  0  0
    5.7245    0.0410   -2.8455 H   0  0  0  0  0  0  0  0  0  0  0  0
    3.4582    0.8588   -2.7445 H   0  0  0  0  0  0  0  0  0  0  0  0
    1.4096    0.7089    0.4094 H   0  0  0  0  0  0  0  0  0  0  0  0
   -0.2839    2.6643   -0.2827 H   0  0  0  0  0  0  0  0  0  0  0  0
   -0.9723    2.0838   -1.7908 H   0  0  0  0  0  0  0  0  0  0  0  0
   -4.2687   -0.5507    3.2732 H   0  0  0  0  0  0  0  0  0  0  0  0
   -4.0100   -1.8413    2.0943 H   0  0  0  0  0  0  0  0  0  0  0  0
   -6.2494    0.2488    2.1386 H   0  0  0  0  0  0  0  0  0  0  0  0
   -6.4094   -1.4720    2.4917 H   0  0  0  0  0  0  0  0  0  0  0  0
   -5.8193   -2.0488    0.1630 H   0  0  0  0  0  0  0  0  0  0  0  0
   -7.1758   -0.9190    0.1811 H   0  0  0  0  0  0  0  0  0  0  0  0
   -5.4461   -0.2621   -1.4988 H   0  0  0  0  0  0  0  0  0  0  0  0
   -5.6856    0.9746   -0.2666 H   0  0  0  0  0  0  0  0  0  0  0  0
   -3.3606    0.7327   -0.6632 H   0  0  0  0  0  0  0  0  0  0  0  0
   -3.3770   -1.0304   -0.4337 H   0  0  0  0  0  0  0  0  0  0  0  0
    3.2240   -0.2615    1.4201 H   0  0  0  0  0  0  0  0  0  0  0  0
    5.5334   -1.0924    1.3058 H   0  0  0  0  0  0  0  0  0  0  0  0
  1  2  1  0
  2  3  1  0
  3  4  2  0
  4  5  1  0
  5  6  2  0
  6  7  1  0
  7  8  1  0
  8  9  2  0
  8 10  1  0
 10 11  1  0
 11 12  1  0
 12 13  2  0
 13 14  1  0
 14 15  1  0
 15 16  2  0
 16 17  1  0
 17 18  1  0
 18 19  1  0
 19 20  1  0
 20 21  1  0
 21 22  1  0
  6 23  1  0
 23 24  2  0
 24  3  1  0
 16 12  1  0
 22 17  1  0
  1 25  1  0
  1 26  1  0
  1 27  1  0
  4 28  1  0
  5 29  1  0
  7 30  1  0
 10 31  1  0
 10 32  1  0
 18 33  1  0
 18 34  1  0
 19 35  1  0
 19 36  1  0
 20 37  1  0
 20 38  1  0
 21 39  1  0
 21 40  1  0
 22 41  1  0
 22 42  1  0
 23 43  1  0
 24 44  1  0
M  END
$$$$
