
     RDKit          3D

 58 61  0  0  0  0  0  0  0  0999 V2000
    1.4975   -1.7438   -1.9465 S   0  0  0  0  0  0  0  0  0  0  0  0
    1.1399   -0.6225   -0.7503 C   0  0  0  0  0  0  0  0  0  0  0  0
    1.6229   -0.7076    0.5423 N   0  0  0  0  0  0  0  0  0  0  0  0
    2.4951   -1.7367    1.1026 C   0  0  0  0  0  0  0  0  0  0  0  0
    3.9805   -1.5005    0.8184 C   0  0  0  0  0  0  0  0  0  0  0  0
    4.5041   -0.2234    1.4887 C   0  0  0  0  0  0  0  0  0  0  0  0
    5.9672   -0.0859    1.3928 N   0  0  0  0  0  0  0  0  0  0  0  0
    6.4319    1.0298    2.2488 C   0  0  0  0  0  0  0  0  0  0  0  0
    7.9490    1.2398    2.1300 C   0  0  0  0  0  0  0  0  0  0  0  0
    8.3269    1.5069    0.7738 O   0  0  0  0  0  0  0  0  0  0  0  0
    7.9328    0.4132   -0.0646 C   0  0  0  0  0  0  0  0  0  0  0  0
    6.4152    0.1715    0.0048 C   0  0  0  0  0  0  0  0  0  0  0  0
    0.3306    0.5087   -0.9391 N   0  0  0  0  0  0  0  0  0  0  0  0
   -0.1004    0.9590   -2.2753 C   0  0  0  0  0  0  0  0  0  0  0  0
   -1.5139    0.4514   -2.6246 C   0  0  0  0  0  0  0  0  0  0  0  0
   -2.4801    0.8127   -1.5626 N   0  0  0  0  0  0  0  0  0  0  0  0
   -3.8224    0.6614   -1.8048 C   0  0  0  0  0  0  0  0  0  0  0  0
   -4.6994    0.3967   -0.8580 N   0  0  0  0  0  0  0  0  0  0  0  0
   -5.9928    0.3224   -1.3533 C   0  0  0  0  0  0  0  0  0  0  0  0
   -7.1191    0.0244   -0.4711 C   0  0  0  0  0  0  0  0  0  0  0  0
   -6.8758   -0.5712    0.7762 C   0  0  0  0  0  0  0  0  0  0  0  0
   -7.9275   -0.8727    1.6454 C   0  0  0  0  0  0  0  0  0  0  0  0
   -9.2384   -0.5778    1.2803 C   0  0  0  0  0  0  0  0  0  0  0  0
   -9.4972    0.0208    0.0493 C   0  0  0  0  0  0  0  0  0  0  0  0
   -8.4446    0.3219   -0.8213 C   0  0  0  0  0  0  0  0  0  0  0  0
   -6.0915    0.5309   -2.7119 C   0  0  0  0  0  0  0  0  0  0  0  0
   -4.5463    0.8483   -3.3699 S   0  0  0  0  0  0  0  0  0  0  0  0
   -2.0418    0.4375   -0.1974 C   0  0  0  0  0  0  0  0  0  0  0  0
   -0.6193    0.9543    0.0985 C   0  0  0  0  0  0  0  0  0  0  0  0
    1.6233    0.1708    1.0408 H   0  0  0  0  0  0  0  0  0  0  0  0
    2.3138   -1.7460    2.1831 H   0  0  0  0  0  0  0  0  0  0  0  0
    2.1925   -2.7150    0.7155 H   0  0  0  0  0  0  0  0  0  0  0  0
    4.5430   -2.3632    1.1969 H   0  0  0  0  0  0  0  0  0  0  0  0
    4.1467   -1.4567   -0.2624 H   0  0  0  0  0  0  0  0  0  0  0  0
    4.0052    0.6588    1.0677 H   0  0  0  0  0  0  0  0  0  0  0  0
    4.2270   -0.2697    2.5500 H   0  0  0  0  0  0  0  0  0  0  0  0
    5.9213    1.9580    1.9601 H   0  0  0  0  0  0  0  0  0  0  0  0
    6.1893    0.8211    3.2971 H   0  0  0  0  0  0  0  0  0  0  0  0
    8.5025    0.3668    2.4964 H   0  0  0  0  0  0  0  0  0  0  0  0
    8.2516    2.1019    2.7330 H   0  0  0  0  0  0  0  0  0  0  0  0
    8.2202    0.6642   -1.0907 H   0  0  0  0  0  0  0  0  0  0  0  0
    8.4911   -0.4850    0.2261 H   0  0  0  0  0  0  0  0  0  0  0  0
    5.8975    1.0529   -0.3957 H   0  0  0  0  0  0  0  0  0  0  0  0
    6.1828   -0.6822   -0.6395 H   0  0  0  0  0  0  0  0  0  0  0  0
    0.6174    0.6652   -3.0463 H   0  0  0  0  0  0  0  0  0  0  0  0
   -0.1023    2.0563   -2.2514 H   0  0  0  0  0  0  0  0  0  0  0  0
   -1.5063   -0.6381   -2.7494 H   0  0  0  0  0  0  0  0  0  0  0  0
   -1.7860    0.9014   -3.5853 H   0  0  0  0  0  0  0  0  0  0  0  0
   -5.8568   -0.8075    1.0773 H   0  0  0  0  0  0  0  0  0  0  0  0
   -7.7194   -1.3363    2.6061 H   0  0  0  0  0  0  0  0  0  0  0  0
  -10.0570   -0.8105    1.9563 H   0  0  0  0  0  0  0  0  0  0  0  0
  -10.5196    0.2586   -0.2336 H   0  0  0  0  0  0  0  0  0  0  0  0
   -8.6824    0.8034   -1.7656 H   0  0  0  0  0  0  0  0  0  0  0  0
   -6.9634    0.5118   -3.3479 H   0  0  0  0  0  0  0  0  0  0  0  0
   -2.7109    0.8648    0.5598 H   0  0  0  0  0  0  0  0  0  0  0  0
   -2.0655   -0.6553   -0.0963 H   0  0  0  0  0  0  0  0  0  0  0  0
   -0.6080    2.0508    0.0996 H   0  0  0  0  0  0  0  0  0  0  0  0
   -0.3306    0.6178    1.0970 H   0  0  0  0  0  0  0  0  0  0  0  0
  1  2  2  0
  2  3  1  0
  3  4  1  0
  4  5  1  0
  5  6  1  0
  6  7  1  0
  7  8  1  0
  8  9  1  0
  9 10  1  0
 10 11  1  0
 11 12  1  0
  2 13  1  0
 13 14  1  0
 14 15  1  0
 15 16  1  0
 16 17  1  0
 17 18  2  0
 18 19  1  0
 19 20  1  0
 20 21  2  0
 21 22  1  0
 22 23  2  0
 23 24  1  0
 24 25  2  0
 19 26  2  0
 26 27  1  0
 16 28  1  0
 28 29  1  0
 12  7  1  0
 29 13  1  0
 27 17  1  0
 25 20  1  0
  3 30  1  0
  4 31  1  0
  4 32  1  0
  5 33  1  0
  5 34  1  0
  6 35  1  0
  6 36  1  0
  8 37  1  0
  8 38  1  0
  9 39  1  0
  9 40  1  0
 11 41  1  0
 11 42  1  0
 12 43  1  0
 12 44  1  0
 14 45  1  0
 14 46  1  0
 15 47  1  0
 15 48  1  0
 21 49  1  0
 22 50  1  0
 23 51  1  0
 24 52  1  0
 25 53  1  0
 26 54  1  0
 28 55  1  0
 28 56  1  0
 29 57  1  0
 29 58  1  0
M  END
$$$$
