
     RDKit          3D

 56 59  0  0  0  0  0  0  0  0999 V2000
    3.1043   -4.7710   -1.2136 C   0  0  0  0  0  0  0  0  0  0  0  0
    3.3346   -3.3838   -1.4406 O   0  0  0  0  0  0  0  0  0  0  0  0
    2.8350   -2.5201   -0.5072 C   0  0  0  0  0  0  0  0  0  0  0  0
    3.2491   -1.1961   -0.6556 C   0  0  0  0  0  0  0  0  0  0  0  0
    2.8228   -0.2062    0.2360 C   0  0  0  0  0  0  0  0  0  0  0  0
    1.9399   -0.5297    1.2669 C   0  0  0  0  0  0  0  0  0  0  0  0
    1.4975    0.4216    2.2374 N   0  0  0  0  0  0  0  0  0  0  0  0
    1.0881    2.0103    1.8293 S   0  0  0  0  0  6  0  0  0  0  0  0
    0.3775    2.5346    2.9791 O   0  0  0  0  0  0  0  0  0  0  0  0
    2.2955    2.6474    1.3481 O   0  0  0  0  0  0  0  0  0  0  0  0
   -0.1066    1.8586    0.5129 C   0  0  0  0  0  0  0  0  0  0  0  0
   -0.9788    0.7470    0.6023 C   0  0  0  0  0  0  0  0  0  0  0  0
   -1.8430    0.4155   -0.4357 C   0  0  0  0  0  0  0  0  0  0  0  0
   -2.6842   -0.7174   -0.4401 N   0  0  0  0  0  0  0  0  0  0  0  0
   -2.7504   -1.7253    0.5030 C   0  0  0  0  0  0  0  0  0  0  0  0
   -2.0597   -1.7868    1.5189 O   0  0  0  0  0  0  0  0  0  0  0  0
   -3.7028   -2.8508    0.2524 C   0  0  0  0  0  0  0  0  0  0  0  0
   -3.5158   -4.0253    1.0094 C   0  0  0  0  0  0  0  0  0  0  0  0
   -4.3601   -5.1223    0.8408 C   0  0  0  0  0  0  0  0  0  0  0  0
   -5.3767   -5.0249   -0.0891 C   0  0  0  0  0  0  0  0  0  0  0  0
   -5.5932   -3.9242   -0.8375 N   0  0  0  0  0  0  0  0  0  0  0  0
   -4.7638   -2.8640   -0.6471 C   0  0  0  0  0  0  0  0  0  0  0  0
   -5.2182   -1.5459   -1.6666 Cl  0  0  0  0  0  0  0  0  0  0  0  0
   -1.8748    1.2423   -1.5549 C   0  0  0  0  0  0  0  0  0  0  0  0
   -1.0504    2.3716   -1.6219 C   0  0  0  0  0  0  0  0  0  0  0  0
   -0.1570    2.7248   -0.5896 C   0  0  0  0  0  0  0  0  0  0  0  0
    0.5325    3.9021   -0.7841 N   0  0  0  0  0  0  0  0  0  0  0  0
    0.5696    4.9844    0.1967 C   0  0  0  0  0  0  0  0  0  0  0  0
    1.9429    5.6281    0.0092 C   0  0  0  0  0  0  0  0  0  0  0  0
    2.3139    5.2768   -1.4209 C   0  0  0  0  0  0  0  0  0  0  0  0
    1.7579    3.8676   -1.5828 C   0  0  0  0  0  0  0  0  0  0  0  0
    1.5330   -1.8598    1.4239 C   0  0  0  0  0  0  0  0  0  0  0  0
    1.9704   -2.8504    0.5379 C   0  0  0  0  0  0  0  0  0  0  0  0
    2.0371   -5.0116   -1.2818 H   0  0  0  0  0  0  0  0  0  0  0  0
    3.6229   -5.3270   -2.0007 H   0  0  0  0  0  0  0  0  0  0  0  0
    3.5205   -5.0896   -0.2499 H   0  0  0  0  0  0  0  0  0  0  0  0
    3.9335   -0.9311   -1.4606 H   0  0  0  0  0  0  0  0  0  0  0  0
    3.2124    0.7991    0.1098 H   0  0  0  0  0  0  0  0  0  0  0  0
    0.9485    0.0797    3.0261 H   0  0  0  0  0  0  0  0  0  0  0  0
   -0.9548    0.1406    1.5008 H   0  0  0  0  0  0  0  0  0  0  0  0
   -3.2784   -0.7996   -1.2585 H   0  0  0  0  0  0  0  0  0  0  0  0
   -2.7045   -4.0912    1.7377 H   0  0  0  0  0  0  0  0  0  0  0  0
   -4.2244   -6.0280    1.4242 H   0  0  0  0  0  0  0  0  0  0  0  0
   -6.0634   -5.8504   -0.2623 H   0  0  0  0  0  0  0  0  0  0  0  0
   -2.5377    1.0338   -2.3922 H   0  0  0  0  0  0  0  0  0  0  0  0
   -1.1211    3.0152   -2.4998 H   0  0  0  0  0  0  0  0  0  0  0  0
   -0.2173    5.7044   -0.0502 H   0  0  0  0  0  0  0  0  0  0  0  0
    0.4143    4.6727    1.2304 H   0  0  0  0  0  0  0  0  0  0  0  0
    1.9216    6.7063    0.1864 H   0  0  0  0  0  0  0  0  0  0  0  0
    2.6694    5.1901    0.7027 H   0  0  0  0  0  0  0  0  0  0  0  0
    3.3909    5.3278   -1.6055 H   0  0  0  0  0  0  0  0  0  0  0  0
    1.8112    5.9611   -2.1151 H   0  0  0  0  0  0  0  0  0  0  0  0
    2.4678    3.1264   -1.1986 H   0  0  0  0  0  0  0  0  0  0  0  0
    1.5532    3.6444   -2.6359 H   0  0  0  0  0  0  0  0  0  0  0  0
    0.8562   -2.1383    2.2283 H   0  0  0  0  0  0  0  0  0  0  0  0
    1.6130   -3.8635    0.6934 H   0  0  0  0  0  0  0  0  0  0  0  0
  1  2  1  0
  2  3  1  0
  3  4  2  0
  4  5  1  0
  5  6  2  0
  6  7  1  0
  7  8  1  0
  8  9  2  0
  8 10  2  0
  8 11  1  0
 11 12  2  0
 12 13  1  0
 13 14  1  0
 14 15  1  0
 15 16  2  0
 15 17  1  0
 17 18  2  0
 18 19  1  0
 19 20  2  0
 20 21  1  0
 21 22  2  0
 22 23  1  0
 13 24  2  0
 24 25  1  0
 25 26  2  0
 26 27  1  0
 27 28  1  0
 28 29  1  0
 29 30  1  0
 30 31  1  0
  6 32  1  0
 32 33  2  0
 33  3  1  0
 26 11  1  0
 31 27  1  0
 22 17  1  0
  1 34  1  0
  1 35  1  0
  1 36  1  0
  4 37  1  0
  5 38  1  0
  7 39  1  0
 12 40  1  0
 14 41  1  0
 18 42  1  0
 19 43  1  0
 20 44  1  0
 24 45  1  0
 25 46  1  0
 28 47  1  0
 28 48  1  0
 29 49  1  0
 29 50  1  0
 30 51  1  0
 30 52  1  0
 31 53  1  0
 31 54  1  0
 32 55  1  0
 33 56  1  0
M  END
$$$$
