
     RDKit          3D

 47 48  0  0  0  0  0  0  0  0999 V2000
    9.1257    2.4041    1.1480 C   0  0  0  0  0  0  0  0  0  0  0  0
    7.7449    1.9190    0.8188 C   0  0  0  0  0  0  0  0  0  0  0  0
    6.8548    2.7413    0.1179 C   0  0  0  0  0  0  0  0  0  0  0  0
    5.5786    2.2811   -0.2169 C   0  0  0  0  0  0  0  0  0  0  0  0
    5.1707    0.9874    0.1386 C   0  0  0  0  0  0  0  0  0  0  0  0
    3.7978    0.4866   -0.2335 C   0  0  0  0  0  0  0  0  0  0  0  0
    3.7917   -0.2955   -1.8687 S   0  0  0  0  0  0  0  0  0  0  0  0
    2.1262   -0.7680   -1.9832 C   0  0  0  0  0  0  0  0  0  0  0  0
    1.6103   -1.3917   -3.0233 N   0  0  0  0  0  0  0  0  0  0  0  0
    0.2746   -1.5963   -2.7467 N   0  0  0  0  0  0  0  0  0  0  0  0
    0.0635   -1.0822   -1.5554 C   0  0  0  0  0  0  0  0  0  0  0  0
   -1.1765   -1.0137   -0.7503 C   0  0  0  0  0  0  0  0  0  0  0  0
   -2.2299   -2.0021   -1.2511 C   0  0  0  0  0  0  0  0  0  0  0  0
   -3.3989   -2.0566   -0.3962 N   0  0  0  0  0  0  0  0  0  0  0  0
   -4.3196   -1.0558   -0.3451 C   0  0  0  0  0  0  0  0  0  0  0  0
   -4.2096    0.0177   -0.9131 O   0  0  0  0  0  0  0  0  0  0  0  0
   -5.3522   -1.4550    0.4296 O   0  0  0  0  0  0  0  0  0  0  0  0
   -6.4927   -0.5843    0.6484 C   0  0  0  0  0  0  0  0  0  0  0  0
   -7.4123   -1.3764    1.5910 C   0  0  0  0  0  0  0  0  0  0  0  0
   -6.0812    0.7175    1.3460 C   0  0  0  0  0  0  0  0  0  0  0  0
   -7.2446   -0.3183   -0.6621 C   0  0  0  0  0  0  0  0  0  0  0  0
    1.1925   -0.5388   -1.0038 O   0  0  0  0  0  0  0  0  0  0  0  0
    6.0730    0.1573    0.8193 C   0  0  0  0  0  0  0  0  0  0  0  0
    7.3489    0.6185    1.1540 C   0  0  0  0  0  0  0  0  0  0  0  0
    9.5195    1.8939    2.0342 H   0  0  0  0  0  0  0  0  0  0  0  0
    9.1181    3.4771    1.3697 H   0  0  0  0  0  0  0  0  0  0  0  0
    9.7987    2.2190    0.3045 H   0  0  0  0  0  0  0  0  0  0  0  0
    7.1507    3.7468   -0.1727 H   0  0  0  0  0  0  0  0  0  0  0  0
    4.9065    2.9401   -0.7627 H   0  0  0  0  0  0  0  0  0  0  0  0
    3.0892    1.3238   -0.2227 H   0  0  0  0  0  0  0  0  0  0  0  0
    3.4551   -0.2312    0.5220 H   0  0  0  0  0  0  0  0  0  0  0  0
   -1.5657    0.0109   -0.7825 H   0  0  0  0  0  0  0  0  0  0  0  0
   -0.9400   -1.2300    0.2997 H   0  0  0  0  0  0  0  0  0  0  0  0
   -1.8200   -3.0182   -1.2888 H   0  0  0  0  0  0  0  0  0  0  0  0
   -2.5587   -1.7357   -2.2630 H   0  0  0  0  0  0  0  0  0  0  0  0
   -3.6791   -2.9262    0.0339 H   0  0  0  0  0  0  0  0  0  0  0  0
   -7.6744   -2.3476    1.1559 H   0  0  0  0  0  0  0  0  0  0  0  0
   -6.9051   -1.5910    2.5400 H   0  0  0  0  0  0  0  0  0  0  0  0
   -8.3382   -0.8331    1.8089 H   0  0  0  0  0  0  0  0  0  0  0  0
   -5.4506    0.5098    2.2180 H   0  0  0  0  0  0  0  0  0  0  0  0
   -6.9568    1.2867    1.6780 H   0  0  0  0  0  0  0  0  0  0  0  0
   -5.5004    1.3704    0.6865 H   0  0  0  0  0  0  0  0  0  0  0  0
   -7.4739   -1.2592   -1.1771 H   0  0  0  0  0  0  0  0  0  0  0  0
   -8.1830    0.2184   -0.4818 H   0  0  0  0  0  0  0  0  0  0  0  0
   -6.6516    0.2832   -1.3581 H   0  0  0  0  0  0  0  0  0  0  0  0
    5.7903   -0.8568    1.0903 H   0  0  0  0  0  0  0  0  0  0  0  0
    8.0337   -0.0467    1.6763 H   0  0  0  0  0  0  0  0  0  0  0  0
  1  2  1  0
  2  3  2  0
  3  4  1  0
  4  5  2  0
  5  6  1  0
  6  7  1  0
  7  8  1  0
  8  9  2  0
  9 10  1  0
 10 11  2  0
 11 12  1  0
 12 13  1  0
 13 14  1  0
 14 15  1  0
 15 16  2  0
 15 17  1  0
 17 18  1  0
 18 19  1  0
 18 20  1  0
 18 21  1  0
 11 22  1  0
  5 23  1  0
 23 24  2  0
 24  2  1  0
 22  8  1  0
  1 25  1  0
  1 26  1  0
  1 27  1  0
  3 28  1  0
  4 29  1  0
  6 30  1  0
  6 31  1  0
 12 32  1  0
 12 33  1  0
 13 34  1  0
 13 35  1  0
 14 36  1  0
 19 37  1  0
 19 38  1  0
 19 39  1  0
 20 40  1  0
 20 41  1  0
 20 42  1  0
 21 43  1  0
 21 44  1  0
 21 45  1  0
 23 46  1  0
 24 47  1  0
M  END
$$$$
