
     RDKit          3D

 55 56  0  0  0  0  0  0  0  0999 V2000
   -4.4146    1.1266   -1.2675 C   0  0  0  0  0  0  0  0  0  0  0  0
   -4.9209    0.5660    0.0653 C   0  0  0  0  0  0  0  0  0  0  0  0
   -3.8223    0.2866    0.9754 N   0  0  0  0  0  0  0  0  0  0  0  0
   -2.9986   -0.8046    0.8240 C   0  0  0  0  0  0  0  0  0  0  0  0
   -3.1114   -1.6172   -0.0862 O   0  0  0  0  0  0  0  0  0  0  0  0
   -1.9333   -0.8902    1.8967 C   0  0  0  0  0  0  0  0  0  0  0  0
   -1.0470   -2.1113    1.6894 C   0  0  0  0  0  0  0  0  0  0  0  0
    0.2281   -2.2520    2.9927 S   0  0  0  0  0  0  0  0  0  0  0  0
    1.4151   -0.9773    2.4391 C   0  0  0  0  0  0  0  0  0  0  0  0
    2.2800   -1.4741    1.2881 C   0  0  0  0  0  0  0  0  0  0  0  0
    3.2584   -0.4045    0.8502 C   0  0  0  0  0  0  0  0  0  0  0  0
    3.2710    0.7313    1.3111 O   0  0  0  0  0  0  0  0  0  0  0  0
    4.1188   -0.8346   -0.1329 N   0  0  0  0  0  0  0  0  0  0  0  0
    5.1439    0.0263   -0.6994 C   0  0  0  0  0  0  0  0  0  0  0  0
    6.3341    0.1740    0.2534 C   0  0  0  0  0  0  0  0  0  0  0  0
    5.5365   -0.4987   -2.0691 C   0  0  0  0  0  0  0  0  0  0  0  0
    4.9912    0.0964   -3.2186 C   0  0  0  0  0  0  0  0  0  0  0  0
    5.3123   -0.3800   -4.4911 C   0  0  0  0  0  0  0  0  0  0  0  0
    6.1750   -1.4639   -4.6328 C   0  0  0  0  0  0  0  0  0  0  0  0
    6.7129   -2.0754   -3.5029 C   0  0  0  0  0  0  0  0  0  0  0  0
    6.3926   -1.6005   -2.2292 C   0  0  0  0  0  0  0  0  0  0  0  0
   -5.9161    1.4866    0.7502 C   0  0  0  0  0  0  0  0  0  0  0  0
   -5.6607    2.8563    0.9278 C   0  0  0  0  0  0  0  0  0  0  0  0
   -6.5816    3.6738    1.5867 C   0  0  0  0  0  0  0  0  0  0  0  0
   -7.7645    3.1331    2.0849 C   0  0  0  0  0  0  0  0  0  0  0  0
   -8.0271    1.7745    1.9283 C   0  0  0  0  0  0  0  0  0  0  0  0
   -7.1079    0.9557    1.2694 C   0  0  0  0  0  0  0  0  0  0  0  0
   -3.8007    0.3879   -1.7934 H   0  0  0  0  0  0  0  0  0  0  0  0
   -5.2495    1.3952   -1.9238 H   0  0  0  0  0  0  0  0  0  0  0  0
   -3.7905    2.0160   -1.1288 H   0  0  0  0  0  0  0  0  0  0  0  0
   -5.4137   -0.3897   -0.1564 H   0  0  0  0  0  0  0  0  0  0  0  0
   -3.6921    0.9053    1.7656 H   0  0  0  0  0  0  0  0  0  0  0  0
   -2.4354   -0.9423    2.8704 H   0  0  0  0  0  0  0  0  0  0  0  0
   -1.3476    0.0345    1.8555 H   0  0  0  0  0  0  0  0  0  0  0  0
   -0.5739   -2.1027    0.7026 H   0  0  0  0  0  0  0  0  0  0  0  0
   -1.6554   -3.0215    1.7374 H   0  0  0  0  0  0  0  0  0  0  0  0
    2.0511   -0.7357    3.2985 H   0  0  0  0  0  0  0  0  0  0  0  0
    0.8832   -0.0581    2.1764 H   0  0  0  0  0  0  0  0  0  0  0  0
    2.8521   -2.3583    1.5941 H   0  0  0  0  0  0  0  0  0  0  0  0
    1.6686   -1.7377    0.4182 H   0  0  0  0  0  0  0  0  0  0  0  0
    4.0659   -1.7898   -0.4624 H   0  0  0  0  0  0  0  0  0  0  0  0
    4.7066    1.0266   -0.8172 H   0  0  0  0  0  0  0  0  0  0  0  0
    6.7565   -0.7960    0.5372 H   0  0  0  0  0  0  0  0  0  0  0  0
    6.0300    0.6702    1.1816 H   0  0  0  0  0  0  0  0  0  0  0  0
    7.1303    0.7734   -0.2012 H   0  0  0  0  0  0  0  0  0  0  0  0
    4.3083    0.9393   -3.1291 H   0  0  0  0  0  0  0  0  0  0  0  0
    4.8860    0.0944   -5.3713 H   0  0  0  0  0  0  0  0  0  0  0  0
    6.4253   -1.8344   -5.6234 H   0  0  0  0  0  0  0  0  0  0  0  0
    7.3818   -2.9252   -3.6127 H   0  0  0  0  0  0  0  0  0  0  0  0
    6.8190   -2.1038   -1.3647 H   0  0  0  0  0  0  0  0  0  0  0  0
   -4.7403    3.3016    0.5576 H   0  0  0  0  0  0  0  0  0  0  0  0
   -6.3740    4.7333    1.7128 H   0  0  0  0  0  0  0  0  0  0  0  0
   -8.4803    3.7700    2.5979 H   0  0  0  0  0  0  0  0  0  0  0  0
   -8.9477    1.3500    2.3211 H   0  0  0  0  0  0  0  0  0  0  0  0
   -7.3280   -0.1053    1.1648 H   0  0  0  0  0  0  0  0  0  0  0  0
  1  2  1  0
  2  3  1  0
  3  4  1  0
  4  5  2  0
  4  6  1  0
  6  7  1  0
  7  8  1  0
  8  9  1  0
  9 10  1  0
 10 11  1  0
 11 12  2  0
 11 13  1  0
 13 14  1  0
 14 15  1  0
 14 16  1  0
 16 17  2  0
 17 18  1  0
 18 19  2  0
 19 20  1  0
 20 21  2  0
  2 22  1  0
 22 23  2  0
 23 24  1  0
 24 25  2  0
 25 26  1  0
 26 27  2  0
 21 16  1  0
 27 22  1  0
  1 28  1  0
  1 29  1  0
  1 30  1  0
  2 31  1  0
  3 32  1  0
  6 33  1  0
  6 34  1  0
  7 35  1  0
  7 36  1  0
  9 37  1  0
  9 38  1  0
 10 39  1  0
 10 40  1  0
 13 41  1  0
 14 42  1  0
 15 43  1  0
 15 44  1  0
 15 45  1  0
 17 46  1  0
 18 47  1  0
 19 48  1  0
 20 49  1  0
 21 50  1  0
 23 51  1  0
 24 52  1  0
 25 53  1  0
 26 54  1  0
 27 55  1  0
M  END
$$$$
