
     RDKit          3D

 41 42  0  0  0  0  0  0  0  0999 V2000
   -6.1347   -0.5184   -2.2243 C   0  0  0  0  0  0  0  0  0  0  0  0
   -5.8362   -0.4017   -0.7423 C   0  0  0  0  0  0  0  0  0  0  0  0
   -4.4517   -0.0664   -0.5915 O   0  0  0  0  0  0  0  0  0  0  0  0
   -4.0452    0.0727    0.6991 C   0  0  0  0  0  0  0  0  0  0  0  0
   -4.7808   -0.0778    1.6670 O   0  0  0  0  0  0  0  0  0  0  0  0
   -2.7096    0.4057    0.7938 N   0  0  0  0  0  0  0  0  0  0  0  0
   -1.8383    0.5645   -0.3681 C   0  0  0  0  0  0  0  0  0  0  0  0
   -0.3613    0.3203   -0.0274 C   0  0  0  0  0  0  0  0  0  0  0  0
    0.1265    1.1381    1.1024 N   0  0  0  0  0  0  0  0  0  0  0  0
    1.4499    1.6291    1.1635 C   0  0  0  0  0  0  0  0  0  0  0  0
    1.8992    2.9731    2.0612 S   0  0  0  0  0  0  0  0  0  0  0  0
    2.3359    0.8490    0.4104 N   0  0  0  0  0  0  0  0  0  0  0  0
    3.6835    1.0665    0.1258 C   0  0  0  0  0  0  0  0  0  0  0  0
    4.2582    2.1468    0.1059 O   0  0  0  0  0  0  0  0  0  0  0  0
    4.4594   -0.1409   -0.2678 C   0  0  0  0  0  0  0  0  0  0  0  0
    5.8073   -0.2158    0.1212 C   0  0  0  0  0  0  0  0  0  0  0  0
    6.5811   -1.3259   -0.2270 C   0  0  0  0  0  0  0  0  0  0  0  0
    6.0084   -2.3510   -0.9712 C   0  0  0  0  0  0  0  0  0  0  0  0
    6.7489   -3.4163   -1.3044 F   0  0  0  0  0  0  0  0  0  0  0  0
    4.6793   -2.2695   -1.3728 C   0  0  0  0  0  0  0  0  0  0  0  0
    4.1338   -3.2533   -2.1009 F   0  0  0  0  0  0  0  0  0  0  0  0
    3.8964   -1.1694   -1.0320 C   0  0  0  0  0  0  0  0  0  0  0  0
   -0.9218    1.6165    2.0325 C   0  0  0  0  0  0  0  0  0  0  0  0
   -2.1306    0.6754    2.1064 C   0  0  0  0  0  0  0  0  0  0  0  0
   -5.9139    0.4236   -2.7373 H   0  0  0  0  0  0  0  0  0  0  0  0
   -7.1845   -0.7745   -2.3920 H   0  0  0  0  0  0  0  0  0  0  0  0
   -5.5050   -1.2868   -2.6850 H   0  0  0  0  0  0  0  0  0  0  0  0
   -6.0417   -1.3578   -0.2478 H   0  0  0  0  0  0  0  0  0  0  0  0
   -6.4582    0.3851   -0.3010 H   0  0  0  0  0  0  0  0  0  0  0  0
   -1.9756    1.5913   -0.7277 H   0  0  0  0  0  0  0  0  0  0  0  0
   -2.1474   -0.1141   -1.1697 H   0  0  0  0  0  0  0  0  0  0  0  0
   -0.2196   -0.7267    0.2664 H   0  0  0  0  0  0  0  0  0  0  0  0
    0.2487    0.5093   -0.9170 H   0  0  0  0  0  0  0  0  0  0  0  0
    2.0397   -0.1127    0.3815 H   0  0  0  0  0  0  0  0  0  0  0  0
    6.2553    0.5949    0.6959 H   0  0  0  0  0  0  0  0  0  0  0  0
    7.6229   -1.3924    0.0726 H   0  0  0  0  0  0  0  0  0  0  0  0
    2.8775   -1.1271   -1.4005 H   0  0  0  0  0  0  0  0  0  0  0  0
   -1.2417    2.6032    1.6754 H   0  0  0  0  0  0  0  0  0  0  0  0
   -0.4980    1.7339    3.0351 H   0  0  0  0  0  0  0  0  0  0  0  0
   -1.8238   -0.2936    2.5182 H   0  0  0  0  0  0  0  0  0  0  0  0
   -2.8922    1.0931    2.7737 H   0  0  0  0  0  0  0  0  0  0  0  0
  1  2  1  0
  2  3  1  0
  3  4  1  0
  4  5  2  0
  4  6  1  0
  6  7  1  0
  7  8  1  0
  8  9  1  0
  9 10  1  0
 10 11  2  0
 10 12  1  0
 12 13  1  0
 13 14  2  0
 13 15  1  0
 15 16  2  0
 16 17  1  0
 17 18  2  0
 18 19  1  0
 18 20  1  0
 20 21  1  0
 20 22  2  0
  9 23  1  0
 23 24  1  0
 24  6  1  0
 22 15  1  0
  1 25  1  0
  1 26  1  0
  1 27  1  0
  2 28  1  0
  2 29  1  0
  7 30  1  0
  7 31  1  0
  8 32  1  0
  8 33  1  0
 12 34  1  0
 16 35  1  0
 17 36  1  0
 22 37  1  0
 23 38  1  0
 23 39  1  0
 24 40  1  0
 24 41  1  0
M  END
$$$$
