
     RDKit          3D

 36 38  0  0  0  0  0  0  0  0999 V2000
    5.9041    0.0603    0.3864 C   0  0  0  0  0  0  0  0  0  0  0  0
    4.4621   -0.2872    0.1556 C   0  0  0  0  0  0  0  0  0  0  0  0
    3.7504   -1.0233    1.1132 C   0  0  0  0  0  0  0  0  0  0  0  0
    2.4020   -1.3226    0.9149 C   0  0  0  0  0  0  0  0  0  0  0  0
    1.7603   -0.8700   -0.2405 C   0  0  0  0  0  0  0  0  0  0  0  0
    0.0458   -1.2540   -0.4751 S   0  0  0  0  0  6  0  0  0  0  0  0
   -0.4132   -0.6233   -1.6939 O   0  0  0  0  0  0  0  0  0  0  0  0
   -0.1160   -2.6752   -0.2616 O   0  0  0  0  0  0  0  0  0  0  0  0
   -0.7048   -0.4394    0.8252 N   0  0  0  0  0  0  0  0  0  0  0  0
   -0.6813    1.0538    0.7083 C   0  0  0  0  0  0  0  0  0  0  0  0
   -1.8760    1.7330    0.0374 C   0  0  0  0  0  0  0  0  0  0  0  0
   -1.8663    2.9438   -0.1902 O   0  0  0  0  0  0  0  0  0  0  0  0
   -2.9894    0.9655   -0.1902 N   0  0  0  0  0  0  0  0  0  0  0  0
   -4.2931    1.5002   -0.4714 C   0  0  0  0  0  0  0  0  0  0  0  0
   -5.1705    0.2637   -0.4537 C   0  0  0  0  0  0  0  0  0  0  0  0
   -4.4367   -0.6912    0.3455 O   0  0  0  0  0  0  0  0  0  0  0  0
   -3.0594   -0.4542    0.0237 C   0  0  0  0  0  0  0  0  0  0  0  0
   -2.0977   -0.9206    1.1189 C   0  0  0  0  0  0  0  0  0  0  0  0
    2.4530   -0.1304   -1.2009 C   0  0  0  0  0  0  0  0  0  0  0  0
    3.8015    0.1656   -0.9953 C   0  0  0  0  0  0  0  0  0  0  0  0
    6.4419    0.1463   -0.5637 H   0  0  0  0  0  0  0  0  0  0  0  0
    5.9781    1.0112    0.9228 H   0  0  0  0  0  0  0  0  0  0  0  0
    6.4042   -0.7176    0.9729 H   0  0  0  0  0  0  0  0  0  0  0  0
    4.2458   -1.3715    2.0173 H   0  0  0  0  0  0  0  0  0  0  0  0
    1.8595   -1.9040    1.6572 H   0  0  0  0  0  0  0  0  0  0  0  0
   -0.6266    1.4479    1.7309 H   0  0  0  0  0  0  0  0  0  0  0  0
    0.2264    1.3902    0.1981 H   0  0  0  0  0  0  0  0  0  0  0  0
   -4.3097    2.0344   -1.4252 H   0  0  0  0  0  0  0  0  0  0  0  0
   -4.5599    2.1948    0.3322 H   0  0  0  0  0  0  0  0  0  0  0  0
   -6.1561    0.4425   -0.0160 H   0  0  0  0  0  0  0  0  0  0  0  0
   -5.2949   -0.1565   -1.4581 H   0  0  0  0  0  0  0  0  0  0  0  0
   -2.8498   -0.9539   -0.9288 H   0  0  0  0  0  0  0  0  0  0  0  0
   -2.4038   -0.5177    2.0931 H   0  0  0  0  0  0  0  0  0  0  0  0
   -2.1249   -2.0092    1.2335 H   0  0  0  0  0  0  0  0  0  0  0  0
    1.9575    0.2194   -2.1037 H   0  0  0  0  0  0  0  0  0  0  0  0
    4.3375    0.7493   -1.7413 H   0  0  0  0  0  0  0  0  0  0  0  0
  1  2  1  0
  2  3  2  0
  3  4  1  0
  4  5  2  0
  5  6  1  0
  6  7  2  0
  6  8  2  0
  6  9  1  0
  9 10  1  0
 10 11  1  0
 11 12  2  0
 11 13  1  0
 13 14  1  0
 14 15  1  0
 15 16  1  0
 16 17  1  0
 17 18  1  0
  5 19  1  0
 19 20  2  0
 20  2  1  0
 18  9  1  0
 17 13  1  0
  1 21  1  0
  1 22  1  0
  1 23  1  0
  3 24  1  0
  4 25  1  0
 10 26  1  0
 10 27  1  0
 14 28  1  0
 14 29  1  0
 15 30  1  0
 15 31  1  0
 17 32  1  0
 18 33  1  0
 18 34  1  0
 19 35  1  0
 20 36  1  0
M  END
$$$$
