
     RDKit          3D

 56 60  0  0  0  0  0  0  0  0999 V2000
    5.6975    2.4243    0.6490 C   0  0  0  0  0  0  0  0  0  0  0  0
    5.4298    1.0087    0.2982 C   0  0  0  0  0  0  0  0  0  0  0  0
    4.9014    0.7003   -0.8929 N   0  0  0  0  0  0  0  0  0  0  0  0
    4.7719   -0.6455   -0.8662 N   0  0  0  0  0  0  0  0  0  0  0  0
    4.2160   -1.3174   -2.0379 C   0  0  0  0  0  0  0  0  0  0  0  0
    2.7965   -1.7798   -1.8107 C   0  0  0  0  0  0  0  0  0  0  0  0
    2.4810   -3.1471   -1.8062 C   0  0  0  0  0  0  0  0  0  0  0  0
    1.1666   -3.5738   -1.6057 C   0  0  0  0  0  0  0  0  0  0  0  0
    0.1496   -2.6399   -1.4060 C   0  0  0  0  0  0  0  0  0  0  0  0
    0.4484   -1.2725   -1.4041 C   0  0  0  0  0  0  0  0  0  0  0  0
   -0.6127   -0.2477   -1.2098 C   0  0  0  0  0  0  0  0  0  0  0  0
   -0.5344    0.8233   -1.7967 O   0  0  0  0  0  0  0  0  0  0  0  0
   -1.6175   -0.5936   -0.3284 N   0  0  0  0  0  0  0  0  0  0  0  0
   -2.7082    0.3009    0.0759 C   0  0  0  0  0  0  0  0  0  0  0  0
   -2.1754    1.5520    0.8166 C   0  0  0  0  0  0  0  0  0  0  0  0
   -3.3411    2.4440    1.2790 C   0  0  0  0  0  0  0  0  0  0  0  0
   -4.2414    1.6474    2.2367 C   0  0  0  0  0  0  0  0  0  0  0  0
   -4.8038    0.4092    1.5208 C   0  0  0  0  0  0  0  0  0  0  0  0
   -5.6227    0.8548    0.2998 C   0  0  0  0  0  0  0  0  0  0  0  0
   -4.7302    1.6454   -0.6693 C   0  0  0  0  0  0  0  0  0  0  0  0
   -4.1636    2.8791    0.0542 C   0  0  0  0  0  0  0  0  0  0  0  0
   -3.5659    0.7522   -1.1337 C   0  0  0  0  0  0  0  0  0  0  0  0
   -3.6374   -0.4738    1.0499 C   0  0  0  0  0  0  0  0  0  0  0  0
    1.7648   -0.8460   -1.6193 C   0  0  0  0  0  0  0  0  0  0  0  0
    5.2429   -1.2160    0.2961 C   0  0  0  0  0  0  0  0  0  0  0  0
    5.2324   -2.6750    0.5632 C   0  0  0  0  0  0  0  0  0  0  0  0
    5.6551   -0.1515    1.0640 C   0  0  0  0  0  0  0  0  0  0  0  0
    6.3779   -0.1861    2.7923 Br  0  0  0  0  0  0  0  0  0  0  0  0
    5.0683    2.7351    1.4891 H   0  0  0  0  0  0  0  0  0  0  0  0
    6.7464    2.5597    0.9316 H   0  0  0  0  0  0  0  0  0  0  0  0
    5.4906    3.0926   -0.1930 H   0  0  0  0  0  0  0  0  0  0  0  0
    4.8837   -2.1520   -2.2795 H   0  0  0  0  0  0  0  0  0  0  0  0
    4.2522   -0.6209   -2.8844 H   0  0  0  0  0  0  0  0  0  0  0  0
    3.2570   -3.8935   -1.9657 H   0  0  0  0  0  0  0  0  0  0  0  0
    0.9332   -4.6360   -1.6175 H   0  0  0  0  0  0  0  0  0  0  0  0
   -0.8730   -2.9873   -1.2857 H   0  0  0  0  0  0  0  0  0  0  0  0
   -1.4423   -1.3920    0.2675 H   0  0  0  0  0  0  0  0  0  0  0  0
   -1.5706    1.2496    1.6814 H   0  0  0  0  0  0  0  0  0  0  0  0
   -1.5119    2.1367    0.1684 H   0  0  0  0  0  0  0  0  0  0  0  0
   -2.9474    3.3281    1.7926 H   0  0  0  0  0  0  0  0  0  0  0  0
   -5.0637    2.2803    2.5920 H   0  0  0  0  0  0  0  0  0  0  0  0
   -3.6696    1.3421    3.1214 H   0  0  0  0  0  0  0  0  0  0  0  0
   -5.4428   -0.1567    2.2078 H   0  0  0  0  0  0  0  0  0  0  0  0
   -6.4685    1.4749    0.6216 H   0  0  0  0  0  0  0  0  0  0  0  0
   -6.0451   -0.0206   -0.2087 H   0  0  0  0  0  0  0  0  0  0  0  0
   -5.3192    1.9638   -1.5367 H   0  0  0  0  0  0  0  0  0  0  0  0
   -4.9834    3.5364    0.3691 H   0  0  0  0  0  0  0  0  0  0  0  0
   -3.5352    3.4602   -0.6318 H   0  0  0  0  0  0  0  0  0  0  0  0
   -2.9625    1.3084   -1.8600 H   0  0  0  0  0  0  0  0  0  0  0  0
   -3.9567   -0.1245   -1.6669 H   0  0  0  0  0  0  0  0  0  0  0  0
   -3.0654   -0.8220    1.9204 H   0  0  0  0  0  0  0  0  0  0  0  0
   -4.0285   -1.3758    0.5604 H   0  0  0  0  0  0  0  0  0  0  0  0
    1.9860    0.2223   -1.6306 H   0  0  0  0  0  0  0  0  0  0  0  0
    5.6206   -3.2381   -0.2911 H   0  0  0  0  0  0  0  0  0  0  0  0
    4.2148   -3.0174    0.7766 H   0  0  0  0  0  0  0  0  0  0  0  0
    5.8552   -2.9289    1.4266 H   0  0  0  0  0  0  0  0  0  0  0  0
  1  2  1  0
  2  3  2  0
  3  4  1  0
  4  5  1  0
  5  6  1  0
  6  7  2  0
  7  8  1  0
  8  9  2  0
  9 10  1  0
 10 11  1  0
 11 12  2  0
 11 13  1  0
 13 14  1  0
 14 15  1  0
 15 16  1  0
 16 17  1  0
 17 18  1  0
 18 19  1  0
 19 20  1  0
 20 21  1  0
 20 22  1  0
 18 23  1  0
 10 24  2  0
  4 25  1  0
 25 26  1  0
 25 27  2  0
 27 28  1  0
 27  2  1  0
 24  6  1  0
 22 14  1  0
 23 14  1  0
 21 16  1  0
  1 29  1  0
  1 30  1  0
  1 31  1  0
  5 32  1  0
  5 33  1  0
  7 34  1  0
  8 35  1  0
  9 36  1  0
 13 37  1  0
 15 38  1  0
 15 39  1  0
 16 40  1  0
 17 41  1  0
 17 42  1  0
 18 43  1  0
 19 44  1  0
 19 45  1  0
 20 46  1  0
 21 47  1  0
 21 48  1  0
 22 49  1  0
 22 50  1  0
 23 51  1  0
 23 52  1  0
 24 53  1  0
 26 54  1  0
 26 55  1  0
 26 56  1  0
M  END
$$$$
