
     RDKit          3D

 35 36  0  0  0  0  0  0  0  0999 V2000
   -5.3720   -0.5291    0.6253 C   0  0  0  0  0  0  0  0  0  0  0  0
   -4.7566    0.5625    1.4835 C   0  0  0  0  0  0  0  0  0  0  0  0
   -3.4830    0.1574    1.9858 O   0  0  0  0  0  0  0  0  0  0  0  0
   -2.3684    0.3952    1.2359 C   0  0  0  0  0  0  0  0  0  0  0  0
   -2.3287    0.9357   -0.0472 C   0  0  0  0  0  0  0  0  0  0  0  0
   -1.1046    1.1221   -0.7144 C   0  0  0  0  0  0  0  0  0  0  0  0
    0.1109    0.7717   -0.1197 C   0  0  0  0  0  0  0  0  0  0  0  0
    1.3537    0.9239   -0.7855 N   0  0  0  0  0  0  0  0  0  0  0  0
    1.5863    1.3103   -2.0956 C   0  0  0  0  0  0  0  0  0  0  0  0
    0.7276    1.6089   -2.9215 O   0  0  0  0  0  0  0  0  0  0  0  0
    3.0656    1.3514   -2.4550 C   0  0  0  0  0  0  0  0  0  0  0  0
    3.6234   -0.2483   -3.0880 S   0  0  0  0  0  0  0  0  0  0  0  0
    3.8663   -1.1703   -1.6318 C   0  0  0  0  0  0  0  0  0  0  0  0
    4.3651   -2.4425   -1.6556 N   0  0  0  0  0  0  0  0  0  0  0  0
    4.3815   -2.7872   -0.3904 C   0  0  0  0  0  0  0  0  0  0  0  0
    3.9123   -1.7604    0.3633 N   0  0  0  0  0  0  0  0  0  0  0  0
    3.5730   -0.7080   -0.4095 N   0  0  0  0  0  0  0  0  0  0  0  0
    0.0418    0.2389    1.1802 C   0  0  0  0  0  0  0  0  0  0  0  0
    1.2466   -0.1275    1.8933 N   0  0  0  0  0  4  0  0  0  0  0  0
    2.0899    0.7589    2.0840 O   0  0  0  0  0  0  0  0  0  0  0  0
    1.3698   -1.3092    2.2487 O   0  0  0  0  0  1  0  0  0  0  0  0
   -1.1724    0.0409    1.8531 C   0  0  0  0  0  0  0  0  0  0  0  0
   -6.3775   -0.2450    0.3016 H   0  0  0  0  0  0  0  0  0  0  0  0
   -4.7652   -0.7316   -0.2622 H   0  0  0  0  0  0  0  0  0  0  0  0
   -5.4353   -1.4675    1.1865 H   0  0  0  0  0  0  0  0  0  0  0  0
   -4.7168    1.5287    0.9687 H   0  0  0  0  0  0  0  0  0  0  0  0
   -5.3984    0.7161    2.3586 H   0  0  0  0  0  0  0  0  0  0  0  0
   -3.2319    1.2201   -0.5787 H   0  0  0  0  0  0  0  0  0  0  0  0
   -1.1497    1.5467   -1.7136 H   0  0  0  0  0  0  0  0  0  0  0  0
    2.1922    0.5980   -0.2949 H   0  0  0  0  0  0  0  0  0  0  0  0
    3.1934    2.0996   -3.2450 H   0  0  0  0  0  0  0  0  0  0  0  0
    3.6693    1.6915   -1.6071 H   0  0  0  0  0  0  0  0  0  0  0  0
    4.7059   -3.7320    0.0222 H   0  0  0  0  0  0  0  0  0  0  0  0
    3.7786   -1.7124    1.3698 H   0  0  0  0  0  0  0  0  0  0  0  0
   -1.1926   -0.3822    2.8553 H   0  0  0  0  0  0  0  0  0  0  0  0
  1  2  1  0
  2  3  1  0
  3  4  1  0
  4  5  2  0
  5  6  1  0
  6  7  2  0
  7  8  1  0
  8  9  1  0
  9 10  2  0
  9 11  1  0
 11 12  1  0
 12 13  1  0
 13 14  1  0
 14 15  2  0
 15 16  1  0
 16 17  1  0
  7 18  1  0
 18 19  1  0
 19 20  2  0
 19 21  1  0
 18 22  2  0
 22  4  1  0
 17 13  2  0
  1 23  1  0
  1 24  1  0
  1 25  1  0
  2 26  1  0
  2 27  1  0
  5 28  1  0
  6 29  1  0
  8 30  1  0
 11 31  1  0
 11 32  1  0
 15 33  1  0
 16 34  1  0
 22 35  1  0
M  CHG  2  19   1  21  -1
M  END
$$$$
