
     RDKit          3D

 42 45  0  0  0  0  0  0  0  0999 V2000
   -3.5887    2.4873   -0.6227 O   0  0  0  0  0  0  0  0  0  0  0  0
   -3.8627    1.3267   -0.3060 C   0  0  0  0  0  0  0  0  0  0  0  0
   -2.7952    0.3124   -0.2618 C   0  0  0  0  0  0  0  0  0  0  0  0
   -1.4039    0.5765   -0.4039 C   0  0  0  0  0  0  0  0  0  0  0  0
   -0.7938   -0.6498   -0.3157 C   0  0  0  0  0  0  0  0  0  0  0  0
    0.6031   -1.1372   -0.3818 C   0  0  0  0  0  0  0  0  0  0  0  0
    1.4563   -0.0125   -0.1761 O   0  0  0  0  0  0  0  0  0  0  0  0
    2.8041   -0.2385   -0.2000 C   0  0  0  0  0  0  0  0  0  0  0  0
    3.4304   -1.4670   -0.4126 C   0  0  0  0  0  0  0  0  0  0  0  0
    4.8298   -1.5606   -0.4115 C   0  0  0  0  0  0  0  0  0  0  0  0
    5.6128   -0.4187   -0.1966 C   0  0  0  0  0  0  0  0  0  0  0  0
    7.0302   -0.4871   -0.1897 N   0  0  0  0  0  0  0  0  0  0  0  0
    7.8453   -1.5787   -0.3739 C   0  0  0  0  0  0  0  0  0  0  0  0
    9.1099   -1.2315   -0.2932 N   0  0  0  0  0  0  0  0  0  0  0  0
    9.0350    0.1060   -0.0544 C   0  0  0  0  0  0  0  0  0  0  0  0
    7.8029    0.6092    0.0178 N   0  0  0  0  0  0  0  0  0  0  0  0
    4.9822    0.8139    0.0162 C   0  0  0  0  0  0  0  0  0  0  0  0
    3.5873    0.8973    0.0134 C   0  0  0  0  0  0  0  0  0  0  0  0
   -1.7490   -1.6007   -0.1444 O   0  0  0  0  0  0  0  0  0  0  0  0
   -2.9947   -1.0092   -0.1166 N   0  0  0  0  0  0  0  0  0  0  0  0
   -5.1714    0.9807    0.0069 N   0  0  0  0  0  0  0  0  0  0  0  0
   -6.2358    1.9624   -0.0976 C   0  0  0  0  0  0  0  0  0  0  0  0
   -7.5155    1.1520    0.0351 C   0  0  0  0  0  0  0  0  0  0  0  0
   -7.1000    0.0226    0.9669 C   0  0  0  0  0  0  0  0  0  0  0  0
   -5.6757   -0.2859    0.5200 C   0  0  0  0  0  0  0  0  0  0  0  0
   -0.9287    1.5363   -0.5493 H   0  0  0  0  0  0  0  0  0  0  0  0
    0.7811   -1.5767   -1.3701 H   0  0  0  0  0  0  0  0  0  0  0  0
    0.7664   -1.8847    0.4035 H   0  0  0  0  0  0  0  0  0  0  0  0
    2.8636   -2.3770   -0.5828 H   0  0  0  0  0  0  0  0  0  0  0  0
    5.2679   -2.5398   -0.5815 H   0  0  0  0  0  0  0  0  0  0  0  0
    7.4810   -2.5775   -0.5584 H   0  0  0  0  0  0  0  0  0  0  0  0
    9.9070    0.7358    0.0716 H   0  0  0  0  0  0  0  0  0  0  0  0
    5.5597    1.7214    0.1864 H   0  0  0  0  0  0  0  0  0  0  0  0
    3.1090    1.8603    0.1803 H   0  0  0  0  0  0  0  0  0  0  0  0
   -6.1770    2.5095   -1.0433 H   0  0  0  0  0  0  0  0  0  0  0  0
   -6.1237    2.6706    0.7312 H   0  0  0  0  0  0  0  0  0  0  0  0
   -8.3510    1.7419    0.4215 H   0  0  0  0  0  0  0  0  0  0  0  0
   -7.8042    0.7409   -0.9397 H   0  0  0  0  0  0  0  0  0  0  0  0
   -7.0982    0.3805    2.0036 H   0  0  0  0  0  0  0  0  0  0  0  0
   -7.7583   -0.8483    0.9067 H   0  0  0  0  0  0  0  0  0  0  0  0
   -5.0649   -0.6497    1.3503 H   0  0  0  0  0  0  0  0  0  0  0  0
   -5.6726   -1.0129   -0.2989 H   0  0  0  0  0  0  0  0  0  0  0  0
  1  2  2  0
  2  3  1  0
  3  4  1  0
  4  5  2  0
  5  6  1  0
  6  7  1  0
  7  8  1  0
  8  9  2  0
  9 10  1  0
 10 11  2  0
 11 12  1  0
 12 13  1  0
 13 14  2  0
 14 15  1  0
 15 16  2  0
 11 17  1  0
 17 18  2  0
  5 19  1  0
 19 20  1  0
  2 21  1  0
 21 22  1  0
 22 23  1  0
 23 24  1  0
 24 25  1  0
 20  3  2  0
 25 21  1  0
 18  8  1  0
 16 12  1  0
  4 26  1  0
  6 27  1  0
  6 28  1  0
  9 29  1  0
 10 30  1  0
 13 31  1  0
 15 32  1  0
 17 33  1  0
 18 34  1  0
 22 35  1  0
 22 36  1  0
 23 37  1  0
 23 38  1  0
 24 39  1  0
 24 40  1  0
 25 41  1  0
 25 42  1  0
M  END
$$$$
