
     RDKit          3D

 36 38  0  0  0  0  0  0  0  0999 V2000
    5.8804    1.2867    0.2919 C   0  0  0  0  0  0  0  0  0  0  0  0
    4.8880    0.5931    1.1356 C   0  0  0  0  0  0  0  0  0  0  0  0
    4.8786    0.1811    2.4439 C   0  0  0  0  0  0  0  0  0  0  0  0
    3.6208   -0.4382    2.6483 C   0  0  0  0  0  0  0  0  0  0  0  0
    2.9039   -0.3709    1.4580 C   0  0  0  0  0  0  0  0  0  0  0  0
    1.6111   -0.8259    1.0731 C   0  0  0  0  0  0  0  0  0  0  0  0
    0.5794   -1.0960    1.8919 C   0  0  0  0  0  0  0  0  0  0  0  0
    0.5900   -1.0241    3.3087 C   0  0  0  0  0  0  0  0  0  0  0  0
    0.6157   -0.9294    4.4655 N   0  0  0  0  0  0  0  0  0  0  0  0
   -0.6906   -1.5494    1.2547 C   0  0  0  0  0  0  0  0  0  0  0  0
   -1.1725   -2.6259    1.5807 O   0  0  0  0  0  0  0  0  0  0  0  0
   -1.2019   -0.6346    0.3486 N   0  0  0  0  0  0  0  0  0  0  0  0
   -2.3734   -0.7557   -0.4495 C   0  0  0  0  0  0  0  0  0  0  0  0
   -3.1526   -1.9174   -0.4271 C   0  0  0  0  0  0  0  0  0  0  0  0
   -4.2913   -2.0224   -1.2181 C   0  0  0  0  0  0  0  0  0  0  0  0
   -4.6614   -0.9655   -2.0424 C   0  0  0  0  0  0  0  0  0  0  0  0
   -3.9234    0.2030   -2.1020 C   0  0  0  0  0  0  0  0  0  0  0  0
   -4.3651    1.1636   -2.9321 N   0  0  0  0  0  0  0  0  0  0  0  0
   -3.6700    2.3141   -3.0125 C   0  0  0  0  0  0  0  0  0  0  0  0
   -2.5260    2.5608   -2.2883 C   0  0  0  0  0  0  0  0  0  0  0  0
   -2.0703    1.5638   -1.4302 C   0  0  0  0  0  0  0  0  0  0  0  0
   -2.7600    0.3312   -1.3029 C   0  0  0  0  0  0  0  0  0  0  0  0
    3.7148    0.2625    0.5380 O   0  0  0  0  0  0  0  0  0  0  0  0
    6.7875    1.5155    0.8597 H   0  0  0  0  0  0  0  0  0  0  0  0
    5.4696    2.2272   -0.0878 H   0  0  0  0  0  0  0  0  0  0  0  0
    6.1608    0.6618   -0.5615 H   0  0  0  0  0  0  0  0  0  0  0  0
    5.6776    0.3009    3.1626 H   0  0  0  0  0  0  0  0  0  0  0  0
    3.2963   -0.8929    3.5745 H   0  0  0  0  0  0  0  0  0  0  0  0
    1.4799   -0.9345   -0.0025 H   0  0  0  0  0  0  0  0  0  0  0  0
   -0.7021    0.2383    0.2649 H   0  0  0  0  0  0  0  0  0  0  0  0
   -2.9050   -2.7710    0.1955 H   0  0  0  0  0  0  0  0  0  0  0  0
   -4.8910   -2.9289   -1.1923 H   0  0  0  0  0  0  0  0  0  0  0  0
   -5.5539   -1.0567   -2.6579 H   0  0  0  0  0  0  0  0  0  0  0  0
   -4.0744    3.0534   -3.6978 H   0  0  0  0  0  0  0  0  0  0  0  0
   -2.0004    3.5040   -2.3859 H   0  0  0  0  0  0  0  0  0  0  0  0
   -1.1689    1.7782   -0.8673 H   0  0  0  0  0  0  0  0  0  0  0  0
  1  2  1  0
  2  3  2  0
  3  4  1  0
  4  5  2  0
  5  6  1  0
  6  7  2  3
  7  8  1  0
  8  9  3  0
  7 10  1  0
 10 11  2  0
 10 12  1  0
 12 13  1  0
 13 14  2  0
 14 15  1  0
 15 16  2  0
 16 17  1  0
 17 18  2  0
 18 19  1  0
 19 20  2  0
 20 21  1  0
 21 22  2  0
  5 23  1  0
 23  2  1  0
 22 13  1  0
 22 17  1  0
  1 24  1  0
  1 25  1  0
  1 26  1  0
  3 27  1  0
  4 28  1  0
  6 29  1  0
 12 30  1  0
 14 31  1  0
 15 32  1  0
 16 33  1  0
 19 34  1  0
 20 35  1  0
 21 36  1  0
M  END
$$$$
