
     RDKit          3D

 49 52  0  0  0  0  0  0  0  0999 V2000
    7.9717    0.9139    0.7571 C   0  0  0  0  0  0  0  0  0  0  0  0
    7.3944   -0.3806    0.3954 N   0  0  0  0  0  0  0  0  0  0  0  0
    8.0323   -1.5424    1.0129 C   0  0  0  0  0  0  0  0  0  0  0  0
    6.0243   -0.4428    0.1028 C   0  0  0  0  0  0  0  0  0  0  0  0
    5.2712    0.7044   -0.2036 C   0  0  0  0  0  0  0  0  0  0  0  0
    3.9028    0.6475   -0.5126 C   0  0  0  0  0  0  0  0  0  0  0  0
    3.2307   -0.5713   -0.5261 C   0  0  0  0  0  0  0  0  0  0  0  0
    1.8158   -0.6767   -0.8918 C   0  0  0  0  0  0  0  0  0  0  0  0
    0.7771   -0.0816   -0.2874 C   0  0  0  0  0  0  0  0  0  0  0  0
   -0.5831   -0.2255   -0.6967 C   0  0  0  0  0  0  0  0  0  0  0  0
   -1.3011    0.5031    0.1562 C   0  0  0  0  0  0  0  0  0  0  0  0
   -2.7590    0.7052    0.1765 C   0  0  0  0  0  0  0  0  0  0  0  0
   -3.3156    1.7547    0.9256 C   0  0  0  0  0  0  0  0  0  0  0  0
   -4.6970    1.9691    0.9595 C   0  0  0  0  0  0  0  0  0  0  0  0
   -5.5519    1.1221    0.2561 C   0  0  0  0  0  0  0  0  0  0  0  0
   -5.0176    0.0639   -0.4934 C   0  0  0  0  0  0  0  0  0  0  0  0
   -3.6309   -0.1355   -0.5342 C   0  0  0  0  0  0  0  0  0  0  0  0
   -5.9688   -0.8002   -1.2782 C   0  0  0  0  0  0  0  0  0  0  0  0
   -7.2040   -1.1542   -0.4481 C   0  0  0  0  0  0  0  0  0  0  0  0
   -7.7929    0.0099    0.3634 C   0  0  0  0  0  0  0  0  0  0  0  0
   -7.0412    1.3355    0.2287 C   0  0  0  0  0  0  0  0  0  0  0  0
   -0.5444    1.1613    1.1470 O   0  0  0  0  0  0  0  0  0  0  0  0
    0.7698    0.8144    0.9066 C   0  0  0  0  0  0  0  0  0  0  0  0
    1.7175    1.1951    1.5686 O   0  0  0  0  0  0  0  0  0  0  0  0
    3.9566   -1.7298   -0.2582 C   0  0  0  0  0  0  0  0  0  0  0  0
    5.3250   -1.6613    0.0479 C   0  0  0  0  0  0  0  0  0  0  0  0
    9.0408    0.8220    0.9801 H   0  0  0  0  0  0  0  0  0  0  0  0
    7.9009    1.6259   -0.0721 H   0  0  0  0  0  0  0  0  0  0  0  0
    7.4835    1.3302    1.6453 H   0  0  0  0  0  0  0  0  0  0  0  0
    7.9962   -2.4141    0.3508 H   0  0  0  0  0  0  0  0  0  0  0  0
    7.5635   -1.7873    1.9725 H   0  0  0  0  0  0  0  0  0  0  0  0
    9.0956   -1.3562    1.2023 H   0  0  0  0  0  0  0  0  0  0  0  0
    5.7280    1.6890   -0.2114 H   0  0  0  0  0  0  0  0  0  0  0  0
    3.3789    1.5736   -0.7356 H   0  0  0  0  0  0  0  0  0  0  0  0
    1.6341   -1.3304   -1.7430 H   0  0  0  0  0  0  0  0  0  0  0  0
   -0.9314   -0.8031   -1.5361 H   0  0  0  0  0  0  0  0  0  0  0  0
   -2.6759    2.4315    1.4892 H   0  0  0  0  0  0  0  0  0  0  0  0
   -5.0935    2.7999    1.5380 H   0  0  0  0  0  0  0  0  0  0  0  0
   -3.2430   -0.9629   -1.1225 H   0  0  0  0  0  0  0  0  0  0  0  0
   -5.4786   -1.7251   -1.6038 H   0  0  0  0  0  0  0  0  0  0  0  0
   -6.2667   -0.2566   -2.1833 H   0  0  0  0  0  0  0  0  0  0  0  0
   -7.9741   -1.5781   -1.1037 H   0  0  0  0  0  0  0  0  0  0  0  0
   -6.9373   -1.9556    0.2542 H   0  0  0  0  0  0  0  0  0  0  0  0
   -8.8445    0.1595    0.0905 H   0  0  0  0  0  0  0  0  0  0  0  0
   -7.7998   -0.2847    1.4216 H   0  0  0  0  0  0  0  0  0  0  0  0
   -7.3544    2.0094    1.0347 H   0  0  0  0  0  0  0  0  0  0  0  0
   -7.3048    1.8217   -0.7188 H   0  0  0  0  0  0  0  0  0  0  0  0
    3.4732   -2.7035   -0.2800 H   0  0  0  0  0  0  0  0  0  0  0  0
    5.8280   -2.6034    0.2412 H   0  0  0  0  0  0  0  0  0  0  0  0
  1  2  1  0
  2  3  1  0
  2  4  1  0
  4  5  2  0
  5  6  1  0
  6  7  2  0
  7  8  1  0
  8  9  2  3
  9 10  1  0
 10 11  2  0
 11 12  1  0
 12 13  2  0
 13 14  1  0
 14 15  2  0
 15 16  1  0
 16 17  2  0
 16 18  1  0
 18 19  1  0
 19 20  1  0
 20 21  1  0
 11 22  1  0
 22 23  1  0
 23 24  2  0
  7 25  1  0
 25 26  2  0
 26  4  1  0
 23  9  1  0
 17 12  1  0
 21 15  1  0
  1 27  1  0
  1 28  1  0
  1 29  1  0
  3 30  1  0
  3 31  1  0
  3 32  1  0
  5 33  1  0
  6 34  1  0
  8 35  1  0
 10 36  1  0
 13 37  1  0
 14 38  1  0
 17 39  1  0
 18 40  1  0
 18 41  1  0
 19 42  1  0
 19 43  1  0
 20 44  1  0
 20 45  1  0
 21 46  1  0
 21 47  1  0
 25 48  1  0
 26 49  1  0
M  END
$$$$
