
     RDKit          3D

 46 49  0  0  0  0  0  0  0  0999 V2000
   -2.4013    1.1156   -0.9808 O   0  0  0  0  0  0  0  0  0  0  0  0
   -1.7252    0.3508   -0.2970 C   0  0  0  0  0  0  0  0  0  0  0  0
   -0.3069    0.1794   -0.5650 C   0  0  0  0  0  0  0  0  0  0  0  0
    0.3554   -1.0244   -0.7215 C   0  0  0  0  0  0  0  0  0  0  0  0
    1.6615   -0.7373   -1.0307 N   0  0  0  0  0  0  0  0  0  0  0  0
    2.7252   -1.6522   -1.2744 C   0  0  0  0  0  0  0  0  0  0  0  0
    2.5206   -3.0386   -1.2261 C   0  0  0  0  0  0  0  0  0  0  0  0
    3.5854   -3.9121   -1.4685 C   0  0  0  0  0  0  0  0  0  0  0  0
    4.8537   -3.4119   -1.7585 C   0  0  0  0  0  0  0  0  0  0  0  0
    5.0642   -2.0359   -1.8083 C   0  0  0  0  0  0  0  0  0  0  0  0
    4.0059   -1.1571   -1.5677 C   0  0  0  0  0  0  0  0  0  0  0  0
    1.8702    0.5973   -1.0864 N   0  0  0  0  0  0  0  0  0  0  0  0
    0.6837    1.1689   -0.8241 C   0  0  0  0  0  0  0  0  0  0  0  0
    0.5651    2.6312   -0.8156 C   0  0  0  0  0  0  0  0  0  0  0  0
   -0.2646    3.2946    0.1017 C   0  0  0  0  0  0  0  0  0  0  0  0
   -0.3545    4.6899    0.0965 C   0  0  0  0  0  0  0  0  0  0  0  0
    0.3894    5.4238   -0.8192 C   0  0  0  0  0  0  0  0  0  0  0  0
    0.3030    6.7604   -0.8196 F   0  0  0  0  0  0  0  0  0  0  0  0
    1.2250    4.7911   -1.7298 C   0  0  0  0  0  0  0  0  0  0  0  0
    1.3145    3.3970   -1.7260 C   0  0  0  0  0  0  0  0  0  0  0  0
   -2.2847   -0.3886    0.7496 N   0  0  0  0  0  0  0  0  0  0  0  0
   -1.5081   -1.0267    1.8172 C   0  0  0  0  0  0  0  0  0  0  0  0
   -2.2363   -0.9800    3.1569 C   0  0  0  0  0  0  0  0  0  0  0  0
   -3.6153   -1.6350    3.0862 C   0  0  0  0  0  0  0  0  0  0  0  0
   -4.2589   -1.5259    1.7038 C   0  0  0  0  0  0  0  0  0  0  0  0
   -3.7346   -0.3290    0.9210 C   0  0  0  0  0  0  0  0  0  0  0  0
   -0.0153   -2.0354   -0.6613 H   0  0  0  0  0  0  0  0  0  0  0  0
    1.5516   -3.4749   -1.0071 H   0  0  0  0  0  0  0  0  0  0  0  0
    3.4247   -4.9870   -1.4324 H   0  0  0  0  0  0  0  0  0  0  0  0
    5.6785   -4.0945   -1.9471 H   0  0  0  0  0  0  0  0  0  0  0  0
    6.0523   -1.6433   -2.0350 H   0  0  0  0  0  0  0  0  0  0  0  0
    4.1958   -0.0859   -1.6123 H   0  0  0  0  0  0  0  0  0  0  0  0
   -0.8466    2.7415    0.8334 H   0  0  0  0  0  0  0  0  0  0  0  0
   -0.9996    5.2055    0.8004 H   0  0  0  0  0  0  0  0  0  0  0  0
    1.8010    5.3809   -2.4350 H   0  0  0  0  0  0  0  0  0  0  0  0
    1.9723    2.9049   -2.4402 H   0  0  0  0  0  0  0  0  0  0  0  0
   -0.5357   -0.5360    1.9227 H   0  0  0  0  0  0  0  0  0  0  0  0
   -1.3379   -2.0677    1.5198 H   0  0  0  0  0  0  0  0  0  0  0  0
   -1.6351   -1.4629    3.9352 H   0  0  0  0  0  0  0  0  0  0  0  0
   -2.3574    0.0686    3.4586 H   0  0  0  0  0  0  0  0  0  0  0  0
   -4.2654   -1.1719    3.8383 H   0  0  0  0  0  0  0  0  0  0  0  0
   -3.5398   -2.6946    3.3586 H   0  0  0  0  0  0  0  0  0  0  0  0
   -5.3485   -1.4703    1.8041 H   0  0  0  0  0  0  0  0  0  0  0  0
   -4.0415   -2.4422    1.1397 H   0  0  0  0  0  0  0  0  0  0  0  0
   -4.2172   -0.2876   -0.0620 H   0  0  0  0  0  0  0  0  0  0  0  0
   -3.9690    0.6073    1.4418 H   0  0  0  0  0  0  0  0  0  0  0  0
  1  2  2  0
  2  3  1  0
  3  4  2  0
  4  5  1  0
  5  6  1  0
  6  7  2  0
  7  8  1  0
  8  9  2  0
  9 10  1  0
 10 11  2  0
  5 12  1  0
 12 13  2  0
 13 14  1  0
 14 15  2  0
 15 16  1  0
 16 17  2  0
 17 18  1  0
 17 19  1  0
 19 20  2  0
  2 21  1  0
 21 22  1  0
 22 23  1  0
 23 24  1  0
 24 25  1  0
 25 26  1  0
 13  3  1  0
 20 14  1  0
 26 21  1  0
 11  6  1  0
  4 27  1  0
  7 28  1  0
  8 29  1  0
  9 30  1  0
 10 31  1  0
 11 32  1  0
 15 33  1  0
 16 34  1  0
 19 35  1  0
 20 36  1  0
 22 37  1  0
 22 38  1  0
 23 39  1  0
 23 40  1  0
 24 41  1  0
 24 42  1  0
 25 43  1  0
 25 44  1  0
 26 45  1  0
 26 46  1  0
M  END
$$$$
