
     RDKit          3D

 45 47  0  0  0  0  0  0  0  0999 V2000
    6.9928   -1.2625    1.3150 C   0  0  0  0  0  0  0  0  0  0  0  0
    6.3483   -0.3696    0.4179 O   0  0  0  0  0  0  0  0  0  0  0  0
    4.9764   -0.3314    0.4369 C   0  0  0  0  0  0  0  0  0  0  0  0
    4.1738   -1.1343    1.2507 C   0  0  0  0  0  0  0  0  0  0  0  0
    2.7793   -1.0275    1.2024 C   0  0  0  0  0  0  0  0  0  0  0  0
    2.1672   -0.1150    0.3459 C   0  0  0  0  0  0  0  0  0  0  0  0
    0.7686    0.0352    0.2333 N   0  0  0  0  0  0  0  0  0  0  0  0
   -0.2017   -0.4861    1.0617 C   0  0  0  0  0  0  0  0  0  0  0  0
    0.0178   -1.0575    2.1262 O   0  0  0  0  0  0  0  0  0  0  0  0
   -1.5049   -0.2914    0.5996 N   0  0  0  0  0  0  0  0  0  0  0  0
   -1.8596    0.0716   -0.7760 C   0  0  0  0  0  0  0  0  0  0  0  0
   -3.2063   -0.5053   -1.1861 C   0  0  0  0  0  0  0  0  0  0  0  0
   -4.3158   -0.0259   -0.2479 C   0  0  0  0  0  0  0  0  0  0  0  0
   -3.8474    0.1751    1.1971 C   0  0  0  0  0  0  0  0  0  0  0  0
   -2.6073   -0.6555    1.4911 C   0  0  0  0  0  0  0  0  0  0  0  0
   -4.8259    1.2282   -0.7452 O   0  0  0  0  0  0  0  0  0  0  0  0
   -6.2450    1.0766   -0.7294 C   0  0  0  0  0  0  0  0  0  0  0  0
   -6.4334   -0.3888   -1.0032 C   0  0  0  0  0  0  0  0  0  0  0  0
   -5.3779   -0.9997   -0.2621 O   0  0  0  0  0  0  0  0  0  0  0  0
    2.9699    0.6850   -0.4796 C   0  0  0  0  0  0  0  0  0  0  0  0
    4.3679    0.5878   -0.4388 C   0  0  0  0  0  0  0  0  0  0  0  0
    5.2214    1.3370   -1.2118 O   0  0  0  0  0  0  0  0  0  0  0  0
    4.6546    2.3179   -2.0671 C   0  0  0  0  0  0  0  0  0  0  0  0
    6.7611   -1.0139    2.3560 H   0  0  0  0  0  0  0  0  0  0  0  0
    6.7366   -2.3027    1.0888 H   0  0  0  0  0  0  0  0  0  0  0  0
    8.0730   -1.1503    1.1799 H   0  0  0  0  0  0  0  0  0  0  0  0
    4.5966   -1.8607    1.9365 H   0  0  0  0  0  0  0  0  0  0  0  0
    2.1978   -1.6824    1.8447 H   0  0  0  0  0  0  0  0  0  0  0  0
    0.4505    0.7492   -0.4014 H   0  0  0  0  0  0  0  0  0  0  0  0
   -1.8724    1.1663   -0.8312 H   0  0  0  0  0  0  0  0  0  0  0  0
   -1.0890   -0.2916   -1.4641 H   0  0  0  0  0  0  0  0  0  0  0  0
   -3.1491   -1.6017   -1.1712 H   0  0  0  0  0  0  0  0  0  0  0  0
   -3.4280   -0.2182   -2.2210 H   0  0  0  0  0  0  0  0  0  0  0  0
   -3.6135    1.2334    1.3725 H   0  0  0  0  0  0  0  0  0  0  0  0
   -4.6428   -0.0939    1.9022 H   0  0  0  0  0  0  0  0  0  0  0  0
   -2.3052   -0.5071    2.5338 H   0  0  0  0  0  0  0  0  0  0  0  0
   -2.8070   -1.7254    1.3570 H   0  0  0  0  0  0  0  0  0  0  0  0
   -6.7118    1.7222   -1.4771 H   0  0  0  0  0  0  0  0  0  0  0  0
   -6.6070    1.3524    0.2669 H   0  0  0  0  0  0  0  0  0  0  0  0
   -7.4049   -0.7705   -0.6801 H   0  0  0  0  0  0  0  0  0  0  0  0
   -6.2845   -0.6239   -2.0626 H   0  0  0  0  0  0  0  0  0  0  0  0
    2.4889    1.3848   -1.1530 H   0  0  0  0  0  0  0  0  0  0  0  0
    5.4751    2.8319   -2.5770 H   0  0  0  0  0  0  0  0  0  0  0  0
    4.0252    1.8555   -2.8344 H   0  0  0  0  0  0  0  0  0  0  0  0
    4.0973    3.0676   -1.4957 H   0  0  0  0  0  0  0  0  0  0  0  0
  1  2  1  0
  2  3  1  0
  3  4  2  0
  4  5  1  0
  5  6  2  0
  6  7  1  0
  7  8  1  0
  8  9  2  0
  8 10  1  0
 10 11  1  0
 11 12  1  0
 12 13  1  0
 13 14  1  0
 14 15  1  0
 13 16  1  0
 16 17  1  0
 17 18  1  0
 18 19  1  0
  6 20  1  0
 20 21  2  0
 21 22  1  0
 22 23  1  0
 21  3  1  0
 15 10  1  0
 19 13  1  0
  1 24  1  0
  1 25  1  0
  1 26  1  0
  4 27  1  0
  5 28  1  0
  7 29  1  0
 11 30  1  0
 11 31  1  0
 12 32  1  0
 12 33  1  0
 14 34  1  0
 14 35  1  0
 15 36  1  0
 15 37  1  0
 17 38  1  0
 17 39  1  0
 18 40  1  0
 18 41  1  0
 20 42  1  0
 23 43  1  0
 23 44  1  0
 23 45  1  0
M  END
$$$$
