
     RDKit          3D

 65 69  0  0  0  0  0  0  0  0999 V2000
    5.4462   -3.0657   -0.5083 C   0  0  0  0  0  0  0  0  0  0  0  0
    4.8772   -2.0713    0.3327 O   0  0  0  0  0  0  0  0  0  0  0  0
    3.5333   -1.8425    0.1988 C   0  0  0  0  0  0  0  0  0  0  0  0
    2.6354   -2.7579   -0.3554 C   0  0  0  0  0  0  0  0  0  0  0  0
    1.2709   -2.4600   -0.4341 C   0  0  0  0  0  0  0  0  0  0  0  0
    0.7680   -1.2461    0.0534 C   0  0  0  0  0  0  0  0  0  0  0  0
   -0.7176   -0.9463   -0.0790 C   0  0  0  0  0  0  0  0  0  0  0  0
   -1.0188   -0.1293   -1.3559 C   0  0  0  0  0  0  0  0  0  0  0  0
   -0.3710    1.1983   -1.3651 C   0  0  0  0  0  0  0  0  0  0  0  0
    0.1374    2.2418   -1.3343 N   0  0  0  0  0  0  0  0  0  0  0  0
   -2.5295    0.0994   -1.5357 C   0  0  0  0  0  0  0  0  0  0  0  0
   -2.8913    0.3625   -2.7569 N   0  0  0  0  0  0  0  0  0  0  0  0
   -3.3817    0.0308   -0.4110 N   0  0  0  0  0  0  0  0  0  0  0  0
   -4.7859    0.2767   -0.6063 C   0  0  0  0  0  0  0  0  0  0  0  0
   -5.5539   -0.6426   -1.3487 C   0  0  0  0  0  0  0  0  0  0  0  0
   -6.9172   -0.4300   -1.5560 C   0  0  0  0  0  0  0  0  0  0  0  0
   -7.5351    0.6993   -1.0245 C   0  0  0  0  0  0  0  0  0  0  0  0
   -6.7924    1.6181   -0.2816 C   0  0  0  0  0  0  0  0  0  0  0  0
   -5.4219    1.4142   -0.0663 C   0  0  0  0  0  0  0  0  0  0  0  0
   -4.6933    2.3814    0.7030 C   0  0  0  0  0  0  0  0  0  0  0  0
   -4.1135    3.1558    1.3437 N   0  0  0  0  0  0  0  0  0  0  0  0
   -2.9381   -0.4023    0.8655 C   0  0  0  0  0  0  0  0  0  0  0  0
   -3.7406   -0.9566    1.8038 C   0  0  0  0  0  0  0  0  0  0  0  0
   -3.2636   -1.5655    3.0900 C   0  0  0  0  0  0  0  0  0  0  0  0
   -1.8171   -2.0093    2.9988 C   0  0  0  0  0  0  0  0  0  0  0  0
   -1.0243   -0.8466    2.4785 C   0  0  0  0  0  0  0  0  0  0  0  0
   -0.0828   -0.3864    3.1249 O   0  0  0  0  0  0  0  0  0  0  0  0
   -1.4282   -0.2787    1.1153 C   0  0  0  0  0  0  0  0  0  0  0  0
    1.6736   -0.3361    0.6122 C   0  0  0  0  0  0  0  0  0  0  0  0
    3.0518   -0.6201    0.6941 C   0  0  0  0  0  0  0  0  0  0  0  0
    3.9803    0.4237    1.2873 C   0  0  0  0  0  0  0  0  0  0  0  0
    4.6343    1.2629    0.2753 N   0  0  0  0  0  0  0  0  0  0  0  0
    3.7128    2.1446   -0.4447 C   0  0  0  0  0  0  0  0  0  0  0  0
    4.6465    3.1478   -1.1056 C   0  0  0  0  0  0  0  0  0  0  0  0
    5.8931    3.1700   -0.2292 C   0  0  0  0  0  0  0  0  0  0  0  0
    5.6191    2.1622    0.8765 C   0  0  0  0  0  0  0  0  0  0  0  0
    5.1637   -2.9194   -1.5565 H   0  0  0  0  0  0  0  0  0  0  0  0
    5.1725   -4.0676   -0.1621 H   0  0  0  0  0  0  0  0  0  0  0  0
    6.5346   -2.9767   -0.4421 H   0  0  0  0  0  0  0  0  0  0  0  0
    2.9688   -3.7207   -0.7283 H   0  0  0  0  0  0  0  0  0  0  0  0
    0.6083   -3.1972   -0.8835 H   0  0  0  0  0  0  0  0  0  0  0  0
   -1.2018   -1.9287   -0.2077 H   0  0  0  0  0  0  0  0  0  0  0  0
   -0.6634   -0.6921   -2.2302 H   0  0  0  0  0  0  0  0  0  0  0  0
   -3.8940    0.5530   -2.8262 H   0  0  0  0  0  0  0  0  0  0  0  0
   -5.0867   -1.5331   -1.7663 H   0  0  0  0  0  0  0  0  0  0  0  0
   -7.4984   -1.1463   -2.1333 H   0  0  0  0  0  0  0  0  0  0  0  0
   -8.5977    0.8654   -1.1890 H   0  0  0  0  0  0  0  0  0  0  0  0
   -7.2901    2.4964    0.1278 H   0  0  0  0  0  0  0  0  0  0  0  0
   -4.8129   -1.0468    1.6428 H   0  0  0  0  0  0  0  0  0  0  0  0
   -3.4007   -0.8368    3.8978 H   0  0  0  0  0  0  0  0  0  0  0  0
   -3.8849   -2.4363    3.3286 H   0  0  0  0  0  0  0  0  0  0  0  0
   -1.6882   -2.8582    2.3184 H   0  0  0  0  0  0  0  0  0  0  0  0
   -1.4422   -2.3047    3.9839 H   0  0  0  0  0  0  0  0  0  0  0  0
   -1.1921    0.7929    1.1719 H   0  0  0  0  0  0  0  0  0  0  0  0
    1.3256    0.6226    0.9971 H   0  0  0  0  0  0  0  0  0  0  0  0
    4.7425   -0.0962    1.8824 H   0  0  0  0  0  0  0  0  0  0  0  0
    3.4257    1.0388    2.0094 H   0  0  0  0  0  0  0  0  0  0  0  0
    3.0323    2.6672    0.2393 H   0  0  0  0  0  0  0  0  0  0  0  0
    3.1218    1.6110   -1.1950 H   0  0  0  0  0  0  0  0  0  0  0  0
    4.1854    4.1380   -1.1837 H   0  0  0  0  0  0  0  0  0  0  0  0
    4.9123    2.8207   -2.1181 H   0  0  0  0  0  0  0  0  0  0  0  0
    6.0842    4.1684    0.1773 H   0  0  0  0  0  0  0  0  0  0  0  0
    6.7688    2.8746   -0.8192 H   0  0  0  0  0  0  0  0  0  0  0  0
    5.2129    2.6805    1.7550 H   0  0  0  0  0  0  0  0  0  0  0  0
    6.5313    1.6355    1.1748 H   0  0  0  0  0  0  0  0  0  0  0  0
  1  2  1  0
  2  3  1  0
  3  4  2  0
  4  5  1  0
  5  6  2  0
  6  7  1  0
  7  8  1  0
  8  9  1  0
  9 10  3  0
  8 11  1  0
 11 12  2  3
 11 13  1  0
 13 14  1  0
 14 15  2  0
 15 16  1  0
 16 17  2  0
 17 18  1  0
 18 19  2  0
 19 20  1  0
 20 21  3  0
 13 22  1  0
 22 23  2  0
 23 24  1  0
 24 25  1  0
 25 26  1  0
 26 27  2  0
 26 28  1  0
  6 29  1  0
 29 30  2  0
 30 31  1  0
 31 32  1  0
 32 33  1  0
 33 34  1  0
 34 35  1  0
 35 36  1  0
 30  3  1  0
 36 32  1  0
 28  7  1  0
 19 14  1  0
 28 22  1  0
  1 37  1  0
  1 38  1  0
  1 39  1  0
  4 40  1  0
  5 41  1  0
  7 42  1  0
  8 43  1  0
 12 44  1  0
 15 45  1  0
 16 46  1  0
 17 47  1  0
 18 48  1  0
 23 49  1  0
 24 50  1  0
 24 51  1  0
 25 52  1  0
 25 53  1  0
 28 54  1  0
 29 55  1  0
 31 56  1  0
 31 57  1  0
 33 58  1  0
 33 59  1  0
 34 60  1  0
 34 61  1  0
 35 62  1  0
 35 63  1  0
 36 64  1  0
 36 65  1  0
M  END
$$$$
