
     RDKit          3D

 90 91  0  0  0  0  0  0  0  0999 V2000
    4.4632   -3.2946    1.0749 C   0  0  0  0  0  0  0  0  0  0  0  0
    3.4390   -2.5111    0.3119 C   0  0  0  0  0  0  0  0  0  0  0  0
    3.0011   -2.8396   -0.7812 O   0  0  0  0  0  0  0  0  0  0  0  0
    3.0883   -1.4089    1.0207 O   0  0  0  0  0  0  0  0  0  0  0  0
    2.1400   -0.4883    0.4133 C   0  0  1  0  0  0  0  0  0  0  0  0
    0.8286   -0.4917    1.2559 C   0  0  2  0  0  0  0  0  0  0  0  0
    1.1141   -0.3762    2.6671 O   0  0  0  0  0  0  0  0  0  0  0  0
    0.9157    0.8392    3.2447 C   0  0  0  0  0  0  0  0  0  0  0  0
    1.1594    0.7423    4.7198 C   0  0  0  0  0  0  0  0  0  0  0  0
    0.5879    1.8680    2.6693 O   0  0  0  0  0  0  0  0  0  0  0  0
   -0.0191   -1.7558    1.0496 C   0  0  0  0  0  0  0  0  0  0  0  0
    0.2486   -2.9198    1.9714 C   0  0  0  0  0  0  0  0  0  0  0  0
   -1.0239   -1.8362    0.1475 C   0  0  0  0  0  0  0  0  0  0  0  0
   -1.4048   -0.7818   -0.8784 C   0  0  1  0  0  0  0  0  0  0  0  0
   -1.6454   -1.3720   -2.2993 C   0  0  1  0  0  0  0  0  0  0  0  0
   -1.0113   -2.6305   -2.5285 O   0  0  0  0  0  0  0  0  0  0  0  0
    0.2985   -2.5468   -2.9041 C   0  0  0  0  0  0  0  0  0  0  0  0
    0.8856   -3.9191   -3.0154 C   0  0  0  0  0  0  0  0  0  0  0  0
    0.8975   -1.5066   -3.1414 O   0  0  0  0  0  0  0  0  0  0  0  0
   -3.1593   -1.4366   -2.4706 C   0  0  1  0  0  0  0  0  0  0  0  0
   -3.8502   -2.6396   -1.8366 C   0  0  0  0  0  0  0  0  0  0  0  0
   -3.5711   -0.0971   -1.8609 C   0  0  0  0  0  0  0  0  0  0  0  0
   -2.6685    0.1171   -0.5983 C   0  0  1  0  0  0  0  0  0  0  0  0
   -3.5087   -0.4312    0.4729 O   0  0  0  0  0  0  0  0  0  0  0  0
   -3.1453   -0.3342    1.7812 C   0  0  0  0  0  0  0  0  0  0  0  0
   -4.2098   -0.9396    2.6443 C   0  0  0  0  0  0  0  0  0  0  0  0
   -2.1089    0.1468    2.2079 O   0  0  0  0  0  0  0  0  0  0  0  0
   -2.4246    1.6695   -0.3838 C   0  0  2  0  0  0  0  0  0  0  0  0
   -3.7077    2.3414   -0.6143 O   0  0  0  0  0  0  0  0  0  0  0  0
   -4.5163    2.6064    0.4431 C   0  0  0  0  0  0  0  0  0  0  0  0
   -5.7552    3.3010   -0.0340 C   0  0  0  0  0  0  0  0  0  0  0  0
   -4.2966    2.3281    1.6116 O   0  0  0  0  0  0  0  0  0  0  0  0
   -1.3757    2.3433   -1.3436 C   0  0  1  0  0  0  0  0  0  0  0  0
   -1.6840    3.8299   -1.5939 C   0  0  0  0  0  0  0  0  0  0  0  0
    0.0536    2.2838   -0.8217 C   0  0  0  0  0  0  0  0  0  0  0  0
    1.0842    1.7455   -1.5003 C   0  0  0  0  0  0  0  0  0  0  0  0
    2.5452    1.6816   -1.0498 C   0  0  0  0  0  0  0  0  0  0  0  0
    3.0777    3.1316   -0.9296 C   0  0  0  0  0  0  0  0  0  0  0  0
    3.3688    1.0038   -2.1761 C   0  0  0  0  0  0  0  0  0  0  0  0
    2.7838    0.9363    0.3224 C   0  0  2  0  0  0  0  0  0  0  0  0
    4.2256    0.8510    0.5190 O   0  0  0  0  0  0  0  0  0  0  0  0
    4.6746    0.9277    1.8004 C   0  0  0  0  0  0  0  0  0  0  0  0
    6.1657    0.7899    1.8204 C   0  0  0  0  0  0  0  0  0  0  0  0
    3.9859    1.0736    2.7990 O   0  0  0  0  0  0  0  0  0  0  0  0
    4.0586   -3.5910    2.0462 H   0  0  0  0  0  0  0  0  0  0  0  0
    4.7190   -4.1983    0.5148 H   0  0  0  0  0  0  0  0  0  0  0  0
    5.3667   -2.6937    1.2008 H   0  0  0  0  0  0  0  0  0  0  0  0
    1.8881   -0.8201   -0.5980 H   0  0  0  0  0  0  0  0  0  0  0  0
    0.2137    0.3558    0.9545 H   0  0  0  0  0  0  0  0  0  0  0  0
    1.0930    1.7399    5.1635 H   0  0  0  0  0  0  0  0  0  0  0  0
    0.4035    0.0992    5.1778 H   0  0  0  0  0  0  0  0  0  0  0  0
    2.1618    0.3488    4.9089 H   0  0  0  0  0  0  0  0  0  0  0  0
   -0.3714   -3.7894    1.7248 H   0  0  0  0  0  0  0  0  0  0  0  0
    1.2905   -3.2430    1.9081 H   0  0  0  0  0  0  0  0  0  0  0  0
    0.0278   -2.6501    3.0095 H   0  0  0  0  0  0  0  0  0  0  0  0
   -1.6069   -2.7545    0.1129 H   0  0  0  0  0  0  0  0  0  0  0  0
   -0.5283   -0.1605   -1.0101 H   0  0  0  0  0  0  0  0  0  0  0  0
   -1.2885   -0.6424   -3.0428 H   0  0  0  0  0  0  0  0  0  0  0  0
    1.9516   -3.8409   -3.2476 H   0  0  0  0  0  0  0  0  0  0  0  0
    0.7762   -4.4462   -2.0634 H   0  0  0  0  0  0  0  0  0  0  0  0
    0.3884   -4.4690   -3.8170 H   0  0  0  0  0  0  0  0  0  0  0  0
   -3.4069   -1.4545   -3.5393 H   0  0  0  0  0  0  0  0  0  0  0  0
   -3.6998   -2.6973   -0.7569 H   0  0  0  0  0  0  0  0  0  0  0  0
   -4.9304   -2.5889   -2.0117 H   0  0  0  0  0  0  0  0  0  0  0  0
   -3.4884   -3.5732   -2.2790 H   0  0  0  0  0  0  0  0  0  0  0  0
   -3.3856    0.6844   -2.6079 H   0  0  0  0  0  0  0  0  0  0  0  0
   -4.6411   -0.0780   -1.6231 H   0  0  0  0  0  0  0  0  0  0  0  0
   -3.9709   -0.7553    3.6952 H   0  0  0  0  0  0  0  0  0  0  0  0
   -5.1764   -0.4751    2.4282 H   0  0  0  0  0  0  0  0  0  0  0  0
   -4.2525   -2.0183    2.4757 H   0  0  0  0  0  0  0  0  0  0  0  0
   -2.1103    1.8811    0.6425 H   0  0  0  0  0  0  0  0  0  0  0  0
   -5.4889    4.2543   -0.4978 H   0  0  0  0  0  0  0  0  0  0  0  0
   -6.2892    2.6609   -0.7409 H   0  0  0  0  0  0  0  0  0  0  0  0
   -6.4103    3.4982    0.8193 H   0  0  0  0  0  0  0  0  0  0  0  0
   -1.4282    1.8506   -2.3219 H   0  0  0  0  0  0  0  0  0  0  0  0
   -0.9048    4.2979   -2.2076 H   0  0  0  0  0  0  0  0  0  0  0  0
   -2.6285    3.9545   -2.1346 H   0  0  0  0  0  0  0  0  0  0  0  0
   -1.7510    4.3886   -0.6532 H   0  0  0  0  0  0  0  0  0  0  0  0
    0.2268    2.7351    0.1565 H   0  0  0  0  0  0  0  0  0  0  0  0
    0.8775    1.3175   -2.4834 H   0  0  0  0  0  0  0  0  0  0  0  0
    2.5811    3.6754   -0.1178 H   0  0  0  0  0  0  0  0  0  0  0  0
    2.9125    3.6950   -1.8557 H   0  0  0  0  0  0  0  0  0  0  0  0
    4.1541    3.1508   -0.7254 H   0  0  0  0  0  0  0  0  0  0  0  0
    3.0798   -0.0415   -2.3218 H   0  0  0  0  0  0  0  0  0  0  0  0
    4.4432    1.0211   -1.9639 H   0  0  0  0  0  0  0  0  0  0  0  0
    3.2270    1.5173   -3.1348 H   0  0  0  0  0  0  0  0  0  0  0  0
    2.3765    1.5844    1.0999 H   0  0  0  0  0  0  0  0  0  0  0  0
    6.6201    1.5755    1.2126 H   0  0  0  0  0  0  0  0  0  0  0  0
    6.5242    0.8921    2.8487 H   0  0  0  0  0  0  0  0  0  0  0  0
    6.4506   -0.1978    1.4487 H   0  0  0  0  0  0  0  0  0  0  0  0
  1  2  1  0
  2  3  2  0
  2  4  1  0
  4  5  1  0
  5  6  1  0
  6  7  1  0
  7  8  1  0
  8  9  1  0
  8 10  2  0
  6 11  1  0
 11 12  1  0
 11 13  2  0
 13 14  1  0
 14 15  1  0
 15 16  1  0
 16 17  1  0
 17 18  1  0
 17 19  2  0
 15 20  1  0
 20 21  1  0
 20 22  1  0
 22 23  1  0
 23 24  1  1
 24 25  1  0
 25 26  1  0
 25 27  2  0
 23 28  1  0
 28 29  1  0
 29 30  1  0
 30 31  1  0
 30 32  2  0
 28 33  1  0
 33 34  1  0
 33 35  1  0
 35 36  2  0
 36 37  1  0
 37 38  1  0
 37 39  1  0
 37 40  1  0
 40 41  1  0
 41 42  1  0
 42 43  1  0
 42 44  2  0
 40  5  1  0
 23 14  1  0
  1 45  1  0
  1 46  1  0
  1 47  1  0
  5 48  1  6
  6 49  1  6
  9 50  1  0
  9 51  1  0
  9 52  1  0
 12 53  1  0
 12 54  1  0
 12 55  1  0
 13 56  1  0
 14 57  1  6
 15 58  1  6
 18 59  1  0
 18 60  1  0
 18 61  1  0
 20 62  1  6
 21 63  1  0
 21 64  1  0
 21 65  1  0
 22 66  1  0
 22 67  1  0
 26 68  1  0
 26 69  1  0
 26 70  1  0
 28 71  1  1
 31 72  1  0
 31 73  1  0
 31 74  1  0
 33 75  1  6
 34 76  1  0
 34 77  1  0
 34 78  1  0
 35 79  1  0
 36 80  1  0
 38 81  1  0
 38 82  1  0
 38 83  1  0
 39 84  1  0
 39 85  1  0
 39 86  1  0
 40 87  1  1
 43 88  1  0
 43 89  1  0
 43 90  1  0
M  END
$$$$
