
     RDKit          3D

 67 71  0  0  0  0  0  0  0  0999 V2000
    6.4889    1.3342   -0.7126 O   0  0  0  0  0  0  0  0  0  0  0  0
    7.2938    0.8658    0.0738 C   0  0  0  0  0  0  0  0  0  0  0  0
    8.7838    1.1000    0.0533 C   0  0  0  0  0  0  0  0  0  0  0  0
    9.3181   -0.0203    0.9388 C   0  0  0  0  0  0  0  0  0  0  0  0
    8.1905   -0.2859    1.9174 C   0  0  0  0  0  0  0  0  0  0  0  0
    7.0114    0.0620    1.1676 N   0  0  0  0  0  0  0  0  0  0  0  0
    5.6726   -0.3308    1.5677 C   0  0  0  0  0  0  0  0  0  0  0  0
    5.2730   -1.6618    0.9354 C   0  0  0  0  0  0  0  0  0  0  0  0
    3.9034   -2.1458    1.4025 C   0  0  0  0  0  0  0  0  0  0  0  0
    2.8279   -1.2881    0.9544 N   0  0  0  0  0  0  0  0  0  0  0  0
    2.3645   -1.1359   -0.3280 C   0  0  0  0  0  0  0  0  0  0  0  0
    2.6292   -2.1490   -1.4010 C   0  0  0  0  0  0  0  0  0  0  0  0
    2.1437   -1.9308   -2.6292 C   0  0  0  0  0  0  0  0  0  0  0  0
    1.3986   -0.7629   -2.8685 C   0  0  0  0  0  0  0  0  0  0  0  0
    0.7937   -0.2928   -3.9363 N   0  0  0  0  0  0  0  0  0  0  0  0
    0.2033    0.9028   -3.5889 N   0  0  0  0  0  0  0  0  0  0  0  0
    0.4617    1.1339   -2.3157 C   0  0  0  0  0  0  0  0  0  0  0  0
    0.0345    2.3050   -1.4996 C   0  0  0  0  0  0  0  0  0  0  0  0
   -1.1855    1.9823   -0.6360 C   0  0  0  0  0  0  0  0  0  0  0  0
   -2.5041    2.1508   -1.3750 C   0  0  0  0  0  0  0  0  0  0  0  0
   -2.5756    2.7831   -2.4282 O   0  0  0  0  0  0  0  0  0  0  0  0
   -3.6311    1.5851   -0.7832 N   0  0  0  0  0  0  0  0  0  0  0  0
   -3.7239    1.2522    0.6457 C   0  0  0  0  0  0  0  0  0  0  0  0
   -4.7666    0.1542    0.9285 C   0  0  0  0  0  0  0  0  0  0  0  0
   -6.0720    0.5190    0.3429 N   0  0  0  0  0  0  0  0  0  0  0  0
   -7.1890   -0.2565    0.6994 C   0  0  0  0  0  0  0  0  0  0  0  0
   -8.4777    0.2681    0.4980 C   0  0  0  0  0  0  0  0  0  0  0  0
   -9.6271   -0.4533    0.8356 C   0  0  0  0  0  0  0  0  0  0  0  0
   -9.5112   -1.7228    1.3893 C   0  0  0  0  0  0  0  0  0  0  0  0
   -8.2479   -2.2617    1.6102 C   0  0  0  0  0  0  0  0  0  0  0  0
   -7.1008   -1.5328    1.2728 C   0  0  0  0  0  0  0  0  0  0  0  0
   -5.9790    0.7584   -1.1208 C   0  0  0  0  0  0  0  0  0  0  0  0
   -4.9257    1.8376   -1.4298 C   0  0  0  0  0  0  0  0  0  0  0  0
    1.2180    0.1002   -1.8114 N   0  0  0  0  0  0  0  0  0  0  0  0
    1.6688   -0.0445   -0.5280 N   0  0  0  0  0  0  0  0  0  0  0  0
    9.1778    1.0330   -0.9635 H   0  0  0  0  0  0  0  0  0  0  0  0
    8.9933    2.0858    0.4797 H   0  0  0  0  0  0  0  0  0  0  0  0
   10.2592    0.2366    1.4329 H   0  0  0  0  0  0  0  0  0  0  0  0
    9.4940   -0.9139    0.3267 H   0  0  0  0  0  0  0  0  0  0  0  0
    8.1561   -1.3326    2.2320 H   0  0  0  0  0  0  0  0  0  0  0  0
    8.2468    0.3665    2.7948 H   0  0  0  0  0  0  0  0  0  0  0  0
    5.6426   -0.3842    2.6616 H   0  0  0  0  0  0  0  0  0  0  0  0
    4.9782    0.4546    1.2492 H   0  0  0  0  0  0  0  0  0  0  0  0
    6.0172   -2.4233    1.2007 H   0  0  0  0  0  0  0  0  0  0  0  0
    5.2998   -1.5732   -0.1573 H   0  0  0  0  0  0  0  0  0  0  0  0
    3.7352   -3.1710    1.0551 H   0  0  0  0  0  0  0  0  0  0  0  0
    3.8819   -2.1901    2.4977 H   0  0  0  0  0  0  0  0  0  0  0  0
    2.6699   -0.4535    1.5122 H   0  0  0  0  0  0  0  0  0  0  0  0
    3.2017   -3.0346   -1.1682 H   0  0  0  0  0  0  0  0  0  0  0  0
    2.3048   -2.6279   -3.4425 H   0  0  0  0  0  0  0  0  0  0  0  0
   -0.1494    3.1626   -2.1567 H   0  0  0  0  0  0  0  0  0  0  0  0
    0.8651    2.5985   -0.8447 H   0  0  0  0  0  0  0  0  0  0  0  0
   -1.2102    2.6792    0.2107 H   0  0  0  0  0  0  0  0  0  0  0  0
   -1.1080    0.9617   -0.2473 H   0  0  0  0  0  0  0  0  0  0  0  0
   -4.0004    2.1773    1.1660 H   0  0  0  0  0  0  0  0  0  0  0  0
   -2.7586    0.9356    1.0446 H   0  0  0  0  0  0  0  0  0  0  0  0
   -4.8519    0.0360    2.0155 H   0  0  0  0  0  0  0  0  0  0  0  0
   -4.4106   -0.7917    0.4994 H   0  0  0  0  0  0  0  0  0  0  0  0
   -8.5934    1.2700    0.0912 H   0  0  0  0  0  0  0  0  0  0  0  0
  -10.6079   -0.0163    0.6694 H   0  0  0  0  0  0  0  0  0  0  0  0
  -10.4010   -2.2877    1.6525 H   0  0  0  0  0  0  0  0  0  0  0  0
   -8.1488   -3.2528    2.0441 H   0  0  0  0  0  0  0  0  0  0  0  0
   -6.1389   -2.0010    1.4536 H   0  0  0  0  0  0  0  0  0  0  0  0
   -5.6982   -0.1772   -1.6229 H   0  0  0  0  0  0  0  0  0  0  0  0
   -6.9353    1.0881   -1.5434 H   0  0  0  0  0  0  0  0  0  0  0  0
   -5.2741    2.8137   -1.0700 H   0  0  0  0  0  0  0  0  0  0  0  0
   -4.7993    1.9128   -2.5153 H   0  0  0  0  0  0  0  0  0  0  0  0
  1  2  2  0
  2  3  1  0
  3  4  1  0
  4  5  1  0
  5  6  1  0
  6  7  1  0
  7  8  1  0
  8  9  1  0
  9 10  1  0
 10 11  1  0
 11 12  1  0
 12 13  2  0
 13 14  1  0
 14 15  2  0
 15 16  1  0
 16 17  2  0
 17 18  1  0
 18 19  1  0
 19 20  1  0
 20 21  2  0
 20 22  1  0
 22 23  1  0
 23 24  1  0
 24 25  1  0
 25 26  1  0
 26 27  2  0
 27 28  1  0
 28 29  2  0
 29 30  1  0
 30 31  2  0
 25 32  1  0
 32 33  1  0
 17 34  1  0
 34 35  1  0
  6  2  1  0
 35 11  2  0
 34 14  1  0
 33 22  1  0
 31 26  1  0
  3 36  1  0
  3 37  1  0
  4 38  1  0
  4 39  1  0
  5 40  1  0
  5 41  1  0
  7 42  1  0
  7 43  1  0
  8 44  1  0
  8 45  1  0
  9 46  1  0
  9 47  1  0
 10 48  1  0
 12 49  1  0
 13 50  1  0
 18 51  1  0
 18 52  1  0
 19 53  1  0
 19 54  1  0
 23 55  1  0
 23 56  1  0
 24 57  1  0
 24 58  1  0
 27 59  1  0
 28 60  1  0
 29 61  1  0
 30 62  1  0
 31 63  1  0
 32 64  1  0
 32 65  1  0
 33 66  1  0
 33 67  1  0
M  END
$$$$
