
     RDKit          3D

 47 50  0  0  0  0  0  0  0  0999 V2000
    6.4081   -0.8486    2.9630 C   0  0  0  0  0  0  0  0  0  0  0  0
    6.4395   -0.3416    1.7233 C   0  0  0  0  0  0  0  0  0  0  0  0
    5.9963   -1.0806    0.4904 C   0  0  0  0  0  0  0  0  0  0  0  0
    4.7248   -0.5312    0.0434 N   0  0  0  0  0  0  0  0  0  0  0  0
    4.7607    0.5520   -0.8093 C   0  0  0  0  0  0  0  0  0  0  0  0
    5.7957    1.1007   -1.1846 O   0  0  0  0  0  0  0  0  0  0  0  0
    3.5639    1.0366   -1.2407 N   0  0  0  0  0  0  0  0  0  0  0  0
    2.3232    0.7050   -0.7840 C   0  0  0  0  0  0  0  0  0  0  0  0
    1.3546    1.3827   -1.1012 O   0  0  0  0  0  0  0  0  0  0  0  0
    2.2857   -0.4802    0.0993 C   0  0  0  0  0  0  0  0  0  0  0  0
    1.1500   -1.0315    0.5742 C   0  0  0  0  0  0  0  0  0  0  0  0
   -0.2256   -0.5957    0.3236 C   0  0  0  0  0  0  0  0  0  0  0  0
   -0.9975   -1.2477   -0.6375 C   0  0  0  0  0  0  0  0  0  0  0  0
   -2.3296   -0.8627   -0.8698 C   0  0  0  0  0  0  0  0  0  0  0  0
   -2.9185    0.1741   -0.1147 C   0  0  0  0  0  0  0  0  0  0  0  0
   -2.1204    0.8410    0.8393 C   0  0  0  0  0  0  0  0  0  0  0  0
   -0.7902    0.4437    1.0618 C   0  0  0  0  0  0  0  0  0  0  0  0
   -2.6859    1.9580    1.6799 C   0  0  0  0  0  0  0  0  0  0  0  0
   -3.9644    2.5275    1.0848 C   0  0  0  0  0  0  0  0  0  0  0  0
   -4.8832    1.3864    0.6813 C   0  0  0  0  0  0  0  0  0  0  0  0
   -4.2437    0.5716   -0.3491 N   0  0  0  0  0  0  0  0  0  0  0  0
   -5.0995   -0.3668   -1.0712 C   0  0  0  0  0  0  0  0  0  0  0  0
   -4.3842   -0.8696   -2.3140 C   0  0  0  0  0  0  0  0  0  0  0  0
   -3.1266   -1.6195   -1.9025 C   0  0  0  0  0  0  0  0  0  0  0  0
    3.5631   -1.1362    0.5001 C   0  0  0  0  0  0  0  0  0  0  0  0
    3.5632   -2.1548    1.1918 O   0  0  0  0  0  0  0  0  0  0  0  0
    6.7540   -0.2671    3.8122 H   0  0  0  0  0  0  0  0  0  0  0  0
    6.0279   -1.8475    3.1604 H   0  0  0  0  0  0  0  0  0  0  0  0
    6.8301    0.6631    1.5720 H   0  0  0  0  0  0  0  0  0  0  0  0
    6.7569   -0.9675   -0.2906 H   0  0  0  0  0  0  0  0  0  0  0  0
    5.9009   -2.1544    0.6878 H   0  0  0  0  0  0  0  0  0  0  0  0
    3.6085    1.8631   -1.8199 H   0  0  0  0  0  0  0  0  0  0  0  0
    1.1947   -1.9125    1.2148 H   0  0  0  0  0  0  0  0  0  0  0  0
   -0.5690   -2.0633   -1.2155 H   0  0  0  0  0  0  0  0  0  0  0  0
   -0.1974    0.9592    1.8138 H   0  0  0  0  0  0  0  0  0  0  0  0
   -2.8905    1.5632    2.6829 H   0  0  0  0  0  0  0  0  0  0  0  0
   -1.9501    2.7645    1.7819 H   0  0  0  0  0  0  0  0  0  0  0  0
   -4.4581    3.1805    1.8128 H   0  0  0  0  0  0  0  0  0  0  0  0
   -3.7256    3.1403    0.2057 H   0  0  0  0  0  0  0  0  0  0  0  0
   -5.8167    1.8082    0.2905 H   0  0  0  0  0  0  0  0  0  0  0  0
   -5.1440    0.7666    1.5487 H   0  0  0  0  0  0  0  0  0  0  0  0
   -5.3852   -1.2011   -0.4178 H   0  0  0  0  0  0  0  0  0  0  0  0
   -6.0235    0.1377   -1.3773 H   0  0  0  0  0  0  0  0  0  0  0  0
   -5.0392   -1.5274   -2.8957 H   0  0  0  0  0  0  0  0  0  0  0  0
   -4.1182   -0.0212   -2.9579 H   0  0  0  0  0  0  0  0  0  0  0  0
   -2.5138   -1.8034   -2.7929 H   0  0  0  0  0  0  0  0  0  0  0  0
   -3.4008   -2.5935   -1.4783 H   0  0  0  0  0  0  0  0  0  0  0  0
  1  2  2  0
  2  3  1  0
  3  4  1  0
  4  5  1  0
  5  6  2  0
  5  7  1  0
  7  8  1  0
  8  9  2  0
  8 10  1  0
 10 11  2  3
 11 12  1  0
 12 13  2  0
 13 14  1  0
 14 15  2  0
 15 16  1  0
 16 17  2  0
 16 18  1  0
 18 19  1  0
 19 20  1  0
 20 21  1  0
 21 22  1  0
 22 23  1  0
 23 24  1  0
 10 25  1  0
 25 26  2  0
 25  4  1  0
 17 12  1  0
 24 14  1  0
 21 15  1  0
  1 27  1  0
  1 28  1  0
  2 29  1  0
  3 30  1  0
  3 31  1  0
  7 32  1  0
 11 33  1  0
 13 34  1  0
 17 35  1  0
 18 36  1  0
 18 37  1  0
 19 38  1  0
 19 39  1  0
 20 40  1  0
 20 41  1  0
 22 42  1  0
 22 43  1  0
 23 44  1  0
 23 45  1  0
 24 46  1  0
 24 47  1  0
M  END
$$$$
