
     RDKit          3D

 50 53  0  0  0  0  0  0  0  0999 V2000
    7.4973    1.2150   -2.0134 C   0  0  0  0  0  0  0  0  0  0  0  0
    6.3224    0.5986   -1.3209 C   0  0  0  0  0  0  0  0  0  0  0  0
    5.0216    0.9198   -1.7031 C   0  0  0  0  0  0  0  0  0  0  0  0
    3.9231    0.4053   -1.1000 N   0  0  0  0  0  0  0  0  0  0  0  0
    4.1864   -0.4598   -0.0785 C   0  0  0  0  0  0  0  0  0  0  0  0
    3.0164   -1.0570    0.6237 C   0  0  0  0  0  0  0  0  0  0  0  0
    3.1579   -1.8033    1.5847 O   0  0  0  0  0  0  0  0  0  0  0  0
    1.7944   -0.6901    0.1049 N   0  0  0  0  0  0  0  0  0  0  0  0
    0.5450   -1.0441    0.7391 C   0  0  0  0  0  0  0  0  0  0  0  0
    0.2559   -0.1055    1.9348 C   0  0  0  0  0  0  0  0  0  0  0  0
   -1.2380   -0.0848    2.3744 C   0  0  0  0  0  0  0  0  0  0  0  0
   -1.4006    0.9231    3.5278 C   0  0  0  0  0  0  0  0  0  0  0  0
   -1.6692   -1.4720    2.8935 C   0  0  0  0  0  0  0  0  0  0  0  0
   -2.1480    0.3624    1.1865 C   0  0  0  0  0  0  0  0  0  0  0  0
   -1.7474   -0.3072   -0.0868 C   0  0  0  0  0  0  0  0  0  0  0  0
   -0.5387   -0.9531   -0.2785 C   0  0  0  0  0  0  0  0  0  0  0  0
   -0.6475   -1.5406   -1.5428 C   0  0  0  0  0  0  0  0  0  0  0  0
   -1.8101   -1.2688   -2.1293 N   0  0  0  0  0  0  0  0  0  0  0  0
   -2.4776   -0.4516   -1.2612 N   0  0  0  0  0  0  0  0  0  0  0  0
   -3.7385    0.0941   -1.6592 C   0  0  0  0  0  0  0  0  0  0  0  0
   -4.3542   -0.4075   -2.8213 C   0  0  0  0  0  0  0  0  0  0  0  0
   -5.5859    0.0919   -3.2533 C   0  0  0  0  0  0  0  0  0  0  0  0
   -6.2145    1.1060   -2.5378 C   0  0  0  0  0  0  0  0  0  0  0  0
   -5.6084    1.6242   -1.3957 C   0  0  0  0  0  0  0  0  0  0  0  0
   -4.3751    1.1250   -0.9581 C   0  0  0  0  0  0  0  0  0  0  0  0
    5.4748   -0.7809    0.3154 C   0  0  0  0  0  0  0  0  0  0  0  0
    6.5680   -0.2559   -0.2953 N   0  0  0  0  0  0  0  0  0  0  0  0
    7.3859    1.1394   -3.0997 H   0  0  0  0  0  0  0  0  0  0  0  0
    8.4241    0.7032   -1.7342 H   0  0  0  0  0  0  0  0  0  0  0  0
    7.5874    2.2689   -1.7323 H   0  0  0  0  0  0  0  0  0  0  0  0
    4.8261    1.6097   -2.5180 H   0  0  0  0  0  0  0  0  0  0  0  0
    1.8076    0.0148   -0.6278 H   0  0  0  0  0  0  0  0  0  0  0  0
    0.6169   -2.0776    1.0997 H   0  0  0  0  0  0  0  0  0  0  0  0
    0.8983   -0.3884    2.7789 H   0  0  0  0  0  0  0  0  0  0  0  0
    0.5518    0.9194    1.6674 H   0  0  0  0  0  0  0  0  0  0  0  0
   -0.7889    0.6389    4.3919 H   0  0  0  0  0  0  0  0  0  0  0  0
   -1.0925    1.9292    3.2220 H   0  0  0  0  0  0  0  0  0  0  0  0
   -2.4435    0.9802    3.8592 H   0  0  0  0  0  0  0  0  0  0  0  0
   -1.0298   -1.7922    3.7247 H   0  0  0  0  0  0  0  0  0  0  0  0
   -2.7019   -1.4488    3.2602 H   0  0  0  0  0  0  0  0  0  0  0  0
   -1.6175   -2.2439    2.1195 H   0  0  0  0  0  0  0  0  0  0  0  0
   -3.1929    0.1447    1.4331 H   0  0  0  0  0  0  0  0  0  0  0  0
   -2.0432    1.4457    1.0474 H   0  0  0  0  0  0  0  0  0  0  0  0
    0.0658   -2.1717   -2.0574 H   0  0  0  0  0  0  0  0  0  0  0  0
   -3.8866   -1.2015   -3.4030 H   0  0  0  0  0  0  0  0  0  0  0  0
   -6.0484   -0.3129   -4.1502 H   0  0  0  0  0  0  0  0  0  0  0  0
   -7.1701    1.4985   -2.8755 H   0  0  0  0  0  0  0  0  0  0  0  0
   -6.0910    2.4299   -0.8474 H   0  0  0  0  0  0  0  0  0  0  0  0
   -3.9373    1.5994   -0.0904 H   0  0  0  0  0  0  0  0  0  0  0  0
    5.6703   -1.4681    1.1317 H   0  0  0  0  0  0  0  0  0  0  0  0
  1  2  1  0
  2  3  2  0
  3  4  1  0
  4  5  2  0
  5  6  1  0
  6  7  2  0
  6  8  1  0
  8  9  1  0
  9 10  1  0
 10 11  1  0
 11 12  1  0
 11 13  1  0
 11 14  1  0
 14 15  1  0
 15 16  2  0
 16 17  1  0
 17 18  2  0
 18 19  1  0
 19 20  1  0
 20 21  2  0
 21 22  1  0
 22 23  2  0
 23 24  1  0
 24 25  2  0
  5 26  1  0
 26 27  2  0
 27  2  1  0
 16  9  1  0
 25 20  1  0
 19 15  1  0
  1 28  1  0
  1 29  1  0
  1 30  1  0
  3 31  1  0
  8 32  1  0
  9 33  1  0
 10 34  1  0
 10 35  1  0
 12 36  1  0
 12 37  1  0
 12 38  1  0
 13 39  1  0
 13 40  1  0
 13 41  1  0
 14 42  1  0
 14 43  1  0
 17 44  1  0
 21 45  1  0
 22 46  1  0
 23 47  1  0
 24 48  1  0
 25 49  1  0
 26 50  1  0
M  END
$$$$
