
     RDKit          3D

 55 57  0  0  0  0  0  0  0  0999 V2000
   -2.8777   -4.1517    2.3457 C   0  0  0  0  0  0  0  0  0  0  0  0
   -1.9435   -3.5400    1.3204 C   0  0  0  0  0  0  0  0  0  0  0  0
   -2.0788   -2.1221    1.3846 O   0  0  0  0  0  0  0  0  0  0  0  0
   -1.2733   -1.4587    0.4044 C   0  0  0  0  0  0  0  0  0  0  0  0
    0.1151   -1.6600    0.6925 O   0  0  0  0  0  0  0  0  0  0  0  0
    0.9797   -0.9048   -0.0703 C   0  0  0  0  0  0  0  0  0  0  0  0
    2.3935   -1.4051   -0.1857 C   0  0  0  0  0  0  0  0  0  0  0  0
    2.5971   -2.5885   -0.4281 O   0  0  0  0  0  0  0  0  0  0  0  0
    3.3323   -0.4166    0.0391 N   0  0  0  0  0  0  0  0  0  0  0  0
    4.7356   -0.5383   -0.0107 C   0  0  0  0  0  0  0  0  0  0  0  0
    5.4060   -1.7148   -0.3490 C   0  0  0  0  0  0  0  0  0  0  0  0
    6.8040   -1.7502   -0.3790 C   0  0  0  0  0  0  0  0  0  0  0  0
    7.5428   -0.6100   -0.0725 C   0  0  0  0  0  0  0  0  0  0  0  0
    6.8842    0.5691    0.2641 C   0  0  0  0  0  0  0  0  0  0  0  0
    5.4875    0.6044    0.2946 C   0  0  0  0  0  0  0  0  0  0  0  0
    0.6028    0.1921   -0.7483 C   0  0  0  0  0  0  0  0  0  0  0  0
   -0.7941    0.7501   -0.6669 C   0  0  0  0  0  0  0  0  0  0  0  0
   -0.7619    2.2635   -0.5040 C   0  0  0  0  0  0  0  0  0  0  0  0
   -0.2444    2.8685    0.6534 C   0  0  0  0  0  0  0  0  0  0  0  0
   -0.2184    4.2585    0.7797 C   0  0  0  0  0  0  0  0  0  0  0  0
   -0.7034    5.0622   -0.2491 C   0  0  0  0  0  0  0  0  0  0  0  0
   -1.2136    4.4776   -1.4058 C   0  0  0  0  0  0  0  0  0  0  0  0
   -1.2419    3.0877   -1.5341 C   0  0  0  0  0  0  0  0  0  0  0  0
   -1.6184    0.0425    0.4369 C   0  0  0  0  0  0  0  0  0  0  0  0
   -3.1356    0.3385    0.3647 C   0  0  0  0  0  0  0  0  0  0  0  0
   -3.8503   -0.1826   -0.8828 C   0  0  0  0  0  0  0  0  0  0  0  0
   -5.3476    0.1001   -0.8220 C   0  0  0  0  0  0  0  0  0  0  0  0
   -5.9732   -0.3874   -2.0016 O   0  0  0  0  0  0  0  0  0  0  0  0
   -2.6326   -3.7954    3.3516 H   0  0  0  0  0  0  0  0  0  0  0  0
   -2.8122   -5.2433    2.3318 H   0  0  0  0  0  0  0  0  0  0  0  0
   -3.9136   -3.8568    2.1475 H   0  0  0  0  0  0  0  0  0  0  0  0
   -0.9116   -3.8308    1.5433 H   0  0  0  0  0  0  0  0  0  0  0  0
   -2.2105   -3.8951    0.3191 H   0  0  0  0  0  0  0  0  0  0  0  0
   -1.4963   -1.8852   -0.5834 H   0  0  0  0  0  0  0  0  0  0  0  0
    2.9778    0.4914    0.3098 H   0  0  0  0  0  0  0  0  0  0  0  0
    4.8708   -2.6264   -0.5951 H   0  0  0  0  0  0  0  0  0  0  0  0
    7.3124   -2.6744   -0.6423 H   0  0  0  0  0  0  0  0  0  0  0  0
    8.6288   -0.6424   -0.0965 H   0  0  0  0  0  0  0  0  0  0  0  0
    7.4563    1.4614    0.5036 H   0  0  0  0  0  0  0  0  0  0  0  0
    4.9991    1.5377    0.5613 H   0  0  0  0  0  0  0  0  0  0  0  0
    1.3044    0.7091   -1.3999 H   0  0  0  0  0  0  0  0  0  0  0  0
   -1.2470    0.5221   -1.6405 H   0  0  0  0  0  0  0  0  0  0  0  0
    0.1425    2.2627    1.4700 H   0  0  0  0  0  0  0  0  0  0  0  0
    0.1795    4.7145    1.6828 H   0  0  0  0  0  0  0  0  0  0  0  0
   -0.6834    6.1444   -0.1497 H   0  0  0  0  0  0  0  0  0  0  0  0
   -1.5898    5.1054   -2.2096 H   0  0  0  0  0  0  0  0  0  0  0  0
   -1.6429    2.6549   -2.4481 H   0  0  0  0  0  0  0  0  0  0  0  0
   -1.2931    0.4144    1.4200 H   0  0  0  0  0  0  0  0  0  0  0  0
   -3.2944    1.4216    0.4393 H   0  0  0  0  0  0  0  0  0  0  0  0
   -3.6186   -0.0896    1.2525 H   0  0  0  0  0  0  0  0  0  0  0  0
   -3.4401    0.2781   -1.7879 H   0  0  0  0  0  0  0  0  0  0  0  0
   -3.7017   -1.2622   -0.9969 H   0  0  0  0  0  0  0  0  0  0  0  0
   -5.8042   -0.4046    0.0351 H   0  0  0  0  0  0  0  0  0  0  0  0
   -5.5503    1.1727   -0.7380 H   0  0  0  0  0  0  0  0  0  0  0  0
   -5.6341    0.1318   -2.7502 H   0  0  0  0  0  0  0  0  0  0  0  0
  1  2  1  0
  2  3  1  0
  3  4  1  0
  4  5  1  0
  5  6  1  0
  6  7  1  0
  7  8  2  0
  7  9  1  0
  9 10  1  0
 10 11  2  0
 11 12  1  0
 12 13  2  0
 13 14  1  0
 14 15  2  0
  6 16  2  0
 16 17  1  0
 17 18  1  0
 18 19  2  0
 19 20  1  0
 20 21  2  0
 21 22  1  0
 22 23  2  0
 17 24  1  0
 24 25  1  0
 25 26  1  0
 26 27  1  0
 27 28  1  0
 24  4  1  0
 15 10  1  0
 23 18  1  0
  1 29  1  0
  1 30  1  0
  1 31  1  0
  2 32  1  0
  2 33  1  0
  4 34  1  0
  9 35  1  0
 11 36  1  0
 12 37  1  0
 13 38  1  0
 14 39  1  0
 15 40  1  0
 16 41  1  0
 17 42  1  0
 19 43  1  0
 20 44  1  0
 21 45  1  0
 22 46  1  0
 23 47  1  0
 24 48  1  0
 25 49  1  0
 25 50  1  0
 26 51  1  0
 26 52  1  0
 27 53  1  0
 27 54  1  0
 28 55  1  0
M  END
$$$$
