
     RDKit          3D

 42 44  0  0  0  0  0  0  0  0999 V2000
    1.8052    2.1979    2.3589 C   0  0  0  0  0  0  0  0  0  0  0  0
    2.1565    0.9569    1.7619 O   0  0  0  0  0  0  0  0  0  0  0  0
    1.1720    0.2565    1.1172 C   0  0  0  0  0  0  0  0  0  0  0  0
   -0.1774    0.6398    1.0525 C   0  0  0  0  0  0  0  0  0  0  0  0
   -1.1628   -0.1073    0.3671 C   0  0  0  0  0  0  0  0  0  0  0  0
   -2.4776    0.3319    0.3590 N   0  0  0  0  0  0  0  0  0  0  0  0
   -3.5692   -0.3431   -0.3417 C   0  0  0  0  0  0  0  0  0  0  0  0
   -4.7825    0.5381   -0.0568 C   0  0  0  0  0  0  0  0  0  0  0  0
   -4.5141    1.0237    1.3541 C   0  0  0  0  0  0  0  0  0  0  0  0
   -3.0064    1.2654    1.3585 C   0  0  0  0  0  0  0  0  0  0  0  0
   -0.6951   -1.2570   -0.3053 C   0  0  0  0  0  0  0  0  0  0  0  0
   -1.5561   -2.0570   -1.0233 O   0  0  0  0  0  0  0  0  0  0  0  0
   -1.2291   -2.0419   -2.4148 C   0  0  0  0  0  0  0  0  0  0  0  0
    0.6430   -1.6743   -0.2143 C   0  0  0  0  0  0  0  0  0  0  0  0
    1.5869   -0.9242    0.4926 C   0  0  0  0  0  0  0  0  0  0  0  0
    3.0267   -1.3774    0.5312 C   0  0  0  0  0  0  0  0  0  0  0  0
    3.8974   -0.5848   -0.3795 C   0  0  0  0  0  0  0  0  0  0  0  0
    4.8506    0.2386   -0.0606 N   0  0  0  0  0  0  0  0  0  0  0  0
    5.3357    0.7361   -1.2525 C   0  0  0  0  0  0  0  0  0  0  0  0
    6.5739    1.8268   -1.4560 S   0  0  0  0  0  0  0  0  0  0  0  0
    4.6679    0.2138   -2.3126 N   0  0  0  0  0  0  0  0  0  0  0  0
    3.7560   -0.6733   -1.8776 C   0  0  0  0  0  0  0  0  0  0  0  0
    3.0262   -1.4169   -2.4890 O   0  0  0  0  0  0  0  0  0  0  0  0
    1.0823    2.0546    3.1687 H   0  0  0  0  0  0  0  0  0  0  0  0
    2.7123    2.6268    2.7955 H   0  0  0  0  0  0  0  0  0  0  0  0
    1.4300    2.9045    1.6113 H   0  0  0  0  0  0  0  0  0  0  0  0
   -0.4828    1.5594    1.5376 H   0  0  0  0  0  0  0  0  0  0  0  0
   -3.4032   -0.4004   -1.4215 H   0  0  0  0  0  0  0  0  0  0  0  0
   -3.7355   -1.3449    0.0711 H   0  0  0  0  0  0  0  0  0  0  0  0
   -4.8043    1.3885   -0.7491 H   0  0  0  0  0  0  0  0  0  0  0  0
   -5.7265   -0.0059   -0.1489 H   0  0  0  0  0  0  0  0  0  0  0  0
   -4.7698    0.2374    2.0749 H   0  0  0  0  0  0  0  0  0  0  0  0
   -5.0826    1.9213    1.6129 H   0  0  0  0  0  0  0  0  0  0  0  0
   -2.6092    1.0870    2.3640 H   0  0  0  0  0  0  0  0  0  0  0  0
   -2.7825    2.2952    1.0578 H   0  0  0  0  0  0  0  0  0  0  0  0
   -0.3860   -2.7076   -2.6245 H   0  0  0  0  0  0  0  0  0  0  0  0
   -2.0974   -2.4190   -2.9637 H   0  0  0  0  0  0  0  0  0  0  0  0
   -1.0178   -1.0280   -2.7739 H   0  0  0  0  0  0  0  0  0  0  0  0
    0.9451   -2.5958   -0.7070 H   0  0  0  0  0  0  0  0  0  0  0  0
    3.4123   -1.3088    1.5553 H   0  0  0  0  0  0  0  0  0  0  0  0
    3.1063   -2.4337    0.2478 H   0  0  0  0  0  0  0  0  0  0  0  0
    4.8814    0.4014   -3.2773 H   0  0  0  0  0  0  0  0  0  0  0  0
  1  2  1  0
  2  3  1  0
  3  4  2  0
  4  5  1  0
  5  6  1  0
  6  7  1  0
  7  8  1  0
  8  9  1  0
  9 10  1  0
  5 11  2  0
 11 12  1  0
 12 13  1  0
 11 14  1  0
 14 15  2  0
 15 16  1  0
 16 17  1  0
 17 18  2  0
 18 19  1  0
 19 20  2  0
 19 21  1  0
 21 22  1  0
 22 23  2  0
 15  3  1  0
 22 17  1  0
 10  6  1  0
  1 24  1  0
  1 25  1  0
  1 26  1  0
  4 27  1  0
  7 28  1  0
  7 29  1  0
  8 30  1  0
  8 31  1  0
  9 32  1  0
  9 33  1  0
 10 34  1  0
 10 35  1  0
 13 36  1  0
 13 37  1  0
 13 38  1  0
 14 39  1  0
 16 40  1  0
 16 41  1  0
 21 42  1  0
M  END
$$$$
