
     RDKit          3D

 44 47  0  0  0  0  0  0  0  0999 V2000
   -6.7262   -1.0356   -2.0381 C   0  0  0  0  0  0  0  0  0  0  0  0
   -5.7547   -0.0034   -2.1505 O   0  0  0  0  0  0  0  0  0  0  0  0
   -4.6542   -0.1002   -1.3448 C   0  0  0  0  0  0  0  0  0  0  0  0
   -4.3968   -1.1136   -0.4231 C   0  0  0  0  0  0  0  0  0  0  0  0
   -3.2242   -1.0904    0.3419 C   0  0  0  0  0  0  0  0  0  0  0  0
   -2.2893   -0.0550    0.1970 C   0  0  0  0  0  0  0  0  0  0  0  0
   -1.0271   -0.0447    1.0453 C   0  0  0  0  0  0  0  0  0  0  0  0
    0.2278    0.0219    0.2034 C   0  0  0  0  0  0  0  0  0  0  0  0
    1.3171    0.7244    0.5630 C   0  0  0  0  0  0  0  0  0  0  0  0
    2.4956    0.7411   -0.3241 C   0  0  0  0  0  0  0  0  0  0  0  0
    2.5566    1.7396   -1.2972 C   0  0  0  0  0  0  0  0  0  0  0  0
    3.6499    1.7658   -2.1371 C   0  0  0  0  0  0  0  0  0  0  0  0
    4.6646    0.8805   -2.0742 N   0  0  0  0  0  0  0  0  0  0  0  0
    4.6092   -0.0870   -1.1461 C   0  0  0  0  0  0  0  0  0  0  0  0
    5.6537   -1.0007   -1.0891 C   0  0  0  0  0  0  0  0  0  0  0  0
    5.6756   -2.0413   -0.1572 C   0  0  0  0  0  0  0  0  0  0  0  0
    4.6271   -2.1727    0.7408 C   0  0  0  0  0  0  0  0  0  0  0  0
    4.6368   -3.4498    1.8916 Cl  0  0  0  0  0  0  0  0  0  0  0  0
    3.5659   -1.2720    0.7105 C   0  0  0  0  0  0  0  0  0  0  0  0
    3.5387   -0.2141   -0.2317 C   0  0  0  0  0  0  0  0  0  0  0  0
    1.4342    1.4969    1.8490 C   0  0  0  0  0  0  0  0  0  0  0  0
    0.2469    1.2266    2.7567 C   0  0  0  0  0  0  0  0  0  0  0  0
    0.3576    1.2293    3.9831 O   0  0  0  0  0  0  0  0  0  0  0  0
   -1.0966    1.0752    2.0887 C   0  0  0  0  0  0  0  0  0  0  0  0
   -2.5586    0.9613   -0.7312 C   0  0  0  0  0  0  0  0  0  0  0  0
   -3.7295    0.9346   -1.4929 C   0  0  0  0  0  0  0  0  0  0  0  0
   -7.1596   -1.0620   -1.0328 H   0  0  0  0  0  0  0  0  0  0  0  0
   -6.3033   -2.0075   -2.3129 H   0  0  0  0  0  0  0  0  0  0  0  0
   -7.5335   -0.8129   -2.7425 H   0  0  0  0  0  0  0  0  0  0  0  0
   -5.0861   -1.9376   -0.2723 H   0  0  0  0  0  0  0  0  0  0  0  0
   -3.0504   -1.8940    1.0552 H   0  0  0  0  0  0  0  0  0  0  0  0
   -0.9666   -1.0032    1.5809 H   0  0  0  0  0  0  0  0  0  0  0  0
    0.2249   -0.5487   -0.7258 H   0  0  0  0  0  0  0  0  0  0  0  0
    1.7719    2.4808   -1.4040 H   0  0  0  0  0  0  0  0  0  0  0  0
    3.7448    2.5229   -2.9106 H   0  0  0  0  0  0  0  0  0  0  0  0
    6.4766   -0.8998   -1.7940 H   0  0  0  0  0  0  0  0  0  0  0  0
    6.5102   -2.7368   -0.1445 H   0  0  0  0  0  0  0  0  0  0  0  0
    2.7543   -1.3953    1.4234 H   0  0  0  0  0  0  0  0  0  0  0  0
    2.3419    1.2036    2.3882 H   0  0  0  0  0  0  0  0  0  0  0  0
    1.4710    2.5731    1.6492 H   0  0  0  0  0  0  0  0  0  0  0  0
   -1.3586    2.0461    1.6510 H   0  0  0  0  0  0  0  0  0  0  0  0
   -1.8541    0.8435    2.8467 H   0  0  0  0  0  0  0  0  0  0  0  0
   -1.8600    1.7825   -0.8738 H   0  0  0  0  0  0  0  0  0  0  0  0
   -3.9235    1.7288   -2.2099 H   0  0  0  0  0  0  0  0  0  0  0  0
  1  2  1  0
  2  3  1  0
  3  4  2  0
  4  5  1  0
  5  6  2  0
  6  7  1  0
  7  8  1  0
  8  9  2  0
  9 10  1  0
 10 11  2  0
 11 12  1  0
 12 13  2  0
 13 14  1  0
 14 15  2  0
 15 16  1  0
 16 17  2  0
 17 18  1  0
 17 19  1  0
 19 20  2  0
  9 21  1  0
 21 22  1  0
 22 23  2  0
 22 24  1  0
  6 25  1  0
 25 26  2  0
 26  3  1  0
 24  7  1  0
 20 10  1  0
 20 14  1  0
  1 27  1  0
  1 28  1  0
  1 29  1  0
  4 30  1  0
  5 31  1  0
  7 32  1  0
  8 33  1  0
 11 34  1  0
 12 35  1  0
 15 36  1  0
 16 37  1  0
 19 38  1  0
 21 39  1  0
 21 40  1  0
 24 41  1  0
 24 42  1  0
 25 43  1  0
 26 44  1  0
M  END
$$$$
