
     RDKit          3D

 41 42  0  0  0  0  0  0  0  0999 V2000
   -0.0970    1.7921    1.9536 O   0  0  0  0  0  0  0  0  0  0  0  0
   -0.5379    0.7689    1.0450 C   0  0  0  0  0  0  0  0  0  0  0  0
    0.3588    0.8033   -0.1969 C   0  0  0  0  0  0  0  0  0  0  0  0
    1.7155    0.6286    0.2425 O   0  0  0  0  0  0  0  0  0  0  0  0
    2.6250    0.6680   -0.8566 C   0  0  0  0  0  0  0  0  0  0  0  0
    4.0259    0.4647   -0.3373 C   0  0  0  0  0  0  0  0  0  0  0  0
    5.0428    1.3814   -0.6413 C   0  0  0  0  0  0  0  0  0  0  0  0
    6.3441    1.1776   -0.1738 C   0  0  0  0  0  0  0  0  0  0  0  0
    6.6362    0.0543    0.5967 C   0  0  0  0  0  0  0  0  0  0  0  0
    8.2393   -0.1956    1.1705 Cl  0  0  0  0  0  0  0  0  0  0  0  0
    5.6392   -0.8681    0.9038 C   0  0  0  0  0  0  0  0  0  0  0  0
    4.3389   -0.6640    0.4363 C   0  0  0  0  0  0  0  0  0  0  0  0
   -2.0210    1.0111    0.7047 C   0  0  0  0  0  0  0  0  0  0  0  0
   -2.6193    0.0332   -0.2244 N   0  0  0  0  0  0  0  0  0  0  0  0
   -2.6099   -1.3277    0.3423 C   0  0  0  0  0  0  0  0  0  0  0  0
   -3.6316   -2.2460   -0.3254 C   0  0  0  0  0  0  0  0  0  0  0  0
   -5.0559   -1.7344   -0.1175 C   0  0  0  0  0  0  0  0  0  0  0  0
   -5.1051   -0.2181    0.0608 C   0  0  0  0  0  0  0  0  0  0  0  0
   -3.9545    0.4657   -0.6740 C   0  0  0  0  0  0  0  0  0  0  0  0
    0.8766    1.6956    1.9823 H   0  0  0  0  0  0  0  0  0  0  0  0
   -0.4064   -0.1806    1.5753 H   0  0  0  0  0  0  0  0  0  0  0  0
    0.2774    1.7755   -0.6965 H   0  0  0  0  0  0  0  0  0  0  0  0
    0.0970    0.0037   -0.8975 H   0  0  0  0  0  0  0  0  0  0  0  0
    2.3877   -0.1268   -1.5743 H   0  0  0  0  0  0  0  0  0  0  0  0
    2.5379    1.6373   -1.3620 H   0  0  0  0  0  0  0  0  0  0  0  0
    4.8293    2.2636   -1.2409 H   0  0  0  0  0  0  0  0  0  0  0  0
    7.1220    1.8975   -0.4129 H   0  0  0  0  0  0  0  0  0  0  0  0
    5.8644   -1.7441    1.5059 H   0  0  0  0  0  0  0  0  0  0  0  0
    3.5619   -1.3850    0.6836 H   0  0  0  0  0  0  0  0  0  0  0  0
   -2.6009    1.0633    1.6364 H   0  0  0  0  0  0  0  0  0  0  0  0
   -2.0880    2.0165    0.2666 H   0  0  0  0  0  0  0  0  0  0  0  0
   -2.8185   -1.3065    1.4203 H   0  0  0  0  0  0  0  0  0  0  0  0
   -1.6121   -1.7617    0.2128 H   0  0  0  0  0  0  0  0  0  0  0  0
   -3.5441   -3.2641    0.0705 H   0  0  0  0  0  0  0  0  0  0  0  0
   -3.4168   -2.3116   -1.3999 H   0  0  0  0  0  0  0  0  0  0  0  0
   -5.5033   -2.2108    0.7631 H   0  0  0  0  0  0  0  0  0  0  0  0
   -5.6702   -2.0337   -0.9751 H   0  0  0  0  0  0  0  0  0  0  0  0
   -5.0547    0.0290    1.1289 H   0  0  0  0  0  0  0  0  0  0  0  0
   -6.0670    0.1630   -0.3009 H   0  0  0  0  0  0  0  0  0  0  0  0
   -4.0348    0.2304   -1.7433 H   0  0  0  0  0  0  0  0  0  0  0  0
   -4.0709    1.5545   -0.6098 H   0  0  0  0  0  0  0  0  0  0  0  0
  1  2  1  0
  2  3  1  0
  3  4  1  0
  4  5  1  0
  5  6  1  0
  6  7  2  0
  7  8  1  0
  8  9  2  0
  9 10  1  0
  9 11  1  0
 11 12  2  0
  2 13  1  0
 13 14  1  0
 14 15  1  0
 15 16  1  0
 16 17  1  0
 17 18  1  0
 18 19  1  0
 12  6  1  0
 19 14  1  0
  1 20  1  0
  2 21  1  0
  3 22  1  0
  3 23  1  0
  5 24  1  0
  5 25  1  0
  7 26  1  0
  8 27  1  0
 11 28  1  0
 12 29  1  0
 13 30  1  0
 13 31  1  0
 15 32  1  0
 15 33  1  0
 16 34  1  0
 16 35  1  0
 17 36  1  0
 17 37  1  0
 18 38  1  0
 18 39  1  0
 19 40  1  0
 19 41  1  0
M  END
$$$$
