
     RDKit          3D

 55 57  0  0  0  0  0  0  0  0999 V2000
    5.8576   -0.2458   -3.3927 C   0  0  0  0  0  0  0  0  0  0  0  0
    5.6982    0.9000   -2.5646 O   0  0  0  0  0  0  0  0  0  0  0  0
    4.4728    1.0742   -1.9833 C   0  0  0  0  0  0  0  0  0  0  0  0
    4.3455    2.2418   -1.2324 C   0  0  0  0  0  0  0  0  0  0  0  0
    3.1473    2.5429   -0.5807 C   0  0  0  0  0  0  0  0  0  0  0  0
    2.0464    1.6752   -0.6657 C   0  0  0  0  0  0  0  0  0  0  0  0
    0.7575    2.0180    0.0768 C   0  0  0  0  0  0  0  0  0  0  0  0
   -0.6308    2.1792   -1.1238 S   0  0  0  0  0  0  0  0  0  0  0  0
   -2.0250    2.1649   -0.0081 C   0  0  0  0  0  0  0  0  0  0  0  0
   -2.8293    3.3141   -0.0004 C   0  0  0  0  0  0  0  0  0  0  0  0
   -3.9944    3.3623    0.7625 C   0  0  0  0  0  0  0  0  0  0  0  0
   -4.3777    2.2533    1.5074 C   0  0  0  0  0  0  0  0  0  0  0  0
   -3.5956    1.0980    1.4940 C   0  0  0  0  0  0  0  0  0  0  0  0
   -2.4049    1.0355    0.7489 C   0  0  0  0  0  0  0  0  0  0  0  0
   -1.6249   -0.1630    0.7939 N   0  0  0  0  0  0  0  0  0  0  0  0
   -2.3012   -1.4483    0.5601 C   0  0  0  0  0  0  0  0  0  0  0  0
   -2.3709   -1.7908   -0.9461 C   0  0  0  0  0  0  0  0  0  0  0  0
   -2.9066   -3.1134   -1.3203 N   0  0  0  0  0  0  0  0  0  0  0  0
   -4.2522   -3.3519   -0.8067 C   0  0  0  0  0  0  0  0  0  0  0  0
   -2.0002   -4.1989   -0.9512 C   0  0  0  0  0  0  0  0  0  0  0  0
   -0.2289   -0.1864    0.8930 C   0  0  0  0  0  0  0  0  0  0  0  0
    0.4195   -1.2257    0.7317 O   0  0  0  0  0  0  0  0  0  0  0  0
    0.4671    1.1243    1.2993 C   0  0  0  0  0  0  0  0  0  0  0  0
    1.6916    0.8801    2.0202 O   0  0  0  0  0  0  0  0  0  0  0  0
    1.5286    0.3257    3.2507 C   0  0  0  0  0  0  0  0  0  0  0  0
    2.8610   -0.0133    3.8441 C   0  0  0  0  0  0  0  0  0  0  0  0
    0.4534    0.1341    3.8002 O   0  0  0  0  0  0  0  0  0  0  0  0
    2.1860    0.5037   -1.4221 C   0  0  0  0  0  0  0  0  0  0  0  0
    3.3883    0.2046   -2.0747 C   0  0  0  0  0  0  0  0  0  0  0  0
    6.8771   -0.2277   -3.7897 H   0  0  0  0  0  0  0  0  0  0  0  0
    5.7397   -1.1705   -2.8179 H   0  0  0  0  0  0  0  0  0  0  0  0
    5.1669   -0.2171   -4.2431 H   0  0  0  0  0  0  0  0  0  0  0  0
    5.1892    2.9240   -1.1532 H   0  0  0  0  0  0  0  0  0  0  0  0
    3.0889    3.4614   -0.0009 H   0  0  0  0  0  0  0  0  0  0  0  0
    0.8882    3.0337    0.4747 H   0  0  0  0  0  0  0  0  0  0  0  0
   -2.5588    4.1825   -0.5981 H   0  0  0  0  0  0  0  0  0  0  0  0
   -4.6027    4.2613    0.7692 H   0  0  0  0  0  0  0  0  0  0  0  0
   -5.2818    2.2873    2.1078 H   0  0  0  0  0  0  0  0  0  0  0  0
   -3.9082    0.2660    2.1201 H   0  0  0  0  0  0  0  0  0  0  0  0
   -3.3054   -1.4380    0.9909 H   0  0  0  0  0  0  0  0  0  0  0  0
   -1.7483   -2.2276    1.0983 H   0  0  0  0  0  0  0  0  0  0  0  0
   -2.9809   -1.0259   -1.4476 H   0  0  0  0  0  0  0  0  0  0  0  0
   -1.3735   -1.6805   -1.3930 H   0  0  0  0  0  0  0  0  0  0  0  0
   -4.2741   -3.4538    0.2839 H   0  0  0  0  0  0  0  0  0  0  0  0
   -4.9276   -2.5372   -1.0932 H   0  0  0  0  0  0  0  0  0  0  0  0
   -4.6683   -4.2690   -1.2405 H   0  0  0  0  0  0  0  0  0  0  0  0
   -1.8990   -4.3162    0.1324 H   0  0  0  0  0  0  0  0  0  0  0  0
   -2.3599   -5.1497   -1.3615 H   0  0  0  0  0  0  0  0  0  0  0  0
   -1.0033   -4.0341   -1.3763 H   0  0  0  0  0  0  0  0  0  0  0  0
   -0.1907    1.6801    1.9808 H   0  0  0  0  0  0  0  0  0  0  0  0
    3.4995    0.8745    3.8612 H   0  0  0  0  0  0  0  0  0  0  0  0
    2.7219   -0.3584    4.8740 H   0  0  0  0  0  0  0  0  0  0  0  0
    3.3287   -0.8133    3.2665 H   0  0  0  0  0  0  0  0  0  0  0  0
    1.3629   -0.2015   -1.5156 H   0  0  0  0  0  0  0  0  0  0  0  0
    3.4414   -0.7186   -2.6390 H   0  0  0  0  0  0  0  0  0  0  0  0
  1  2  1  0
  2  3  1  0
  3  4  2  0
  4  5  1  0
  5  6  2  0
  6  7  1  0
  7  8  1  0
  8  9  1  0
  9 10  2  0
 10 11  1  0
 11 12  2  0
 12 13  1  0
 13 14  2  0
 14 15  1  0
 15 16  1  0
 16 17  1  0
 17 18  1  0
 18 19  1  0
 18 20  1  0
 15 21  1  0
 21 22  2  0
 21 23  1  0
 23 24  1  0
 24 25  1  0
 25 26  1  0
 25 27  2  0
  6 28  1  0
 28 29  2  0
 29  3  1  0
 23  7  1  0
 14  9  1  0
  1 30  1  0
  1 31  1  0
  1 32  1  0
  4 33  1  0
  5 34  1  0
  7 35  1  0
 10 36  1  0
 11 37  1  0
 12 38  1  0
 13 39  1  0
 16 40  1  0
 16 41  1  0
 17 42  1  0
 17 43  1  0
 19 44  1  0
 19 45  1  0
 19 46  1  0
 20 47  1  0
 20 48  1  0
 20 49  1  0
 23 50  1  0
 26 51  1  0
 26 52  1  0
 26 53  1  0
 28 54  1  0
 29 55  1  0
M  END
$$$$
