
     RDKit          3D

 40 41  0  0  0  0  0  0  0  0999 V2000
   -5.3342   -2.3663   -0.8262 C   0  0  0  0  0  0  0  0  0  0  0  0
   -4.0325   -2.2530   -0.1621 N   0  0  0  0  0  0  0  0  0  0  0  0
   -3.0142   -1.7459   -1.1097 C   0  0  0  0  0  0  0  0  0  0  0  0
   -1.8657   -0.9403   -0.4619 C   0  0  0  0  0  0  0  0  0  0  0  0
   -2.3710    0.1978    0.3098 N   0  0  0  0  0  0  0  0  0  0  0  0
   -1.6361    1.3076    0.6815 C   0  0  0  0  0  0  0  0  0  0  0  0
   -2.1512    2.2411    1.3011 O   0  0  0  0  0  0  0  0  0  0  0  0
   -0.1572    1.3522    0.3467 C   0  0  0  0  0  0  0  0  0  0  0  0
    0.7989    0.7321    1.7657 S   0  0  0  0  0  0  0  0  0  0  0  0
    2.4432    0.9428    1.1102 C   0  0  0  0  0  0  0  0  0  0  0  0
    3.0108    2.2247    1.1734 C   0  0  0  0  0  0  0  0  0  0  0  0
    4.3067    2.4618    0.6972 C   0  0  0  0  0  0  0  0  0  0  0  0
    5.0828    1.4234    0.1626 C   0  0  0  0  0  0  0  0  0  0  0  0
    6.4840    1.7062   -0.3323 C   0  0  0  0  0  0  0  0  0  0  0  0
    7.3073    2.1340    0.6599 F   0  0  0  0  0  0  0  0  0  0  0  0
    7.0908    0.6187   -0.8796 F   0  0  0  0  0  0  0  0  0  0  0  0
    6.5083    2.6726   -1.2869 F   0  0  0  0  0  0  0  0  0  0  0  0
    4.5265    0.1397    0.0901 C   0  0  0  0  0  0  0  0  0  0  0  0
    3.2158   -0.0828    0.5503 C   0  0  0  0  0  0  0  0  0  0  0  0
    2.6729   -1.4133    0.3781 N   0  0  0  0  0  4  0  0  0  0  0  0
    1.7277   -1.5420   -0.4129 O   0  0  0  0  0  0  0  0  0  0  0  0
    3.2352   -2.3277    0.9928 O   0  0  0  0  0  1  0  0  0  0  0  0
   -3.7434    0.0660    0.8110 C   0  0  0  0  0  0  0  0  0  0  0  0
   -4.1181   -1.4029    1.0541 C   0  0  0  0  0  0  0  0  0  0  0  0
   -5.7385   -1.3849   -1.0981 H   0  0  0  0  0  0  0  0  0  0  0  0
   -6.0549   -2.8602   -0.1681 H   0  0  0  0  0  0  0  0  0  0  0  0
   -5.2580   -2.9755   -1.7321 H   0  0  0  0  0  0  0  0  0  0  0  0
   -3.4898   -1.0903   -1.8494 H   0  0  0  0  0  0  0  0  0  0  0  0
   -2.5946   -2.5911   -1.6602 H   0  0  0  0  0  0  0  0  0  0  0  0
   -1.1972   -0.5918   -1.2498 H   0  0  0  0  0  0  0  0  0  0  0  0
   -1.2882   -1.5671    0.2180 H   0  0  0  0  0  0  0  0  0  0  0  0
    0.0859    0.7849   -0.5413 H   0  0  0  0  0  0  0  0  0  0  0  0
    0.1117    2.3872    0.1518 H   0  0  0  0  0  0  0  0  0  0  0  0
    2.4471    3.0589    1.5920 H   0  0  0  0  0  0  0  0  0  0  0  0
    4.7117    3.4826    0.7240 H   0  0  0  0  0  0  0  0  0  0  0  0
    5.0899   -0.6688   -0.3659 H   0  0  0  0  0  0  0  0  0  0  0  0
   -3.8770    0.6445    1.7311 H   0  0  0  0  0  0  0  0  0  0  0  0
   -4.4058    0.5129    0.0615 H   0  0  0  0  0  0  0  0  0  0  0  0
   -3.4191   -1.8296    1.7843 H   0  0  0  0  0  0  0  0  0  0  0  0
   -5.1103   -1.4580    1.5106 H   0  0  0  0  0  0  0  0  0  0  0  0
  1  2  1  0
  2  3  1  0
  3  4  1  0
  4  5  1  0
  5  6  1  0
  6  7  2  0
  6  8  1  0
  8  9  1  0
  9 10  1  0
 10 11  2  0
 11 12  1  0
 12 13  2  0
 13 14  1  0
 14 15  1  0
 14 16  1  0
 14 17  1  0
 13 18  1  0
 18 19  2  0
 19 20  1  0
 20 21  2  0
 20 22  1  0
  5 23  1  0
 23 24  1  0
 24  2  1  0
 19 10  1  0
  1 25  1  0
  1 26  1  0
  1 27  1  0
  3 28  1  0
  3 29  1  0
  4 30  1  0
  4 31  1  0
  8 32  1  0
  8 33  1  0
 11 34  1  0
 12 35  1  0
 18 36  1  0
 23 37  1  0
 23 38  1  0
 24 39  1  0
 24 40  1  0
M  CHG  2  20   1  22  -1
M  END
$$$$
