
     RDKit          3D

 50 50  0  0  0  0  0  0  0  0999 V2000
    8.2160    0.4531    1.3667 C   0  0  0  0  0  0  0  0  0  0  0  0
    6.8941    0.4793    1.1216 C   0  0  0  0  0  0  0  0  0  0  0  0
    5.8980    0.2988    2.2347 C   0  0  0  0  0  0  0  0  0  0  0  0
    6.3478    0.6278   -0.2798 C   0  0  0  0  0  0  0  0  0  0  0  0
    5.7881    2.3214   -0.5976 S   0  0  0  0  0  0  0  0  0  0  0  0
    4.1127    2.2344   -0.1553 C   0  0  0  0  0  0  0  0  0  0  0  0
    3.3335    3.2919   -0.0259 N   0  0  0  0  0  0  0  0  0  0  0  0
    2.0820    2.8288    0.3282 N   0  0  0  0  0  0  0  0  0  0  0  0
    2.1800    1.5182    0.3770 C   0  0  0  0  0  0  0  0  0  0  0  0
    1.1477    0.5037    0.6922 C   0  0  0  0  0  0  0  0  0  0  0  0
   -0.0420    0.5585   -0.2718 C   0  0  0  0  0  0  0  0  0  0  0  0
    0.3193    0.1099   -1.6943 C   0  0  0  0  0  0  0  0  0  0  0  0
   -0.8118    0.2909   -2.7159 C   0  0  0  0  0  0  0  0  0  0  0  0
   -2.0027   -0.6435   -2.5155 C   0  0  0  0  0  0  0  0  0  0  0  0
   -2.8839   -0.1971   -1.4653 N   0  0  0  0  0  0  0  0  0  0  0  0
   -3.5946   -1.0555   -0.6836 C   0  0  0  0  0  0  0  0  0  0  0  0
   -3.4777   -2.2702   -0.6880 O   0  0  0  0  0  0  0  0  0  0  0  0
   -4.4375   -0.3352    0.0900 O   0  0  0  0  0  0  0  0  0  0  0  0
   -5.3072   -0.9888    1.0498 C   0  0  0  0  0  0  0  0  0  0  0  0
   -6.0705    0.1603    1.7295 C   0  0  0  0  0  0  0  0  0  0  0  0
   -6.3186   -1.9041    0.3493 C   0  0  0  0  0  0  0  0  0  0  0  0
   -4.4988   -1.7370    2.1176 C   0  0  0  0  0  0  0  0  0  0  0  0
    3.4376    1.0641    0.0847 O   0  0  0  0  0  0  0  0  0  0  0  0
    8.9461    0.5694    0.5694 H   0  0  0  0  0  0  0  0  0  0  0  0
    8.6045    0.3328    2.3729 H   0  0  0  0  0  0  0  0  0  0  0  0
    5.2056   -0.5161    1.9982 H   0  0  0  0  0  0  0  0  0  0  0  0
    6.3864    0.0486    3.1843 H   0  0  0  0  0  0  0  0  0  0  0  0
    5.3205    1.2156    2.3936 H   0  0  0  0  0  0  0  0  0  0  0  0
    5.5639   -0.1123   -0.4768 H   0  0  0  0  0  0  0  0  0  0  0  0
    7.1376    0.4175   -1.0109 H   0  0  0  0  0  0  0  0  0  0  0  0
    1.5857   -0.5029    0.6875 H   0  0  0  0  0  0  0  0  0  0  0  0
    0.7871    0.6874    1.7125 H   0  0  0  0  0  0  0  0  0  0  0  0
   -0.8169   -0.1020    0.1322 H   0  0  0  0  0  0  0  0  0  0  0  0
   -0.4610    1.5739   -0.2970 H   0  0  0  0  0  0  0  0  0  0  0  0
    0.6376   -0.9410   -1.6790 H   0  0  0  0  0  0  0  0  0  0  0  0
    1.1776    0.6906   -2.0529 H   0  0  0  0  0  0  0  0  0  0  0  0
   -1.1409    1.3372   -2.7258 H   0  0  0  0  0  0  0  0  0  0  0  0
   -0.3898    0.0847   -3.7078 H   0  0  0  0  0  0  0  0  0  0  0  0
   -1.6697   -1.6682   -2.3232 H   0  0  0  0  0  0  0  0  0  0  0  0
   -2.6046   -0.6622   -3.4293 H   0  0  0  0  0  0  0  0  0  0  0  0
   -3.2095    0.7595   -1.4487 H   0  0  0  0  0  0  0  0  0  0  0  0
   -5.3744    0.8593    2.2082 H   0  0  0  0  0  0  0  0  0  0  0  0
   -6.6377    0.7401    0.9908 H   0  0  0  0  0  0  0  0  0  0  0  0
   -6.7681   -0.2073    2.4894 H   0  0  0  0  0  0  0  0  0  0  0  0
   -5.8359   -2.7798   -0.0989 H   0  0  0  0  0  0  0  0  0  0  0  0
   -7.0769   -2.2698    1.0514 H   0  0  0  0  0  0  0  0  0  0  0  0
   -6.8256   -1.3730   -0.4662 H   0  0  0  0  0  0  0  0  0  0  0  0
   -5.1420   -2.0822    2.9345 H   0  0  0  0  0  0  0  0  0  0  0  0
   -3.7182   -1.0927    2.5377 H   0  0  0  0  0  0  0  0  0  0  0  0
   -3.9927   -2.6167    1.7055 H   0  0  0  0  0  0  0  0  0  0  0  0
  1  2  2  0
  2  3  1  0
  2  4  1  0
  4  5  1  0
  5  6  1  0
  6  7  2  0
  7  8  1  0
  8  9  2  0
  9 10  1  0
 10 11  1  0
 11 12  1  0
 12 13  1  0
 13 14  1  0
 14 15  1  0
 15 16  1  0
 16 17  2  0
 16 18  1  0
 18 19  1  0
 19 20  1  0
 19 21  1  0
 19 22  1  0
  9 23  1  0
 23  6  1  0
  1 24  1  0
  1 25  1  0
  3 26  1  0
  3 27  1  0
  3 28  1  0
  4 29  1  0
  4 30  1  0
 10 31  1  0
 10 32  1  0
 11 33  1  0
 11 34  1  0
 12 35  1  0
 12 36  1  0
 13 37  1  0
 13 38  1  0
 14 39  1  0
 14 40  1  0
 15 41  1  0
 20 42  1  0
 20 43  1  0
 20 44  1  0
 21 45  1  0
 21 46  1  0
 21 47  1  0
 22 48  1  0
 22 49  1  0
 22 50  1  0
M  END
$$$$
