
     RDKit          3D

 56 60  0  0  0  0  0  0  0  0999 V2000
   -6.0312   -1.1466    2.7470 C   0  0  0  0  0  0  0  0  0  0  0  0
   -5.2815   -1.1281    1.4467 C   0  0  0  0  0  0  0  0  0  0  0  0
   -5.6124   -0.1941    0.4551 C   0  0  0  0  0  0  0  0  0  0  0  0
   -4.9017   -0.1531   -0.7455 C   0  0  0  0  0  0  0  0  0  0  0  0
   -3.8416   -1.0404   -0.9453 C   0  0  0  0  0  0  0  0  0  0  0  0
   -2.9218   -0.9992   -2.4740 S   0  0  0  0  0  6  0  0  0  0  0  0
   -3.6645   -0.1576   -3.3967 O   0  0  0  0  0  0  0  0  0  0  0  0
   -2.6512   -2.3845   -2.8199 O   0  0  0  0  0  0  0  0  0  0  0  0
   -1.4698   -0.2069   -1.9889 C   0  0  0  0  0  0  0  0  0  0  0  0
   -1.4601    1.1295   -1.8530 C   0  0  0  0  0  0  0  0  0  0  0  0
   -0.2992    1.8513   -1.3544 C   0  0  0  0  0  0  0  0  0  0  0  0
   -0.3673    3.3321   -1.1997 C   0  0  0  0  0  0  0  0  0  0  0  0
   -1.4059    3.9288   -1.4914 O   0  0  0  0  0  0  0  0  0  0  0  0
    0.7740    3.9458   -0.7165 N   0  0  0  0  0  0  0  0  0  0  0  0
    0.7944    5.3274   -0.5564 C   0  0  0  0  0  0  0  0  0  0  0  0
    1.8712    5.9659   -0.0822 C   0  0  0  0  0  0  0  0  0  0  0  0
    3.0460    5.2182    0.2774 C   0  0  0  0  0  0  0  0  0  0  0  0
    3.0692    3.8872    0.1412 C   0  0  0  0  0  0  0  0  0  0  0  0
    1.8718    3.1733   -0.3869 C   0  0  0  0  0  0  0  0  0  0  0  0
    1.9223    1.8859   -0.5059 N   0  0  0  0  0  0  0  0  0  0  0  0
    0.8352    1.2038   -1.0029 C   0  0  0  0  0  0  0  0  0  0  0  0
    0.8825   -0.2037   -1.1544 N   0  0  0  0  0  0  0  0  0  0  0  0
    2.1125   -0.9320   -0.7784 C   0  0  0  0  0  0  0  0  0  0  0  0
    2.0374   -1.3894    0.6813 C   0  0  0  0  0  0  0  0  0  0  0  0
    3.2812   -2.1333    1.1011 C   0  0  0  0  0  0  0  0  0  0  0  0
    4.3400   -1.4578    1.7220 C   0  0  0  0  0  0  0  0  0  0  0  0
    5.4973   -2.1462    2.0890 C   0  0  0  0  0  0  0  0  0  0  0  0
    5.6077   -3.5124    1.8350 C   0  0  0  0  0  0  0  0  0  0  0  0
    4.5619   -4.1917    1.2125 C   0  0  0  0  0  0  0  0  0  0  0  0
    3.4039   -3.5055    0.8448 C   0  0  0  0  0  0  0  0  0  0  0  0
   -0.2172   -0.9399   -1.6258 C   0  0  0  0  0  0  0  0  0  0  0  0
   -0.1194   -2.2337   -1.7330 N   0  0  0  0  0  0  0  0  0  0  0  0
   -3.4991   -1.9779    0.0336 C   0  0  0  0  0  0  0  0  0  0  0  0
   -4.2148   -2.0114    1.2312 C   0  0  0  0  0  0  0  0  0  0  0  0
   -5.5839   -0.4334    3.4463 H   0  0  0  0  0  0  0  0  0  0  0  0
   -6.0102   -2.1442    3.1981 H   0  0  0  0  0  0  0  0  0  0  0  0
   -7.0828   -0.8821    2.5929 H   0  0  0  0  0  0  0  0  0  0  0  0
   -6.4330    0.5040    0.6116 H   0  0  0  0  0  0  0  0  0  0  0  0
   -5.1836    0.5688   -1.5090 H   0  0  0  0  0  0  0  0  0  0  0  0
   -2.3419    1.7227   -2.0906 H   0  0  0  0  0  0  0  0  0  0  0  0
   -0.1048    5.8717   -0.8342 H   0  0  0  0  0  0  0  0  0  0  0  0
    1.8782    7.0445    0.0386 H   0  0  0  0  0  0  0  0  0  0  0  0
    3.9077    5.7572    0.6583 H   0  0  0  0  0  0  0  0  0  0  0  0
    3.9336    3.2880    0.3986 H   0  0  0  0  0  0  0  0  0  0  0  0
    2.2720   -1.7900   -1.4444 H   0  0  0  0  0  0  0  0  0  0  0  0
    2.9997   -0.3041   -0.9335 H   0  0  0  0  0  0  0  0  0  0  0  0
    1.8868   -0.5266    1.3429 H   0  0  0  0  0  0  0  0  0  0  0  0
    1.1626   -2.0330    0.8400 H   0  0  0  0  0  0  0  0  0  0  0  0
    4.2689   -0.3910    1.9219 H   0  0  0  0  0  0  0  0  0  0  0  0
    6.3141   -1.6165    2.5720 H   0  0  0  0  0  0  0  0  0  0  0  0
    6.5096   -4.0477    2.1199 H   0  0  0  0  0  0  0  0  0  0  0  0
    4.6480   -5.2562    1.0107 H   0  0  0  0  0  0  0  0  0  0  0  0
    2.5965   -4.0459    0.3537 H   0  0  0  0  0  0  0  0  0  0  0  0
   -0.9619   -2.6698   -2.1446 H   0  0  0  0  0  0  0  0  0  0  0  0
   -2.6853   -2.6833   -0.1221 H   0  0  0  0  0  0  0  0  0  0  0  0
   -3.9402   -2.7370    1.9947 H   0  0  0  0  0  0  0  0  0  0  0  0
  1  2  1  0
  2  3  2  0
  3  4  1  0
  4  5  2  0
  5  6  1  0
  6  7  2  0
  6  8  2  0
  6  9  1  0
  9 10  2  0
 10 11  1  0
 11 12  1  0
 12 13  2  0
 12 14  1  0
 14 15  1  0
 15 16  2  0
 16 17  1  0
 17 18  2  0
 18 19  1  0
 19 20  2  0
 20 21  1  0
 21 22  1  0
 22 23  1  0
 23 24  1  0
 24 25  1  0
 25 26  2  0
 26 27  1  0
 27 28  2  0
 28 29  1  0
 29 30  2  0
 22 31  1  0
 31 32  2  3
  5 33  1  0
 33 34  2  0
 34  2  1  0
 31  9  1  0
 21 11  2  0
 30 25  1  0
 19 14  1  0
  1 35  1  0
  1 36  1  0
  1 37  1  0
  3 38  1  0
  4 39  1  0
 10 40  1  0
 15 41  1  0
 16 42  1  0
 17 43  1  0
 18 44  1  0
 23 45  1  0
 23 46  1  0
 24 47  1  0
 24 48  1  0
 26 49  1  0
 27 50  1  0
 28 51  1  0
 29 52  1  0
 30 53  1  0
 32 54  1  0
 33 55  1  0
 34 56  1  0
M  END
$$$$
