
     RDKit          3D

 56 60  0  0  0  0  0  0  0  0999 V2000
    5.7443   -2.9362   -0.5212 C   0  0  0  0  0  0  0  0  0  0  0  0
    4.2829   -3.3486   -0.4590 C   0  0  0  0  0  0  0  0  0  0  0  0
    3.5163   -2.4926    0.4133 N   0  0  0  0  0  0  0  0  0  0  0  0
    3.3187   -2.7113    1.7729 C   0  0  0  0  0  0  0  0  0  0  0  0
    3.6756   -3.6426    2.4666 O   0  0  0  0  0  0  0  0  0  0  0  0
    2.5528   -1.5389    2.2455 C   0  0  0  0  0  0  0  0  0  0  0  0
    2.0661   -1.2130    3.4940 C   0  0  0  0  0  0  0  0  0  0  0  0
    1.3744   -0.0015    3.6180 C   0  0  0  0  0  0  0  0  0  0  0  0
    1.1839    0.8492    2.5031 C   0  0  0  0  0  0  0  0  0  0  0  0
    1.6883    0.5082    1.2140 C   0  0  0  0  0  0  0  0  0  0  0  0
    1.6196    1.1748   -0.0432 C   0  0  0  0  0  0  0  0  0  0  0  0
    0.7396    2.7241   -0.1965 S   0  0  0  0  0  6  0  0  0  0  0  0
    0.8937    3.1677   -1.5681 O   0  0  0  0  0  0  0  0  0  0  0  0
    1.1857    3.5462    0.9098 O   0  0  0  0  0  0  0  0  0  0  0  0
   -0.8925    2.2468    0.0748 N   0  0  0  0  0  0  0  0  0  0  0  0
   -1.8292    3.3030    0.3124 C   0  0  0  0  0  0  0  0  0  0  0  0
   -1.6152    4.4786    0.0518 O   0  0  0  0  0  0  0  0  0  0  0  0
   -3.1153    2.9193    0.9427 C   0  0  0  0  0  0  0  0  0  0  0  0
   -3.2711    1.7972    1.7606 C   0  0  0  0  0  0  0  0  0  0  0  0
   -4.5240    1.5138    2.3018 C   0  0  0  0  0  0  0  0  0  0  0  0
   -5.5768    2.3667    2.0101 C   0  0  0  0  0  0  0  0  0  0  0  0
   -5.4566    3.4650    1.2338 N   0  0  0  0  0  0  0  0  0  0  0  0
   -4.2270    3.7224    0.7224 C   0  0  0  0  0  0  0  0  0  0  0  0
   -1.3831    1.2887   -0.9001 C   0  0  0  0  0  0  0  0  0  0  0  0
   -1.4232   -0.0659   -0.5556 C   0  0  0  0  0  0  0  0  0  0  0  0
   -1.8499   -1.0225   -1.4835 C   0  0  0  0  0  0  0  0  0  0  0  0
   -2.2320   -0.6316   -2.7665 C   0  0  0  0  0  0  0  0  0  0  0  0
   -2.6632   -1.4594   -3.7645 O   0  0  0  0  0  0  0  0  0  0  0  0
   -2.7457   -2.8471   -3.4643 C   0  0  0  0  0  0  0  0  0  0  0  0
   -2.1796    0.7209   -3.1126 C   0  0  0  0  0  0  0  0  0  0  0  0
   -1.7537    1.6787   -2.1898 C   0  0  0  0  0  0  0  0  0  0  0  0
    2.2257    0.6250   -1.2044 C   0  0  0  0  0  0  0  0  0  0  0  0
    2.8971   -0.6067   -1.1571 C   0  0  0  0  0  0  0  0  0  0  0  0
    2.9457   -1.2623    0.0542 C   0  0  0  0  0  0  0  0  0  0  0  0
    2.3652   -0.7092    1.1691 C   0  0  0  0  0  0  0  0  0  0  0  0
    5.8526   -1.9201   -0.9142 H   0  0  0  0  0  0  0  0  0  0  0  0
    6.3040   -3.6154   -1.1715 H   0  0  0  0  0  0  0  0  0  0  0  0
    6.2014   -2.9594    0.4736 H   0  0  0  0  0  0  0  0  0  0  0  0
    3.8352   -3.3451   -1.4584 H   0  0  0  0  0  0  0  0  0  0  0  0
    4.2200   -4.3731   -0.0747 H   0  0  0  0  0  0  0  0  0  0  0  0
    2.2246   -1.8689    4.3437 H   0  0  0  0  0  0  0  0  0  0  0  0
    0.9872    0.2983    4.5906 H   0  0  0  0  0  0  0  0  0  0  0  0
    0.6549    1.7874    2.6621 H   0  0  0  0  0  0  0  0  0  0  0  0
   -2.4308    1.1540    2.0017 H   0  0  0  0  0  0  0  0  0  0  0  0
   -4.6762    0.6514    2.9421 H   0  0  0  0  0  0  0  0  0  0  0  0
   -6.5720    2.1877    2.4086 H   0  0  0  0  0  0  0  0  0  0  0  0
   -4.1687    4.6190    0.1089 H   0  0  0  0  0  0  0  0  0  0  0  0
   -1.1263   -0.3950    0.4367 H   0  0  0  0  0  0  0  0  0  0  0  0
   -1.8680   -2.0626   -1.1740 H   0  0  0  0  0  0  0  0  0  0  0  0
   -3.4608   -3.0343   -2.6564 H   0  0  0  0  0  0  0  0  0  0  0  0
   -3.1110   -3.3615   -4.3584 H   0  0  0  0  0  0  0  0  0  0  0  0
   -1.7596   -3.2574   -3.2231 H   0  0  0  0  0  0  0  0  0  0  0  0
   -2.4653    1.0315   -4.1156 H   0  0  0  0  0  0  0  0  0  0  0  0
   -1.6997    2.7213   -2.4985 H   0  0  0  0  0  0  0  0  0  0  0  0
    2.1690    1.1533   -2.1561 H   0  0  0  0  0  0  0  0  0  0  0  0
    3.3521   -1.0177   -2.0515 H   0  0  0  0  0  0  0  0  0  0  0  0
  1  2  1  0
  2  3  1  0
  3  4  1  0
  4  5  2  0
  4  6  1  0
  6  7  2  0
  7  8  1  0
  8  9  2  0
  9 10  1  0
 10 11  2  0
 11 12  1  0
 12 13  2  0
 12 14  2  0
 12 15  1  0
 15 16  1  0
 16 17  2  0
 16 18  1  0
 18 19  2  0
 19 20  1  0
 20 21  2  0
 21 22  1  0
 22 23  2  0
 15 24  1  0
 24 25  2  0
 25 26  1  0
 26 27  2  0
 27 28  1  0
 28 29  1  0
 27 30  1  0
 30 31  2  0
 11 32  1  0
 32 33  2  0
 33 34  1  0
 34 35  2  0
 34  3  1  0
 35  6  1  0
 35 10  1  0
 23 18  1  0
 31 24  1  0
  1 36  1  0
  1 37  1  0
  1 38  1  0
  2 39  1  0
  2 40  1  0
  7 41  1  0
  8 42  1  0
  9 43  1  0
 19 44  1  0
 20 45  1  0
 21 46  1  0
 23 47  1  0
 25 48  1  0
 26 49  1  0
 29 50  1  0
 29 51  1  0
 29 52  1  0
 30 53  1  0
 31 54  1  0
 32 55  1  0
 33 56  1  0
M  END
$$$$
