
     RDKit          3D

 41 42  0  0  0  0  0  0  0  0999 V2000
   -6.5389    2.5680   -0.7004 C   0  0  0  0  0  0  0  0  0  0  0  0
   -6.0394    1.3668   -1.9623 S   0  0  0  0  0  0  0  0  0  0  0  0
   -4.3199    1.1593   -1.5342 C   0  0  0  0  0  0  0  0  0  0  0  0
   -3.4440    2.2445   -1.4513 C   0  0  0  0  0  0  0  0  0  0  0  0
   -2.0995    2.0442   -1.1250 C   0  0  0  0  0  0  0  0  0  0  0  0
   -1.6054    0.7534   -0.8893 C   0  0  0  0  0  0  0  0  0  0  0  0
   -0.1516    0.5378   -0.5223 C   0  0  0  0  0  0  0  0  0  0  0  0
    0.7863    1.0804   -1.5164 N   0  0  0  0  0  0  0  0  0  0  0  0
    0.7627    0.3048   -2.7606 C   0  0  0  0  0  0  0  0  0  0  0  0
    2.1610    1.2092   -0.9880 C   0  0  0  0  0  0  0  0  0  0  0  0
    2.7689   -0.1149   -0.4958 C   0  0  0  0  0  0  0  0  0  0  0  0
    3.2175   -0.9419   -1.2843 O   0  0  0  0  0  0  0  0  0  0  0  0
    2.7212   -0.2439    0.8856 N   0  0  0  0  0  0  0  0  0  0  0  0
    3.1601   -1.3355    1.6644 C   0  0  0  0  0  0  0  0  0  0  0  0
    2.9991   -1.2292    3.0536 C   0  0  0  0  0  0  0  0  0  0  0  0
    3.4027   -2.2632    3.9026 C   0  0  0  0  0  0  0  0  0  0  0  0
    3.9723   -3.4163    3.3701 C   0  0  0  0  0  0  0  0  0  0  0  0
    4.1339   -3.5261    1.9910 C   0  0  0  0  0  0  0  0  0  0  0  0
    4.9076   -5.0944    1.2680 Br  0  0  0  0  0  0  0  0  0  0  0  0
    3.7321   -2.4950    1.1375 C   0  0  0  0  0  0  0  0  0  0  0  0
   -2.4849   -0.3328   -0.9858 C   0  0  0  0  0  0  0  0  0  0  0  0
   -3.8295   -0.1304   -1.3114 C   0  0  0  0  0  0  0  0  0  0  0  0
   -6.0584    3.5351   -0.8689 H   0  0  0  0  0  0  0  0  0  0  0  0
   -6.2863    2.2034    0.2992 H   0  0  0  0  0  0  0  0  0  0  0  0
   -7.6217    2.7101   -0.7536 H   0  0  0  0  0  0  0  0  0  0  0  0
   -3.7888    3.2542   -1.6564 H   0  0  0  0  0  0  0  0  0  0  0  0
   -1.4287    2.8995   -1.0740 H   0  0  0  0  0  0  0  0  0  0  0  0
   -0.0048    1.0430    0.4419 H   0  0  0  0  0  0  0  0  0  0  0  0
    0.0374   -0.5289   -0.3446 H   0  0  0  0  0  0  0  0  0  0  0  0
    1.4927    0.6990   -3.4766 H   0  0  0  0  0  0  0  0  0  0  0  0
   -0.2136    0.3845   -3.2507 H   0  0  0  0  0  0  0  0  0  0  0  0
    0.9733   -0.7580   -2.6013 H   0  0  0  0  0  0  0  0  0  0  0  0
    2.8296    1.6221   -1.7538 H   0  0  0  0  0  0  0  0  0  0  0  0
    2.1662    1.9481   -0.1774 H   0  0  0  0  0  0  0  0  0  0  0  0
    2.3202    0.5302    1.4001 H   0  0  0  0  0  0  0  0  0  0  0  0
    2.5576   -0.3404    3.4978 H   0  0  0  0  0  0  0  0  0  0  0  0
    3.2727   -2.1681    4.9778 H   0  0  0  0  0  0  0  0  0  0  0  0
    4.2855   -4.2193    4.0321 H   0  0  0  0  0  0  0  0  0  0  0  0
    3.8760   -2.6214    0.0697 H   0  0  0  0  0  0  0  0  0  0  0  0
   -2.1303   -1.3473   -0.8169 H   0  0  0  0  0  0  0  0  0  0  0  0
   -4.4907   -0.9906   -1.3893 H   0  0  0  0  0  0  0  0  0  0  0  0
  1  2  1  0
  2  3  1  0
  3  4  2  0
  4  5  1  0
  5  6  2  0
  6  7  1  0
  7  8  1  0
  8  9  1  0
  8 10  1  0
 10 11  1  0
 11 12  2  0
 11 13  1  0
 13 14  1  0
 14 15  2  0
 15 16  1  0
 16 17  2  0
 17 18  1  0
 18 19  1  0
 18 20  2  0
  6 21  1  0
 21 22  2  0
 22  3  1  0
 20 14  1  0
  1 23  1  0
  1 24  1  0
  1 25  1  0
  4 26  1  0
  5 27  1  0
  7 28  1  0
  7 29  1  0
  9 30  1  0
  9 31  1  0
  9 32  1  0
 10 33  1  0
 10 34  1  0
 13 35  1  0
 15 36  1  0
 16 37  1  0
 17 38  1  0
 20 39  1  0
 21 40  1  0
 22 41  1  0
M  END
$$$$
