
     RDKit          3D

 62 65  0  0  0  0  0  0  0  0999 V2000
    0.6156    1.5746   -3.2853 C   0  0  0  0  0  0  0  0  0  0  0  0
    0.5309    0.9436   -2.0127 O   0  0  0  0  0  0  0  0  0  0  0  0
    1.6616    0.3050   -1.5538 C   0  0  0  0  0  0  0  0  0  0  0  0
    2.8820    0.2522   -2.2356 C   0  0  0  0  0  0  0  0  0  0  0  0
    3.9686   -0.4204   -1.6733 C   0  0  0  0  0  0  0  0  0  0  0  0
    3.8256   -1.0466   -0.4338 C   0  0  0  0  0  0  0  0  0  0  0  0
    5.2125   -1.8815    0.2974 S   0  0  0  0  0  6  0  0  0  0  0  0
    4.8713   -3.2847    0.3705 O   0  0  0  0  0  0  0  0  0  0  0  0
    6.4092   -1.4355   -0.3842 O   0  0  0  0  0  0  0  0  0  0  0  0
    5.2553   -1.2430    1.8712 N   0  0  0  0  0  0  0  0  0  0  0  0
    5.6037    0.2041    2.0141 C   0  0  0  0  0  0  0  0  0  0  0  0
    7.1221    0.4271    2.0530 C   0  0  0  0  0  0  0  0  0  0  0  0
    7.7481   -0.3726    3.0660 O   0  0  0  0  0  0  0  0  0  0  0  0
    7.4966   -1.7675    2.8328 C   0  0  0  0  0  0  0  0  0  0  0  0
    5.9956   -2.0618    2.8784 C   0  0  0  0  0  0  0  0  0  0  0  0
    2.6114   -1.0084    0.2587 C   0  0  0  0  0  0  0  0  0  0  0  0
    1.5287   -0.3245   -0.2938 C   0  0  0  0  0  0  0  0  0  0  0  0
    0.2748   -0.2101    0.3399 N   0  0  0  0  0  0  0  0  0  0  0  0
   -0.1239   -0.6928    1.5707 C   0  0  0  0  0  0  0  0  0  0  0  0
    0.5784   -1.2959    2.3762 O   0  0  0  0  0  0  0  0  0  0  0  0
   -1.5713   -0.3229    1.9093 C   0  0  0  0  0  0  0  0  0  0  0  0
   -2.3444    0.0781    0.7722 O   0  0  0  0  0  0  0  0  0  0  0  0
   -2.9757   -0.9358    0.1179 C   0  0  0  0  0  0  0  0  0  0  0  0
   -2.9017   -2.1186    0.4157 O   0  0  0  0  0  0  0  0  0  0  0  0
   -3.7441   -0.4114   -1.0724 C   0  0  0  0  0  0  0  0  0  0  0  0
   -4.7577    0.6715   -0.6917 C   0  0  0  0  0  0  0  0  0  0  0  0
   -5.9027    0.1384    0.2010 C   0  0  0  0  0  0  0  0  0  0  0  0
   -7.1683    0.5408   -0.5774 C   0  0  0  0  0  0  0  0  0  0  0  0
   -7.3132    2.0722   -0.5507 C   0  0  0  0  0  0  0  0  0  0  0  0
   -6.2091    2.5406   -1.5107 C   0  0  0  0  0  0  0  0  0  0  0  0
   -5.5269    1.2216   -1.9201 C   0  0  0  0  0  0  0  0  0  0  0  0
   -6.7336    0.2855   -2.0190 C   0  0  0  0  0  0  0  0  0  0  0  0
    0.8353    0.8469   -4.0740 H   0  0  0  0  0  0  0  0  0  0  0  0
    1.3527    2.3845   -3.2741 H   0  0  0  0  0  0  0  0  0  0  0  0
   -0.3616    2.0168   -3.5029 H   0  0  0  0  0  0  0  0  0  0  0  0
    3.0223    0.7230   -3.2032 H   0  0  0  0  0  0  0  0  0  0  0  0
    4.9159   -0.4569   -2.2082 H   0  0  0  0  0  0  0  0  0  0  0  0
    5.1611    0.5461    2.9578 H   0  0  0  0  0  0  0  0  0  0  0  0
    5.1472    0.8005    1.2187 H   0  0  0  0  0  0  0  0  0  0  0  0
    7.3299    1.4757    2.2909 H   0  0  0  0  0  0  0  0  0  0  0  0
    7.5971    0.2158    1.0900 H   0  0  0  0  0  0  0  0  0  0  0  0
    7.9427   -2.0616    1.8754 H   0  0  0  0  0  0  0  0  0  0  0  0
    8.0060   -2.3285    3.6231 H   0  0  0  0  0  0  0  0  0  0  0  0
    5.8021   -3.1298    2.7399 H   0  0  0  0  0  0  0  0  0  0  0  0
    5.5971   -1.7948    3.8658 H   0  0  0  0  0  0  0  0  0  0  0  0
    2.5382   -1.5144    1.2169 H   0  0  0  0  0  0  0  0  0  0  0  0
   -0.4150    0.3139   -0.1924 H   0  0  0  0  0  0  0  0  0  0  0  0
   -2.0449   -1.1529    2.4463 H   0  0  0  0  0  0  0  0  0  0  0  0
   -1.5361    0.5345    2.5900 H   0  0  0  0  0  0  0  0  0  0  0  0
   -3.0147   -0.0219   -1.7921 H   0  0  0  0  0  0  0  0  0  0  0  0
   -4.2409   -1.2619   -1.5530 H   0  0  0  0  0  0  0  0  0  0  0  0
   -4.2356    1.4893   -0.1791 H   0  0  0  0  0  0  0  0  0  0  0  0
   -5.8600   -0.9516    0.3109 H   0  0  0  0  0  0  0  0  0  0  0  0
   -5.8741    0.5808    1.2026 H   0  0  0  0  0  0  0  0  0  0  0  0
   -8.0662    0.0101   -0.2539 H   0  0  0  0  0  0  0  0  0  0  0  0
   -8.2959    2.3816   -0.9266 H   0  0  0  0  0  0  0  0  0  0  0  0
   -7.1842    2.4863    0.4554 H   0  0  0  0  0  0  0  0  0  0  0  0
   -5.5190    3.2457   -1.0354 H   0  0  0  0  0  0  0  0  0  0  0  0
   -6.6533    3.0351   -2.3825 H   0  0  0  0  0  0  0  0  0  0  0  0
   -4.9245    1.3109   -2.8269 H   0  0  0  0  0  0  0  0  0  0  0  0
   -6.4664   -0.7582   -2.2119 H   0  0  0  0  0  0  0  0  0  0  0  0
   -7.4746    0.6132   -2.7562 H   0  0  0  0  0  0  0  0  0  0  0  0
  1  2  1  0
  2  3  1  0
  3  4  2  0
  4  5  1  0
  5  6  2  0
  6  7  1  0
  7  8  2  0
  7  9  2  0
  7 10  1  0
 10 11  1  0
 11 12  1  0
 12 13  1  0
 13 14  1  0
 14 15  1  0
  6 16  1  0
 16 17  2  0
 17 18  1  0
 18 19  1  0
 19 20  2  0
 19 21  1  0
 21 22  1  0
 22 23  1  0
 23 24  2  0
 23 25  1  0
 25 26  1  0
 26 27  1  0
 27 28  1  0
 28 29  1  0
 29 30  1  0
 30 31  1  0
 31 32  1  0
 17  3  1  0
 31 26  1  0
 15 10  1  0
 32 28  1  0
  1 33  1  0
  1 34  1  0
  1 35  1  0
  4 36  1  0
  5 37  1  0
 11 38  1  0
 11 39  1  0
 12 40  1  0
 12 41  1  0
 14 42  1  0
 14 43  1  0
 15 44  1  0
 15 45  1  0
 16 46  1  0
 18 47  1  0
 21 48  1  0
 21 49  1  0
 25 50  1  0
 25 51  1  0
 26 52  1  0
 27 53  1  0
 27 54  1  0
 28 55  1  0
 29 56  1  0
 29 57  1  0
 30 58  1  0
 30 59  1  0
 31 60  1  0
 32 61  1  0
 32 62  1  0
M  END
$$$$
