
     RDKit          3D

 42 44  0  0  0  0  0  0  0  0999 V2000
    2.0817    2.4818    2.0121 C   0  0  0  0  0  0  0  0  0  0  0  0
    2.3349    1.2817    1.2910 O   0  0  0  0  0  0  0  0  0  0  0  0
    1.2480    0.5426    0.9051 C   0  0  0  0  0  0  0  0  0  0  0  0
   -0.0823    0.9404    1.0494 C   0  0  0  0  0  0  0  0  0  0  0  0
   -1.1467    0.1316    0.6109 C   0  0  0  0  0  0  0  0  0  0  0  0
   -2.4420    0.6509    0.8109 N   0  0  0  0  0  0  0  0  0  0  0  0
   -3.0894    1.0935   -0.4359 C   0  0  0  0  0  0  0  0  0  0  0  0
   -4.5775    0.9373   -0.1482 C   0  0  0  0  0  0  0  0  0  0  0  0
   -4.6140   -0.3370    0.6750 C   0  0  0  0  0  0  0  0  0  0  0  0
   -3.3735   -0.2159    1.5572 C   0  0  0  0  0  0  0  0  0  0  0  0
   -0.8528   -1.1035   -0.0099 C   0  0  0  0  0  0  0  0  0  0  0  0
   -1.9225   -1.8446   -0.4503 O   0  0  0  0  0  0  0  0  0  0  0  0
   -1.6499   -2.9933   -1.2403 C   0  0  0  0  0  0  0  0  0  0  0  0
    0.4819   -1.5055   -0.1464 C   0  0  0  0  0  0  0  0  0  0  0  0
    1.5361   -0.6950    0.3107 C   0  0  0  0  0  0  0  0  0  0  0  0
    2.9654   -1.1575    0.1373 C   0  0  0  0  0  0  0  0  0  0  0  0
    3.6790   -0.3844   -0.9155 C   0  0  0  0  0  0  0  0  0  0  0  0
    3.4177   -0.3459   -2.1884 N   0  0  0  0  0  0  0  0  0  0  0  0
    4.3407    0.5222   -2.7356 C   0  0  0  0  0  0  0  0  0  0  0  0
    4.4953    0.9428   -4.3367 S   0  0  0  0  0  0  0  0  0  0  0  0
    5.1689    1.0248   -1.7851 N   0  0  0  0  0  0  0  0  0  0  0  0
    4.8725    0.4770   -0.5930 C   0  0  0  0  0  0  0  0  0  0  0  0
    5.4318    0.5678    0.4733 O   0  0  0  0  0  0  0  0  0  0  0  0
    1.5644    3.2148    1.3847 H   0  0  0  0  0  0  0  0  0  0  0  0
    1.5240    2.2817    2.9330 H   0  0  0  0  0  0  0  0  0  0  0  0
    3.0481    2.9102    2.2948 H   0  0  0  0  0  0  0  0  0  0  0  0
   -0.3424    1.8908    1.5048 H   0  0  0  0  0  0  0  0  0  0  0  0
   -2.8348    2.1349   -0.6591 H   0  0  0  0  0  0  0  0  0  0  0  0
   -2.8149    0.4772   -1.3008 H   0  0  0  0  0  0  0  0  0  0  0  0
   -4.9417    1.7828    0.4476 H   0  0  0  0  0  0  0  0  0  0  0  0
   -5.1772    0.8723   -1.0601 H   0  0  0  0  0  0  0  0  0  0  0  0
   -5.5328   -0.4384    1.2594 H   0  0  0  0  0  0  0  0  0  0  0  0
   -4.5311   -1.2111    0.0189 H   0  0  0  0  0  0  0  0  0  0  0  0
   -3.6336    0.2985    2.4899 H   0  0  0  0  0  0  0  0  0  0  0  0
   -2.9736   -1.1984    1.8313 H   0  0  0  0  0  0  0  0  0  0  0  0
   -1.1484   -3.7662   -0.6489 H   0  0  0  0  0  0  0  0  0  0  0  0
   -2.6082   -3.4024   -1.5749 H   0  0  0  0  0  0  0  0  0  0  0  0
   -1.0699   -2.7354   -2.1326 H   0  0  0  0  0  0  0  0  0  0  0  0
    0.7317   -2.4524   -0.6142 H   0  0  0  0  0  0  0  0  0  0  0  0
    3.4946   -1.0898    1.0940 H   0  0  0  0  0  0  0  0  0  0  0  0
    2.9936   -2.2150   -0.1519 H   0  0  0  0  0  0  0  0  0  0  0  0
    5.9487    1.6342   -1.9634 H   0  0  0  0  0  0  0  0  0  0  0  0
  1  2  1  0
  2  3  1  0
  3  4  2  0
  4  5  1  0
  5  6  1  0
  6  7  1  0
  7  8  1  0
  8  9  1  0
  9 10  1  0
  5 11  2  0
 11 12  1  0
 12 13  1  0
 11 14  1  0
 14 15  2  0
 15 16  1  0
 16 17  1  0
 17 18  2  0
 18 19  1  0
 19 20  2  0
 19 21  1  0
 21 22  1  0
 22 23  2  0
 15  3  1  0
 22 17  1  0
 10  6  1  0
  1 24  1  0
  1 25  1  0
  1 26  1  0
  4 27  1  0
  7 28  1  0
  7 29  1  0
  8 30  1  0
  8 31  1  0
  9 32  1  0
  9 33  1  0
 10 34  1  0
 10 35  1  0
 13 36  1  0
 13 37  1  0
 13 38  1  0
 14 39  1  0
 16 40  1  0
 16 41  1  0
 21 42  1  0
M  END
$$$$
