
     RDKit          3D

 55 57  0  0  0  0  0  0  0  0999 V2000
    1.0956    0.3225    2.2614 O   0  0  0  0  0  0  0  0  0  0  0  0
    1.0786    0.6692    1.0870 C   0  0  0  0  0  0  0  0  0  0  0  0
    1.7788    1.7121    0.5138 N   0  0  0  0  0  0  0  0  0  0  0  0
    2.6452    2.6261    1.1423 C   0  0  0  0  0  0  0  0  0  0  0  0
    2.9126    2.6279    2.5120 C   0  0  0  0  0  0  0  0  0  0  0  0
    3.7843    3.5739    3.0620 C   0  0  0  0  0  0  0  0  0  0  0  0
    4.3953    4.5257    2.2454 C   0  0  0  0  0  0  0  0  0  0  0  0
    4.1350    4.5345    0.8761 C   0  0  0  0  0  0  0  0  0  0  0  0
    3.2635    3.5888    0.3276 C   0  0  0  0  0  0  0  0  0  0  0  0
    0.2492   -0.0582    0.0547 C   0  0  0  0  0  0  0  0  0  0  0  0
   -0.4722   -1.1231    0.4420 C   0  0  0  0  0  0  0  0  0  0  0  0
   -1.2776   -1.9466   -0.5219 C   0  0  0  0  0  0  0  0  0  0  0  0
   -1.1177   -3.4470   -0.3171 C   0  0  0  0  0  0  0  0  0  0  0  0
   -2.2412   -4.2812   -0.4058 C   0  0  0  0  0  0  0  0  0  0  0  0
   -2.1185   -5.6642   -0.2481 C   0  0  0  0  0  0  0  0  0  0  0  0
   -0.8687   -6.2456    0.0051 C   0  0  0  0  0  0  0  0  0  0  0  0
   -0.7265   -7.7396    0.1561 C   0  0  0  0  0  0  0  0  0  0  0  0
   -0.3256   -8.3388   -0.9987 F   0  0  0  0  0  0  0  0  0  0  0  0
   -1.8862   -8.3598    0.5157 F   0  0  0  0  0  0  0  0  0  0  0  0
    0.1900   -8.0952    1.0998 F   0  0  0  0  0  0  0  0  0  0  0  0
    0.2581   -5.4160    0.0788 C   0  0  0  0  0  0  0  0  0  0  0  0
    0.1358   -4.0337   -0.0826 C   0  0  0  0  0  0  0  0  0  0  0  0
   -0.9314   -1.5759   -1.9690 C   0  0  0  0  0  0  0  0  0  0  0  0
   -0.7709   -0.0641   -2.0960 C   0  0  0  0  0  0  0  0  0  0  0  0
   -2.0316    0.5602   -1.8355 O   0  0  0  0  0  0  0  0  0  0  0  0
   -2.1854    1.8543   -2.4132 C   0  0  0  0  0  0  0  0  0  0  0  0
   -1.4856    2.9659   -1.6269 C   0  0  0  0  0  0  0  0  0  0  0  0
   -1.9755    3.0627   -0.1796 C   0  0  0  0  0  0  0  0  0  0  0  0
   -1.2314    4.1542    0.5821 C   0  0  0  0  0  0  0  0  0  0  0  0
   -1.6996    4.2027    1.9243 O   0  0  0  0  0  0  0  0  0  0  0  0
    0.2786    0.4200   -1.2469 O   0  0  0  0  0  0  0  0  0  0  0  0
    1.6490    1.8118   -0.4853 H   0  0  0  0  0  0  0  0  0  0  0  0
    2.4578    1.9055    3.1824 H   0  0  0  0  0  0  0  0  0  0  0  0
    3.9860    3.5603    4.1306 H   0  0  0  0  0  0  0  0  0  0  0  0
    5.0753    5.2558    2.6768 H   0  0  0  0  0  0  0  0  0  0  0  0
    4.6134    5.2749    0.2342 H   0  0  0  0  0  0  0  0  0  0  0  0
    3.0784    3.6148   -0.7445 H   0  0  0  0  0  0  0  0  0  0  0  0
   -0.4846   -1.4232    1.4888 H   0  0  0  0  0  0  0  0  0  0  0  0
   -2.3292   -1.6904   -0.3308 H   0  0  0  0  0  0  0  0  0  0  0  0
   -3.2252   -3.8587   -0.6014 H   0  0  0  0  0  0  0  0  0  0  0  0
   -3.0078   -6.2878   -0.3235 H   0  0  0  0  0  0  0  0  0  0  0  0
    1.2417   -5.8442    0.2647 H   0  0  0  0  0  0  0  0  0  0  0  0
    1.0316   -3.4189   -0.0213 H   0  0  0  0  0  0  0  0  0  0  0  0
   -1.7215   -1.9355   -2.6401 H   0  0  0  0  0  0  0  0  0  0  0  0
    0.0072   -2.0577   -2.2740 H   0  0  0  0  0  0  0  0  0  0  0  0
   -0.4701    0.1498   -3.1291 H   0  0  0  0  0  0  0  0  0  0  0  0
   -1.8465    1.8469   -3.4604 H   0  0  0  0  0  0  0  0  0  0  0  0
   -3.2631    2.0584   -2.4342 H   0  0  0  0  0  0  0  0  0  0  0  0
   -0.4031    2.8060   -1.6386 H   0  0  0  0  0  0  0  0  0  0  0  0
   -1.6639    3.9220   -2.1342 H   0  0  0  0  0  0  0  0  0  0  0  0
   -1.8525    2.1062    0.3402 H   0  0  0  0  0  0  0  0  0  0  0  0
   -3.0514    3.2753   -0.1550 H   0  0  0  0  0  0  0  0  0  0  0  0
   -0.1547    3.9547    0.5893 H   0  0  0  0  0  0  0  0  0  0  0  0
   -1.3997    5.1333    0.1201 H   0  0  0  0  0  0  0  0  0  0  0  0
   -1.1222    4.8289    2.4006 H   0  0  0  0  0  0  0  0  0  0  0  0
  1  2  2  0
  2  3  1  0
  3  4  1  0
  4  5  2  0
  5  6  1  0
  6  7  2  0
  7  8  1  0
  8  9  2  0
  2 10  1  0
 10 11  2  0
 11 12  1  0
 12 13  1  0
 13 14  2  0
 14 15  1  0
 15 16  2  0
 16 17  1  0
 17 18  1  0
 17 19  1  0
 17 20  1  0
 16 21  1  0
 21 22  2  0
 12 23  1  0
 23 24  1  0
 24 25  1  0
 25 26  1  0
 26 27  1  0
 27 28  1  0
 28 29  1  0
 29 30  1  0
 24 31  1  0
  9  4  1  0
 31 10  1  0
 22 13  1  0
  3 32  1  0
  5 33  1  0
  6 34  1  0
  7 35  1  0
  8 36  1  0
  9 37  1  0
 11 38  1  0
 12 39  1  0
 14 40  1  0
 15 41  1  0
 21 42  1  0
 22 43  1  0
 23 44  1  0
 23 45  1  0
 24 46  1  0
 26 47  1  0
 26 48  1  0
 27 49  1  0
 27 50  1  0
 28 51  1  0
 28 52  1  0
 29 53  1  0
 29 54  1  0
 30 55  1  0
M  END
$$$$
