
     RDKit          3D

 54 57  0  0  0  0  0  0  0  0999 V2000
    8.0249    3.5173    0.2741 C   0  0  0  0  0  0  0  0  0  0  0  0
    6.6835    3.8470    0.6119 O   0  0  0  0  0  0  0  0  0  0  0  0
    5.7643    2.8380    0.5404 C   0  0  0  0  0  0  0  0  0  0  0  0
    6.0146    1.5228    0.1615 C   0  0  0  0  0  0  0  0  0  0  0  0
    4.9699    0.5879    0.1327 C   0  0  0  0  0  0  0  0  0  0  0  0
    3.6511    0.9332    0.4833 C   0  0  0  0  0  0  0  0  0  0  0  0
    2.5710   -0.0774    0.4454 C   0  0  0  0  0  0  0  0  0  0  0  0
    1.4455   -0.0180    1.2479 C   0  0  0  0  0  0  0  0  0  0  0  0
    0.4772   -1.0161    1.1207 C   0  0  0  0  0  0  0  0  0  0  0  0
   -0.7339   -0.8482    1.9564 C   0  0  0  0  0  0  0  0  0  0  0  0
   -0.6258   -0.6292    3.1555 O   0  0  0  0  0  0  0  0  0  0  0  0
   -1.9311   -0.8769    1.2746 N   0  0  0  0  0  0  0  0  0  0  0  0
   -3.1720   -0.5251    1.9434 C   0  0  0  0  0  0  0  0  0  0  0  0
   -4.4289   -0.9030    1.1369 C   0  0  0  0  0  0  0  0  0  0  0  0
   -4.9121    0.1280    0.1953 N   0  0  0  0  0  0  0  0  0  0  0  0
   -3.9623    0.4290   -0.8929 C   0  0  0  0  0  0  0  0  0  0  0  0
   -4.5501    1.4248   -1.9088 C   0  0  0  0  0  0  0  0  0  0  0  0
   -5.7769    0.9384   -2.4648 O   0  0  0  0  0  0  0  0  0  0  0  0
   -6.7297    0.7197   -1.4173 C   0  0  0  0  0  0  0  0  0  0  0  0
   -6.2003   -0.3013   -0.3993 C   0  0  0  0  0  0  0  0  0  0  0  0
    0.6563   -2.0999    0.2341 C   0  0  0  0  0  0  0  0  0  0  0  0
   -0.2283   -3.2013    0.0914 C   0  0  0  0  0  0  0  0  0  0  0  0
    0.0317   -4.2216   -0.8214 C   0  0  0  0  0  0  0  0  0  0  0  0
    1.1797   -4.1650   -1.5970 C   0  0  0  0  0  0  0  0  0  0  0  0
    2.0643   -3.0954   -1.4440 C   0  0  0  0  0  0  0  0  0  0  0  0
    1.8302   -2.0687   -0.5389 C   0  0  0  0  0  0  0  0  0  0  0  0
    2.7451   -1.0898   -0.4412 N   0  0  0  0  0  0  0  0  0  0  0  0
    3.4220    2.2689    0.8552 C   0  0  0  0  0  0  0  0  0  0  0  0
    4.4640    3.2046    0.8845 C   0  0  0  0  0  0  0  0  0  0  0  0
    8.6295    4.4226    0.3847 H   0  0  0  0  0  0  0  0  0  0  0  0
    8.1007    3.1917   -0.7687 H   0  0  0  0  0  0  0  0  0  0  0  0
    8.4295    2.7615    0.9554 H   0  0  0  0  0  0  0  0  0  0  0  0
    7.0059    1.1840   -0.1197 H   0  0  0  0  0  0  0  0  0  0  0  0
    5.1967   -0.4345   -0.1683 H   0  0  0  0  0  0  0  0  0  0  0  0
    1.3052    0.7793    1.9709 H   0  0  0  0  0  0  0  0  0  0  0  0
   -1.9023   -0.8493    0.2641 H   0  0  0  0  0  0  0  0  0  0  0  0
   -3.1491    0.5469    2.1708 H   0  0  0  0  0  0  0  0  0  0  0  0
   -3.1889   -1.0561    2.9029 H   0  0  0  0  0  0  0  0  0  0  0  0
   -4.2704   -1.8597    0.6220 H   0  0  0  0  0  0  0  0  0  0  0  0
   -5.2264   -1.0651    1.8739 H   0  0  0  0  0  0  0  0  0  0  0  0
   -3.0492    0.8760   -0.4878 H   0  0  0  0  0  0  0  0  0  0  0  0
   -3.6932   -0.4963   -1.4183 H   0  0  0  0  0  0  0  0  0  0  0  0
   -3.8461    1.5674   -2.7349 H   0  0  0  0  0  0  0  0  0  0  0  0
   -4.7239    2.4049   -1.4481 H   0  0  0  0  0  0  0  0  0  0  0  0
   -6.9687    1.6760   -0.9364 H   0  0  0  0  0  0  0  0  0  0  0  0
   -7.6473    0.3411   -1.8787 H   0  0  0  0  0  0  0  0  0  0  0  0
   -6.9511   -0.4293    0.3889 H   0  0  0  0  0  0  0  0  0  0  0  0
   -6.0700   -1.2674   -0.9046 H   0  0  0  0  0  0  0  0  0  0  0  0
   -1.1202   -3.2840    0.7093 H   0  0  0  0  0  0  0  0  0  0  0  0
   -0.6544   -5.0595   -0.9176 H   0  0  0  0  0  0  0  0  0  0  0  0
    1.3999   -4.9535   -2.3121 H   0  0  0  0  0  0  0  0  0  0  0  0
    2.9703   -3.0655   -2.0461 H   0  0  0  0  0  0  0  0  0  0  0  0
    2.4245    2.6145    1.1153 H   0  0  0  0  0  0  0  0  0  0  0  0
    4.2552    4.2315    1.1756 H   0  0  0  0  0  0  0  0  0  0  0  0
  1  2  1  0
  2  3  1  0
  3  4  2  0
  4  5  1  0
  5  6  2  0
  6  7  1  0
  7  8  2  0
  8  9  1  0
  9 10  1  0
 10 11  2  0
 10 12  1  0
 12 13  1  0
 13 14  1  0
 14 15  1  0
 15 16  1  0
 16 17  1  0
 17 18  1  0
 18 19  1  0
 19 20  1  0
  9 21  2  0
 21 22  1  0
 22 23  2  0
 23 24  1  0
 24 25  2  0
 25 26  1  0
 26 27  2  0
  6 28  1  0
 28 29  2  0
 29  3  1  0
 27  7  1  0
 20 15  1  0
 26 21  1  0
  1 30  1  0
  1 31  1  0
  1 32  1  0
  4 33  1  0
  5 34  1  0
  8 35  1  0
 12 36  1  0
 13 37  1  0
 13 38  1  0
 14 39  1  0
 14 40  1  0
 16 41  1  0
 16 42  1  0
 17 43  1  0
 17 44  1  0
 19 45  1  0
 19 46  1  0
 20 47  1  0
 20 48  1  0
 22 49  1  0
 23 50  1  0
 24 51  1  0
 25 52  1  0
 28 53  1  0
 29 54  1  0
M  END
$$$$
