
     RDKit          3D

 46 47  0  0  0  0  0  0  0  0999 V2000
    0.9275    2.0571    0.4629 O   0  0  0  0  0  0  0  0  0  0  0  0
    0.7502    0.8510    0.3554 C   0  0  0  0  0  0  0  0  0  0  0  0
   -0.4651    0.2032    0.3309 N   0  0  0  0  0  0  0  0  0  0  0  0
   -1.7013    0.8919    0.6214 C   0  0  0  0  0  0  0  0  0  0  0  0
   -2.9105    0.1034    0.1292 C   0  0  0  0  0  0  0  0  0  0  0  0
   -4.2124    0.8448    0.4532 C   0  0  0  0  0  0  0  0  0  0  0  0
   -5.4001    0.1845   -0.1116 N   0  0  0  0  0  0  0  0  0  0  0  0
   -6.5813    1.0705    0.0111 C   0  0  0  0  0  0  0  0  0  0  0  0
   -7.8547    0.3945   -0.5196 C   0  0  0  0  0  0  0  0  0  0  0  0
   -8.1157   -0.8304    0.1769 O   0  0  0  0  0  0  0  0  0  0  0  0
   -7.0054   -1.7231    0.0219 C   0  0  0  0  0  0  0  0  0  0  0  0
   -5.7064   -1.0987    0.5597 C   0  0  0  0  0  0  0  0  0  0  0  0
    1.9617   -0.0931    0.2465 C   0  0  0  0  0  0  0  0  0  0  0  0
    1.7880   -1.3044    0.2304 O   0  0  0  0  0  0  0  0  0  0  0  0
    3.1544    0.6014    0.1843 N   0  0  0  0  0  0  0  0  0  0  0  0
    4.3378   -0.0614    0.0939 N   0  0  0  0  0  0  0  0  0  0  0  0
    5.3926    0.6901    0.0493 C   0  0  0  0  0  0  0  0  0  0  0  0
    6.7430    0.1020   -0.0488 C   0  0  0  0  0  0  0  0  0  0  0  0
    7.8373    0.9739   -0.0936 C   0  0  0  0  0  0  0  0  0  0  0  0
    9.1329    0.4600   -0.1862 C   0  0  0  0  0  0  0  0  0  0  0  0
    9.3365   -0.9196   -0.2339 C   0  0  0  0  0  0  0  0  0  0  0  0
    8.2466   -1.7899   -0.1892 C   0  0  0  0  0  0  0  0  0  0  0  0
    6.9533   -1.2812   -0.0970 C   0  0  0  0  0  0  0  0  0  0  0  0
    5.9399   -2.1993   -0.0583 O   0  0  0  0  0  0  0  0  0  0  0  0
   -0.4176   -0.8128    0.3874 H   0  0  0  0  0  0  0  0  0  0  0  0
   -1.7469    1.0323    1.7073 H   0  0  0  0  0  0  0  0  0  0  0  0
   -1.6685    1.8850    0.1591 H   0  0  0  0  0  0  0  0  0  0  0  0
   -2.9011   -0.8880    0.5967 H   0  0  0  0  0  0  0  0  0  0  0  0
   -2.8281   -0.0546   -0.9537 H   0  0  0  0  0  0  0  0  0  0  0  0
   -4.3134    0.9705    1.5392 H   0  0  0  0  0  0  0  0  0  0  0  0
   -4.1332    1.8520    0.0233 H   0  0  0  0  0  0  0  0  0  0  0  0
   -6.7353    1.3406    1.0642 H   0  0  0  0  0  0  0  0  0  0  0  0
   -6.4150    1.9941   -0.5552 H   0  0  0  0  0  0  0  0  0  0  0  0
   -7.7805    0.1925   -1.5950 H   0  0  0  0  0  0  0  0  0  0  0  0
   -8.7155    1.0527   -0.3639 H   0  0  0  0  0  0  0  0  0  0  0  0
   -6.9060   -1.9975   -1.0354 H   0  0  0  0  0  0  0  0  0  0  0  0
   -7.2354   -2.6357    0.5810 H   0  0  0  0  0  0  0  0  0  0  0  0
   -5.8120   -0.9372    1.6404 H   0  0  0  0  0  0  0  0  0  0  0  0
   -4.8977   -1.8188    0.4005 H   0  0  0  0  0  0  0  0  0  0  0  0
    3.1160    1.6189    0.2250 H   0  0  0  0  0  0  0  0  0  0  0  0
    5.3244    1.7927    0.0825 H   0  0  0  0  0  0  0  0  0  0  0  0
    7.6975    2.0511   -0.0576 H   0  0  0  0  0  0  0  0  0  0  0  0
    9.9858    1.1340   -0.2214 H   0  0  0  0  0  0  0  0  0  0  0  0
   10.3447   -1.3204   -0.3060 H   0  0  0  0  0  0  0  0  0  0  0  0
    8.4026   -2.8649   -0.2263 H   0  0  0  0  0  0  0  0  0  0  0  0
    5.0866   -1.7134    0.0044 H   0  0  0  0  0  0  0  0  0  0  0  0
  1  2  2  0
  2  3  1  0
  3  4  1  0
  4  5  1  0
  5  6  1  0
  6  7  1  0
  7  8  1  0
  8  9  1  0
  9 10  1  0
 10 11  1  0
 11 12  1  0
  2 13  1  0
 13 14  2  0
 13 15  1  0
 15 16  1  0
 16 17  2  3
 17 18  1  0
 18 19  2  0
 19 20  1  0
 20 21  2  0
 21 22  1  0
 22 23  2  0
 23 24  1  0
 12  7  1  0
 23 18  1  0
  3 25  1  0
  4 26  1  0
  4 27  1  0
  5 28  1  0
  5 29  1  0
  6 30  1  0
  6 31  1  0
  8 32  1  0
  8 33  1  0
  9 34  1  0
  9 35  1  0
 11 36  1  0
 11 37  1  0
 12 38  1  0
 12 39  1  0
 15 40  1  0
 17 41  1  0
 19 42  1  0
 20 43  1  0
 21 44  1  0
 22 45  1  0
 24 46  1  0
M  END
$$$$
