
     RDKit          3D

 39 41  0  0  0  0  0  0  0  0999 V2000
    5.5600    0.4045   -2.2777 C   0  0  0  0  0  0  0  0  0  0  0  0
    4.4174    1.0089   -1.5083 C   0  0  0  0  0  0  0  0  0  0  0  0
    3.4707    1.7920   -2.1862 C   0  0  0  0  0  0  0  0  0  0  0  0
    2.4001    2.3693   -1.5012 C   0  0  0  0  0  0  0  0  0  0  0  0
    2.2486    2.1656   -0.1309 C   0  0  0  0  0  0  0  0  0  0  0  0
    1.1841    2.7603    0.5596 N   0  0  0  0  0  0  0  0  0  0  0  0
    0.0816    2.1106    0.7034 C   0  0  0  0  0  0  0  0  0  0  0  0
   -0.9523    2.6780    1.3695 N   0  0  0  0  0  0  0  0  0  0  0  0
   -2.1088    1.9648    1.5007 C   0  0  0  0  0  0  0  0  0  0  0  0
   -3.1034    2.3813    2.0719 O   0  0  0  0  0  0  0  0  0  0  0  0
   -1.9563    0.6324    0.8443 C   0  0  0  0  0  0  0  0  0  0  0  0
   -2.8522   -0.3616    0.7475 C   0  0  0  0  0  0  0  0  0  0  0  0
   -4.1938   -0.3818    1.2972 C   0  0  0  0  0  0  0  0  0  0  0  0
   -5.1540   -1.3029    1.1138 C   0  0  0  0  0  0  0  0  0  0  0  0
   -5.0875   -2.4367    0.2592 C   0  0  0  0  0  0  0  0  0  0  0  0
   -4.5523   -2.6002   -1.0151 C   0  0  0  0  0  0  0  0  0  0  0  0
   -4.7857   -3.9348   -1.4237 C   0  0  0  0  0  0  0  0  0  0  0  0
   -5.4712   -4.5240   -0.3941 C   0  0  0  0  0  0  0  0  0  0  0  0
   -5.6704   -3.6366    0.6090 O   0  0  0  0  0  0  0  0  0  0  0  0
   -0.3633    0.5166    0.1584 S   0  0  0  0  0  0  0  0  0  0  0  0
    3.2007    1.4069    0.5548 C   0  0  0  0  0  0  0  0  0  0  0  0
    4.2849    0.8184   -0.1183 C   0  0  0  0  0  0  0  0  0  0  0  0
    5.2784    0.0016    0.6612 C   0  0  0  0  0  0  0  0  0  0  0  0
    5.5607   -0.6844   -2.1666 H   0  0  0  0  0  0  0  0  0  0  0  0
    5.4847    0.6243   -3.3480 H   0  0  0  0  0  0  0  0  0  0  0  0
    6.5128    0.8093   -1.9225 H   0  0  0  0  0  0  0  0  0  0  0  0
    3.5621    1.9628   -3.2566 H   0  0  0  0  0  0  0  0  0  0  0  0
    1.6823    2.9814   -2.0394 H   0  0  0  0  0  0  0  0  0  0  0  0
   -0.8676    3.6059    1.7511 H   0  0  0  0  0  0  0  0  0  0  0  0
   -2.5397   -1.2675    0.2321 H   0  0  0  0  0  0  0  0  0  0  0  0
   -4.4449    0.4270    1.9836 H   0  0  0  0  0  0  0  0  0  0  0  0
   -6.0766   -1.1997    1.6809 H   0  0  0  0  0  0  0  0  0  0  0  0
   -4.0598   -1.8299   -1.5924 H   0  0  0  0  0  0  0  0  0  0  0  0
   -4.5015   -4.4017   -2.3558 H   0  0  0  0  0  0  0  0  0  0  0  0
   -5.8763   -5.5127   -0.2305 H   0  0  0  0  0  0  0  0  0  0  0  0
    3.0903    1.2774    1.6288 H   0  0  0  0  0  0  0  0  0  0  0  0
    6.2809    0.4311    0.5681 H   0  0  0  0  0  0  0  0  0  0  0  0
    5.2878   -1.0314    0.2995 H   0  0  0  0  0  0  0  0  0  0  0  0
    5.0296   -0.0244    1.7274 H   0  0  0  0  0  0  0  0  0  0  0  0
  1  2  1  0
  2  3  2  0
  3  4  1  0
  4  5  2  0
  5  6  1  0
  6  7  2  3
  7  8  1  0
  8  9  1  0
  9 10  2  0
  9 11  1  0
 11 12  2  3
 12 13  1  0
 13 14  2  3
 14 15  1  0
 15 16  2  0
 16 17  1  0
 17 18  2  0
 18 19  1  0
 11 20  1  0
  5 21  1  0
 21 22  2  0
 22 23  1  0
 22  2  1  0
 20  7  1  0
 19 15  1  0
  1 24  1  0
  1 25  1  0
  1 26  1  0
  3 27  1  0
  4 28  1  0
  8 29  1  0
 12 30  1  0
 13 31  1  0
 14 32  1  0
 16 33  1  0
 17 34  1  0
 18 35  1  0
 21 36  1  0
 23 37  1  0
 23 38  1  0
 23 39  1  0
M  END
$$$$
