
     RDKit          3D

 40 43  0  0  0  0  0  0  0  0999 V2000
   -1.3952    2.6860    0.8532 C   0  0  0  0  0  0  0  0  0  0  0  0
   -1.0153    3.0877   -0.3687 C   0  0  0  0  0  0  0  0  0  0  0  0
   -1.1767    2.3727   -1.6880 C   0  0  0  0  0  0  0  0  0  0  0  0
   -1.7010    1.0163   -1.5348 N   0  0  0  0  0  0  0  0  0  0  0  0
   -0.9092   -0.0828   -1.2402 C   0  0  0  0  0  0  0  0  0  0  0  0
    0.8222    0.1407   -1.0767 S   0  0  0  0  0  0  0  0  0  0  0  0
    1.0972   -0.8901    0.3942 C   0  0  0  0  0  0  0  0  0  0  0  0
    2.4875   -0.6423    0.9373 C   0  0  0  0  0  0  0  0  0  0  0  0
    3.4902   -1.4963    0.6691 C   0  0  0  0  0  0  0  0  0  0  0  0
    4.8387   -1.2328    1.2142 C   0  0  0  0  0  0  0  0  0  0  0  0
    5.7593   -2.0083    0.9737 O   0  0  0  0  0  0  0  0  0  0  0  0
    4.9285   -0.0953    1.9755 N   0  0  0  0  0  0  0  0  0  0  0  0
    6.0781    0.3566    2.5862 C   0  0  0  0  0  0  0  0  0  0  0  0
    5.9121    1.4849    3.2860 C   0  0  0  0  0  0  0  0  0  0  0  0
    4.2635    2.0469    3.2121 S   0  0  0  0  0  0  0  0  0  0  0  0
    3.8186    0.6881    2.1915 C   0  0  0  0  0  0  0  0  0  0  0  0
    2.6328    0.4765    1.7340 N   0  0  0  0  0  0  0  0  0  0  0  0
   -1.3566   -1.2865   -1.0856 N   0  0  0  0  0  0  0  0  0  0  0  0
   -2.7290   -1.5103   -1.2156 C   0  0  0  0  0  0  0  0  0  0  0  0
   -3.2216   -2.8059   -1.0398 C   0  0  0  0  0  0  0  0  0  0  0  0
   -4.5884   -3.0708   -1.1615 C   0  0  0  0  0  0  0  0  0  0  0  0
   -5.4757   -2.0380   -1.4614 C   0  0  0  0  0  0  0  0  0  0  0  0
   -4.9948   -0.7415   -1.6397 C   0  0  0  0  0  0  0  0  0  0  0  0
   -3.6231   -0.4882   -1.5153 C   0  0  0  0  0  0  0  0  0  0  0  0
   -3.0777    0.8676   -1.6960 C   0  0  0  0  0  0  0  0  0  0  0  0
   -3.8499    1.7815   -1.9776 O   0  0  0  0  0  0  0  0  0  0  0  0
   -1.9006    1.7436    1.0327 H   0  0  0  0  0  0  0  0  0  0  0  0
   -1.2061    3.3126    1.7204 H   0  0  0  0  0  0  0  0  0  0  0  0
   -0.5213    4.0555   -0.4463 H   0  0  0  0  0  0  0  0  0  0  0  0
   -0.2136    2.3460   -2.2070 H   0  0  0  0  0  0  0  0  0  0  0  0
   -1.8424    2.9690   -2.3226 H   0  0  0  0  0  0  0  0  0  0  0  0
    0.9684   -1.9444    0.1249 H   0  0  0  0  0  0  0  0  0  0  0  0
    0.3548   -0.6531    1.1652 H   0  0  0  0  0  0  0  0  0  0  0  0
    3.3761   -2.3779    0.0518 H   0  0  0  0  0  0  0  0  0  0  0  0
    7.0014   -0.1977    2.4718 H   0  0  0  0  0  0  0  0  0  0  0  0
    6.6839    2.0037    3.8380 H   0  0  0  0  0  0  0  0  0  0  0  0
   -2.5329   -3.6144   -0.8076 H   0  0  0  0  0  0  0  0  0  0  0  0
   -4.9586   -4.0838   -1.0227 H   0  0  0  0  0  0  0  0  0  0  0  0
   -6.5395   -2.2421   -1.5569 H   0  0  0  0  0  0  0  0  0  0  0  0
   -5.6842    0.0666   -1.8741 H   0  0  0  0  0  0  0  0  0  0  0  0
  1  2  2  0
  2  3  1  0
  3  4  1  0
  4  5  1  0
  5  6  1  0
  6  7  1  0
  7  8  1  0
  8  9  2  0
  9 10  1  0
 10 11  2  0
 10 12  1  0
 12 13  1  0
 13 14  2  0
 14 15  1  0
 15 16  1  0
 16 17  2  0
  5 18  2  0
 18 19  1  0
 19 20  2  0
 20 21  1  0
 21 22  2  0
 22 23  1  0
 23 24  2  0
 24 25  1  0
 25 26  2  0
 25  4  1  0
 17  8  1  0
 24 19  1  0
 16 12  1  0
  1 27  1  0
  1 28  1  0
  2 29  1  0
  3 30  1  0
  3 31  1  0
  7 32  1  0
  7 33  1  0
  9 34  1  0
 13 35  1  0
 14 36  1  0
 20 37  1  0
 21 38  1  0
 22 39  1  0
 23 40  1  0
M  END
$$$$
