
     RDKit          3D

 62 63  0  0  0  0  0  0  0  0999 V2000
   -5.6860   -1.0284   -2.2723 C   0  0  0  0  0  0  0  0  0  0  0  0
   -5.6834   -1.1621   -0.7323 C   0  0  0  0  0  0  0  0  0  0  0  0
   -5.4272   -2.6520   -0.4098 C   0  0  0  0  0  0  0  0  0  0  0  0
   -7.0849   -0.8068   -0.1883 C   0  0  0  0  0  0  0  0  0  0  0  0
   -4.6396   -0.2066   -0.1231 C   0  0  0  0  0  0  0  0  0  0  0  0
   -3.6015   -0.6491    0.7091 C   0  0  0  0  0  0  0  0  0  0  0  0
   -2.6612    0.2409    1.2436 C   0  0  0  0  0  0  0  0  0  0  0  0
   -2.7320    1.6020    0.9535 C   0  0  0  0  0  0  0  0  0  0  0  0
   -1.8481    2.5563    1.4023 O   0  0  0  0  0  0  0  0  0  0  0  0
   -0.6348    2.1238    2.0190 C   0  0  0  0  0  0  0  0  0  0  0  0
    0.3964    1.6552    0.9911 C   0  0  0  0  0  0  0  0  0  0  0  0
    1.5737    1.2412    1.6871 O   0  0  0  0  0  0  0  0  0  0  0  0
    2.5630    0.6502    0.9345 C   0  0  0  0  0  0  0  0  0  0  0  0
    2.5870    0.6063   -0.4583 C   0  0  0  0  0  0  0  0  0  0  0  0
    3.6445   -0.0223   -1.1251 C   0  0  0  0  0  0  0  0  0  0  0  0
    4.7049   -0.6261   -0.4256 C   0  0  0  0  0  0  0  0  0  0  0  0
    5.8504   -1.3092   -1.1970 C   0  0  0  0  0  0  0  0  0  0  0  0
    6.8870   -2.0118   -0.2909 C   0  0  0  0  0  0  0  0  0  0  0  0
    5.2802   -2.3855   -2.1467 C   0  0  0  0  0  0  0  0  0  0  0  0
    6.6068   -0.2510   -2.0266 C   0  0  0  0  0  0  0  0  0  0  0  0
    4.6704   -0.5604    0.9797 C   0  0  0  0  0  0  0  0  0  0  0  0
    3.6196    0.0686    1.6615 C   0  0  0  0  0  0  0  0  0  0  0  0
    3.5531    0.1590    3.0701 N   0  0  0  0  0  0  0  0  0  0  0  0
    4.4356   -0.3306    3.9983 C   0  0  0  0  0  0  0  0  0  0  0  0
    5.4663   -0.9662    3.8275 O   0  0  0  0  0  0  0  0  0  0  0  0
   -3.7742    2.0779    0.1358 C   0  0  0  0  0  0  0  0  0  0  0  0
   -3.8132    3.4681   -0.1108 N   0  0  0  0  0  0  0  0  0  0  0  0
   -4.6704    4.1629   -0.9253 C   0  0  0  0  0  0  0  0  0  0  0  0
   -5.5668    3.7416   -1.6412 O   0  0  0  0  0  0  0  0  0  0  0  0
   -4.7095    1.1776   -0.3892 C   0  0  0  0  0  0  0  0  0  0  0  0
   -4.6904   -1.2313   -2.6885 H   0  0  0  0  0  0  0  0  0  0  0  0
   -6.3884   -1.7358   -2.7293 H   0  0  0  0  0  0  0  0  0  0  0  0
   -5.9854   -0.0274   -2.6038 H   0  0  0  0  0  0  0  0  0  0  0  0
   -6.1825   -3.2937   -0.8800 H   0  0  0  0  0  0  0  0  0  0  0  0
   -5.4676   -2.8450    0.6685 H   0  0  0  0  0  0  0  0  0  0  0  0
   -4.4487   -2.9818   -0.7787 H   0  0  0  0  0  0  0  0  0  0  0  0
   -7.8453   -1.4915   -0.5808 H   0  0  0  0  0  0  0  0  0  0  0  0
   -7.3916    0.2068   -0.4669 H   0  0  0  0  0  0  0  0  0  0  0  0
   -7.1127   -0.8700    0.9065 H   0  0  0  0  0  0  0  0  0  0  0  0
   -3.4918   -1.7004    0.9648 H   0  0  0  0  0  0  0  0  0  0  0  0
   -1.8866   -0.1784    1.8781 H   0  0  0  0  0  0  0  0  0  0  0  0
   -0.2216    2.9944    2.5429 H   0  0  0  0  0  0  0  0  0  0  0  0
   -0.8075    1.3879    2.8126 H   0  0  0  0  0  0  0  0  0  0  0  0
   -0.0120    0.8253    0.4035 H   0  0  0  0  0  0  0  0  0  0  0  0
    0.6251    2.4860    0.3120 H   0  0  0  0  0  0  0  0  0  0  0  0
    1.8073    1.0551   -1.0649 H   0  0  0  0  0  0  0  0  0  0  0  0
    3.6291   -0.0285   -2.2131 H   0  0  0  0  0  0  0  0  0  0  0  0
    6.4208   -2.7863    0.3295 H   0  0  0  0  0  0  0  0  0  0  0  0
    7.6664   -2.5003   -0.8872 H   0  0  0  0  0  0  0  0  0  0  0  0
    7.3934   -1.3016    0.3723 H   0  0  0  0  0  0  0  0  0  0  0  0
    6.0840   -2.9171   -2.6694 H   0  0  0  0  0  0  0  0  0  0  0  0
    4.6303   -1.9586   -2.9190 H   0  0  0  0  0  0  0  0  0  0  0  0
    4.6920   -3.1283   -1.5954 H   0  0  0  0  0  0  0  0  0  0  0  0
    7.4378   -0.7040   -2.5798 H   0  0  0  0  0  0  0  0  0  0  0  0
    5.9583    0.2420   -2.7592 H   0  0  0  0  0  0  0  0  0  0  0  0
    7.0247    0.5307   -1.3819 H   0  0  0  0  0  0  0  0  0  0  0  0
    5.4786   -1.0015    1.5536 H   0  0  0  0  0  0  0  0  0  0  0  0
    2.7358    0.6520    3.4147 H   0  0  0  0  0  0  0  0  0  0  0  0
    4.0963   -0.0791    5.0178 H   0  0  0  0  0  0  0  0  0  0  0  0
   -3.0922    3.9959    0.3721 H   0  0  0  0  0  0  0  0  0  0  0  0
   -4.4460    5.2428   -0.8854 H   0  0  0  0  0  0  0  0  0  0  0  0
   -5.5159    1.5458   -1.0163 H   0  0  0  0  0  0  0  0  0  0  0  0
  1  2  1  0
  2  3  1  0
  2  4  1  0
  2  5  1  0
  5  6  2  0
  6  7  1  0
  7  8  2  0
  8  9  1  0
  9 10  1  0
 10 11  1  0
 11 12  1  0
 12 13  1  0
 13 14  2  0
 14 15  1  0
 15 16  2  0
 16 17  1  0
 17 18  1  0
 17 19  1  0
 17 20  1  0
 16 21  1  0
 21 22  2  0
 22 23  1  0
 23 24  1  0
 24 25  2  0
  8 26  1  0
 26 27  1  0
 27 28  1  0
 28 29  2  0
 26 30  2  0
 30  5  1  0
 22 13  1  0
  1 31  1  0
  1 32  1  0
  1 33  1  0
  3 34  1  0
  3 35  1  0
  3 36  1  0
  4 37  1  0
  4 38  1  0
  4 39  1  0
  6 40  1  0
  7 41  1  0
 10 42  1  0
 10 43  1  0
 11 44  1  0
 11 45  1  0
 14 46  1  0
 15 47  1  0
 18 48  1  0
 18 49  1  0
 18 50  1  0
 19 51  1  0
 19 52  1  0
 19 53  1  0
 20 54  1  0
 20 55  1  0
 20 56  1  0
 21 57  1  0
 23 58  1  0
 24 59  1  0
 27 60  1  0
 28 61  1  0
 30 62  1  0
M  END
$$$$
