
     RDKit          3D

 66 68  0  0  0  0  0  0  0  0999 V2000
   -0.1691    3.8336   -0.3039 C   0  0  0  0  0  0  0  0  0  0  0  0
   -1.5135    3.5494    0.0605 O   0  0  0  0  0  0  0  0  0  0  0  0
   -1.6674    3.5513    1.4870 C   0  0  0  0  0  0  0  0  0  0  0  0
   -3.1265    3.2299    1.8436 C   0  0  0  0  0  0  0  0  0  0  0  0
   -3.2819    2.1713    2.8437 N   0  0  0  0  0  0  0  0  0  0  0  0
   -2.9981    0.8416    2.7594 C   0  0  0  0  0  0  0  0  0  0  0  0
   -2.8700    0.0277    4.2214 S   0  0  0  0  0  0  0  0  0  0  0  0
   -2.8321    0.2863    1.5021 N   0  0  0  0  0  0  0  0  0  0  0  0
   -3.9784    0.3538    0.5921 C   0  0  0  0  0  0  0  0  0  0  0  0
   -3.5143    0.3681   -0.8566 C   0  0  0  0  0  0  0  0  0  0  0  0
   -2.7738   -0.9131   -1.1392 C   0  0  0  0  0  0  0  0  0  0  0  0
   -2.7926   -1.4694   -2.4269 C   0  0  0  0  0  0  0  0  0  0  0  0
   -2.1351   -2.6735   -2.6954 C   0  0  0  0  0  0  0  0  0  0  0  0
   -2.1160   -3.2905   -3.9224 O   0  0  0  0  0  0  0  0  0  0  0  0
   -2.6491   -2.5711   -5.0248 C   0  0  0  0  0  0  0  0  0  0  0  0
   -1.4573   -3.3373   -1.6565 C   0  0  0  0  0  0  0  0  0  0  0  0
   -0.8404   -4.5162   -1.9928 O   0  0  0  0  0  0  0  0  0  0  0  0
   -0.3711   -5.3357   -0.9339 C   0  0  0  0  0  0  0  0  0  0  0  0
   -1.4176   -2.7648   -0.3777 C   0  0  0  0  0  0  0  0  0  0  0  0
   -2.0542   -1.5388   -0.1075 C   0  0  0  0  0  0  0  0  0  0  0  0
   -1.9432   -0.9037    1.2904 C   0  0  0  0  0  0  0  0  0  0  0  0
   -0.4551   -0.5641    1.6015 C   0  0  0  0  0  0  0  0  0  0  0  0
    0.0670    0.3170    0.5978 O   0  0  0  0  0  0  0  0  0  0  0  0
    1.4289    0.3762    0.5146 C   0  0  0  0  0  0  0  0  0  0  0  0
    1.9378    0.6557   -0.7520 C   0  0  0  0  0  0  0  0  0  0  0  0
    3.3145    0.7790   -0.9495 C   0  0  0  0  0  0  0  0  0  0  0  0
    4.2054    0.6411    0.1250 C   0  0  0  0  0  0  0  0  0  0  0  0
    5.6988    0.7816   -0.1150 C   0  0  0  0  0  0  0  0  0  0  0  0
    6.3503    1.7927    0.8347 C   0  0  0  0  0  0  0  0  0  0  0  0
    6.3972   -0.5786   -0.0245 C   0  0  0  0  0  0  0  0  0  0  0  0
    3.6811    0.3565    1.3957 C   0  0  0  0  0  0  0  0  0  0  0  0
    2.3007    0.2345    1.5908 C   0  0  0  0  0  0  0  0  0  0  0  0
    0.0744    4.8702   -0.0483 H   0  0  0  0  0  0  0  0  0  0  0  0
    0.5145    3.1442    0.1939 H   0  0  0  0  0  0  0  0  0  0  0  0
   -0.0710    3.7106   -1.3869 H   0  0  0  0  0  0  0  0  0  0  0  0
   -1.4269    4.5617    1.8510 H   0  0  0  0  0  0  0  0  0  0  0  0
   -0.9716    2.8336    1.9396 H   0  0  0  0  0  0  0  0  0  0  0  0
   -3.5815    4.1188    2.3053 H   0  0  0  0  0  0  0  0  0  0  0  0
   -3.7118    3.0098    0.9482 H   0  0  0  0  0  0  0  0  0  0  0  0
   -3.3691    2.4873    3.8025 H   0  0  0  0  0  0  0  0  0  0  0  0
   -4.6045   -0.5271    0.7982 H   0  0  0  0  0  0  0  0  0  0  0  0
   -4.6214    1.2107    0.8058 H   0  0  0  0  0  0  0  0  0  0  0  0
   -2.8463    1.2151   -1.0515 H   0  0  0  0  0  0  0  0  0  0  0  0
   -4.3855    0.4612   -1.5144 H   0  0  0  0  0  0  0  0  0  0  0  0
   -3.3436   -0.9457   -3.2007 H   0  0  0  0  0  0  0  0  0  0  0  0
   -2.1314   -1.6148   -5.1606 H   0  0  0  0  0  0  0  0  0  0  0  0
   -2.4817   -3.1703   -5.9259 H   0  0  0  0  0  0  0  0  0  0  0  0
   -3.7306   -2.4282   -4.9157 H   0  0  0  0  0  0  0  0  0  0  0  0
    0.4786   -4.8713   -0.4243 H   0  0  0  0  0  0  0  0  0  0  0  0
   -0.0226   -6.2772   -1.3695 H   0  0  0  0  0  0  0  0  0  0  0  0
   -1.1752   -5.5736   -0.2281 H   0  0  0  0  0  0  0  0  0  0  0  0
   -0.8759   -3.2532    0.4251 H   0  0  0  0  0  0  0  0  0  0  0  0
   -2.2833   -1.6733    1.9959 H   0  0  0  0  0  0  0  0  0  0  0  0
   -0.3613   -0.0719    2.5735 H   0  0  0  0  0  0  0  0  0  0  0  0
    0.1296   -1.4911    1.6303 H   0  0  0  0  0  0  0  0  0  0  0  0
    1.2578    0.7762   -1.5933 H   0  0  0  0  0  0  0  0  0  0  0  0
    3.6833    0.9864   -1.9519 H   0  0  0  0  0  0  0  0  0  0  0  0
    5.8504    1.1611   -1.1342 H   0  0  0  0  0  0  0  0  0  0  0  0
    6.3385    1.4384    1.8732 H   0  0  0  0  0  0  0  0  0  0  0  0
    5.8316    2.7602    0.8054 H   0  0  0  0  0  0  0  0  0  0  0  0
    7.3964    1.9631    0.5550 H   0  0  0  0  0  0  0  0  0  0  0  0
    5.9428   -1.3028   -0.7088 H   0  0  0  0  0  0  0  0  0  0  0  0
    7.4547   -0.4876   -0.2901 H   0  0  0  0  0  0  0  0  0  0  0  0
    6.3403   -0.9993    0.9852 H   0  0  0  0  0  0  0  0  0  0  0  0
    4.3438    0.2305    2.2518 H   0  0  0  0  0  0  0  0  0  0  0  0
    1.9335    0.0579    2.5948 H   0  0  0  0  0  0  0  0  0  0  0  0
  1  2  1  0
  2  3  1  0
  3  4  1  0
  4  5  1  0
  5  6  1  0
  6  7  2  0
  6  8  1  0
  8  9  1  0
  9 10  1  0
 10 11  1  0
 11 12  2  0
 12 13  1  0
 13 14  1  0
 14 15  1  0
 13 16  2  0
 16 17  1  0
 17 18  1  0
 16 19  1  0
 19 20  2  0
 20 21  1  0
 21 22  1  0
 22 23  1  0
 23 24  1  0
 24 25  2  0
 25 26  1  0
 26 27  2  0
 27 28  1  0
 28 29  1  0
 28 30  1  0
 27 31  1  0
 31 32  2  0
 21  8  1  0
 32 24  1  0
 20 11  1  0
  1 33  1  0
  1 34  1  0
  1 35  1  0
  3 36  1  0
  3 37  1  0
  4 38  1  0
  4 39  1  0
  5 40  1  0
  9 41  1  0
  9 42  1  0
 10 43  1  0
 10 44  1  0
 12 45  1  0
 15 46  1  0
 15 47  1  0
 15 48  1  0
 18 49  1  0
 18 50  1  0
 18 51  1  0
 19 52  1  0
 21 53  1  0
 22 54  1  0
 22 55  1  0
 25 56  1  0
 26 57  1  0
 28 58  1  0
 29 59  1  0
 29 60  1  0
 29 61  1  0
 30 62  1  0
 30 63  1  0
 30 64  1  0
 31 65  1  0
 32 66  1  0
M  END
$$$$
