
     RDKit          3D

 39 41  0  0  0  0  0  0  0  0999 V2000
   -3.0659    1.7315   -1.6281 O   0  0  0  0  0  0  0  0  0  0  0  0
   -4.1001    1.1604   -1.3323 C   0  0  0  0  0  0  0  0  0  0  0  0
   -5.3051    1.6702   -1.6568 O   0  0  0  0  0  0  0  0  0  0  0  0
   -4.2101   -0.1456   -0.6432 C   0  0  0  0  0  0  0  0  0  0  0  0
   -5.1712   -1.0101   -1.0976 N   0  0  0  0  0  0  0  0  0  0  0  0
   -5.1821   -2.2295   -0.5139 C   0  0  0  0  0  0  0  0  0  0  0  0
   -4.2701   -2.5945    0.4637 C   0  0  0  0  0  0  0  0  0  0  0  0
   -3.3106   -1.7537    0.9144 N   0  0  0  0  0  0  0  0  0  0  0  0
   -3.3032   -0.5101    0.3405 C   0  0  0  0  0  0  0  0  0  0  0  0
   -2.3738    0.4885    0.9205 C   0  0  0  0  0  0  0  0  0  0  0  0
   -2.8670    1.5288    1.3556 O   0  0  0  0  0  0  0  0  0  0  0  0
   -1.0084    0.2131    0.9553 N   0  0  0  0  0  0  0  0  0  0  0  0
   -0.3870   -0.9687    0.3440 C   0  0  0  0  0  0  0  0  0  0  0  0
    1.1395   -1.0455    0.5494 C   0  0  0  0  0  0  0  0  0  0  0  0
    1.7987    0.2022    0.1356 N   0  0  0  0  0  0  0  0  0  0  0  0
    3.1489    0.2400   -0.1877 C   0  0  0  0  0  0  0  0  0  0  0  0
    4.0248   -0.8156    0.1138 C   0  0  0  0  0  0  0  0  0  0  0  0
    5.3842   -0.7718   -0.2225 C   0  0  0  0  0  0  0  0  0  0  0  0
    5.9053    0.3353   -0.8803 C   0  0  0  0  0  0  0  0  0  0  0  0
    5.0653    1.3936   -1.2015 C   0  0  0  0  0  0  0  0  0  0  0  0
    3.7084    1.3409   -0.8594 C   0  0  0  0  0  0  0  0  0  0  0  0
    1.0764    1.4637    0.4077 C   0  0  0  0  0  0  0  0  0  0  0  0
   -0.0859    1.2603    1.3977 C   0  0  0  0  0  0  0  0  0  0  0  0
   -5.1030    2.5159   -2.1065 H   0  0  0  0  0  0  0  0  0  0  0  0
   -5.9486   -2.9153   -0.8593 H   0  0  0  0  0  0  0  0  0  0  0  0
   -4.2929   -3.5793    0.9185 H   0  0  0  0  0  0  0  0  0  0  0  0
   -0.6157   -0.9330   -0.7282 H   0  0  0  0  0  0  0  0  0  0  0  0
   -0.8451   -1.8712    0.7570 H   0  0  0  0  0  0  0  0  0  0  0  0
    1.3609   -1.2383    1.6065 H   0  0  0  0  0  0  0  0  0  0  0  0
    1.5048   -1.8970   -0.0369 H   0  0  0  0  0  0  0  0  0  0  0  0
    3.6721   -1.6956    0.6430 H   0  0  0  0  0  0  0  0  0  0  0  0
    6.0313   -1.6057    0.0355 H   0  0  0  0  0  0  0  0  0  0  0  0
    6.9584    0.3717   -1.1437 H   0  0  0  0  0  0  0  0  0  0  0  0
    5.4568    2.2617   -1.7247 H   0  0  0  0  0  0  0  0  0  0  0  0
    3.0826    2.1788   -1.1554 H   0  0  0  0  0  0  0  0  0  0  0  0
    1.7477    2.2169    0.8378 H   0  0  0  0  0  0  0  0  0  0  0  0
    0.6837    1.8526   -0.5396 H   0  0  0  0  0  0  0  0  0  0  0  0
    0.3045    0.9442    2.3727 H   0  0  0  0  0  0  0  0  0  0  0  0
   -0.6088    2.2101    1.5480 H   0  0  0  0  0  0  0  0  0  0  0  0
  1  2  2  0
  2  3  1  0
  2  4  1  0
  4  5  2  0
  5  6  1  0
  6  7  2  0
  7  8  1  0
  8  9  2  0
  9 10  1  0
 10 11  2  0
 10 12  1  0
 12 13  1  0
 13 14  1  0
 14 15  1  0
 15 16  1  0
 16 17  2  0
 17 18  1  0
 18 19  2  0
 19 20  1  0
 20 21  2  0
 15 22  1  0
 22 23  1  0
  9  4  1  0
 23 12  1  0
 21 16  1  0
  3 24  1  0
  6 25  1  0
  7 26  1  0
 13 27  1  0
 13 28  1  0
 14 29  1  0
 14 30  1  0
 17 31  1  0
 18 32  1  0
 19 33  1  0
 20 34  1  0
 21 35  1  0
 22 36  1  0
 22 37  1  0
 23 38  1  0
 23 39  1  0
M  END
$$$$
