
     RDKit          3D

 48 50  0  0  0  0  0  0  0  0999 V2000
   -2.6871    2.8364    0.7378 O   0  0  0  0  0  0  0  0  0  0  0  0
   -1.7452    2.8362   -0.0530 C   0  0  0  0  0  0  0  0  0  0  0  0
   -0.4048    3.4832    0.2341 C   0  0  0  0  0  0  0  0  0  0  0  0
   -0.1770    3.7416    1.7246 C   0  0  0  0  0  0  0  0  0  0  0  0
   -0.0898    2.4726    2.5864 C   0  0  0  0  0  0  0  0  0  0  0  0
    1.1039    1.6680    2.3106 N   0  0  0  0  0  0  0  0  0  0  0  0
    1.0186    0.6392    1.3879 C   0  0  0  0  0  0  0  0  0  0  0  0
    0.0231    0.3271    0.7486 O   0  0  0  0  0  0  0  0  0  0  0  0
    2.3309   -0.0394    1.2450 C   0  0  0  0  0  0  0  0  0  0  0  0
    2.5145   -1.0454    0.3801 C   0  0  0  0  0  0  0  0  0  0  0  0
    3.7893   -1.7406    0.1599 C   0  0  0  0  0  0  0  0  0  0  0  0
    4.0333   -2.9221    0.8747 C   0  0  0  0  0  0  0  0  0  0  0  0
    5.2338   -3.6161    0.7073 C   0  0  0  0  0  0  0  0  0  0  0  0
    6.2009   -3.1376   -0.1747 C   0  0  0  0  0  0  0  0  0  0  0  0
    5.9695   -1.9640   -0.8925 C   0  0  0  0  0  0  0  0  0  0  0  0
    4.7694   -1.2664   -0.7279 C   0  0  0  0  0  0  0  0  0  0  0  0
    4.5390    0.1783   -1.6513 Cl  0  0  0  0  0  0  0  0  0  0  0  0
    3.4845    0.6730    2.2958 S   0  0  0  0  0  0  0  0  0  0  0  0
    2.3361    1.8601    2.9042 C   0  0  0  0  0  0  0  0  0  0  0  0
    2.7708    3.0076    4.0346 S   0  0  0  0  0  0  0  0  0  0  0  0
   -1.8292    2.2856   -1.3184 N   0  0  0  0  0  0  0  0  0  0  0  0
   -2.9375    1.4438   -1.5567 N   0  0  0  0  0  0  0  0  0  0  0  0
   -2.6790    0.2724   -2.2468 C   0  0  0  0  0  0  0  0  0  0  0  0
   -1.6113    0.0629   -2.8183 O   0  0  0  0  0  0  0  0  0  0  0  0
   -3.7554   -0.7567   -2.2405 C   0  0  0  0  0  0  0  0  0  0  0  0
   -3.3992   -2.0898   -2.4903 C   0  0  0  0  0  0  0  0  0  0  0  0
   -4.3735   -3.0916   -2.4968 C   0  0  0  0  0  0  0  0  0  0  0  0
   -5.7063   -2.7606   -2.2615 C   0  0  0  0  0  0  0  0  0  0  0  0
   -6.9074   -3.9917   -2.2699 Cl  0  0  0  0  0  0  0  0  0  0  0  0
   -6.0741   -1.4363   -2.0251 C   0  0  0  0  0  0  0  0  0  0  0  0
   -5.1008   -0.4314   -2.0174 C   0  0  0  0  0  0  0  0  0  0  0  0
   -0.3936    4.4430   -0.2966 H   0  0  0  0  0  0  0  0  0  0  0  0
    0.4043    2.8753   -0.1824 H   0  0  0  0  0  0  0  0  0  0  0  0
    0.7416    4.3290    1.8362 H   0  0  0  0  0  0  0  0  0  0  0  0
   -0.9948    4.3627    2.1106 H   0  0  0  0  0  0  0  0  0  0  0  0
   -0.0824    2.7637    3.6422 H   0  0  0  0  0  0  0  0  0  0  0  0
   -0.9797    1.8493    2.4482 H   0  0  0  0  0  0  0  0  0  0  0  0
    1.6907   -1.3941   -0.2407 H   0  0  0  0  0  0  0  0  0  0  0  0
    3.2915   -3.3099    1.5701 H   0  0  0  0  0  0  0  0  0  0  0  0
    5.4145   -4.5306    1.2676 H   0  0  0  0  0  0  0  0  0  0  0  0
    7.1356   -3.6782   -0.3036 H   0  0  0  0  0  0  0  0  0  0  0  0
    6.7284   -1.5974   -1.5792 H   0  0  0  0  0  0  0  0  0  0  0  0
   -0.9738    1.9779   -1.7854 H   0  0  0  0  0  0  0  0  0  0  0  0
   -3.6448    1.4678   -0.8223 H   0  0  0  0  0  0  0  0  0  0  0  0
   -2.3590   -2.3521   -2.6777 H   0  0  0  0  0  0  0  0  0  0  0  0
   -4.0854   -4.1221   -2.6879 H   0  0  0  0  0  0  0  0  0  0  0  0
   -7.1166   -1.1788   -1.8536 H   0  0  0  0  0  0  0  0  0  0  0  0
   -5.4168    0.5963   -1.8596 H   0  0  0  0  0  0  0  0  0  0  0  0
  1  2  2  0
  2  3  1  0
  3  4  1  0
  4  5  1  0
  5  6  1  0
  6  7  1  0
  7  8  2  0
  7  9  1  0
  9 10  2  3
 10 11  1  0
 11 12  2  0
 12 13  1  0
 13 14  2  0
 14 15  1  0
 15 16  2  0
 16 17  1  0
  9 18  1  0
 18 19  1  0
 19 20  2  0
  2 21  1  0
 21 22  1  0
 22 23  1  0
 23 24  2  0
 23 25  1  0
 25 26  2  0
 26 27  1  0
 27 28  2  0
 28 29  1  0
 28 30  1  0
 30 31  2  0
 19  6  1  0
 31 25  1  0
 16 11  1  0
  3 32  1  0
  3 33  1  0
  4 34  1  0
  4 35  1  0
  5 36  1  0
  5 37  1  0
 10 38  1  0
 12 39  1  0
 13 40  1  0
 14 41  1  0
 15 42  1  0
 21 43  1  0
 22 44  1  0
 26 45  1  0
 27 46  1  0
 30 47  1  0
 31 48  1  0
M  END
$$$$
