
     RDKit          3D

 51 53  0  0  0  0  0  0  0  0999 V2000
    4.9612   -2.8475   -0.2506 O   0  0  0  0  0  0  0  0  0  0  0  0
    4.6475   -2.1609    0.7125 C   0  0  0  0  0  0  0  0  0  0  0  0
    3.9642   -2.5791    1.8267 N   0  0  0  0  0  0  0  0  0  0  0  0
    3.3340   -3.8696    1.9026 C   0  0  0  0  0  0  0  0  0  0  0  0
    1.9363   -3.8021    1.3971 C   0  0  0  0  0  0  0  0  0  0  0  0
    1.1101   -4.7487    0.8235 C   0  0  0  0  0  0  0  0  0  0  0  0
   -0.1225   -4.1045    0.5753 C   0  0  0  0  0  0  0  0  0  0  0  0
    0.0193   -2.7974    0.9972 C   0  0  0  0  0  0  0  0  0  0  0  0
   -0.8836   -1.6828    0.9776 C   0  0  0  0  0  0  0  0  0  0  0  0
   -2.0854   -1.8249    0.5179 N   0  0  0  0  0  0  0  0  0  0  0  0
   -2.8657   -0.7081    0.5201 N   0  0  0  0  0  0  0  0  0  0  0  0
   -4.1450   -0.7577    0.0004 C   0  0  0  0  0  0  0  0  0  0  0  0
   -4.7425   -1.7231   -0.4581 O   0  0  0  0  0  0  0  0  0  0  0  0
   -4.8392    0.6141    0.0120 C   0  0  0  0  0  0  0  0  0  0  0  0
   -4.2538    1.5642    0.5110 O   0  0  0  0  0  0  0  0  0  0  0  0
   -6.0750    0.5707   -0.5923 N   0  0  0  0  0  0  0  0  0  0  0  0
   -6.9861    1.6219   -0.8169 C   0  0  0  0  0  0  0  0  0  0  0  0
   -6.7690    2.9197   -0.3547 C   0  0  0  0  0  0  0  0  0  0  0  0
   -7.7016    3.9318   -0.6097 C   0  0  0  0  0  0  0  0  0  0  0  0
   -8.8586    3.6596   -1.3320 C   0  0  0  0  0  0  0  0  0  0  0  0
   -9.0936    2.3711   -1.7966 C   0  0  0  0  0  0  0  0  0  0  0  0
   -8.1641    1.3586   -1.5384 C   0  0  0  0  0  0  0  0  0  0  0  0
   -8.5502   -0.3800   -2.2033 Br  0  0  0  0  0  0  0  0  0  0  0  0
    1.2697   -2.6121    1.5124 O   0  0  0  0  0  0  0  0  0  0  0  0
    5.0168   -0.6587    0.7417 C   0  0  0  0  0  0  0  0  0  0  0  0
    4.7130    0.0005    1.7247 O   0  0  0  0  0  0  0  0  0  0  0  0
    5.6602   -0.2634   -0.4109 N   0  0  0  0  0  0  0  0  0  0  0  0
    6.1751    1.0048   -0.7198 C   0  0  0  0  0  0  0  0  0  0  0  0
    6.1716    2.0777    0.1723 C   0  0  0  0  0  0  0  0  0  0  0  0
    6.7106    3.3123   -0.2020 C   0  0  0  0  0  0  0  0  0  0  0  0
    7.2561    3.4822   -1.4736 C   0  0  0  0  0  0  0  0  0  0  0  0
    7.2598    2.4173   -2.3740 C   0  0  0  0  0  0  0  0  0  0  0  0
    6.7262    1.1840   -1.9956 C   0  0  0  0  0  0  0  0  0  0  0  0
    3.6331   -1.8407    2.4438 H   0  0  0  0  0  0  0  0  0  0  0  0
    3.9140   -4.5977    1.3256 H   0  0  0  0  0  0  0  0  0  0  0  0
    3.3333   -4.1727    2.9545 H   0  0  0  0  0  0  0  0  0  0  0  0
    1.3661   -5.7790    0.6156 H   0  0  0  0  0  0  0  0  0  0  0  0
   -1.0173   -4.5283    0.1376 H   0  0  0  0  0  0  0  0  0  0  0  0
   -0.5085   -0.7182    1.3604 H   0  0  0  0  0  0  0  0  0  0  0  0
   -2.5129    0.1893    0.8467 H   0  0  0  0  0  0  0  0  0  0  0  0
   -6.3361   -0.3472   -0.9605 H   0  0  0  0  0  0  0  0  0  0  0  0
   -5.8853    3.1797    0.2217 H   0  0  0  0  0  0  0  0  0  0  0  0
   -7.5170    4.9376   -0.2377 H   0  0  0  0  0  0  0  0  0  0  0  0
   -9.5791    4.4488   -1.5305 H   0  0  0  0  0  0  0  0  0  0  0  0
   -9.9997    2.1647   -2.3556 H   0  0  0  0  0  0  0  0  0  0  0  0
    5.7522   -0.9965   -1.1133 H   0  0  0  0  0  0  0  0  0  0  0  0
    5.7647    1.9859    1.1741 H   0  0  0  0  0  0  0  0  0  0  0  0
    6.7033    4.1421    0.5034 H   0  0  0  0  0  0  0  0  0  0  0  0
    7.6714    4.4443   -1.7608 H   0  0  0  0  0  0  0  0  0  0  0  0
    7.6787    2.5489   -3.3669 H   0  0  0  0  0  0  0  0  0  0  0  0
    6.7435    0.3693   -2.7143 H   0  0  0  0  0  0  0  0  0  0  0  0
  1  2  2  0
  2  3  1  0
  3  4  1  0
  4  5  1  0
  5  6  2  0
  6  7  1  0
  7  8  2  0
  8  9  1  0
  9 10  2  3
 10 11  1  0
 11 12  1  0
 12 13  2  0
 12 14  1  0
 14 15  2  0
 14 16  1  0
 16 17  1  0
 17 18  2  0
 18 19  1  0
 19 20  2  0
 20 21  1  0
 21 22  2  0
 22 23  1  0
  8 24  1  0
  2 25  1  0
 25 26  2  0
 25 27  1  0
 27 28  1  0
 28 29  2  0
 29 30  1  0
 30 31  2  0
 31 32  1  0
 32 33  2  0
 24  5  1  0
 33 28  1  0
 22 17  1  0
  3 34  1  0
  4 35  1  0
  4 36  1  0
  6 37  1  0
  7 38  1  0
  9 39  1  0
 11 40  1  0
 16 41  1  0
 18 42  1  0
 19 43  1  0
 20 44  1  0
 21 45  1  0
 27 46  1  0
 29 47  1  0
 30 48  1  0
 31 49  1  0
 32 50  1  0
 33 51  1  0
M  END
$$$$
