
     RDKit          3D

 36 37  0  0  0  0  0  0  0  0999 V2000
    0.8890    1.8838   -0.4362 C   0  0  0  0  0  0  0  0  0  0  0  0
    0.9059    0.6141   -1.0849 O   0  0  0  0  0  0  0  0  0  0  0  0
    2.1548    0.0686   -1.2509 C   0  0  0  0  0  0  0  0  0  0  0  0
    3.3059    0.8308   -1.4729 C   0  0  0  0  0  0  0  0  0  0  0  0
    4.5435    0.2062   -1.6419 C   0  0  0  0  0  0  0  0  0  0  0  0
    4.6355   -1.1820   -1.5977 C   0  0  0  0  0  0  0  0  0  0  0  0
    3.4894   -1.9495   -1.3935 C   0  0  0  0  0  0  0  0  0  0  0  0
    2.2375   -1.3352   -1.2297 C   0  0  0  0  0  0  0  0  0  0  0  0
    1.0141   -2.1912   -1.0091 C   0  0  0  0  0  0  0  0  0  0  0  0
    0.4859   -2.1040    0.4152 C   0  0  0  0  0  0  0  0  0  0  0  0
    1.0706   -2.6490    1.3463 O   0  0  0  0  0  0  0  0  0  0  0  0
   -0.7002   -1.3938    0.5023 N   0  0  0  0  0  0  0  0  0  0  0  0
   -1.3295   -0.9951    1.6640 C   0  0  0  0  0  0  0  0  0  0  0  0
   -1.0822   -1.4265    2.7853 O   0  0  0  0  0  0  0  0  0  0  0  0
   -2.4241    0.0207    1.5032 C   0  0  0  0  0  0  0  0  0  0  0  0
   -3.0183    0.5156    2.6773 C   0  0  0  0  0  0  0  0  0  0  0  0
   -4.0409    1.4647    2.6188 C   0  0  0  0  0  0  0  0  0  0  0  0
   -4.4846    1.9336    1.3852 C   0  0  0  0  0  0  0  0  0  0  0  0
   -3.9064    1.4588    0.2081 C   0  0  0  0  0  0  0  0  0  0  0  0
   -2.8839    0.5064    0.2673 C   0  0  0  0  0  0  0  0  0  0  0  0
   -2.3370    0.0569   -0.9083 O   0  0  0  0  0  0  0  0  0  0  0  0
   -0.1294    2.0645   -0.0820 H   0  0  0  0  0  0  0  0  0  0  0  0
    1.5501    1.9071    0.4361 H   0  0  0  0  0  0  0  0  0  0  0  0
    1.1385    2.6801   -1.1420 H   0  0  0  0  0  0  0  0  0  0  0  0
    3.2659    1.9133   -1.5303 H   0  0  0  0  0  0  0  0  0  0  0  0
    5.4357    0.8039   -1.8072 H   0  0  0  0  0  0  0  0  0  0  0  0
    5.5997   -1.6677   -1.7177 H   0  0  0  0  0  0  0  0  0  0  0  0
    3.5816   -3.0322   -1.3501 H   0  0  0  0  0  0  0  0  0  0  0  0
    0.2406   -1.9128   -1.7355 H   0  0  0  0  0  0  0  0  0  0  0  0
    1.2349   -3.2477   -1.2078 H   0  0  0  0  0  0  0  0  0  0  0  0
   -0.9943   -0.9060   -0.3382 H   0  0  0  0  0  0  0  0  0  0  0  0
   -2.6818    0.1620    3.6518 H   0  0  0  0  0  0  0  0  0  0  0  0
   -4.4890    1.8337    3.5393 H   0  0  0  0  0  0  0  0  0  0  0  0
   -5.2819    2.6713    1.3432 H   0  0  0  0  0  0  0  0  0  0  0  0
   -4.2694    1.8399   -0.7420 H   0  0  0  0  0  0  0  0  0  0  0  0
   -2.7263    0.5567   -1.6486 H   0  0  0  0  0  0  0  0  0  0  0  0
  1  2  1  0
  2  3  1  0
  3  4  2  0
  4  5  1  0
  5  6  2  0
  6  7  1  0
  7  8  2  0
  8  9  1  0
  9 10  1  0
 10 11  2  0
 10 12  1  0
 12 13  1  0
 13 14  2  0
 13 15  1  0
 15 16  2  0
 16 17  1  0
 17 18  2  0
 18 19  1  0
 19 20  2  0
 20 21  1  0
  8  3  1  0
 20 15  1  0
  1 22  1  0
  1 23  1  0
  1 24  1  0
  4 25  1  0
  5 26  1  0
  6 27  1  0
  7 28  1  0
  9 29  1  0
  9 30  1  0
 12 31  1  0
 16 32  1  0
 17 33  1  0
 18 34  1  0
 19 35  1  0
 21 36  1  0
M  END
$$$$
