
     RDKit          3D

 50 53  0  0  0  0  0  0  0  0999 V2000
   -7.1518    0.2679    2.5420 C   0  0  0  0  0  0  0  0  0  0  0  0
   -5.8650    0.0475    1.8009 C   0  0  0  0  0  0  0  0  0  0  0  0
   -4.8687   -0.7726    2.3377 C   0  0  0  0  0  0  0  0  0  0  0  0
   -3.6571   -0.9529    1.6634 C   0  0  0  0  0  0  0  0  0  0  0  0
   -3.4257   -0.3064    0.4438 C   0  0  0  0  0  0  0  0  0  0  0  0
   -2.0619   -0.5160   -0.3073 C   0  0  0  0  0  0  0  0  0  0  0  0
   -0.9757   -1.2556    0.1463 C   0  0  0  0  0  0  0  0  0  0  0  0
    0.0510   -1.1793   -0.7939 N   0  0  0  0  0  4  0  0  0  0  0  0
    1.3925   -1.7702   -0.6899 C   0  0  0  0  0  0  0  0  0  0  0  0
    2.4616   -0.6978   -0.4426 C   0  0  0  0  0  0  0  0  0  0  0  0
    2.3235    0.4330   -0.9026 O   0  0  0  0  0  0  0  0  0  0  0  0
    3.5516   -1.1641    0.2739 N   0  0  0  0  0  0  0  0  0  0  0  0
    4.6547   -0.3957    0.7208 C   0  0  0  0  0  0  0  0  0  0  0  0
    5.8866   -1.0752    0.7452 C   0  0  0  0  0  0  0  0  0  0  0  0
    7.0624   -0.4304    1.1304 C   0  0  0  0  0  0  0  0  0  0  0  0
    7.0225    0.9022    1.5128 C   0  0  0  0  0  0  0  0  0  0  0  0
    5.8029    1.5755    1.5384 C   0  0  0  0  0  0  0  0  0  0  0  0
    4.5999    0.9342    1.1765 C   0  0  0  0  0  0  0  0  0  0  0  0
    3.3386    1.7316    1.3608 C   0  0  0  0  0  0  0  0  0  0  0  0
   -0.3738   -0.3964   -1.7830 C   0  0  0  0  0  0  0  0  0  0  0  0
   -1.6314   -0.0403   -1.5321 N   0  0  0  0  0  0  0  0  0  0  0  0
   -2.1861    0.7737   -2.6045 C   0  0  0  0  0  0  0  0  0  0  0  0
   -1.1702    0.5835   -3.7635 C   0  0  0  0  0  0  0  0  0  0  0  0
    0.1312    0.1269   -3.0752 C   0  0  0  0  0  0  0  0  0  0  0  0
   -4.4102    0.5287   -0.0850 C   0  0  0  0  0  0  0  0  0  0  0  0
   -5.6207    0.7071    0.5927 C   0  0  0  0  0  0  0  0  0  0  0  0
   -7.9745    0.4624    1.8461 H   0  0  0  0  0  0  0  0  0  0  0  0
   -7.4229   -0.6182    3.1255 H   0  0  0  0  0  0  0  0  0  0  0  0
   -7.0514    1.1213    3.2196 H   0  0  0  0  0  0  0  0  0  0  0  0
   -5.0331   -1.2781    3.2883 H   0  0  0  0  0  0  0  0  0  0  0  0
   -2.9204   -1.6063    2.1205 H   0  0  0  0  0  0  0  0  0  0  0  0
   -0.7972   -1.8249    1.0426 H   0  0  0  0  0  0  0  0  0  0  0  0
    1.6196   -2.2858   -1.6284 H   0  0  0  0  0  0  0  0  0  0  0  0
    1.3932   -2.5016    0.1250 H   0  0  0  0  0  0  0  0  0  0  0  0
    3.7339   -2.1603    0.2212 H   0  0  0  0  0  0  0  0  0  0  0  0
    5.9619   -2.1137    0.4320 H   0  0  0  0  0  0  0  0  0  0  0  0
    8.0090   -0.9652    1.1223 H   0  0  0  0  0  0  0  0  0  0  0  0
    7.9349    1.4158    1.8067 H   0  0  0  0  0  0  0  0  0  0  0  0
    5.7900    2.6131    1.8703 H   0  0  0  0  0  0  0  0  0  0  0  0
    3.4400    2.4217    2.2069 H   0  0  0  0  0  0  0  0  0  0  0  0
    2.4865    1.0904    1.6041 H   0  0  0  0  0  0  0  0  0  0  0  0
    3.1258    2.3266    0.4684 H   0  0  0  0  0  0  0  0  0  0  0  0
   -3.1789    0.4213   -2.8927 H   0  0  0  0  0  0  0  0  0  0  0  0
   -2.2197    1.8161   -2.2747 H   0  0  0  0  0  0  0  0  0  0  0  0
   -1.5275   -0.2180   -4.4211 H   0  0  0  0  0  0  0  0  0  0  0  0
   -1.0415    1.4847   -4.3687 H   0  0  0  0  0  0  0  0  0  0  0  0
    0.7867    0.9691   -2.8494 H   0  0  0  0  0  0  0  0  0  0  0  0
    0.6506   -0.6708   -3.6070 H   0  0  0  0  0  0  0  0  0  0  0  0
   -4.2700    1.0715   -1.0105 H   0  0  0  0  0  0  0  0  0  0  0  0
   -6.3759    1.3698    0.1724 H   0  0  0  0  0  0  0  0  0  0  0  0
  1  2  1  0
  2  3  2  0
  3  4  1  0
  4  5  2  0
  5  6  1  0
  6  7  2  0
  7  8  1  0
  8  9  1  0
  9 10  1  0
 10 11  2  0
 10 12  1  0
 12 13  1  0
 13 14  2  0
 14 15  1  0
 15 16  2  0
 16 17  1  0
 17 18  2  0
 18 19  1  0
  8 20  2  0
 20 21  1  0
 21 22  1  0
 22 23  1  0
 23 24  1  0
  5 25  1  0
 25 26  2  0
 26  2  1  0
 21  6  1  0
 18 13  1  0
 24 20  1  0
  1 27  1  0
  1 28  1  0
  1 29  1  0
  3 30  1  0
  4 31  1  0
  7 32  1  0
  9 33  1  0
  9 34  1  0
 12 35  1  0
 14 36  1  0
 15 37  1  0
 16 38  1  0
 17 39  1  0
 19 40  1  0
 19 41  1  0
 19 42  1  0
 22 43  1  0
 22 44  1  0
 23 45  1  0
 23 46  1  0
 24 47  1  0
 24 48  1  0
 25 49  1  0
 26 50  1  0
M  CHG  1   8   1
M  END
$$$$
