
     RDKit          3D

 36 37  0  0  0  0  0  0  0  0999 V2000
    1.0030    2.3515   -1.0110 C   0  0  0  0  0  0  0  0  0  0  0  0
    1.0964    0.9339   -1.1345 O   0  0  0  0  0  0  0  0  0  0  0  0
    2.1196    0.3246   -0.4487 C   0  0  0  0  0  0  0  0  0  0  0  0
    2.8883    0.9430    0.5424 C   0  0  0  0  0  0  0  0  0  0  0  0
    3.8816    0.2280    1.2158 C   0  0  0  0  0  0  0  0  0  0  0  0
    4.1087   -1.1104    0.9115 C   0  0  0  0  0  0  0  0  0  0  0  0
    3.3458   -1.7374   -0.0710 C   0  0  0  0  0  0  0  0  0  0  0  0
    2.3524   -1.0280   -0.7659 C   0  0  0  0  0  0  0  0  0  0  0  0
    1.5370   -1.7519   -1.8150 C   0  0  0  0  0  0  0  0  0  0  0  0
    0.2348   -2.3112   -1.2662 C   0  0  0  0  0  0  0  0  0  0  0  0
    0.0326   -3.5204   -1.2183 O   0  0  0  0  0  0  0  0  0  0  0  0
   -0.6862   -1.3244   -0.9551 N   0  0  0  0  0  0  0  0  0  0  0  0
   -1.7618   -1.4980   -0.1076 C   0  0  0  0  0  0  0  0  0  0  0  0
   -2.1282   -2.5560    0.3940 O   0  0  0  0  0  0  0  0  0  0  0  0
   -2.5079   -0.2610    0.2585 C   0  0  0  0  0  0  0  0  0  0  0  0
   -2.5587    0.8477   -0.6014 C   0  0  0  0  0  0  0  0  0  0  0  0
   -3.2466    2.0030   -0.2191 C   0  0  0  0  0  0  0  0  0  0  0  0
   -3.8925    2.0567    1.0157 C   0  0  0  0  0  0  0  0  0  0  0  0
   -3.8676    0.9513    1.8654 C   0  0  0  0  0  0  0  0  0  0  0  0
   -3.1904   -0.2046    1.4829 C   0  0  0  0  0  0  0  0  0  0  0  0
   -3.2357   -1.2529    2.3636 O   0  0  0  0  0  0  0  0  0  0  0  0
    0.2342    2.6947   -1.7099 H   0  0  0  0  0  0  0  0  0  0  0  0
    0.6848    2.6337   -0.0023 H   0  0  0  0  0  0  0  0  0  0  0  0
    1.9440    2.8398   -1.2853 H   0  0  0  0  0  0  0  0  0  0  0  0
    2.7340    1.9781    0.8290 H   0  0  0  0  0  0  0  0  0  0  0  0
    4.4726    0.7148    1.9879 H   0  0  0  0  0  0  0  0  0  0  0  0
    4.8749   -1.6690    1.4437 H   0  0  0  0  0  0  0  0  0  0  0  0
    3.5265   -2.7889   -0.2895 H   0  0  0  0  0  0  0  0  0  0  0  0
    1.3205   -1.0935   -2.6651 H   0  0  0  0  0  0  0  0  0  0  0  0
    2.1197   -2.5831   -2.2321 H   0  0  0  0  0  0  0  0  0  0  0  0
   -0.3400   -0.3775   -1.0572 H   0  0  0  0  0  0  0  0  0  0  0  0
   -2.0955    0.8244   -1.5839 H   0  0  0  0  0  0  0  0  0  0  0  0
   -3.2905    2.8590   -0.8887 H   0  0  0  0  0  0  0  0  0  0  0  0
   -4.4308    2.9538    1.3125 H   0  0  0  0  0  0  0  0  0  0  0  0
   -4.3842    0.9833    2.8213 H   0  0  0  0  0  0  0  0  0  0  0  0
   -2.8945   -2.0529    1.9007 H   0  0  0  0  0  0  0  0  0  0  0  0
  1  2  1  0
  2  3  1  0
  3  4  2  0
  4  5  1  0
  5  6  2  0
  6  7  1  0
  7  8  2  0
  8  9  1  0
  9 10  1  0
 10 11  2  0
 10 12  1  0
 12 13  1  0
 13 14  2  0
 13 15  1  0
 15 16  2  0
 16 17  1  0
 17 18  2  0
 18 19  1  0
 19 20  2  0
 20 21  1  0
  8  3  1  0
 20 15  1  0
  1 22  1  0
  1 23  1  0
  1 24  1  0
  4 25  1  0
  5 26  1  0
  6 27  1  0
  7 28  1  0
  9 29  1  0
  9 30  1  0
 12 31  1  0
 16 32  1  0
 17 33  1  0
 18 34  1  0
 19 35  1  0
 21 36  1  0
M  END
$$$$
