
     RDKit          3D

 46 48  0  0  0  0  0  0  0  0999 V2000
    4.6040    2.7442    0.9616 C   0  0  0  0  0  0  0  0  0  0  0  0
    3.2604    2.4836    1.6326 C   0  0  0  0  0  0  0  0  0  0  0  0
    2.9290    1.0840    1.5731 O   0  0  0  0  0  0  0  0  0  0  0  0
    2.3862    0.6469    0.4070 C   0  0  0  0  0  0  0  0  0  0  0  0
    2.1622    1.3433   -0.5749 O   0  0  0  0  0  0  0  0  0  0  0  0
    2.1266   -0.8288    0.4447 C   0  0  0  0  0  0  0  0  0  0  0  0
    2.3784   -1.5532    1.6267 C   0  0  0  0  0  0  0  0  0  0  0  0
    2.1706   -2.9324    1.6710 C   0  0  0  0  0  0  0  0  0  0  0  0
    1.7140   -3.6002    0.5378 C   0  0  0  0  0  0  0  0  0  0  0  0
    1.4583   -2.8942   -0.6422 C   0  0  0  0  0  0  0  0  0  0  0  0
    1.6487   -1.5055   -0.7079 C   0  0  0  0  0  0  0  0  0  0  0  0
    1.3548   -0.7629   -1.8787 N   0  0  0  0  0  0  0  0  0  0  0  0
    0.8843   -1.2138   -3.1014 C   0  0  0  0  0  0  0  0  0  0  0  0
    0.7187   -2.3888   -3.4224 O   0  0  0  0  0  0  0  0  0  0  0  0
    0.5620   -0.0795   -4.0713 C   0  0  0  0  0  0  0  0  0  0  0  0
   -1.2134   -0.0866   -4.4990 S   0  0  0  0  0  0  0  0  0  0  0  0
   -1.9074    0.1193   -2.8741 C   0  0  0  0  0  0  0  0  0  0  0  0
   -3.0841   -0.5212   -2.5290 C   0  0  0  0  0  0  0  0  0  0  0  0
   -3.5793   -0.3638   -1.2331 C   0  0  0  0  0  0  0  0  0  0  0  0
   -2.8858    0.4289   -0.3252 C   0  0  0  0  0  0  0  0  0  0  0  0
   -3.3163    0.6474    1.0624 C   0  0  0  0  0  0  0  0  0  0  0  0
   -4.0259   -0.3132    1.8034 C   0  0  0  0  0  0  0  0  0  0  0  0
   -4.4218   -0.0501    3.1173 C   0  0  0  0  0  0  0  0  0  0  0  0
   -4.0972    1.1768    3.6679 C   0  0  0  0  0  0  0  0  0  0  0  0
   -3.4108    2.1310    3.0065 N   0  0  0  0  0  0  0  0  0  0  0  0
   -3.0336    1.8420    1.7327 C   0  0  0  0  0  0  0  0  0  0  0  0
   -1.7472    1.0532   -0.7082 N   0  0  0  0  0  0  0  0  0  0  0  0
   -1.2593    0.9021   -1.9882 N   0  0  0  0  0  0  0  0  0  0  0  0
    4.8841    3.8024    1.0541 H   0  0  0  0  0  0  0  0  0  0  0  0
    4.5783    2.4751   -0.1023 H   0  0  0  0  0  0  0  0  0  0  0  0
    5.3911    2.1329    1.4213 H   0  0  0  0  0  0  0  0  0  0  0  0
    2.4616    3.0955    1.1999 H   0  0  0  0  0  0  0  0  0  0  0  0
    3.3346    2.7511    2.6946 H   0  0  0  0  0  0  0  0  0  0  0  0
    2.7418   -1.0543    2.5262 H   0  0  0  0  0  0  0  0  0  0  0  0
    2.3678   -3.4838    2.5890 H   0  0  0  0  0  0  0  0  0  0  0  0
    1.5528   -4.6778    0.5631 H   0  0  0  0  0  0  0  0  0  0  0  0
    1.0966   -3.4647   -1.4947 H   0  0  0  0  0  0  0  0  0  0  0  0
    1.4381    0.2526   -1.7655 H   0  0  0  0  0  0  0  0  0  0  0  0
    0.8398    0.8995   -3.6681 H   0  0  0  0  0  0  0  0  0  0  0  0
    1.1534   -0.2343   -4.9811 H   0  0  0  0  0  0  0  0  0  0  0  0
   -3.6098   -1.1467   -3.2453 H   0  0  0  0  0  0  0  0  0  0  0  0
   -4.5087   -0.8561   -0.9576 H   0  0  0  0  0  0  0  0  0  0  0  0
   -4.2632   -1.2847    1.3763 H   0  0  0  0  0  0  0  0  0  0  0  0
   -4.9680   -0.7896    3.6958 H   0  0  0  0  0  0  0  0  0  0  0  0
   -4.3855    1.4313    4.6851 H   0  0  0  0  0  0  0  0  0  0  0  0
   -2.4807    2.6428    1.2423 H   0  0  0  0  0  0  0  0  0  0  0  0
  1  2  1  0
  2  3  1  0
  3  4  1  0
  4  5  2  0
  4  6  1  0
  6  7  2  0
  7  8  1  0
  8  9  2  0
  9 10  1  0
 10 11  2  0
 11 12  1  0
 12 13  1  0
 13 14  2  0
 13 15  1  0
 15 16  1  0
 16 17  1  0
 17 18  2  0
 18 19  1  0
 19 20  2  0
 20 21  1  0
 21 22  2  0
 22 23  1  0
 23 24  2  0
 24 25  1  0
 25 26  2  0
 20 27  1  0
 27 28  2  0
 11  6  1  0
 28 17  1  0
 26 21  1  0
  1 29  1  0
  1 30  1  0
  1 31  1  0
  2 32  1  0
  2 33  1  0
  7 34  1  0
  8 35  1  0
  9 36  1  0
 10 37  1  0
 12 38  1  0
 15 39  1  0
 15 40  1  0
 18 41  1  0
 19 42  1  0
 22 43  1  0
 23 44  1  0
 24 45  1  0
 26 46  1  0
M  END
$$$$
