
     RDKit          3D

 44 47  0  0  0  0  0  0  0  0999 V2000
    0.7572   -2.2183   -2.5486 O   0  0  0  0  0  0  0  0  0  0  0  0
    0.6800   -0.9960   -2.3811 C   0  0  0  0  0  0  0  0  0  0  0  0
    1.4873   -0.0432   -3.2615 C   0  0  0  0  0  0  0  0  0  0  0  0
    3.2345   -0.5489   -3.3311 S   0  0  0  0  0  0  0  0  0  0  0  0
    3.6852   -0.3104   -1.6868 C   0  0  0  0  0  0  0  0  0  0  0  0
    3.2156    0.5861   -0.8557 N   0  0  0  0  0  0  0  0  0  0  0  0
    3.8845    0.3516    0.3233 C   0  0  0  0  0  0  0  0  0  0  0  0
    3.7749    1.0062    1.5587 C   0  0  0  0  0  0  0  0  0  0  0  0
    4.5792    0.5599    2.6123 C   0  0  0  0  0  0  0  0  0  0  0  0
    4.4672    1.3427    4.1442 Cl  0  0  0  0  0  0  0  0  0  0  0  0
    5.4680   -0.5075    2.4533 C   0  0  0  0  0  0  0  0  0  0  0  0
    5.5878   -1.1722    1.2269 C   0  0  0  0  0  0  0  0  0  0  0  0
    4.7783   -0.7098    0.1877 C   0  0  0  0  0  0  0  0  0  0  0  0
    4.6288   -1.1104   -1.1162 N   0  0  0  0  0  0  0  0  0  0  0  0
   -0.1737   -0.4565   -1.4276 N   0  0  0  0  0  0  0  0  0  0  0  0
   -0.2539    0.9704   -1.0901 C   0  0  0  0  0  0  0  0  0  0  0  0
   -1.0584    1.2552    0.1867 C   0  0  0  0  0  0  0  0  0  0  0  0
   -2.3669    0.5963    0.1746 N   0  0  0  0  0  0  0  0  0  0  0  0
   -3.4575    1.2587    0.7526 C   0  0  0  0  0  0  0  0  0  0  0  0
   -3.2779    2.3370    1.3245 O   0  0  0  0  0  0  0  0  0  0  0  0
   -4.7997    0.6923    0.6688 C   0  0  0  0  0  0  0  0  0  0  0  0
   -5.9829    1.1614    1.2217 C   0  0  0  0  0  0  0  0  0  0  0  0
   -7.0140    0.2840    0.8126 C   0  0  0  0  0  0  0  0  0  0  0  0
   -6.4069   -0.6745    0.0381 C   0  0  0  0  0  0  0  0  0  0  0  0
   -5.0752   -0.4338   -0.0620 O   0  0  0  0  0  0  0  0  0  0  0  0
   -2.3942   -0.7746   -0.3516 C   0  0  0  0  0  0  0  0  0  0  0  0
   -0.9984   -1.3575   -0.6194 C   0  0  0  0  0  0  0  0  0  0  0  0
    1.4289    1.0006   -2.9554 H   0  0  0  0  0  0  0  0  0  0  0  0
    1.0683   -0.1027   -4.2714 H   0  0  0  0  0  0  0  0  0  0  0  0
    3.0827    1.8310    1.6828 H   0  0  0  0  0  0  0  0  0  0  0  0
    6.0794   -0.8333    3.2930 H   0  0  0  0  0  0  0  0  0  0  0  0
    6.2731   -2.0050    1.1014 H   0  0  0  0  0  0  0  0  0  0  0  0
    5.0997   -1.8753   -1.5751 H   0  0  0  0  0  0  0  0  0  0  0  0
    0.7538    1.3767   -0.9734 H   0  0  0  0  0  0  0  0  0  0  0  0
   -0.7253    1.4692   -1.9460 H   0  0  0  0  0  0  0  0  0  0  0  0
   -0.5211    0.8742    1.0642 H   0  0  0  0  0  0  0  0  0  0  0  0
   -1.1635    2.3379    0.3131 H   0  0  0  0  0  0  0  0  0  0  0  0
   -6.0741    2.0489    1.8366 H   0  0  0  0  0  0  0  0  0  0  0  0
   -8.0678    0.3454    1.0475 H   0  0  0  0  0  0  0  0  0  0  0  0
   -6.7659   -1.5436   -0.4988 H   0  0  0  0  0  0  0  0  0  0  0  0
   -2.9202   -1.4215    0.3578 H   0  0  0  0  0  0  0  0  0  0  0  0
   -2.9542   -0.7439   -1.2933 H   0  0  0  0  0  0  0  0  0  0  0  0
   -0.4640   -1.5102    0.3265 H   0  0  0  0  0  0  0  0  0  0  0  0
   -1.0984   -2.3367   -1.0990 H   0  0  0  0  0  0  0  0  0  0  0  0
  1  2  2  0
  2  3  1  0
  3  4  1  0
  4  5  1  0
  5  6  2  0
  6  7  1  0
  7  8  2  0
  8  9  1  0
  9 10  1  0
  9 11  2  0
 11 12  1  0
 12 13  2  0
 13 14  1  0
  2 15  1  0
 15 16  1  0
 16 17  1  0
 17 18  1  0
 18 19  1  0
 19 20  2  0
 19 21  1  0
 21 22  2  0
 22 23  1  0
 23 24  2  0
 24 25  1  0
 18 26  1  0
 26 27  1  0
 14  5  1  0
 27 15  1  0
 13  7  1  0
 25 21  1  0
  3 28  1  0
  3 29  1  0
  8 30  1  0
 11 31  1  0
 12 32  1  0
 14 33  1  0
 16 34  1  0
 16 35  1  0
 17 36  1  0
 17 37  1  0
 22 38  1  0
 23 39  1  0
 24 40  1  0
 26 41  1  0
 26 42  1  0
 27 43  1  0
 27 44  1  0
M  END
$$$$
