
     RDKit          3D

 49 52  0  0  0  0  0  0  0  0999 V2000
   -5.9187    3.4737   -1.0412 C   0  0  0  0  0  0  0  0  0  0  0  0
   -5.6216    2.0296   -0.7644 C   0  0  0  0  0  0  0  0  0  0  0  0
   -6.6373    1.0713   -0.8409 C   0  0  0  0  0  0  0  0  0  0  0  0
   -6.3743   -0.2705   -0.5431 C   0  0  0  0  0  0  0  0  0  0  0  0
   -7.4570   -1.3030   -0.6629 C   0  0  0  0  0  0  0  0  0  0  0  0
   -5.0736   -0.6545   -0.1811 C   0  0  0  0  0  0  0  0  0  0  0  0
   -4.0488    0.2884   -0.0882 C   0  0  0  0  0  0  0  0  0  0  0  0
   -2.7234   -0.0194    0.2894 N   0  0  0  0  0  0  0  0  0  0  0  0
   -2.1913   -1.2707    0.5452 C   0  0  0  0  0  0  0  0  0  0  0  0
   -2.7572   -2.3498    0.4192 O   0  0  0  0  0  0  0  0  0  0  0  0
   -0.7605   -1.2743    0.9721 C   0  0  0  0  0  0  0  0  0  0  0  0
    0.0360   -2.3730    0.6228 C   0  0  0  0  0  0  0  0  0  0  0  0
    1.3791   -2.4193    1.0064 C   0  0  0  0  0  0  0  0  0  0  0  0
    1.9418   -1.3695    1.7358 C   0  0  0  0  0  0  0  0  0  0  0  0
    3.2823   -1.4216    2.1295 N   0  0  0  0  0  0  0  0  0  0  0  0
    4.1670   -0.9080    1.3531 C   0  0  0  0  0  0  0  0  0  0  0  0
    4.0536   -0.3022    0.1159 N   0  0  0  0  0  0  0  0  0  0  0  0
    5.3224   -0.2726   -0.5830 C   0  0  0  0  0  0  0  0  0  0  0  0
    5.5120    0.7573   -1.6679 C   0  0  0  0  0  0  0  0  0  0  0  0
    7.3112    0.8268   -1.7813 S   0  0  0  0  0  6  0  0  0  0  0  0
    7.7333   -0.0552   -2.8484 O   0  0  0  0  0  0  0  0  0  0  0  0
    7.7187    2.2135   -1.7144 O   0  0  0  0  0  0  0  0  0  0  0  0
    7.6832    0.0316   -0.2009 C   0  0  0  0  0  0  0  0  0  0  0  0
    6.3454    0.1120    0.4914 C   0  0  0  0  0  0  0  0  0  0  0  0
    5.8813   -0.9847    1.8513 S   0  0  0  0  0  0  0  0  0  0  0  0
    1.1381   -0.2903    2.1130 C   0  0  0  0  0  0  0  0  0  0  0  0
   -0.2083   -0.2386    1.7372 C   0  0  0  0  0  0  0  0  0  0  0  0
   -4.3360    1.6309   -0.3717 C   0  0  0  0  0  0  0  0  0  0  0  0
   -6.2142    3.9784   -0.1164 H   0  0  0  0  0  0  0  0  0  0  0  0
   -6.7272    3.5738   -1.7730 H   0  0  0  0  0  0  0  0  0  0  0  0
   -5.0411    3.9800   -1.4568 H   0  0  0  0  0  0  0  0  0  0  0  0
   -7.6422    1.3706   -1.1330 H   0  0  0  0  0  0  0  0  0  0  0  0
   -7.4412   -1.7466   -1.6632 H   0  0  0  0  0  0  0  0  0  0  0  0
   -8.4430   -0.8594   -0.4891 H   0  0  0  0  0  0  0  0  0  0  0  0
   -7.3231   -2.0962    0.0801 H   0  0  0  0  0  0  0  0  0  0  0  0
   -4.8901   -1.7031    0.0330 H   0  0  0  0  0  0  0  0  0  0  0  0
   -2.0889    0.7665    0.3117 H   0  0  0  0  0  0  0  0  0  0  0  0
   -0.3917   -3.2018    0.0612 H   0  0  0  0  0  0  0  0  0  0  0  0
    1.9854   -3.2843    0.7502 H   0  0  0  0  0  0  0  0  0  0  0  0
    3.2269   -0.5737   -0.4068 H   0  0  0  0  0  0  0  0  0  0  0  0
    5.5283   -1.2735   -0.9931 H   0  0  0  0  0  0  0  0  0  0  0  0
    5.1401    1.7461   -1.3854 H   0  0  0  0  0  0  0  0  0  0  0  0
    5.0909    0.4537   -2.6283 H   0  0  0  0  0  0  0  0  0  0  0  0
    8.4711    0.5860    0.3123 H   0  0  0  0  0  0  0  0  0  0  0  0
    7.9986   -0.9956   -0.4043 H   0  0  0  0  0  0  0  0  0  0  0  0
    6.1710    1.1399    0.8402 H   0  0  0  0  0  0  0  0  0  0  0  0
    1.5635    0.5040    2.7219 H   0  0  0  0  0  0  0  0  0  0  0  0
   -0.8143    0.5932    2.0850 H   0  0  0  0  0  0  0  0  0  0  0  0
   -3.5560    2.3843   -0.2952 H   0  0  0  0  0  0  0  0  0  0  0  0
  1  2  1  0
  2  3  2  0
  3  4  1  0
  4  5  1  0
  4  6  2  0
  6  7  1  0
  7  8  1  0
  8  9  1  0
  9 10  2  0
  9 11  1  0
 11 12  2  0
 12 13  1  0
 13 14  2  0
 14 15  1  0
 15 16  2  3
 16 17  1  0
 17 18  1  0
 18 19  1  0
 19 20  1  0
 20 21  2  0
 20 22  2  0
 20 23  1  0
 23 24  1  0
 24 25  1  0
 14 26  1  0
 26 27  2  0
  7 28  2  0
 28  2  1  0
 27 11  1  0
 25 16  1  0
 24 18  1  0
  1 29  1  0
  1 30  1  0
  1 31  1  0
  3 32  1  0
  5 33  1  0
  5 34  1  0
  5 35  1  0
  6 36  1  0
  8 37  1  0
 12 38  1  0
 13 39  1  0
 17 40  1  0
 18 41  1  0
 19 42  1  0
 19 43  1  0
 23 44  1  0
 23 45  1  0
 24 46  1  0
 26 47  1  0
 27 48  1  0
 28 49  1  0
M  END
$$$$
