
     RDKit          3D

 58 62  0  0  0  0  0  0  0  0999 V2000
   -2.5765    1.2252    1.7692 O   0  0  0  0  0  0  0  0  0  0  0  0
   -2.8804    0.8150    0.4883 C   0  0  0  0  0  0  0  0  0  0  0  0
   -2.3541   -0.3874   -0.0032 C   0  0  0  0  0  0  0  0  0  0  0  0
   -1.4626   -1.3292    0.8149 C   0  0  0  0  0  0  0  0  0  0  0  0
   -2.0548   -1.7296    2.1867 C   0  0  0  0  0  0  0  0  0  0  0  0
   -1.2486   -1.9170    3.3120 C   0  0  0  0  0  0  0  0  0  0  0  0
   -1.8263   -2.3360    4.5090 C   0  0  0  0  0  0  0  0  0  0  0  0
   -3.1913   -2.5792    4.5588 C   0  0  0  0  0  0  0  0  0  0  0  0
   -3.9242   -2.4054    3.3997 C   0  0  0  0  0  0  0  0  0  0  0  0
   -3.3911   -2.0087    2.2242 N   0  0  0  0  0  0  0  0  0  0  0  0
   -0.0030   -0.9935    0.8035 N   0  0  0  0  0  0  0  0  0  0  0  0
    0.3123    0.3504    1.3010 C   0  0  0  0  0  0  0  0  0  0  0  0
    1.8255    0.5189    1.4638 C   0  0  0  0  0  0  0  0  0  0  0  0
    2.5672    0.2596    0.1442 C   0  0  0  0  0  0  0  0  0  0  0  0
    4.0883    0.3515    0.3662 C   0  0  0  0  0  0  0  0  0  0  0  0
    4.8898    0.3136   -0.9131 C   0  0  0  0  0  0  0  0  0  0  0  0
    5.6205   -0.8299   -1.2625 C   0  0  0  0  0  0  0  0  0  0  0  0
    6.3544   -0.8657   -2.4493 C   0  0  0  0  0  0  0  0  0  0  0  0
    6.3657    0.2401   -3.2972 C   0  0  0  0  0  0  0  0  0  0  0  0
    5.6436    1.3830   -2.9591 C   0  0  0  0  0  0  0  0  0  0  0  0
    4.9091    1.4204   -1.7729 C   0  0  0  0  0  0  0  0  0  0  0  0
    2.1418   -1.1059   -0.4159 C   0  0  0  0  0  0  0  0  0  0  0  0
    0.6184   -1.2278   -0.5048 C   0  0  0  0  0  0  0  0  0  0  0  0
   -2.6921   -0.7395   -1.3186 C   0  0  0  0  0  0  0  0  0  0  0  0
   -3.5191    0.0797   -2.0935 C   0  0  0  0  0  0  0  0  0  0  0  0
   -3.8659   -0.4518   -3.7058 Cl  0  0  0  0  0  0  0  0  0  0  0  0
   -4.0436    1.2877   -1.5776 C   0  0  0  0  0  0  0  0  0  0  0  0
   -4.8860    2.1729   -2.2870 C   0  0  0  0  0  0  0  0  0  0  0  0
   -5.3502    3.3399   -1.6907 C   0  0  0  0  0  0  0  0  0  0  0  0
   -4.9612    3.6008   -0.3937 C   0  0  0  0  0  0  0  0  0  0  0  0
   -4.1573    2.7885    0.3251 N   0  0  0  0  0  0  0  0  0  0  0  0
   -3.7119    1.6534   -0.2596 C   0  0  0  0  0  0  0  0  0  0  0  0
   -3.1140    2.0369    1.8938 H   0  0  0  0  0  0  0  0  0  0  0  0
   -1.5207   -2.3054    0.3072 H   0  0  0  0  0  0  0  0  0  0  0  0
   -0.1783   -1.7465    3.2669 H   0  0  0  0  0  0  0  0  0  0  0  0
   -1.2102   -2.4736    5.3926 H   0  0  0  0  0  0  0  0  0  0  0  0
   -3.6708   -2.9028    5.4750 H   0  0  0  0  0  0  0  0  0  0  0  0
   -4.9942   -2.5896    3.3815 H   0  0  0  0  0  0  0  0  0  0  0  0
   -0.1412    0.5230    2.2822 H   0  0  0  0  0  0  0  0  0  0  0  0
   -0.0556    1.1276    0.6204 H   0  0  0  0  0  0  0  0  0  0  0  0
    2.0383    1.5354    1.8163 H   0  0  0  0  0  0  0  0  0  0  0  0
    2.1872   -0.1687    2.2399 H   0  0  0  0  0  0  0  0  0  0  0  0
    2.2603    1.0339   -0.5724 H   0  0  0  0  0  0  0  0  0  0  0  0
    4.4189   -0.4519    1.0374 H   0  0  0  0  0  0  0  0  0  0  0  0
    4.3315    1.2879    0.8860 H   0  0  0  0  0  0  0  0  0  0  0  0
    5.6198   -1.7024   -0.6131 H   0  0  0  0  0  0  0  0  0  0  0  0
    6.9173   -1.7574   -2.7120 H   0  0  0  0  0  0  0  0  0  0  0  0
    6.9376    0.2115   -4.2207 H   0  0  0  0  0  0  0  0  0  0  0  0
    5.6526    2.2463   -3.6191 H   0  0  0  0  0  0  0  0  0  0  0  0
    4.3514    2.3196   -1.5215 H   0  0  0  0  0  0  0  0  0  0  0  0
    2.5642   -1.2563   -1.4159 H   0  0  0  0  0  0  0  0  0  0  0  0
    2.5341   -1.9101    0.2205 H   0  0  0  0  0  0  0  0  0  0  0  0
    0.2428   -0.5233   -1.2570 H   0  0  0  0  0  0  0  0  0  0  0  0
    0.3877   -2.2396   -0.8594 H   0  0  0  0  0  0  0  0  0  0  0  0
   -2.3140   -1.6683   -1.7424 H   0  0  0  0  0  0  0  0  0  0  0  0
   -5.1876    1.9576   -3.3095 H   0  0  0  0  0  0  0  0  0  0  0  0
   -5.9984    4.0240   -2.2268 H   0  0  0  0  0  0  0  0  0  0  0  0
   -5.2949    4.4978    0.1207 H   0  0  0  0  0  0  0  0  0  0  0  0
  1  2  1  0
  2  3  2  0
  3  4  1  0
  4  5  1  0
  5  6  2  0
  6  7  1  0
  7  8  2  0
  8  9  1  0
  9 10  2  0
  4 11  1  0
 11 12  1  0
 12 13  1  0
 13 14  1  0
 14 15  1  0
 15 16  1  0
 16 17  2  0
 17 18  1  0
 18 19  2  0
 19 20  1  0
 20 21  2  0
 14 22  1  0
 22 23  1  0
  3 24  1  0
 24 25  2  0
 25 26  1  0
 25 27  1  0
 27 28  2  0
 28 29  1  0
 29 30  2  0
 30 31  1  0
 31 32  2  0
 32  2  1  0
 10  5  1  0
 23 11  1  0
 32 27  1  0
 21 16  1  0
  1 33  1  0
  4 34  1  0
  6 35  1  0
  7 36  1  0
  8 37  1  0
  9 38  1  0
 12 39  1  0
 12 40  1  0
 13 41  1  0
 13 42  1  0
 14 43  1  0
 15 44  1  0
 15 45  1  0
 17 46  1  0
 18 47  1  0
 19 48  1  0
 20 49  1  0
 21 50  1  0
 22 51  1  0
 22 52  1  0
 23 53  1  0
 23 54  1  0
 24 55  1  0
 28 56  1  0
 29 57  1  0
 30 58  1  0
M  END
$$$$
