
     RDKit          3D

 75 77  0  0  0  0  0  0  0  0999 V2000
   -3.9866    5.2299   -1.7209 C   0  0  0  0  0  0  0  0  0  0  0  0
   -2.5042    5.4250   -1.9898 C   0  0  0  0  0  0  0  0  0  0  0  0
   -1.8295    4.1706   -2.0616 O   0  0  0  0  0  0  0  0  0  0  0  0
   -1.3956    3.5775   -0.9101 C   0  0  0  0  0  0  0  0  0  0  0  0
   -1.5271    4.0843    0.3820 C   0  0  0  0  0  0  0  0  0  0  0  0
   -1.0289    3.3654    1.4722 C   0  0  0  0  0  0  0  0  0  0  0  0
   -0.4002    2.1364    1.2764 C   0  0  0  0  0  0  0  0  0  0  0  0
   -0.2740    1.6135   -0.0120 C   0  0  0  0  0  0  0  0  0  0  0  0
    0.3843    0.3688   -0.1988 N   0  0  0  0  0  0  0  0  0  0  0  0
    1.5711    0.2606   -0.9264 C   0  0  0  0  0  0  0  0  0  0  0  0
    2.0007   -0.8278   -1.3217 O   0  0  0  0  0  0  0  0  0  0  0  0
    2.3522    1.5428   -1.1943 C   0  0  0  0  0  0  0  0  0  0  0  0
    3.7887    1.2302   -1.6070 C   0  0  0  0  0  0  0  0  0  0  0  0
    4.5932    0.6689   -0.4453 C   0  0  0  0  0  0  0  0  0  0  0  0
    4.2809    0.8762    0.7242 O   0  0  0  0  0  0  0  0  0  0  0  0
    5.7032   -0.0244   -0.8688 N   0  0  0  0  0  0  0  0  0  0  0  0
    6.6305   -0.6202   -0.0429 C   0  0  0  0  0  0  0  0  0  0  0  0
    6.7082   -0.6233    1.3667 C   0  0  0  0  0  0  0  0  0  0  0  0
    7.8298   -1.3615    1.6504 C   0  0  0  0  0  0  0  0  0  0  0  0
    8.5083   -1.7695    2.8919 C   0  0  0  0  0  0  0  0  0  0  0  0
    8.3898   -1.7837    0.4864 O   0  0  0  0  0  0  0  0  0  0  0  0
    7.6414   -1.3152   -0.5779 N   0  0  0  0  0  0  0  0  0  0  0  0
   -0.3799   -0.8837   -0.0114 C   0  0  0  0  0  0  0  0  0  0  0  0
   -1.1620   -1.2981   -1.2989 C   0  0  0  0  0  0  0  0  0  0  0  0
   -1.3767   -0.5373   -2.2398 O   0  0  0  0  0  0  0  0  0  0  0  0
   -1.6132   -2.6120   -1.2800 N   0  0  0  0  0  0  0  0  0  0  0  0
   -2.4197   -3.2412   -2.3355 C   0  0  0  0  0  0  0  0  0  0  0  0
   -2.6705   -4.7064   -1.9319 C   0  0  0  0  0  0  0  0  0  0  0  0
   -1.6769   -3.2351   -3.6815 C   0  0  0  0  0  0  0  0  0  0  0  0
   -3.7783   -2.5364   -2.4757 C   0  0  0  0  0  0  0  0  0  0  0  0
   -1.2549   -0.9284    1.2419 C   0  0  0  0  0  0  0  0  0  0  0  0
   -0.7030   -1.3677    2.4548 C   0  0  0  0  0  0  0  0  0  0  0  0
   -1.4814   -1.4089    3.6137 C   0  0  0  0  0  0  0  0  0  0  0  0
   -2.8193   -1.0114    3.5896 C   0  0  0  0  0  0  0  0  0  0  0  0
   -3.4644   -1.1023    4.7920 O   0  0  0  0  0  0  0  0  0  0  0  0
   -4.8456   -0.7666    4.8058 C   0  0  0  0  0  0  0  0  0  0  0  0
   -3.3736   -0.5614    2.3924 C   0  0  0  0  0  0  0  0  0  0  0  0
   -2.5974   -0.5165    1.2285 C   0  0  0  0  0  0  0  0  0  0  0  0
   -0.7664    2.3421   -1.0994 C   0  0  0  0  0  0  0  0  0  0  0  0
   -4.1597    4.8057   -0.7275 H   0  0  0  0  0  0  0  0  0  0  0  0
   -4.4166    4.5298   -2.4434 H   0  0  0  0  0  0  0  0  0  0  0  0
   -4.5210    6.1812   -1.7892 H   0  0  0  0  0  0  0  0  0  0  0  0
   -2.0346    6.1141   -1.2800 H   0  0  0  0  0  0  0  0  0  0  0  0
   -2.3925    5.8896   -2.9761 H   0  0  0  0  0  0  0  0  0  0  0  0
   -2.0116    5.0335    0.5819 H   0  0  0  0  0  0  0  0  0  0  0  0
   -1.1278    3.7648    2.4785 H   0  0  0  0  0  0  0  0  0  0  0  0
   -0.0026    1.6000    2.1342 H   0  0  0  0  0  0  0  0  0  0  0  0
    2.3445    2.1846   -0.3072 H   0  0  0  0  0  0  0  0  0  0  0  0
    1.8652    2.0727   -2.0196 H   0  0  0  0  0  0  0  0  0  0  0  0
    3.8078    0.5294   -2.4496 H   0  0  0  0  0  0  0  0  0  0  0  0
    4.2830    2.1539   -1.9286 H   0  0  0  0  0  0  0  0  0  0  0  0
    5.8624   -0.1916   -1.8527 H   0  0  0  0  0  0  0  0  0  0  0  0
    6.0468   -0.1533    2.0791 H   0  0  0  0  0  0  0  0  0  0  0  0
    8.5039   -2.8594    2.9905 H   0  0  0  0  0  0  0  0  0  0  0  0
    8.0095   -1.3464    3.7694 H   0  0  0  0  0  0  0  0  0  0  0  0
    9.5475   -1.4260    2.8934 H   0  0  0  0  0  0  0  0  0  0  0  0
    0.3619   -1.6872    0.1151 H   0  0  0  0  0  0  0  0  0  0  0  0
   -1.5053   -3.1230   -0.4111 H   0  0  0  0  0  0  0  0  0  0  0  0
   -3.2049   -4.7679   -0.9769 H   0  0  0  0  0  0  0  0  0  0  0  0
   -1.7262   -5.2497   -1.8097 H   0  0  0  0  0  0  0  0  0  0  0  0
   -3.2674   -5.2329   -2.6849 H   0  0  0  0  0  0  0  0  0  0  0  0
   -0.6865   -3.6951   -3.5860 H   0  0  0  0  0  0  0  0  0  0  0  0
   -1.5305   -2.2217   -4.0675 H   0  0  0  0  0  0  0  0  0  0  0  0
   -2.2348   -3.7931   -4.4423 H   0  0  0  0  0  0  0  0  0  0  0  0
   -4.4224   -3.0585   -3.1922 H   0  0  0  0  0  0  0  0  0  0  0  0
   -3.6700   -1.5043   -2.8249 H   0  0  0  0  0  0  0  0  0  0  0  0
   -4.3031   -2.5010   -1.5136 H   0  0  0  0  0  0  0  0  0  0  0  0
    0.3408   -1.6725    2.5085 H   0  0  0  0  0  0  0  0  0  0  0  0
   -1.0396   -1.7507    4.5471 H   0  0  0  0  0  0  0  0  0  0  0  0
   -5.4184   -1.4237    4.1433 H   0  0  0  0  0  0  0  0  0  0  0  0
   -4.9975    0.2869    4.5490 H   0  0  0  0  0  0  0  0  0  0  0  0
   -5.2152   -0.9173    5.8246 H   0  0  0  0  0  0  0  0  0  0  0  0
   -4.4038   -0.2278    2.3269 H   0  0  0  0  0  0  0  0  0  0  0  0
   -3.0515   -0.1392    0.3130 H   0  0  0  0  0  0  0  0  0  0  0  0
   -0.6833    1.9434   -2.1086 H   0  0  0  0  0  0  0  0  0  0  0  0
  1  2  1  0
  2  3  1  0
  3  4  1  0
  4  5  2  0
  5  6  1  0
  6  7  2  0
  7  8  1  0
  8  9  1  0
  9 10  1  0
 10 11  2  0
 10 12  1  0
 12 13  1  0
 13 14  1  0
 14 15  2  0
 14 16  1  0
 16 17  1  0
 17 18  1  0
 18 19  2  0
 19 20  1  0
 19 21  1  0
 21 22  1  0
  9 23  1  0
 23 24  1  0
 24 25  2  0
 24 26  1  0
 26 27  1  0
 27 28  1  0
 27 29  1  0
 27 30  1  0
 23 31  1  0
 31 32  2  0
 32 33  1  0
 33 34  2  0
 34 35  1  0
 35 36  1  0
 34 37  1  0
 37 38  2  0
  8 39  2  0
 39  4  1  0
 22 17  2  0
 38 31  1  0
  1 40  1  0
  1 41  1  0
  1 42  1  0
  2 43  1  0
  2 44  1  0
  5 45  1  0
  6 46  1  0
  7 47  1  0
 12 48  1  0
 12 49  1  0
 13 50  1  0
 13 51  1  0
 16 52  1  0
 18 53  1  0
 20 54  1  0
 20 55  1  0
 20 56  1  0
 23 57  1  0
 26 58  1  0
 28 59  1  0
 28 60  1  0
 28 61  1  0
 29 62  1  0
 29 63  1  0
 29 64  1  0
 30 65  1  0
 30 66  1  0
 30 67  1  0
 32 68  1  0
 33 69  1  0
 36 70  1  0
 36 71  1  0
 36 72  1  0
 37 73  1  0
 38 74  1  0
 39 75  1  0
M  END
$$$$
