
     RDKit          3D

 60 61  0  0  0  0  0  0  0  0999 V2000
   -7.1367    1.4524   -0.7632 C   0  0  0  0  0  0  0  0  0  0  0  0
   -6.1938    0.7492   -1.5628 O   0  0  0  0  0  0  0  0  0  0  0  0
   -4.8672    0.9618   -1.2943 C   0  0  0  0  0  0  0  0  0  0  0  0
   -4.3538    1.9280   -0.4256 C   0  0  0  0  0  0  0  0  0  0  0  0
   -2.9712    2.0400   -0.2316 C   0  0  0  0  0  0  0  0  0  0  0  0
   -2.3820    2.9402    0.6237 O   0  0  0  0  0  0  0  0  0  0  0  0
   -3.2289    3.7379    1.4437 C   0  0  0  0  0  0  0  0  0  0  0  0
   -2.0992    1.1816   -0.9357 C   0  0  0  0  0  0  0  0  0  0  0  0
   -0.6561    1.2852   -0.7398 C   0  0  0  0  0  0  0  0  0  0  0  0
    0.0599    2.2520   -1.3346 N   0  0  0  0  0  0  0  0  0  0  0  0
    1.3699    2.0392   -0.9599 O   0  0  0  0  0  0  0  0  0  0  0  0
    1.4482    0.9546   -0.1375 C   0  0  0  0  0  0  0  0  0  0  0  0
    2.7222    0.6195    0.4403 C   0  0  0  0  0  0  0  0  0  0  0  0
    2.8892   -0.0819    1.4289 O   0  0  0  0  0  0  0  0  0  0  0  0
    3.7213    1.2138   -0.2709 O   0  0  0  0  0  0  0  0  0  0  0  0
    5.1123    1.0351    0.0997 C   0  0  0  0  0  0  0  0  0  0  0  0
    5.5319   -0.4369    0.0007 C   0  0  0  0  0  0  0  0  0  0  0  0
    5.3958    1.6220    1.4876 C   0  0  0  0  0  0  0  0  0  0  0  0
    5.8980    1.8409   -0.9465 C   0  0  0  0  0  0  0  0  0  0  0  0
    0.1850    0.4158    0.0064 C   0  0  0  0  0  0  0  0  0  0  0  0
   -0.1920   -0.7596    0.7487 C   0  0  0  0  0  0  0  0  0  0  0  0
   -1.2744   -0.8793    1.3051 O   0  0  0  0  0  0  0  0  0  0  0  0
    0.7751   -1.7148    0.7106 O   0  0  0  0  0  0  0  0  0  0  0  0
    0.6162   -2.9711    1.4144 C   0  0  0  0  0  0  0  0  0  0  0  0
    0.4910   -2.7506    2.9255 C   0  0  0  0  0  0  0  0  0  0  0  0
    1.9175   -3.7397    1.1330 C   0  0  0  0  0  0  0  0  0  0  0  0
   -0.5579   -3.7801    0.8496 C   0  0  0  0  0  0  0  0  0  0  0  0
   -2.6155    0.2052   -1.8127 C   0  0  0  0  0  0  0  0  0  0  0  0
   -1.7001   -0.6089   -2.4354 O   0  0  0  0  0  0  0  0  0  0  0  0
   -2.1871   -1.5122   -3.4222 C   0  0  0  0  0  0  0  0  0  0  0  0
   -3.9985    0.1091   -1.9840 C   0  0  0  0  0  0  0  0  0  0  0  0
   -7.0887    2.5295   -0.9533 H   0  0  0  0  0  0  0  0  0  0  0  0
   -8.1355    1.1085   -1.0460 H   0  0  0  0  0  0  0  0  0  0  0  0
   -6.9979    1.2321    0.3001 H   0  0  0  0  0  0  0  0  0  0  0  0
   -5.0284    2.5946    0.0964 H   0  0  0  0  0  0  0  0  0  0  0  0
   -3.8633    3.1147    2.0852 H   0  0  0  0  0  0  0  0  0  0  0  0
   -2.5904    4.3422    2.0967 H   0  0  0  0  0  0  0  0  0  0  0  0
   -3.8298    4.4268    0.8376 H   0  0  0  0  0  0  0  0  0  0  0  0
    6.6131   -0.5518    0.1279 H   0  0  0  0  0  0  0  0  0  0  0  0
    5.0451   -1.0549    0.7621 H   0  0  0  0  0  0  0  0  0  0  0  0
    5.2493   -0.8570   -0.9723 H   0  0  0  0  0  0  0  0  0  0  0  0
    4.9318    1.0297    2.2844 H   0  0  0  0  0  0  0  0  0  0  0  0
    4.9877    2.6377    1.5712 H   0  0  0  0  0  0  0  0  0  0  0  0
    6.4716    1.6601    1.6908 H   0  0  0  0  0  0  0  0  0  0  0  0
    5.5995    2.8950   -0.9304 H   0  0  0  0  0  0  0  0  0  0  0  0
    6.9785    1.7857   -0.7783 H   0  0  0  0  0  0  0  0  0  0  0  0
    5.6871    1.4748   -1.9580 H   0  0  0  0  0  0  0  0  0  0  0  0
    0.5335   -3.6995    3.4712 H   0  0  0  0  0  0  0  0  0  0  0  0
    1.2935   -2.0995    3.2921 H   0  0  0  0  0  0  0  0  0  0  0  0
   -0.4538   -2.2646    3.1900 H   0  0  0  0  0  0  0  0  0  0  0  0
    2.0486   -3.8959    0.0566 H   0  0  0  0  0  0  0  0  0  0  0  0
    1.9288   -4.7164    1.6276 H   0  0  0  0  0  0  0  0  0  0  0  0
    2.7899   -3.1680    1.4718 H   0  0  0  0  0  0  0  0  0  0  0  0
   -1.5237   -3.3077    1.0559 H   0  0  0  0  0  0  0  0  0  0  0  0
   -0.4786   -3.8650   -0.2421 H   0  0  0  0  0  0  0  0  0  0  0  0
   -0.5866   -4.7895    1.2754 H   0  0  0  0  0  0  0  0  0  0  0  0
   -1.3262   -2.0244   -3.8600 H   0  0  0  0  0  0  0  0  0  0  0  0
   -2.8325   -2.2755   -2.9737 H   0  0  0  0  0  0  0  0  0  0  0  0
   -2.7022   -0.9793   -4.2291 H   0  0  0  0  0  0  0  0  0  0  0  0
   -4.4400   -0.6310   -2.6449 H   0  0  0  0  0  0  0  0  0  0  0  0
  1  2  1  0
  2  3  1  0
  3  4  2  0
  4  5  1  0
  5  6  1  0
  6  7  1  0
  5  8  2  0
  8  9  1  0
  9 10  2  0
 10 11  1  0
 11 12  1  0
 12 13  1  0
 13 14  2  0
 13 15  1  0
 15 16  1  0
 16 17  1  0
 16 18  1  0
 16 19  1  0
 12 20  2  0
 20 21  1  0
 21 22  2  0
 21 23  1  0
 23 24  1  0
 24 25  1  0
 24 26  1  0
 24 27  1  0
  8 28  1  0
 28 29  1  0
 29 30  1  0
 28 31  2  0
 31  3  1  0
 20  9  1  0
  1 32  1  0
  1 33  1  0
  1 34  1  0
  4 35  1  0
  7 36  1  0
  7 37  1  0
  7 38  1  0
 17 39  1  0
 17 40  1  0
 17 41  1  0
 18 42  1  0
 18 43  1  0
 18 44  1  0
 19 45  1  0
 19 46  1  0
 19 47  1  0
 25 48  1  0
 25 49  1  0
 25 50  1  0
 26 51  1  0
 26 52  1  0
 26 53  1  0
 27 54  1  0
 27 55  1  0
 27 56  1  0
 30 57  1  0
 30 58  1  0
 30 59  1  0
 31 60  1  0
M  END
$$$$
