
     RDKit          3D

 53 56  0  0  0  0  0  0  0  0999 V2000
    6.4471    3.8971   -1.7326 C   0  0  0  0  0  0  0  0  0  0  0  0
    6.4176    2.5162   -1.3939 O   0  0  0  0  0  0  0  0  0  0  0  0
    5.0868    2.0715   -1.1176 C   0  0  0  0  0  0  0  0  0  0  0  0
    5.1257    0.5865   -0.7777 C   0  0  0  0  0  0  0  0  0  0  0  0
    3.8059    0.0541   -0.4723 N   0  0  0  0  0  0  0  0  0  0  0  0
    3.2757   -0.0502    0.7965 C   0  0  0  0  0  0  0  0  0  0  0  0
    3.9854    0.3856    2.0310 C   0  0  0  0  0  0  0  0  0  0  0  0
    2.0238   -0.6158    0.6750 C   0  0  0  0  0  0  0  0  0  0  0  0
    1.7683   -0.8668   -0.7022 C   0  0  0  0  0  0  0  0  0  0  0  0
    0.5672   -1.4715   -1.3073 C   0  0  0  0  0  0  0  0  0  0  0  0
    0.4567   -1.6045   -2.5293 O   0  0  0  0  0  0  0  0  0  0  0  0
   -0.5521   -1.9413   -0.3975 C   0  0  0  0  0  0  0  0  0  0  0  0
   -1.6552   -0.5466   -0.0085 S   0  0  0  0  0  0  0  0  0  0  0  0
   -2.8937   -1.3955    0.9249 C   0  0  0  0  0  0  0  0  0  0  0  0
   -2.5898   -2.5737    1.5089 N   0  0  0  0  0  0  0  0  0  0  0  0
   -3.5331   -3.1975    2.2390 C   0  0  0  0  0  0  0  0  0  0  0  0
   -3.1573   -4.5165    2.8428 C   0  0  0  0  0  0  0  0  0  0  0  0
   -4.7836   -2.7695    2.4452 N   0  0  0  0  0  0  0  0  0  0  0  0
   -5.0475   -1.5937    1.8527 C   0  0  0  0  0  0  0  0  0  0  0  0
   -6.6019   -0.8725    2.0195 S   0  0  0  0  0  0  0  0  0  0  0  0
   -6.1219    0.4199    1.0781 C   0  0  0  0  0  0  0  0  0  0  0  0
   -4.8314    0.3390    0.6293 C   0  0  0  0  0  0  0  0  0  0  0  0
   -4.1680   -0.8391    1.0764 C   0  0  0  0  0  0  0  0  0  0  0  0
   -4.4886    1.5242   -0.2006 C   0  0  0  0  0  0  0  0  0  0  0  0
   -5.8863    2.1683   -0.4634 C   0  0  0  0  0  0  0  0  0  0  0  0
   -6.8447    1.6374    0.6442 C   0  0  0  0  0  0  0  0  0  0  0  0
    2.8932   -0.4219   -1.3959 C   0  0  0  0  0  0  0  0  0  0  0  0
    3.1334   -0.4349   -2.8723 C   0  0  0  0  0  0  0  0  0  0  0  0
    7.4841    4.1804   -1.9318 H   0  0  0  0  0  0  0  0  0  0  0  0
    6.0717    4.5032   -0.9022 H   0  0  0  0  0  0  0  0  0  0  0  0
    5.8545    4.0831   -2.6337 H   0  0  0  0  0  0  0  0  0  0  0  0
    4.6800    2.6451   -0.2760 H   0  0  0  0  0  0  0  0  0  0  0  0
    4.4532    2.2508   -1.9942 H   0  0  0  0  0  0  0  0  0  0  0  0
    5.5595    0.0005   -1.5951 H   0  0  0  0  0  0  0  0  0  0  0  0
    5.7848    0.4073    0.0791 H   0  0  0  0  0  0  0  0  0  0  0  0
    4.8598   -0.2462    2.2163 H   0  0  0  0  0  0  0  0  0  0  0  0
    4.3120    1.4266    1.9486 H   0  0  0  0  0  0  0  0  0  0  0  0
    3.3284    0.3120    2.9037 H   0  0  0  0  0  0  0  0  0  0  0  0
    1.3641   -0.8223    1.5088 H   0  0  0  0  0  0  0  0  0  0  0  0
   -1.1138   -2.7187   -0.9275 H   0  0  0  0  0  0  0  0  0  0  0  0
   -0.1354   -2.3937    0.5075 H   0  0  0  0  0  0  0  0  0  0  0  0
   -2.1129   -4.5036    3.1699 H   0  0  0  0  0  0  0  0  0  0  0  0
   -3.2861   -5.3106    2.1015 H   0  0  0  0  0  0  0  0  0  0  0  0
   -3.7850   -4.7394    3.7114 H   0  0  0  0  0  0  0  0  0  0  0  0
   -4.0023    1.2603   -1.1437 H   0  0  0  0  0  0  0  0  0  0  0  0
   -3.8499    2.2136    0.3613 H   0  0  0  0  0  0  0  0  0  0  0  0
   -5.8418    3.2611   -0.4861 H   0  0  0  0  0  0  0  0  0  0  0  0
   -6.2533    1.8341   -1.4428 H   0  0  0  0  0  0  0  0  0  0  0  0
   -7.8402    1.4317    0.2418 H   0  0  0  0  0  0  0  0  0  0  0  0
   -6.9206    2.3587    1.4644 H   0  0  0  0  0  0  0  0  0  0  0  0
    2.3065    0.0593   -3.3932 H   0  0  0  0  0  0  0  0  0  0  0  0
    3.2047   -1.4666   -3.2320 H   0  0  0  0  0  0  0  0  0  0  0  0
    4.0467    0.0852   -3.1688 H   0  0  0  0  0  0  0  0  0  0  0  0
  1  2  1  0
  2  3  1  0
  3  4  1  0
  4  5  1  0
  5  6  1  0
  6  7  1  0
  6  8  2  0
  8  9  1  0
  9 10  1  0
 10 11  2  0
 10 12  1  0
 12 13  1  0
 13 14  1  0
 14 15  2  0
 15 16  1  0
 16 17  1  0
 16 18  2  0
 18 19  1  0
 19 20  1  0
 20 21  1  0
 21 22  2  0
 22 23  1  0
 22 24  1  0
 24 25  1  0
 25 26  1  0
  9 27  2  0
 27 28  1  0
 27  5  1  0
 23 14  1  0
 23 19  2  0
 26 21  1  0
  1 29  1  0
  1 30  1  0
  1 31  1  0
  3 32  1  0
  3 33  1  0
  4 34  1  0
  4 35  1  0
  7 36  1  0
  7 37  1  0
  7 38  1  0
  8 39  1  0
 12 40  1  0
 12 41  1  0
 17 42  1  0
 17 43  1  0
 17 44  1  0
 24 45  1  0
 24 46  1  0
 25 47  1  0
 25 48  1  0
 26 49  1  0
 26 50  1  0
 28 51  1  0
 28 52  1  0
 28 53  1  0
M  END
$$$$
