
     RDKit          3D

 39 41  0  0  0  0  0  0  0  0999 V2000
    1.1662   -2.4718    2.6015 O   0  0  0  0  0  0  0  0  0  0  0  0
    1.3719   -2.1612    1.4427 C   0  0  0  0  0  0  0  0  0  0  0  0
    2.0414   -2.9049    0.4874 N   0  0  0  0  0  0  0  0  0  0  0  0
    1.8009   -2.3314   -0.7576 N   0  0  0  0  0  0  0  0  0  0  0  0
    1.2302   -1.0919   -0.5076 C   0  0  0  0  0  0  0  0  0  0  0  0
    1.0399   -0.1742   -1.6302 C   0  0  0  0  0  0  0  0  0  0  0  0
    2.0876    0.6889   -1.9853 C   0  0  0  0  0  0  0  0  0  0  0  0
    1.9431    1.5872   -3.0454 C   0  0  0  0  0  0  0  0  0  0  0  0
    0.7541    1.6244   -3.7703 C   0  0  0  0  0  0  0  0  0  0  0  0
   -0.2870    0.7579   -3.4418 C   0  0  0  0  0  0  0  0  0  0  0  0
   -0.1407   -0.1391   -2.3847 C   0  0  0  0  0  0  0  0  0  0  0  0
   -1.2054   -0.9641   -2.1481 O   0  0  0  0  0  0  0  0  0  0  0  0
    0.9095   -0.9048    0.7867 C   0  0  0  0  0  0  0  0  0  0  0  0
    0.2762    0.1833    1.6068 C   0  0  0  0  0  0  0  0  0  0  0  0
    0.7653    1.6094    1.3295 C   0  0  0  0  0  0  0  0  0  0  0  0
    2.1596    1.7473    1.8591 N   0  0  0  0  0  4  0  0  0  0  0  0
    3.0898    1.5151    1.0771 O   0  0  0  0  0  0  0  0  0  0  0  0
    2.2816    2.0871    3.0419 O   0  0  0  0  0  1  0  0  0  0  0  0
   -1.2482    0.0755    1.5347 C   0  0  0  0  0  0  0  0  0  0  0  0
   -1.9171   -0.7658    2.4416 C   0  0  0  0  0  0  0  0  0  0  0  0
   -3.3045   -0.9095    2.3961 C   0  0  0  0  0  0  0  0  0  0  0  0
   -4.0449   -0.2215    1.4394 C   0  0  0  0  0  0  0  0  0  0  0  0
   -3.3978    0.6077    0.5270 C   0  0  0  0  0  0  0  0  0  0  0  0
   -2.0095    0.7559    0.5722 C   0  0  0  0  0  0  0  0  0  0  0  0
    2.0950   -3.9128    0.5908 H   0  0  0  0  0  0  0  0  0  0  0  0
    2.6221   -2.2640   -1.3657 H   0  0  0  0  0  0  0  0  0  0  0  0
    3.0278    0.6729   -1.4360 H   0  0  0  0  0  0  0  0  0  0  0  0
    2.7610    2.2549   -3.3064 H   0  0  0  0  0  0  0  0  0  0  0  0
    0.6407    2.3198   -4.5982 H   0  0  0  0  0  0  0  0  0  0  0  0
   -1.2108    0.7731   -4.0144 H   0  0  0  0  0  0  0  0  0  0  0  0
   -0.9767   -1.5891   -1.4375 H   0  0  0  0  0  0  0  0  0  0  0  0
    0.5333   -0.0088    2.6598 H   0  0  0  0  0  0  0  0  0  0  0  0
    0.7831    1.8890    0.2737 H   0  0  0  0  0  0  0  0  0  0  0  0
    0.1670    2.3575    1.8641 H   0  0  0  0  0  0  0  0  0  0  0  0
   -1.3577   -1.3239    3.1926 H   0  0  0  0  0  0  0  0  0  0  0  0
   -3.8052   -1.5634    3.1057 H   0  0  0  0  0  0  0  0  0  0  0  0
   -5.1249   -0.3367    1.4001 H   0  0  0  0  0  0  0  0  0  0  0  0
   -3.9742    1.1343   -0.2300 H   0  0  0  0  0  0  0  0  0  0  0  0
   -1.5427    1.3977   -0.1711 H   0  0  0  0  0  0  0  0  0  0  0  0
  1  2  2  0
  2  3  1  0
  3  4  1  0
  4  5  1  0
  5  6  1  0
  6  7  2  0
  7  8  1  0
  8  9  2  0
  9 10  1  0
 10 11  2  0
 11 12  1  0
  5 13  2  0
 13 14  1  0
 14 15  1  0
 15 16  1  0
 16 17  2  0
 16 18  1  0
 14 19  1  0
 19 20  2  0
 20 21  1  0
 21 22  2  0
 22 23  1  0
 23 24  2  0
 13  2  1  0
 24 19  1  0
 11  6  1  0
  3 25  1  0
  4 26  1  0
  7 27  1  0
  8 28  1  0
  9 29  1  0
 10 30  1  0
 12 31  1  0
 14 32  1  0
 15 33  1  0
 15 34  1  0
 20 35  1  0
 21 36  1  0
 22 37  1  0
 23 38  1  0
 24 39  1  0
M  CHG  2  16   1  18  -1
M  END
$$$$
