
     RDKit          3D

 50 52  0  0  0  0  0  0  0  0999 V2000
    2.8332   -1.7899    0.2864 O   0  0  0  0  0  0  0  0  0  0  0  0
    3.1312   -0.5290    0.8946 C   0  0  0  0  0  0  0  0  0  0  0  0
    3.6381    0.4632   -0.1640 C   0  0  0  0  0  0  0  0  0  0  0  0
    2.8331    0.3495   -1.3443 O   0  0  0  0  0  0  0  0  0  0  0  0
    3.1160    1.3564   -2.3168 C   0  0  0  0  0  0  0  0  0  0  0  0
    4.3228    0.9503   -3.1033 C   0  0  0  0  0  0  0  0  0  0  0  0
    5.5884    1.5048   -3.0769 C   0  0  0  0  0  0  0  0  0  0  0  0
    6.4855    0.8532   -3.9719 C   0  0  0  0  0  0  0  0  0  0  0  0
    5.8749   -0.1730   -4.6565 C   0  0  0  0  0  0  0  0  0  0  0  0
    4.2303   -0.3451   -4.2234 S   0  0  0  0  0  0  0  0  0  0  0  0
    1.9377   -0.0090    1.7376 C   0  0  0  0  0  0  0  0  0  0  0  0
    0.7576    0.5091    1.0166 N   0  0  0  0  0  0  0  0  0  0  0  0
   -0.1746    1.2046    1.9340 C   0  0  0  0  0  0  0  0  0  0  0  0
   -1.3797    0.3730    2.4336 C   0  0  0  0  0  0  0  0  0  0  0  0
   -2.1738   -0.1330    1.3037 N   0  0  0  0  0  0  0  0  0  0  0  0
   -3.5206   -0.4222    1.4294 C   0  0  0  0  0  0  0  0  0  0  0  0
   -4.1155   -0.6561    2.6793 C   0  0  0  0  0  0  0  0  0  0  0  0
   -5.4778   -0.9467    2.8139 C   0  0  0  0  0  0  0  0  0  0  0  0
   -6.2907   -1.0125    1.6887 C   0  0  0  0  0  0  0  0  0  0  0  0
   -5.7423   -0.7947    0.4217 C   0  0  0  0  0  0  0  0  0  0  0  0
   -6.6090   -0.8322   -0.8101 C   0  0  0  0  0  0  0  0  0  0  0  0
   -7.7007   -1.6375   -0.6747 F   0  0  0  0  0  0  0  0  0  0  0  0
   -5.9522   -1.2853   -1.9151 F   0  0  0  0  0  0  0  0  0  0  0  0
   -7.0930    0.3968   -1.1423 F   0  0  0  0  0  0  0  0  0  0  0  0
   -4.3692   -0.4967    0.3125 C   0  0  0  0  0  0  0  0  0  0  0  0
   -1.4529   -0.3039    0.0304 C   0  0  0  0  0  0  0  0  0  0  0  0
    0.0523   -0.5679    0.2796 C   0  0  0  0  0  0  0  0  0  0  0  0
    2.5749   -1.5652   -0.6312 H   0  0  0  0  0  0  0  0  0  0  0  0
    3.9498   -0.7128    1.6012 H   0  0  0  0  0  0  0  0  0  0  0  0
    3.6303    1.4870    0.2263 H   0  0  0  0  0  0  0  0  0  0  0  0
    4.6658    0.1928   -0.4306 H   0  0  0  0  0  0  0  0  0  0  0  0
    2.2456    1.4316   -2.9782 H   0  0  0  0  0  0  0  0  0  0  0  0
    3.2454    2.3350   -1.8406 H   0  0  0  0  0  0  0  0  0  0  0  0
    5.8617    2.3390   -2.4420 H   0  0  0  0  0  0  0  0  0  0  0  0
    7.5256    1.1231   -4.1075 H   0  0  0  0  0  0  0  0  0  0  0  0
    6.3134   -0.8320   -5.3932 H   0  0  0  0  0  0  0  0  0  0  0  0
    2.3434    0.8089    2.3481 H   0  0  0  0  0  0  0  0  0  0  0  0
    1.6257   -0.7984    2.4344 H   0  0  0  0  0  0  0  0  0  0  0  0
   -0.5693    2.0685    1.3821 H   0  0  0  0  0  0  0  0  0  0  0  0
    0.3542    1.6317    2.7950 H   0  0  0  0  0  0  0  0  0  0  0  0
   -1.9853    1.0295    3.0702 H   0  0  0  0  0  0  0  0  0  0  0  0
   -1.0287   -0.4675    3.0443 H   0  0  0  0  0  0  0  0  0  0  0  0
   -3.5164   -0.6388    3.5857 H   0  0  0  0  0  0  0  0  0  0  0  0
   -5.8967   -1.1247    3.8011 H   0  0  0  0  0  0  0  0  0  0  0  0
   -7.3499   -1.2357    1.8024 H   0  0  0  0  0  0  0  0  0  0  0  0
   -3.9720   -0.2981   -0.6813 H   0  0  0  0  0  0  0  0  0  0  0  0
   -1.5808    0.5918   -0.5893 H   0  0  0  0  0  0  0  0  0  0  0  0
   -1.8452   -1.1635   -0.5265 H   0  0  0  0  0  0  0  0  0  0  0  0
    0.1279   -1.5170    0.8277 H   0  0  0  0  0  0  0  0  0  0  0  0
    0.5318   -0.7114   -0.6932 H   0  0  0  0  0  0  0  0  0  0  0  0
  1  2  1  0
  2  3  1  0
  3  4  1  0
  4  5  1  0
  5  6  1  0
  6  7  2  0
  7  8  1  0
  8  9  2  0
  9 10  1  0
  2 11  1  0
 11 12  1  0
 12 13  1  0
 13 14  1  0
 14 15  1  0
 15 16  1  0
 16 17  2  0
 17 18  1  0
 18 19  2  0
 19 20  1  0
 20 21  1  0
 21 22  1  0
 21 23  1  0
 21 24  1  0
 20 25  2  0
 15 26  1  0
 26 27  1  0
 10  6  1  0
 27 12  1  0
 25 16  1  0
  1 28  1  0
  2 29  1  0
  3 30  1  0
  3 31  1  0
  5 32  1  0
  5 33  1  0
  7 34  1  0
  8 35  1  0
  9 36  1  0
 11 37  1  0
 11 38  1  0
 13 39  1  0
 13 40  1  0
 14 41  1  0
 14 42  1  0
 17 43  1  0
 18 44  1  0
 19 45  1  0
 25 46  1  0
 26 47  1  0
 26 48  1  0
 27 49  1  0
 27 50  1  0
M  END
$$$$
