
     RDKit          3D

 44 46  0  0  0  0  0  0  0  0999 V2000
    3.7137    1.9440    1.4142 C   0  0  0  0  0  0  0  0  0  0  0  0
    2.5978    1.2127    0.7463 C   0  0  0  0  0  0  0  0  0  0  0  0
    1.2636    1.5677    0.7390 C   0  0  0  0  0  0  0  0  0  0  0  0
    0.5569    0.6707   -0.1011 C   0  0  0  0  0  0  0  0  0  0  0  0
   -0.8777    0.6886   -0.4282 C   0  0  0  0  0  0  0  0  0  0  0  0
   -1.3570   -0.0478   -1.2940 O   0  0  0  0  0  0  0  0  0  0  0  0
   -1.7605    1.6995    0.3113 C   0  0  0  0  0  0  0  0  0  0  0  0
   -3.1510    1.5026    0.0451 O   0  0  0  0  0  0  0  0  0  0  0  0
   -3.6893    0.4462    0.7152 C   0  0  0  0  0  0  0  0  0  0  0  0
   -3.1145   -0.2182    1.5628 O   0  0  0  0  0  0  0  0  0  0  0  0
   -5.0656    0.2122    0.2513 C   0  0  0  0  0  0  0  0  0  0  0  0
   -5.3145    0.1094   -1.0688 C   0  0  0  0  0  0  0  0  0  0  0  0
   -6.6440   -0.1776   -1.5584 C   0  0  0  0  0  0  0  0  0  0  0  0
   -7.6441   -0.3668   -0.6902 C   0  0  0  0  0  0  0  0  0  0  0  0
   -7.4124   -0.2737    0.6574 N   0  0  0  0  0  0  0  0  0  0  0  0
   -6.1835    0.0185    1.2145 C   0  0  0  0  0  0  0  0  0  0  0  0
   -6.0514    0.1389    2.4272 O   0  0  0  0  0  0  0  0  0  0  0  0
    1.4910   -0.2599   -0.5526 C   0  0  0  0  0  0  0  0  0  0  0  0
    1.2321   -1.5042   -1.3459 C   0  0  0  0  0  0  0  0  0  0  0  0
    2.7514    0.0977   -0.0720 N   0  0  0  0  0  0  0  0  0  0  0  0
    3.9847   -0.5466   -0.3862 C   0  0  0  0  0  0  0  0  0  0  0  0
    4.2729   -0.8921   -1.7153 C   0  0  0  0  0  0  0  0  0  0  0  0
    5.4834   -1.5147   -2.0267 C   0  0  0  0  0  0  0  0  0  0  0  0
    6.3946   -1.7903   -1.0140 C   0  0  0  0  0  0  0  0  0  0  0  0
    7.5544   -2.3885   -1.3153 F   0  0  0  0  0  0  0  0  0  0  0  0
    6.1204   -1.4554    0.3070 C   0  0  0  0  0  0  0  0  0  0  0  0
    4.9129   -0.8299    0.6255 C   0  0  0  0  0  0  0  0  0  0  0  0
    3.4059    2.9666    1.6598 H   0  0  0  0  0  0  0  0  0  0  0  0
    3.9923    1.4542    2.3517 H   0  0  0  0  0  0  0  0  0  0  0  0
    4.5929    2.0229    0.7679 H   0  0  0  0  0  0  0  0  0  0  0  0
    0.8589    2.4197    1.2722 H   0  0  0  0  0  0  0  0  0  0  0  0
   -1.5677    1.6714    1.3898 H   0  0  0  0  0  0  0  0  0  0  0  0
   -1.5040    2.7001   -0.0526 H   0  0  0  0  0  0  0  0  0  0  0  0
   -4.5207    0.2116   -1.8048 H   0  0  0  0  0  0  0  0  0  0  0  0
   -6.8025   -0.2471   -2.6298 H   0  0  0  0  0  0  0  0  0  0  0  0
   -8.6588   -0.5930   -1.0016 H   0  0  0  0  0  0  0  0  0  0  0  0
   -8.1701   -0.4050    1.3172 H   0  0  0  0  0  0  0  0  0  0  0  0
    1.2195   -1.2786   -2.4165 H   0  0  0  0  0  0  0  0  0  0  0  0
    0.2662   -1.9436   -1.0767 H   0  0  0  0  0  0  0  0  0  0  0  0
    1.9749   -2.2835   -1.1530 H   0  0  0  0  0  0  0  0  0  0  0  0
    3.5852   -0.6521   -2.5224 H   0  0  0  0  0  0  0  0  0  0  0  0
    5.7232   -1.7799   -3.0515 H   0  0  0  0  0  0  0  0  0  0  0  0
    6.8436   -1.6918    1.0812 H   0  0  0  0  0  0  0  0  0  0  0  0
    4.6970   -0.6145    1.6681 H   0  0  0  0  0  0  0  0  0  0  0  0
  1  2  1  0
  2  3  2  0
  3  4  1  0
  4  5  1  0
  5  6  2  0
  5  7  1  0
  7  8  1  0
  8  9  1  0
  9 10  2  0
  9 11  1  0
 11 12  2  0
 12 13  1  0
 13 14  2  0
 14 15  1  0
 15 16  1  0
 16 17  2  0
  4 18  2  0
 18 19  1  0
 18 20  1  0
 20 21  1  0
 21 22  2  0
 22 23  1  0
 23 24  2  0
 24 25  1  0
 24 26  1  0
 26 27  2  0
 20  2  1  0
 27 21  1  0
 16 11  1  0
  1 28  1  0
  1 29  1  0
  1 30  1  0
  3 31  1  0
  7 32  1  0
  7 33  1  0
 12 34  1  0
 13 35  1  0
 14 36  1  0
 15 37  1  0
 19 38  1  0
 19 39  1  0
 19 40  1  0
 22 41  1  0
 23 42  1  0
 26 43  1  0
 27 44  1  0
M  END
$$$$
