
     RDKit          3D

 51 54  0  0  0  0  0  0  0  0999 V2000
   -3.2810   -1.5251   -2.4446 C   0  0  0  0  0  0  0  0  0  0  0  0
   -2.9104   -0.8991   -1.2248 O   0  0  0  0  0  0  0  0  0  0  0  0
   -3.9058   -0.3804   -0.4422 C   0  0  0  0  0  0  0  0  0  0  0  0
   -5.2566   -0.3487   -0.8120 C   0  0  0  0  0  0  0  0  0  0  0  0
   -6.2169    0.1989    0.0404 C   0  0  0  0  0  0  0  0  0  0  0  0
   -5.8374    0.7208    1.2705 C   0  0  0  0  0  0  0  0  0  0  0  0
   -4.4959    0.6972    1.6479 C   0  0  0  0  0  0  0  0  0  0  0  0
   -3.5098    0.1521    0.8018 C   0  0  0  0  0  0  0  0  0  0  0  0
   -2.0651    0.1581    1.2898 C   0  0  0  0  0  0  0  0  0  0  0  0
   -1.0842    0.9206    0.3766 C   0  0  0  0  0  0  0  0  0  0  0  0
    0.0293    0.0248   -0.1699 C   0  0  0  0  0  0  0  0  0  0  0  0
    0.7700   -0.7191    0.8585 N   0  0  0  0  0  0  0  0  0  0  0  0
    1.9555   -0.0093    1.3611 C   0  0  0  0  0  0  0  0  0  0  0  0
    3.0244    0.0734    0.3081 C   0  0  0  0  0  0  0  0  0  0  0  0
    3.6647   -0.9886   -0.3176 C   0  0  0  0  0  0  0  0  0  0  0  0
    3.4767   -2.4539   -0.1637 C   0  0  0  0  0  0  0  0  0  0  0  0
    4.5697   -0.4693   -1.2072 N   0  0  0  0  0  0  0  0  0  0  0  0
    4.5562    0.9038   -1.1672 C   0  0  0  0  0  0  0  0  0  0  0  0
    5.3140    1.8331   -1.8904 C   0  0  0  0  0  0  0  0  0  0  0  0
    5.0844    3.1894   -1.6443 C   0  0  0  0  0  0  0  0  0  0  0  0
    4.1328    3.5968   -0.7133 C   0  0  0  0  0  0  0  0  0  0  0  0
    3.3840    2.6534   -0.0002 C   0  0  0  0  0  0  0  0  0  0  0  0
    3.5970    1.2767   -0.2268 C   0  0  0  0  0  0  0  0  0  0  0  0
   -0.0675   -1.1832    1.9724 C   0  0  0  0  0  0  0  0  0  0  0  0
   -1.5566   -1.2510    1.6338 C   0  0  0  0  0  0  0  0  0  0  0  0
   -2.3709   -1.9180   -2.9079 H   0  0  0  0  0  0  0  0  0  0  0  0
   -3.9545   -2.3701   -2.2682 H   0  0  0  0  0  0  0  0  0  0  0  0
   -3.7219   -0.8033   -3.1398 H   0  0  0  0  0  0  0  0  0  0  0  0
   -5.5973   -0.7414   -1.7641 H   0  0  0  0  0  0  0  0  0  0  0  0
   -7.2615    0.2170   -0.2589 H   0  0  0  0  0  0  0  0  0  0  0  0
   -6.5829    1.1473    1.9363 H   0  0  0  0  0  0  0  0  0  0  0  0
   -4.2218    1.1112    2.6161 H   0  0  0  0  0  0  0  0  0  0  0  0
   -2.0584    0.7180    2.2372 H   0  0  0  0  0  0  0  0  0  0  0  0
   -1.6017    1.4139   -0.4548 H   0  0  0  0  0  0  0  0  0  0  0  0
   -0.6230    1.7314    0.9570 H   0  0  0  0  0  0  0  0  0  0  0  0
    0.6932    0.6257   -0.8014 H   0  0  0  0  0  0  0  0  0  0  0  0
   -0.4037   -0.7120   -0.8559 H   0  0  0  0  0  0  0  0  0  0  0  0
    2.3887   -0.5584    2.2083 H   0  0  0  0  0  0  0  0  0  0  0  0
    1.6854    0.9848    1.7358 H   0  0  0  0  0  0  0  0  0  0  0  0
    4.3507   -3.0082   -0.5215 H   0  0  0  0  0  0  0  0  0  0  0  0
    3.3226   -2.7178    0.8874 H   0  0  0  0  0  0  0  0  0  0  0  0
    2.6041   -2.7858   -0.7353 H   0  0  0  0  0  0  0  0  0  0  0  0
    5.1675   -1.0148   -1.8114 H   0  0  0  0  0  0  0  0  0  0  0  0
    6.0541    1.5175   -2.6181 H   0  0  0  0  0  0  0  0  0  0  0  0
    5.6563    3.9360   -2.1899 H   0  0  0  0  0  0  0  0  0  0  0  0
    3.9670    4.6564   -0.5379 H   0  0  0  0  0  0  0  0  0  0  0  0
    2.6427    2.9858    0.7196 H   0  0  0  0  0  0  0  0  0  0  0  0
    0.2799   -2.1770    2.2781 H   0  0  0  0  0  0  0  0  0  0  0  0
    0.0451   -0.5270    2.8466 H   0  0  0  0  0  0  0  0  0  0  0  0
   -2.1129   -1.6464    2.4930 H   0  0  0  0  0  0  0  0  0  0  0  0
   -1.7184   -1.9599    0.8132 H   0  0  0  0  0  0  0  0  0  0  0  0
  1  2  1  0
  2  3  1  0
  3  4  2  0
  4  5  1  0
  5  6  2  0
  6  7  1  0
  7  8  2  0
  8  9  1  0
  9 10  1  0
 10 11  1  0
 11 12  1  0
 12 13  1  0
 13 14  1  0
 14 15  2  0
 15 16  1  0
 15 17  1  0
 17 18  1  0
 18 19  2  0
 19 20  1  0
 20 21  2  0
 21 22  1  0
 22 23  2  0
 12 24  1  0
 24 25  1  0
  8  3  1  0
 25  9  1  0
 23 14  1  0
 23 18  1  0
  1 26  1  0
  1 27  1  0
  1 28  1  0
  4 29  1  0
  5 30  1  0
  6 31  1  0
  7 32  1  0
  9 33  1  0
 10 34  1  0
 10 35  1  0
 11 36  1  0
 11 37  1  0
 13 38  1  0
 13 39  1  0
 16 40  1  0
 16 41  1  0
 16 42  1  0
 17 43  1  0
 19 44  1  0
 20 45  1  0
 21 46  1  0
 22 47  1  0
 24 48  1  0
 24 49  1  0
 25 50  1  0
 25 51  1  0
M  END
$$$$
