
     RDKit          3D

 54 57  0  0  0  0  0  0  0  0999 V2000
    7.9015    0.1543   -1.8791 C   0  0  0  0  0  0  0  0  0  0  0  0
    6.4805    0.1286   -1.7964 O   0  0  0  0  0  0  0  0  0  0  0  0
    5.9384   -0.4295   -0.6707 C   0  0  0  0  0  0  0  0  0  0  0  0
    6.6451   -1.0139    0.3773 C   0  0  0  0  0  0  0  0  0  0  0  0
    5.9550   -1.5437    1.4695 C   0  0  0  0  0  0  0  0  0  0  0  0
    4.5591   -1.4924    1.5212 C   0  0  0  0  0  0  0  0  0  0  0  0
    3.8393   -0.9092    0.4800 C   0  0  0  0  0  0  0  0  0  0  0  0
    2.4322   -0.8089    0.4502 N   0  0  0  0  0  0  0  0  0  0  0  0
    1.5384   -1.2076    1.4268 C   0  0  0  0  0  0  0  0  0  0  0  0
    1.8075   -1.6953    2.5178 O   0  0  0  0  0  0  0  0  0  0  0  0
    0.1230   -0.9446    1.0466 C   0  0  0  0  0  0  0  0  0  0  0  0
   -0.7076   -0.4729    1.9913 C   0  0  0  0  0  0  0  0  0  0  0  0
   -2.0768   -0.0763    1.6993 C   0  0  0  0  0  0  0  0  0  0  0  0
   -2.9464    0.4217    2.8035 C   0  0  0  0  0  0  0  0  0  0  0  0
   -2.5022    0.4935    3.9525 O   0  0  0  0  0  0  0  0  0  0  0  0
   -4.2318    0.7872    2.4455 N   0  0  0  0  0  0  0  0  0  0  0  0
   -5.1113    1.2427    3.4227 C   0  0  0  0  0  0  0  0  0  0  0  0
   -6.3623    1.6152    3.1261 C   0  0  0  0  0  0  0  0  0  0  0  0
   -6.8237    1.5537    1.7642 C   0  0  0  0  0  0  0  0  0  0  0  0
   -6.0098    1.1252    0.7926 C   0  0  0  0  0  0  0  0  0  0  0  0
   -4.6179    0.7041    1.1212 C   0  0  0  0  0  0  0  0  0  0  0  0
   -3.8554    0.2897    0.1620 N   0  0  0  0  0  0  0  0  0  0  0  0
   -2.5690   -0.1152    0.4396 C   0  0  0  0  0  0  0  0  0  0  0  0
   -1.7323   -0.5942   -0.6013 N   0  0  0  0  0  0  0  0  0  0  0  0
   -2.2547   -0.6451   -1.9812 C   0  0  0  0  0  0  0  0  0  0  0  0
   -2.1595    0.7266   -2.6790 C   0  0  0  0  0  0  0  0  0  0  0  0
   -0.7112    1.1582   -2.9126 C   0  0  0  0  0  0  0  0  0  0  0  0
   -2.9059    0.6812   -4.0147 C   0  0  0  0  0  0  0  0  0  0  0  0
   -0.4471   -1.0862   -0.3364 C   0  0  0  0  0  0  0  0  0  0  0  0
    0.2510   -1.6653   -1.2737 N   0  0  0  0  0  0  0  0  0  0  0  0
    4.5403   -0.3846   -0.6140 C   0  0  0  0  0  0  0  0  0  0  0  0
    8.3153   -0.8592   -1.8877 H   0  0  0  0  0  0  0  0  0  0  0  0
    8.1743    0.6303   -2.8279 H   0  0  0  0  0  0  0  0  0  0  0  0
    8.3333    0.7527   -1.0694 H   0  0  0  0  0  0  0  0  0  0  0  0
    7.7280   -1.0741    0.3788 H   0  0  0  0  0  0  0  0  0  0  0  0
    6.5048   -1.9984    2.2902 H   0  0  0  0  0  0  0  0  0  0  0  0
    4.0677   -1.9157    2.3920 H   0  0  0  0  0  0  0  0  0  0  0  0
    2.0485   -0.3348   -0.3638 H   0  0  0  0  0  0  0  0  0  0  0  0
   -0.3574   -0.3359    3.0141 H   0  0  0  0  0  0  0  0  0  0  0  0
   -4.7394    1.2825    4.4440 H   0  0  0  0  0  0  0  0  0  0  0  0
   -7.0427    1.9661    3.8961 H   0  0  0  0  0  0  0  0  0  0  0  0
   -7.8410    1.8628    1.5464 H   0  0  0  0  0  0  0  0  0  0  0  0
   -6.3181    1.0634   -0.2434 H   0  0  0  0  0  0  0  0  0  0  0  0
   -1.7396   -1.4048   -2.5799 H   0  0  0  0  0  0  0  0  0  0  0  0
   -3.3004   -0.9790   -1.9615 H   0  0  0  0  0  0  0  0  0  0  0  0
   -2.6401    1.4901   -2.0555 H   0  0  0  0  0  0  0  0  0  0  0  0
   -0.6743    2.1092   -3.4544 H   0  0  0  0  0  0  0  0  0  0  0  0
   -0.1820    1.3025   -1.9656 H   0  0  0  0  0  0  0  0  0  0  0  0
   -0.1641    0.4144   -3.5008 H   0  0  0  0  0  0  0  0  0  0  0  0
   -2.8624    1.6526   -4.5201 H   0  0  0  0  0  0  0  0  0  0  0  0
   -3.9614    0.4335   -3.8619 H   0  0  0  0  0  0  0  0  0  0  0  0
   -2.4746   -0.0703   -4.6854 H   0  0  0  0  0  0  0  0  0  0  0  0
    1.1308   -2.0590   -0.9219 H   0  0  0  0  0  0  0  0  0  0  0  0
    4.0084    0.0743   -1.4436 H   0  0  0  0  0  0  0  0  0  0  0  0
  1  2  1  0
  2  3  1  0
  3  4  2  0
  4  5  1  0
  5  6  2  0
  6  7  1  0
  7  8  1  0
  8  9  1  0
  9 10  2  0
  9 11  1  0
 11 12  2  0
 12 13  1  0
 13 14  1  0
 14 15  2  0
 14 16  1  0
 16 17  1  0
 17 18  2  0
 18 19  1  0
 19 20  2  0
 20 21  1  0
 21 22  2  0
 22 23  1  0
 23 24  1  0
 24 25  1  0
 25 26  1  0
 26 27  1  0
 26 28  1  0
 24 29  1  0
 29 30  2  3
  7 31  2  0
 31  3  1  0
 29 11  1  0
 23 13  2  0
 21 16  1  0
  1 32  1  0
  1 33  1  0
  1 34  1  0
  4 35  1  0
  5 36  1  0
  6 37  1  0
  8 38  1  0
 12 39  1  0
 17 40  1  0
 18 41  1  0
 19 42  1  0
 20 43  1  0
 25 44  1  0
 25 45  1  0
 26 46  1  0
 27 47  1  0
 27 48  1  0
 27 49  1  0
 28 50  1  0
 28 51  1  0
 28 52  1  0
 30 53  1  0
 31 54  1  0
M  END
$$$$
