
     RDKit          3D

 47 49  0  0  0  0  0  0  0  0999 V2000
   -8.5117    0.9465   -1.0188 C   0  0  0  0  0  0  0  0  0  0  0  0
   -7.5931    0.0609   -0.3962 O   0  0  0  0  0  0  0  0  0  0  0  0
   -6.2629    0.3708   -0.4739 C   0  0  0  0  0  0  0  0  0  0  0  0
   -5.7285    1.4357   -1.2033 C   0  0  0  0  0  0  0  0  0  0  0  0
   -4.3467    1.6709   -1.2068 C   0  0  0  0  0  0  0  0  0  0  0  0
   -3.4755    0.8485   -0.4810 C   0  0  0  0  0  0  0  0  0  0  0  0
   -2.0390    1.1537   -0.4832 C   0  0  0  0  0  0  0  0  0  0  0  0
   -1.0329    0.3154   -0.7639 C   0  0  0  0  0  0  0  0  0  0  0  0
   -1.1115   -1.3371   -1.2189 S   0  0  0  0  0  0  0  0  0  0  0  0
    0.6353   -1.4843   -1.3524 C   0  0  0  0  0  0  0  0  0  0  0  0
    1.3746   -2.9266   -1.7455 S   0  0  0  0  0  0  0  0  0  0  0  0
    1.2288   -0.2678   -1.0870 N   0  0  0  0  0  0  0  0  0  0  0  0
    2.6738   -0.0163   -1.1083 C   0  0  0  0  0  0  0  0  0  0  0  0
    3.2979   -0.1641    0.2745 C   0  0  0  0  0  0  0  0  0  0  0  0
    4.7823    0.1258    0.2254 C   0  0  0  0  0  0  0  0  0  0  0  0
    5.4140    0.1245   -0.8298 O   0  0  0  0  0  0  0  0  0  0  0  0
    5.3147    0.3746    1.4627 N   0  0  0  0  0  0  0  0  0  0  0  0
    6.5735    0.1981    1.6249 C   0  0  0  0  0  0  0  0  0  0  0  0
    7.5428   -0.2322    0.7674 N   0  0  0  0  0  0  0  0  0  0  0  0
    8.9008    0.0861    1.1580 C   0  0  0  0  0  0  0  0  0  0  0  0
    8.9309    0.0235    2.6819 C   0  0  0  0  0  0  0  0  0  0  0  0
    7.2741    0.5806    3.1974 S   0  0  0  0  0  0  0  0  0  0  0  0
    0.3824    0.7699   -0.7373 C   0  0  0  0  0  0  0  0  0  0  0  0
    0.7275    1.9041   -0.4335 O   0  0  0  0  0  0  0  0  0  0  0  0
   -4.0098   -0.2028    0.2685 C   0  0  0  0  0  0  0  0  0  0  0  0
   -5.3841   -0.4552    0.2434 C   0  0  0  0  0  0  0  0  0  0  0  0
   -5.8354   -1.5044    1.0082 O   0  0  0  0  0  0  0  0  0  0  0  0
   -6.1237   -2.6296    0.1763 C   0  0  0  0  0  0  0  0  0  0  0  0
   -9.5194    0.5619   -0.8363 H   0  0  0  0  0  0  0  0  0  0  0  0
   -8.4510    1.9501   -0.5834 H   0  0  0  0  0  0  0  0  0  0  0  0
   -8.3600    0.9730   -2.1022 H   0  0  0  0  0  0  0  0  0  0  0  0
   -6.3575    2.1060   -1.7810 H   0  0  0  0  0  0  0  0  0  0  0  0
   -3.9581    2.5067   -1.7869 H   0  0  0  0  0  0  0  0  0  0  0  0
   -1.8069    2.1921   -0.2432 H   0  0  0  0  0  0  0  0  0  0  0  0
    2.8430    1.0010   -1.4825 H   0  0  0  0  0  0  0  0  0  0  0  0
    3.1551   -0.6926   -1.8228 H   0  0  0  0  0  0  0  0  0  0  0  0
    3.1600   -1.1812    0.6581 H   0  0  0  0  0  0  0  0  0  0  0  0
    2.8235    0.5289    0.9789 H   0  0  0  0  0  0  0  0  0  0  0  0
    7.2964   -0.1550   -0.2198 H   0  0  0  0  0  0  0  0  0  0  0  0
    9.6091   -0.6266    0.7227 H   0  0  0  0  0  0  0  0  0  0  0  0
    9.1634    1.0921    0.8039 H   0  0  0  0  0  0  0  0  0  0  0  0
    9.0664   -1.0060    3.0274 H   0  0  0  0  0  0  0  0  0  0  0  0
    9.7186    0.6494    3.1066 H   0  0  0  0  0  0  0  0  0  0  0  0
   -3.3722   -0.8382    0.8775 H   0  0  0  0  0  0  0  0  0  0  0  0
   -7.0199   -2.4615   -0.4283 H   0  0  0  0  0  0  0  0  0  0  0  0
   -6.3184   -3.4852    0.8292 H   0  0  0  0  0  0  0  0  0  0  0  0
   -5.2706   -2.8843   -0.4643 H   0  0  0  0  0  0  0  0  0  0  0  0
  1  2  1  0
  2  3  1  0
  3  4  2  0
  4  5  1  0
  5  6  2  0
  6  7  1  0
  7  8  2  3
  8  9  1  0
  9 10  1  0
 10 11  2  0
 10 12  1  0
 12 13  1  0
 13 14  1  0
 14 15  1  0
 15 16  2  0
 15 17  1  0
 17 18  2  3
 18 19  1  0
 19 20  1  0
 20 21  1  0
 21 22  1  0
 12 23  1  0
 23 24  2  0
  6 25  1  0
 25 26  2  0
 26 27  1  0
 27 28  1  0
 26  3  1  0
 23  8  1  0
 22 18  1  0
  1 29  1  0
  1 30  1  0
  1 31  1  0
  4 32  1  0
  5 33  1  0
  7 34  1  0
 13 35  1  0
 13 36  1  0
 14 37  1  0
 14 38  1  0
 19 39  1  0
 20 40  1  0
 20 41  1  0
 21 42  1  0
 21 43  1  0
 25 44  1  0
 28 45  1  0
 28 46  1  0
 28 47  1  0
M  END
$$$$
