
     RDKit          3D

 37 40  0  0  0  0  0  0  0  0999 V2000
    2.9704   -2.2620   -0.9851 C   0  0  0  0  0  0  0  0  0  0  0  0
    3.2369   -0.9716   -0.2958 C   0  0  0  0  0  0  0  0  0  0  0  0
    4.5209   -0.6324   -0.0981 N   0  0  0  0  0  0  0  0  0  0  0  0
    4.4574    0.5945    0.4291 N   0  0  0  0  0  0  0  0  0  0  0  0
    5.6754    1.2873    0.7696 C   0  0  0  0  0  0  0  0  0  0  0  0
    3.1872    1.0529    0.5820 C   0  0  0  0  0  0  0  0  0  0  0  0
    2.3327    0.0573    0.1439 C   0  0  0  0  0  0  0  0  0  0  0  0
    0.9140    0.1175    0.1302 N   0  0  0  0  0  0  0  0  0  0  0  0
    0.2890    1.3756    0.1106 C   0  0  0  0  0  0  0  0  0  0  0  0
    0.8507    2.4709    0.1185 O   0  0  0  0  0  0  0  0  0  0  0  0
   -1.1941    1.3980    0.0343 C   0  0  0  0  0  0  0  0  0  0  0  0
   -1.8474    2.6358   -0.0543 C   0  0  0  0  0  0  0  0  0  0  0  0
   -3.2282    2.6890   -0.1842 C   0  0  0  0  0  0  0  0  0  0  0  0
   -3.9637    1.5054   -0.2186 C   0  0  0  0  0  0  0  0  0  0  0  0
   -3.3424    0.2407   -0.1126 C   0  0  0  0  0  0  0  0  0  0  0  0
   -4.0706   -0.9812   -0.1193 C   0  0  0  0  0  0  0  0  0  0  0  0
   -5.4614   -1.0260   -0.3356 N   0  0  0  0  0  0  0  0  0  0  0  0
   -3.3740   -2.1943   -0.1122 C   0  0  0  0  0  0  0  0  0  0  0  0
   -1.9896   -2.2185    0.0189 C   0  0  0  0  0  0  0  0  0  0  0  0
   -1.2688   -1.0212    0.0895 C   0  0  0  0  0  0  0  0  0  0  0  0
   -1.9236    0.2061    0.0068 C   0  0  0  0  0  0  0  0  0  0  0  0
    0.2007   -1.0792    0.2616 C   0  0  0  0  0  0  0  0  0  0  0  0
    0.6717   -2.1693    0.5806 O   0  0  0  0  0  0  0  0  0  0  0  0
    3.7919   -2.5166   -1.6647 H   0  0  0  0  0  0  0  0  0  0  0  0
    2.0629   -2.2101   -1.5941 H   0  0  0  0  0  0  0  0  0  0  0  0
    2.8779   -3.0764   -0.2604 H   0  0  0  0  0  0  0  0  0  0  0  0
    6.0667    0.8550    1.6937 H   0  0  0  0  0  0  0  0  0  0  0  0
    5.4615    2.3502    0.9104 H   0  0  0  0  0  0  0  0  0  0  0  0
    6.3910    1.1627   -0.0472 H   0  0  0  0  0  0  0  0  0  0  0  0
    3.0022    2.0306    1.0040 H   0  0  0  0  0  0  0  0  0  0  0  0
   -1.2794    3.5648   -0.0389 H   0  0  0  0  0  0  0  0  0  0  0  0
   -3.7324    3.6489   -0.2680 H   0  0  0  0  0  0  0  0  0  0  0  0
   -5.0410    1.5869   -0.3409 H   0  0  0  0  0  0  0  0  0  0  0  0
   -5.8890   -1.9118   -0.0829 H   0  0  0  0  0  0  0  0  0  0  0  0
   -5.9700   -0.2439    0.0620 H   0  0  0  0  0  0  0  0  0  0  0  0
   -3.9095   -3.1376   -0.1923 H   0  0  0  0  0  0  0  0  0  0  0  0
   -1.4761   -3.1779    0.0594 H   0  0  0  0  0  0  0  0  0  0  0  0
  1  2  1  0
  2  3  2  0
  3  4  1  0
  4  5  1  0
  4  6  1  0
  6  7  2  0
  7  8  1  0
  8  9  1  0
  9 10  2  0
  9 11  1  0
 11 12  2  0
 12 13  1  0
 13 14  2  0
 14 15  1  0
 15 16  2  0
 16 17  1  0
 16 18  1  0
 18 19  2  0
 19 20  1  0
 20 21  2  0
 20 22  1  0
 22 23  2  0
  7  2  1  0
 22  8  1  0
 21 11  1  0
 21 15  1  0
  1 24  1  0
  1 25  1  0
  1 26  1  0
  5 27  1  0
  5 28  1  0
  5 29  1  0
  6 30  1  0
 12 31  1  0
 13 32  1  0
 14 33  1  0
 17 34  1  0
 17 35  1  0
 18 36  1  0
 19 37  1  0
M  END
$$$$
