
     RDKit          3D

 43 45  0  0  0  0  0  0  0  0999 V2000
   -3.0273   -3.1655   -0.1271 C   0  0  0  0  0  0  0  0  0  0  0  0
   -2.9087   -2.4736   -1.4828 C   0  0  0  0  0  0  0  0  0  0  0  0
   -3.7759   -3.1869   -2.5192 C   0  0  0  0  0  0  0  0  0  0  0  0
   -1.1706   -2.5041   -2.0746 S   0  0  0  0  0  0  0  0  0  0  0  0
   -0.4108   -1.2460   -1.0556 C   0  0  0  0  0  0  0  0  0  0  0  0
    0.9651   -1.1669   -1.0311 C   0  0  0  0  0  0  0  0  0  0  0  0
    1.5349   -0.1800   -0.2525 C   0  0  0  0  0  0  0  0  0  0  0  0
    2.9156   -0.0474   -0.1575 N   0  0  0  0  0  0  0  0  0  0  0  0
    3.4178    0.9387    0.8142 C   0  0  0  0  0  0  0  0  0  0  0  0
    4.9530    0.8839    0.8473 C   0  0  0  0  0  0  0  0  0  0  0  0
    5.5746    1.1817   -0.4132 O   0  0  0  0  0  0  0  0  0  0  0  0
    4.7116    0.9661   -1.5376 C   0  0  0  0  0  0  0  0  0  0  0  0
    3.7491   -0.2214   -1.3614 C   0  0  0  0  0  0  0  0  0  0  0  0
    0.7571    0.6435    0.4698 N   0  0  0  0  0  0  0  0  0  0  0  0
   -0.5789    0.5062    0.3850 C   0  0  0  0  0  0  0  0  0  0  0  0
   -1.4179    1.4303    1.1775 C   0  0  0  0  0  0  0  0  0  0  0  0
   -0.8459    2.4261    1.9951 C   0  0  0  0  0  0  0  0  0  0  0  0
   -1.6374    3.3024    2.7474 C   0  0  0  0  0  0  0  0  0  0  0  0
   -3.0232    3.1984    2.6958 C   0  0  0  0  0  0  0  0  0  0  0  0
   -3.9988    4.2729    3.6184 Cl  0  0  0  0  0  0  0  0  0  0  0  0
   -3.6223    2.2279    1.8999 C   0  0  0  0  0  0  0  0  0  0  0  0
   -2.8255    1.3546    1.1499 C   0  0  0  0  0  0  0  0  0  0  0  0
   -1.2004   -0.4123   -0.3676 N   0  0  0  0  0  0  0  0  0  0  0  0
   -4.0694   -3.1585    0.2120 H   0  0  0  0  0  0  0  0  0  0  0  0
   -2.7054   -4.2120   -0.1757 H   0  0  0  0  0  0  0  0  0  0  0  0
   -2.4352   -2.6623    0.6438 H   0  0  0  0  0  0  0  0  0  0  0  0
   -3.2579   -1.4384   -1.4094 H   0  0  0  0  0  0  0  0  0  0  0  0
   -4.8270   -3.1732   -2.2098 H   0  0  0  0  0  0  0  0  0  0  0  0
   -3.7188   -2.6922   -3.4954 H   0  0  0  0  0  0  0  0  0  0  0  0
   -3.4845   -4.2359   -2.6462 H   0  0  0  0  0  0  0  0  0  0  0  0
    1.5706   -1.8727   -1.5836 H   0  0  0  0  0  0  0  0  0  0  0  0
    3.0356    0.7171    1.8177 H   0  0  0  0  0  0  0  0  0  0  0  0
    3.0955    1.9480    0.5278 H   0  0  0  0  0  0  0  0  0  0  0  0
    5.2903   -0.1145    1.1496 H   0  0  0  0  0  0  0  0  0  0  0  0
    5.3413    1.5971    1.5813 H   0  0  0  0  0  0  0  0  0  0  0  0
    4.1494    1.8913   -1.7122 H   0  0  0  0  0  0  0  0  0  0  0  0
    5.3485    0.8045   -2.4132 H   0  0  0  0  0  0  0  0  0  0  0  0
    3.1528   -0.3122   -2.2762 H   0  0  0  0  0  0  0  0  0  0  0  0
    4.3272   -1.1445   -1.2381 H   0  0  0  0  0  0  0  0  0  0  0  0
    0.2374    2.5265    2.0517 H   0  0  0  0  0  0  0  0  0  0  0  0
   -1.1629    4.0584    3.3671 H   0  0  0  0  0  0  0  0  0  0  0  0
   -4.7046    2.1416    1.8549 H   0  0  0  0  0  0  0  0  0  0  0  0
   -3.3181    0.6032    0.5340 H   0  0  0  0  0  0  0  0  0  0  0  0
  1  2  1  0
  2  3  1  0
  2  4  1  0
  4  5  1  0
  5  6  2  0
  6  7  1  0
  7  8  1  0
  8  9  1  0
  9 10  1  0
 10 11  1  0
 11 12  1  0
 12 13  1  0
  7 14  2  0
 14 15  1  0
 15 16  1  0
 16 17  2  0
 17 18  1  0
 18 19  2  0
 19 20  1  0
 19 21  1  0
 21 22  2  0
 15 23  2  0
 23  5  1  0
 13  8  1  0
 22 16  1  0
  1 24  1  0
  1 25  1  0
  1 26  1  0
  2 27  1  0
  3 28  1  0
  3 29  1  0
  3 30  1  0
  6 31  1  0
  9 32  1  0
  9 33  1  0
 10 34  1  0
 10 35  1  0
 12 36  1  0
 12 37  1  0
 13 38  1  0
 13 39  1  0
 17 40  1  0
 18 41  1  0
 21 42  1  0
 22 43  1  0
M  END
$$$$
