
     RDKit          3D

 30 32  0  0  0  0  0  0  0  0999 V2000
    1.2126   -0.8110    0.6856 O   0  0  0  0  0  0  0  0  0  0  0  0
    1.7295    0.2943    0.5332 C   0  0  0  0  0  0  0  0  0  0  0  0
    0.9482    1.5901    0.7399 C   0  0  0  0  0  0  0  0  0  0  0  0
   -0.4796    1.3800    0.5145 N   0  0  0  0  0  0  0  0  0  0  0  0
   -1.3447    0.7246    1.4204 C   0  0  0  0  0  0  0  0  0  0  0  0
   -1.1347    0.5728    2.6085 O   0  0  0  0  0  0  0  0  0  0  0  0
   -2.5476    0.2691    0.6987 C   0  0  0  0  0  0  0  0  0  0  0  0
   -3.6394   -0.3823    1.2501 C   0  0  0  0  0  0  0  0  0  0  0  0
   -4.6911   -0.7385    0.3984 C   0  0  0  0  0  0  0  0  0  0  0  0
   -4.6377   -0.4431   -0.9774 C   0  0  0  0  0  0  0  0  0  0  0  0
   -3.5322    0.2118   -1.5248 C   0  0  0  0  0  0  0  0  0  0  0  0
   -2.5075    0.5508   -0.6607 C   0  0  0  0  0  0  0  0  0  0  0  0
   -1.0292    1.3644   -1.0739 S   0  0  0  0  0  6  0  0  0  0  0  0
   -0.2054    0.4846   -1.8663 O   0  0  0  0  0  0  0  0  0  0  0  0
   -1.3331    2.7211   -1.4630 O   0  0  0  0  0  0  0  0  0  0  0  0
    3.0464    0.5161    0.1909 N   0  0  0  0  0  0  0  0  0  0  0  0
    3.9757   -0.4688   -0.0605 C   0  0  0  0  0  0  0  0  0  0  0  0
    3.8319   -1.8729   -0.0402 C   0  0  0  0  0  0  0  0  0  0  0  0
    5.0741   -2.3483   -0.3672 C   0  0  0  0  0  0  0  0  0  0  0  0
    5.9151   -1.3066   -0.5707 O   0  0  0  0  0  0  0  0  0  0  0  0
    5.2281   -0.1212   -0.3788 N   0  0  0  0  0  0  0  0  0  0  0  0
    1.3193    2.3719    0.0680 H   0  0  0  0  0  0  0  0  0  0  0  0
    1.1179    1.9347    1.7656 H   0  0  0  0  0  0  0  0  0  0  0  0
   -3.6761   -0.6117    2.3115 H   0  0  0  0  0  0  0  0  0  0  0  0
   -5.5617   -1.2524    0.8028 H   0  0  0  0  0  0  0  0  0  0  0  0
   -5.4682   -0.7315   -1.6198 H   0  0  0  0  0  0  0  0  0  0  0  0
   -3.4803    0.4422   -2.5843 H   0  0  0  0  0  0  0  0  0  0  0  0
    3.4148    1.4516    0.0853 H   0  0  0  0  0  0  0  0  0  0  0  0
    2.9528   -2.4604    0.1769 H   0  0  0  0  0  0  0  0  0  0  0  0
    5.5023   -3.3315   -0.4916 H   0  0  0  0  0  0  0  0  0  0  0  0
  1  2  2  0
  2  3  1  0
  3  4  1  0
  4  5  1  0
  5  6  2  0
  5  7  1  0
  7  8  2  0
  8  9  1  0
  9 10  2  0
 10 11  1  0
 11 12  2  0
 12 13  1  0
 13 14  2  0
 13 15  2  0
  2 16  1  0
 16 17  1  0
 17 18  1  0
 18 19  2  0
 19 20  1  0
 20 21  1  0
 13  4  1  0
 21 17  2  0
 12  7  1  0
  3 22  1  0
  3 23  1  0
  8 24  1  0
  9 25  1  0
 10 26  1  0
 11 27  1  0
 16 28  1  0
 18 29  1  0
 19 30  1  0
M  END
$$$$
