
     RDKit          3D

 66 68  0  0  0  0  0  0  0  0999 V2000
   -5.6866    5.5687    2.0000 C   0  0  0  0  0  0  0  0  0  0  0  0
   -5.0105    5.4808    0.7534 O   0  0  0  0  0  0  0  0  0  0  0  0
   -5.1144    4.1952    0.1339 C   0  0  0  0  0  0  0  0  0  0  0  0
   -4.2720    3.1288    0.8465 C   0  0  0  0  0  0  0  0  0  0  0  0
   -2.8786    3.5546    0.9752 N   0  0  0  0  0  0  0  0  0  0  0  0
   -1.8433    2.9137    0.3520 C   0  0  0  0  0  0  0  0  0  0  0  0
   -0.7897    3.8838   -0.5154 S   0  0  0  0  0  0  0  0  0  0  0  0
   -1.7662    1.5370    0.5035 N   0  0  0  0  0  0  0  0  0  0  0  0
   -2.2344    0.8707    1.7239 C   0  0  0  0  0  0  0  0  0  0  0  0
   -3.0938   -0.3432    1.3898 C   0  0  0  0  0  0  0  0  0  0  0  0
   -2.4786   -1.2091    0.3191 C   0  0  0  0  0  0  0  0  0  0  0  0
   -2.9809   -2.5063    0.1198 C   0  0  0  0  0  0  0  0  0  0  0  0
   -2.4715   -3.3293   -0.8900 C   0  0  0  0  0  0  0  0  0  0  0  0
   -2.9005   -4.6090   -1.1400 O   0  0  0  0  0  0  0  0  0  0  0  0
   -3.9731   -5.1126   -0.3567 C   0  0  0  0  0  0  0  0  0  0  0  0
   -1.4463   -2.8463   -1.7225 C   0  0  0  0  0  0  0  0  0  0  0  0
   -0.9949   -3.7089   -2.6923 O   0  0  0  0  0  0  0  0  0  0  0  0
    0.1587   -3.3232   -3.4252 C   0  0  0  0  0  0  0  0  0  0  0  0
   -0.9622   -1.5461   -1.5375 C   0  0  0  0  0  0  0  0  0  0  0  0
   -1.4631   -0.7155   -0.5178 C   0  0  0  0  0  0  0  0  0  0  0  0
   -0.8766    0.6904   -0.3356 C   0  0  0  0  0  0  0  0  0  0  0  0
    0.5645    0.6071    0.2424 C   0  0  0  0  0  0  0  0  0  0  0  0
    1.4852    0.2780   -0.8057 O   0  0  0  0  0  0  0  0  0  0  0  0
    2.7837    0.0530   -0.4436 C   0  0  0  0  0  0  0  0  0  0  0  0
    3.3315    0.2608    0.8207 C   0  0  0  0  0  0  0  0  0  0  0  0
    4.6834   -0.0160    1.0585 C   0  0  0  0  0  0  0  0  0  0  0  0
    5.5113   -0.5019    0.0368 C   0  0  0  0  0  0  0  0  0  0  0  0
    6.9734   -0.7933    0.3223 C   0  0  0  0  0  0  0  0  0  0  0  0
    7.3283   -2.2558    0.0397 C   0  0  0  0  0  0  0  0  0  0  0  0
    7.8914    0.1509   -0.4569 C   0  0  0  0  0  0  0  0  0  0  0  0
    4.9535   -0.6956   -1.2340 C   0  0  0  0  0  0  0  0  0  0  0  0
    3.6039   -0.4186   -1.4687 C   0  0  0  0  0  0  0  0  0  0  0  0
   -5.6669    6.6118    2.3261 H   0  0  0  0  0  0  0  0  0  0  0  0
   -6.7309    5.2545    1.9048 H   0  0  0  0  0  0  0  0  0  0  0  0
   -5.1765    4.9671    2.7579 H   0  0  0  0  0  0  0  0  0  0  0  0
   -4.7492    4.3155   -0.8918 H   0  0  0  0  0  0  0  0  0  0  0  0
   -6.1651    3.8909    0.0766 H   0  0  0  0  0  0  0  0  0  0  0  0
   -4.6463    2.9585    1.8589 H   0  0  0  0  0  0  0  0  0  0  0  0
   -4.3356    2.1946    0.2823 H   0  0  0  0  0  0  0  0  0  0  0  0
   -2.7880    4.5651    0.9130 H   0  0  0  0  0  0  0  0  0  0  0  0
   -2.7753    1.5488    2.3891 H   0  0  0  0  0  0  0  0  0  0  0  0
   -1.3434    0.5608    2.2850 H   0  0  0  0  0  0  0  0  0  0  0  0
   -3.2534   -0.9291    2.3030 H   0  0  0  0  0  0  0  0  0  0  0  0
   -4.0754   -0.0135    1.0297 H   0  0  0  0  0  0  0  0  0  0  0  0
   -3.7773   -2.8509    0.7719 H   0  0  0  0  0  0  0  0  0  0  0  0
   -4.8809   -4.5157   -0.4997 H   0  0  0  0  0  0  0  0  0  0  0  0
   -4.1882   -6.1307   -0.6970 H   0  0  0  0  0  0  0  0  0  0  0  0
   -3.6973   -5.1700    0.7023 H   0  0  0  0  0  0  0  0  0  0  0  0
    0.4312   -4.1552   -4.0816 H   0  0  0  0  0  0  0  0  0  0  0  0
   -0.0504   -2.4571   -4.0604 H   0  0  0  0  0  0  0  0  0  0  0  0
    1.0065   -3.1307   -2.7603 H   0  0  0  0  0  0  0  0  0  0  0  0
   -0.1859   -1.1486   -2.1852 H   0  0  0  0  0  0  0  0  0  0  0  0
   -0.8396    1.1397   -1.3361 H   0  0  0  0  0  0  0  0  0  0  0  0
    0.8544    1.5737    0.6686 H   0  0  0  0  0  0  0  0  0  0  0  0
    0.6060   -0.1530    1.0336 H   0  0  0  0  0  0  0  0  0  0  0  0
    2.7400    0.6443    1.6450 H   0  0  0  0  0  0  0  0  0  0  0  0
    5.0852    0.1559    2.0551 H   0  0  0  0  0  0  0  0  0  0  0  0
    7.1603   -0.6187    1.3900 H   0  0  0  0  0  0  0  0  0  0  0  0
    8.3621   -2.4663    0.3366 H   0  0  0  0  0  0  0  0  0  0  0  0
    7.2305   -2.5040   -1.0229 H   0  0  0  0  0  0  0  0  0  0  0  0
    6.6739   -2.9339    0.5995 H   0  0  0  0  0  0  0  0  0  0  0  0
    8.9403   -0.0327   -0.2018 H   0  0  0  0  0  0  0  0  0  0  0  0
    7.7853    0.0277   -1.5393 H   0  0  0  0  0  0  0  0  0  0  0  0
    7.6663    1.1952   -0.2174 H   0  0  0  0  0  0  0  0  0  0  0  0
    5.5628   -1.0617   -2.0573 H   0  0  0  0  0  0  0  0  0  0  0  0
    3.1895   -0.5753   -2.4614 H   0  0  0  0  0  0  0  0  0  0  0  0
  1  2  1  0
  2  3  1  0
  3  4  1  0
  4  5  1  0
  5  6  1  0
  6  7  2  0
  6  8  1  0
  8  9  1  0
  9 10  1  0
 10 11  1  0
 11 12  2  0
 12 13  1  0
 13 14  1  0
 14 15  1  0
 13 16  2  0
 16 17  1  0
 17 18  1  0
 16 19  1  0
 19 20  2  0
 20 21  1  0
 21 22  1  0
 22 23  1  0
 23 24  1  0
 24 25  2  0
 25 26  1  0
 26 27  2  0
 27 28  1  0
 28 29  1  0
 28 30  1  0
 27 31  1  0
 31 32  2  0
 21  8  1  0
 32 24  1  0
 20 11  1  0
  1 33  1  0
  1 34  1  0
  1 35  1  0
  3 36  1  0
  3 37  1  0
  4 38  1  0
  4 39  1  0
  5 40  1  0
  9 41  1  0
  9 42  1  0
 10 43  1  0
 10 44  1  0
 12 45  1  0
 15 46  1  0
 15 47  1  0
 15 48  1  0
 18 49  1  0
 18 50  1  0
 18 51  1  0
 19 52  1  0
 21 53  1  0
 22 54  1  0
 22 55  1  0
 25 56  1  0
 26 57  1  0
 28 58  1  0
 29 59  1  0
 29 60  1  0
 29 61  1  0
 30 62  1  0
 30 63  1  0
 30 64  1  0
 31 65  1  0
 32 66  1  0
M  END
$$$$
