
     RDKit          3D

 49 52  0  0  0  0  0  0  0  0999 V2000
   -3.3922   -5.0742   -0.3801 C   0  0  0  0  0  0  0  0  0  0  0  0
   -3.2193   -4.3125   -1.5678 O   0  0  0  0  0  0  0  0  0  0  0  0
   -2.5804   -3.1095   -1.4424 C   0  0  0  0  0  0  0  0  0  0  0  0
   -2.4293   -2.4004   -2.6344 C   0  0  0  0  0  0  0  0  0  0  0  0
   -1.7956   -1.1547   -2.6498 C   0  0  0  0  0  0  0  0  0  0  0  0
   -1.2957   -0.5913   -1.4669 C   0  0  0  0  0  0  0  0  0  0  0  0
   -0.6266    0.7865   -1.4915 C   0  0  0  0  0  0  0  0  0  0  0  0
    0.6857    0.7242   -0.8110 N   0  0  0  0  0  0  0  0  0  0  0  0
    0.7812    1.2732    0.3506 C   0  0  0  0  0  0  0  0  0  0  0  0
    1.8927    1.2733    1.1560 N   0  0  0  0  0  0  0  0  0  0  0  0
    3.1118    0.5881    0.9710 C   0  0  0  0  0  0  0  0  0  0  0  0
    4.2263    0.9810    1.7295 C   0  0  0  0  0  0  0  0  0  0  0  0
    5.4596    0.3299    1.6037 C   0  0  0  0  0  0  0  0  0  0  0  0
    5.6115   -0.7328    0.7119 C   0  0  0  0  0  0  0  0  0  0  0  0
    6.9200   -1.4554    0.5880 C   0  0  0  0  0  0  0  0  0  0  0  0
    4.5026   -1.1520   -0.0241 C   0  0  0  0  0  0  0  0  0  0  0  0
    3.2703   -0.4988    0.1060 C   0  0  0  0  0  0  0  0  0  0  0  0
   -0.2611    1.9500    0.9031 N   0  0  0  0  0  0  0  0  0  0  0  0
   -1.3959    2.3102    0.2546 C   0  0  0  0  0  0  0  0  0  0  0  0
   -2.2468    3.1113    0.8227 N   0  0  0  0  0  0  0  0  0  0  0  0
   -3.3458    3.4905    0.0939 C   0  0  0  0  0  0  0  0  0  0  0  0
   -4.3144    4.3888    0.8101 C   0  0  0  0  0  0  0  0  0  0  0  0
   -3.5553    3.1168   -1.1740 C   0  0  0  0  0  0  0  0  0  0  0  0
   -2.5769    2.2263   -1.8205 C   0  0  0  0  0  0  0  0  0  0  0  0
   -2.7364    1.9170   -2.9988 O   0  0  0  0  0  0  0  0  0  0  0  0
   -1.5389    1.8182   -1.0164 N   0  0  0  0  0  0  0  0  0  0  0  0
   -1.4560   -1.3106   -0.2718 C   0  0  0  0  0  0  0  0  0  0  0  0
   -2.0901   -2.5594   -0.2595 C   0  0  0  0  0  0  0  0  0  0  0  0
   -2.4260   -5.3485    0.0569 H   0  0  0  0  0  0  0  0  0  0  0  0
   -4.0177   -4.5412    0.3437 H   0  0  0  0  0  0  0  0  0  0  0  0
   -3.9106   -5.9996   -0.6490 H   0  0  0  0  0  0  0  0  0  0  0  0
   -2.8136   -2.8174   -3.5619 H   0  0  0  0  0  0  0  0  0  0  0  0
   -1.7074   -0.6206   -3.5942 H   0  0  0  0  0  0  0  0  0  0  0  0
   -0.3997    1.0295   -2.5380 H   0  0  0  0  0  0  0  0  0  0  0  0
    1.9677    2.0330    1.8181 H   0  0  0  0  0  0  0  0  0  0  0  0
    4.1518    1.8069    2.4310 H   0  0  0  0  0  0  0  0  0  0  0  0
    6.2993    0.6623    2.2071 H   0  0  0  0  0  0  0  0  0  0  0  0
    6.9303   -2.3256    1.2528 H   0  0  0  0  0  0  0  0  0  0  0  0
    7.7576   -0.7976    0.8487 H   0  0  0  0  0  0  0  0  0  0  0  0
    7.0828   -1.7952   -0.4440 H   0  0  0  0  0  0  0  0  0  0  0  0
    4.5830   -1.9927   -0.7078 H   0  0  0  0  0  0  0  0  0  0  0  0
    2.4365   -0.8726   -0.4813 H   0  0  0  0  0  0  0  0  0  0  0  0
   -0.1743    2.3370    1.8267 H   0  0  0  0  0  0  0  0  0  0  0  0
   -5.1639    4.6682    0.1778 H   0  0  0  0  0  0  0  0  0  0  0  0
   -3.8146    5.3122    1.1269 H   0  0  0  0  0  0  0  0  0  0  0  0
   -4.7096    3.8856    1.7012 H   0  0  0  0  0  0  0  0  0  0  0  0
   -4.4111    3.4215   -1.7607 H   0  0  0  0  0  0  0  0  0  0  0  0
   -1.0817   -0.9068    0.6652 H   0  0  0  0  0  0  0  0  0  0  0  0
   -2.1836   -3.0720    0.6916 H   0  0  0  0  0  0  0  0  0  0  0  0
  1  2  1  0
  2  3  1  0
  3  4  2  0
  4  5  1  0
  5  6  2  0
  6  7  1  0
  7  8  1  0
  8  9  2  0
  9 10  1  0
 10 11  1  0
 11 12  2  0
 12 13  1  0
 13 14  2  0
 14 15  1  0
 14 16  1  0
 16 17  2  0
  9 18  1  0
 18 19  1  0
 19 20  2  0
 20 21  1  0
 21 22  1  0
 21 23  2  0
 23 24  1  0
 24 25  2  0
 24 26  1  0
  6 27  1  0
 27 28  2  0
 28  3  1  0
 26  7  1  0
 17 11  1  0
 26 19  1  0
  1 29  1  0
  1 30  1  0
  1 31  1  0
  4 32  1  0
  5 33  1  0
  7 34  1  0
 10 35  1  0
 12 36  1  0
 13 37  1  0
 15 38  1  0
 15 39  1  0
 15 40  1  0
 16 41  1  0
 17 42  1  0
 18 43  1  0
 22 44  1  0
 22 45  1  0
 22 46  1  0
 23 47  1  0
 27 48  1  0
 28 49  1  0
M  END
$$$$
