
     RDKit          3D

 49 52  0  0  0  0  0  0  0  0999 V2000
   -4.3988    3.9799   -0.1770 C   0  0  0  0  0  0  0  0  0  0  0  0
   -4.7303    2.5000   -0.1413 C   0  0  0  0  0  0  0  0  0  0  0  0
   -3.7974    1.8036    0.6991 O   0  0  0  0  0  0  0  0  0  0  0  0
   -2.6479    1.3865    0.0898 C   0  0  0  0  0  0  0  0  0  0  0  0
   -2.3635    1.5902   -1.0813 O   0  0  0  0  0  0  0  0  0  0  0  0
   -1.7733    0.6833    1.1065 C   0  0  0  0  0  0  0  0  0  0  0  0
   -0.6895   -0.1814    0.4940 C   0  0  0  0  0  0  0  0  0  0  0  0
    0.5796    0.4349    0.4227 C   0  0  0  0  0  0  0  0  0  0  0  0
    1.6641   -0.2551   -0.0820 C   0  0  0  0  0  0  0  0  0  0  0  0
    3.0213    0.3184   -0.1846 C   0  0  0  0  0  0  0  0  0  0  0  0
    3.5186    1.2454    0.7491 C   0  0  0  0  0  0  0  0  0  0  0  0
    4.8096    1.7836    0.6358 C   0  0  0  0  0  0  0  0  0  0  0  0
    5.6390    1.4035   -0.4165 C   0  0  0  0  0  0  0  0  0  0  0  0
    6.9110    1.8495   -0.6433 O   0  0  0  0  0  0  0  0  0  0  0  0
    7.4382    2.7888    0.2846 C   0  0  0  0  0  0  0  0  0  0  0  0
    5.1675    0.4795   -1.3474 C   0  0  0  0  0  0  0  0  0  0  0  0
    3.8804   -0.0570   -1.2314 C   0  0  0  0  0  0  0  0  0  0  0  0
    1.5242   -1.5194   -0.5168 N   0  0  0  0  0  0  0  0  0  0  0  0
    0.3251   -2.1152   -0.4747 C   0  0  0  0  0  0  0  0  0  0  0  0
    0.3371   -3.4088   -0.9462 C   0  0  0  0  0  0  0  0  0  0  0  0
   -0.8056   -4.1924   -0.9835 C   0  0  0  0  0  0  0  0  0  0  0  0
   -2.0220   -3.6811   -0.5541 C   0  0  0  0  0  0  0  0  0  0  0  0
   -3.1466   -4.5219   -0.6314 C   0  0  0  0  0  0  0  0  0  0  0  0
   -4.4022   -4.0816   -0.2391 C   0  0  0  0  0  0  0  0  0  0  0  0
   -4.5401   -2.7897    0.2281 C   0  0  0  0  0  0  0  0  0  0  0  0
   -3.4201   -1.9499    0.3089 C   0  0  0  0  0  0  0  0  0  0  0  0
   -2.1056   -2.3476   -0.0631 C   0  0  0  0  0  0  0  0  0  0  0  0
   -0.8769   -1.5261    0.0037 C   0  0  0  0  0  0  0  0  0  0  0  0
   -4.3780    4.3936    0.8366 H   0  0  0  0  0  0  0  0  0  0  0  0
   -3.4086    4.1509   -0.6109 H   0  0  0  0  0  0  0  0  0  0  0  0
   -5.1381    4.5288   -0.7671 H   0  0  0  0  0  0  0  0  0  0  0  0
   -4.7580    2.0692   -1.1488 H   0  0  0  0  0  0  0  0  0  0  0  0
   -5.7234    2.3557    0.2966 H   0  0  0  0  0  0  0  0  0  0  0  0
   -2.3617    0.0942    1.8147 H   0  0  0  0  0  0  0  0  0  0  0  0
   -1.3185    1.4735    1.7193 H   0  0  0  0  0  0  0  0  0  0  0  0
    0.7040    1.4640    0.7479 H   0  0  0  0  0  0  0  0  0  0  0  0
    2.9117    1.5514    1.5982 H   0  0  0  0  0  0  0  0  0  0  0  0
    5.1334    2.4915    1.3912 H   0  0  0  0  0  0  0  0  0  0  0  0
    6.8504    3.7127    0.2883 H   0  0  0  0  0  0  0  0  0  0  0  0
    7.5040    2.3574    1.2889 H   0  0  0  0  0  0  0  0  0  0  0  0
    8.4534    3.0418   -0.0360 H   0  0  0  0  0  0  0  0  0  0  0  0
    5.8045    0.1690   -2.1718 H   0  0  0  0  0  0  0  0  0  0  0  0
    3.5440   -0.7781   -1.9752 H   0  0  0  0  0  0  0  0  0  0  0  0
    1.2758   -3.8324   -1.2995 H   0  0  0  0  0  0  0  0  0  0  0  0
   -0.7242   -5.2080   -1.3652 H   0  0  0  0  0  0  0  0  0  0  0  0
   -3.0512   -5.5390   -1.0080 H   0  0  0  0  0  0  0  0  0  0  0  0
   -5.2629   -4.7405   -0.3072 H   0  0  0  0  0  0  0  0  0  0  0  0
   -5.5173   -2.4202    0.5292 H   0  0  0  0  0  0  0  0  0  0  0  0
   -3.6350   -0.9556    0.6666 H   0  0  0  0  0  0  0  0  0  0  0  0
  1  2  1  0
  2  3  1  0
  3  4  1  0
  4  5  2  0
  4  6  1  0
  6  7  1  0
  7  8  2  0
  8  9  1  0
  9 10  1  0
 10 11  2  0
 11 12  1  0
 12 13  2  0
 13 14  1  0
 14 15  1  0
 13 16  1  0
 16 17  2  0
  9 18  2  0
 18 19  1  0
 19 20  2  0
 20 21  1  0
 21 22  2  0
 22 23  1  0
 23 24  2  0
 24 25  1  0
 25 26  2  0
 26 27  1  0
 27 28  2  0
 28  7  1  0
 17 10  1  0
 28 19  1  0
 27 22  1  0
  1 29  1  0
  1 30  1  0
  1 31  1  0
  2 32  1  0
  2 33  1  0
  6 34  1  0
  6 35  1  0
  8 36  1  0
 11 37  1  0
 12 38  1  0
 15 39  1  0
 15 40  1  0
 15 41  1  0
 16 42  1  0
 17 43  1  0
 20 44  1  0
 21 45  1  0
 23 46  1  0
 24 47  1  0
 25 48  1  0
 26 49  1  0
M  END
$$$$
