
     RDKit          3D

 52 53  0  0  0  0  0  0  0  0999 V2000
    5.0805   -1.3476    1.2209 C   0  0  0  0  0  0  0  0  0  0  0  0
    4.9785   -0.0768    0.3565 C   0  0  0  0  0  0  0  0  0  0  0  0
    5.5021    1.1141    1.1896 C   0  0  0  0  0  0  0  0  0  0  0  0
    5.9290   -0.2394   -0.8505 C   0  0  0  0  0  0  0  0  0  0  0  0
    3.5101    0.2063   -0.1387 C   0  0  0  0  0  0  0  0  0  0  0  0
    2.9441   -0.8965   -1.0622 C   0  0  0  0  0  0  0  0  0  0  0  0
    1.5424   -0.5610   -1.5667 C   0  0  0  0  0  0  0  0  0  0  0  0
    0.5720   -0.3006   -0.4172 C   0  0  0  0  0  0  0  0  0  0  0  0
   -0.6843    0.1117   -0.9958 O   0  0  0  0  0  0  0  0  0  0  0  0
   -1.7928   -0.0737   -0.2308 C   0  0  0  0  0  0  0  0  0  0  0  0
   -1.8159   -0.5617    0.8909 O   0  0  0  0  0  0  0  0  0  0  0  0
   -3.0283    0.4076   -0.9913 C   0  0  0  0  0  0  0  0  0  0  0  0
   -4.3698    0.4291   -0.1857 N   0  0  0  0  0  4  0  0  0  0  0  0
   -4.2419    1.3612    1.0172 C   0  0  0  0  0  0  0  0  0  0  0  0
   -4.7676   -0.9915    0.2809 C   0  0  0  0  0  0  0  0  0  0  0  0
   -6.0405   -1.3157   -0.4824 C   0  0  0  0  0  0  0  0  0  0  0  0
   -6.6905    0.0320   -0.7002 C   0  0  0  0  0  0  0  0  0  0  0  0
   -5.5173    0.9052   -1.0925 C   0  0  0  0  0  0  0  0  0  0  0  0
    1.1108    0.8029    0.4913 C   0  0  0  0  0  0  0  0  0  0  0  0
    2.5105    0.4771    1.0090 C   0  0  0  0  0  0  0  0  0  0  0  0
    4.7712   -2.2411    0.6700 H   0  0  0  0  0  0  0  0  0  0  0  0
    6.1139   -1.5144    1.5477 H   0  0  0  0  0  0  0  0  0  0  0  0
    4.4670   -1.2762    2.1243 H   0  0  0  0  0  0  0  0  0  0  0  0
    5.3914    2.0572    0.6430 H   0  0  0  0  0  0  0  0  0  0  0  0
    4.9751    1.2087    2.1444 H   0  0  0  0  0  0  0  0  0  0  0  0
    6.5654    0.9934    1.4283 H   0  0  0  0  0  0  0  0  0  0  0  0
    6.9743   -0.3029   -0.5257 H   0  0  0  0  0  0  0  0  0  0  0  0
    5.8472    0.6122   -1.5349 H   0  0  0  0  0  0  0  0  0  0  0  0
    5.7201   -1.1532   -1.4157 H   0  0  0  0  0  0  0  0  0  0  0  0
    3.5534    1.1270   -0.7402 H   0  0  0  0  0  0  0  0  0  0  0  0
    2.9051   -1.8544   -0.5311 H   0  0  0  0  0  0  0  0  0  0  0  0
    3.5883   -1.0377   -1.9357 H   0  0  0  0  0  0  0  0  0  0  0  0
    1.1632   -1.3809   -2.1890 H   0  0  0  0  0  0  0  0  0  0  0  0
    1.5833    0.3155   -2.2268 H   0  0  0  0  0  0  0  0  0  0  0  0
    0.4373   -1.2328    0.1472 H   0  0  0  0  0  0  0  0  0  0  0  0
   -3.1919   -0.2578   -1.8458 H   0  0  0  0  0  0  0  0  0  0  0  0
   -2.8667    1.4360   -1.3317 H   0  0  0  0  0  0  0  0  0  0  0  0
   -5.2245    1.4495    1.4906 H   0  0  0  0  0  0  0  0  0  0  0  0
   -3.9053    2.3382    0.6586 H   0  0  0  0  0  0  0  0  0  0  0  0
   -3.5266    0.9437    1.7279 H   0  0  0  0  0  0  0  0  0  0  0  0
   -4.9471   -0.9598    1.3608 H   0  0  0  0  0  0  0  0  0  0  0  0
   -3.9670   -1.7009    0.0555 H   0  0  0  0  0  0  0  0  0  0  0  0
   -6.6843   -2.0083    0.0672 H   0  0  0  0  0  0  0  0  0  0  0  0
   -5.7934   -1.7785   -1.4455 H   0  0  0  0  0  0  0  0  0  0  0  0
   -7.4612    0.0036   -1.4756 H   0  0  0  0  0  0  0  0  0  0  0  0
   -7.1508    0.3933    0.2267 H   0  0  0  0  0  0  0  0  0  0  0  0
   -5.6900    1.9750   -0.9409 H   0  0  0  0  0  0  0  0  0  0  0  0
   -5.2260    0.7222   -2.1329 H   0  0  0  0  0  0  0  0  0  0  0  0
    0.4327    0.9581    1.3387 H   0  0  0  0  0  0  0  0  0  0  0  0
    1.1258    1.7567   -0.0521 H   0  0  0  0  0  0  0  0  0  0  0  0
    2.4446   -0.3950    1.6694 H   0  0  0  0  0  0  0  0  0  0  0  0
    2.8444    1.3210    1.6209 H   0  0  0  0  0  0  0  0  0  0  0  0
  1  2  1  0
  2  3  1  0
  2  4  1  0
  2  5  1  0
  5  6  1  0
  6  7  1  0
  7  8  1  0
  8  9  1  0
  9 10  1  0
 10 11  2  0
 10 12  1  0
 12 13  1  0
 13 14  1  0
 13 15  1  0
 15 16  1  0
 16 17  1  0
 17 18  1  0
  8 19  1  0
 19 20  1  0
 20  5  1  0
 18 13  1  0
  1 21  1  0
  1 22  1  0
  1 23  1  0
  3 24  1  0
  3 25  1  0
  3 26  1  0
  4 27  1  0
  4 28  1  0
  4 29  1  0
  5 30  1  0
  6 31  1  0
  6 32  1  0
  7 33  1  0
  7 34  1  0
  8 35  1  0
 12 36  1  0
 12 37  1  0
 14 38  1  0
 14 39  1  0
 14 40  1  0
 15 41  1  0
 15 42  1  0
 16 43  1  0
 16 44  1  0
 17 45  1  0
 17 46  1  0
 18 47  1  0
 18 48  1  0
 19 49  1  0
 19 50  1  0
 20 51  1  0
 20 52  1  0
M  CHG  1  13   1
M  END
$$$$
