
     RDKit          3D

 41 44  0  0  0  0  0  0  0  0999 V2000
   -5.5656   -2.3862    1.0097 C   0  0  0  0  0  0  0  0  0  0  0  0
   -5.7906   -0.9952    0.4117 C   0  0  0  0  0  0  0  0  0  0  0  0
   -6.7522   -1.0615   -0.7774 C   0  0  0  0  0  0  0  0  0  0  0  0
   -4.4782   -0.3320    0.0318 C   0  0  0  0  0  0  0  0  0  0  0  0
   -4.0944    0.8629    0.6573 C   0  0  0  0  0  0  0  0  0  0  0  0
   -2.8902    1.4900    0.3246 C   0  0  0  0  0  0  0  0  0  0  0  0
   -2.0452    0.9295   -0.6365 C   0  0  0  0  0  0  0  0  0  0  0  0
   -0.7907    1.6054   -0.9769 C   0  0  0  0  0  0  0  0  0  0  0  0
    0.4396    1.1605   -0.6851 C   0  0  0  0  0  0  0  0  0  0  0  0
    0.8599   -0.3120    0.1719 S   0  0  0  0  0  0  0  0  0  0  0  0
    2.5207    0.0838    0.0195 C   0  0  0  0  0  0  0  0  0  0  0  0
    3.6437   -0.4668    0.3789 N   0  0  0  0  0  0  0  0  0  0  0  0
    4.5775    0.4489   -0.0985 C   0  0  0  0  0  0  0  0  0  0  0  0
    6.0115    0.2475    0.0776 C   0  0  0  0  0  0  0  0  0  0  0  0
    6.9334    1.1772   -0.4101 C   0  0  0  0  0  0  0  0  0  0  0  0
    8.2821    0.9346   -0.2144 C   0  0  0  0  0  0  0  0  0  0  0  0
    8.7637   -0.1530    0.4234 N   0  0  0  0  0  0  0  0  0  0  0  0
    7.8566   -1.0383    0.8867 C   0  0  0  0  0  0  0  0  0  0  0  0
    6.4886   -0.8854    0.7410 C   0  0  0  0  0  0  0  0  0  0  0  0
    4.0428    1.5193   -0.7276 N   0  0  0  0  0  0  0  0  0  0  0  0
    2.7309    1.2448   -0.6289 N   0  0  0  0  0  0  0  0  0  0  0  0
    1.6415    1.9572   -1.0807 C   0  0  0  0  0  0  0  0  0  0  0  0
    1.7132    3.0168   -1.6758 O   0  0  0  0  0  0  0  0  0  0  0  0
   -2.4234   -0.2564   -1.2718 C   0  0  0  0  0  0  0  0  0  0  0  0
   -3.6278   -0.8825   -0.9381 C   0  0  0  0  0  0  0  0  0  0  0  0
   -6.5128   -2.8143    1.3551 H   0  0  0  0  0  0  0  0  0  0  0  0
   -4.8866   -2.3379    1.8683 H   0  0  0  0  0  0  0  0  0  0  0  0
   -5.1333   -3.0807    0.2811 H   0  0  0  0  0  0  0  0  0  0  0  0
   -6.2775   -0.3872    1.1858 H   0  0  0  0  0  0  0  0  0  0  0  0
   -6.9234   -0.0645   -1.1984 H   0  0  0  0  0  0  0  0  0  0  0  0
   -7.7218   -1.4649   -0.4661 H   0  0  0  0  0  0  0  0  0  0  0  0
   -6.3685   -1.7011   -1.5798 H   0  0  0  0  0  0  0  0  0  0  0  0
   -4.7322    1.3182    1.4122 H   0  0  0  0  0  0  0  0  0  0  0  0
   -2.6209    2.4162    0.8273 H   0  0  0  0  0  0  0  0  0  0  0  0
   -0.9176    2.5556   -1.4951 H   0  0  0  0  0  0  0  0  0  0  0  0
    6.6143    2.0736   -0.9325 H   0  0  0  0  0  0  0  0  0  0  0  0
    9.0336    1.6304   -0.5768 H   0  0  0  0  0  0  0  0  0  0  0  0
    8.2717   -1.9037    1.3957 H   0  0  0  0  0  0  0  0  0  0  0  0
    5.8135   -1.6367    1.1384 H   0  0  0  0  0  0  0  0  0  0  0  0
   -1.7898   -0.7055   -2.0330 H   0  0  0  0  0  0  0  0  0  0  0  0
   -3.8958   -1.8063   -1.4460 H   0  0  0  0  0  0  0  0  0  0  0  0
  1  2  1  0
  2  3  1  0
  2  4  1  0
  4  5  2  0
  5  6  1  0
  6  7  2  0
  7  8  1  0
  8  9  2  3
  9 10  1  0
 10 11  1  0
 11 12  2  0
 12 13  1  0
 13 14  1  0
 14 15  2  0
 15 16  1  0
 16 17  2  0
 17 18  1  0
 18 19  2  0
 13 20  2  0
 20 21  1  0
 21 22  1  0
 22 23  2  0
  7 24  1  0
 24 25  2  0
 25  4  1  0
 22  9  1  0
 21 11  1  0
 19 14  1  0
  1 26  1  0
  1 27  1  0
  1 28  1  0
  2 29  1  0
  3 30  1  0
  3 31  1  0
  3 32  1  0
  5 33  1  0
  6 34  1  0
  8 35  1  0
 15 36  1  0
 16 37  1  0
 18 38  1  0
 19 39  1  0
 24 40  1  0
 25 41  1  0
M  END
$$$$
