
     RDKit          3D

 35 37  0  0  0  0  0  0  0  0999 V2000
   -4.6539   -1.1602   -2.3697 C   0  0  0  0  0  0  0  0  0  0  0  0
   -4.8849   -0.1043   -1.4448 O   0  0  0  0  0  0  0  0  0  0  0  0
   -3.6764    0.4345   -0.9050 C   0  0  0  0  0  0  0  0  0  0  0  0
   -3.1696   -0.3930    0.2831 C   0  0  0  0  0  0  0  0  0  0  0  0
   -1.9237    0.1469    0.8451 N   0  0  0  0  0  0  0  0  0  0  0  0
   -1.9330    1.0430    1.9306 C   0  0  0  0  0  0  0  0  0  0  0  0
   -3.2843    1.6238    2.7407 S   0  0  0  0  0  0  0  0  0  0  0  0
   -0.7170    1.4953    2.3836 N   0  0  0  0  0  0  0  0  0  0  0  0
    0.4270    1.0923    1.7722 C   0  0  0  0  0  0  0  0  0  0  0  0
    1.9063    1.6429    2.3400 S   0  0  0  0  0  0  0  0  0  0  0  0
    2.7185    0.7460    1.1324 C   0  0  0  0  0  0  0  0  0  0  0  0
    1.8474    0.0521    0.3028 C   0  0  0  0  0  0  0  0  0  0  0  0
    0.4855    0.2555    0.7003 C   0  0  0  0  0  0  0  0  0  0  0  0
   -0.7541   -0.2635    0.1600 C   0  0  0  0  0  0  0  0  0  0  0  0
   -0.7706   -0.9923   -0.8298 O   0  0  0  0  0  0  0  0  0  0  0  0
    2.3424   -0.8083   -0.8232 C   0  0  0  0  0  0  0  0  0  0  0  0
    3.8132   -0.5163   -1.1630 C   0  0  0  0  0  0  0  0  0  0  0  0
    4.6785   -0.3915    0.0992 C   0  0  0  0  0  0  0  0  0  0  0  0
    4.2096    0.7629    0.9983 C   0  0  0  0  0  0  0  0  0  0  0  0
   -4.0537   -0.8063   -3.2134 H   0  0  0  0  0  0  0  0  0  0  0  0
   -5.6217   -1.4972   -2.7510 H   0  0  0  0  0  0  0  0  0  0  0  0
   -4.1611   -2.0070   -1.8850 H   0  0  0  0  0  0  0  0  0  0  0  0
   -3.9063    1.4506   -0.5667 H   0  0  0  0  0  0  0  0  0  0  0  0
   -2.9173    0.5323   -1.6902 H   0  0  0  0  0  0  0  0  0  0  0  0
   -3.9521   -0.4636    1.0450 H   0  0  0  0  0  0  0  0  0  0  0  0
   -2.9967   -1.4293   -0.0302 H   0  0  0  0  0  0  0  0  0  0  0  0
   -0.6758    2.1324    3.1704 H   0  0  0  0  0  0  0  0  0  0  0  0
    1.7324   -0.6553   -1.7203 H   0  0  0  0  0  0  0  0  0  0  0  0
    2.2397   -1.8599   -0.5284 H   0  0  0  0  0  0  0  0  0  0  0  0
    4.2032   -1.3121   -1.8075 H   0  0  0  0  0  0  0  0  0  0  0  0
    3.8782    0.4187   -1.7344 H   0  0  0  0  0  0  0  0  0  0  0  0
    5.7266   -0.2342   -0.1792 H   0  0  0  0  0  0  0  0  0  0  0  0
    4.6337   -1.3350    0.6585 H   0  0  0  0  0  0  0  0  0  0  0  0
    4.5152    1.7176    0.5528 H   0  0  0  0  0  0  0  0  0  0  0  0
    4.6950    0.6824    1.9774 H   0  0  0  0  0  0  0  0  0  0  0  0
  1  2  1  0
  2  3  1  0
  3  4  1  0
  4  5  1  0
  5  6  1  0
  6  7  2  0
  6  8  1  0
  8  9  1  0
  9 10  1  0
 10 11  1  0
 11 12  2  0
 12 13  1  0
 13 14  1  0
 14 15  2  0
 12 16  1  0
 16 17  1  0
 17 18  1  0
 18 19  1  0
 14  5  1  0
 13  9  2  0
 19 11  1  0
  1 20  1  0
  1 21  1  0
  1 22  1  0
  3 23  1  0
  3 24  1  0
  4 25  1  0
  4 26  1  0
  8 27  1  0
 16 28  1  0
 16 29  1  0
 17 30  1  0
 17 31  1  0
 18 32  1  0
 18 33  1  0
 19 34  1  0
 19 35  1  0
M  END
$$$$
