
     RDKit          3D

 62 65  0  0  0  0  0  0  0  0999 V2000
   -6.2303   -2.5871   -1.7963 C   0  0  0  0  0  0  0  0  0  0  0  0
   -5.4512   -1.3562   -1.3724 C   0  0  0  0  0  0  0  0  0  0  0  0
   -4.1411   -1.7285   -0.9249 O   0  0  0  0  0  0  0  0  0  0  0  0
   -3.1903   -1.8200   -1.8938 C   0  0  0  0  0  0  0  0  0  0  0  0
   -3.3473   -1.6546   -3.0944 O   0  0  0  0  0  0  0  0  0  0  0  0
   -1.9019   -2.1880   -1.2668 C   0  0  0  0  0  0  0  0  0  0  0  0
   -1.6880   -3.5317   -1.1867 C   0  0  0  0  0  0  0  0  0  0  0  0
   -2.6065   -4.5536   -1.8247 C   0  0  0  0  0  0  0  0  0  0  0  0
   -0.6305   -4.1161   -0.5094 N   0  0  0  0  0  0  0  0  0  0  0  0
    0.2662   -3.3199   -0.0375 C   0  0  0  0  0  0  0  0  0  0  0  0
    1.7149   -3.9269    0.6928 S   0  0  0  0  0  0  0  0  0  0  0  0
    2.5115   -2.3700    0.5298 C   0  0  0  0  0  0  0  0  0  0  0  0
    3.8202   -2.2544    0.8476 C   0  0  0  0  0  0  0  0  0  0  0  0
    4.5538   -3.3525    1.2855 O   0  0  0  0  0  0  0  0  0  0  0  0
    4.6225   -1.0257    0.7765 C   0  0  0  0  0  0  0  0  0  0  0  0
    4.6249   -0.1148    1.8413 C   0  0  0  0  0  0  0  0  0  0  0  0
    5.4272    1.0297    1.7874 C   0  0  0  0  0  0  0  0  0  0  0  0
    6.2276    1.2742    0.6685 C   0  0  0  0  0  0  0  0  0  0  0  0
    7.0543    2.3475    0.4901 O   0  0  0  0  0  0  0  0  0  0  0  0
    7.2577    3.1900    1.6161 C   0  0  0  0  0  0  0  0  0  0  0  0
    6.2134    0.3708   -0.3974 C   0  0  0  0  0  0  0  0  0  0  0  0
    5.4287   -0.7809   -0.3431 C   0  0  0  0  0  0  0  0  0  0  0  0
    1.5393   -1.3637    0.0445 C   0  0  0  0  0  0  0  0  0  0  0  0
    1.9311   -0.0624   -0.2223 N   0  0  0  0  0  0  0  0  0  0  0  0
    0.2791   -1.8396   -0.1206 C   0  0  0  0  0  0  0  0  0  0  0  0
   -0.9859   -1.2215   -0.5802 C   0  0  0  0  0  0  0  0  0  0  0  0
   -1.3481    0.0638   -0.2706 C   0  0  0  0  0  0  0  0  0  0  0  0
   -2.3163    0.8343   -1.0758 C   0  0  0  0  0  0  0  0  0  0  0  0
   -2.8072    2.0126   -0.6579 C   0  0  0  0  0  0  0  0  0  0  0  0
   -2.4015    2.5894    0.6292 C   0  0  0  0  0  0  0  0  0  0  0  0
   -3.0362    3.6925    1.1011 C   0  0  0  0  0  0  0  0  0  0  0  0
   -2.7220    4.2872    2.3092 O   0  0  0  0  0  0  0  0  0  0  0  0
   -4.0766    4.2443    0.3660 O   0  0  0  0  0  0  0  0  0  0  0  0
   -4.3602    5.5949    0.7030 C   0  0  0  0  0  0  0  0  0  0  0  0
   -1.2572    1.9668    1.3056 C   0  0  0  0  0  0  0  0  0  0  0  0
   -0.7600    0.7896    0.8808 C   0  0  0  0  0  0  0  0  0  0  0  0
   -5.7493   -3.0813   -2.6474 H   0  0  0  0  0  0  0  0  0  0  0  0
   -7.2531   -2.3239   -2.0774 H   0  0  0  0  0  0  0  0  0  0  0  0
   -6.2674   -3.3196   -0.9827 H   0  0  0  0  0  0  0  0  0  0  0  0
   -5.9547   -0.8767   -0.5276 H   0  0  0  0  0  0  0  0  0  0  0  0
   -5.4007   -0.6191   -2.1781 H   0  0  0  0  0  0  0  0  0  0  0  0
   -2.1642   -5.5573   -1.7885 H   0  0  0  0  0  0  0  0  0  0  0  0
   -2.7837   -4.3249   -2.8811 H   0  0  0  0  0  0  0  0  0  0  0  0
   -3.5644   -4.5975   -1.2945 H   0  0  0  0  0  0  0  0  0  0  0  0
    5.4542   -3.0547    1.5017 H   0  0  0  0  0  0  0  0  0  0  0  0
    4.0012   -0.2943    2.7184 H   0  0  0  0  0  0  0  0  0  0  0  0
    5.3993    1.7105    2.6309 H   0  0  0  0  0  0  0  0  0  0  0  0
    8.0250    3.9203    1.3492 H   0  0  0  0  0  0  0  0  0  0  0  0
    7.6264    2.6207    2.4792 H   0  0  0  0  0  0  0  0  0  0  0  0
    6.3428    3.7360    1.8655 H   0  0  0  0  0  0  0  0  0  0  0  0
    6.8318    0.5612   -1.2711 H   0  0  0  0  0  0  0  0  0  0  0  0
    5.4528   -1.4827   -1.1768 H   0  0  0  0  0  0  0  0  0  0  0  0
    2.8752    0.0137   -0.5766 H   0  0  0  0  0  0  0  0  0  0  0  0
    1.2800    0.4447   -0.8232 H   0  0  0  0  0  0  0  0  0  0  0  0
   -2.5680    0.5190   -2.0818 H   0  0  0  0  0  0  0  0  0  0  0  0
   -3.4841    2.5722   -1.2979 H   0  0  0  0  0  0  0  0  0  0  0  0
   -2.2203    3.6571    2.8416 H   0  0  0  0  0  0  0  0  0  0  0  0
   -5.1627    5.9419    0.0420 H   0  0  0  0  0  0  0  0  0  0  0  0
   -3.4835    6.2315    0.5402 H   0  0  0  0  0  0  0  0  0  0  0  0
   -4.7156    5.6813    1.7361 H   0  0  0  0  0  0  0  0  0  0  0  0
   -0.7832    2.4515    2.1498 H   0  0  0  0  0  0  0  0  0  0  0  0
    0.0521    0.3510    1.4503 H   0  0  0  0  0  0  0  0  0  0  0  0
  1  2  1  0
  2  3  1  0
  3  4  1  0
  4  5  2  0
  4  6  1  0
  6  7  2  0
  7  8  1  0
  7  9  1  0
  9 10  2  0
 10 11  1  0
 11 12  1  0
 12 13  2  3
 13 14  1  0
 13 15  1  0
 15 16  2  0
 16 17  1  0
 17 18  2  0
 18 19  1  0
 19 20  1  0
 18 21  1  0
 21 22  2  0
 12 23  1  0
 23 24  1  0
 23 25  2  0
 25 26  1  0
 26 27  2  3
 27 28  1  0
 28 29  2  0
 29 30  1  0
 30 31  2  3
 31 32  1  0
 31 33  1  0
 33 34  1  0
 30 35  1  0
 35 36  2  0
 26  6  1  0
 36 27  1  0
 25 10  1  0
 22 15  1  0
  1 37  1  0
  1 38  1  0
  1 39  1  0
  2 40  1  0
  2 41  1  0
  8 42  1  0
  8 43  1  0
  8 44  1  0
 14 45  1  0
 16 46  1  0
 17 47  1  0
 20 48  1  0
 20 49  1  0
 20 50  1  0
 21 51  1  0
 22 52  1  0
 24 53  1  0
 24 54  1  0
 28 55  1  0
 29 56  1  0
 32 57  1  0
 34 58  1  0
 34 59  1  0
 34 60  1  0
 35 61  1  0
 36 62  1  0
M  END
$$$$
