
     RDKit          3D

 40 42  0  0  0  0  0  0  0  0999 V2000
    4.3702   -3.1786   -1.6433 C   0  0  0  0  0  0  0  0  0  0  0  0
    3.9005   -1.8574   -1.1175 C   0  0  0  0  0  0  0  0  0  0  0  0
    4.4428   -0.7869   -1.3456 O   0  0  0  0  0  0  0  0  0  0  0  0
    2.7753   -2.0232   -0.3710 O   0  0  0  0  0  0  0  0  0  0  0  0
    2.2586   -0.8288    0.2478 C   0  0  0  0  0  0  0  0  0  0  0  0
    1.5997    0.1068   -0.7734 C   0  0  0  0  0  0  0  0  0  0  0  0
    0.5077    0.8810   -0.1681 N   0  0  0  0  0  0  0  0  0  0  0  0
    0.7780    2.0812    0.4779 C   0  0  0  0  0  0  0  0  0  0  0  0
    1.9778    2.5474    0.6471 N   0  0  0  0  0  0  0  0  0  0  0  0
    2.1986    3.7327    1.2917 C   0  0  0  0  0  0  0  0  0  0  0  0
    3.2743    4.0028    1.8145 O   0  0  0  0  0  0  0  0  0  0  0  0
    1.1871    4.6442    1.3730 N   0  0  0  0  0  0  0  0  0  0  0  0
   -0.0951    4.2403    1.5833 C   0  0  0  0  0  0  0  0  0  0  0  0
   -0.9131    4.8808    2.2220 O   0  0  0  0  0  0  0  0  0  0  0  0
   -0.3876    2.8783    1.0134 C   0  0  0  0  0  0  0  0  0  0  0  0
   -1.6052    2.4298    0.9862 N   0  0  0  0  0  0  0  0  0  0  0  0
   -1.8332    1.1518    0.4423 C   0  0  0  0  0  0  0  0  0  0  0  0
   -3.1475    0.6731    0.4926 C   0  0  0  0  0  0  0  0  0  0  0  0
   -3.4896   -0.5878   -0.0110 C   0  0  0  0  0  0  0  0  0  0  0  0
   -4.9173   -1.0523    0.0717 C   0  0  0  0  0  0  0  0  0  0  0  0
   -2.4827   -1.3879   -0.5735 C   0  0  0  0  0  0  0  0  0  0  0  0
   -2.7886   -2.7563   -1.1221 C   0  0  0  0  0  0  0  0  0  0  0  0
   -1.1606   -0.9031   -0.6260 C   0  0  0  0  0  0  0  0  0  0  0  0
   -0.8073    0.3653   -0.1323 C   0  0  0  0  0  0  0  0  0  0  0  0
    5.2996   -3.0363   -2.2022 H   0  0  0  0  0  0  0  0  0  0  0  0
    3.6174   -3.5984   -2.3150 H   0  0  0  0  0  0  0  0  0  0  0  0
    4.5676   -3.8600   -0.8119 H   0  0  0  0  0  0  0  0  0  0  0  0
    1.5289   -1.1705    0.9901 H   0  0  0  0  0  0  0  0  0  0  0  0
    3.0531   -0.3183    0.8060 H   0  0  0  0  0  0  0  0  0  0  0  0
    2.3584    0.7906   -1.1755 H   0  0  0  0  0  0  0  0  0  0  0  0
    1.2621   -0.4432   -1.6594 H   0  0  0  0  0  0  0  0  0  0  0  0
    1.4427    5.4671    1.8996 H   0  0  0  0  0  0  0  0  0  0  0  0
   -3.9101    1.3089    0.9394 H   0  0  0  0  0  0  0  0  0  0  0  0
   -4.9890   -1.9509    0.6926 H   0  0  0  0  0  0  0  0  0  0  0  0
   -5.3067   -1.2668   -0.9286 H   0  0  0  0  0  0  0  0  0  0  0  0
   -5.5637   -0.2894    0.5186 H   0  0  0  0  0  0  0  0  0  0  0  0
   -3.5046   -2.6832   -1.9468 H   0  0  0  0  0  0  0  0  0  0  0  0
   -1.8891   -3.2465   -1.5094 H   0  0  0  0  0  0  0  0  0  0  0  0
   -3.1994   -3.3979   -0.3362 H   0  0  0  0  0  0  0  0  0  0  0  0
   -0.4097   -1.5585   -1.0575 H   0  0  0  0  0  0  0  0  0  0  0  0
  1  2  1  0
  2  3  2  0
  2  4  1  0
  4  5  1  0
  5  6  1  0
  6  7  1  0
  7  8  1  0
  8  9  2  0
  9 10  1  0
 10 11  2  0
 10 12  1  0
 12 13  1  0
 13 14  2  0
 13 15  1  0
 15 16  2  0
 16 17  1  0
 17 18  2  0
 18 19  1  0
 19 20  1  0
 19 21  2  0
 21 22  1  0
 21 23  1  0
 23 24  2  0
 24  7  1  0
 15  8  1  0
 24 17  1  0
  1 25  1  0
  1 26  1  0
  1 27  1  0
  5 28  1  0
  5 29  1  0
  6 30  1  0
  6 31  1  0
 12 32  1  0
 18 33  1  0
 20 34  1  0
 20 35  1  0
 20 36  1  0
 22 37  1  0
 22 38  1  0
 22 39  1  0
 23 40  1  0
M  END
$$$$
