
     RDKit          3D

 37 38  0  0  0  0  0  0  0  0999 V2000
   -4.9934   -0.7085   -1.3335 C   0  0  0  0  0  0  0  0  0  0  0  0
   -4.1810    0.2705   -0.6164 N   0  0  0  0  0  0  0  0  0  0  0  0
   -3.0373    0.7057   -1.4388 C   0  0  0  0  0  0  0  0  0  0  0  0
   -1.9438    1.4182   -0.6222 C   0  0  0  0  0  0  0  0  0  0  0  0
   -1.4183    0.5713    0.4554 N   0  0  0  0  0  0  0  0  0  0  0  0
   -0.1744    0.7069    1.0424 C   0  0  0  0  0  0  0  0  0  0  0  0
    0.2850   -0.0967    1.8480 O   0  0  0  0  0  0  0  0  0  0  0  0
    0.5895    1.9249    0.6651 C   0  0  0  0  0  0  0  0  0  0  0  0
    1.9013    1.9463    0.3809 C   0  0  0  0  0  0  0  0  0  0  0  0
    2.8006    0.7898    0.3130 C   0  0  0  0  0  0  0  0  0  0  0  0
    3.9643    0.7838    1.0933 C   0  0  0  0  0  0  0  0  0  0  0  0
    4.8507   -0.2959    1.0381 C   0  0  0  0  0  0  0  0  0  0  0  0
    4.5727   -1.3730    0.1874 C   0  0  0  0  0  0  0  0  0  0  0  0
    5.4994   -2.5097    0.1253 N   0  0  0  0  0  4  0  0  0  0  0  0
    5.2252   -3.4368   -0.6508 O   0  0  0  0  0  0  0  0  0  0  0  0
    6.5074   -2.4732    0.8458 O   0  0  0  0  0  1  0  0  0  0  0  0
    3.4210   -1.3723   -0.6090 C   0  0  0  0  0  0  0  0  0  0  0  0
    2.5417   -0.2874   -0.5459 C   0  0  0  0  0  0  0  0  0  0  0  0
   -2.2681   -0.5487    0.8622 C   0  0  0  0  0  0  0  0  0  0  0  0
   -3.7665   -0.2249    0.7135 C   0  0  0  0  0  0  0  0  0  0  0  0
   -5.9010   -0.9435   -0.7666 H   0  0  0  0  0  0  0  0  0  0  0  0
   -5.3220   -0.3052   -2.2978 H   0  0  0  0  0  0  0  0  0  0  0  0
   -4.4480   -1.6414   -1.5159 H   0  0  0  0  0  0  0  0  0  0  0  0
   -2.5785   -0.1573   -1.9407 H   0  0  0  0  0  0  0  0  0  0  0  0
   -3.3967    1.3837   -2.2215 H   0  0  0  0  0  0  0  0  0  0  0  0
   -1.1262    1.7137   -1.2879 H   0  0  0  0  0  0  0  0  0  0  0  0
   -2.3462    2.3259   -0.1568 H   0  0  0  0  0  0  0  0  0  0  0  0
    0.0272    2.8514    0.6801 H   0  0  0  0  0  0  0  0  0  0  0  0
    2.3755    2.9041    0.1781 H   0  0  0  0  0  0  0  0  0  0  0  0
    4.1798    1.6128    1.7647 H   0  0  0  0  0  0  0  0  0  0  0  0
    5.7404   -0.2829    1.6639 H   0  0  0  0  0  0  0  0  0  0  0  0
    3.1910   -2.2018   -1.2738 H   0  0  0  0  0  0  0  0  0  0  0  0
    1.6479   -0.2957   -1.1657 H   0  0  0  0  0  0  0  0  0  0  0  0
   -2.0521   -0.8241    1.9004 H   0  0  0  0  0  0  0  0  0  0  0  0
   -2.0001   -1.4054    0.2319 H   0  0  0  0  0  0  0  0  0  0  0  0
   -4.3577   -1.0953    1.0241 H   0  0  0  0  0  0  0  0  0  0  0  0
   -4.0094    0.5707    1.4298 H   0  0  0  0  0  0  0  0  0  0  0  0
  1  2  1  0
  2  3  1  0
  3  4  1  0
  4  5  1  0
  5  6  1  0
  6  7  2  0
  6  8  1  0
  8  9  2  3
  9 10  1  0
 10 11  2  0
 11 12  1  0
 12 13  2  0
 13 14  1  0
 14 15  2  0
 14 16  1  0
 13 17  1  0
 17 18  2  0
  5 19  1  0
 19 20  1  0
 20  2  1  0
 18 10  1  0
  1 21  1  0
  1 22  1  0
  1 23  1  0
  3 24  1  0
  3 25  1  0
  4 26  1  0
  4 27  1  0
  8 28  1  0
  9 29  1  0
 11 30  1  0
 12 31  1  0
 17 32  1  0
 18 33  1  0
 19 34  1  0
 19 35  1  0
 20 36  1  0
 20 37  1  0
M  CHG  2  14   1  16  -1
M  END
$$$$
