
     RDKit          3D

 47 49  0  0  0  0  0  0  0  0999 V2000
    0.8862   -1.0994   -1.9000 O   0  0  0  0  0  0  0  0  0  0  0  0
    1.2161   -1.1045   -0.7207 C   0  0  0  0  0  0  0  0  0  0  0  0
    0.8154   -2.1858    0.2585 C   0  0  0  0  0  0  0  0  0  0  0  0
   -0.0080   -3.3076   -0.3823 C   0  0  0  0  0  0  0  0  0  0  0  0
   -1.3117   -2.8927   -0.9143 N   0  0  0  0  0  0  0  0  0  0  0  0
   -2.2524   -2.3649   -0.0432 C   0  0  0  0  0  0  0  0  0  0  0  0
   -2.0987   -2.2437    1.1642 O   0  0  0  0  0  0  0  0  0  0  0  0
   -3.4960   -1.9944   -0.7762 C   0  0  0  0  0  0  0  0  0  0  0  0
   -4.5959   -1.3993   -0.2925 C   0  0  0  0  0  0  0  0  0  0  0  0
   -4.8083   -0.9780    1.0931 C   0  0  0  0  0  0  0  0  0  0  0  0
   -5.0916   -1.9169    2.0939 C   0  0  0  0  0  0  0  0  0  0  0  0
   -5.3053   -1.4971    3.4080 C   0  0  0  0  0  0  0  0  0  0  0  0
   -5.2408   -0.1428    3.7141 C   0  0  0  0  0  0  0  0  0  0  0  0
   -5.4475    0.2594    4.9750 F   0  0  0  0  0  0  0  0  0  0  0  0
   -4.9677    0.8016    2.7311 C   0  0  0  0  0  0  0  0  0  0  0  0
   -4.7522    0.3843    1.4163 C   0  0  0  0  0  0  0  0  0  0  0  0
   -3.3444   -2.4367   -2.4351 S   0  0  0  0  0  0  0  0  0  0  0  0
   -1.7253   -3.0924   -2.2174 C   0  0  0  0  0  0  0  0  0  0  0  0
   -0.9285   -3.8650   -3.4645 S   0  0  0  0  0  0  0  0  0  0  0  0
    1.9765   -0.1090   -0.1392 N   0  0  0  0  0  0  0  0  0  0  0  0
    2.5806    0.9404   -0.9377 C   0  0  0  0  0  0  0  0  0  0  0  0
    2.6465    2.2497   -0.1570 C   0  0  0  0  0  0  0  0  0  0  0  0
    3.2141    3.3988   -0.9888 C   0  0  0  0  0  0  0  0  0  0  0  0
    4.6212    3.2463   -1.2928 N   0  0  0  0  0  0  0  0  0  0  0  0
    5.6603    3.4837   -0.4375 C   0  0  0  0  0  0  0  0  0  0  0  0
    6.7909    3.2109   -1.1715 C   0  0  0  0  0  0  0  0  0  0  0  0
    6.4614    2.8235   -2.4442 N   0  0  0  0  0  0  0  0  0  0  0  0
    5.1490    2.8652   -2.4923 C   0  0  0  0  0  0  0  0  0  0  0  0
    1.7341   -2.6220    0.6697 H   0  0  0  0  0  0  0  0  0  0  0  0
    0.2782   -1.7136    1.0866 H   0  0  0  0  0  0  0  0  0  0  0  0
   -0.2098   -4.0661    0.3846 H   0  0  0  0  0  0  0  0  0  0  0  0
    0.5929   -3.7929   -1.1558 H   0  0  0  0  0  0  0  0  0  0  0  0
   -5.4287   -1.1711   -0.9553 H   0  0  0  0  0  0  0  0  0  0  0  0
   -5.1381   -2.9779    1.8608 H   0  0  0  0  0  0  0  0  0  0  0  0
   -5.5168   -2.2165    4.1924 H   0  0  0  0  0  0  0  0  0  0  0  0
   -4.9242    1.8533    2.9942 H   0  0  0  0  0  0  0  0  0  0  0  0
   -4.5372    1.1264    0.6510 H   0  0  0  0  0  0  0  0  0  0  0  0
    2.3722   -0.2921    0.7753 H   0  0  0  0  0  0  0  0  0  0  0  0
    2.0096    1.0780   -1.8625 H   0  0  0  0  0  0  0  0  0  0  0  0
    3.5816    0.5897   -1.2094 H   0  0  0  0  0  0  0  0  0  0  0  0
    3.2392    2.1077    0.7558 H   0  0  0  0  0  0  0  0  0  0  0  0
    1.6344    2.5221    0.1689 H   0  0  0  0  0  0  0  0  0  0  0  0
    3.1104    4.3425   -0.4401 H   0  0  0  0  0  0  0  0  0  0  0  0
    2.6691    3.5091   -1.9334 H   0  0  0  0  0  0  0  0  0  0  0  0
    5.5207    3.8142    0.5822 H   0  0  0  0  0  0  0  0  0  0  0  0
    7.8236    3.2747   -0.8533 H   0  0  0  0  0  0  0  0  0  0  0  0
    4.5447    2.6267   -3.3585 H   0  0  0  0  0  0  0  0  0  0  0  0
  1  2  2  0
  2  3  1  0
  3  4  1  0
  4  5  1  0
  5  6  1  0
  6  7  2  0
  6  8  1  0
  8  9  2  3
  9 10  1  0
 10 11  2  0
 11 12  1  0
 12 13  2  0
 13 14  1  0
 13 15  1  0
 15 16  2  0
  8 17  1  0
 17 18  1  0
 18 19  2  0
  2 20  1  0
 20 21  1  0
 21 22  1  0
 22 23  1  0
 23 24  1  0
 24 25  1  0
 25 26  2  0
 26 27  1  0
 27 28  2  0
 18  5  1  0
 28 24  1  0
 16 10  1  0
  3 29  1  0
  3 30  1  0
  4 31  1  0
  4 32  1  0
  9 33  1  0
 11 34  1  0
 12 35  1  0
 15 36  1  0
 16 37  1  0
 20 38  1  0
 21 39  1  0
 21 40  1  0
 22 41  1  0
 22 42  1  0
 23 43  1  0
 23 44  1  0
 25 45  1  0
 26 46  1  0
 28 47  1  0
M  END
$$$$
