
     RDKit          3D

 42 43  0  0  0  0  0  0  0  0999 V2000
   -6.4699    0.7856   -1.1138 C   0  0  0  0  0  0  0  0  0  0  0  0
   -5.0879    1.2558   -0.7688 C   0  0  0  0  0  0  0  0  0  0  0  0
   -4.6874    1.3585    0.5679 C   0  0  0  0  0  0  0  0  0  0  0  0
   -3.4091    1.8235    0.8989 C   0  0  0  0  0  0  0  0  0  0  0  0
   -2.5196    2.2011   -0.1062 C   0  0  0  0  0  0  0  0  0  0  0  0
   -1.2415    2.6565    0.0693 O   0  0  0  0  0  0  0  0  0  0  0  0
   -0.7564    2.7903    1.3987 C   0  0  0  0  0  0  0  0  0  0  0  0
   -0.3537    1.4743    2.0614 C   0  0  0  0  0  0  0  0  0  0  0  0
   -0.3936    1.2990    3.2790 O   0  0  0  0  0  0  0  0  0  0  0  0
    0.1114    0.5200    1.1786 N   0  0  0  0  0  0  0  0  0  0  0  0
    0.3194   -0.7768    1.6659 N   0  0  0  0  0  0  0  0  0  0  0  0
    0.7788   -1.7346    0.7810 C   0  0  0  0  0  0  0  0  0  0  0  0
    0.8734   -1.5356   -0.4300 O   0  0  0  0  0  0  0  0  0  0  0  0
    1.1279   -3.0591    1.4309 C   0  0  0  0  0  0  0  0  0  0  0  0
    2.6838   -2.9285    2.3535 S   0  0  0  0  0  0  0  0  0  0  0  0
    3.7384   -2.5287    0.9888 C   0  0  0  0  0  0  0  0  0  0  0  0
    3.8466   -3.4283    0.0005 N   0  0  0  0  0  0  0  0  0  0  0  0
    4.6250   -3.0687   -1.0397 C   0  0  0  0  0  0  0  0  0  0  0  0
    5.2836   -1.8621   -1.1179 C   0  0  0  0  0  0  0  0  0  0  0  0
    6.0888   -1.5429   -2.2472 C   0  0  0  0  0  0  0  0  0  0  0  0
    6.7210   -1.2897   -3.1870 N   0  0  0  0  0  0  0  0  0  0  0  0
    5.1062   -1.0087   -0.0440 C   0  0  0  0  0  0  0  0  0  0  0  0
    5.7513    0.2244    0.0527 N   0  0  0  0  0  0  0  0  0  0  0  0
    4.3455   -1.3318    1.0155 N   0  0  0  0  0  0  0  0  0  0  0  0
   -2.9234    2.1136   -1.4404 C   0  0  0  0  0  0  0  0  0  0  0  0
   -4.1987    1.6502   -1.7721 C   0  0  0  0  0  0  0  0  0  0  0  0
   -6.8087    0.0231   -0.4043 H   0  0  0  0  0  0  0  0  0  0  0  0
   -7.1689    1.6278   -1.0914 H   0  0  0  0  0  0  0  0  0  0  0  0
   -6.4934    0.3338   -2.1113 H   0  0  0  0  0  0  0  0  0  0  0  0
   -5.3707    1.0753    1.3658 H   0  0  0  0  0  0  0  0  0  0  0  0
   -3.1532    1.8733    1.9524 H   0  0  0  0  0  0  0  0  0  0  0  0
    0.1513    3.4028    1.3474 H   0  0  0  0  0  0  0  0  0  0  0  0
   -1.4659    3.3356    2.0315 H   0  0  0  0  0  0  0  0  0  0  0  0
   -0.0848    0.6052    0.1793 H   0  0  0  0  0  0  0  0  0  0  0  0
    0.4854   -0.8537    2.6701 H   0  0  0  0  0  0  0  0  0  0  0  0
    1.1888   -3.8379    0.6641 H   0  0  0  0  0  0  0  0  0  0  0  0
    0.3254   -3.3413    2.1202 H   0  0  0  0  0  0  0  0  0  0  0  0
    4.7009   -3.8103   -1.8307 H   0  0  0  0  0  0  0  0  0  0  0  0
    5.4393    0.6809    0.9077 H   0  0  0  0  0  0  0  0  0  0  0  0
    5.6244    0.8197   -0.7600 H   0  0  0  0  0  0  0  0  0  0  0  0
   -2.2404    2.4100   -2.2331 H   0  0  0  0  0  0  0  0  0  0  0  0
   -4.4897    1.5983   -2.8188 H   0  0  0  0  0  0  0  0  0  0  0  0
  1  2  1  0
  2  3  2  0
  3  4  1  0
  4  5  2  0
  5  6  1  0
  6  7  1  0
  7  8  1  0
  8  9  2  0
  8 10  1  0
 10 11  1  0
 11 12  1  0
 12 13  2  0
 12 14  1  0
 14 15  1  0
 15 16  1  0
 16 17  2  0
 17 18  1  0
 18 19  2  0
 19 20  1  0
 20 21  3  0
 19 22  1  0
 22 23  1  0
 22 24  2  0
  5 25  1  0
 25 26  2  0
 26  2  1  0
 24 16  1  0
  1 27  1  0
  1 28  1  0
  1 29  1  0
  3 30  1  0
  4 31  1  0
  7 32  1  0
  7 33  1  0
 10 34  1  0
 11 35  1  0
 14 36  1  0
 14 37  1  0
 18 38  1  0
 23 39  1  0
 23 40  1  0
 25 41  1  0
 26 42  1  0
M  END
$$$$
