
     RDKit          3D

 41 42  0  0  0  0  0  0  0  0999 V2000
   -6.8047    0.8798    0.9190 C   0  0  0  0  0  0  0  0  0  0  0  0
   -6.1607   -0.0259    0.0348 O   0  0  0  0  0  0  0  0  0  0  0  0
   -4.8325   -0.2920    0.2572 C   0  0  0  0  0  0  0  0  0  0  0  0
   -4.1074    0.1708    1.3599 C   0  0  0  0  0  0  0  0  0  0  0  0
   -2.7567   -0.1565    1.5076 C   0  0  0  0  0  0  0  0  0  0  0  0
   -2.1106   -0.9574    0.5594 C   0  0  0  0  0  0  0  0  0  0  0  0
   -0.6512   -1.3124    0.7271 C   0  0  0  0  0  0  0  0  0  0  0  0
    0.3140   -0.2220    0.3112 C   0  0  0  0  0  0  0  0  0  0  0  0
    0.0041    0.8760   -0.1332 O   0  0  0  0  0  0  0  0  0  0  0  0
    1.5927   -0.6970    0.5227 O   0  0  0  0  0  0  0  0  0  0  0  0
    2.5326    0.3106    0.2372 N   0  0  0  0  0  0  0  0  0  0  0  0
    3.7529   -0.1124    0.3887 C   0  0  0  0  0  0  0  0  0  0  0  0
    4.0658   -1.4048    0.7506 N   0  0  0  0  0  0  0  0  0  0  0  0
    4.8673    0.8593    0.1364 C   0  0  0  0  0  0  0  0  0  0  0  0
    4.6273    2.0139   -0.6194 C   0  0  0  0  0  0  0  0  0  0  0  0
    5.6605    2.9201   -0.8660 C   0  0  0  0  0  0  0  0  0  0  0  0
    6.9348    2.6810   -0.3544 C   0  0  0  0  0  0  0  0  0  0  0  0
    7.1782    1.5393    0.4088 C   0  0  0  0  0  0  0  0  0  0  0  0
    6.1476    0.6294    0.6570 C   0  0  0  0  0  0  0  0  0  0  0  0
   -2.8352   -1.4157   -0.5524 C   0  0  0  0  0  0  0  0  0  0  0  0
   -4.1891   -1.0897   -0.7104 C   0  0  0  0  0  0  0  0  0  0  0  0
   -4.9678   -1.5107   -1.7617 O   0  0  0  0  0  0  0  0  0  0  0  0
   -4.3107   -2.1230   -2.8614 C   0  0  0  0  0  0  0  0  0  0  0  0
   -6.8544    0.4713    1.9329 H   0  0  0  0  0  0  0  0  0  0  0  0
   -7.8321    1.0186    0.5675 H   0  0  0  0  0  0  0  0  0  0  0  0
   -6.3153    1.8592    0.9089 H   0  0  0  0  0  0  0  0  0  0  0  0
   -4.5628    0.7917    2.1245 H   0  0  0  0  0  0  0  0  0  0  0  0
   -2.2127    0.2272    2.3691 H   0  0  0  0  0  0  0  0  0  0  0  0
   -0.4678   -1.5545    1.7808 H   0  0  0  0  0  0  0  0  0  0  0  0
   -0.4252   -2.2112    0.1400 H   0  0  0  0  0  0  0  0  0  0  0  0
    3.2746   -2.0302    0.6495 H   0  0  0  0  0  0  0  0  0  0  0  0
    4.9011   -1.7819    0.3150 H   0  0  0  0  0  0  0  0  0  0  0  0
    3.6352    2.2142   -1.0198 H   0  0  0  0  0  0  0  0  0  0  0  0
    5.4672    3.8137   -1.4537 H   0  0  0  0  0  0  0  0  0  0  0  0
    7.7366    3.3904   -0.5438 H   0  0  0  0  0  0  0  0  0  0  0  0
    8.1696    1.3625    0.8181 H   0  0  0  0  0  0  0  0  0  0  0  0
    6.3502   -0.2379    1.2783 H   0  0  0  0  0  0  0  0  0  0  0  0
   -2.3246   -2.0320   -1.2851 H   0  0  0  0  0  0  0  0  0  0  0  0
   -5.0572   -2.2976   -3.6427 H   0  0  0  0  0  0  0  0  0  0  0  0
   -3.5385   -1.4688   -3.2804 H   0  0  0  0  0  0  0  0  0  0  0  0
   -3.8950   -3.0952   -2.5778 H   0  0  0  0  0  0  0  0  0  0  0  0
  1  2  1  0
  2  3  1  0
  3  4  2  0
  4  5  1  0
  5  6  2  0
  6  7  1  0
  7  8  1  0
  8  9  2  0
  8 10  1  0
 10 11  1  0
 11 12  2  3
 12 13  1  0
 12 14  1  0
 14 15  2  0
 15 16  1  0
 16 17  2  0
 17 18  1  0
 18 19  2  0
  6 20  1  0
 20 21  2  0
 21 22  1  0
 22 23  1  0
 21  3  1  0
 19 14  1  0
  1 24  1  0
  1 25  1  0
  1 26  1  0
  4 27  1  0
  5 28  1  0
  7 29  1  0
  7 30  1  0
 13 31  1  0
 13 32  1  0
 15 33  1  0
 16 34  1  0
 17 35  1  0
 18 36  1  0
 19 37  1  0
 20 38  1  0
 23 39  1  0
 23 40  1  0
 23 41  1  0
M  END
$$$$
