
     RDKit          3D

 42 44  0  0  0  0  0  0  0  0999 V2000
   -5.2652    1.6926   -1.1673 C   0  0  0  0  0  0  0  0  0  0  0  0
   -4.8902    0.3114   -0.6079 C   0  0  0  0  0  0  0  0  0  0  0  0
   -5.5976    0.1276    0.7470 C   0  0  0  0  0  0  0  0  0  0  0  0
   -5.3731   -0.7928   -1.5610 C   0  0  0  0  0  0  0  0  0  0  0  0
   -3.4461    0.2130   -0.3825 N   0  0  0  0  0  0  0  0  0  0  0  0
   -2.4633    0.3240   -1.3517 C   0  0  0  0  0  0  0  0  0  0  0  0
   -2.6955    0.5231   -2.5394 O   0  0  0  0  0  0  0  0  0  0  0  0
   -1.0949    0.1762   -0.8027 C   0  0  0  0  0  0  0  0  0  0  0  0
    0.0445    0.2480   -1.5643 N   0  0  0  0  0  0  0  0  0  0  0  0
    1.0208    0.0690   -0.7073 C   0  0  0  0  0  0  0  0  0  0  0  0
    2.3648    0.0486   -0.9314 N   0  0  0  0  0  0  0  0  0  0  0  0
    3.1390   -0.1414    0.0977 C   0  0  0  0  0  0  0  0  0  0  0  0
    4.6175   -0.1661   -0.1032 C   0  0  0  0  0  0  0  0  0  0  0  0
    5.1178   -0.6542   -1.3177 C   0  0  0  0  0  0  0  0  0  0  0  0
    6.4942   -0.6945   -1.5468 C   0  0  0  0  0  0  0  0  0  0  0  0
    7.3769   -0.2388   -0.5694 C   0  0  0  0  0  0  0  0  0  0  0  0
    6.8858    0.2654    0.6343 C   0  0  0  0  0  0  0  0  0  0  0  0
    5.5087    0.3074    0.8685 C   0  0  0  0  0  0  0  0  0  0  0  0
    2.6417   -0.3680    1.4938 C   0  0  0  0  0  0  0  0  0  0  0  0
    1.3057   -0.3386    1.6648 C   0  0  0  0  0  0  0  0  0  0  0  0
    0.6314   -0.5465    2.9647 C   0  0  0  0  0  0  0  0  0  0  0  0
    1.5316   -0.7603    3.9640 F   0  0  0  0  0  0  0  0  0  0  0  0
   -0.1875   -1.6266    2.9608 F   0  0  0  0  0  0  0  0  0  0  0  0
   -0.1035    0.5264    3.3474 F   0  0  0  0  0  0  0  0  0  0  0  0
    0.4835   -0.1148    0.5698 N   0  0  0  0  0  0  0  0  0  0  0  0
   -0.8674   -0.0445    0.5084 N   0  0  0  0  0  0  0  0  0  0  0  0
   -6.3520    1.8015   -1.2566 H   0  0  0  0  0  0  0  0  0  0  0  0
   -4.8384    1.8613   -2.1612 H   0  0  0  0  0  0  0  0  0  0  0  0
   -4.8989    2.4936   -0.5148 H   0  0  0  0  0  0  0  0  0  0  0  0
   -6.6865    0.1914    0.6432 H   0  0  0  0  0  0  0  0  0  0  0  0
   -5.2823    0.8946    1.4642 H   0  0  0  0  0  0  0  0  0  0  0  0
   -5.3581   -0.8471    1.1883 H   0  0  0  0  0  0  0  0  0  0  0  0
   -6.4639   -0.7764   -1.6652 H   0  0  0  0  0  0  0  0  0  0  0  0
   -5.0848   -1.7841   -1.1923 H   0  0  0  0  0  0  0  0  0  0  0  0
   -4.9486   -0.6823   -2.5641 H   0  0  0  0  0  0  0  0  0  0  0  0
   -3.0981    0.0469    0.5582 H   0  0  0  0  0  0  0  0  0  0  0  0
    4.4393   -1.0059   -2.0931 H   0  0  0  0  0  0  0  0  0  0  0  0
    6.8755   -1.0761   -2.4910 H   0  0  0  0  0  0  0  0  0  0  0  0
    8.4488   -0.2662   -0.7513 H   0  0  0  0  0  0  0  0  0  0  0  0
    7.5779    0.6367    1.3866 H   0  0  0  0  0  0  0  0  0  0  0  0
    5.1580    0.7385    1.8013 H   0  0  0  0  0  0  0  0  0  0  0  0
    3.3324   -0.5720    2.3025 H   0  0  0  0  0  0  0  0  0  0  0  0
  1  2  1  0
  2  3  1  0
  2  4  1  0
  2  5  1  0
  5  6  1  0
  6  7  2  0
  6  8  1  0
  8  9  1  0
  9 10  2  0
 10 11  1  0
 11 12  2  0
 12 13  1  0
 13 14  2  0
 14 15  1  0
 15 16  2  0
 16 17  1  0
 17 18  2  0
 12 19  1  0
 19 20  2  0
 20 21  1  0
 21 22  1  0
 21 23  1  0
 21 24  1  0
 20 25  1  0
 25 26  1  0
 26  8  2  0
 25 10  1  0
 18 13  1  0
  1 27  1  0
  1 28  1  0
  1 29  1  0
  3 30  1  0
  3 31  1  0
  3 32  1  0
  4 33  1  0
  4 34  1  0
  4 35  1  0
  5 36  1  0
 14 37  1  0
 15 38  1  0
 16 39  1  0
 17 40  1  0
 18 41  1  0
 19 42  1  0
M  END
$$$$
