
     RDKit          3D

 46 48  0  0  0  0  0  0  0  0999 V2000
   -6.2166    1.6768   -2.4818 C   0  0  0  0  0  0  0  0  0  0  0  0
   -5.7447    1.8711   -1.0926 C   0  0  0  0  0  0  0  0  0  0  0  0
   -6.4427    2.7717   -0.3459 O   0  0  0  0  0  0  0  0  0  0  0  0
   -5.8681    2.8040    0.8798 C   0  0  0  0  0  0  0  0  0  0  0  0
   -4.8045    1.9354    0.9332 C   0  0  0  0  0  0  0  0  0  0  0  0
   -4.7076    1.3200   -0.3534 C   0  0  0  0  0  0  0  0  0  0  0  0
   -3.7718    0.3220   -0.8564 C   0  0  0  0  0  0  0  0  0  0  0  0
   -3.8893   -0.2001   -1.9605 O   0  0  0  0  0  0  0  0  0  0  0  0
   -2.7367    0.0177   -0.0028 N   0  0  0  0  0  0  0  0  0  0  0  0
   -1.6706   -0.8566   -0.4253 C   0  0  0  0  0  0  0  0  0  0  0  0
   -0.7911   -1.2196    0.7407 C   0  0  0  0  0  0  0  0  0  0  0  0
   -1.1464   -2.2710    1.5953 C   0  0  0  0  0  0  0  0  0  0  0  0
   -0.3442   -2.5949    2.6892 C   0  0  0  0  0  0  0  0  0  0  0  0
    0.8169   -1.8658    2.9466 C   0  0  0  0  0  0  0  0  0  0  0  0
    1.1818   -0.7977    2.1170 C   0  0  0  0  0  0  0  0  0  0  0  0
    2.4440   -0.0157    2.3768 C   0  0  0  0  0  0  0  0  0  0  0  0
    3.5064   -0.4524    1.5020 N   0  0  0  0  0  0  0  0  0  0  0  0
    3.8192    0.2316    0.3484 C   0  0  0  0  0  0  0  0  0  0  0  0
    3.2912    1.2977    0.0474 O   0  0  0  0  0  0  0  0  0  0  0  0
    4.8164   -0.4150   -0.4965 C   0  0  0  0  0  0  0  0  0  0  0  0
    5.6091   -1.5831   -0.2716 C   0  0  0  0  0  0  0  0  0  0  0  0
    6.3922   -1.7541   -1.3881 C   0  0  0  0  0  0  0  0  0  0  0  0
    6.1464   -0.7758   -2.2910 O   0  0  0  0  0  0  0  0  0  0  0  0
    5.1956    0.0374   -1.7527 C   0  0  0  0  0  0  0  0  0  0  0  0
    4.7797    1.1873   -2.5866 C   0  0  0  0  0  0  0  0  0  0  0  0
    0.3704   -0.4831    1.0152 C   0  0  0  0  0  0  0  0  0  0  0  0
   -5.4140    1.8934   -3.1935 H   0  0  0  0  0  0  0  0  0  0  0  0
   -6.5478    0.6449   -2.6327 H   0  0  0  0  0  0  0  0  0  0  0  0
   -7.0579    2.3383   -2.7120 H   0  0  0  0  0  0  0  0  0  0  0  0
   -6.3233    3.4784    1.5918 H   0  0  0  0  0  0  0  0  0  0  0  0
   -4.1861    1.7656    1.8024 H   0  0  0  0  0  0  0  0  0  0  0  0
   -2.5707    0.6040    0.8009 H   0  0  0  0  0  0  0  0  0  0  0  0
   -1.0949   -0.3435   -1.2047 H   0  0  0  0  0  0  0  0  0  0  0  0
   -2.0949   -1.7576   -0.8841 H   0  0  0  0  0  0  0  0  0  0  0  0
   -2.0527   -2.8443    1.4091 H   0  0  0  0  0  0  0  0  0  0  0  0
   -0.6257   -3.4177    3.3419 H   0  0  0  0  0  0  0  0  0  0  0  0
    1.4315   -2.1359    3.8024 H   0  0  0  0  0  0  0  0  0  0  0  0
    2.2542    1.0574    2.2617 H   0  0  0  0  0  0  0  0  0  0  0  0
    2.7875   -0.1744    3.4050 H   0  0  0  0  0  0  0  0  0  0  0  0
    3.8343   -1.3988    1.6129 H   0  0  0  0  0  0  0  0  0  0  0  0
    5.6227   -2.2251    0.5967 H   0  0  0  0  0  0  0  0  0  0  0  0
    7.1377   -2.4815   -1.6784 H   0  0  0  0  0  0  0  0  0  0  0  0
    5.2926    1.1830   -3.5537 H   0  0  0  0  0  0  0  0  0  0  0  0
    3.7026    1.1535   -2.7771 H   0  0  0  0  0  0  0  0  0  0  0  0
    5.0161    2.1300   -2.0838 H   0  0  0  0  0  0  0  0  0  0  0  0
    0.6539    0.3427    0.3620 H   0  0  0  0  0  0  0  0  0  0  0  0
  1  2  1  0
  2  3  1  0
  3  4  1  0
  4  5  2  0
  5  6  1  0
  6  7  1  0
  7  8  2  0
  7  9  1  0
  9 10  1  0
 10 11  1  0
 11 12  2  0
 12 13  1  0
 13 14  2  0
 14 15  1  0
 15 16  1  0
 16 17  1  0
 17 18  1  0
 18 19  2  0
 18 20  1  0
 20 21  1  0
 21 22  2  0
 22 23  1  0
 23 24  1  0
 24 25  1  0
 15 26  2  0
  6  2  2  0
 26 11  1  0
 24 20  2  0
  1 27  1  0
  1 28  1  0
  1 29  1  0
  4 30  1  0
  5 31  1  0
  9 32  1  0
 10 33  1  0
 10 34  1  0
 12 35  1  0
 13 36  1  0
 14 37  1  0
 16 38  1  0
 16 39  1  0
 17 40  1  0
 21 41  1  0
 22 42  1  0
 25 43  1  0
 25 44  1  0
 25 45  1  0
 26 46  1  0
M  END
$$$$
