
     RDKit          3D

 51 54  0  0  0  0  0  0  0  0999 V2000
   -5.4893   -3.3403   -2.5240 C   0  0  0  0  0  0  0  0  0  0  0  0
   -4.1488   -3.0110   -2.8665 O   0  0  0  0  0  0  0  0  0  0  0  0
   -3.5508   -2.0153   -2.1446 C   0  0  0  0  0  0  0  0  0  0  0  0
   -4.1180   -1.3286   -1.0677 C   0  0  0  0  0  0  0  0  0  0  0  0
   -3.3915   -0.3304   -0.4105 C   0  0  0  0  0  0  0  0  0  0  0  0
   -2.0904   -0.0346   -0.8245 C   0  0  0  0  0  0  0  0  0  0  0  0
   -1.3224    1.0339   -0.1491 C   0  0  0  0  0  0  0  0  0  0  0  0
   -1.1787    2.1485   -0.7925 N   0  0  0  0  0  0  0  0  0  0  0  0
   -0.4658    3.1870   -0.1878 C   0  0  0  0  0  0  0  0  0  0  0  0
   -0.2941    4.3835   -0.8885 C   0  0  0  0  0  0  0  0  0  0  0  0
    0.4087    5.4492   -0.3191 C   0  0  0  0  0  0  0  0  0  0  0  0
    0.9468    5.3255    0.9612 C   0  0  0  0  0  0  0  0  0  0  0  0
    0.7811    4.1362    1.6697 C   0  0  0  0  0  0  0  0  0  0  0  0
    0.0747    3.0753    1.0885 C   0  0  0  0  0  0  0  0  0  0  0  0
   -0.1130    1.8031    1.8047 C   0  0  0  0  0  0  0  0  0  0  0  0
    0.3264    1.6950    2.9477 O   0  0  0  0  0  0  0  0  0  0  0  0
   -0.8038    0.7978    1.1229 N   0  0  0  0  0  0  0  0  0  0  0  0
   -0.8415   -0.5222    1.7777 C   0  0  0  0  0  0  0  0  0  0  0  0
    0.2668   -1.4595    1.2765 C   0  0  0  0  0  0  0  0  0  0  0  0
    1.5363   -0.9231    1.6441 O   0  0  0  0  0  0  0  0  0  0  0  0
    2.6445   -1.4714    1.0569 C   0  0  0  0  0  0  0  0  0  0  0  0
    2.6745   -2.7218    0.4325 C   0  0  0  0  0  0  0  0  0  0  0  0
    3.8592   -3.1984   -0.1336 C   0  0  0  0  0  0  0  0  0  0  0  0
    5.0199   -2.4324   -0.0741 C   0  0  0  0  0  0  0  0  0  0  0  0
    5.0009   -1.1895    0.5571 C   0  0  0  0  0  0  0  0  0  0  0  0
    3.8187   -0.7014    1.1329 C   0  0  0  0  0  0  0  0  0  0  0  0
    3.8111    0.6450    1.8038 C   0  0  0  0  0  0  0  0  0  0  0  0
   -1.5263   -0.6924   -1.9174 C   0  0  0  0  0  0  0  0  0  0  0  0
   -2.2564   -1.6894   -2.5658 C   0  0  0  0  0  0  0  0  0  0  0  0
   -6.1544   -2.4808   -2.6585 H   0  0  0  0  0  0  0  0  0  0  0  0
   -5.5500   -3.7323   -1.5034 H   0  0  0  0  0  0  0  0  0  0  0  0
   -5.8237   -4.1297   -3.2041 H   0  0  0  0  0  0  0  0  0  0  0  0
   -5.1242   -1.5399   -0.7209 H   0  0  0  0  0  0  0  0  0  0  0  0
   -3.8436    0.2168    0.4130 H   0  0  0  0  0  0  0  0  0  0  0  0
   -0.7135    4.4816   -1.8866 H   0  0  0  0  0  0  0  0  0  0  0  0
    0.5346    6.3738   -0.8769 H   0  0  0  0  0  0  0  0  0  0  0  0
    1.4944    6.1527    1.4059 H   0  0  0  0  0  0  0  0  0  0  0  0
    1.2008    4.0339    2.6678 H   0  0  0  0  0  0  0  0  0  0  0  0
   -1.8139   -0.9907    1.6099 H   0  0  0  0  0  0  0  0  0  0  0  0
   -0.7382   -0.3935    2.8611 H   0  0  0  0  0  0  0  0  0  0  0  0
    0.1381   -2.4380    1.7535 H   0  0  0  0  0  0  0  0  0  0  0  0
    0.2001   -1.5723    0.1899 H   0  0  0  0  0  0  0  0  0  0  0  0
    1.7951   -3.3545    0.3810 H   0  0  0  0  0  0  0  0  0  0  0  0
    3.8762   -4.1714   -0.6177 H   0  0  0  0  0  0  0  0  0  0  0  0
    5.9415   -2.8036   -0.5147 H   0  0  0  0  0  0  0  0  0  0  0  0
    5.9152   -0.6022    0.5996 H   0  0  0  0  0  0  0  0  0  0  0  0
    4.8151    1.0808    1.8393 H   0  0  0  0  0  0  0  0  0  0  0  0
    3.4552    0.5561    2.8354 H   0  0  0  0  0  0  0  0  0  0  0  0
    3.1651    1.3366    1.2537 H   0  0  0  0  0  0  0  0  0  0  0  0
   -0.5295   -0.4314   -2.2644 H   0  0  0  0  0  0  0  0  0  0  0  0
   -1.8196   -2.2106   -3.4147 H   0  0  0  0  0  0  0  0  0  0  0  0
  1  2  1  0
  2  3  1  0
  3  4  2  0
  4  5  1  0
  5  6  2  0
  6  7  1  0
  7  8  2  0
  8  9  1  0
  9 10  2  0
 10 11  1  0
 11 12  2  0
 12 13  1  0
 13 14  2  0
 14 15  1  0
 15 16  2  0
 15 17  1  0
 17 18  1  0
 18 19  1  0
 19 20  1  0
 20 21  1  0
 21 22  2  0
 22 23  1  0
 23 24  2  0
 24 25  1  0
 25 26  2  0
 26 27  1  0
  6 28  1  0
 28 29  2  0
 29  3  1  0
 17  7  1  0
 26 21  1  0
 14  9  1  0
  1 30  1  0
  1 31  1  0
  1 32  1  0
  4 33  1  0
  5 34  1  0
 10 35  1  0
 11 36  1  0
 12 37  1  0
 13 38  1  0
 18 39  1  0
 18 40  1  0
 19 41  1  0
 19 42  1  0
 22 43  1  0
 23 44  1  0
 24 45  1  0
 25 46  1  0
 27 47  1  0
 27 48  1  0
 27 49  1  0
 28 50  1  0
 29 51  1  0
M  END
$$$$
