
     RDKit          3D

 39 41  0  0  0  0  0  0  0  0999 V2000
    0.4855    0.7808    2.1153 O   0  0  0  0  0  0  0  0  0  0  0  0
    0.0861    0.2708    1.0709 C   0  0  0  0  0  0  0  0  0  0  0  0
    0.9263   -0.2716    0.1215 N   0  0  0  0  0  0  0  0  0  0  0  0
    2.3763   -0.1892    0.2427 C   0  0  0  0  0  0  0  0  0  0  0  0
    2.8810    1.1769   -0.2411 C   0  0  0  0  0  0  0  0  0  0  0  0
    4.4041    1.2662   -0.1892 C   0  0  0  0  0  0  0  0  0  0  0  0
    5.0626    0.1260   -0.9598 C   0  0  0  0  0  0  0  0  0  0  0  0
    4.5645   -1.2352   -0.4835 C   0  0  0  0  0  0  0  0  0  0  0  0
    3.0421   -1.3271   -0.5397 C   0  0  0  0  0  0  0  0  0  0  0  0
   -1.3806    0.1847    0.8275 C   0  0  0  0  0  0  0  0  0  0  0  0
   -1.9085    0.0676   -0.4669 C   0  0  0  0  0  0  0  0  0  0  0  0
   -3.2967   -0.0295   -0.6742 C   0  0  0  0  0  0  0  0  0  0  0  0
   -3.8365   -0.1543   -1.9650 C   0  0  0  0  0  0  0  0  0  0  0  0
   -5.2158   -0.2528   -2.1562 C   0  0  0  0  0  0  0  0  0  0  0  0
   -6.0739   -0.2262   -1.0611 C   0  0  0  0  0  0  0  0  0  0  0  0
   -5.5553   -0.0987    0.2280 C   0  0  0  0  0  0  0  0  0  0  0  0
   -4.1708    0.0018    0.4374 C   0  0  0  0  0  0  0  0  0  0  0  0
   -3.6385    0.1425    1.7266 C   0  0  0  0  0  0  0  0  0  0  0  0
   -2.2614    0.2443    1.9160 C   0  0  0  0  0  0  0  0  0  0  0  0
   -1.8421    0.4032    3.2117 O   0  0  0  0  0  0  0  0  0  0  0  0
    0.5460   -0.7434   -0.6862 H   0  0  0  0  0  0  0  0  0  0  0  0
    2.6299   -0.2988    1.3053 H   0  0  0  0  0  0  0  0  0  0  0  0
    2.4498    1.9791    0.3698 H   0  0  0  0  0  0  0  0  0  0  0  0
    2.5407    1.3553   -1.2696 H   0  0  0  0  0  0  0  0  0  0  0  0
    4.7310    2.2271   -0.6024 H   0  0  0  0  0  0  0  0  0  0  0  0
    4.7349    1.2389    0.8563 H   0  0  0  0  0  0  0  0  0  0  0  0
    4.8491    0.2382   -2.0300 H   0  0  0  0  0  0  0  0  0  0  0  0
    6.1507    0.1821   -0.8435 H   0  0  0  0  0  0  0  0  0  0  0  0
    4.9028   -1.4085    0.5455 H   0  0  0  0  0  0  0  0  0  0  0  0
    5.0046   -2.0256   -1.1018 H   0  0  0  0  0  0  0  0  0  0  0  0
    2.7183   -2.2953   -0.1385 H   0  0  0  0  0  0  0  0  0  0  0  0
    2.7159   -1.3016   -1.5878 H   0  0  0  0  0  0  0  0  0  0  0  0
   -1.2529    0.0774   -1.3324 H   0  0  0  0  0  0  0  0  0  0  0  0
   -3.1861   -0.1766   -2.8367 H   0  0  0  0  0  0  0  0  0  0  0  0
   -5.6199   -0.3496   -3.1607 H   0  0  0  0  0  0  0  0  0  0  0  0
   -7.1482   -0.3020   -1.2085 H   0  0  0  0  0  0  0  0  0  0  0  0
   -6.2421   -0.0756    1.0717 H   0  0  0  0  0  0  0  0  0  0  0  0
   -4.2919    0.1823    2.5952 H   0  0  0  0  0  0  0  0  0  0  0  0
   -0.8812    0.6165    3.1917 H   0  0  0  0  0  0  0  0  0  0  0  0
  1  2  2  0
  2  3  1  0
  3  4  1  0
  4  5  1  0
  5  6  1  0
  6  7  1  0
  7  8  1  0
  8  9  1  0
  2 10  1  0
 10 11  2  0
 11 12  1  0
 12 13  2  0
 13 14  1  0
 14 15  2  0
 15 16  1  0
 16 17  2  0
 17 18  1  0
 18 19  2  0
 19 20  1  0
  9  4  1  0
 19 10  1  0
 17 12  1  0
  3 21  1  0
  4 22  1  0
  5 23  1  0
  5 24  1  0
  6 25  1  0
  6 26  1  0
  7 27  1  0
  7 28  1  0
  8 29  1  0
  8 30  1  0
  9 31  1  0
  9 32  1  0
 11 33  1  0
 13 34  1  0
 14 35  1  0
 15 36  1  0
 16 37  1  0
 18 38  1  0
 20 39  1  0
M  END
$$$$
