
     RDKit          3D

 38 40  0  0  0  0  0  0  0  0999 V2000
   -6.0405   -0.4142   -0.0204 C   0  0  0  0  0  0  0  0  0  0  0  0
   -4.6060   -0.7068   -0.3480 C   0  0  0  0  0  0  0  0  0  0  0  0
   -4.1231   -0.4872   -1.6431 C   0  0  0  0  0  0  0  0  0  0  0  0
   -2.7902   -0.7622   -1.9613 C   0  0  0  0  0  0  0  0  0  0  0  0
   -1.9138   -1.2638   -0.9874 C   0  0  0  0  0  0  0  0  0  0  0  0
   -0.4693   -1.5527   -1.3213 C   0  0  0  0  0  0  0  0  0  0  0  0
    0.3107   -0.3565   -0.8807 C   0  0  0  0  0  0  0  0  0  0  0  0
    0.4449    0.8768   -1.5844 C   0  0  0  0  0  0  0  0  0  0  0  0
    1.2518    1.7058   -0.8406 C   0  0  0  0  0  0  0  0  0  0  0  0
    1.6592    2.9491   -1.0622 O   0  0  0  0  0  0  0  0  0  0  0  0
    1.6199    1.0236    0.2970 N   0  0  0  0  0  0  0  0  0  0  0  0
    2.3936    1.6033    1.3867 C   0  0  0  0  0  0  0  0  0  0  0  0
    3.7491    1.0035    1.4390 C   0  0  0  0  0  0  0  0  0  0  0  0
    4.9341    1.2711    0.7839 C   0  0  0  0  0  0  0  0  0  0  0  0
    5.8725    0.3246    1.2582 C   0  0  0  0  0  0  0  0  0  0  0  0
    5.2025   -0.4599    2.1669 C   0  0  0  0  0  0  0  0  0  0  0  0
    3.9088   -0.0607    2.2787 O   0  0  0  0  0  0  0  0  0  0  0  0
    1.0828   -0.2489    0.2648 C   0  0  0  0  0  0  0  0  0  0  0  0
    1.2972   -1.1672    1.2067 O   0  0  0  0  0  0  0  0  0  0  0  0
   -2.4031   -1.4851    0.3078 C   0  0  0  0  0  0  0  0  0  0  0  0
   -3.7365   -1.2121    0.6243 C   0  0  0  0  0  0  0  0  0  0  0  0
   -6.3037    0.6000   -0.3379 H   0  0  0  0  0  0  0  0  0  0  0  0
   -6.2265   -0.4809    1.0573 H   0  0  0  0  0  0  0  0  0  0  0  0
   -6.6948   -1.1315   -0.5260 H   0  0  0  0  0  0  0  0  0  0  0  0
   -4.7826   -0.0900   -2.4113 H   0  0  0  0  0  0  0  0  0  0  0  0
   -2.4358   -0.5733   -2.9715 H   0  0  0  0  0  0  0  0  0  0  0  0
   -0.1363   -2.4684   -0.8173 H   0  0  0  0  0  0  0  0  0  0  0  0
   -0.3430   -1.7173   -2.3989 H   0  0  0  0  0  0  0  0  0  0  0  0
   -0.0184    1.1193   -2.5331 H   0  0  0  0  0  0  0  0  0  0  0  0
    1.2565    3.2327   -1.9045 H   0  0  0  0  0  0  0  0  0  0  0  0
    1.8378    1.4202    2.3134 H   0  0  0  0  0  0  0  0  0  0  0  0
    2.4540    2.6855    1.2526 H   0  0  0  0  0  0  0  0  0  0  0  0
    5.0933    2.0495    0.0477 H   0  0  0  0  0  0  0  0  0  0  0  0
    6.9096    0.2263    0.9732 H   0  0  0  0  0  0  0  0  0  0  0  0
    5.4913   -1.2989    2.7867 H   0  0  0  0  0  0  0  0  0  0  0  0
    2.0727   -0.9183    1.7466 H   0  0  0  0  0  0  0  0  0  0  0  0
   -1.7361   -1.8558    1.0836 H   0  0  0  0  0  0  0  0  0  0  0  0
   -4.0827   -1.3796    1.6412 H   0  0  0  0  0  0  0  0  0  0  0  0
  1  2  1  0
  2  3  2  0
  3  4  1  0
  4  5  2  0
  5  6  1  0
  6  7  1  0
  7  8  1  0
  8  9  2  0
  9 10  1  0
  9 11  1  0
 11 12  1  0
 12 13  1  0
 13 14  2  0
 14 15  1  0
 15 16  2  0
 16 17  1  0
 11 18  1  0
 18 19  1  0
  5 20  1  0
 20 21  2  0
 21  2  1  0
 18  7  2  0
 17 13  1  0
  1 22  1  0
  1 23  1  0
  1 24  1  0
  3 25  1  0
  4 26  1  0
  6 27  1  0
  6 28  1  0
  8 29  1  0
 10 30  1  0
 12 31  1  0
 12 32  1  0
 14 33  1  0
 15 34  1  0
 16 35  1  0
 19 36  1  0
 20 37  1  0
 21 38  1  0
M  END
$$$$
