
     RDKit          3D

 53 54  0  0  0  0  0  0  0  0999 V2000
    3.0301   -3.1291    1.9513 C   0  0  0  0  0  0  0  0  0  0  0  0
    3.5858   -1.9013    2.6677 C   0  0  0  0  0  0  0  0  0  0  0  0
    3.1789   -0.5900    2.1594 N   0  0  0  0  0  0  0  0  0  0  0  0
    3.7094   -0.2971    0.8195 C   0  0  0  0  0  0  0  0  0  0  0  0
    3.3387    1.1329    0.3662 C   0  0  0  0  0  0  0  0  0  0  0  0
    1.8766    1.3631    0.3663 N   0  0  0  0  0  0  0  0  0  0  0  0
    1.5987    2.7821    0.0202 C   0  0  0  0  0  0  0  0  0  0  0  0
    0.1333    2.9848   -0.3930 C   0  0  0  0  0  0  0  0  0  0  0  0
   -0.4262    4.0670   -0.2411 O   0  0  0  0  0  0  0  0  0  0  0  0
   -0.4068    1.8572   -0.9776 N   0  0  0  0  0  0  0  0  0  0  0  0
   -1.6877    1.6713   -1.5236 C   0  0  0  0  0  0  0  0  0  0  0  0
   -2.6307    2.6936   -1.6511 C   0  0  0  0  0  0  0  0  0  0  0  0
   -3.8855    2.4479   -2.2399 C   0  0  0  0  0  0  0  0  0  0  0  0
   -4.9049    3.5562   -2.3520 C   0  0  0  0  0  0  0  0  0  0  0  0
   -5.7153    3.6236   -1.2586 F   0  0  0  0  0  0  0  0  0  0  0  0
   -4.3526    4.7923   -2.4908 F   0  0  0  0  0  0  0  0  0  0  0  0
   -5.7368    3.4025   -3.4213 F   0  0  0  0  0  0  0  0  0  0  0  0
   -4.1905    1.1539   -2.6920 C   0  0  0  0  0  0  0  0  0  0  0  0
   -3.2587    0.1253   -2.5671 C   0  0  0  0  0  0  0  0  0  0  0  0
   -2.0259    0.3829   -1.9682 C   0  0  0  0  0  0  0  0  0  0  0  0
   -1.1178   -0.6441   -1.8695 O   0  0  0  0  0  0  0  0  0  0  0  0
   -1.3465   -1.3890   -0.6653 C   0  0  0  0  0  0  0  0  0  0  0  0
   -0.4298   -2.6121   -0.6674 C   0  0  0  0  0  0  0  0  0  0  0  0
   -0.4490   -3.3223    0.5703 O   0  0  0  0  0  0  0  0  0  0  0  0
   -1.6409   -4.0653    0.7779 C   0  0  0  0  0  0  0  0  0  0  0  0
    1.3527    1.0491    1.7212 C   0  0  0  0  0  0  0  0  0  0  0  0
    1.7235   -0.3809    2.1777 C   0  0  0  0  0  0  0  0  0  0  0  0
    1.9462   -3.2048    2.0735 H   0  0  0  0  0  0  0  0  0  0  0  0
    3.4692   -4.0366    2.3816 H   0  0  0  0  0  0  0  0  0  0  0  0
    3.2672   -3.1283    0.8833 H   0  0  0  0  0  0  0  0  0  0  0  0
    3.3034   -1.9674    3.7254 H   0  0  0  0  0  0  0  0  0  0  0  0
    4.6819   -1.9546    2.6635 H   0  0  0  0  0  0  0  0  0  0  0  0
    3.3315   -1.0125    0.0776 H   0  0  0  0  0  0  0  0  0  0  0  0
    4.8025   -0.3786    0.8297 H   0  0  0  0  0  0  0  0  0  0  0  0
    3.8430    1.8590    1.0190 H   0  0  0  0  0  0  0  0  0  0  0  0
    3.7275    1.2808   -0.6483 H   0  0  0  0  0  0  0  0  0  0  0  0
    2.1970    3.0867   -0.8481 H   0  0  0  0  0  0  0  0  0  0  0  0
    1.8358    3.4558    0.8548 H   0  0  0  0  0  0  0  0  0  0  0  0
    0.2078    1.0436   -0.9634 H   0  0  0  0  0  0  0  0  0  0  0  0
   -2.4105    3.7014   -1.3082 H   0  0  0  0  0  0  0  0  0  0  0  0
   -5.1556    0.9477   -3.1520 H   0  0  0  0  0  0  0  0  0  0  0  0
   -3.4921   -0.8698   -2.9364 H   0  0  0  0  0  0  0  0  0  0  0  0
   -2.3918   -1.7113   -0.6031 H   0  0  0  0  0  0  0  0  0  0  0  0
   -1.1315   -0.7697    0.2154 H   0  0  0  0  0  0  0  0  0  0  0  0
   -0.6752   -3.2836   -1.4987 H   0  0  0  0  0  0  0  0  0  0  0  0
    0.6037   -2.2852   -0.8362 H   0  0  0  0  0  0  0  0  0  0  0  0
   -2.4905   -3.3959    0.9330 H   0  0  0  0  0  0  0  0  0  0  0  0
   -1.5115   -4.6678    1.6812 H   0  0  0  0  0  0  0  0  0  0  0  0
   -1.8352   -4.7359   -0.0633 H   0  0  0  0  0  0  0  0  0  0  0  0
    0.2607    1.1347    1.7257 H   0  0  0  0  0  0  0  0  0  0  0  0
    1.7386    1.7669    2.4579 H   0  0  0  0  0  0  0  0  0  0  0  0
    1.3408   -0.5298    3.1937 H   0  0  0  0  0  0  0  0  0  0  0  0
    1.2149   -1.0993    1.5234 H   0  0  0  0  0  0  0  0  0  0  0  0
  1  2  1  0
  2  3  1  0
  3  4  1  0
  4  5  1  0
  5  6  1  0
  6  7  1  0
  7  8  1  0
  8  9  2  0
  8 10  1  0
 10 11  1  0
 11 12  2  0
 12 13  1  0
 13 14  1  0
 14 15  1  0
 14 16  1  0
 14 17  1  0
 13 18  2  0
 18 19  1  0
 19 20  2  0
 20 21  1  0
 21 22  1  0
 22 23  1  0
 23 24  1  0
 24 25  1  0
  6 26  1  0
 26 27  1  0
 27  3  1  0
 20 11  1  0
  1 28  1  0
  1 29  1  0
  1 30  1  0
  2 31  1  0
  2 32  1  0
  4 33  1  0
  4 34  1  0
  5 35  1  0
  5 36  1  0
  7 37  1  0
  7 38  1  0
 10 39  1  0
 12 40  1  0
 18 41  1  0
 19 42  1  0
 22 43  1  0
 22 44  1  0
 23 45  1  0
 23 46  1  0
 25 47  1  0
 25 48  1  0
 25 49  1  0
 26 50  1  0
 26 51  1  0
 27 52  1  0
 27 53  1  0
M  END
$$$$
