
     RDKit          3D

 47 51  0  0  0  0  0  0  0  0999 V2000
   -5.7152   -2.2751   -1.4202 C   0  0  0  0  0  0  0  0  0  0  0  0
   -5.3778   -1.1367   -0.5274 C   0  0  0  0  0  0  0  0  0  0  0  0
   -4.1031   -0.6644   -0.2380 C   0  0  0  0  0  0  0  0  0  0  0  0
   -2.7871   -1.1003   -0.6830 C   0  0  0  0  0  0  0  0  0  0  0  0
   -2.6341   -2.0433   -1.4522 O   0  0  0  0  0  0  0  0  0  0  0  0
   -1.7678   -0.3359   -0.1408 N   0  0  0  0  0  0  0  0  0  0  0  0
   -0.3789   -0.4548   -0.3370 C   0  0  0  0  0  0  0  0  0  0  0  0
    0.2092   -1.4155   -1.1567 C   0  0  0  0  0  0  0  0  0  0  0  0
    1.6024   -1.4782   -1.3087 C   0  0  0  0  0  0  0  0  0  0  0  0
    2.4265   -0.5637   -0.6275 C   0  0  0  0  0  0  0  0  0  0  0  0
    3.8059   -0.5103   -0.6847 N   0  0  0  0  0  0  0  0  0  0  0  0
    4.2842    0.4528    0.0745 C   0  0  0  0  0  0  0  0  0  0  0  0
    5.6241    0.7296    0.1771 N   0  0  0  0  0  0  0  0  0  0  0  0
    6.5260   -0.2634   -0.4465 C   0  0  0  0  0  0  0  0  0  0  0  0
    7.9539    0.2898   -0.5443 C   0  0  0  0  0  0  0  0  0  0  0  0
    8.4441    0.7106    0.7377 O   0  0  0  0  0  0  0  0  0  0  0  0
    7.6031    1.7472    1.2621 C   0  0  0  0  0  0  0  0  0  0  0  0
    6.1550    1.2661    1.4446 C   0  0  0  0  0  0  0  0  0  0  0  0
    3.0544    1.3666    0.8852 S   0  0  0  0  0  0  0  0  0  0  0  0
    1.8283    0.3902    0.1873 C   0  0  0  0  0  0  0  0  0  0  0  0
    0.4325    0.4642    0.3473 C   0  0  0  0  0  0  0  0  0  0  0  0
   -4.1830    0.3996    0.6246 O   0  0  0  0  0  0  0  0  0  0  0  0
   -5.4988    0.6105    0.8883 C   0  0  0  0  0  0  0  0  0  0  0  0
   -6.0017    1.6047    1.7248 C   0  0  0  0  0  0  0  0  0  0  0  0
   -7.3917    1.6578    1.8668 C   0  0  0  0  0  0  0  0  0  0  0  0
   -8.2192    0.7535    1.1976 C   0  0  0  0  0  0  0  0  0  0  0  0
   -7.6810   -0.2363    0.3622 C   0  0  0  0  0  0  0  0  0  0  0  0
   -6.2837   -0.3084    0.2044 C   0  0  0  0  0  0  0  0  0  0  0  0
   -5.3542   -2.0854   -2.4361 H   0  0  0  0  0  0  0  0  0  0  0  0
   -5.2561   -3.1988   -1.0536 H   0  0  0  0  0  0  0  0  0  0  0  0
   -6.7959   -2.4379   -1.4747 H   0  0  0  0  0  0  0  0  0  0  0  0
   -2.0869    0.4033    0.4774 H   0  0  0  0  0  0  0  0  0  0  0  0
   -0.3834   -2.1431   -1.7032 H   0  0  0  0  0  0  0  0  0  0  0  0
    2.0514   -2.2299   -1.9506 H   0  0  0  0  0  0  0  0  0  0  0  0
    6.1922   -0.5238   -1.4581 H   0  0  0  0  0  0  0  0  0  0  0  0
    6.5298   -1.1749    0.1648 H   0  0  0  0  0  0  0  0  0  0  0  0
    8.6281   -0.4869   -0.9188 H   0  0  0  0  0  0  0  0  0  0  0  0
    8.0014    1.1362   -1.2401 H   0  0  0  0  0  0  0  0  0  0  0  0
    8.0162    2.0521    2.2289 H   0  0  0  0  0  0  0  0  0  0  0  0
    7.6468    2.6153    0.5932 H   0  0  0  0  0  0  0  0  0  0  0  0
    5.5689    2.1170    1.8068 H   0  0  0  0  0  0  0  0  0  0  0  0
    6.1269    0.4756    2.2051 H   0  0  0  0  0  0  0  0  0  0  0  0
    0.0050    1.2255    0.9924 H   0  0  0  0  0  0  0  0  0  0  0  0
   -5.3462    2.2984    2.2366 H   0  0  0  0  0  0  0  0  0  0  0  0
   -7.8347    2.4163    2.5091 H   0  0  0  0  0  0  0  0  0  0  0  0
   -9.2981    0.8161    1.3249 H   0  0  0  0  0  0  0  0  0  0  0  0
   -8.3375   -0.9322   -0.1515 H   0  0  0  0  0  0  0  0  0  0  0  0
  1  2  1  0
  2  3  2  0
  3  4  1  0
  4  5  2  0
  4  6  1  0
  6  7  1  0
  7  8  2  0
  8  9  1  0
  9 10  2  0
 10 11  1  0
 11 12  2  0
 12 13  1  0
 13 14  1  0
 14 15  1  0
 15 16  1  0
 16 17  1  0
 17 18  1  0
 12 19  1  0
 19 20  1  0
 20 21  2  0
  3 22  1  0
 22 23  1  0
 23 24  2  0
 24 25  1  0
 25 26  2  0
 26 27  1  0
 27 28  2  0
 28  2  1  0
 21  7  1  0
 28 23  1  0
 20 10  1  0
 18 13  1  0
  1 29  1  0
  1 30  1  0
  1 31  1  0
  6 32  1  0
  8 33  1  0
  9 34  1  0
 14 35  1  0
 14 36  1  0
 15 37  1  0
 15 38  1  0
 17 39  1  0
 17 40  1  0
 18 41  1  0
 18 42  1  0
 21 43  1  0
 24 44  1  0
 25 45  1  0
 26 46  1  0
 27 47  1  0
M  END
$$$$
