
     RDKit          3D

 55 58  0  0  0  0  0  0  0  0999 V2000
    7.6661    1.3634    0.5319 C   0  0  0  0  0  0  0  0  0  0  0  0
    6.2795    1.4164    0.2196 O   0  0  0  0  0  0  0  0  0  0  0  0
    5.4324    0.6437    0.9694 C   0  0  0  0  0  0  0  0  0  0  0  0
    5.8375   -0.2015    2.0086 C   0  0  0  0  0  0  0  0  0  0  0  0
    4.9011   -0.9690    2.7067 C   0  0  0  0  0  0  0  0  0  0  0  0
    3.5530   -0.9037    2.3711 C   0  0  0  0  0  0  0  0  0  0  0  0
    3.1378   -0.0641    1.3403 C   0  0  0  0  0  0  0  0  0  0  0  0
    4.0674    0.7254    0.6379 C   0  0  0  0  0  0  0  0  0  0  0  0
    3.5695    1.6039   -0.4862 C   0  0  0  0  0  0  0  0  0  0  0  0
    3.3697    0.8197   -1.6997 N   0  0  0  0  0  0  0  0  0  0  0  0
    2.2551    1.3424   -2.8225 S   0  0  0  0  0  6  0  0  0  0  0  0
    2.2522    2.7886   -2.8128 O   0  0  0  0  0  0  0  0  0  0  0  0
    2.4873    0.5857   -4.0319 O   0  0  0  0  0  0  0  0  0  0  0  0
    0.7328    0.7624   -2.1159 C   0  0  0  0  0  0  0  0  0  0  0  0
    0.5375   -0.6213   -1.9636 C   0  0  0  0  0  0  0  0  0  0  0  0
   -0.6442   -1.1063   -1.3927 C   0  0  0  0  0  0  0  0  0  0  0  0
   -1.6048   -0.1965   -0.9793 C   0  0  0  0  0  0  0  0  0  0  0  0
   -1.4062    1.1778   -1.1524 C   0  0  0  0  0  0  0  0  0  0  0  0
   -0.2454    1.6793   -1.7224 C   0  0  0  0  0  0  0  0  0  0  0  0
   -2.6192    1.9511   -0.7388 C   0  0  0  0  0  0  0  0  0  0  0  0
   -3.4140    0.8831    0.0427 C   0  0  0  0  0  0  0  0  0  0  0  0
   -3.2326    1.0927    1.5521 C   0  0  0  0  0  0  0  0  0  0  0  0
   -2.8633   -0.4296   -0.3822 N   0  0  0  0  0  0  0  0  0  0  0  0
   -3.4563   -1.6787   -0.2101 C   0  0  0  0  0  0  0  0  0  0  0  0
   -2.8653   -2.7393   -0.4489 O   0  0  0  0  0  0  0  0  0  0  0  0
   -4.9376   -1.6774    0.2703 C   0  0  0  0  0  0  0  0  0  0  0  0
   -6.0311   -1.4276   -0.8088 C   0  0  0  0  0  0  0  0  0  0  0  0
   -6.9203   -2.4308   -0.0524 C   0  0  0  0  0  0  0  0  0  0  0  0
   -5.6245   -3.0591    0.4909 C   0  0  0  0  0  0  0  0  0  0  0  0
    8.0672    0.3564    0.3767 H   0  0  0  0  0  0  0  0  0  0  0  0
    7.8548    1.7140    1.5518 H   0  0  0  0  0  0  0  0  0  0  0  0
    8.1883    2.0381   -0.1532 H   0  0  0  0  0  0  0  0  0  0  0  0
    6.8787   -0.2926    2.2999 H   0  0  0  0  0  0  0  0  0  0  0  0
    5.2283   -1.6250    3.5097 H   0  0  0  0  0  0  0  0  0  0  0  0
    2.8261   -1.5091    2.9066 H   0  0  0  0  0  0  0  0  0  0  0  0
    2.0821   -0.0298    1.0769 H   0  0  0  0  0  0  0  0  0  0  0  0
    2.6334    2.0743   -0.1623 H   0  0  0  0  0  0  0  0  0  0  0  0
    4.2700    2.4200   -0.6920 H   0  0  0  0  0  0  0  0  0  0  0  0
    4.1748    0.3314   -2.0862 H   0  0  0  0  0  0  0  0  0  0  0  0
    1.3039   -1.3227   -2.2882 H   0  0  0  0  0  0  0  0  0  0  0  0
   -0.7791   -2.1768   -1.2801 H   0  0  0  0  0  0  0  0  0  0  0  0
   -0.1100    2.7474   -1.8661 H   0  0  0  0  0  0  0  0  0  0  0  0
   -2.3735    2.8320   -0.1387 H   0  0  0  0  0  0  0  0  0  0  0  0
   -3.1707    2.2597   -1.6339 H   0  0  0  0  0  0  0  0  0  0  0  0
   -4.4790    0.9419   -0.2023 H   0  0  0  0  0  0  0  0  0  0  0  0
   -2.1737    1.0717    1.8344 H   0  0  0  0  0  0  0  0  0  0  0  0
   -3.6447    2.0606    1.8566 H   0  0  0  0  0  0  0  0  0  0  0  0
   -3.7334    0.3168    2.1364 H   0  0  0  0  0  0  0  0  0  0  0  0
   -5.0886   -1.0485    1.1562 H   0  0  0  0  0  0  0  0  0  0  0  0
   -6.4236   -0.4089   -0.8643 H   0  0  0  0  0  0  0  0  0  0  0  0
   -5.7508   -1.7551   -1.8168 H   0  0  0  0  0  0  0  0  0  0  0  0
   -7.5411   -3.0803   -0.6742 H   0  0  0  0  0  0  0  0  0  0  0  0
   -7.5454   -1.9704    0.7211 H   0  0  0  0  0  0  0  0  0  0  0  0
   -5.6697   -3.4043    1.5273 H   0  0  0  0  0  0  0  0  0  0  0  0
   -5.2383   -3.8713   -0.1359 H   0  0  0  0  0  0  0  0  0  0  0  0
  1  2  1  0
  2  3  1  0
  3  4  2  0
  4  5  1  0
  5  6  2  0
  6  7  1  0
  7  8  2  0
  8  9  1  0
  9 10  1  0
 10 11  1  0
 11 12  2  0
 11 13  2  0
 11 14  1  0
 14 15  2  0
 15 16  1  0
 16 17  2  0
 17 18  1  0
 18 19  2  0
 18 20  1  0
 20 21  1  0
 21 22  1  0
 21 23  1  0
 23 24  1  0
 24 25  2  0
 24 26  1  0
 26 27  1  0
 27 28  1  0
 28 29  1  0
  8  3  1  0
 19 14  1  0
 29 26  1  0
 23 17  1  0
  1 30  1  0
  1 31  1  0
  1 32  1  0
  4 33  1  0
  5 34  1  0
  6 35  1  0
  7 36  1  0
  9 37  1  0
  9 38  1  0
 10 39  1  0
 15 40  1  0
 16 41  1  0
 19 42  1  0
 20 43  1  0
 20 44  1  0
 21 45  1  0
 22 46  1  0
 22 47  1  0
 22 48  1  0
 26 49  1  0
 27 50  1  0
 27 51  1  0
 28 52  1  0
 28 53  1  0
 29 54  1  0
 29 55  1  0
M  END
$$$$
