
     RDKit          3D

 41 42  0  0  0  0  0  0  0  0999 V2000
   -0.5313    0.9852    1.8555 O   0  0  0  0  0  0  0  0  0  0  0  0
   -0.8481    1.2640    0.4827 C   0  0  0  0  0  0  0  0  0  0  0  0
    0.3461    2.0152   -0.1242 C   0  0  0  0  0  0  0  0  0  0  0  0
    1.5059    1.1787   -0.0418 O   0  0  0  0  0  0  0  0  0  0  0  0
    2.6617    1.8252   -0.5749 C   0  0  0  0  0  0  0  0  0  0  0  0
    3.8487    0.8946   -0.5115 C   0  0  0  0  0  0  0  0  0  0  0  0
    5.1372    1.4172   -0.3195 C   0  0  0  0  0  0  0  0  0  0  0  0
    6.2505    0.5732   -0.2899 C   0  0  0  0  0  0  0  0  0  0  0  0
    6.0844   -0.7987   -0.4617 C   0  0  0  0  0  0  0  0  0  0  0  0
    7.4561   -1.8376   -0.4239 Cl  0  0  0  0  0  0  0  0  0  0  0  0
    4.8151   -1.3348   -0.6641 C   0  0  0  0  0  0  0  0  0  0  0  0
    3.7029   -0.4898   -0.6955 C   0  0  0  0  0  0  0  0  0  0  0  0
   -1.1319   -0.0515   -0.2908 C   0  0  0  0  0  0  0  0  0  0  0  0
   -2.3997   -0.7489   -0.0106 N   0  0  0  0  0  0  0  0  0  0  0  0
   -2.5939   -1.0917    1.3952 C   0  0  0  0  0  0  0  0  0  0  0  0
   -3.7099   -2.1350    1.5310 C   0  0  0  0  0  0  0  0  0  0  0  0
   -4.8698   -1.9126    0.5579 C   0  0  0  0  0  0  0  0  0  0  0  0
   -4.8996   -0.4755    0.0580 C   0  0  0  0  0  0  0  0  0  0  0  0
   -3.5680   -0.0817   -0.5974 C   0  0  0  0  0  0  0  0  0  0  0  0
    0.3340    0.5326    1.8343 H   0  0  0  0  0  0  0  0  0  0  0  0
   -1.7219    1.9226    0.4720 H   0  0  0  0  0  0  0  0  0  0  0  0
    0.1483    2.2777   -1.1698 H   0  0  0  0  0  0  0  0  0  0  0  0
    0.5347    2.9292    0.4512 H   0  0  0  0  0  0  0  0  0  0  0  0
    2.4857    2.1054   -1.6197 H   0  0  0  0  0  0  0  0  0  0  0  0
    2.8620    2.7267    0.0154 H   0  0  0  0  0  0  0  0  0  0  0  0
    5.2832    2.4877   -0.1896 H   0  0  0  0  0  0  0  0  0  0  0  0
    7.2413    0.9913   -0.1344 H   0  0  0  0  0  0  0  0  0  0  0  0
    4.6823   -2.4045   -0.8005 H   0  0  0  0  0  0  0  0  0  0  0  0
    2.7161   -0.9186   -0.8603 H   0  0  0  0  0  0  0  0  0  0  0  0
   -0.3239   -0.7654   -0.0832 H   0  0  0  0  0  0  0  0  0  0  0  0
   -1.0870    0.1449   -1.3697 H   0  0  0  0  0  0  0  0  0  0  0  0
   -2.8473   -0.2034    1.9879 H   0  0  0  0  0  0  0  0  0  0  0  0
   -1.6806   -1.5202    1.8258 H   0  0  0  0  0  0  0  0  0  0  0  0
   -3.3049   -3.1422    1.3744 H   0  0  0  0  0  0  0  0  0  0  0  0
   -4.0856   -2.1107    2.5608 H   0  0  0  0  0  0  0  0  0  0  0  0
   -4.7598   -2.5877   -0.3005 H   0  0  0  0  0  0  0  0  0  0  0  0
   -5.8192   -2.1721    1.0391 H   0  0  0  0  0  0  0  0  0  0  0  0
   -5.1035    0.1931    0.9045 H   0  0  0  0  0  0  0  0  0  0  0  0
   -5.7177   -0.3433   -0.6586 H   0  0  0  0  0  0  0  0  0  0  0  0
   -3.4867    1.0100   -0.5516 H   0  0  0  0  0  0  0  0  0  0  0  0
   -3.6057   -0.3486   -1.6603 H   0  0  0  0  0  0  0  0  0  0  0  0
  1  2  1  0
  2  3  1  0
  3  4  1  0
  4  5  1  0
  5  6  1  0
  6  7  2  0
  7  8  1  0
  8  9  2  0
  9 10  1  0
  9 11  1  0
 11 12  2  0
  2 13  1  0
 13 14  1  0
 14 15  1  0
 15 16  1  0
 16 17  1  0
 17 18  1  0
 18 19  1  0
 12  6  1  0
 19 14  1  0
  1 20  1  0
  2 21  1  0
  3 22  1  0
  3 23  1  0
  5 24  1  0
  5 25  1  0
  7 26  1  0
  8 27  1  0
 11 28  1  0
 12 29  1  0
 13 30  1  0
 13 31  1  0
 15 32  1  0
 15 33  1  0
 16 34  1  0
 16 35  1  0
 17 36  1  0
 17 37  1  0
 18 38  1  0
 18 39  1  0
 19 40  1  0
 19 41  1  0
M  END
$$$$
