
     RDKit          3D

 50 52  0  0  0  0  0  0  0  0999 V2000
   -3.6693    0.7508   -4.4119 O   0  0  0  0  0  0  0  0  0  0  0  0
   -3.5409    1.0802   -3.2358 C   0  0  0  0  0  0  0  0  0  0  0  0
   -2.4119    1.9949   -2.7588 C   0  0  0  0  0  0  0  0  0  0  0  0
   -1.2711    1.2767   -2.2845 O   0  0  0  0  0  0  0  0  0  0  0  0
   -1.3954    0.7488   -1.0440 C   0  0  0  0  0  0  0  0  0  0  0  0
   -2.3838    0.8357   -0.3310 O   0  0  0  0  0  0  0  0  0  0  0  0
   -0.1529    0.0341   -0.6443 C   0  0  0  0  0  0  0  0  0  0  0  0
   -0.0873   -0.5016    0.6510 C   0  0  0  0  0  0  0  0  0  0  0  0
    1.0544   -1.1854    1.0761 C   0  0  0  0  0  0  0  0  0  0  0  0
    2.1416   -1.3207    0.2076 C   0  0  0  0  0  0  0  0  0  0  0  0
    3.5852   -2.2277    0.7364 S   0  0  0  0  0  6  0  0  0  0  0  0
    3.1624   -3.1230    1.7925 O   0  0  0  0  0  0  0  0  0  0  0  0
    4.2389   -2.7279   -0.4543 O   0  0  0  0  0  0  0  0  0  0  0  0
    4.5635   -1.0224    1.4176 N   0  0  0  0  0  0  0  0  0  0  0  0
    5.2408   -0.0688    0.5077 C   0  0  0  0  0  0  0  0  0  0  0  0
    4.8915    1.3713    0.8602 C   0  0  0  0  0  0  0  0  0  0  0  0
    5.2905    1.7173    2.2938 C   0  0  0  0  0  0  0  0  0  0  0  0
    5.2096    0.5130    3.2311 C   0  0  0  0  0  0  0  0  0  0  0  0
    4.1817   -0.5049    2.7510 C   0  0  0  0  0  0  0  0  0  0  0  0
    2.0773   -0.8151   -1.0946 C   0  0  0  0  0  0  0  0  0  0  0  0
    0.9332   -0.1311   -1.5168 C   0  0  0  0  0  0  0  0  0  0  0  0
   -4.3864    0.6581   -2.2367 N   0  0  0  0  0  0  0  0  0  0  0  0
   -5.4268   -0.3025   -2.5143 C   0  0  0  0  0  0  0  0  0  0  0  0
   -6.1998   -0.5467   -1.2746 C   0  0  0  0  0  0  0  0  0  0  0  0
   -6.0481   -1.4288   -0.2240 C   0  0  0  0  0  0  0  0  0  0  0  0
   -7.1108   -1.1679    0.6738 C   0  0  0  0  0  0  0  0  0  0  0  0
   -7.8416   -0.1458    0.1153 C   0  0  0  0  0  0  0  0  0  0  0  0
   -7.2964    0.2387   -1.0669 O   0  0  0  0  0  0  0  0  0  0  0  0
   -2.0897    2.6026   -3.6113 H   0  0  0  0  0  0  0  0  0  0  0  0
   -2.7806    2.6957   -1.9997 H   0  0  0  0  0  0  0  0  0  0  0  0
   -0.9299   -0.3960    1.3330 H   0  0  0  0  0  0  0  0  0  0  0  0
    1.0851   -1.6125    2.0767 H   0  0  0  0  0  0  0  0  0  0  0  0
    6.3221   -0.2295    0.5913 H   0  0  0  0  0  0  0  0  0  0  0  0
    4.9773   -0.2537   -0.5375 H   0  0  0  0  0  0  0  0  0  0  0  0
    5.3799    2.0629    0.1647 H   0  0  0  0  0  0  0  0  0  0  0  0
    3.8105    1.5211    0.7426 H   0  0  0  0  0  0  0  0  0  0  0  0
    4.6406    2.5217    2.6587 H   0  0  0  0  0  0  0  0  0  0  0  0
    6.3126    2.1146    2.3139 H   0  0  0  0  0  0  0  0  0  0  0  0
    6.1957    0.0335    3.2839 H   0  0  0  0  0  0  0  0  0  0  0  0
    4.9695    0.8492    4.2459 H   0  0  0  0  0  0  0  0  0  0  0  0
    4.1501   -1.3336    3.4663 H   0  0  0  0  0  0  0  0  0  0  0  0
    3.1908   -0.0411    2.7142 H   0  0  0  0  0  0  0  0  0  0  0  0
    2.9044   -0.9572   -1.7876 H   0  0  0  0  0  0  0  0  0  0  0  0
    0.8988    0.2551   -2.5336 H   0  0  0  0  0  0  0  0  0  0  0  0
   -4.0540    0.7435   -1.2760 H   0  0  0  0  0  0  0  0  0  0  0  0
   -4.9579   -1.2268   -2.8690 H   0  0  0  0  0  0  0  0  0  0  0  0
   -6.0635    0.0842   -3.3173 H   0  0  0  0  0  0  0  0  0  0  0  0
   -5.2627   -2.1648   -0.1189 H   0  0  0  0  0  0  0  0  0  0  0  0
   -7.3187   -1.6620    1.6121 H   0  0  0  0  0  0  0  0  0  0  0  0
   -8.7281    0.3938    0.4175 H   0  0  0  0  0  0  0  0  0  0  0  0
  1  2  2  0
  2  3  1  0
  3  4  1  0
  4  5  1  0
  5  6  2  0
  5  7  1  0
  7  8  2  0
  8  9  1  0
  9 10  2  0
 10 11  1  0
 11 12  2  0
 11 13  2  0
 11 14  1  0
 14 15  1  0
 15 16  1  0
 16 17  1  0
 17 18  1  0
 18 19  1  0
 10 20  1  0
 20 21  2  0
  2 22  1  0
 22 23  1  0
 23 24  1  0
 24 25  2  0
 25 26  1  0
 26 27  2  0
 27 28  1  0
 21  7  1  0
 28 24  1  0
 19 14  1  0
  3 29  1  0
  3 30  1  0
  8 31  1  0
  9 32  1  0
 15 33  1  0
 15 34  1  0
 16 35  1  0
 16 36  1  0
 17 37  1  0
 17 38  1  0
 18 39  1  0
 18 40  1  0
 19 41  1  0
 19 42  1  0
 20 43  1  0
 21 44  1  0
 22 45  1  0
 23 46  1  0
 23 47  1  0
 25 48  1  0
 26 49  1  0
 27 50  1  0
M  END
$$$$
