
     RDKit          3D

 53 56  0  0  0  0  0  0  0  0999 V2000
   -0.6073   -2.2106   -3.4041 C   0  0  0  0  0  0  0  0  0  0  0  0
   -1.0063   -2.7019   -2.0371 C   0  0  0  0  0  0  0  0  0  0  0  0
   -0.5240   -3.7256   -1.5532 O   0  0  0  0  0  0  0  0  0  0  0  0
   -2.0060   -1.8983   -1.2926 C   0  0  0  0  0  0  0  0  0  0  0  0
   -1.5775   -0.9586   -0.4196 C   0  0  0  0  0  0  0  0  0  0  0  0
   -0.2530   -0.6941   -0.0848 N   0  0  0  0  0  0  0  0  0  0  0  0
    0.4776    0.4138   -0.7391 C   0  0  0  0  0  0  0  0  0  0  0  0
    1.8696    0.6218   -0.1072 C   0  0  0  0  0  0  0  0  0  0  0  0
    2.7504   -0.5635   -0.2160 N   0  0  0  0  0  0  0  0  0  0  0  0
    3.8419   -0.5209    0.7704 C   0  0  0  0  0  0  0  0  0  0  0  0
    4.7795    0.6535    0.5818 C   0  0  0  0  0  0  0  0  0  0  0  0
    4.9567    1.5994    1.6017 C   0  0  0  0  0  0  0  0  0  0  0  0
    5.8283    2.6758    1.4249 C   0  0  0  0  0  0  0  0  0  0  0  0
    6.5319    2.8167    0.2299 C   0  0  0  0  0  0  0  0  0  0  0  0
    6.3660    1.8820   -0.7901 C   0  0  0  0  0  0  0  0  0  0  0  0
    5.4959    0.8052   -0.6151 C   0  0  0  0  0  0  0  0  0  0  0  0
    1.9782   -1.8245   -0.1128 C   0  0  0  0  0  0  0  0  0  0  0  0
    0.6076   -1.6966    0.5856 C   0  0  0  0  0  0  0  0  0  0  0  0
   -2.5259   -0.1754    0.1875 N   0  0  0  0  0  0  0  0  0  0  0  0
   -3.8703   -0.3766    0.0358 C   0  0  0  0  0  0  0  0  0  0  0  0
   -4.8382    0.4389    0.8353 C   0  0  0  0  0  0  0  0  0  0  0  0
   -6.1331   -0.0491    1.0530 C   0  0  0  0  0  0  0  0  0  0  0  0
   -7.0481    0.6931    1.8019 C   0  0  0  0  0  0  0  0  0  0  0  0
   -6.6769    1.9280    2.3312 C   0  0  0  0  0  0  0  0  0  0  0  0
   -5.3934    2.4258    2.1083 C   0  0  0  0  0  0  0  0  0  0  0  0
   -4.4738    1.6857    1.3601 C   0  0  0  0  0  0  0  0  0  0  0  0
   -4.3442   -1.2668   -0.7837 N   0  0  0  0  0  0  0  0  0  0  0  0
   -3.4831   -2.0404   -1.5433 C   0  0  0  0  0  0  0  0  0  0  0  0
   -4.1287   -3.0977   -2.7013 S   0  0  0  0  0  0  0  0  0  0  0  0
   -0.8600   -2.9689   -4.1495 H   0  0  0  0  0  0  0  0  0  0  0  0
   -1.1265   -1.2820   -3.6578 H   0  0  0  0  0  0  0  0  0  0  0  0
    0.4687   -2.0184   -3.4158 H   0  0  0  0  0  0  0  0  0  0  0  0
   -0.0998    1.3406   -0.6393 H   0  0  0  0  0  0  0  0  0  0  0  0
    0.5836    0.2027   -1.8102 H   0  0  0  0  0  0  0  0  0  0  0  0
    1.7221    0.8949    0.9468 H   0  0  0  0  0  0  0  0  0  0  0  0
    2.3487    1.4743   -0.6022 H   0  0  0  0  0  0  0  0  0  0  0  0
    4.4590   -1.4250    0.6798 H   0  0  0  0  0  0  0  0  0  0  0  0
    3.4372   -0.5265    1.7912 H   0  0  0  0  0  0  0  0  0  0  0  0
    4.4177    1.5042    2.5411 H   0  0  0  0  0  0  0  0  0  0  0  0
    5.9604    3.4042    2.2207 H   0  0  0  0  0  0  0  0  0  0  0  0
    7.2107    3.6544    0.0937 H   0  0  0  0  0  0  0  0  0  0  0  0
    6.9136    1.9902   -1.7226 H   0  0  0  0  0  0  0  0  0  0  0  0
    5.3681    0.0820   -1.4183 H   0  0  0  0  0  0  0  0  0  0  0  0
    1.8129   -2.1737   -1.1392 H   0  0  0  0  0  0  0  0  0  0  0  0
    2.5616   -2.6146    0.3756 H   0  0  0  0  0  0  0  0  0  0  0  0
    0.7551   -1.3785    1.6254 H   0  0  0  0  0  0  0  0  0  0  0  0
    0.1197   -2.6755    0.6350 H   0  0  0  0  0  0  0  0  0  0  0  0
   -2.1628    0.3659    0.9601 H   0  0  0  0  0  0  0  0  0  0  0  0
   -6.4354   -1.0108    0.6431 H   0  0  0  0  0  0  0  0  0  0  0  0
   -8.0509    0.3071    1.9682 H   0  0  0  0  0  0  0  0  0  0  0  0
   -7.3921    2.5064    2.9110 H   0  0  0  0  0  0  0  0  0  0  0  0
   -5.1127    3.3961    2.5108 H   0  0  0  0  0  0  0  0  0  0  0  0
   -3.4926    2.1116    1.1768 H   0  0  0  0  0  0  0  0  0  0  0  0
  1  2  1  0
  2  3  2  0
  2  4  1  0
  4  5  2  0
  5  6  1  0
  6  7  1  0
  7  8  1  0
  8  9  1  0
  9 10  1  0
 10 11  1  0
 11 12  2  0
 12 13  1  0
 13 14  2  0
 14 15  1  0
 15 16  2  0
  9 17  1  0
 17 18  1  0
  5 19  1  0
 19 20  1  0
 20 21  1  0
 21 22  2  0
 22 23  1  0
 23 24  2  0
 24 25  1  0
 25 26  2  0
 20 27  2  0
 27 28  1  0
 28 29  2  0
 28  4  1  0
 18  6  1  0
 26 21  1  0
 16 11  1  0
  1 30  1  0
  1 31  1  0
  1 32  1  0
  7 33  1  0
  7 34  1  0
  8 35  1  0
  8 36  1  0
 10 37  1  0
 10 38  1  0
 12 39  1  0
 13 40  1  0
 14 41  1  0
 15 42  1  0
 16 43  1  0
 17 44  1  0
 17 45  1  0
 18 46  1  0
 18 47  1  0
 19 48  1  0
 22 49  1  0
 23 50  1  0
 24 51  1  0
 25 52  1  0
 26 53  1  0
M  END
$$$$
