
     RDKit          3D

 37 38  0  0  0  0  0  0  0  0999 V2000
   -4.1529   -0.3657   -2.1719 C   0  0  0  0  0  0  0  0  0  0  0  0
   -3.4978   -0.1075   -0.8901 N   0  0  0  0  0  0  0  0  0  0  0  0
   -2.1911    0.3752   -0.8771 C   0  0  0  0  0  0  0  0  0  0  0  0
   -1.5564    0.6240   -2.0914 N   0  0  0  0  0  0  0  0  0  0  0  0
   -1.5764    0.5823    0.3096 C   0  0  0  0  0  0  0  0  0  0  0  0
   -0.1632    1.0841    0.3520 C   0  0  0  0  0  0  0  0  0  0  0  0
    0.2581    1.8284   -0.5415 O   0  0  0  0  0  0  0  0  0  0  0  0
    0.7361    0.6224    1.5020 C   0  0  0  0  0  0  0  0  0  0  0  0
    2.1219    0.6295    1.1551 O   0  0  0  0  0  0  0  0  0  0  0  0
    2.4759   -0.3355    0.2671 C   0  0  0  0  0  0  0  0  0  0  0  0
    1.7194   -1.1815   -0.1906 O   0  0  0  0  0  0  0  0  0  0  0  0
    3.9240   -0.2344   -0.0861 C   0  0  0  0  0  0  0  0  0  0  0  0
    4.4307   -1.0817   -1.0674 C   0  0  0  0  0  0  0  0  0  0  0  0
    5.7813   -0.9874   -1.3920 C   0  0  0  0  0  0  0  0  0  0  0  0
    6.5770   -0.0578   -0.7307 C   0  0  0  0  0  0  0  0  0  0  0  0
    5.9899    0.7444    0.2350 C   0  0  0  0  0  0  0  0  0  0  0  0
    4.6856    0.6778    0.5754 N   0  0  0  0  0  0  0  0  0  0  0  0
   -2.3078    0.3214    1.5661 C   0  0  0  0  0  0  0  0  0  0  0  0
   -1.8032    0.6383    2.6430 O   0  0  0  0  0  0  0  0  0  0  0  0
   -3.5537   -0.2505    1.4600 N   0  0  0  0  0  0  0  0  0  0  0  0
   -4.2858   -0.5399    2.6798 C   0  0  0  0  0  0  0  0  0  0  0  0
   -4.2235   -0.4090    0.2597 C   0  0  0  0  0  0  0  0  0  0  0  0
   -5.3967   -0.7857    0.2238 O   0  0  0  0  0  0  0  0  0  0  0  0
   -3.5152   -1.0067   -2.7896 H   0  0  0  0  0  0  0  0  0  0  0  0
   -4.3325    0.5880   -2.6785 H   0  0  0  0  0  0  0  0  0  0  0  0
   -5.1145   -0.8730   -2.0556 H   0  0  0  0  0  0  0  0  0  0  0  0
   -2.1594    1.1074   -2.7496 H   0  0  0  0  0  0  0  0  0  0  0  0
   -0.6910    1.1687   -1.9713 H   0  0  0  0  0  0  0  0  0  0  0  0
    0.6157    1.3289    2.3290 H   0  0  0  0  0  0  0  0  0  0  0  0
    0.4536   -0.3770    1.8516 H   0  0  0  0  0  0  0  0  0  0  0  0
    3.7891   -1.7982   -1.5709 H   0  0  0  0  0  0  0  0  0  0  0  0
    6.2081   -1.6327   -2.1550 H   0  0  0  0  0  0  0  0  0  0  0  0
    7.6321    0.0404   -0.9627 H   0  0  0  0  0  0  0  0  0  0  0  0
    6.5723    1.4848    0.7767 H   0  0  0  0  0  0  0  0  0  0  0  0
   -4.9139   -1.4266    2.5491 H   0  0  0  0  0  0  0  0  0  0  0  0
   -4.9277    0.3169    2.9081 H   0  0  0  0  0  0  0  0  0  0  0  0
   -3.6082   -0.7120    3.5210 H   0  0  0  0  0  0  0  0  0  0  0  0
  1  2  1  0
  2  3  1  0
  3  4  1  0
  3  5  2  0
  5  6  1  0
  6  7  2  0
  6  8  1  0
  8  9  1  0
  9 10  1  0
 10 11  2  0
 10 12  1  0
 12 13  2  0
 13 14  1  0
 14 15  2  0
 15 16  1  0
 16 17  2  0
  5 18  1  0
 18 19  2  0
 18 20  1  0
 20 21  1  0
 20 22  1  0
 22 23  2  0
 22  2  1  0
 17 12  1  0
  1 24  1  0
  1 25  1  0
  1 26  1  0
  4 27  1  0
  4 28  1  0
  8 29  1  0
  8 30  1  0
 13 31  1  0
 14 32  1  0
 15 33  1  0
 16 34  1  0
 21 35  1  0
 21 36  1  0
 21 37  1  0
M  END
$$$$
