
     RDKit          3D

 57 58  0  0  0  0  0  0  0  0999 V2000
    5.6683   -0.5488    0.5390 C   0  0  0  0  0  0  0  0  0  0  0  0
    6.3716    0.7792    0.5886 C   0  0  0  0  0  0  0  0  0  0  0  0
    7.7209    0.8670    0.2150 C   0  0  0  0  0  0  0  0  0  0  0  0
    8.3884    2.0909    0.2522 C   0  0  0  0  0  0  0  0  0  0  0  0
    7.7154    3.2370    0.6678 C   0  0  0  0  0  0  0  0  0  0  0  0
    6.3695    3.1651    1.0324 C   0  0  0  0  0  0  0  0  0  0  0  0
    5.6882    1.9463    0.9712 C   0  0  0  0  0  0  0  0  0  0  0  0
    4.3730    1.7997    1.3263 O   0  0  0  0  0  0  0  0  0  0  0  0
    3.4664    2.8172    0.8875 C   0  0  0  0  0  0  0  0  0  0  0  0
    3.1910    2.7346   -0.6080 C   0  0  0  0  0  0  0  0  0  0  0  0
    2.4934    1.4527   -0.9747 C   0  0  0  0  0  0  0  0  0  0  0  0
    2.8988    0.6646   -1.8187 O   0  0  0  0  0  0  0  0  0  0  0  0
    1.3222    1.3249   -0.2982 O   0  0  0  0  0  0  0  0  0  0  0  0
    0.6167    0.1095   -0.5743 C   0  0  0  0  0  0  0  0  0  0  0  0
   -0.7103    0.1241    0.1778 C   0  0  0  0  0  0  0  0  0  0  0  0
   -0.9000    0.8482    1.1617 O   0  0  0  0  0  0  0  0  0  0  0  0
   -1.8247   -0.7350   -0.3441 C   0  0  0  0  0  0  0  0  0  0  0  0
   -3.1045   -0.3018   -0.2785 C   0  0  0  0  0  0  0  0  0  0  0  0
   -3.4214    0.9380    0.2715 N   0  0  0  0  0  0  0  0  0  0  0  0
   -4.1211   -1.1087   -0.7921 N   0  0  0  0  0  0  0  0  0  0  0  0
   -5.5258   -0.6662   -0.7282 C   0  0  0  0  0  0  0  0  0  0  0  0
   -6.2148   -0.9898    0.6159 C   0  0  0  0  0  0  0  0  0  0  0  0
   -7.5659   -0.2746    0.6872 C   0  0  0  0  0  0  0  0  0  0  0  0
   -6.4145   -2.4916    0.8250 C   0  0  0  0  0  0  0  0  0  0  0  0
   -3.8862   -2.3283   -1.4319 C   0  0  0  0  0  0  0  0  0  0  0  0
   -4.7981   -3.0310   -1.8728 O   0  0  0  0  0  0  0  0  0  0  0  0
   -2.5638   -2.7179   -1.5390 N   0  0  0  0  0  0  0  0  0  0  0  0
   -2.2912   -3.9969   -2.1703 C   0  0  0  0  0  0  0  0  0  0  0  0
   -1.5234   -2.0506   -0.9397 C   0  0  0  0  0  0  0  0  0  0  0  0
   -0.3809   -2.5010   -0.8717 O   0  0  0  0  0  0  0  0  0  0  0  0
    4.9413   -0.5609   -0.2783 H   0  0  0  0  0  0  0  0  0  0  0  0
    6.3748   -1.3696    0.3754 H   0  0  0  0  0  0  0  0  0  0  0  0
    5.1547   -0.7475    1.4858 H   0  0  0  0  0  0  0  0  0  0  0  0
    8.2610   -0.0221   -0.1039 H   0  0  0  0  0  0  0  0  0  0  0  0
    9.4357    2.1467   -0.0326 H   0  0  0  0  0  0  0  0  0  0  0  0
    8.2410    4.1869    0.7183 H   0  0  0  0  0  0  0  0  0  0  0  0
    5.8856    4.0689    1.3870 H   0  0  0  0  0  0  0  0  0  0  0  0
    2.5400    2.6645    1.4531 H   0  0  0  0  0  0  0  0  0  0  0  0
    3.8122    3.8177    1.1654 H   0  0  0  0  0  0  0  0  0  0  0  0
    4.1232    2.7831   -1.1810 H   0  0  0  0  0  0  0  0  0  0  0  0
    2.5597    3.5685   -0.9327 H   0  0  0  0  0  0  0  0  0  0  0  0
    0.4195    0.0387   -1.6495 H   0  0  0  0  0  0  0  0  0  0  0  0
    1.2155   -0.7332   -0.2152 H   0  0  0  0  0  0  0  0  0  0  0  0
   -2.6562    1.3153    0.8481 H   0  0  0  0  0  0  0  0  0  0  0  0
   -4.2694    0.9209    0.8273 H   0  0  0  0  0  0  0  0  0  0  0  0
   -6.0964   -1.1231   -1.5468 H   0  0  0  0  0  0  0  0  0  0  0  0
   -5.5617    0.4113   -0.9326 H   0  0  0  0  0  0  0  0  0  0  0  0
   -5.5989   -0.6227    1.4451 H   0  0  0  0  0  0  0  0  0  0  0  0
   -8.0579   -0.4655    1.6470 H   0  0  0  0  0  0  0  0  0  0  0  0
   -8.2365   -0.6116   -0.1107 H   0  0  0  0  0  0  0  0  0  0  0  0
   -7.4382    0.8087    0.5894 H   0  0  0  0  0  0  0  0  0  0  0  0
   -6.9991   -2.9331    0.0110 H   0  0  0  0  0  0  0  0  0  0  0  0
   -5.4546   -3.0141    0.8835 H   0  0  0  0  0  0  0  0  0  0  0  0
   -6.9459   -2.6848    1.7635 H   0  0  0  0  0  0  0  0  0  0  0  0
   -2.5099   -4.7910   -1.4491 H   0  0  0  0  0  0  0  0  0  0  0  0
   -1.2461   -4.0759   -2.4826 H   0  0  0  0  0  0  0  0  0  0  0  0
   -2.9305   -4.1328   -3.0484 H   0  0  0  0  0  0  0  0  0  0  0  0
  1  2  1  0
  2  3  2  0
  3  4  1  0
  4  5  2  0
  5  6  1  0
  6  7  2  0
  7  8  1  0
  8  9  1  0
  9 10  1  0
 10 11  1  0
 11 12  2  0
 11 13  1  0
 13 14  1  0
 14 15  1  0
 15 16  2  0
 15 17  1  0
 17 18  2  0
 18 19  1  0
 18 20  1  0
 20 21  1  0
 21 22  1  0
 22 23  1  0
 22 24  1  0
 20 25  1  0
 25 26  2  0
 25 27  1  0
 27 28  1  0
 27 29  1  0
 29 30  2  0
  7  2  1  0
 29 17  1  0
  1 31  1  0
  1 32  1  0
  1 33  1  0
  3 34  1  0
  4 35  1  0
  5 36  1  0
  6 37  1  0
  9 38  1  0
  9 39  1  0
 10 40  1  0
 10 41  1  0
 14 42  1  0
 14 43  1  0
 19 44  1  0
 19 45  1  0
 21 46  1  0
 21 47  1  0
 22 48  1  0
 23 49  1  0
 23 50  1  0
 23 51  1  0
 24 52  1  0
 24 53  1  0
 24 54  1  0
 28 55  1  0
 28 56  1  0
 28 57  1  0
M  END
$$$$
