
     RDKit          3D

 67 69  0  0  0  0  0  0  0  0999 V2000
   -3.1973   -1.2512   -4.6232 C   0  0  0  0  0  0  0  0  0  0  0  0
   -3.2673    0.1274   -3.9467 C   0  0  0  0  0  0  0  0  0  0  0  0
   -4.7017    0.6654   -4.1040 C   0  0  0  0  0  0  0  0  0  0  0  0
   -2.3019    1.1058   -4.6333 C   0  0  0  0  0  0  0  0  0  0  0  0
   -2.9759    0.0334   -2.5084 N   0  0  0  0  0  0  0  0  0  0  0  0
   -1.7855   -0.4379   -1.9683 C   0  0  0  0  0  0  0  0  0  0  0  0
   -0.8834   -0.9101   -2.6566 O   0  0  0  0  0  0  0  0  0  0  0  0
   -1.7034   -0.3141   -0.4172 C   0  0  0  0  0  0  0  0  0  0  0  0
   -2.7459   -1.0998    0.3826 C   0  0  0  0  0  0  0  0  0  0  0  0
   -2.9926   -0.7212    1.7182 C   0  0  0  0  0  0  0  0  0  0  0  0
   -3.9451   -1.3878    2.4906 C   0  0  0  0  0  0  0  0  0  0  0  0
   -4.6672   -2.4321    1.9317 C   0  0  0  0  0  0  0  0  0  0  0  0
   -5.5824   -3.0728    2.6701 F   0  0  0  0  0  0  0  0  0  0  0  0
   -4.4554   -2.8201    0.6153 C   0  0  0  0  0  0  0  0  0  0  0  0
   -3.5013   -2.1548   -0.1588 C   0  0  0  0  0  0  0  0  0  0  0  0
   -0.3102   -0.4369    0.0897 N   0  0  0  0  0  0  0  0  0  0  0  0
    0.3691    0.7722    0.2790 C   0  0  0  0  0  0  0  0  0  0  0  0
   -0.1539    1.8610    0.0286 O   0  0  0  0  0  0  0  0  0  0  0  0
    1.7850    0.7181    0.8278 C   0  0  0  0  0  0  0  0  0  0  0  0
    2.3384    2.1188    1.0779 C   0  0  0  0  0  0  0  0  0  0  0  0
    3.7069    2.0808    1.7289 C   0  0  0  0  0  0  0  0  0  0  0  0
    4.2169    1.0346    2.1136 O   0  0  0  0  0  0  0  0  0  0  0  0
    4.2524    3.3394    1.8299 N   0  0  0  0  0  0  0  0  0  0  0  0
    5.4765    3.7153    2.3810 C   0  0  0  0  0  0  0  0  0  0  0  0
    6.3682    2.8378    2.9810 C   0  0  0  0  0  0  0  0  0  0  0  0
    7.5594    3.3423    3.5016 C   0  0  0  0  0  0  0  0  0  0  0  0
    7.8253    4.7013    3.4058 C   0  0  0  0  0  0  0  0  0  0  0  0
    6.8822    5.5031    2.7892 C   0  0  0  0  0  0  0  0  0  0  0  0
    5.7187    5.0410    2.2800 N   0  0  0  0  0  0  0  0  0  0  0  0
    0.3394   -1.7504    0.2967 C   0  0  0  0  0  0  0  0  0  0  0  0
   -0.0451   -2.9302   -0.6074 C   0  0  0  0  0  0  0  0  0  0  0  0
    0.2232   -4.1562    0.2533 C   0  0  0  0  0  0  0  0  0  0  0  0
   -0.2522   -3.7192    1.6280 C   0  0  0  0  0  0  0  0  0  0  0  0
    0.2130   -2.2714    1.7425 C   0  0  0  0  0  0  0  0  0  0  0  0
   -3.5175   -1.1924   -5.6695 H   0  0  0  0  0  0  0  0  0  0  0  0
   -2.1835   -1.6630   -4.6206 H   0  0  0  0  0  0  0  0  0  0  0  0
   -3.8448   -1.9732   -4.1123 H   0  0  0  0  0  0  0  0  0  0  0  0
   -5.4265    0.0020   -3.6181 H   0  0  0  0  0  0  0  0  0  0  0  0
   -4.9827    0.7583   -5.1591 H   0  0  0  0  0  0  0  0  0  0  0  0
   -4.8062    1.6539   -3.6413 H   0  0  0  0  0  0  0  0  0  0  0  0
   -2.5609    1.2421   -5.6893 H   0  0  0  0  0  0  0  0  0  0  0  0
   -1.2655    0.7544   -4.5928 H   0  0  0  0  0  0  0  0  0  0  0  0
   -2.3315    2.0894   -4.1490 H   0  0  0  0  0  0  0  0  0  0  0  0
   -3.5849    0.5480   -1.8827 H   0  0  0  0  0  0  0  0  0  0  0  0
   -2.0185    0.7274   -0.2563 H   0  0  0  0  0  0  0  0  0  0  0  0
   -2.4302    0.0983    2.1641 H   0  0  0  0  0  0  0  0  0  0  0  0
   -4.1255   -1.0996    3.5209 H   0  0  0  0  0  0  0  0  0  0  0  0
   -5.0340   -3.6383    0.1982 H   0  0  0  0  0  0  0  0  0  0  0  0
   -3.3585   -2.4806   -1.1880 H   0  0  0  0  0  0  0  0  0  0  0  0
    2.4328    0.2124    0.1044 H   0  0  0  0  0  0  0  0  0  0  0  0
    1.7789    0.1519    1.7646 H   0  0  0  0  0  0  0  0  0  0  0  0
    1.6669    2.6796    1.7390 H   0  0  0  0  0  0  0  0  0  0  0  0
    2.4138    2.6642    0.1296 H   0  0  0  0  0  0  0  0  0  0  0  0
    3.7498    4.1317    1.4509 H   0  0  0  0  0  0  0  0  0  0  0  0
    6.1665    1.7766    3.0632 H   0  0  0  0  0  0  0  0  0  0  0  0
    8.2711    2.6742    3.9793 H   0  0  0  0  0  0  0  0  0  0  0  0
    8.7415    5.1248    3.8007 H   0  0  0  0  0  0  0  0  0  0  0  0
    7.0405    6.5729    2.6851 H   0  0  0  0  0  0  0  0  0  0  0  0
    1.4107   -1.6072    0.1198 H   0  0  0  0  0  0  0  0  0  0  0  0
    0.5499   -2.9465   -1.5265 H   0  0  0  0  0  0  0  0  0  0  0  0
   -1.0918   -2.9307   -0.9021 H   0  0  0  0  0  0  0  0  0  0  0  0
    1.2963   -4.3802    0.2735 H   0  0  0  0  0  0  0  0  0  0  0  0
   -0.3065   -5.0419   -0.1090 H   0  0  0  0  0  0  0  0  0  0  0  0
   -1.3455   -3.7672    1.6813 H   0  0  0  0  0  0  0  0  0  0  0  0
    0.1506   -4.3476    2.4275 H   0  0  0  0  0  0  0  0  0  0  0  0
   -0.4595   -1.6826    2.3704 H   0  0  0  0  0  0  0  0  0  0  0  0
    1.1981   -2.2426    2.2249 H   0  0  0  0  0  0  0  0  0  0  0  0
  1  2  1  0
  2  3  1  0
  2  4  1  0
  2  5  1  0
  5  6  1  0
  6  7  2  0
  6  8  1  0
  8  9  1  0
  9 10  2  0
 10 11  1  0
 11 12  2  0
 12 13  1  0
 12 14  1  0
 14 15  2  0
  8 16  1  0
 16 17  1  0
 17 18  2  0
 17 19  1  0
 19 20  1  0
 20 21  1  0
 21 22  2  0
 21 23  1  0
 23 24  1  0
 24 25  2  0
 25 26  1  0
 26 27  2  0
 27 28  1  0
 28 29  2  0
 16 30  1  0
 30 31  1  0
 31 32  1  0
 32 33  1  0
 33 34  1  0
 15  9  1  0
 29 24  1  0
 34 30  1  0
  1 35  1  0
  1 36  1  0
  1 37  1  0
  3 38  1  0
  3 39  1  0
  3 40  1  0
  4 41  1  0
  4 42  1  0
  4 43  1  0
  5 44  1  0
  8 45  1  0
 10 46  1  0
 11 47  1  0
 14 48  1  0
 15 49  1  0
 19 50  1  0
 19 51  1  0
 20 52  1  0
 20 53  1  0
 23 54  1  0
 25 55  1  0
 26 56  1  0
 27 57  1  0
 28 58  1  0
 30 59  1  0
 31 60  1  0
 31 61  1  0
 32 62  1  0
 32 63  1  0
 33 64  1  0
 33 65  1  0
 34 66  1  0
 34 67  1  0
M  END
$$$$
