
     RDKit          3D

 37 39  0  0  0  0  0  0  0  0999 V2000
   -0.3052   -3.0882   -1.8890 C   0  0  0  0  0  0  0  0  0  0  0  0
   -1.0748   -2.3458   -2.8322 O   0  0  0  0  0  0  0  0  0  0  0  0
   -1.4379   -1.0630   -2.4326 C   0  0  0  0  0  0  0  0  0  0  0  0
   -2.4358   -0.4909   -3.2329 C   0  0  0  0  0  0  0  0  0  0  0  0
   -2.9233    0.7863   -2.9734 C   0  0  0  0  0  0  0  0  0  0  0  0
   -2.4285    1.5432   -1.9025 C   0  0  0  0  0  0  0  0  0  0  0  0
   -2.8626    2.7999   -1.5729 O   0  0  0  0  0  0  0  0  0  0  0  0
   -4.1007    3.2198   -2.1342 C   0  0  0  0  0  0  0  0  0  0  0  0
   -1.3984    0.9694   -1.1208 C   0  0  0  0  0  0  0  0  0  0  0  0
   -0.5737    1.6495    0.2325 S   0  0  0  0  0  0  0  0  0  0  0  0
    0.3970    0.2327    0.4032 C   0  0  0  0  0  0  0  0  0  0  0  0
    1.3958    0.1079    1.3389 N   0  0  0  0  0  0  0  0  0  0  0  0
    1.2079    0.7018    2.6676 C   0  0  0  0  0  0  0  0  0  0  0  0
    2.5612    0.8951    3.3514 C   0  0  0  0  0  0  0  0  0  0  0  0
    3.3413   -0.4120    3.4140 C   0  0  0  0  0  0  0  0  0  0  0  0
    3.4740   -1.0213    2.0230 C   0  0  0  0  0  0  0  0  0  0  0  0
    2.1177   -1.1724    1.3368 C   0  0  0  0  0  0  0  0  0  0  0  0
    0.1214   -0.6962   -0.4853 N   0  0  0  0  0  0  0  0  0  0  0  0
   -0.8901   -0.3095   -1.3583 C   0  0  0  0  0  0  0  0  0  0  0  0
    0.7234   -2.7161   -1.8500 H   0  0  0  0  0  0  0  0  0  0  0  0
   -0.7821   -3.1058   -0.9033 H   0  0  0  0  0  0  0  0  0  0  0  0
   -0.2595   -4.1262   -2.2412 H   0  0  0  0  0  0  0  0  0  0  0  0
   -2.8480   -1.0662   -4.0616 H   0  0  0  0  0  0  0  0  0  0  0  0
   -3.6876    1.1782   -3.6375 H   0  0  0  0  0  0  0  0  0  0  0  0
   -3.9848    3.4551   -3.1967 H   0  0  0  0  0  0  0  0  0  0  0  0
   -4.4054    4.1354   -1.6195 H   0  0  0  0  0  0  0  0  0  0  0  0
   -4.8880    2.4753   -1.9764 H   0  0  0  0  0  0  0  0  0  0  0  0
    0.7287    1.6846    2.6248 H   0  0  0  0  0  0  0  0  0  0  0  0
    0.5718    0.0480    3.2802 H   0  0  0  0  0  0  0  0  0  0  0  0
    3.1453    1.6410    2.7969 H   0  0  0  0  0  0  0  0  0  0  0  0
    2.4097    1.2883    4.3624 H   0  0  0  0  0  0  0  0  0  0  0  0
    2.8311   -1.1194    4.0825 H   0  0  0  0  0  0  0  0  0  0  0  0
    4.3373   -0.2281    3.8360 H   0  0  0  0  0  0  0  0  0  0  0  0
    3.9603   -2.0014    2.0939 H   0  0  0  0  0  0  0  0  0  0  0  0
    4.1277   -0.3845    1.4115 H   0  0  0  0  0  0  0  0  0  0  0  0
    1.5225   -1.9413    1.8472 H   0  0  0  0  0  0  0  0  0  0  0  0
    2.3123   -1.5233    0.3175 H   0  0  0  0  0  0  0  0  0  0  0  0
  1  2  1  0
  2  3  1  0
  3  4  2  0
  4  5  1  0
  5  6  2  0
  6  7  1  0
  7  8  1  0
  6  9  1  0
  9 10  1  0
 10 11  1  0
 11 12  1  0
 12 13  1  0
 13 14  1  0
 14 15  1  0
 15 16  1  0
 16 17  1  0
 11 18  2  0
 18 19  1  0
 19  3  1  0
 19  9  2  0
 17 12  1  0
  1 20  1  0
  1 21  1  0
  1 22  1  0
  4 23  1  0
  5 24  1  0
  8 25  1  0
  8 26  1  0
  8 27  1  0
 13 28  1  0
 13 29  1  0
 14 30  1  0
 14 31  1  0
 15 32  1  0
 15 33  1  0
 16 34  1  0
 16 35  1  0
 17 36  1  0
 17 37  1  0
M  END
$$$$
