
     RDKit          3D

 45 47  0  0  0  0  0  0  0  0999 V2000
   -7.4199    1.7401    0.7844 N   0  0  0  0  0  0  0  0  0  0  0  0
   -6.6587    1.9729   -0.6990 S   0  0  0  0  0  6  0  0  0  0  0  0
   -6.2953    3.3651   -0.8067 O   0  0  0  0  0  0  0  0  0  0  0  0
   -7.4957    1.3084   -1.6716 O   0  0  0  0  0  0  0  0  0  0  0  0
   -5.1754    1.0249   -0.4916 C   0  0  0  0  0  0  0  0  0  0  0  0
   -4.1172    1.5672    0.2396 C   0  0  0  0  0  0  0  0  0  0  0  0
   -2.9440    0.8259    0.4104 C   0  0  0  0  0  0  0  0  0  0  0  0
   -2.8257   -0.4544   -0.1384 C   0  0  0  0  0  0  0  0  0  0  0  0
   -1.6601   -1.2416   -0.0346 N   0  0  0  0  0  0  0  0  0  0  0  0
   -0.6585   -1.2582    0.9288 C   0  0  0  0  0  0  0  0  0  0  0  0
   -0.8539   -0.7327    2.5138 S   0  0  0  0  0  0  0  0  0  0  0  0
    0.5195   -1.8620    0.4370 N   0  0  0  0  0  0  0  0  0  0  0  0
    1.6804   -2.1654    1.3008 C   0  0  0  0  0  0  0  0  0  0  0  0
    2.7455   -1.0500    1.2327 C   0  0  0  0  0  0  0  0  0  0  0  0
    3.1376   -0.8007   -0.1829 N   0  0  0  0  0  0  0  0  0  0  0  0
    4.2667    0.0276   -0.3083 C   0  0  0  0  0  0  0  0  0  0  0  0
    5.4974   -0.3999    0.2200 C   0  0  0  0  0  0  0  0  0  0  0  0
    6.6547    0.3788    0.1172 C   0  0  0  0  0  0  0  0  0  0  0  0
    6.6079    1.6094   -0.5267 C   0  0  0  0  0  0  0  0  0  0  0  0
    5.4070    2.0526   -1.0704 C   0  0  0  0  0  0  0  0  0  0  0  0
    4.2525    1.2667   -0.9657 C   0  0  0  0  0  0  0  0  0  0  0  0
    1.9797   -0.5249   -1.0654 C   0  0  0  0  0  0  0  0  0  0  0  0
    0.9439   -1.6669   -0.9661 C   0  0  0  0  0  0  0  0  0  0  0  0
   -3.8804   -0.9654   -0.9080 C   0  0  0  0  0  0  0  0  0  0  0  0
   -5.0590   -0.2340   -1.0807 C   0  0  0  0  0  0  0  0  0  0  0  0
   -6.8268    1.2852    1.4778 H   0  0  0  0  0  0  0  0  0  0  0  0
   -8.2913    1.2291    0.6332 H   0  0  0  0  0  0  0  0  0  0  0  0
   -4.1893    2.5664    0.6658 H   0  0  0  0  0  0  0  0  0  0  0  0
   -2.1215    1.2903    0.9463 H   0  0  0  0  0  0  0  0  0  0  0  0
   -1.6436   -2.0718   -0.6143 H   0  0  0  0  0  0  0  0  0  0  0  0
    1.3770   -2.3466    2.3349 H   0  0  0  0  0  0  0  0  0  0  0  0
    2.1103   -3.1048    0.9306 H   0  0  0  0  0  0  0  0  0  0  0  0
    3.5997   -1.3682    1.8403 H   0  0  0  0  0  0  0  0  0  0  0  0
    2.3500   -0.1232    1.6671 H   0  0  0  0  0  0  0  0  0  0  0  0
    5.5709   -1.3724    0.7003 H   0  0  0  0  0  0  0  0  0  0  0  0
    7.5900    0.0159    0.5341 H   0  0  0  0  0  0  0  0  0  0  0  0
    7.5039    2.2180   -0.6099 H   0  0  0  0  0  0  0  0  0  0  0  0
    5.3624    3.0126   -1.5780 H   0  0  0  0  0  0  0  0  0  0  0  0
    3.3391    1.6629   -1.3974 H   0  0  0  0  0  0  0  0  0  0  0  0
    1.5001    0.4191   -0.7763 H   0  0  0  0  0  0  0  0  0  0  0  0
    2.3063   -0.4506   -2.1096 H   0  0  0  0  0  0  0  0  0  0  0  0
    0.1027   -1.4371   -1.6244 H   0  0  0  0  0  0  0  0  0  0  0  0
    1.3854   -2.6109   -1.3072 H   0  0  0  0  0  0  0  0  0  0  0  0
   -3.8046   -1.9462   -1.3718 H   0  0  0  0  0  0  0  0  0  0  0  0
   -5.8694   -0.6513   -1.6747 H   0  0  0  0  0  0  0  0  0  0  0  0
  1  2  1  0
  2  3  2  0
  2  4  2  0
  2  5  1  0
  5  6  2  0
  6  7  1  0
  7  8  2  0
  8  9  1  0
  9 10  1  0
 10 11  2  0
 10 12  1  0
 12 13  1  0
 13 14  1  0
 14 15  1  0
 15 16  1  0
 16 17  2  0
 17 18  1  0
 18 19  2  0
 19 20  1  0
 20 21  2  0
 15 22  1  0
 22 23  1  0
  8 24  1  0
 24 25  2  0
 25  5  1  0
 23 12  1  0
 21 16  1  0
  1 26  1  0
  1 27  1  0
  6 28  1  0
  7 29  1  0
  9 30  1  0
 13 31  1  0
 13 32  1  0
 14 33  1  0
 14 34  1  0
 17 35  1  0
 18 36  1  0
 19 37  1  0
 20 38  1  0
 21 39  1  0
 22 40  1  0
 22 41  1  0
 23 42  1  0
 23 43  1  0
 24 44  1  0
 25 45  1  0
M  END
$$$$
