
     RDKit          3D

 44 46  0  0  0  0  0  0  0  0999 V2000
    8.2894    0.8199    0.4147 C   0  0  0  0  0  0  0  0  0  0  0  0
    7.4337   -0.1431   -0.3847 C   0  0  0  0  0  0  0  0  0  0  0  0
    6.0580    0.1536   -0.1160 O   0  0  0  0  0  0  0  0  0  0  0  0
    5.1792   -0.6426   -0.7742 C   0  0  0  0  0  0  0  0  0  0  0  0
    5.4699   -1.5472   -1.5409 O   0  0  0  0  0  0  0  0  0  0  0  0
    3.7785   -0.2686   -0.4381 C   0  0  0  0  0  0  0  0  0  0  0  0
    2.7386   -1.0049   -1.0164 C   0  0  0  0  0  0  0  0  0  0  0  0
    1.4032   -0.6912   -0.7343 C   0  0  0  0  0  0  0  0  0  0  0  0
    1.0788    0.3591    0.1305 C   0  0  0  0  0  0  0  0  0  0  0  0
   -0.2401    0.7382    0.4377 N   0  0  0  0  0  0  0  0  0  0  0  0
   -1.4616    0.4038   -0.1580 C   0  0  0  0  0  0  0  0  0  0  0  0
   -1.6069    0.2835   -1.5246 C   0  0  0  0  0  0  0  0  0  0  0  0
   -2.8647   -0.0249   -1.9979 C   0  0  0  0  0  0  0  0  0  0  0  0
   -3.1051   -0.1698   -3.4699 C   0  0  0  0  0  0  0  0  0  0  0  0
   -3.9170   -0.1961   -1.1779 N   0  0  0  0  0  0  0  0  0  0  0  0
   -3.6975   -0.0387    0.1415 C   0  0  0  0  0  0  0  0  0  0  0  0
   -4.8447   -0.2104    1.0577 C   0  0  0  0  0  0  0  0  0  0  0  0
   -6.1316   -0.5216    0.5757 C   0  0  0  0  0  0  0  0  0  0  0  0
   -7.2192   -0.6850    1.4402 C   0  0  0  0  0  0  0  0  0  0  0  0
   -7.0455   -0.5408    2.8130 C   0  0  0  0  0  0  0  0  0  0  0  0
   -5.7871   -0.2338    3.3207 C   0  0  0  0  0  0  0  0  0  0  0  0
   -4.7021   -0.0711    2.4525 C   0  0  0  0  0  0  0  0  0  0  0  0
   -2.5007    0.2660    0.6803 N   0  0  0  0  0  0  0  0  0  0  0  0
    2.1287    1.0892    0.7071 C   0  0  0  0  0  0  0  0  0  0  0  0
    3.4661    0.7832    0.4290 C   0  0  0  0  0  0  0  0  0  0  0  0
    9.3529    0.6326    0.2423 H   0  0  0  0  0  0  0  0  0  0  0  0
    8.0819    0.7222    1.4855 H   0  0  0  0  0  0  0  0  0  0  0  0
    8.0634    1.8556    0.1400 H   0  0  0  0  0  0  0  0  0  0  0  0
    7.6557   -1.1731   -0.0836 H   0  0  0  0  0  0  0  0  0  0  0  0
    7.6369   -0.0185   -1.4543 H   0  0  0  0  0  0  0  0  0  0  0  0
    2.9606   -1.8338   -1.6865 H   0  0  0  0  0  0  0  0  0  0  0  0
    0.6280   -1.3086   -1.1794 H   0  0  0  0  0  0  0  0  0  0  0  0
   -0.3944    0.8326    1.4381 H   0  0  0  0  0  0  0  0  0  0  0  0
   -0.7790    0.4502   -2.2008 H   0  0  0  0  0  0  0  0  0  0  0  0
   -2.4724   -0.9629   -3.8805 H   0  0  0  0  0  0  0  0  0  0  0  0
   -2.8827    0.7705   -3.9838 H   0  0  0  0  0  0  0  0  0  0  0  0
   -4.1495   -0.4295   -3.6707 H   0  0  0  0  0  0  0  0  0  0  0  0
   -6.2962   -0.6402   -0.4945 H   0  0  0  0  0  0  0  0  0  0  0  0
   -8.1995   -0.9248    1.0366 H   0  0  0  0  0  0  0  0  0  0  0  0
   -7.8894   -0.6675    3.4859 H   0  0  0  0  0  0  0  0  0  0  0  0
   -5.6446   -0.1199    4.3922 H   0  0  0  0  0  0  0  0  0  0  0  0
   -3.7288    0.1685    2.8778 H   0  0  0  0  0  0  0  0  0  0  0  0
    1.9082    1.9206    1.3740 H   0  0  0  0  0  0  0  0  0  0  0  0
    4.2482    1.3781    0.8941 H   0  0  0  0  0  0  0  0  0  0  0  0
  1  2  1  0
  2  3  1  0
  3  4  1  0
  4  5  2  0
  4  6  1  0
  6  7  2  0
  7  8  1  0
  8  9  2  0
  9 10  1  0
 10 11  1  0
 11 12  2  0
 12 13  1  0
 13 14  1  0
 13 15  2  0
 15 16  1  0
 16 17  1  0
 17 18  2  0
 18 19  1  0
 19 20  2  0
 20 21  1  0
 21 22  2  0
 16 23  2  0
  9 24  1  0
 24 25  2  0
 25  6  1  0
 23 11  1  0
 22 17  1  0
  1 26  1  0
  1 27  1  0
  1 28  1  0
  2 29  1  0
  2 30  1  0
  7 31  1  0
  8 32  1  0
 10 33  1  0
 12 34  1  0
 14 35  1  0
 14 36  1  0
 14 37  1  0
 18 38  1  0
 19 39  1  0
 20 40  1  0
 21 41  1  0
 22 42  1  0
 24 43  1  0
 25 44  1  0
M  END
$$$$
