
     RDKit          3D

 71 75  0  0  0  0  0  0  0  0999 V2000
   -4.0921    5.2641    2.9275 C   0  0  0  0  0  0  0  0  0  0  0  0
   -2.8889    4.5160    3.0473 O   0  0  0  0  0  0  0  0  0  0  0  0
   -2.6606    3.5584    2.0983 C   0  0  0  0  0  0  0  0  0  0  0  0
   -3.4595    3.2967    0.9868 C   0  0  0  0  0  0  0  0  0  0  0  0
   -3.1068    2.2825    0.0894 C   0  0  0  0  0  0  0  0  0  0  0  0
   -1.9473    1.5152    0.2837 C   0  0  0  0  0  0  0  0  0  0  0  0
   -1.5907    0.4098   -0.7098 C   0  0  0  0  0  0  0  0  0  0  0  0
   -2.2280   -0.9721   -0.3757 C   0  0  0  0  0  0  0  0  0  0  0  0
   -2.4684   -1.2858    1.1140 C   0  0  0  0  0  0  0  0  0  0  0  0
   -3.0829   -2.5852    1.4320 N   0  0  0  0  0  0  0  0  0  0  0  0
   -2.1650   -3.7221    1.2492 C   0  0  0  0  0  0  0  0  0  0  0  0
   -2.8295   -5.0498    1.6530 C   0  0  0  0  0  0  0  0  0  0  0  0
   -4.0548   -5.2682    0.9378 O   0  0  0  0  0  0  0  0  0  0  0  0
   -4.9601   -4.1820    1.1807 C   0  0  0  0  0  0  0  0  0  0  0  0
   -4.3485   -2.8462    0.7283 C   0  0  0  0  0  0  0  0  0  0  0  0
   -0.1242    0.4730   -1.1654 C   0  0  0  0  0  0  0  0  0  0  0  0
    0.2403    1.4633   -2.1016 C   0  0  0  0  0  0  0  0  0  0  0  0
   -0.7356    2.2722   -2.6320 O   0  0  0  0  0  0  0  0  0  0  0  0
   -0.4924    3.6537   -2.3552 C   0  0  0  0  0  0  0  0  0  0  0  0
    1.5507    1.5848   -2.5615 C   0  0  0  0  0  0  0  0  0  0  0  0
    2.5548    0.7691   -2.0406 C   0  0  0  0  0  0  0  0  0  0  0  0
    3.8198    0.8997   -2.5526 O   0  0  0  0  0  0  0  0  0  0  0  0
    4.4184    2.1392   -2.1724 C   0  0  0  0  0  0  0  0  0  0  0  0
    2.2576   -0.2255   -1.0937 C   0  0  0  0  0  0  0  0  0  0  0  0
    3.2741   -1.1279   -0.5035 C   0  0  0  0  0  0  0  0  0  0  0  0
    4.7336   -1.1107   -0.7350 C   0  0  0  0  0  0  0  0  0  0  0  0
    5.2848   -1.7715   -1.8405 C   0  0  0  0  0  0  0  0  0  0  0  0
    6.6653   -1.7582   -2.0489 C   0  0  0  0  0  0  0  0  0  0  0  0
    7.5021   -1.0937   -1.1529 C   0  0  0  0  0  0  0  0  0  0  0  0
    6.9627   -0.4407   -0.0453 C   0  0  0  0  0  0  0  0  0  0  0  0
    5.5825   -0.4494    0.1645 C   0  0  0  0  0  0  0  0  0  0  0  0
    2.8700   -2.0813    0.3505 C   0  0  0  0  0  0  0  0  0  0  0  0
    1.4772   -2.2621    0.7526 C   0  0  0  0  0  0  0  0  0  0  0  0
    1.1565   -3.1795    1.5007 O   0  0  0  0  0  0  0  0  0  0  0  0
    0.5664   -1.3459    0.2623 O   0  0  0  0  0  0  0  0  0  0  0  0
    0.9136   -0.3518   -0.6815 C   0  0  0  0  0  0  0  0  0  0  0  0
   -1.1533    1.7841    1.4075 C   0  0  0  0  0  0  0  0  0  0  0  0
   -1.5080    2.7983    2.3012 C   0  0  0  0  0  0  0  0  0  0  0  0
   -4.0877    5.8684    2.0145 H   0  0  0  0  0  0  0  0  0  0  0  0
   -4.1474    5.9486    3.7798 H   0  0  0  0  0  0  0  0  0  0  0  0
   -4.9723    4.6127    2.9678 H   0  0  0  0  0  0  0  0  0  0  0  0
   -4.3630    3.8613    0.7852 H   0  0  0  0  0  0  0  0  0  0  0  0
   -3.7471    2.0984   -0.7712 H   0  0  0  0  0  0  0  0  0  0  0  0
   -2.1332    0.6635   -1.6351 H   0  0  0  0  0  0  0  0  0  0  0  0
   -1.6691   -1.7750   -0.8693 H   0  0  0  0  0  0  0  0  0  0  0  0
   -3.2160   -0.9709   -0.8584 H   0  0  0  0  0  0  0  0  0  0  0  0
   -1.5354   -1.1919    1.6804 H   0  0  0  0  0  0  0  0  0  0  0  0
   -3.1394   -0.5252    1.5314 H   0  0  0  0  0  0  0  0  0  0  0  0
   -1.2803   -3.5839    1.8754 H   0  0  0  0  0  0  0  0  0  0  0  0
   -1.8452   -3.7910    0.2035 H   0  0  0  0  0  0  0  0  0  0  0  0
   -2.1590   -5.8842    1.4223 H   0  0  0  0  0  0  0  0  0  0  0  0
   -3.0340   -5.0774    2.7305 H   0  0  0  0  0  0  0  0  0  0  0  0
   -5.8753   -4.3818    0.6138 H   0  0  0  0  0  0  0  0  0  0  0  0
   -5.2261   -4.1614    2.2447 H   0  0  0  0  0  0  0  0  0  0  0  0
   -5.0646   -2.0419    0.9275 H   0  0  0  0  0  0  0  0  0  0  0  0
   -4.1818   -2.9004   -0.3539 H   0  0  0  0  0  0  0  0  0  0  0  0
    0.2206    4.0698   -3.0755 H   0  0  0  0  0  0  0  0  0  0  0  0
   -1.4394    4.1890   -2.4734 H   0  0  0  0  0  0  0  0  0  0  0  0
   -0.1381    3.8116   -1.3294 H   0  0  0  0  0  0  0  0  0  0  0  0
    1.7858    2.2953   -3.3476 H   0  0  0  0  0  0  0  0  0  0  0  0
    5.4894    2.0709   -2.3821 H   0  0  0  0  0  0  0  0  0  0  0  0
    4.0128    2.9654   -2.7647 H   0  0  0  0  0  0  0  0  0  0  0  0
    4.2936    2.3387   -1.1020 H   0  0  0  0  0  0  0  0  0  0  0  0
    4.6407   -2.2833   -2.5517 H   0  0  0  0  0  0  0  0  0  0  0  0
    7.0879   -2.2633   -2.9141 H   0  0  0  0  0  0  0  0  0  0  0  0
    8.5770   -1.0865   -1.3168 H   0  0  0  0  0  0  0  0  0  0  0  0
    7.6169    0.0745    0.6532 H   0  0  0  0  0  0  0  0  0  0  0  0
    5.1732    0.0655    1.0304 H   0  0  0  0  0  0  0  0  0  0  0  0
    3.5612   -2.7837    0.8076 H   0  0  0  0  0  0  0  0  0  0  0  0
   -0.2554    1.2043    1.6082 H   0  0  0  0  0  0  0  0  0  0  0  0
   -0.8827    2.9931    3.1698 H   0  0  0  0  0  0  0  0  0  0  0  0
  1  2  1  0
  2  3  1  0
  3  4  2  0
  4  5  1  0
  5  6  2  0
  6  7  1  0
  7  8  1  0
  8  9  1  0
  9 10  1  0
 10 11  1  0
 11 12  1  0
 12 13  1  0
 13 14  1  0
 14 15  1  0
  7 16  1  0
 16 17  2  0
 17 18  1  0
 18 19  1  0
 17 20  1  0
 20 21  2  0
 21 22  1  0
 22 23  1  0
 21 24  1  0
 24 25  1  0
 25 26  1  0
 26 27  2  0
 27 28  1  0
 28 29  2  0
 29 30  1  0
 30 31  2  0
 25 32  2  0
 32 33  1  0
 33 34  2  0
 33 35  1  0
 35 36  1  0
  6 37  1  0
 37 38  2  0
 38  3  1  0
 15 10  1  0
 36 16  1  0
 36 24  2  0
 31 26  1  0
  1 39  1  0
  1 40  1  0
  1 41  1  0
  4 42  1  0
  5 43  1  0
  7 44  1  0
  8 45  1  0
  8 46  1  0
  9 47  1  0
  9 48  1  0
 11 49  1  0
 11 50  1  0
 12 51  1  0
 12 52  1  0
 14 53  1  0
 14 54  1  0
 15 55  1  0
 15 56  1  0
 19 57  1  0
 19 58  1  0
 19 59  1  0
 20 60  1  0
 23 61  1  0
 23 62  1  0
 23 63  1  0
 27 64  1  0
 28 65  1  0
 29 66  1  0
 30 67  1  0
 31 68  1  0
 32 69  1  0
 37 70  1  0
 38 71  1  0
M  END
$$$$
