
     RDKit          3D

 49 52  0  0  0  0  0  0  0  0999 V2000
    6.8255   -2.0006    1.0915 C   0  0  0  0  0  0  0  0  0  0  0  0
    6.6809   -0.6890    0.3746 C   0  0  0  0  0  0  0  0  0  0  0  0
    7.8063    0.1162    0.1421 C   0  0  0  0  0  0  0  0  0  0  0  0
    7.6748    1.3332   -0.5285 C   0  0  0  0  0  0  0  0  0  0  0  0
    9.0655    2.3082   -0.8072 Cl  0  0  0  0  0  0  0  0  0  0  0  0
    6.4292    1.7620   -0.9803 C   0  0  0  0  0  0  0  0  0  0  0  0
    5.3028    0.9698   -0.7553 C   0  0  0  0  0  0  0  0  0  0  0  0
    5.4238   -0.2414   -0.0644 C   0  0  0  0  0  0  0  0  0  0  0  0
    4.3418   -1.0687    0.1295 O   0  0  0  0  0  0  0  0  0  0  0  0
    3.2066   -0.6147    0.6685 C   0  0  0  0  0  0  0  0  0  0  0  0
    3.0576    0.5824    1.1938 N   0  0  0  0  0  0  0  0  0  0  0  0
    1.7700    0.7211    1.6728 C   0  0  0  0  0  0  0  0  0  0  0  0
    0.9480   -0.3771    1.5155 C   0  0  0  0  0  0  0  0  0  0  0  0
   -0.4787   -0.5581    1.9322 C   0  0  0  0  0  0  0  0  0  0  0  0
   -1.3612    0.4645    1.3489 N   0  0  0  0  0  0  0  0  0  0  0  0
   -1.4563    0.3202   -0.1255 C   0  0  0  0  0  0  0  0  0  0  0  0
   -2.7806    0.8324   -0.7387 C   0  0  0  0  0  0  0  0  0  0  0  0
   -3.9213    0.0894   -0.1811 N   0  0  0  0  0  0  0  0  0  0  0  0
   -5.1330   -0.0014   -0.8475 C   0  0  0  0  0  0  0  0  0  0  0  0
   -5.4606    0.8426   -1.9214 C   0  0  0  0  0  0  0  0  0  0  0  0
   -6.6843    0.7464   -2.5969 C   0  0  0  0  0  0  0  0  0  0  0  0
   -7.6184   -0.2082   -2.2156 C   0  0  0  0  0  0  0  0  0  0  0  0
   -7.3250   -1.0636   -1.1615 C   0  0  0  0  0  0  0  0  0  0  0  0
   -6.0993   -0.9579   -0.4918 C   0  0  0  0  0  0  0  0  0  0  0  0
   -3.7818   -0.3780    1.2073 C   0  0  0  0  0  0  0  0  0  0  0  0
   -2.7058    0.4339    1.9667 C   0  0  0  0  0  0  0  0  0  0  0  0
    1.8258   -1.6312    0.7422 S   0  0  0  0  0  0  0  0  0  0  0  0
    6.2401   -1.9927    2.0165 H   0  0  0  0  0  0  0  0  0  0  0  0
    6.4843   -2.8216    0.4526 H   0  0  0  0  0  0  0  0  0  0  0  0
    7.8686   -2.1996    1.3590 H   0  0  0  0  0  0  0  0  0  0  0  0
    8.7879   -0.2051    0.4824 H   0  0  0  0  0  0  0  0  0  0  0  0
    6.3271    2.7070   -1.5064 H   0  0  0  0  0  0  0  0  0  0  0  0
    4.3336    1.3048   -1.1153 H   0  0  0  0  0  0  0  0  0  0  0  0
    1.4724    1.6565    2.1324 H   0  0  0  0  0  0  0  0  0  0  0  0
   -0.4929   -0.4681    3.0270 H   0  0  0  0  0  0  0  0  0  0  0  0
   -0.8432   -1.5673    1.7004 H   0  0  0  0  0  0  0  0  0  0  0  0
   -0.6236    0.8631   -0.5874 H   0  0  0  0  0  0  0  0  0  0  0  0
   -1.3560   -0.7358   -0.4129 H   0  0  0  0  0  0  0  0  0  0  0  0
   -2.7153    0.6858   -1.8236 H   0  0  0  0  0  0  0  0  0  0  0  0
   -2.8996    1.9052   -0.5440 H   0  0  0  0  0  0  0  0  0  0  0  0
   -4.7726    1.6178   -2.2458 H   0  0  0  0  0  0  0  0  0  0  0  0
   -6.9018    1.4236   -3.4184 H   0  0  0  0  0  0  0  0  0  0  0  0
   -8.5675   -0.2863   -2.7379 H   0  0  0  0  0  0  0  0  0  0  0  0
   -8.0430   -1.8205   -0.8581 H   0  0  0  0  0  0  0  0  0  0  0  0
   -5.9039   -1.6657    0.3088 H   0  0  0  0  0  0  0  0  0  0  0  0
   -3.5160   -1.4417    1.2080 H   0  0  0  0  0  0  0  0  0  0  0  0
   -4.7236   -0.2609    1.7572 H   0  0  0  0  0  0  0  0  0  0  0  0
   -2.6584    0.0932    3.0084 H   0  0  0  0  0  0  0  0  0  0  0  0
   -3.0493    1.4758    2.0214 H   0  0  0  0  0  0  0  0  0  0  0  0
  1  2  1  0
  2  3  2  0
  3  4  1  0
  4  5  1  0
  4  6  2  0
  6  7  1  0
  7  8  2  0
  8  9  1  0
  9 10  1  0
 10 11  2  0
 11 12  1  0
 12 13  2  0
 13 14  1  0
 14 15  1  0
 15 16  1  0
 16 17  1  0
 17 18  1  0
 18 19  1  0
 19 20  2  0
 20 21  1  0
 21 22  2  0
 22 23  1  0
 23 24  2  0
 18 25  1  0
 25 26  1  0
 13 27  1  0
  8  2  1  0
 27 10  1  0
 26 15  1  0
 24 19  1  0
  1 28  1  0
  1 29  1  0
  1 30  1  0
  3 31  1  0
  6 32  1  0
  7 33  1  0
 12 34  1  0
 14 35  1  0
 14 36  1  0
 16 37  1  0
 16 38  1  0
 17 39  1  0
 17 40  1  0
 20 41  1  0
 21 42  1  0
 22 43  1  0
 23 44  1  0
 24 45  1  0
 25 46  1  0
 25 47  1  0
 26 48  1  0
 26 49  1  0
M  END
$$$$
