
     RDKit          3D

 45 47  0  0  0  0  0  0  0  0999 V2000
   -5.2727   -0.4698   -0.1776 C   0  0  0  0  0  0  0  0  0  0  0  0
   -3.8833   -0.9003   -0.3170 N   0  0  0  0  0  0  0  0  0  0  0  0
   -3.2566   -1.2332    0.9750 C   0  0  0  0  0  0  0  0  0  0  0  0
   -2.8818    0.1207    1.5854 C   0  0  0  0  0  0  0  0  0  0  0  0
   -2.7162    1.0513    0.3835 C   0  0  0  0  0  0  0  0  0  0  0  0
   -3.0040    0.1648   -0.8317 C   0  0  0  0  0  0  0  0  0  0  0  0
   -1.7424   -0.5395   -1.3663 C   0  0  0  0  0  0  0  0  0  0  0  0
   -1.0366   -1.4124   -0.3139 C   0  0  0  0  0  0  0  0  0  0  0  0
   -0.1336   -0.5594    0.4255 O   0  0  0  0  0  0  0  0  0  0  0  0
    0.9631   -1.1574    0.9664 C   0  0  0  0  0  0  0  0  0  0  0  0
    1.1962   -2.3594    0.9431 O   0  0  0  0  0  0  0  0  0  0  0  0
    1.8161   -0.1550    1.6991 C   0  0  0  0  0  0  0  0  0  0  0  0
    2.1914    1.0556    0.8457 C   0  0  0  0  0  0  0  0  0  0  0  0
    2.9576    0.7209   -0.3576 N   0  0  0  0  0  0  0  0  0  0  0  0
    4.2862    0.1680   -0.0854 C   0  0  0  0  0  0  0  0  0  0  0  0
    5.0122    0.3110   -1.4165 C   0  0  0  0  0  0  0  0  0  0  0  0
    4.2539    1.3935   -2.1756 C   0  0  0  0  0  0  0  0  0  0  0  0
    3.2024    1.8938   -1.1996 C   0  0  0  0  0  0  0  0  0  0  0  0
   -2.0230   -2.0971    0.6486 C   0  0  0  0  0  0  0  0  0  0  0  0
   -5.8807   -1.2898    0.2201 H   0  0  0  0  0  0  0  0  0  0  0  0
   -5.4060    0.3979    0.4765 H   0  0  0  0  0  0  0  0  0  0  0  0
   -5.6877   -0.2197   -1.1602 H   0  0  0  0  0  0  0  0  0  0  0  0
   -3.9218   -1.8049    1.6324 H   0  0  0  0  0  0  0  0  0  0  0  0
   -1.9787    0.0761    2.2020 H   0  0  0  0  0  0  0  0  0  0  0  0
   -3.6925    0.4926    2.2234 H   0  0  0  0  0  0  0  0  0  0  0  0
   -3.4505    1.8632    0.4496 H   0  0  0  0  0  0  0  0  0  0  0  0
   -1.7249    1.5139    0.3506 H   0  0  0  0  0  0  0  0  0  0  0  0
   -3.4623    0.7331   -1.6493 H   0  0  0  0  0  0  0  0  0  0  0  0
   -1.0467    0.2117   -1.7603 H   0  0  0  0  0  0  0  0  0  0  0  0
   -2.0378   -1.1794   -2.2085 H   0  0  0  0  0  0  0  0  0  0  0  0
   -0.4435   -2.1685   -0.8438 H   0  0  0  0  0  0  0  0  0  0  0  0
    2.7149   -0.6653    2.0630 H   0  0  0  0  0  0  0  0  0  0  0  0
    1.2581    0.1696    2.5851 H   0  0  0  0  0  0  0  0  0  0  0  0
    1.2704    1.5707    0.5438 H   0  0  0  0  0  0  0  0  0  0  0  0
    2.7504    1.7646    1.4704 H   0  0  0  0  0  0  0  0  0  0  0  0
    4.8128    0.7445    0.6857 H   0  0  0  0  0  0  0  0  0  0  0  0
    4.2456   -0.8795    0.2289 H   0  0  0  0  0  0  0  0  0  0  0  0
    4.9868   -0.6279   -1.9816 H   0  0  0  0  0  0  0  0  0  0  0  0
    6.0617    0.5849   -1.2673 H   0  0  0  0  0  0  0  0  0  0  0  0
    3.7800    0.9588   -3.0639 H   0  0  0  0  0  0  0  0  0  0  0  0
    4.9157    2.1991   -2.5087 H   0  0  0  0  0  0  0  0  0  0  0  0
    2.2980    2.2258   -1.7190 H   0  0  0  0  0  0  0  0  0  0  0  0
    3.6022    2.7339   -0.6174 H   0  0  0  0  0  0  0  0  0  0  0  0
   -1.5219   -2.3726    1.5838 H   0  0  0  0  0  0  0  0  0  0  0  0
   -2.3703   -3.0292    0.1833 H   0  0  0  0  0  0  0  0  0  0  0  0
  1  2  1  0
  2  3  1  0
  3  4  1  0
  4  5  1  0
  5  6  1  0
  6  7  1  0
  7  8  1  0
  8  9  1  0
  9 10  1  0
 10 11  2  0
 10 12  1  0
 12 13  1  0
 13 14  1  0
 14 15  1  0
 15 16  1  0
 16 17  1  0
 17 18  1  0
  8 19  1  0
  6  2  1  0
 18 14  1  0
 19  3  1  0
  1 20  1  0
  1 21  1  0
  1 22  1  0
  3 23  1  0
  4 24  1  0
  4 25  1  0
  5 26  1  0
  5 27  1  0
  6 28  1  0
  7 29  1  0
  7 30  1  0
  8 31  1  0
 12 32  1  0
 12 33  1  0
 13 34  1  0
 13 35  1  0
 15 36  1  0
 15 37  1  0
 16 38  1  0
 16 39  1  0
 17 40  1  0
 17 41  1  0
 18 42  1  0
 18 43  1  0
 19 44  1  0
 19 45  1  0
M  END
$$$$
