
     RDKit          3D

 59 62  0  0  0  0  0  0  0  0999 V2000
    5.4694   -1.0385    2.6867 C   0  0  0  0  0  0  0  0  0  0  0  0
    5.9421   -0.9720    1.3493 O   0  0  0  0  0  0  0  0  0  0  0  0
    5.0382   -0.6545    0.3686 C   0  0  0  0  0  0  0  0  0  0  0  0
    3.6581   -0.5424    0.5577 C   0  0  0  0  0  0  0  0  0  0  0  0
    2.8096   -0.2173   -0.5123 C   0  0  0  0  0  0  0  0  0  0  0  0
    1.4276   -0.1186   -0.2266 N   0  0  0  0  0  0  0  0  0  0  0  0
    0.3980    0.0874   -1.1279 C   0  0  0  0  0  0  0  0  0  0  0  0
    0.4859    0.1468   -2.3474 O   0  0  0  0  0  0  0  0  0  0  0  0
   -0.9445    0.2083   -0.5164 C   0  0  0  0  0  0  0  0  0  0  0  0
   -1.1581    0.9167    0.6745 C   0  0  0  0  0  0  0  0  0  0  0  0
   -2.4475    1.0060    1.2065 C   0  0  0  0  0  0  0  0  0  0  0  0
   -2.7261    1.7518    2.4540 C   0  0  0  0  0  0  0  0  0  0  0  0
   -1.8308    1.7547    3.5404 C   0  0  0  0  0  0  0  0  0  0  0  0
   -2.1083    2.4729    4.7085 C   0  0  0  0  0  0  0  0  0  0  0  0
   -3.2892    3.2017    4.8165 C   0  0  0  0  0  0  0  0  0  0  0  0
   -4.1961    3.2082    3.7612 C   0  0  0  0  0  0  0  0  0  0  0  0
   -3.9171    2.4888    2.5957 C   0  0  0  0  0  0  0  0  0  0  0  0
   -3.5349    0.4416    0.6248 N   0  0  0  0  0  0  0  0  0  0  0  0
   -3.2847   -0.2103   -0.5268 C   0  0  0  0  0  0  0  0  0  0  0  0
   -2.0563   -0.3617   -1.1484 C   0  0  0  0  0  0  0  0  0  0  0  0
   -2.3408   -1.1085   -2.3114 C   0  0  0  0  0  0  0  0  0  0  0  0
   -3.6353   -1.4255   -2.4216 N   0  0  0  0  0  0  0  0  0  0  0  0
   -4.1938   -0.8591   -1.3241 N   0  0  0  0  0  0  0  0  0  0  0  0
   -5.6273   -0.9750   -1.0838 C   0  0  0  0  0  0  0  0  0  0  0  0
   -6.4340   -0.2943   -2.1890 C   0  0  0  0  0  0  0  0  0  0  0  0
   -6.0467   -2.4337   -0.9063 C   0  0  0  0  0  0  0  0  0  0  0  0
    3.3565    0.0071   -1.7801 C   0  0  0  0  0  0  0  0  0  0  0  0
    4.7346   -0.1008   -1.9944 C   0  0  0  0  0  0  0  0  0  0  0  0
    5.3598    0.1071   -3.1978 O   0  0  0  0  0  0  0  0  0  0  0  0
    4.5499    0.4967   -4.2994 C   0  0  0  0  0  0  0  0  0  0  0  0
    5.5639   -0.4493   -0.9165 C   0  0  0  0  0  0  0  0  0  0  0  0
    6.9278   -0.5166   -1.1008 O   0  0  0  0  0  0  0  0  0  0  0  0
    7.2950   -1.8321   -1.5124 C   0  0  0  0  0  0  0  0  0  0  0  0
    5.0133   -0.0919    2.9952 H   0  0  0  0  0  0  0  0  0  0  0  0
    4.7733   -1.8735    2.8153 H   0  0  0  0  0  0  0  0  0  0  0  0
    6.3300   -1.2205    3.3372 H   0  0  0  0  0  0  0  0  0  0  0  0
    3.2261   -0.7132    1.5369 H   0  0  0  0  0  0  0  0  0  0  0  0
    1.1677   -0.2922    0.7356 H   0  0  0  0  0  0  0  0  0  0  0  0
   -0.3348    1.4364    1.1546 H   0  0  0  0  0  0  0  0  0  0  0  0
   -0.9086    1.1805    3.5013 H   0  0  0  0  0  0  0  0  0  0  0  0
   -1.4036    2.4584    5.5363 H   0  0  0  0  0  0  0  0  0  0  0  0
   -3.5061    3.7590    5.7242 H   0  0  0  0  0  0  0  0  0  0  0  0
   -5.1230    3.7707    3.8412 H   0  0  0  0  0  0  0  0  0  0  0  0
   -4.6422    2.5083    1.7827 H   0  0  0  0  0  0  0  0  0  0  0  0
   -1.6526   -1.4354   -3.0818 H   0  0  0  0  0  0  0  0  0  0  0  0
   -5.8357   -0.4502   -0.1439 H   0  0  0  0  0  0  0  0  0  0  0  0
   -7.5034   -0.3124   -1.9544 H   0  0  0  0  0  0  0  0  0  0  0  0
   -6.1313    0.7523   -2.3058 H   0  0  0  0  0  0  0  0  0  0  0  0
   -6.2932   -0.7905   -3.1559 H   0  0  0  0  0  0  0  0  0  0  0  0
   -7.1076   -2.5018   -0.6428 H   0  0  0  0  0  0  0  0  0  0  0  0
   -5.4689   -2.9116   -0.1075 H   0  0  0  0  0  0  0  0  0  0  0  0
   -5.8893   -3.0146   -1.8221 H   0  0  0  0  0  0  0  0  0  0  0  0
    2.7079    0.2772   -2.6032 H   0  0  0  0  0  0  0  0  0  0  0  0
    5.2066    0.6349   -5.1639 H   0  0  0  0  0  0  0  0  0  0  0  0
    3.8277   -0.2860   -4.5536 H   0  0  0  0  0  0  0  0  0  0  0  0
    4.0508    1.4517   -4.1058 H   0  0  0  0  0  0  0  0  0  0  0  0
    7.0017   -2.5811   -0.7688 H   0  0  0  0  0  0  0  0  0  0  0  0
    8.3845   -1.8605   -1.6071 H   0  0  0  0  0  0  0  0  0  0  0  0
    6.8657   -2.0802   -2.4889 H   0  0  0  0  0  0  0  0  0  0  0  0
  1  2  1  0
  2  3  1  0
  3  4  2  0
  4  5  1  0
  5  6  1  0
  6  7  1  0
  7  8  2  0
  7  9  1  0
  9 10  2  0
 10 11  1  0
 11 12  1  0
 12 13  2  0
 13 14  1  0
 14 15  2  0
 15 16  1  0
 16 17  2  0
 11 18  2  0
 18 19  1  0
 19 20  2  0
 20 21  1  0
 21 22  2  0
 22 23  1  0
 23 24  1  0
 24 25  1  0
 24 26  1  0
  5 27  2  0
 27 28  1  0
 28 29  1  0
 29 30  1  0
 28 31  2  0
 31 32  1  0
 32 33  1  0
 31  3  1  0
 20  9  1  0
 17 12  1  0
 23 19  1  0
  1 34  1  0
  1 35  1  0
  1 36  1  0
  4 37  1  0
  6 38  1  0
 10 39  1  0
 13 40  1  0
 14 41  1  0
 15 42  1  0
 16 43  1  0
 17 44  1  0
 21 45  1  0
 24 46  1  0
 25 47  1  0
 25 48  1  0
 25 49  1  0
 26 50  1  0
 26 51  1  0
 26 52  1  0
 27 53  1  0
 30 54  1  0
 30 55  1  0
 30 56  1  0
 33 57  1  0
 33 58  1  0
 33 59  1  0
M  END
$$$$
