
     RDKit          3D

 42 44  0  0  0  0  0  0  0  0999 V2000
   -1.1018   -4.5263    0.6979 C   0  0  0  0  0  0  0  0  0  0  0  0
   -1.5264   -4.1846   -0.7203 C   0  0  0  0  0  0  0  0  0  0  0  0
   -2.7919   -2.8708   -0.7511 S   0  0  0  0  0  0  0  0  0  0  0  0
   -1.8044   -1.4066   -0.4611 C   0  0  0  0  0  0  0  0  0  0  0  0
   -2.4563   -0.2108   -0.2478 C   0  0  0  0  0  0  0  0  0  0  0  0
   -1.6819    0.9097   -0.0338 C   0  0  0  0  0  0  0  0  0  0  0  0
   -2.2385    2.1472    0.1758 N   0  0  0  0  0  0  0  0  0  0  0  0
   -3.6126    2.3804    0.6009 C   0  0  0  0  0  0  0  0  0  0  0  0
   -3.5663    3.7528    1.2738 C   0  0  0  0  0  0  0  0  0  0  0  0
   -2.3878    4.4398    0.6018 C   0  0  0  0  0  0  0  0  0  0  0  0
   -1.3860    3.3007    0.4364 C   0  0  0  0  0  0  0  0  0  0  0  0
   -0.3416    0.8170   -0.0547 N   0  0  0  0  0  0  0  0  0  0  0  0
    0.2197   -0.3864   -0.2733 C   0  0  0  0  0  0  0  0  0  0  0  0
    1.6954   -0.4673   -0.2822 C   0  0  0  0  0  0  0  0  0  0  0  0
    2.4960    0.6766   -0.1039 C   0  0  0  0  0  0  0  0  0  0  0  0
    3.8942    0.6038   -0.1099 C   0  0  0  0  0  0  0  0  0  0  0  0
    4.5388   -0.6197   -0.3056 C   0  0  0  0  0  0  0  0  0  0  0  0
    6.0356   -0.7060   -0.2786 C   0  0  0  0  0  0  0  0  0  0  0  0
    3.7639   -1.7702   -0.4701 C   0  0  0  0  0  0  0  0  0  0  0  0
    2.3660   -1.6917   -0.4636 C   0  0  0  0  0  0  0  0  0  0  0  0
   -0.4707   -1.5175   -0.4784 N   0  0  0  0  0  0  0  0  0  0  0  0
   -0.3728   -5.3432    0.6783 H   0  0  0  0  0  0  0  0  0  0  0  0
   -0.6303   -3.6787    1.2042 H   0  0  0  0  0  0  0  0  0  0  0  0
   -1.9534   -4.8595    1.3007 H   0  0  0  0  0  0  0  0  0  0  0  0
   -0.6653   -3.9142   -1.3393 H   0  0  0  0  0  0  0  0  0  0  0  0
   -1.9754   -5.0731   -1.1769 H   0  0  0  0  0  0  0  0  0  0  0  0
   -3.5359   -0.1606   -0.2634 H   0  0  0  0  0  0  0  0  0  0  0  0
   -3.9764    1.6285    1.3095 H   0  0  0  0  0  0  0  0  0  0  0  0
   -4.2731    2.3996   -0.2731 H   0  0  0  0  0  0  0  0  0  0  0  0
   -4.5030    4.3056    1.1613 H   0  0  0  0  0  0  0  0  0  0  0  0
   -3.3658    3.6354    2.3458 H   0  0  0  0  0  0  0  0  0  0  0  0
   -1.9865    5.2698    1.1898 H   0  0  0  0  0  0  0  0  0  0  0  0
   -2.6891    4.8245   -0.3800 H   0  0  0  0  0  0  0  0  0  0  0  0
   -0.6939    3.5057   -0.3876 H   0  0  0  0  0  0  0  0  0  0  0  0
   -0.8164    3.1596    1.3633 H   0  0  0  0  0  0  0  0  0  0  0  0
    2.0274    1.6482    0.0454 H   0  0  0  0  0  0  0  0  0  0  0  0
    4.4718    1.5132    0.0388 H   0  0  0  0  0  0  0  0  0  0  0  0
    6.3821   -0.8819    0.7443 H   0  0  0  0  0  0  0  0  0  0  0  0
    6.4869    0.2196   -0.6509 H   0  0  0  0  0  0  0  0  0  0  0  0
    6.3916   -1.5205   -0.9179 H   0  0  0  0  0  0  0  0  0  0  0  0
    4.2390   -2.7391   -0.6062 H   0  0  0  0  0  0  0  0  0  0  0  0
    1.7952   -2.6088   -0.6006 H   0  0  0  0  0  0  0  0  0  0  0  0
  1  2  1  0
  2  3  1  0
  3  4  1  0
  4  5  2  0
  5  6  1  0
  6  7  1  0
  7  8  1  0
  8  9  1  0
  9 10  1  0
 10 11  1  0
  6 12  2  0
 12 13  1  0
 13 14  1  0
 14 15  2  0
 15 16  1  0
 16 17  2  0
 17 18  1  0
 17 19  1  0
 19 20  2  0
 13 21  2  0
 21  4  1  0
 11  7  1  0
 20 14  1  0
  1 22  1  0
  1 23  1  0
  1 24  1  0
  2 25  1  0
  2 26  1  0
  5 27  1  0
  8 28  1  0
  8 29  1  0
  9 30  1  0
  9 31  1  0
 10 32  1  0
 10 33  1  0
 11 34  1  0
 11 35  1  0
 15 36  1  0
 16 37  1  0
 18 38  1  0
 18 39  1  0
 18 40  1  0
 19 41  1  0
 20 42  1  0
M  END
$$$$
