
     RDKit          3D

 40 40  0  0  0  0  0  0  0  0999 V2000
   -5.2752   -1.7688    1.5854 C   0  0  0  0  0  0  0  0  0  0  0  0
   -4.8659   -0.5046    0.8092 C   0  0  0  0  0  0  0  0  0  0  0  0
   -5.2843   -0.6762   -0.6593 C   0  0  0  0  0  0  0  0  0  0  0  0
   -5.5920    0.7016    1.4251 C   0  0  0  0  0  0  0  0  0  0  0  0
   -3.4127   -0.3504    0.9208 N   0  0  0  0  0  0  0  0  0  0  0  0
   -2.6697    0.6658    0.3614 C   0  0  0  0  0  0  0  0  0  0  0  0
   -3.0867    1.6031   -0.3018 O   0  0  0  0  0  0  0  0  0  0  0  0
   -1.1586    0.5379    0.6389 C   0  0  0  0  0  0  0  0  0  0  0  0
   -0.7176   -0.4228    1.2590 O   0  0  0  0  0  0  0  0  0  0  0  0
   -0.4135    1.5751    0.1207 N   0  0  0  0  0  0  0  0  0  0  0  0
    0.9825    1.4432    0.0824 N   0  0  0  0  0  0  0  0  0  0  0  0
    1.6282    1.8086   -1.0845 C   0  0  0  0  0  0  0  0  0  0  0  0
    1.0806    2.4486   -1.9816 O   0  0  0  0  0  0  0  0  0  0  0  0
    3.0953    1.3960   -1.1444 C   0  0  0  0  0  0  0  0  0  0  0  0
    3.3587    0.3568   -0.2057 O   0  0  0  0  0  0  0  0  0  0  0  0
    4.6414   -0.1133   -0.1464 C   0  0  0  0  0  0  0  0  0  0  0  0
    4.8452   -1.1341    0.7862 C   0  0  0  0  0  0  0  0  0  0  0  0
    6.1083   -1.7047    0.9515 C   0  0  0  0  0  0  0  0  0  0  0  0
    7.1783   -1.2557    0.1819 C   0  0  0  0  0  0  0  0  0  0  0  0
    6.9826   -0.2384   -0.7504 C   0  0  0  0  0  0  0  0  0  0  0  0
    5.7168    0.3332   -0.9159 C   0  0  0  0  0  0  0  0  0  0  0  0
   -4.9918   -1.6927    2.6418 H   0  0  0  0  0  0  0  0  0  0  0  0
   -4.7796   -2.6588    1.1798 H   0  0  0  0  0  0  0  0  0  0  0  0
   -6.3572   -1.9357    1.5384 H   0  0  0  0  0  0  0  0  0  0  0  0
   -5.0647    0.2172   -1.2529 H   0  0  0  0  0  0  0  0  0  0  0  0
   -6.3597   -0.8694   -0.7446 H   0  0  0  0  0  0  0  0  0  0  0  0
   -4.7534   -1.5151   -1.1239 H   0  0  0  0  0  0  0  0  0  0  0  0
   -5.2804    0.8593    2.4641 H   0  0  0  0  0  0  0  0  0  0  0  0
   -5.3832    1.6269    0.8783 H   0  0  0  0  0  0  0  0  0  0  0  0
   -6.6781    0.5558    1.4176 H   0  0  0  0  0  0  0  0  0  0  0  0
   -2.8748   -1.0542    1.4223 H   0  0  0  0  0  0  0  0  0  0  0  0
   -0.8468    2.2092   -0.5557 H   0  0  0  0  0  0  0  0  0  0  0  0
    1.3857    0.6841    0.6365 H   0  0  0  0  0  0  0  0  0  0  0  0
    3.6914    2.2860   -0.9134 H   0  0  0  0  0  0  0  0  0  0  0  0
    3.2906    1.0399   -2.1625 H   0  0  0  0  0  0  0  0  0  0  0  0
    4.0140   -1.4907    1.3897 H   0  0  0  0  0  0  0  0  0  0  0  0
    6.2547   -2.4983    1.6794 H   0  0  0  0  0  0  0  0  0  0  0  0
    8.1633   -1.6980    0.3076 H   0  0  0  0  0  0  0  0  0  0  0  0
    7.8180    0.1118   -1.3519 H   0  0  0  0  0  0  0  0  0  0  0  0
    5.6105    1.1216   -1.6535 H   0  0  0  0  0  0  0  0  0  0  0  0
  1  2  1  0
  2  3  1  0
  2  4  1  0
  2  5  1  0
  5  6  1  0
  6  7  2  0
  6  8  1  0
  8  9  2  0
  8 10  1  0
 10 11  1  0
 11 12  1  0
 12 13  2  0
 12 14  1  0
 14 15  1  0
 15 16  1  0
 16 17  2  0
 17 18  1  0
 18 19  2  0
 19 20  1  0
 20 21  2  0
 21 16  1  0
  1 22  1  0
  1 23  1  0
  1 24  1  0
  3 25  1  0
  3 26  1  0
  3 27  1  0
  4 28  1  0
  4 29  1  0
  4 30  1  0
  5 31  1  0
 10 32  1  0
 11 33  1  0
 14 34  1  0
 14 35  1  0
 17 36  1  0
 18 37  1  0
 19 38  1  0
 20 39  1  0
 21 40  1  0
M  END
$$$$
