
     RDKit          3D

 57 58  0  0  0  0  0  0  0  0999 V2000
    7.4005    0.3517   -1.9319 C   0  0  0  0  0  0  0  0  0  0  0  0
    7.1051    1.0253   -0.6197 C   0  0  0  0  0  0  0  0  0  0  0  0
    8.1576    1.5657    0.1351 C   0  0  0  0  0  0  0  0  0  0  0  0
    7.9052    2.1934    1.3528 C   0  0  0  0  0  0  0  0  0  0  0  0
    6.6000    2.2870    1.8249 C   0  0  0  0  0  0  0  0  0  0  0  0
    5.5430    1.7534    1.0818 C   0  0  0  0  0  0  0  0  0  0  0  0
    5.7844    1.1202   -0.1409 C   0  0  0  0  0  0  0  0  0  0  0  0
    4.8282    0.5607   -0.9461 O   0  0  0  0  0  0  0  0  0  0  0  0
    3.4621    0.5780   -0.5314 C   0  0  0  0  0  0  0  0  0  0  0  0
    3.1612   -0.6071    0.3744 C   0  0  0  0  0  0  0  0  0  0  0  0
    1.7051   -0.6401    0.7420 C   0  0  0  0  0  0  0  0  0  0  0  0
    0.8948    0.2502    0.5214 O   0  0  0  0  0  0  0  0  0  0  0  0
    1.4161   -1.8063    1.3855 O   0  0  0  0  0  0  0  0  0  0  0  0
    0.0320   -1.9563    1.7246 C   0  0  0  0  0  0  0  0  0  0  0  0
   -0.8514   -2.1408    0.4861 C   0  0  0  0  0  0  0  0  0  0  0  0
   -0.3668   -2.5450   -0.5776 O   0  0  0  0  0  0  0  0  0  0  0  0
   -2.3011   -1.7481    0.5732 C   0  0  0  0  0  0  0  0  0  0  0  0
   -2.9843   -1.3754   -0.5346 C   0  0  0  0  0  0  0  0  0  0  0  0
   -2.4208   -1.4324   -1.8050 N   0  0  0  0  0  0  0  0  0  0  0  0
   -4.3066   -0.9461   -0.4097 N   0  0  0  0  0  0  0  0  0  0  0  0
   -5.0950   -0.6334   -1.6165 C   0  0  0  0  0  0  0  0  0  0  0  0
   -4.9213    0.8181   -2.1153 C   0  0  0  0  0  0  0  0  0  0  0  0
   -5.5192    1.8462   -1.1538 C   0  0  0  0  0  0  0  0  0  0  0  0
   -5.5664    0.9677   -3.4953 C   0  0  0  0  0  0  0  0  0  0  0  0
   -4.9684   -0.8354    0.8127 C   0  0  0  0  0  0  0  0  0  0  0  0
   -6.1512   -0.4987    0.8990 O   0  0  0  0  0  0  0  0  0  0  0  0
   -4.2242   -1.1393    1.9373 N   0  0  0  0  0  0  0  0  0  0  0  0
   -4.8933   -1.0630    3.2233 C   0  0  0  0  0  0  0  0  0  0  0  0
   -2.9872   -1.7338    1.8826 C   0  0  0  0  0  0  0  0  0  0  0  0
   -2.4499   -2.2546    2.8597 O   0  0  0  0  0  0  0  0  0  0  0  0
    8.4734    0.3510   -2.1515 H   0  0  0  0  0  0  0  0  0  0  0  0
    7.0677   -0.6908   -1.9059 H   0  0  0  0  0  0  0  0  0  0  0  0
    6.8939    0.8758   -2.7490 H   0  0  0  0  0  0  0  0  0  0  0  0
    9.1821    1.4993   -0.2239 H   0  0  0  0  0  0  0  0  0  0  0  0
    8.7261    2.6089    1.9313 H   0  0  0  0  0  0  0  0  0  0  0  0
    6.4016    2.7771    2.7747 H   0  0  0  0  0  0  0  0  0  0  0  0
    4.5452    1.8524    1.4933 H   0  0  0  0  0  0  0  0  0  0  0  0
    2.8658    0.4835   -1.4477 H   0  0  0  0  0  0  0  0  0  0  0  0
    3.1710    1.5426   -0.0997 H   0  0  0  0  0  0  0  0  0  0  0  0
    3.4227   -1.5356   -0.1459 H   0  0  0  0  0  0  0  0  0  0  0  0
    3.7544   -0.5596    1.2928 H   0  0  0  0  0  0  0  0  0  0  0  0
   -0.0460   -2.8596    2.3370 H   0  0  0  0  0  0  0  0  0  0  0  0
   -0.2838   -1.0919    2.3183 H   0  0  0  0  0  0  0  0  0  0  0  0
   -1.4490   -1.7699   -1.7947 H   0  0  0  0  0  0  0  0  0  0  0  0
   -2.4647   -0.5417   -2.2896 H   0  0  0  0  0  0  0  0  0  0  0  0
   -6.1578   -0.8233   -1.4193 H   0  0  0  0  0  0  0  0  0  0  0  0
   -4.8258   -1.3468   -2.4056 H   0  0  0  0  0  0  0  0  0  0  0  0
   -3.8553    1.0484   -2.2196 H   0  0  0  0  0  0  0  0  0  0  0  0
   -4.9977    1.8386   -0.1919 H   0  0  0  0  0  0  0  0  0  0  0  0
   -5.4276    2.8582   -1.5629 H   0  0  0  0  0  0  0  0  0  0  0  0
   -6.5817    1.6525   -0.9728 H   0  0  0  0  0  0  0  0  0  0  0  0
   -5.1128    0.2763   -4.2133 H   0  0  0  0  0  0  0  0  0  0  0  0
   -6.6413    0.7607   -3.4562 H   0  0  0  0  0  0  0  0  0  0  0  0
   -5.4305    1.9835   -3.8813 H   0  0  0  0  0  0  0  0  0  0  0  0
   -5.5511   -0.1892    3.2628 H   0  0  0  0  0  0  0  0  0  0  0  0
   -4.1702   -0.9950    4.0415 H   0  0  0  0  0  0  0  0  0  0  0  0
   -5.4968   -1.9671    3.3543 H   0  0  0  0  0  0  0  0  0  0  0  0
  1  2  1  0
  2  3  2  0
  3  4  1  0
  4  5  2  0
  5  6  1  0
  6  7  2  0
  7  8  1  0
  8  9  1  0
  9 10  1  0
 10 11  1  0
 11 12  2  0
 11 13  1  0
 13 14  1  0
 14 15  1  0
 15 16  2  0
 15 17  1  0
 17 18  2  0
 18 19  1  0
 18 20  1  0
 20 21  1  0
 21 22  1  0
 22 23  1  0
 22 24  1  0
 20 25  1  0
 25 26  2  0
 25 27  1  0
 27 28  1  0
 27 29  1  0
 29 30  2  0
  7  2  1  0
 29 17  1  0
  1 31  1  0
  1 32  1  0
  1 33  1  0
  3 34  1  0
  4 35  1  0
  5 36  1  0
  6 37  1  0
  9 38  1  0
  9 39  1  0
 10 40  1  0
 10 41  1  0
 14 42  1  0
 14 43  1  0
 19 44  1  0
 19 45  1  0
 21 46  1  0
 21 47  1  0
 22 48  1  0
 23 49  1  0
 23 50  1  0
 23 51  1  0
 24 52  1  0
 24 53  1  0
 24 54  1  0
 28 55  1  0
 28 56  1  0
 28 57  1  0
M  END
$$$$
