
     RDKit          3D

 45 47  0  0  0  0  0  0  0  0999 V2000
    2.9997   -2.1642   -0.0073 O   0  0  0  0  0  0  0  0  0  0  0  0
    2.5175   -1.2634    0.6757 C   0  0  0  0  0  0  0  0  0  0  0  0
    3.2885   -0.2387    1.1940 N   0  0  0  0  0  0  0  0  0  0  0  0
    4.6152   -0.1511    0.7169 N   0  0  0  0  0  0  0  0  0  0  0  0
    5.0776    1.1089    0.3576 C   0  0  0  0  0  0  0  0  0  0  0  0
    4.4218    2.1099    0.6586 O   0  0  0  0  0  0  0  0  0  0  0  0
    6.3327    1.1223   -0.3816 C   0  0  0  0  0  0  0  0  0  0  0  0
    7.2274    0.0986   -0.6475 C   0  0  0  0  0  0  0  0  0  0  0  0
    8.3475    0.5332   -1.4172 C   0  0  0  0  0  0  0  0  0  0  0  0
    8.2797    1.8748   -1.7127 C   0  0  0  0  0  0  0  0  0  0  0  0
    6.8783    2.6029   -1.0628 S   0  0  0  0  0  0  0  0  0  0  0  0
    1.0543   -1.2055    0.9493 C   0  0  0  0  0  0  0  0  0  0  0  0
    0.5226   -0.4787    2.0259 C   0  0  0  0  0  0  0  0  0  0  0  0
   -0.8588   -0.4532    2.2418 C   0  0  0  0  0  0  0  0  0  0  0  0
   -1.7038   -1.1592    1.3814 C   0  0  0  0  0  0  0  0  0  0  0  0
   -3.4623   -1.1398    1.6387 S   0  0  0  0  0  6  0  0  0  0  0  0
   -3.8959   -2.5193    1.6803 O   0  0  0  0  0  0  0  0  0  0  0  0
   -3.7568   -0.2232    2.7203 O   0  0  0  0  0  0  0  0  0  0  0  0
   -4.0456   -0.4270    0.1920 N   0  0  0  0  0  0  0  0  0  0  0  0
   -3.6574    1.0005    0.0030 C   0  0  0  0  0  0  0  0  0  0  0  0
   -4.0107    1.4378   -1.4162 C   0  0  0  0  0  0  0  0  0  0  0  0
   -5.4954    1.2353   -1.7023 C   0  0  0  0  0  0  0  0  0  0  0  0
   -5.9101   -0.2020   -1.4041 C   0  0  0  0  0  0  0  0  0  0  0  0
   -5.5147   -0.6132    0.0120 C   0  0  0  0  0  0  0  0  0  0  0  0
   -1.1851   -1.9030    0.3181 C   0  0  0  0  0  0  0  0  0  0  0  0
    0.1946   -1.9257    0.1056 C   0  0  0  0  0  0  0  0  0  0  0  0
    2.8713    0.6592    1.4409 H   0  0  0  0  0  0  0  0  0  0  0  0
    4.9425   -0.9818    0.2268 H   0  0  0  0  0  0  0  0  0  0  0  0
    7.1057   -0.9222   -0.3060 H   0  0  0  0  0  0  0  0  0  0  0  0
    9.1628   -0.1062   -1.7342 H   0  0  0  0  0  0  0  0  0  0  0  0
    8.9880    2.4667   -2.2766 H   0  0  0  0  0  0  0  0  0  0  0  0
    1.1650    0.0523    2.7237 H   0  0  0  0  0  0  0  0  0  0  0  0
   -1.2635    0.1066    3.0830 H   0  0  0  0  0  0  0  0  0  0  0  0
   -4.1741    1.6333    0.7339 H   0  0  0  0  0  0  0  0  0  0  0  0
   -2.5795    1.1255    0.1411 H   0  0  0  0  0  0  0  0  0  0  0  0
   -3.7473    2.4920   -1.5562 H   0  0  0  0  0  0  0  0  0  0  0  0
   -3.4204    0.8577   -2.1366 H   0  0  0  0  0  0  0  0  0  0  0  0
   -6.0856    1.9234   -1.0848 H   0  0  0  0  0  0  0  0  0  0  0  0
   -5.7103    1.4765   -2.7492 H   0  0  0  0  0  0  0  0  0  0  0  0
   -6.9928   -0.3095   -1.5330 H   0  0  0  0  0  0  0  0  0  0  0  0
   -5.4301   -0.8734   -2.1272 H   0  0  0  0  0  0  0  0  0  0  0  0
   -6.0629   -0.0183    0.7519 H   0  0  0  0  0  0  0  0  0  0  0  0
   -5.7817   -1.6663    0.1485 H   0  0  0  0  0  0  0  0  0  0  0  0
   -1.8474   -2.4643   -0.3383 H   0  0  0  0  0  0  0  0  0  0  0  0
    0.5991   -2.5082   -0.7210 H   0  0  0  0  0  0  0  0  0  0  0  0
  1  2  2  0
  2  3  1  0
  3  4  1  0
  4  5  1  0
  5  6  2  0
  5  7  1  0
  7  8  2  0
  8  9  1  0
  9 10  2  0
 10 11  1  0
  2 12  1  0
 12 13  2  0
 13 14  1  0
 14 15  2  0
 15 16  1  0
 16 17  2  0
 16 18  2  0
 16 19  1  0
 19 20  1  0
 20 21  1  0
 21 22  1  0
 22 23  1  0
 23 24  1  0
 15 25  1  0
 25 26  2  0
 11  7  1  0
 26 12  1  0
 24 19  1  0
  3 27  1  0
  4 28  1  0
  8 29  1  0
  9 30  1  0
 10 31  1  0
 13 32  1  0
 14 33  1  0
 20 34  1  0
 20 35  1  0
 21 36  1  0
 21 37  1  0
 22 38  1  0
 22 39  1  0
 23 40  1  0
 23 41  1  0
 24 42  1  0
 24 43  1  0
 25 44  1  0
 26 45  1  0
M  END
$$$$
