
     RDKit          3D

 25 27  0  0  0  0  0  0  0  0999 V2000
    2.3654    1.9290    2.2112 O   0  0  0  0  0  0  0  0  0  0  0  0
    1.7713    0.9776    1.7099 C   0  0  0  0  0  0  0  0  0  0  0  0
    0.6730    1.1733    0.7368 C   0  0  0  0  0  0  0  0  0  0  0  0
    0.2431    2.4753    0.4616 C   0  0  0  0  0  0  0  0  0  0  0  0
   -0.7825    2.6816   -0.4492 C   0  0  0  0  0  0  0  0  0  0  0  0
   -1.3773    1.5900   -1.0829 C   0  0  0  0  0  0  0  0  0  0  0  0
   -0.9650    0.2564   -0.8228 C   0  0  0  0  0  0  0  0  0  0  0  0
   -1.5199   -0.8998   -1.4366 C   0  0  0  0  0  0  0  0  0  0  0  0
   -2.6122   -0.7817   -2.3889 N   0  0  0  0  0  4  0  0  0  0  0  0
   -3.6732   -0.2956   -1.9772 O   0  0  0  0  0  0  0  0  0  0  0  0
   -2.4016   -1.1948   -3.5362 O   0  0  0  0  0  1  0  0  0  0  0  0
   -1.0588   -2.1953   -1.1723 C   0  0  0  0  0  0  0  0  0  0  0  0
   -0.0250   -2.3690   -0.2613 C   0  0  0  0  0  0  0  0  0  0  0  0
    0.5412   -1.2554    0.3767 C   0  0  0  0  0  0  0  0  0  0  0  0
    0.0898    0.0555    0.1079 C   0  0  0  0  0  0  0  0  0  0  0  0
    1.6432   -1.4786    1.3505 C   0  0  0  0  0  0  0  0  0  0  0  0
    2.0795   -2.6133    1.5161 O   0  0  0  0  0  0  0  0  0  0  0  0
    2.0941   -0.3373    1.9878 N   0  0  0  0  0  0  0  0  0  0  0  0
    3.1750   -0.5130    2.8829 O   0  0  0  0  0  0  0  0  0  0  0  0
    0.7056    3.3291    0.9548 H   0  0  0  0  0  0  0  0  0  0  0  0
   -1.1232    3.6916   -0.6690 H   0  0  0  0  0  0  0  0  0  0  0  0
   -2.1784    1.8037   -1.7914 H   0  0  0  0  0  0  0  0  0  0  0  0
   -1.4972   -3.0612   -1.6659 H   0  0  0  0  0  0  0  0  0  0  0  0
    0.3402   -3.3732   -0.0461 H   0  0  0  0  0  0  0  0  0  0  0  0
    3.4931    0.4052    3.0035 H   0  0  0  0  0  0  0  0  0  0  0  0
  1  2  2  0
  2  3  1  0
  3  4  1  0
  4  5  2  0
  5  6  1  0
  6  7  2  0
  7  8  1  0
  8  9  1  0
  9 10  2  0
  9 11  1  0
  8 12  2  0
 12 13  1  0
 13 14  2  0
 14 15  1  0
 14 16  1  0
 16 17  2  0
 16 18  1  0
 18 19  1  0
 18  2  1  0
 15  3  2  0
 15  7  1  0
  4 20  1  0
  5 21  1  0
  6 22  1  0
 12 23  1  0
 13 24  1  0
 19 25  1  0
M  CHG  2   9   1  11  -1
M  END
$$$$
