
     RDKit          3D

 42 44  0  0  0  0  0  0  0  0999 V2000
   -5.2540    0.5676    0.6362 C   0  0  0  0  0  0  0  0  0  0  0  0
   -4.4796   -0.4967   -0.0919 C   0  0  0  0  0  0  0  0  0  0  0  0
   -4.6506   -1.8433    0.2633 C   0  0  0  0  0  0  0  0  0  0  0  0
   -3.9423   -2.8449   -0.3971 C   0  0  0  0  0  0  0  0  0  0  0  0
   -3.0594   -2.5098   -1.4186 C   0  0  0  0  0  0  0  0  0  0  0  0
   -2.8796   -1.1728   -1.7824 C   0  0  0  0  0  0  0  0  0  0  0  0
   -3.5833   -0.1595   -1.1233 C   0  0  0  0  0  0  0  0  0  0  0  0
   -3.4684    1.1815   -1.3861 O   0  0  0  0  0  0  0  0  0  0  0  0
   -2.5422    1.6028   -2.3796 C   0  0  0  0  0  0  0  0  0  0  0  0
   -1.0758    1.5381   -1.9444 C   0  0  0  0  0  0  0  0  0  0  0  0
   -0.1570    1.3624   -2.7412 O   0  0  0  0  0  0  0  0  0  0  0  0
   -0.8798    1.7209   -0.5914 N   0  0  0  0  0  0  0  0  0  0  0  0
    0.4327    1.5902    0.0104 C   0  0  0  0  0  0  0  0  0  0  0  0
    0.8754    0.1315    0.1265 C   0  0  0  0  0  0  0  0  0  0  0  0
    2.2764    0.0399    0.6184 C   0  0  0  0  0  0  0  0  0  0  0  0
    2.6734    0.0513    1.8738 N   0  0  0  0  0  0  0  0  0  0  0  0
    4.0433   -0.0451    1.8279 C   0  0  0  0  0  0  0  0  0  0  0  0
    4.9767   -0.0790    2.8736 C   0  0  0  0  0  0  0  0  0  0  0  0
    6.3375   -0.1798    2.5565 C   0  0  0  0  0  0  0  0  0  0  0  0
    6.7593   -0.2451    1.2259 C   0  0  0  0  0  0  0  0  0  0  0  0
    5.8419   -0.2127    0.1687 C   0  0  0  0  0  0  0  0  0  0  0  0
    4.4926   -0.1125    0.5140 C   0  0  0  0  0  0  0  0  0  0  0  0
    3.3474   -0.0563   -0.2371 N   0  0  0  0  0  0  0  0  0  0  0  0
   -5.8809    1.1274   -0.0654 H   0  0  0  0  0  0  0  0  0  0  0  0
   -4.5682    1.2556    1.1414 H   0  0  0  0  0  0  0  0  0  0  0  0
   -5.9127    0.1365    1.3975 H   0  0  0  0  0  0  0  0  0  0  0  0
   -5.3388   -2.1198    1.0592 H   0  0  0  0  0  0  0  0  0  0  0  0
   -4.0808   -3.8855   -0.1154 H   0  0  0  0  0  0  0  0  0  0  0  0
   -2.5076   -3.2911   -1.9357 H   0  0  0  0  0  0  0  0  0  0  0  0
   -2.1796   -0.9665   -2.5854 H   0  0  0  0  0  0  0  0  0  0  0  0
   -2.7577    2.6562   -2.5921 H   0  0  0  0  0  0  0  0  0  0  0  0
   -2.6881    1.0574   -3.3188 H   0  0  0  0  0  0  0  0  0  0  0  0
   -1.6999    1.6555    0.0050 H   0  0  0  0  0  0  0  0  0  0  0  0
    1.1437    2.1608   -0.5994 H   0  0  0  0  0  0  0  0  0  0  0  0
    0.3865    2.0624    0.9980 H   0  0  0  0  0  0  0  0  0  0  0  0
    0.2093   -0.4022    0.8154 H   0  0  0  0  0  0  0  0  0  0  0  0
    0.7882   -0.3793   -0.8400 H   0  0  0  0  0  0  0  0  0  0  0  0
    4.6411   -0.0275    3.9031 H   0  0  0  0  0  0  0  0  0  0  0  0
    7.0719   -0.2071    3.3579 H   0  0  0  0  0  0  0  0  0  0  0  0
    7.8224   -0.3228    1.0066 H   0  0  0  0  0  0  0  0  0  0  0  0
    6.1700   -0.2633   -0.8635 H   0  0  0  0  0  0  0  0  0  0  0  0
    3.2966   -0.0756   -1.2460 H   0  0  0  0  0  0  0  0  0  0  0  0
  1  2  1  0
  2  3  2  0
  3  4  1  0
  4  5  2  0
  5  6  1  0
  6  7  2  0
  7  8  1  0
  8  9  1  0
  9 10  1  0
 10 11  2  0
 10 12  1  0
 12 13  1  0
 13 14  1  0
 14 15  1  0
 15 16  2  0
 16 17  1  0
 17 18  2  0
 18 19  1  0
 19 20  2  0
 20 21  1  0
 21 22  2  0
 22 23  1  0
  7  2  1  0
 23 15  1  0
 22 17  1  0
  1 24  1  0
  1 25  1  0
  1 26  1  0
  3 27  1  0
  4 28  1  0
  5 29  1  0
  6 30  1  0
  9 31  1  0
  9 32  1  0
 12 33  1  0
 13 34  1  0
 13 35  1  0
 14 36  1  0
 14 37  1  0
 18 38  1  0
 19 39  1  0
 20 40  1  0
 21 41  1  0
 23 42  1  0
M  END
$$$$
