
     RDKit          3D

 57 60  0  0  0  0  0  0  0  0999 V2000
    8.3644    1.0276    0.2659 C   0  0  0  0  0  0  0  0  0  0  0  0
    6.8960    0.9169    0.6508 C   0  0  0  0  0  0  0  0  0  0  0  0
    5.9357    0.9508   -0.5480 C   0  0  0  0  0  0  0  0  0  0  0  0
    6.1731   -0.1906   -1.5351 C   0  0  0  0  0  0  0  0  0  0  0  0
    4.5596    0.8819   -0.0610 N   0  0  0  0  0  0  0  0  0  0  0  0
    3.7710    2.0035    0.0994 C   0  0  0  0  0  0  0  0  0  0  0  0
    4.0982    3.1346   -0.2357 O   0  0  0  0  0  0  0  0  0  0  0  0
    2.4318    1.7714    0.7030 C   0  0  0  0  0  0  0  0  0  0  0  0
    2.2462    0.8612    1.7523 C   0  0  0  0  0  0  0  0  0  0  0  0
    0.9793    0.6978    2.3177 C   0  0  0  0  0  0  0  0  0  0  0  0
   -0.1139    1.4416    1.8447 C   0  0  0  0  0  0  0  0  0  0  0  0
   -1.4772    1.2976    2.4800 C   0  0  0  0  0  0  0  0  0  0  0  0
   -2.3492   -0.2105    1.9708 S   0  0  0  0  0  0  0  0  0  0  0  0
   -3.3026    0.3616    0.6405 C   0  0  0  0  0  0  0  0  0  0  0  0
   -3.1031    1.4914    0.0034 N   0  0  0  0  0  0  0  0  0  0  0  0
   -4.0940    1.5592   -0.9412 C   0  0  0  0  0  0  0  0  0  0  0  0
   -4.3480    2.5525   -1.8857 C   0  0  0  0  0  0  0  0  0  0  0  0
   -5.4471    2.3338   -2.7037 C   0  0  0  0  0  0  0  0  0  0  0  0
   -6.2614    1.2574   -2.6363 N   0  0  0  0  0  0  0  0  0  0  0  0
   -6.0149    0.2995   -1.7151 C   0  0  0  0  0  0  0  0  0  0  0  0
   -4.9256    0.4463   -0.8703 C   0  0  0  0  0  0  0  0  0  0  0  0
   -4.3946   -0.3197    0.1483 N   0  0  0  0  0  0  0  0  0  0  0  0
   -4.9733   -1.5525    0.6614 C   0  0  0  0  0  0  0  0  0  0  0  0
   -4.2671   -2.7877    0.1525 C   0  0  0  0  0  0  0  0  0  0  0  0
   -3.5644   -3.6171    1.0443 C   0  0  0  0  0  0  0  0  0  0  0  0
   -2.9451   -4.7807    0.5977 C   0  0  0  0  0  0  0  0  0  0  0  0
   -3.0195   -5.1221   -0.7472 C   0  0  0  0  0  0  0  0  0  0  0  0
   -2.4399   -6.2488   -1.1758 F   0  0  0  0  0  0  0  0  0  0  0  0
   -3.6998   -4.3175   -1.6519 C   0  0  0  0  0  0  0  0  0  0  0  0
   -4.3217   -3.1507   -1.2053 C   0  0  0  0  0  0  0  0  0  0  0  0
    0.0820    2.3430    0.7877 C   0  0  0  0  0  0  0  0  0  0  0  0
    1.3490    2.5178    0.2297 C   0  0  0  0  0  0  0  0  0  0  0  0
    8.5489    1.9321   -0.3190 H   0  0  0  0  0  0  0  0  0  0  0  0
    8.9877    1.0718    1.1658 H   0  0  0  0  0  0  0  0  0  0  0  0
    8.6913    0.1586   -0.3179 H   0  0  0  0  0  0  0  0  0  0  0  0
    6.6525    1.7427    1.3312 H   0  0  0  0  0  0  0  0  0  0  0  0
    6.7440   -0.0052    1.2239 H   0  0  0  0  0  0  0  0  0  0  0  0
    6.0709    1.9031   -1.0794 H   0  0  0  0  0  0  0  0  0  0  0  0
    6.0672   -1.1622   -1.0490 H   0  0  0  0  0  0  0  0  0  0  0  0
    5.4428   -0.1521   -2.3465 H   0  0  0  0  0  0  0  0  0  0  0  0
    7.1671   -0.1373   -1.9902 H   0  0  0  0  0  0  0  0  0  0  0  0
    4.1921   -0.0245    0.2017 H   0  0  0  0  0  0  0  0  0  0  0  0
    3.0825    0.3038    2.1627 H   0  0  0  0  0  0  0  0  0  0  0  0
    0.8479   -0.0022    3.1463 H   0  0  0  0  0  0  0  0  0  0  0  0
   -1.3469    1.2525    3.5670 H   0  0  0  0  0  0  0  0  0  0  0  0
   -2.0881    2.1900    2.3025 H   0  0  0  0  0  0  0  0  0  0  0  0
   -3.7245    3.4333   -1.9749 H   0  0  0  0  0  0  0  0  0  0  0  0
   -5.7112    3.0530   -3.4724 H   0  0  0  0  0  0  0  0  0  0  0  0
   -6.6926   -0.5468   -1.6991 H   0  0  0  0  0  0  0  0  0  0  0  0
   -6.0318   -1.5912    0.3726 H   0  0  0  0  0  0  0  0  0  0  0  0
   -4.9636   -1.4991    1.7560 H   0  0  0  0  0  0  0  0  0  0  0  0
   -3.4901   -3.3630    2.0930 H   0  0  0  0  0  0  0  0  0  0  0  0
   -2.4041   -5.4238    1.2835 H   0  0  0  0  0  0  0  0  0  0  0  0
   -3.7486   -4.6045   -2.6937 H   0  0  0  0  0  0  0  0  0  0  0  0
   -4.8536   -2.5357   -1.9272 H   0  0  0  0  0  0  0  0  0  0  0  0
   -0.7547    2.9209    0.3992 H   0  0  0  0  0  0  0  0  0  0  0  0
    1.4907    3.2364   -0.5741 H   0  0  0  0  0  0  0  0  0  0  0  0
  1  2  1  0
  2  3  1  0
  3  4  1  0
  3  5  1  0
  5  6  1  0
  6  7  2  0
  6  8  1  0
  8  9  2  0
  9 10  1  0
 10 11  2  0
 11 12  1  0
 12 13  1  0
 13 14  1  0
 14 15  2  0
 15 16  1  0
 16 17  2  0
 17 18  1  0
 18 19  2  0
 19 20  1  0
 20 21  2  0
 21 22  1  0
 22 23  1  0
 23 24  1  0
 24 25  2  0
 25 26  1  0
 26 27  2  0
 27 28  1  0
 27 29  1  0
 29 30  2  0
 11 31  1  0
 31 32  2  0
 32  8  1  0
 22 14  1  0
 30 24  1  0
 21 16  1  0
  1 33  1  0
  1 34  1  0
  1 35  1  0
  2 36  1  0
  2 37  1  0
  3 38  1  0
  4 39  1  0
  4 40  1  0
  4 41  1  0
  5 42  1  0
  9 43  1  0
 10 44  1  0
 12 45  1  0
 12 46  1  0
 17 47  1  0
 18 48  1  0
 20 49  1  0
 23 50  1  0
 23 51  1  0
 25 52  1  0
 26 53  1  0
 29 54  1  0
 30 55  1  0
 31 56  1  0
 32 57  1  0
M  END
$$$$
