
     RDKit          3D

 43 44  0  0  0  0  0  0  0  0999 V2000
   -4.6434    3.6440   -0.9883 C   0  0  0  0  0  0  0  0  0  0  0  0
   -4.9185    2.2228   -0.5373 C   0  0  0  0  0  0  0  0  0  0  0  0
   -3.6632    1.5614   -0.3544 O   0  0  0  0  0  0  0  0  0  0  0  0
   -3.7576    0.2626    0.0621 C   0  0  0  0  0  0  0  0  0  0  0  0
   -4.8233   -0.3130    0.2551 O   0  0  0  0  0  0  0  0  0  0  0  0
   -2.4476   -0.3816    0.2570 C   0  0  0  0  0  0  0  0  0  0  0  0
   -1.3060    0.3162    0.1680 N   0  0  0  0  0  0  0  0  0  0  0  0
   -0.2997   -0.5588    0.4095 N   0  0  0  0  0  0  0  0  0  0  0  0
    1.0465   -0.1128    0.2154 C   0  0  0  0  0  0  0  0  0  0  0  0
    2.1244   -0.9939    0.0798 C   0  0  0  0  0  0  0  0  0  0  0  0
    3.4269   -0.5074   -0.1164 C   0  0  0  0  0  0  0  0  0  0  0  0
    3.6680    0.8630   -0.1909 C   0  0  0  0  0  0  0  0  0  0  0  0
    4.8829    1.4602   -0.3776 O   0  0  0  0  0  0  0  0  0  0  0  0
    6.0205    0.6057   -0.4769 C   0  0  0  0  0  0  0  0  0  0  0  0
    7.2486    1.4799   -0.6565 C   0  0  0  0  0  0  0  0  0  0  0  0
    2.5941    1.7446   -0.0802 C   0  0  0  0  0  0  0  0  0  0  0  0
    1.2945    1.2661    0.1137 C   0  0  0  0  0  0  0  0  0  0  0  0
   -0.8041   -1.7907    0.8099 C   0  0  0  0  0  0  0  0  0  0  0  0
    0.0060   -2.9093    1.3669 C   0  0  0  0  0  0  0  0  0  0  0  0
   -2.1822   -1.7330    0.6101 C   0  0  0  0  0  0  0  0  0  0  0  0
   -3.1184   -2.8380    0.8028 C   0  0  0  0  0  0  0  0  0  0  0  0
   -4.1817   -3.0928   -0.2360 C   0  0  0  0  0  0  0  0  0  0  0  0
   -3.0189   -3.5951    1.7685 O   0  0  0  0  0  0  0  0  0  0  0  0
   -4.0400    4.1745   -0.2443 H   0  0  0  0  0  0  0  0  0  0  0  0
   -4.0726    3.6482   -1.9228 H   0  0  0  0  0  0  0  0  0  0  0  0
   -5.5771    4.1922   -1.1421 H   0  0  0  0  0  0  0  0  0  0  0  0
   -5.4717    2.2357    0.4085 H   0  0  0  0  0  0  0  0  0  0  0  0
   -5.5045    1.6996   -1.3011 H   0  0  0  0  0  0  0  0  0  0  0  0
    1.9993   -2.0694    0.0743 H   0  0  0  0  0  0  0  0  0  0  0  0
    4.2285   -1.2319   -0.2195 H   0  0  0  0  0  0  0  0  0  0  0  0
    6.1336    0.0137    0.4387 H   0  0  0  0  0  0  0  0  0  0  0  0
    5.9232   -0.0569   -1.3446 H   0  0  0  0  0  0  0  0  0  0  0  0
    7.1547    2.0964   -1.5567 H   0  0  0  0  0  0  0  0  0  0  0  0
    7.3604    2.1661    0.1896 H   0  0  0  0  0  0  0  0  0  0  0  0
    8.1527    0.8701   -0.7386 H   0  0  0  0  0  0  0  0  0  0  0  0
    2.7664    2.8164   -0.1459 H   0  0  0  0  0  0  0  0  0  0  0  0
    0.4860    1.9910    0.1965 H   0  0  0  0  0  0  0  0  0  0  0  0
    0.8354   -2.5419    1.9786 H   0  0  0  0  0  0  0  0  0  0  0  0
   -0.5874   -3.5461    2.0284 H   0  0  0  0  0  0  0  0  0  0  0  0
    0.3914   -3.5435    0.5630 H   0  0  0  0  0  0  0  0  0  0  0  0
   -4.1452   -4.1478   -0.5240 H   0  0  0  0  0  0  0  0  0  0  0  0
   -5.1659   -2.8691    0.1823 H   0  0  0  0  0  0  0  0  0  0  0  0
   -4.0149   -2.4975   -1.1373 H   0  0  0  0  0  0  0  0  0  0  0  0
  1  2  1  0
  2  3  1  0
  3  4  1  0
  4  5  2  0
  4  6  1  0
  6  7  2  0
  7  8  1  0
  8  9  1  0
  9 10  2  0
 10 11  1  0
 11 12  2  0
 12 13  1  0
 13 14  1  0
 14 15  1  0
 12 16  1  0
 16 17  2  0
  8 18  1  0
 18 19  1  0
 18 20  2  0
 20 21  1  0
 21 22  1  0
 21 23  2  0
 20  6  1  0
 17  9  1  0
  1 24  1  0
  1 25  1  0
  1 26  1  0
  2 27  1  0
  2 28  1  0
 10 29  1  0
 11 30  1  0
 14 31  1  0
 14 32  1  0
 15 33  1  0
 15 34  1  0
 15 35  1  0
 16 36  1  0
 17 37  1  0
 19 38  1  0
 19 39  1  0
 19 40  1  0
 22 41  1  0
 22 42  1  0
 22 43  1  0
M  END
$$$$
