
     RDKit          3D

 49 50  0  0  0  0  0  0  0  0999 V2000
   -4.9705    3.1486    1.6225 C   0  0  0  0  0  0  0  0  0  0  0  0
   -5.3567    1.8226    1.2802 O   0  0  0  0  0  0  0  0  0  0  0  0
   -4.4615    1.0649    0.5730 C   0  0  0  0  0  0  0  0  0  0  0  0
   -3.1578    1.4551    0.2461 C   0  0  0  0  0  0  0  0  0  0  0  0
   -2.3132    0.6163   -0.5049 C   0  0  0  0  0  0  0  0  0  0  0  0
   -0.9420    1.0741   -0.7854 C   0  0  0  0  0  0  0  0  0  0  0  0
   -0.2095    0.6998   -1.8451 C   0  0  0  0  0  0  0  0  0  0  0  0
    1.1678    1.1687   -2.0977 C   0  0  0  0  0  0  0  0  0  0  0  0
    1.9010    0.6281   -2.9133 O   0  0  0  0  0  0  0  0  0  0  0  0
    1.4884    2.2357   -1.3333 O   0  0  0  0  0  0  0  0  0  0  0  0
    2.7978    2.7689   -1.5414 C   0  0  0  0  0  0  0  0  0  0  0  0
    3.8882    2.0228   -0.7684 C   0  0  0  0  0  0  0  0  0  0  0  0
    4.5130    2.5496    0.1485 O   0  0  0  0  0  0  0  0  0  0  0  0
    4.1036    0.7307   -1.1964 N   0  0  0  0  0  0  0  0  0  0  0  0
    5.1653   -0.0968   -0.6571 C   0  0  0  0  0  0  0  0  0  0  0  0
    4.7605   -1.5658   -0.5494 C   0  0  0  0  0  0  0  0  0  0  0  0
    3.6316   -1.8145    0.4395 C   0  0  0  0  0  0  0  0  0  0  0  0
    3.9118   -3.2273    0.8830 C   0  0  0  0  0  0  0  0  0  0  0  0
    5.4222   -3.2434    0.9313 C   0  0  0  0  0  0  0  0  0  0  0  0
    5.8729   -2.3628   -0.1034 O   0  0  0  0  0  0  0  0  0  0  0  0
   -2.7906   -0.6341   -0.9155 C   0  0  0  0  0  0  0  0  0  0  0  0
   -4.0898   -1.0335   -0.5995 C   0  0  0  0  0  0  0  0  0  0  0  0
   -4.9088   -0.1969    0.1573 C   0  0  0  0  0  0  0  0  0  0  0  0
   -6.1840   -0.6364    0.4080 O   0  0  0  0  0  0  0  0  0  0  0  0
   -6.3235   -1.0558    1.7704 C   0  0  0  0  0  0  0  0  0  0  0  0
   -7.6979   -1.5261    2.0179 C   0  0  0  0  0  0  0  0  0  0  0  0
   -8.7717   -1.9173    2.2375 N   0  0  0  0  0  0  0  0  0  0  0  0
   -4.1060    3.1481    2.2962 H   0  0  0  0  0  0  0  0  0  0  0  0
   -4.7762    3.7482    0.7277 H   0  0  0  0  0  0  0  0  0  0  0  0
   -5.8048    3.6081    2.1575 H   0  0  0  0  0  0  0  0  0  0  0  0
   -2.7778    2.4242    0.5578 H   0  0  0  0  0  0  0  0  0  0  0  0
   -0.5311    1.7712   -0.0604 H   0  0  0  0  0  0  0  0  0  0  0  0
   -0.5775    0.0065   -2.5890 H   0  0  0  0  0  0  0  0  0  0  0  0
    2.7837    3.8060   -1.1882 H   0  0  0  0  0  0  0  0  0  0  0  0
    3.0567    2.8044   -2.6069 H   0  0  0  0  0  0  0  0  0  0  0  0
    3.6675    0.4468   -2.0731 H   0  0  0  0  0  0  0  0  0  0  0  0
    5.4882    0.2809    0.3198 H   0  0  0  0  0  0  0  0  0  0  0  0
    6.0264    0.0028   -1.3256 H   0  0  0  0  0  0  0  0  0  0  0  0
    4.4748   -1.9437   -1.5380 H   0  0  0  0  0  0  0  0  0  0  0  0
    2.6409   -1.6911   -0.0096 H   0  0  0  0  0  0  0  0  0  0  0  0
    3.7012   -1.1389    1.3011 H   0  0  0  0  0  0  0  0  0  0  0  0
    3.5520   -3.9321    0.1247 H   0  0  0  0  0  0  0  0  0  0  0  0
    3.4523   -3.4858    1.8388 H   0  0  0  0  0  0  0  0  0  0  0  0
    5.7960   -2.8562    1.8823 H   0  0  0  0  0  0  0  0  0  0  0  0
    5.8392   -4.2413    0.7747 H   0  0  0  0  0  0  0  0  0  0  0  0
   -2.1645   -1.3168   -1.4824 H   0  0  0  0  0  0  0  0  0  0  0  0
   -4.4597   -1.9965   -0.9414 H   0  0  0  0  0  0  0  0  0  0  0  0
   -6.1013   -0.2406    2.4599 H   0  0  0  0  0  0  0  0  0  0  0  0
   -5.6261   -1.8798    1.9683 H   0  0  0  0  0  0  0  0  0  0  0  0
  1  2  1  0
  2  3  1  0
  3  4  2  0
  4  5  1  0
  5  6  1  0
  6  7  2  3
  7  8  1  0
  8  9  2  0
  8 10  1  0
 10 11  1  0
 11 12  1  0
 12 13  2  0
 12 14  1  0
 14 15  1  0
 15 16  1  0
 16 17  1  0
 17 18  1  0
 18 19  1  0
 19 20  1  0
  5 21  2  0
 21 22  1  0
 22 23  2  0
 23 24  1  0
 24 25  1  0
 25 26  1  0
 26 27  3  0
 23  3  1  0
 20 16  1  0
  1 28  1  0
  1 29  1  0
  1 30  1  0
  4 31  1  0
  6 32  1  0
  7 33  1  0
 11 34  1  0
 11 35  1  0
 14 36  1  0
 15 37  1  0
 15 38  1  0
 16 39  1  0
 17 40  1  0
 17 41  1  0
 18 42  1  0
 18 43  1  0
 19 44  1  0
 19 45  1  0
 21 46  1  0
 22 47  1  0
 25 48  1  0
 25 49  1  0
M  END
$$$$
