
     RDKit          3D

 34 36  0  0  0  0  0  0  0  0999 V2000
    0.0512    0.8698    1.8546 O   0  0  0  0  0  0  0  0  0  0  0  0
   -0.3815   -0.0639    1.1849 C   0  0  0  0  0  0  0  0  0  0  0  0
   -1.8142   -0.5457    1.3721 C   0  0  0  0  0  0  0  0  0  0  0  0
   -2.7885    0.1455    0.4439 C   0  0  0  0  0  0  0  0  0  0  0  0
   -3.1666    1.4656    0.7505 C   0  0  0  0  0  0  0  0  0  0  0  0
   -4.0771    2.1623   -0.0494 C   0  0  0  0  0  0  0  0  0  0  0  0
   -4.6320    1.5582   -1.1753 C   0  0  0  0  0  0  0  0  0  0  0  0
   -4.2702    0.2558   -1.5116 C   0  0  0  0  0  0  0  0  0  0  0  0
   -3.3490   -0.4377   -0.7099 C   0  0  0  0  0  0  0  0  0  0  0  0
   -2.9892   -1.7866   -1.1354 N   0  0  0  0  0  4  0  0  0  0  0  0
   -3.9092   -2.5462   -1.4636 O   0  0  0  0  0  0  0  0  0  0  0  0
   -1.7827   -2.0778   -1.1491 O   0  0  0  0  0  1  0  0  0  0  0  0
    0.3030   -0.7673    0.2109 N   0  0  0  0  0  0  0  0  0  0  0  0
    1.6387   -0.5889   -0.2039 C   0  0  0  0  0  0  0  0  0  0  0  0
    2.0841   -1.4030   -1.2706 C   0  0  0  0  0  0  0  0  0  0  0  0
    3.3921   -1.3084   -1.7588 C   0  0  0  0  0  0  0  0  0  0  0  0
    4.2297   -0.3951   -1.1617 C   0  0  0  0  0  0  0  0  0  0  0  0
    3.8058    0.3988   -0.1233 C   0  0  0  0  0  0  0  0  0  0  0  0
    2.5205    0.3268    0.3784 C   0  0  0  0  0  0  0  0  0  0  0  0
    4.7864    1.2298    0.3244 O   0  0  0  0  0  0  0  0  0  0  0  0
    5.8724    0.8673   -0.5520 C   0  0  0  0  0  0  0  0  0  0  0  0
    5.5261   -0.1648   -1.4989 O   0  0  0  0  0  0  0  0  0  0  0  0
   -2.1018   -0.3387    2.4119 H   0  0  0  0  0  0  0  0  0  0  0  0
   -1.8624   -1.6366    1.2945 H   0  0  0  0  0  0  0  0  0  0  0  0
   -2.7462    1.9671    1.6235 H   0  0  0  0  0  0  0  0  0  0  0  0
   -4.3521    3.1828    0.2104 H   0  0  0  0  0  0  0  0  0  0  0  0
   -5.3416    2.1054   -1.7918 H   0  0  0  0  0  0  0  0  0  0  0  0
   -4.7031   -0.2063   -2.3971 H   0  0  0  0  0  0  0  0  0  0  0  0
   -0.2303   -1.4646   -0.3079 H   0  0  0  0  0  0  0  0  0  0  0  0
    1.4099   -2.1209   -1.7336 H   0  0  0  0  0  0  0  0  0  0  0  0
    3.7347   -1.9312   -2.5770 H   0  0  0  0  0  0  0  0  0  0  0  0
    2.2410    0.9740    1.1999 H   0  0  0  0  0  0  0  0  0  0  0  0
    6.1889    1.7588   -1.1057 H   0  0  0  0  0  0  0  0  0  0  0  0
    6.7128    0.5157    0.0576 H   0  0  0  0  0  0  0  0  0  0  0  0
  1  2  2  0
  2  3  1  0
  3  4  1  0
  4  5  2  0
  5  6  1  0
  6  7  2  0
  7  8  1  0
  8  9  2  0
  9 10  1  0
 10 11  2  0
 10 12  1  0
  2 13  1  0
 13 14  1  0
 14 15  2  0
 15 16  1  0
 16 17  2  0
 17 18  1  0
 18 19  2  0
 18 20  1  0
 20 21  1  0
 21 22  1  0
  9  4  1  0
 19 14  1  0
 22 17  1  0
  3 23  1  0
  3 24  1  0
  5 25  1  0
  6 26  1  0
  7 27  1  0
  8 28  1  0
 13 29  1  0
 15 30  1  0
 16 31  1  0
 19 32  1  0
 21 33  1  0
 21 34  1  0
M  CHG  2  10   1  12  -1
M  END
$$$$
