
     RDKit          3D

 49 52  0  0  0  0  0  0  0  0999 V2000
   -6.9078   -0.4166    2.6140 C   0  0  0  0  0  0  0  0  0  0  0  0
   -6.3232   -0.0350    1.2854 C   0  0  0  0  0  0  0  0  0  0  0  0
   -7.1245    0.5534    0.3005 C   0  0  0  0  0  0  0  0  0  0  0  0
   -6.5773    0.9329   -0.9294 C   0  0  0  0  0  0  0  0  0  0  0  0
   -7.4351    1.5868   -1.9719 C   0  0  0  0  0  0  0  0  0  0  0  0
   -5.2054    0.7483   -1.1514 C   0  0  0  0  0  0  0  0  0  0  0  0
   -4.3847    0.1711   -0.1727 C   0  0  0  0  0  0  0  0  0  0  0  0
   -3.0152    0.0301   -0.4834 N   0  0  0  0  0  0  0  0  0  0  0  0
   -2.0366   -0.5748    0.2842 C   0  0  0  0  0  0  0  0  0  0  0  0
   -2.1888   -1.1635    1.3474 O   0  0  0  0  0  0  0  0  0  0  0  0
   -0.6661   -0.5196   -0.2988 C   0  0  0  0  0  0  0  0  0  0  0  0
    0.1785   -1.6227   -0.1280 C   0  0  0  0  0  0  0  0  0  0  0  0
    1.4688   -1.6060   -0.6643 C   0  0  0  0  0  0  0  0  0  0  0  0
    1.9356   -0.4815   -1.3504 C   0  0  0  0  0  0  0  0  0  0  0  0
    3.2177   -0.4758   -1.9117 N   0  0  0  0  0  0  0  0  0  0  0  0
    4.2260   -0.0430   -1.2304 C   0  0  0  0  0  0  0  0  0  0  0  0
    5.4987   -0.0346   -1.7281 N   0  0  0  0  0  0  0  0  0  0  0  0
    6.5659    0.1121   -0.7578 C   0  0  0  0  0  0  0  0  0  0  0  0
    6.9674   -1.2253   -0.1558 C   0  0  0  0  0  0  0  0  0  0  0  0
    7.6698   -0.7794    1.4080 S   0  0  0  0  0  6  0  0  0  0  0  0
    9.0549   -0.4215    1.1774 O   0  0  0  0  0  0  0  0  0  0  0  0
    7.2804   -1.7597    2.3969 O   0  0  0  0  0  0  0  0  0  0  0  0
    6.7489    0.7237    1.6614 C   0  0  0  0  0  0  0  0  0  0  0  0
    5.9966    0.9909    0.3691 C   0  0  0  0  0  0  0  0  0  0  0  0
    4.2171    0.5537    0.4291 S   0  0  0  0  0  0  0  0  0  0  0  0
    1.0890    0.6186   -1.5190 C   0  0  0  0  0  0  0  0  0  0  0  0
   -0.2041    0.6093   -0.9876 C   0  0  0  0  0  0  0  0  0  0  0  0
   -4.9519   -0.2114    1.0438 C   0  0  0  0  0  0  0  0  0  0  0  0
   -6.3976   -1.2929    3.0274 H   0  0  0  0  0  0  0  0  0  0  0  0
   -7.9674   -0.6753    2.5158 H   0  0  0  0  0  0  0  0  0  0  0  0
   -6.8113    0.4157    3.3178 H   0  0  0  0  0  0  0  0  0  0  0  0
   -8.1832    0.7152    0.4941 H   0  0  0  0  0  0  0  0  0  0  0  0
   -8.4678    1.2277   -1.9103 H   0  0  0  0  0  0  0  0  0  0  0  0
   -7.0711    1.3552   -2.9784 H   0  0  0  0  0  0  0  0  0  0  0  0
   -7.4291    2.6724   -1.8341 H   0  0  0  0  0  0  0  0  0  0  0  0
   -4.7821    1.0622   -2.1024 H   0  0  0  0  0  0  0  0  0  0  0  0
   -2.7433    0.3485   -1.4038 H   0  0  0  0  0  0  0  0  0  0  0  0
   -0.1682   -2.4981    0.4174 H   0  0  0  0  0  0  0  0  0  0  0  0
    2.1148   -2.4709   -0.5421 H   0  0  0  0  0  0  0  0  0  0  0  0
    5.6378   -0.6005   -2.5587 H   0  0  0  0  0  0  0  0  0  0  0  0
    7.4358    0.6002   -1.2124 H   0  0  0  0  0  0  0  0  0  0  0  0
    7.7114   -1.7504   -0.7597 H   0  0  0  0  0  0  0  0  0  0  0  0
    6.1186   -1.8912    0.0273 H   0  0  0  0  0  0  0  0  0  0  0  0
    7.4813    1.5143    1.8530 H   0  0  0  0  0  0  0  0  0  0  0  0
    6.1045    0.6148    2.5373 H   0  0  0  0  0  0  0  0  0  0  0  0
    6.0409    2.0528    0.1031 H   0  0  0  0  0  0  0  0  0  0  0  0
    1.4478    1.4909   -2.0590 H   0  0  0  0  0  0  0  0  0  0  0  0
   -0.8229    1.4955   -1.0959 H   0  0  0  0  0  0  0  0  0  0  0  0
   -4.3436   -0.6465    1.8313 H   0  0  0  0  0  0  0  0  0  0  0  0
  1  2  1  0
  2  3  2  0
  3  4  1  0
  4  5  1  0
  4  6  2  0
  6  7  1  0
  7  8  1  0
  8  9  1  0
  9 10  2  0
  9 11  1  0
 11 12  2  0
 12 13  1  0
 13 14  2  0
 14 15  1  0
 15 16  2  3
 16 17  1  0
 17 18  1  0
 18 19  1  0
 19 20  1  0
 20 21  2  0
 20 22  2  0
 20 23  1  0
 23 24  1  0
 24 25  1  0
 14 26  1  0
 26 27  2  0
  7 28  2  0
 28  2  1  0
 27 11  1  0
 25 16  1  0
 24 18  1  0
  1 29  1  0
  1 30  1  0
  1 31  1  0
  3 32  1  0
  5 33  1  0
  5 34  1  0
  5 35  1  0
  6 36  1  0
  8 37  1  0
 12 38  1  0
 13 39  1  0
 17 40  1  0
 18 41  1  0
 19 42  1  0
 19 43  1  0
 23 44  1  0
 23 45  1  0
 24 46  1  0
 26 47  1  0
 27 48  1  0
 28 49  1  0
M  END
$$$$
