
     RDKit          3D

 46 47  0  0  0  0  0  0  0  0999 V2000
    9.3877    0.2906    1.3326 O   0  0  0  0  0  0  0  0  0  0  0  0
    8.4863    0.3093    0.5115 C   0  0  0  0  0  0  0  0  0  0  0  0
    8.6877   -0.1512   -0.7350 O   0  0  0  0  0  0  0  0  0  0  0  0
    7.1022    0.8364    0.7312 C   0  0  0  0  0  0  0  0  0  0  0  0
    6.0659   -0.2550    0.5168 C   0  0  0  0  0  0  0  0  0  0  0  0
    4.6671    0.2219    0.8625 C   0  0  0  0  0  0  0  0  0  0  0  0
    4.4447    1.3646    1.2553 O   0  0  0  0  0  0  0  0  0  0  0  0
    3.7291   -0.7823    0.6746 N   0  0  0  0  0  0  0  0  0  0  0  0
    2.3408   -0.7150    0.9252 C   0  0  0  0  0  0  0  0  0  0  0  0
    1.5797   -1.8555    0.6212 C   0  0  0  0  0  0  0  0  0  0  0  0
    0.1991   -1.8764    0.8479 C   0  0  0  0  0  0  0  0  0  0  0  0
   -0.4275   -0.7473    1.3809 C   0  0  0  0  0  0  0  0  0  0  0  0
   -2.1682   -0.7817    1.7197 S   0  0  0  0  0  6  0  0  0  0  0  0
   -2.5390   -2.1542    1.9824 O   0  0  0  0  0  0  0  0  0  0  0  0
   -2.4882    0.2795    2.6500 O   0  0  0  0  0  0  0  0  0  0  0  0
   -2.8337   -0.3921    0.2244 N   0  0  0  0  0  0  0  0  0  0  0  0
   -2.8907    1.0338   -0.1414 C   0  0  0  0  0  0  0  0  0  0  0  0
   -3.4429    1.2046   -1.5645 C   0  0  0  0  0  0  0  0  0  0  0  0
   -4.8638    0.7173   -1.7571 C   0  0  0  0  0  0  0  0  0  0  0  0
   -5.9004    1.1222   -0.8947 C   0  0  0  0  0  0  0  0  0  0  0  0
   -7.2060    0.6682   -1.0911 C   0  0  0  0  0  0  0  0  0  0  0  0
   -7.4959   -0.1798   -2.1607 C   0  0  0  0  0  0  0  0  0  0  0  0
   -6.4803   -0.5750   -3.0342 C   0  0  0  0  0  0  0  0  0  0  0  0
   -5.1724   -0.1307   -2.8329 C   0  0  0  0  0  0  0  0  0  0  0  0
    0.3175    0.3887    1.7013 C   0  0  0  0  0  0  0  0  0  0  0  0
    1.6972    0.4036    1.4651 C   0  0  0  0  0  0  0  0  0  0  0  0
    9.6320   -0.4186   -0.7387 H   0  0  0  0  0  0  0  0  0  0  0  0
    7.0479    1.2167    1.7599 H   0  0  0  0  0  0  0  0  0  0  0  0
    6.9345    1.6914    0.0653 H   0  0  0  0  0  0  0  0  0  0  0  0
    6.3017   -1.1202    1.1489 H   0  0  0  0  0  0  0  0  0  0  0  0
    6.0710   -0.5904   -0.5266 H   0  0  0  0  0  0  0  0  0  0  0  0
    4.0700   -1.6647    0.3107 H   0  0  0  0  0  0  0  0  0  0  0  0
    2.0495   -2.7456    0.2079 H   0  0  0  0  0  0  0  0  0  0  0  0
   -0.3752   -2.7705    0.6147 H   0  0  0  0  0  0  0  0  0  0  0  0
   -3.6853   -0.9304    0.0671 H   0  0  0  0  0  0  0  0  0  0  0  0
   -1.8866    1.4629   -0.1046 H   0  0  0  0  0  0  0  0  0  0  0  0
   -3.5195    1.5686    0.5718 H   0  0  0  0  0  0  0  0  0  0  0  0
   -3.4138    2.2665   -1.8407 H   0  0  0  0  0  0  0  0  0  0  0  0
   -2.7745    0.6806   -2.2607 H   0  0  0  0  0  0  0  0  0  0  0  0
   -5.7125    1.7945   -0.0611 H   0  0  0  0  0  0  0  0  0  0  0  0
   -7.9978    0.9737   -0.4078 H   0  0  0  0  0  0  0  0  0  0  0  0
   -8.5123   -0.5330   -2.3160 H   0  0  0  0  0  0  0  0  0  0  0  0
   -6.7136   -1.2343   -3.8716 H   0  0  0  0  0  0  0  0  0  0  0  0
   -4.3961   -0.4620   -3.5283 H   0  0  0  0  0  0  0  0  0  0  0  0
   -0.1580    1.2649    2.1390 H   0  0  0  0  0  0  0  0  0  0  0  0
    2.2423    1.3055    1.7305 H   0  0  0  0  0  0  0  0  0  0  0  0
  1  2  2  0
  2  3  1  0
  2  4  1  0
  4  5  1  0
  5  6  1  0
  6  7  2  0
  6  8  1  0
  8  9  1  0
  9 10  2  0
 10 11  1  0
 11 12  2  0
 12 13  1  0
 13 14  2  0
 13 15  2  0
 13 16  1  0
 16 17  1  0
 17 18  1  0
 18 19  1  0
 19 20  2  0
 20 21  1  0
 21 22  2  0
 22 23  1  0
 23 24  2  0
 12 25  1  0
 25 26  2  0
 26  9  1  0
 24 19  1  0
  3 27  1  0
  4 28  1  0
  4 29  1  0
  5 30  1  0
  5 31  1  0
  8 32  1  0
 10 33  1  0
 11 34  1  0
 16 35  1  0
 17 36  1  0
 17 37  1  0
 18 38  1  0
 18 39  1  0
 20 40  1  0
 21 41  1  0
 22 42  1  0
 23 43  1  0
 24 44  1  0
 25 45  1  0
 26 46  1  0
M  END
$$$$
