
     RDKit          3D

 23 24  0  0  0  0  0  0  0  0999 V2000
   -5.0970    0.0882    0.0277 C   0  0  0  0  0  0  0  0  0  0  0  0
   -4.3189    1.4547   -0.8596 S   0  0  0  0  0  0  0  0  0  0  0  0
   -2.6258    1.0473   -0.6697 C   0  0  0  0  0  0  0  0  0  0  0  0
   -2.2358   -0.0305   -0.0305 N   0  0  0  0  0  0  0  0  0  0  0  0
   -0.8539   -0.1012   -0.0336 C   0  0  0  0  0  0  0  0  0  0  0  0
   -0.0792   -1.1186    0.5621 C   0  0  0  0  0  0  0  0  0  0  0  0
    1.3168   -1.0696    0.4838 C   0  0  0  0  0  0  0  0  0  0  0  0
    1.9385   -0.0189   -0.1902 C   0  0  0  0  0  0  0  0  0  0  0  0
    3.7076    0.0477   -0.2587 S   0  0  0  0  0  6  0  0  0  0  0  0
    4.0229   -0.7260   -1.7137 N   0  0  0  0  0  0  0  0  0  0  0  0
    4.2550   -0.8022    0.7721 O   0  0  0  0  0  0  0  0  0  0  0  0
    4.1209    1.4196   -0.4358 O   0  0  0  0  0  0  0  0  0  0  0  0
    1.1984    1.0141   -0.7811 C   0  0  0  0  0  0  0  0  0  0  0  0
   -0.2017    0.9448   -0.6913 C   0  0  0  0  0  0  0  0  0  0  0  0
   -1.3829    2.0343   -1.3104 S   0  0  0  0  0  0  0  0  0  0  0  0
   -4.7834    0.0778    1.0754 H   0  0  0  0  0  0  0  0  0  0  0  0
   -6.1829    0.2125   -0.0045 H   0  0  0  0  0  0  0  0  0  0  0  0
   -4.8470   -0.8690   -0.4384 H   0  0  0  0  0  0  0  0  0  0  0  0
   -0.5756   -1.9333    1.0814 H   0  0  0  0  0  0  0  0  0  0  0  0
    1.9045   -1.8566    0.9527 H   0  0  0  0  0  0  0  0  0  0  0  0
    4.4760   -0.0789   -2.3601 H   0  0  0  0  0  0  0  0  0  0  0  0
    4.5597   -1.5775   -1.5445 H   0  0  0  0  0  0  0  0  0  0  0  0
    1.6836    1.8414   -1.2917 H   0  0  0  0  0  0  0  0  0  0  0  0
  1  2  1  0
  2  3  1  0
  3  4  2  0
  4  5  1  0
  5  6  2  0
  6  7  1  0
  7  8  2  0
  8  9  1  0
  9 10  1  0
  9 11  2  0
  9 12  2  0
  8 13  1  0
 13 14  2  0
 14 15  1  0
 15  3  1  0
 14  5  1  0
  1 16  1  0
  1 17  1  0
  1 18  1  0
  6 19  1  0
  7 20  1  0
 10 21  1  0
 10 22  1  0
 13 23  1  0
M  END
$$$$
