
     RDKit          3D

 49 52  0  0  0  0  0  0  0  0999 V2000
   -7.5728   -1.1474    1.5658 C   0  0  0  0  0  0  0  0  0  0  0  0
   -6.6190   -0.4377    0.6510 C   0  0  0  0  0  0  0  0  0  0  0  0
   -7.0766    0.1446   -0.5353 C   0  0  0  0  0  0  0  0  0  0  0  0
   -6.1865    0.7877   -1.4027 C   0  0  0  0  0  0  0  0  0  0  0  0
   -6.6762    1.3900   -2.6871 C   0  0  0  0  0  0  0  0  0  0  0  0
   -4.8182    0.8145   -1.0907 C   0  0  0  0  0  0  0  0  0  0  0  0
   -4.3403    0.2286    0.0824 C   0  0  0  0  0  0  0  0  0  0  0  0
   -2.9799    0.2110    0.4575 N   0  0  0  0  0  0  0  0  0  0  0  0
   -1.9224    0.8231   -0.1888 C   0  0  0  0  0  0  0  0  0  0  0  0
   -1.9711    1.5497   -1.1734 O   0  0  0  0  0  0  0  0  0  0  0  0
   -0.5909    0.5753    0.4292 C   0  0  0  0  0  0  0  0  0  0  0  0
    0.3327    1.6259    0.4731 C   0  0  0  0  0  0  0  0  0  0  0  0
    1.5928    1.4245    1.0412 C   0  0  0  0  0  0  0  0  0  0  0  0
    1.9510    0.1694    1.5427 C   0  0  0  0  0  0  0  0  0  0  0  0
    3.2077   -0.0488    2.1166 N   0  0  0  0  0  0  0  0  0  0  0  0
    4.2276   -0.1460    1.3419 C   0  0  0  0  0  0  0  0  0  0  0  0
    4.3351   -0.1041   -0.0348 N   0  0  0  0  0  0  0  0  0  0  0  0
    5.5781   -0.6865   -0.4955 C   0  0  0  0  0  0  0  0  0  0  0  0
    6.0934   -0.2828   -1.8540 C   0  0  0  0  0  0  0  0  0  0  0  0
    7.8363   -0.7295   -1.7175 S   0  0  0  0  0  6  0  0  0  0  0  0
    8.0114   -2.0530   -2.2766 O   0  0  0  0  0  0  0  0  0  0  0  0
    8.6332    0.4019   -2.1395 O   0  0  0  0  0  0  0  0  0  0  0  0
    7.9120   -0.8575    0.0842 C   0  0  0  0  0  0  0  0  0  0  0  0
    6.6342   -0.1626    0.4839 C   0  0  0  0  0  0  0  0  0  0  0  0
    5.8288   -0.4403    2.0789 S   0  0  0  0  0  0  0  0  0  0  0  0
    1.0250   -0.8765    1.4965 C   0  0  0  0  0  0  0  0  0  0  0  0
   -0.2406   -0.6826    0.9353 C   0  0  0  0  0  0  0  0  0  0  0  0
   -5.2486   -0.4003    0.9447 C   0  0  0  0  0  0  0  0  0  0  0  0
   -8.5756   -0.7119    1.5008 H   0  0  0  0  0  0  0  0  0  0  0  0
   -7.6298   -2.2069    1.2978 H   0  0  0  0  0  0  0  0  0  0  0  0
   -7.2493   -1.0617    2.6086 H   0  0  0  0  0  0  0  0  0  0  0  0
   -8.1348    0.0998   -0.7862 H   0  0  0  0  0  0  0  0  0  0  0  0
   -6.5879    0.6618   -3.4991 H   0  0  0  0  0  0  0  0  0  0  0  0
   -6.0962    2.2825   -2.9443 H   0  0  0  0  0  0  0  0  0  0  0  0
   -7.7236    1.6979   -2.6019 H   0  0  0  0  0  0  0  0  0  0  0  0
   -4.1421    1.2977   -1.7898 H   0  0  0  0  0  0  0  0  0  0  0  0
   -2.7773   -0.2457    1.3371 H   0  0  0  0  0  0  0  0  0  0  0  0
    0.0688    2.6036    0.0744 H   0  0  0  0  0  0  0  0  0  0  0  0
    2.3001    2.2485    1.0930 H   0  0  0  0  0  0  0  0  0  0  0  0
    3.4809   -0.3359   -0.5324 H   0  0  0  0  0  0  0  0  0  0  0  0
    5.4975   -1.7837   -0.4495 H   0  0  0  0  0  0  0  0  0  0  0  0
    5.6310   -0.8373   -2.6728 H   0  0  0  0  0  0  0  0  0  0  0  0
    6.0203    0.7934   -2.0342 H   0  0  0  0  0  0  0  0  0  0  0  0
    8.8103   -0.3568    0.4501 H   0  0  0  0  0  0  0  0  0  0  0  0
    7.9225   -1.9186    0.3484 H   0  0  0  0  0  0  0  0  0  0  0  0
    6.7554    0.9247    0.3756 H   0  0  0  0  0  0  0  0  0  0  0  0
    1.2978   -1.8488    1.8999 H   0  0  0  0  0  0  0  0  0  0  0  0
   -0.9276   -1.5226    0.8798 H   0  0  0  0  0  0  0  0  0  0  0  0
   -4.8968   -0.8707    1.8597 H   0  0  0  0  0  0  0  0  0  0  0  0
  1  2  1  0
  2  3  2  0
  3  4  1  0
  4  5  1  0
  4  6  2  0
  6  7  1  0
  7  8  1  0
  8  9  1  0
  9 10  2  0
  9 11  1  0
 11 12  2  0
 12 13  1  0
 13 14  2  0
 14 15  1  0
 15 16  2  3
 16 17  1  0
 17 18  1  0
 18 19  1  0
 19 20  1  0
 20 21  2  0
 20 22  2  0
 20 23  1  0
 23 24  1  0
 24 25  1  0
 14 26  1  0
 26 27  2  0
  7 28  2  0
 28  2  1  0
 27 11  1  0
 25 16  1  0
 24 18  1  0
  1 29  1  0
  1 30  1  0
  1 31  1  0
  3 32  1  0
  5 33  1  0
  5 34  1  0
  5 35  1  0
  6 36  1  0
  8 37  1  0
 12 38  1  0
 13 39  1  0
 17 40  1  0
 18 41  1  0
 19 42  1  0
 19 43  1  0
 23 44  1  0
 23 45  1  0
 24 46  1  0
 26 47  1  0
 27 48  1  0
 28 49  1  0
M  END
$$$$
