
     RDKit          3D

 54 57  0  0  0  0  0  0  0  0999 V2000
   -4.3888   -4.0230   -3.5687 C   0  0  0  0  0  0  0  0  0  0  0  0
   -3.9497   -3.9239   -2.2200 O   0  0  0  0  0  0  0  0  0  0  0  0
   -3.7513   -2.6645   -1.7256 C   0  0  0  0  0  0  0  0  0  0  0  0
   -3.9127   -1.4713   -2.4290 C   0  0  0  0  0  0  0  0  0  0  0  0
   -3.6727   -0.2442   -1.7978 C   0  0  0  0  0  0  0  0  0  0  0  0
   -3.2709   -0.1933   -0.4560 C   0  0  0  0  0  0  0  0  0  0  0  0
   -3.0036    1.0925    0.2024 C   0  0  0  0  0  0  0  0  0  0  0  0
   -4.2937    2.2062    0.3638 S   0  0  0  0  0  0  0  0  0  0  0  0
   -3.3204    3.3598    1.1813 C   0  0  0  0  0  0  0  0  0  0  0  0
   -3.7290    4.6221    1.6572 C   0  0  0  0  0  0  0  0  0  0  0  0
   -2.7971    5.4407    2.2978 C   0  0  0  0  0  0  0  0  0  0  0  0
   -1.4866    5.0187    2.4618 C   0  0  0  0  0  0  0  0  0  0  0  0
   -1.0869    3.7653    1.9890 C   0  0  0  0  0  0  0  0  0  0  0  0
   -2.0101    2.9045    1.3381 C   0  0  0  0  0  0  0  0  0  0  0  0
   -1.8375    1.5827    0.7724 C   0  0  0  0  0  0  0  0  0  0  0  0
   -0.5959    0.8142    0.7725 C   0  0  0  0  0  0  0  0  0  0  0  0
   -0.0602    0.3521    1.9774 C   0  0  0  0  0  0  0  0  0  0  0  0
    1.1278   -0.3827    1.9768 C   0  0  0  0  0  0  0  0  0  0  0  0
    1.7940   -0.6662    0.7810 C   0  0  0  0  0  0  0  0  0  0  0  0
    2.9413   -1.3909    0.9355 O   0  0  0  0  0  0  0  0  0  0  0  0
    3.6546   -1.8191   -0.2255 C   0  0  0  0  0  0  0  0  0  0  0  0
    4.6423   -0.7550   -0.7500 C   0  0  0  0  0  0  0  0  0  0  0  0
    5.8635   -0.4737    0.0293 N   0  0  0  0  0  0  0  0  0  0  0  0
    6.7505   -1.6281    0.1343 C   0  0  0  0  0  0  0  0  0  0  0  0
    5.5721    0.0791    1.3499 C   0  0  0  0  0  0  0  0  0  0  0  0
    1.2630   -0.1978   -0.4203 C   0  0  0  0  0  0  0  0  0  0  0  0
    0.0738    0.5412   -0.4248 C   0  0  0  0  0  0  0  0  0  0  0  0
   -3.1101   -1.3948    0.2429 C   0  0  0  0  0  0  0  0  0  0  0  0
   -3.3483   -2.6184   -0.3895 C   0  0  0  0  0  0  0  0  0  0  0  0
   -3.6420   -3.6146   -4.2576 H   0  0  0  0  0  0  0  0  0  0  0  0
   -5.3608   -3.5374   -3.7048 H   0  0  0  0  0  0  0  0  0  0  0  0
   -4.5117   -5.0849   -3.8030 H   0  0  0  0  0  0  0  0  0  0  0  0
   -4.2218   -1.4563   -3.4685 H   0  0  0  0  0  0  0  0  0  0  0  0
   -3.7973    0.6745   -2.3672 H   0  0  0  0  0  0  0  0  0  0  0  0
   -4.7546    4.9559    1.5267 H   0  0  0  0  0  0  0  0  0  0  0  0
   -3.1031    6.4165    2.6673 H   0  0  0  0  0  0  0  0  0  0  0  0
   -0.7646    5.6628    2.9578 H   0  0  0  0  0  0  0  0  0  0  0  0
   -0.0536    3.4517    2.1203 H   0  0  0  0  0  0  0  0  0  0  0  0
   -0.5632    0.5534    2.9202 H   0  0  0  0  0  0  0  0  0  0  0  0
    1.5368   -0.7417    2.9182 H   0  0  0  0  0  0  0  0  0  0  0  0
    4.1976   -2.7280    0.0547 H   0  0  0  0  0  0  0  0  0  0  0  0
    2.9678   -2.1394   -1.0182 H   0  0  0  0  0  0  0  0  0  0  0  0
    4.9586   -1.0619   -1.7553 H   0  0  0  0  0  0  0  0  0  0  0  0
    4.1148    0.1960   -0.8899 H   0  0  0  0  0  0  0  0  0  0  0  0
    6.3290   -2.4323    0.7464 H   0  0  0  0  0  0  0  0  0  0  0  0
    6.9817   -2.0318   -0.8575 H   0  0  0  0  0  0  0  0  0  0  0  0
    7.7065   -1.3319    0.5808 H   0  0  0  0  0  0  0  0  0  0  0  0
    5.1269   -0.6561    2.0282 H   0  0  0  0  0  0  0  0  0  0  0  0
    6.4942    0.4455    1.8154 H   0  0  0  0  0  0  0  0  0  0  0  0
    4.8990    0.9402    1.2742 H   0  0  0  0  0  0  0  0  0  0  0  0
    1.7446   -0.3798   -1.3743 H   0  0  0  0  0  0  0  0  0  0  0  0
   -0.3247    0.9007   -1.3709 H   0  0  0  0  0  0  0  0  0  0  0  0
   -2.7992   -1.3897    1.2849 H   0  0  0  0  0  0  0  0  0  0  0  0
   -3.2182   -3.5437    0.1664 H   0  0  0  0  0  0  0  0  0  0  0  0
  1  2  1  0
  2  3  1  0
  3  4  2  0
  4  5  1  0
  5  6  2  0
  6  7  1  0
  7  8  1  0
  8  9  1  0
  9 10  2  0
 10 11  1  0
 11 12  2  0
 12 13  1  0
 13 14  2  0
 14 15  1  0
 15 16  1  0
 16 17  2  0
 17 18  1  0
 18 19  2  0
 19 20  1  0
 20 21  1  0
 21 22  1  0
 22 23  1  0
 23 24  1  0
 23 25  1  0
 19 26  1  0
 26 27  2  0
  6 28  1  0
 28 29  2  0
 29  3  1  0
 15  7  2  0
 27 16  1  0
 14  9  1  0
  1 30  1  0
  1 31  1  0
  1 32  1  0
  4 33  1  0
  5 34  1  0
 10 35  1  0
 11 36  1  0
 12 37  1  0
 13 38  1  0
 17 39  1  0
 18 40  1  0
 21 41  1  0
 21 42  1  0
 22 43  1  0
 22 44  1  0
 24 45  1  0
 24 46  1  0
 24 47  1  0
 25 48  1  0
 25 49  1  0
 25 50  1  0
 26 51  1  0
 27 52  1  0
 28 53  1  0
 29 54  1  0
M  END
$$$$
