
     RDKit          3D

 72 75  0  0  0  0  0  0  0  0999 V2000
   -3.5699   -0.2364   -4.1413 C   0  0  0  0  0  0  0  0  0  0  0  0
   -4.3112   -0.2773   -2.8350 C   0  0  0  0  0  0  0  0  0  0  0  0
   -5.2805   -1.2794   -2.6673 C   0  0  0  0  0  0  0  0  0  0  0  0
   -6.0508   -1.3640   -1.5026 C   0  0  0  0  0  0  0  0  0  0  0  0
   -5.8972   -0.4464   -0.4520 C   0  0  0  0  0  0  0  0  0  0  0  0
   -6.7786   -0.5472    0.8052 C   0  0  0  0  0  0  0  0  0  0  0  0
   -6.7102   -1.9741    1.3942 C   0  0  0  0  0  0  0  0  0  0  0  0
   -8.2387   -0.2266    0.4238 C   0  0  0  0  0  0  0  0  0  0  0  0
   -6.3678    0.4234    1.9354 C   0  0  0  0  0  0  0  0  0  0  0  0
   -4.9397    0.5655   -0.6297 C   0  0  0  0  0  0  0  0  0  0  0  0
   -4.1380    0.6465   -1.7899 C   0  0  0  0  0  0  0  0  0  0  0  0
   -2.9955    2.0354   -1.8788 S   0  0  0  0  0  6  0  0  0  0  0  0
   -3.5330    3.0877   -1.0399 O   0  0  0  0  0  0  0  0  0  0  0  0
   -2.6877    2.2985   -3.2685 O   0  0  0  0  0  0  0  0  0  0  0  0
   -1.5920    1.4448   -1.1306 N   0  0  0  0  0  0  0  0  0  0  0  0
   -0.7456    0.4986   -1.8683 C   0  0  0  0  0  0  0  0  0  0  0  0
    0.6367    0.4492   -1.2252 C   0  0  0  0  0  0  0  0  0  0  0  0
    0.5933    0.0016    0.2457 C   0  0  0  0  0  0  0  0  0  0  0  0
    1.5656    0.8293    1.1004 C   0  0  0  0  0  0  0  0  0  0  0  0
    1.1325    1.6545    1.9078 O   0  0  0  0  0  0  0  0  0  0  0  0
    2.9303    0.6187    0.9516 N   0  0  0  0  0  0  0  0  0  0  0  0
    3.5567   -0.1911   -0.1030 C   0  0  0  0  0  0  0  0  0  0  0  0
    4.9192   -0.7857    0.3073 C   0  0  0  0  0  0  0  0  0  0  0  0
    5.8031    0.2617    0.8672 N   0  0  0  0  0  0  0  0  0  0  0  0
    7.1334   -0.1682    1.0128 C   0  0  0  0  0  0  0  0  0  0  0  0
    7.7752   -0.3135    2.2524 C   0  0  0  0  0  0  0  0  0  0  0  0
    9.1062   -0.7385    2.3361 C   0  0  0  0  0  0  0  0  0  0  0  0
    9.8174   -1.0129    1.1775 C   0  0  0  0  0  0  0  0  0  0  0  0
   11.1135   -1.4163    1.3028 O   0  0  0  0  0  0  0  0  0  0  0  0
    9.2195   -0.8705   -0.0662 C   0  0  0  0  0  0  0  0  0  0  0  0
    7.8876   -0.4500   -0.1408 C   0  0  0  0  0  0  0  0  0  0  0  0
    5.1801    0.9569    2.0135 C   0  0  0  0  0  0  0  0  0  0  0  0
    3.8382    1.5818    1.5964 C   0  0  0  0  0  0  0  0  0  0  0  0
   -0.8366    0.0890    0.8119 C   0  0  0  0  0  0  0  0  0  0  0  0
   -1.5685    1.3451    0.3459 C   0  0  0  0  0  0  0  0  0  0  0  0
   -2.4899   -0.2071   -3.9827 H   0  0  0  0  0  0  0  0  0  0  0  0
   -3.8935    0.6202   -4.7397 H   0  0  0  0  0  0  0  0  0  0  0  0
   -3.7641   -1.1365   -4.7350 H   0  0  0  0  0  0  0  0  0  0  0  0
   -5.4603   -2.0079   -3.4576 H   0  0  0  0  0  0  0  0  0  0  0  0
   -6.7941   -2.1568   -1.4422 H   0  0  0  0  0  0  0  0  0  0  0  0
   -5.6746   -2.2710    1.5915 H   0  0  0  0  0  0  0  0  0  0  0  0
   -7.1435   -2.7207    0.7207 H   0  0  0  0  0  0  0  0  0  0  0  0
   -7.2616   -2.0418    2.3382 H   0  0  0  0  0  0  0  0  0  0  0  0
   -8.8976   -0.2823    1.2983 H   0  0  0  0  0  0  0  0  0  0  0  0
   -8.3242    0.7831    0.0047 H   0  0  0  0  0  0  0  0  0  0  0  0
   -8.6331   -0.9259   -0.3225 H   0  0  0  0  0  0  0  0  0  0  0  0
   -5.3346    0.2503    2.2577 H   0  0  0  0  0  0  0  0  0  0  0  0
   -6.4612    1.4700    1.6219 H   0  0  0  0  0  0  0  0  0  0  0  0
   -7.0123    0.3005    2.8164 H   0  0  0  0  0  0  0  0  0  0  0  0
   -4.8132    1.3306    0.1333 H   0  0  0  0  0  0  0  0  0  0  0  0
   -1.2020   -0.4963   -1.8795 H   0  0  0  0  0  0  0  0  0  0  0  0
   -0.6210    0.8290   -2.9039 H   0  0  0  0  0  0  0  0  0  0  0  0
    1.2628   -0.2376   -1.8052 H   0  0  0  0  0  0  0  0  0  0  0  0
    1.1034    1.4391   -1.3098 H   0  0  0  0  0  0  0  0  0  0  0  0
    0.8927   -1.0496    0.3331 H   0  0  0  0  0  0  0  0  0  0  0  0
    3.6846    0.4675   -0.9705 H   0  0  0  0  0  0  0  0  0  0  0  0
    2.9025   -1.0134   -0.3996 H   0  0  0  0  0  0  0  0  0  0  0  0
    5.3567   -1.2621   -0.5772 H   0  0  0  0  0  0  0  0  0  0  0  0
    4.7608   -1.5681    1.0610 H   0  0  0  0  0  0  0  0  0  0  0  0
    7.2551   -0.1120    3.1837 H   0  0  0  0  0  0  0  0  0  0  0  0
    9.5848   -0.8478    3.3059 H   0  0  0  0  0  0  0  0  0  0  0  0
   11.4932   -1.5149    0.4141 H   0  0  0  0  0  0  0  0  0  0  0  0
    9.7645   -1.0712   -0.9818 H   0  0  0  0  0  0  0  0  0  0  0  0
    7.4427   -0.3081   -1.1219 H   0  0  0  0  0  0  0  0  0  0  0  0
    5.8331    1.7579    2.3790 H   0  0  0  0  0  0  0  0  0  0  0  0
    5.0010    0.2492    2.8330 H   0  0  0  0  0  0  0  0  0  0  0  0
    3.3662    2.0293    2.4776 H   0  0  0  0  0  0  0  0  0  0  0  0
    4.0087    2.3874    0.8704 H   0  0  0  0  0  0  0  0  0  0  0  0
   -0.8293    0.0526    1.9073 H   0  0  0  0  0  0  0  0  0  0  0  0
   -1.4026   -0.7935    0.4853 H   0  0  0  0  0  0  0  0  0  0  0  0
   -1.0864    2.2480    0.7364 H   0  0  0  0  0  0  0  0  0  0  0  0
   -2.5807    1.3197    0.7588 H   0  0  0  0  0  0  0  0  0  0  0  0
  1  2  1  0
  2  3  2  0
  3  4  1  0
  4  5  2  0
  5  6  1  0
  6  7  1  0
  6  8  1  0
  6  9  1  0
  5 10  1  0
 10 11  2  0
 11 12  1  0
 12 13  2  0
 12 14  2  0
 12 15  1  0
 15 16  1  0
 16 17  1  0
 17 18  1  0
 18 19  1  0
 19 20  2  0
 19 21  1  0
 21 22  1  0
 22 23  1  0
 23 24  1  0
 24 25  1  0
 25 26  2  0
 26 27  1  0
 27 28  2  0
 28 29  1  0
 28 30  1  0
 30 31  2  0
 24 32  1  0
 32 33  1  0
 18 34  1  0
 34 35  1  0
 11  2  1  0
 35 15  1  0
 33 21  1  0
 31 25  1  0
  1 36  1  0
  1 37  1  0
  1 38  1  0
  3 39  1  0
  4 40  1  0
  7 41  1  0
  7 42  1  0
  7 43  1  0
  8 44  1  0
  8 45  1  0
  8 46  1  0
  9 47  1  0
  9 48  1  0
  9 49  1  0
 10 50  1  0
 16 51  1  0
 16 52  1  0
 17 53  1  0
 17 54  1  0
 18 55  1  0
 22 56  1  0
 22 57  1  0
 23 58  1  0
 23 59  1  0
 26 60  1  0
 27 61  1  0
 29 62  1  0
 30 63  1  0
 31 64  1  0
 32 65  1  0
 32 66  1  0
 33 67  1  0
 33 68  1  0
 34 69  1  0
 34 70  1  0
 35 71  1  0
 35 72  1  0
M  END
$$$$
