
     RDKit          3D

 33 35  0  0  0  0  0  0  0  0999 V2000
    0.3687   -0.8397   -1.4499 O   0  0  0  0  0  0  0  0  0  0  0  0
    0.2058   -1.4365   -0.3951 C   0  0  0  0  0  0  0  0  0  0  0  0
    1.2216   -1.6478    0.6773 C   0  0  0  0  0  0  0  0  0  0  0  0
    2.4742   -1.1801    0.7779 C   0  0  0  0  0  0  0  0  0  0  0  0
    3.1101   -0.3017   -0.1426 C   0  0  0  0  0  0  0  0  0  0  0  0
    2.6677    0.8612   -0.7489 C   0  0  0  0  0  0  0  0  0  0  0  0
    3.6445    1.4579   -1.5986 C   0  0  0  0  0  0  0  0  0  0  0  0
    4.8216    0.7481   -1.6042 C   0  0  0  0  0  0  0  0  0  0  0  0
    4.7476   -0.6199   -0.5861 S   0  0  0  0  0  0  0  0  0  0  0  0
    0.5616   -2.7073    1.8920 S   0  0  0  0  0  0  0  0  0  0  0  0
   -0.9925   -2.8648    1.0827 C   0  0  0  0  0  0  0  0  0  0  0  0
   -2.2162   -3.8387    1.6475 S   0  0  0  0  0  0  0  0  0  0  0  0
   -0.9757   -2.0704   -0.0415 N   0  0  0  0  0  0  0  0  0  0  0  0
   -2.1359   -1.9775   -1.0036 N   0  0  0  0  0  0  0  0  0  0  0  0
   -3.3023   -0.7661   -0.7191 S   0  0  0  0  0  6  0  0  0  0  0  0
   -4.3413   -1.3209    0.1185 O   0  0  0  0  0  0  0  0  0  0  0  0
   -3.6021   -0.1886   -2.0118 O   0  0  0  0  0  0  0  0  0  0  0  0
   -2.4419    0.4635    0.2342 C   0  0  0  0  0  0  0  0  0  0  0  0
   -2.5170    0.4312    1.6310 C   0  0  0  0  0  0  0  0  0  0  0  0
   -1.8334    1.3907    2.3766 C   0  0  0  0  0  0  0  0  0  0  0  0
   -1.0977    2.3844    1.7290 C   0  0  0  0  0  0  0  0  0  0  0  0
   -1.0497    2.4292    0.3346 C   0  0  0  0  0  0  0  0  0  0  0  0
   -1.7262    1.4706   -0.4193 C   0  0  0  0  0  0  0  0  0  0  0  0
    3.0846   -1.5025    1.6211 H   0  0  0  0  0  0  0  0  0  0  0  0
    1.6776    1.2734   -0.6002 H   0  0  0  0  0  0  0  0  0  0  0  0
    3.4892    2.3623   -2.1738 H   0  0  0  0  0  0  0  0  0  0  0  0
    5.7262    0.9698   -2.1537 H   0  0  0  0  0  0  0  0  0  0  0  0
   -1.8296   -1.8935   -1.9811 H   0  0  0  0  0  0  0  0  0  0  0  0
   -3.1069   -0.3275    2.1426 H   0  0  0  0  0  0  0  0  0  0  0  0
   -1.8857    1.3747    3.4632 H   0  0  0  0  0  0  0  0  0  0  0  0
   -0.5737    3.1380    2.3132 H   0  0  0  0  0  0  0  0  0  0  0  0
   -0.4891    3.2165   -0.1647 H   0  0  0  0  0  0  0  0  0  0  0  0
   -1.6841    1.5119   -1.5062 H   0  0  0  0  0  0  0  0  0  0  0  0
  1  2  2  0
  2  3  1  0
  3  4  2  3
  4  5  1  0
  5  6  2  0
  6  7  1  0
  7  8  2  0
  8  9  1  0
  3 10  1  0
 10 11  1  0
 11 12  2  0
 11 13  1  0
 13 14  1  0
 14 15  1  0
 15 16  2  0
 15 17  2  0
 15 18  1  0
 18 19  2  0
 19 20  1  0
 20 21  2  0
 21 22  1  0
 22 23  2  0
 13  2  1  0
 23 18  1  0
  9  5  1  0
  4 24  1  0
  6 25  1  0
  7 26  1  0
  8 27  1  0
 14 28  1  0
 19 29  1  0
 20 30  1  0
 21 31  1  0
 22 32  1  0
 23 33  1  0
M  END
$$$$
