
     RDKit          3D

 42 45  0  0  0  0  0  0  0  0999 V2000
   -1.5151   -0.8257    1.6429 O   0  0  0  0  0  0  0  0  0  0  0  0
   -1.6391   -0.0059    0.7418 C   0  0  0  0  0  0  0  0  0  0  0  0
   -0.5124    0.4686   -0.1080 C   0  0  0  0  0  0  0  0  0  0  0  0
    0.7302    0.0257    0.1207 C   0  0  0  0  0  0  0  0  0  0  0  0
    1.9154    0.3836   -0.5809 C   0  0  0  0  0  0  0  0  0  0  0  0
    2.1479    0.8617   -1.8648 C   0  0  0  0  0  0  0  0  0  0  0  0
    3.5453    1.0280   -2.0302 C   0  0  0  0  0  0  0  0  0  0  0  0
    4.1265    0.6390   -0.8463 C   0  0  0  0  0  0  0  0  0  0  0  0
    5.4937    0.5460   -0.3393 C   0  0  0  0  0  0  0  0  0  0  0  0
    5.8321   -0.5467    0.4830 C   0  0  0  0  0  0  0  0  0  0  0  0
    7.1255   -0.7067    0.9874 C   0  0  0  0  0  0  0  0  0  0  0  0
    8.1094    0.2264    0.6815 C   0  0  0  0  0  0  0  0  0  0  0  0
    7.7971    1.3201   -0.1241 C   0  0  0  0  0  0  0  0  0  0  0  0
    6.4999    1.4839   -0.6317 C   0  0  0  0  0  0  0  0  0  0  0  0
    6.2197    2.9045   -1.5815 Cl  0  0  0  0  0  0  0  0  0  0  0  0
    3.1507    0.2328    0.0156 O   0  0  0  0  0  0  0  0  0  0  0  0
   -1.0948    1.5945   -1.2625 S   0  0  0  0  0  0  0  0  0  0  0  0
   -2.7565    1.4827   -0.6921 C   0  0  0  0  0  0  0  0  0  0  0  0
   -3.9816    2.3847   -1.3785 S   0  0  0  0  0  0  0  0  0  0  0  0
   -2.8231    0.6015    0.3659 N   0  0  0  0  0  0  0  0  0  0  0  0
   -4.0568    0.1971    1.0477 C   0  0  0  0  0  0  0  0  0  0  0  0
   -4.5605   -1.1748    0.5585 C   0  0  0  0  0  0  0  0  0  0  0  0
   -5.8537   -1.5954    1.2436 C   0  0  0  0  0  0  0  0  0  0  0  0
   -6.9136   -1.0671    0.3092 C   0  0  0  0  0  0  0  0  0  0  0  0
   -6.2669   -1.2680   -1.0422 C   0  0  0  0  0  0  0  0  0  0  0  0
   -4.8555   -1.1009   -0.8510 O   0  0  0  0  0  0  0  0  0  0  0  0
    0.8893   -0.6609    0.9512 H   0  0  0  0  0  0  0  0  0  0  0  0
    1.4009    1.0600   -2.6200 H   0  0  0  0  0  0  0  0  0  0  0  0
    4.0573    1.3756   -2.9163 H   0  0  0  0  0  0  0  0  0  0  0  0
    5.0789   -1.2930    0.7324 H   0  0  0  0  0  0  0  0  0  0  0  0
    7.3594   -1.5610    1.6182 H   0  0  0  0  0  0  0  0  0  0  0  0
    9.1166    0.1070    1.0730 H   0  0  0  0  0  0  0  0  0  0  0  0
    8.5700    2.0512   -0.3501 H   0  0  0  0  0  0  0  0  0  0  0  0
   -3.8491    0.1439    2.1234 H   0  0  0  0  0  0  0  0  0  0  0  0
   -4.8249    0.9614    0.9010 H   0  0  0  0  0  0  0  0  0  0  0  0
   -3.7858   -1.9354    0.7023 H   0  0  0  0  0  0  0  0  0  0  0  0
   -5.9123   -2.6905    1.2721 H   0  0  0  0  0  0  0  0  0  0  0  0
   -5.9526   -1.2288    2.2692 H   0  0  0  0  0  0  0  0  0  0  0  0
   -7.0764    0.0010    0.4934 H   0  0  0  0  0  0  0  0  0  0  0  0
   -7.8747   -1.5796    0.4019 H   0  0  0  0  0  0  0  0  0  0  0  0
   -6.6249   -0.5564   -1.7913 H   0  0  0  0  0  0  0  0  0  0  0  0
   -6.4357   -2.2838   -1.4154 H   0  0  0  0  0  0  0  0  0  0  0  0
  1  2  2  0
  2  3  1  0
  3  4  2  3
  4  5  1  0
  5  6  2  0
  6  7  1  0
  7  8  2  0
  8  9  1  0
  9 10  2  0
 10 11  1  0
 11 12  2  0
 12 13  1  0
 13 14  2  0
 14 15  1  0
  8 16  1  0
  3 17  1  0
 17 18  1  0
 18 19  2  0
 18 20  1  0
 20 21  1  0
 21 22  1  0
 22 23  1  0
 23 24  1  0
 24 25  1  0
 25 26  1  0
 20  2  1  0
 26 22  1  0
 16  5  1  0
 14  9  1  0
  4 27  1  0
  6 28  1  0
  7 29  1  0
 10 30  1  0
 11 31  1  0
 12 32  1  0
 13 33  1  0
 21 34  1  0
 21 35  1  0
 22 36  1  0
 23 37  1  0
 23 38  1  0
 24 39  1  0
 24 40  1  0
 25 41  1  0
 25 42  1  0
M  END
$$$$
