
     RDKit          3D

 44 45  0  0  0  0  0  0  0  0999 V2000
    2.0510    1.4250   -4.7964 C   0  0  0  0  0  0  0  0  0  0  0  0
    2.5887    0.9147   -3.4680 C   0  0  0  0  0  0  0  0  0  0  0  0
    2.0802   -0.4958   -3.1655 C   0  0  0  0  0  0  0  0  0  0  0  0
    2.7005   -1.1110   -1.9062 C   0  0  0  0  0  0  0  0  0  0  0  0
    2.2618   -0.4300   -0.6722 N   0  0  0  0  0  0  0  0  0  0  0  0
    3.2123    0.5610   -0.1498 C   0  0  0  0  0  0  0  0  0  0  0  0
    0.9806   -0.6055   -0.1047 C   0  0  0  0  0  0  0  0  0  0  0  0
    0.4326    0.2605    0.7761 C   0  0  0  0  0  0  0  0  0  0  0  0
   -0.8996    0.1349    1.3498 C   0  0  0  0  0  0  0  0  0  0  0  0
   -1.3144    0.9662    2.3250 C   0  0  0  0  0  0  0  0  0  0  0  0
   -2.6484    0.9098    2.9348 C   0  0  0  0  0  0  0  0  0  0  0  0
   -3.0034    1.6627    4.0076 C   0  0  0  0  0  0  0  0  0  0  0  0
   -4.3187    1.6035    4.5560 C   0  0  0  0  0  0  0  0  0  0  0  0
   -5.3930    1.5469    4.9916 N   0  0  0  0  0  0  0  0  0  0  0  0
   -2.0957    2.5610    4.6432 C   0  0  0  0  0  0  0  0  0  0  0  0
   -1.3495    3.2909    5.1509 N   0  0  0  0  0  0  0  0  0  0  0  0
   -3.6114   -0.0558    2.2540 C   0  0  0  0  0  0  0  0  0  0  0  0
   -2.9079   -1.3216    1.7671 C   0  0  0  0  0  0  0  0  0  0  0  0
   -1.7746   -0.9677    0.7974 C   0  0  0  0  0  0  0  0  0  0  0  0
   -0.9366   -2.2049    0.4772 C   0  0  0  0  0  0  0  0  0  0  0  0
    0.1999   -1.8584   -0.4876 C   0  0  0  0  0  0  0  0  0  0  0  0
    2.3704    0.7818   -5.6226 H   0  0  0  0  0  0  0  0  0  0  0  0
    0.9568    1.4585   -4.7895 H   0  0  0  0  0  0  0  0  0  0  0  0
    2.4208    2.4365   -4.9913 H   0  0  0  0  0  0  0  0  0  0  0  0
    3.6843    0.9199   -3.4982 H   0  0  0  0  0  0  0  0  0  0  0  0
    2.2780    1.6063   -2.6784 H   0  0  0  0  0  0  0  0  0  0  0  0
    2.3232   -1.1482   -4.0137 H   0  0  0  0  0  0  0  0  0  0  0  0
    0.9875   -0.4777   -3.0869 H   0  0  0  0  0  0  0  0  0  0  0  0
    3.7941   -1.0945   -1.9932 H   0  0  0  0  0  0  0  0  0  0  0  0
    2.4434   -2.1746   -1.8631 H   0  0  0  0  0  0  0  0  0  0  0  0
    4.2076    0.4576   -0.5946 H   0  0  0  0  0  0  0  0  0  0  0  0
    2.8610    1.5776   -0.3545 H   0  0  0  0  0  0  0  0  0  0  0  0
    3.3349    0.4391    0.9321 H   0  0  0  0  0  0  0  0  0  0  0  0
    0.9941    1.1391    1.0800 H   0  0  0  0  0  0  0  0  0  0  0  0
   -0.6190    1.7238    2.6853 H   0  0  0  0  0  0  0  0  0  0  0  0
   -4.0760    0.4553    1.4006 H   0  0  0  0  0  0  0  0  0  0  0  0
   -4.4231   -0.3641    2.9215 H   0  0  0  0  0  0  0  0  0  0  0  0
   -2.5182   -1.8784    2.6300 H   0  0  0  0  0  0  0  0  0  0  0  0
   -3.6323   -1.9766    1.2681 H   0  0  0  0  0  0  0  0  0  0  0  0
   -2.2227   -0.6004   -0.1374 H   0  0  0  0  0  0  0  0  0  0  0  0
   -1.5637   -2.9879    0.0337 H   0  0  0  0  0  0  0  0  0  0  0  0
   -0.5125   -2.6251    1.3996 H   0  0  0  0  0  0  0  0  0  0  0  0
   -0.2112   -1.7280   -1.4955 H   0  0  0  0  0  0  0  0  0  0  0  0
    0.8681   -2.7266   -0.5123 H   0  0  0  0  0  0  0  0  0  0  0  0
  1  2  1  0
  2  3  1  0
  3  4  1  0
  4  5  1  0
  5  6  1  0
  5  7  1  0
  7  8  2  0
  8  9  1  0
  9 10  2  0
 10 11  1  0
 11 12  2  3
 12 13  1  0
 13 14  3  0
 12 15  1  0
 15 16  3  0
 11 17  1  0
 17 18  1  0
 18 19  1  0
 19 20  1  0
 20 21  1  0
 21  7  1  0
 19  9  1  0
  1 22  1  0
  1 23  1  0
  1 24  1  0
  2 25  1  0
  2 26  1  0
  3 27  1  0
  3 28  1  0
  4 29  1  0
  4 30  1  0
  6 31  1  0
  6 32  1  0
  6 33  1  0
  8 34  1  0
 10 35  1  0
 17 36  1  0
 17 37  1  0
 18 38  1  0
 18 39  1  0
 19 40  1  0
 20 41  1  0
 20 42  1  0
 21 43  1  0
 21 44  1  0
M  END
$$$$
