
     RDKit          3D

 48 51  0  0  0  0  0  0  0  0999 V2000
   -7.5892   -2.3246    0.5386 C   0  0  0  0  0  0  0  0  0  0  0  0
   -6.4588   -1.3777    0.2537 C   0  0  0  0  0  0  0  0  0  0  0  0
   -6.7281   -0.0262    0.0742 C   0  0  0  0  0  0  0  0  0  0  0  0
   -5.6856    0.8765   -0.1980 C   0  0  0  0  0  0  0  0  0  0  0  0
   -6.0216    2.3280   -0.3980 C   0  0  0  0  0  0  0  0  0  0  0  0
   -4.3659    0.3458   -0.2573 C   0  0  0  0  0  0  0  0  0  0  0  0
   -3.0622    0.9223   -0.4859 C   0  0  0  0  0  0  0  0  0  0  0  0
   -2.8386    2.2432   -0.6953 N   0  0  0  0  0  0  0  0  0  0  0  0
   -2.0353   -0.0083   -0.4804 C   0  0  0  0  0  0  0  0  0  0  0  0
   -0.6082    0.2344   -0.6686 C   0  0  0  0  0  0  0  0  0  0  0  0
   -0.1302    1.3662   -0.7785 O   0  0  0  0  0  0  0  0  0  0  0  0
    0.1993   -0.8999   -0.7233 N   0  0  0  0  0  0  0  0  0  0  0  0
    1.5931   -0.7372   -0.5071 N   0  0  0  0  0  0  0  0  0  0  0  0
    2.3485   -0.4487   -1.7129 C   0  0  0  0  0  0  0  0  0  0  0  0
    3.7126    0.1371   -1.3499 C   0  0  0  0  0  0  0  0  0  0  0  0
    4.3023    0.8628   -2.1508 O   0  0  0  0  0  0  0  0  0  0  0  0
    4.2549   -0.3398   -0.1406 N   0  0  0  0  0  0  0  0  0  0  0  0
    5.5340    0.1255    0.3293 C   0  0  0  0  0  0  0  0  0  0  0  0
    5.9247    1.4572    0.1156 C   0  0  0  0  0  0  0  0  0  0  0  0
    7.1507    1.9421    0.5888 C   0  0  0  0  0  0  0  0  0  0  0  0
    8.0141    1.1049    1.2888 C   0  0  0  0  0  0  0  0  0  0  0  0
    7.6510   -0.2185    1.5133 C   0  0  0  0  0  0  0  0  0  0  0  0
    6.4278   -0.6960    1.0393 C   0  0  0  0  0  0  0  0  0  0  0  0
    6.1599   -1.9953    1.2441 F   0  0  0  0  0  0  0  0  0  0  0  0
    3.6840   -1.5630    0.4417 C   0  0  0  0  0  0  0  0  0  0  0  0
    2.1580   -1.5629    0.4536 C   0  0  0  0  0  0  0  0  0  0  0  0
    1.4887   -2.3042    1.1718 O   0  0  0  0  0  0  0  0  0  0  0  0
   -2.6391   -1.5820   -0.1858 S   0  0  0  0  0  0  0  0  0  0  0  0
   -4.2408   -1.0276   -0.0678 C   0  0  0  0  0  0  0  0  0  0  0  0
   -5.2267   -1.9112    0.1835 N   0  0  0  0  0  0  0  0  0  0  0  0
   -8.1019   -2.0346    1.4610 H   0  0  0  0  0  0  0  0  0  0  0  0
   -7.2197   -3.3479    0.6619 H   0  0  0  0  0  0  0  0  0  0  0  0
   -8.3050   -2.3184   -0.2894 H   0  0  0  0  0  0  0  0  0  0  0  0
   -7.7541    0.3277    0.1404 H   0  0  0  0  0  0  0  0  0  0  0  0
   -5.6393    2.9196    0.4393 H   0  0  0  0  0  0  0  0  0  0  0  0
   -5.5886    2.6934   -1.3342 H   0  0  0  0  0  0  0  0  0  0  0  0
   -7.1034    2.4882   -0.4574 H   0  0  0  0  0  0  0  0  0  0  0  0
   -3.4918    2.9520   -0.3814 H   0  0  0  0  0  0  0  0  0  0  0  0
   -1.8734    2.5886   -0.7068 H   0  0  0  0  0  0  0  0  0  0  0  0
   -0.1927   -1.7561   -0.3277 H   0  0  0  0  0  0  0  0  0  0  0  0
    2.5018   -1.3749   -2.2771 H   0  0  0  0  0  0  0  0  0  0  0  0
    1.8071    0.2824   -2.3212 H   0  0  0  0  0  0  0  0  0  0  0  0
    5.2729    2.1562   -0.4044 H   0  0  0  0  0  0  0  0  0  0  0  0
    7.4243    2.9794    0.4081 H   0  0  0  0  0  0  0  0  0  0  0  0
    8.9663    1.4820    1.6530 H   0  0  0  0  0  0  0  0  0  0  0  0
    8.3159   -0.8907    2.0470 H   0  0  0  0  0  0  0  0  0  0  0  0
    4.0312   -2.4269   -0.1343 H   0  0  0  0  0  0  0  0  0  0  0  0
    3.9772   -1.6429    1.4934 H   0  0  0  0  0  0  0  0  0  0  0  0
  1  2  1  0
  2  3  2  0
  3  4  1  0
  4  5  1  0
  4  6  2  0
  6  7  1  0
  7  8  1  0
  7  9  2  0
  9 10  1  0
 10 11  2  0
 10 12  1  0
 12 13  1  0
 13 14  1  0
 14 15  1  0
 15 16  2  0
 15 17  1  0
 17 18  1  0
 18 19  2  0
 19 20  1  0
 20 21  2  0
 21 22  1  0
 22 23  2  0
 23 24  1  0
 17 25  1  0
 25 26  1  0
 26 27  2  0
  9 28  1  0
 28 29  1  0
 29 30  2  0
 30  2  1  0
 29  6  1  0
 26 13  1  0
 23 18  1  0
  1 31  1  0
  1 32  1  0
  1 33  1  0
  3 34  1  0
  5 35  1  0
  5 36  1  0
  5 37  1  0
  8 38  1  0
  8 39  1  0
 12 40  1  0
 14 41  1  0
 14 42  1  0
 19 43  1  0
 20 44  1  0
 21 45  1  0
 22 46  1  0
 25 47  1  0
 25 48  1  0
M  END
$$$$
