
     RDKit          3D

 35 36  0  0  0  0  0  0  0  0999 V2000
   -4.6194   -1.6296    1.9001 C   0  0  0  0  0  0  0  0  0  0  0  0
   -4.5835   -0.1130    1.8290 C   0  0  0  0  0  0  0  0  0  0  0  0
   -4.0166    0.3230    0.5936 O   0  0  0  0  0  0  0  0  0  0  0  0
   -2.6679    0.5127    0.5135 C   0  0  0  0  0  0  0  0  0  0  0  0
   -1.7280    0.2044    1.4900 C   0  0  0  0  0  0  0  0  0  0  0  0
   -0.3623    0.4499    1.2729 C   0  0  0  0  0  0  0  0  0  0  0  0
    0.1032    1.0091    0.0767 C   0  0  0  0  0  0  0  0  0  0  0  0
    1.4832    1.2544   -0.1444 N   0  0  0  0  0  0  0  0  0  0  0  0
    2.5600    0.9819    0.6837 C   0  0  0  0  0  0  0  0  0  0  0  0
    2.4844    0.5219    1.8213 O   0  0  0  0  0  0  0  0  0  0  0  0
    3.9131    1.4012    0.1165 C   0  0  0  0  0  0  0  0  0  0  0  0
    4.0640    1.1273   -1.6702 S   0  0  0  0  0  0  0  0  0  0  0  0
    3.8499   -0.5972   -1.7294 C   0  0  0  0  0  0  0  0  0  0  0  0
    4.1828   -1.4358   -0.7045 N   0  0  0  0  0  0  0  0  0  0  0  0
    3.8416   -2.6162   -1.1654 C   0  0  0  0  0  0  0  0  0  0  0  0
    3.3229   -2.4811   -2.4137 N   0  0  0  0  0  0  0  0  0  0  0  0
    3.3060   -1.1939   -2.7923 N   0  0  0  0  0  0  0  0  0  0  0  0
   -0.8631    1.3087   -0.9080 C   0  0  0  0  0  0  0  0  0  0  0  0
   -0.4886    1.8859   -2.2032 N   0  0  0  0  0  4  0  0  0  0  0  0
    0.5769    2.5179   -2.2691 O   0  0  0  0  0  0  0  0  0  0  0  0
   -1.2592    1.7126   -3.1579 O   0  0  0  0  0  1  0  0  0  0  0  0
   -2.2314    1.0611   -0.6904 C   0  0  0  0  0  0  0  0  0  0  0  0
   -3.6121   -2.0558    1.8797 H   0  0  0  0  0  0  0  0  0  0  0  0
   -5.1546   -2.0407    1.0376 H   0  0  0  0  0  0  0  0  0  0  0  0
   -5.1193   -1.9618    2.8145 H   0  0  0  0  0  0  0  0  0  0  0  0
   -5.6148    0.2578    1.8433 H   0  0  0  0  0  0  0  0  0  0  0  0
   -4.0917    0.3358    2.6990 H   0  0  0  0  0  0  0  0  0  0  0  0
   -2.0098   -0.2388    2.4402 H   0  0  0  0  0  0  0  0  0  0  0  0
    0.3141    0.1835    2.0802 H   0  0  0  0  0  0  0  0  0  0  0  0
    1.7273    1.6778   -1.0434 H   0  0  0  0  0  0  0  0  0  0  0  0
    4.7060    0.8556    0.6381 H   0  0  0  0  0  0  0  0  0  0  0  0
    4.0458    2.4685    0.3203 H   0  0  0  0  0  0  0  0  0  0  0  0
    3.9431   -3.5658   -0.6596 H   0  0  0  0  0  0  0  0  0  0  0  0
    2.9693   -3.1921   -3.0445 H   0  0  0  0  0  0  0  0  0  0  0  0
   -2.9715    1.2964   -1.4541 H   0  0  0  0  0  0  0  0  0  0  0  0
  1  2  1  0
  2  3  1  0
  3  4  1  0
  4  5  2  0
  5  6  1  0
  6  7  2  0
  7  8  1  0
  8  9  1  0
  9 10  2  0
  9 11  1  0
 11 12  1  0
 12 13  1  0
 13 14  1  0
 14 15  2  0
 15 16  1  0
 16 17  1  0
  7 18  1  0
 18 19  1  0
 19 20  2  0
 19 21  1  0
 18 22  2  0
 22  4  1  0
 17 13  2  0
  1 23  1  0
  1 24  1  0
  1 25  1  0
  2 26  1  0
  2 27  1  0
  5 28  1  0
  6 29  1  0
  8 30  1  0
 11 31  1  0
 11 32  1  0
 15 33  1  0
 16 34  1  0
 22 35  1  0
M  CHG  2  19   1  21  -1
M  END
$$$$
