
     RDKit          3D

 50 53  0  0  0  0  0  0  0  0999 V2000
    0.8145    3.8810    0.4496 C   0  0  0  0  0  0  0  0  0  0  0  0
    1.0814    2.8330    1.5197 C   0  0  0  0  0  0  0  0  0  0  0  0
    0.7031    1.4464    1.0558 C   0  0  0  0  0  0  0  0  0  0  0  0
    1.6786    0.6219    0.4729 C   0  0  0  0  0  0  0  0  0  0  0  0
    1.3623   -0.6650    0.0227 C   0  0  0  0  0  0  0  0  0  0  0  0
    2.3719   -1.5508   -0.5799 C   0  0  0  0  0  0  0  0  0  0  0  0
    3.7914   -1.2154   -0.8030 C   0  0  0  0  0  0  0  0  0  0  0  0
    4.1898   -0.5908   -1.9915 C   0  0  0  0  0  0  0  0  0  0  0  0
    5.5328   -0.2732   -2.2011 C   0  0  0  0  0  0  0  0  0  0  0  0
    6.4825   -0.5778   -1.2266 C   0  0  0  0  0  0  0  0  0  0  0  0
    6.0924   -1.1996   -0.0410 C   0  0  0  0  0  0  0  0  0  0  0  0
    4.7502   -1.5187    0.1719 C   0  0  0  0  0  0  0  0  0  0  0  0
    1.9895   -2.7762   -0.9711 C   0  0  0  0  0  0  0  0  0  0  0  0
    0.6173   -3.2746   -0.8265 C   0  0  0  0  0  0  0  0  0  0  0  0
    0.3144   -4.4026   -1.1969 O   0  0  0  0  0  0  0  0  0  0  0  0
   -0.3048   -2.4133   -0.2593 O   0  0  0  0  0  0  0  0  0  0  0  0
    0.0448   -1.1103    0.1618 C   0  0  0  0  0  0  0  0  0  0  0  0
   -0.9728   -0.3129    0.7156 C   0  0  0  0  0  0  0  0  0  0  0  0
   -2.3707   -0.8748    0.8992 C   0  0  0  0  0  0  0  0  0  0  0  0
   -3.4414    0.1369    0.7368 N   0  0  0  0  0  0  0  0  0  0  0  0
   -4.7076   -0.3814    1.3139 C   0  0  0  0  0  0  0  0  0  0  0  0
   -5.9381    0.3018    0.7010 C   0  0  0  0  0  0  0  0  0  0  0  0
   -6.0770    0.0293   -0.6997 O   0  0  0  0  0  0  0  0  0  0  0  0
   -4.8268   -0.2228   -1.3542 C   0  0  0  0  0  0  0  0  0  0  0  0
   -3.6446    0.5014   -0.6912 C   0  0  0  0  0  0  0  0  0  0  0  0
   -0.6107    0.9685    1.1639 C   0  0  0  0  0  0  0  0  0  0  0  0
   -1.5438    1.8048    1.7201 O   0  0  0  0  0  0  0  0  0  0  0  0
   -0.2467    3.9182    0.1818 H   0  0  0  0  0  0  0  0  0  0  0  0
    1.3833    3.6697   -0.4623 H   0  0  0  0  0  0  0  0  0  0  0  0
    1.1075    4.8722    0.8099 H   0  0  0  0  0  0  0  0  0  0  0  0
    0.5375    3.0851    2.4378 H   0  0  0  0  0  0  0  0  0  0  0  0
    2.1439    2.8534    1.7924 H   0  0  0  0  0  0  0  0  0  0  0  0
    2.6951    1.0004    0.3786 H   0  0  0  0  0  0  0  0  0  0  0  0
    3.4580   -0.3456   -2.7580 H   0  0  0  0  0  0  0  0  0  0  0  0
    5.8384    0.2124   -3.1245 H   0  0  0  0  0  0  0  0  0  0  0  0
    7.5283   -0.3298   -1.3910 H   0  0  0  0  0  0  0  0  0  0  0  0
    6.8338   -1.4355    0.7183 H   0  0  0  0  0  0  0  0  0  0  0  0
    4.4579   -2.0005    1.1022 H   0  0  0  0  0  0  0  0  0  0  0  0
    2.6788   -3.4819   -1.4234 H   0  0  0  0  0  0  0  0  0  0  0  0
   -2.3998   -1.2750    1.9217 H   0  0  0  0  0  0  0  0  0  0  0  0
   -2.5596   -1.7136    0.2186 H   0  0  0  0  0  0  0  0  0  0  0  0
   -4.6946   -0.2167    2.3968 H   0  0  0  0  0  0  0  0  0  0  0  0
   -4.7955   -1.4620    1.1377 H   0  0  0  0  0  0  0  0  0  0  0  0
   -6.8497   -0.0499    1.1948 H   0  0  0  0  0  0  0  0  0  0  0  0
   -5.8923    1.3886    0.8379 H   0  0  0  0  0  0  0  0  0  0  0  0
   -4.9315    0.1039   -2.3939 H   0  0  0  0  0  0  0  0  0  0  0  0
   -4.6602   -1.3061   -1.3696 H   0  0  0  0  0  0  0  0  0  0  0  0
   -3.8503    1.5792   -0.7104 H   0  0  0  0  0  0  0  0  0  0  0  0
   -2.7359    0.3537   -1.2858 H   0  0  0  0  0  0  0  0  0  0  0  0
   -2.4251    1.4151    1.5276 H   0  0  0  0  0  0  0  0  0  0  0  0
  1  2  1  0
  2  3  1  0
  3  4  2  0
  4  5  1  0
  5  6  1  0
  6  7  1  0
  7  8  2  0
  8  9  1  0
  9 10  2  0
 10 11  1  0
 11 12  2  0
  6 13  2  0
 13 14  1  0
 14 15  2  0
 14 16  1  0
 16 17  1  0
 17 18  1  0
 18 19  1  0
 19 20  1  0
 20 21  1  0
 21 22  1  0
 22 23  1  0
 23 24  1  0
 24 25  1  0
 18 26  2  0
 26 27  1  0
 26  3  1  0
 17  5  2  0
 25 20  1  0
 12  7  1  0
  1 28  1  0
  1 29  1  0
  1 30  1  0
  2 31  1  0
  2 32  1  0
  4 33  1  0
  8 34  1  0
  9 35  1  0
 10 36  1  0
 11 37  1  0
 12 38  1  0
 13 39  1  0
 19 40  1  0
 19 41  1  0
 21 42  1  0
 21 43  1  0
 22 44  1  0
 22 45  1  0
 24 46  1  0
 24 47  1  0
 25 48  1  0
 25 49  1  0
 27 50  1  0
M  END
$$$$
