
     RDKit          3D

 47 49  0  0  0  0  0  0  0  0999 V2000
    8.1543   -1.9904   -1.9772 C   0  0  0  0  0  0  0  0  0  0  0  0
    7.2276   -1.1812   -2.6908 O   0  0  0  0  0  0  0  0  0  0  0  0
    5.9665   -1.0861   -2.1724 C   0  0  0  0  0  0  0  0  0  0  0  0
    5.5224   -1.6526   -0.9795 C   0  0  0  0  0  0  0  0  0  0  0  0
    4.1954   -1.4757   -0.5612 C   0  0  0  0  0  0  0  0  0  0  0  0
    3.2935   -0.7467   -1.3362 C   0  0  0  0  0  0  0  0  0  0  0  0
    1.9554   -0.4953   -0.9660 N   0  0  0  0  0  0  0  0  0  0  0  0
    1.0899   -1.1835   -0.1241 C   0  0  0  0  0  0  0  0  0  0  0  0
    1.2372   -2.8063    0.2936 S   0  0  0  0  0  0  0  0  0  0  0  0
    0.0014   -0.3705    0.2733 N   0  0  0  0  0  0  0  0  0  0  0  0
    0.1895    1.0606    0.5500 C   0  0  0  0  0  0  0  0  0  0  0  0
   -1.0053    1.8724    0.0586 C   0  0  0  0  0  0  0  0  0  0  0  0
   -2.3052    1.3095    0.5726 C   0  0  0  0  0  0  0  0  0  0  0  0
   -3.4516    2.1183    0.6116 C   0  0  0  0  0  0  0  0  0  0  0  0
   -4.6735    1.6074    1.0631 C   0  0  0  0  0  0  0  0  0  0  0  0
   -5.8374    2.3322    1.1394 O   0  0  0  0  0  0  0  0  0  0  0  0
   -5.7993    3.6901    0.7268 C   0  0  0  0  0  0  0  0  0  0  0  0
   -4.7543    0.2633    1.4743 C   0  0  0  0  0  0  0  0  0  0  0  0
   -5.9862   -0.1615    1.9079 O   0  0  0  0  0  0  0  0  0  0  0  0
   -6.1168   -1.5196    2.3015 C   0  0  0  0  0  0  0  0  0  0  0  0
   -3.6125   -0.5445    1.4219 C   0  0  0  0  0  0  0  0  0  0  0  0
   -2.3854   -0.0356    0.9634 C   0  0  0  0  0  0  0  0  0  0  0  0
   -1.1782   -0.9504    0.9340 C   0  0  0  0  0  0  0  0  0  0  0  0
    3.7524   -0.1548   -2.5175 C   0  0  0  0  0  0  0  0  0  0  0  0
    5.0754   -0.3310   -2.9345 C   0  0  0  0  0  0  0  0  0  0  0  0
    9.0963   -1.9898   -2.5341 H   0  0  0  0  0  0  0  0  0  0  0  0
    7.8069   -3.0269   -1.9117 H   0  0  0  0  0  0  0  0  0  0  0  0
    8.3549   -1.5762   -0.9836 H   0  0  0  0  0  0  0  0  0  0  0  0
    6.1807   -2.2311   -0.3400 H   0  0  0  0  0  0  0  0  0  0  0  0
    3.9087   -1.8959    0.3971 H   0  0  0  0  0  0  0  0  0  0  0  0
    1.4686    0.1700   -1.5529 H   0  0  0  0  0  0  0  0  0  0  0  0
    1.1087    1.4540    0.1077 H   0  0  0  0  0  0  0  0  0  0  0  0
    0.3065    1.1618    1.6373 H   0  0  0  0  0  0  0  0  0  0  0  0
   -1.0362    1.8597   -1.0377 H   0  0  0  0  0  0  0  0  0  0  0  0
   -0.8875    2.9124    0.3841 H   0  0  0  0  0  0  0  0  0  0  0  0
   -3.3634    3.1489    0.2835 H   0  0  0  0  0  0  0  0  0  0  0  0
   -6.8035    4.1063    0.8526 H   0  0  0  0  0  0  0  0  0  0  0  0
   -5.5357    3.7742   -0.3326 H   0  0  0  0  0  0  0  0  0  0  0  0
   -5.1172    4.2745    1.3531 H   0  0  0  0  0  0  0  0  0  0  0  0
   -7.1569   -1.6828    2.5999 H   0  0  0  0  0  0  0  0  0  0  0  0
   -5.4846   -1.7422    3.1672 H   0  0  0  0  0  0  0  0  0  0  0  0
   -5.9009   -2.1958    1.4678 H   0  0  0  0  0  0  0  0  0  0  0  0
   -3.6496   -1.5844    1.7321 H   0  0  0  0  0  0  0  0  0  0  0  0
   -1.4572   -1.8723    0.4118 H   0  0  0  0  0  0  0  0  0  0  0  0
   -0.8948   -1.1932    1.9656 H   0  0  0  0  0  0  0  0  0  0  0  0
    3.0881    0.4376   -3.1407 H   0  0  0  0  0  0  0  0  0  0  0  0
    5.4130    0.1232   -3.8628 H   0  0  0  0  0  0  0  0  0  0  0  0
  1  2  1  0
  2  3  1  0
  3  4  2  0
  4  5  1  0
  5  6  2  0
  6  7  1  0
  7  8  1  0
  8  9  2  0
  8 10  1  0
 10 11  1  0
 11 12  1  0
 12 13  1  0
 13 14  2  0
 14 15  1  0
 15 16  1  0
 16 17  1  0
 15 18  2  0
 18 19  1  0
 19 20  1  0
 18 21  1  0
 21 22  2  0
 22 23  1  0
  6 24  1  0
 24 25  2  0
 25  3  1  0
 23 10  1  0
 22 13  1  0
  1 26  1  0
  1 27  1  0
  1 28  1  0
  4 29  1  0
  5 30  1  0
  7 31  1  0
 11 32  1  0
 11 33  1  0
 12 34  1  0
 12 35  1  0
 14 36  1  0
 17 37  1  0
 17 38  1  0
 17 39  1  0
 20 40  1  0
 20 41  1  0
 20 42  1  0
 21 43  1  0
 23 44  1  0
 23 45  1  0
 24 46  1  0
 25 47  1  0
M  END
$$$$
