
     RDKit          3D

 37 37  0  0  0  0  0  0  0  0999 V2000
    5.7623   -0.9356   -0.3349 C   0  0  0  0  0  0  0  0  0  0  0  0
    4.4556   -0.1918   -0.5654 C   0  0  0  0  0  0  0  0  0  0  0  0
    3.4741   -0.4204    0.5847 C   0  0  0  0  0  0  0  0  0  0  0  0
    2.1851    0.3951    0.4542 C   0  0  0  0  0  0  0  0  0  0  0  0
    1.3299   -0.0091   -0.7458 C   0  0  0  0  0  0  0  0  0  0  0  0
   -0.0059    0.7154   -0.7687 C   0  0  0  0  0  0  0  0  0  0  0  0
   -0.3018    1.6040    0.0244 O   0  0  0  0  0  0  0  0  0  0  0  0
   -0.8248    0.2376   -1.7993 N   0  0  0  0  0  0  0  0  0  0  0  0
   -1.9788    0.9007   -2.1319 N   0  0  0  0  0  0  0  0  0  0  0  0
   -2.9459    0.9550   -1.2595 C   0  0  0  0  0  0  0  0  0  0  0  0
   -4.1259    1.8400   -1.5915 C   0  0  0  0  0  0  0  0  0  0  0  0
   -3.0315    0.1937    0.0129 C   0  0  0  0  0  0  0  0  0  0  0  0
   -2.9389   -1.2022   -0.0109 C   0  0  0  0  0  0  0  0  0  0  0  0
   -3.0369   -1.9223    1.1812 C   0  0  0  0  0  0  0  0  0  0  0  0
   -3.2286   -1.2443    2.3859 C   0  0  0  0  0  0  0  0  0  0  0  0
   -3.3457   -2.1340    3.8541 Cl  0  0  0  0  0  0  0  0  0  0  0  0
   -3.3259    0.1474    2.4106 C   0  0  0  0  0  0  0  0  0  0  0  0
   -3.2312    0.8710    1.2198 C   0  0  0  0  0  0  0  0  0  0  0  0
    6.2514   -0.5950    0.5834 H   0  0  0  0  0  0  0  0  0  0  0  0
    5.5907   -2.0137   -0.2540 H   0  0  0  0  0  0  0  0  0  0  0  0
    6.4491   -0.7623   -1.1693 H   0  0  0  0  0  0  0  0  0  0  0  0
    4.6652    0.8790   -0.6695 H   0  0  0  0  0  0  0  0  0  0  0  0
    4.0209   -0.5332   -1.5108 H   0  0  0  0  0  0  0  0  0  0  0  0
    3.9588   -0.1447    1.5296 H   0  0  0  0  0  0  0  0  0  0  0  0
    3.2287   -1.4870    0.6561 H   0  0  0  0  0  0  0  0  0  0  0  0
    2.4277    1.4635    0.3950 H   0  0  0  0  0  0  0  0  0  0  0  0
    1.6011    0.2623    1.3740 H   0  0  0  0  0  0  0  0  0  0  0  0
    1.1354   -1.0877   -0.7171 H   0  0  0  0  0  0  0  0  0  0  0  0
    1.8508    0.2248   -1.6805 H   0  0  0  0  0  0  0  0  0  0  0  0
   -0.3209   -0.0942   -2.6170 H   0  0  0  0  0  0  0  0  0  0  0  0
   -4.4399    1.6549   -2.6233 H   0  0  0  0  0  0  0  0  0  0  0  0
   -3.8255    2.8873   -1.4942 H   0  0  0  0  0  0  0  0  0  0  0  0
   -4.9765    1.6476   -0.9323 H   0  0  0  0  0  0  0  0  0  0  0  0
   -2.7944   -1.7265   -0.9520 H   0  0  0  0  0  0  0  0  0  0  0  0
   -2.9637   -3.0064    1.1653 H   0  0  0  0  0  0  0  0  0  0  0  0
   -3.4648    0.6742    3.3510 H   0  0  0  0  0  0  0  0  0  0  0  0
   -3.2794    1.9569    1.2420 H   0  0  0  0  0  0  0  0  0  0  0  0
  1  2  1  0
  2  3  1  0
  3  4  1  0
  4  5  1  0
  5  6  1  0
  6  7  2  0
  6  8  1  0
  8  9  1  0
  9 10  2  3
 10 11  1  0
 10 12  1  0
 12 13  2  0
 13 14  1  0
 14 15  2  0
 15 16  1  0
 15 17  1  0
 17 18  2  0
 18 12  1  0
  1 19  1  0
  1 20  1  0
  1 21  1  0
  2 22  1  0
  2 23  1  0
  3 24  1  0
  3 25  1  0
  4 26  1  0
  4 27  1  0
  5 28  1  0
  5 29  1  0
  8 30  1  0
 11 31  1  0
 11 32  1  0
 11 33  1  0
 13 34  1  0
 14 35  1  0
 17 36  1  0
 18 37  1  0
M  END
$$$$
