
     RDKit          3D

 42 44  0  0  0  0  0  0  0  0999 V2000
   -4.5893    1.9746   -1.8796 C   0  0  0  0  0  0  0  0  0  0  0  0
   -4.6260    0.6740   -1.0569 C   0  0  0  0  0  0  0  0  0  0  0  0
   -5.5115    0.9056    0.1773 C   0  0  0  0  0  0  0  0  0  0  0  0
   -5.2231   -0.4380   -1.9334 C   0  0  0  0  0  0  0  0  0  0  0  0
   -3.2535    0.3477   -0.6620 N   0  0  0  0  0  0  0  0  0  0  0  0
   -2.8641   -0.7475    0.0889 C   0  0  0  0  0  0  0  0  0  0  0  0
   -3.6402   -1.5916    0.5246 O   0  0  0  0  0  0  0  0  0  0  0  0
   -1.4008   -0.7867    0.3076 C   0  0  0  0  0  0  0  0  0  0  0  0
   -0.5665    0.1875   -0.2022 N   0  0  0  0  0  0  0  0  0  0  0  0
    0.6297   -0.1844    0.1900 C   0  0  0  0  0  0  0  0  0  0  0  0
    1.8281    0.4213   -0.0418 N   0  0  0  0  0  0  0  0  0  0  0  0
    2.8885   -0.1537    0.4487 C   0  0  0  0  0  0  0  0  0  0  0  0
    4.2238    0.4690    0.2147 C   0  0  0  0  0  0  0  0  0  0  0  0
    5.3828   -0.2999    0.0475 C   0  0  0  0  0  0  0  0  0  0  0  0
    6.6120    0.3272   -0.1721 C   0  0  0  0  0  0  0  0  0  0  0  0
    6.6880    1.7182   -0.2341 C   0  0  0  0  0  0  0  0  0  0  0  0
    5.5352    2.4874   -0.0858 C   0  0  0  0  0  0  0  0  0  0  0  0
    4.3047    1.8656    0.1330 C   0  0  0  0  0  0  0  0  0  0  0  0
    2.8637   -1.4075    1.2701 C   0  0  0  0  0  0  0  0  0  0  0  0
    1.6553   -1.9679    1.4724 C   0  0  0  0  0  0  0  0  0  0  0  0
    1.4357   -3.2011    2.2612 C   0  0  0  0  0  0  0  0  0  0  0  0
    0.6494   -2.9969    3.3450 F   0  0  0  0  0  0  0  0  0  0  0  0
    0.8906   -4.2010    1.5276 F   0  0  0  0  0  0  0  0  0  0  0  0
    2.6134   -3.6919    2.7417 F   0  0  0  0  0  0  0  0  0  0  0  0
    0.5282   -1.3673    0.9313 N   0  0  0  0  0  0  0  0  0  0  0  0
   -0.7656   -1.7438    1.0010 N   0  0  0  0  0  0  0  0  0  0  0  0
   -5.5923    2.2717   -2.2056 H   0  0  0  0  0  0  0  0  0  0  0  0
   -3.9655    1.8587   -2.7738 H   0  0  0  0  0  0  0  0  0  0  0  0
   -4.1672    2.8001   -1.2943 H   0  0  0  0  0  0  0  0  0  0  0  0
   -5.0820    1.6738    0.8307 H   0  0  0  0  0  0  0  0  0  0  0  0
   -6.5163    1.2335   -0.1126 H   0  0  0  0  0  0  0  0  0  0  0  0
   -5.6261   -0.0040    0.7756 H   0  0  0  0  0  0  0  0  0  0  0  0
   -5.3298   -1.3790   -1.3843 H   0  0  0  0  0  0  0  0  0  0  0  0
   -6.2174   -0.1607   -2.3014 H   0  0  0  0  0  0  0  0  0  0  0  0
   -4.5860   -0.6381   -2.8027 H   0  0  0  0  0  0  0  0  0  0  0  0
   -2.4932    0.9575   -0.9550 H   0  0  0  0  0  0  0  0  0  0  0  0
    5.3520   -1.3854    0.0565 H   0  0  0  0  0  0  0  0  0  0  0  0
    7.5116   -0.2694   -0.3054 H   0  0  0  0  0  0  0  0  0  0  0  0
    7.6454    2.2036   -0.4088 H   0  0  0  0  0  0  0  0  0  0  0  0
    5.5922    3.5716   -0.1454 H   0  0  0  0  0  0  0  0  0  0  0  0
    3.4112    2.4777    0.2406 H   0  0  0  0  0  0  0  0  0  0  0  0
    3.7749   -1.8106    1.6948 H   0  0  0  0  0  0  0  0  0  0  0  0
  1  2  1  0
  2  3  1  0
  2  4  1  0
  2  5  1  0
  5  6  1  0
  6  7  2  0
  6  8  1  0
  8  9  1  0
  9 10  2  0
 10 11  1  0
 11 12  2  0
 12 13  1  0
 13 14  2  0
 14 15  1  0
 15 16  2  0
 16 17  1  0
 17 18  2  0
 12 19  1  0
 19 20  2  0
 20 21  1  0
 21 22  1  0
 21 23  1  0
 21 24  1  0
 20 25  1  0
 25 26  1  0
 26  8  2  0
 25 10  1  0
 18 13  1  0
  1 27  1  0
  1 28  1  0
  1 29  1  0
  3 30  1  0
  3 31  1  0
  3 32  1  0
  4 33  1  0
  4 34  1  0
  4 35  1  0
  5 36  1  0
 14 37  1  0
 15 38  1  0
 16 39  1  0
 17 40  1  0
 18 41  1  0
 19 42  1  0
M  END
$$$$
