
     RDKit          3D

 51 53  0  0  0  0  0  0  0  0999 V2000
    7.3967    2.5669    0.9196 C   0  0  0  0  0  0  0  0  0  0  0  0
    7.1659    1.5578   -0.0548 O   0  0  0  0  0  0  0  0  0  0  0  0
    7.3210    0.2468    0.5024 C   0  0  0  0  0  0  0  0  0  0  0  0
    6.9960   -0.7879   -0.5759 C   0  0  0  0  0  0  0  0  0  0  0  0
    5.6015   -0.7337   -0.9744 N   0  0  0  0  0  0  0  0  0  0  0  0
    4.6026   -1.3107   -0.2156 C   0  0  0  0  0  0  0  0  0  0  0  0
    4.8815   -2.0322    0.7411 O   0  0  0  0  0  0  0  0  0  0  0  0
    3.2286   -0.9942   -0.6140 C   0  0  0  0  0  0  0  0  0  0  0  0
    2.9213   -0.0695   -2.0273 S   0  0  0  0  0  0  0  0  0  0  0  0
    1.2393   -0.1718   -1.8324 C   0  0  0  0  0  0  0  0  0  0  0  0
    0.3994    0.4172   -2.7200 N   0  0  0  0  0  0  0  0  0  0  0  0
   -0.8555    0.2494   -2.4551 C   0  0  0  0  0  0  0  0  0  0  0  0
   -1.3635   -0.4818   -1.4005 N   0  0  0  0  0  0  0  0  0  0  0  0
   -2.8028   -0.5780   -1.2093 C   0  0  0  0  0  0  0  0  0  0  0  0
   -3.3067    0.5832   -0.3409 C   0  0  0  0  0  0  0  0  0  0  0  0
   -2.5697    1.5343   -0.0691 O   0  0  0  0  0  0  0  0  0  0  0  0
   -4.6474    0.5483    0.0619 N   0  0  0  0  0  0  0  0  0  0  0  0
   -5.4551   -0.6729    0.0202 C   0  0  0  0  0  0  0  0  0  0  0  0
   -6.9523   -0.3854   -0.0402 C   0  0  0  0  0  0  0  0  0  0  0  0
   -7.3818    0.5841    1.0532 C   0  0  0  0  0  0  0  0  0  0  0  0
   -6.5553    1.8610    0.9710 C   0  0  0  0  0  0  0  0  0  0  0  0
   -5.0624    1.5588    1.0375 C   0  0  0  0  0  0  0  0  0  0  0  0
   -0.5319   -1.0741   -0.4522 C   0  0  0  0  0  0  0  0  0  0  0  0
   -0.9651   -1.7142    0.5031 O   0  0  0  0  0  0  0  0  0  0  0  0
    0.8915   -0.8942   -0.7122 C   0  0  0  0  0  0  0  0  0  0  0  0
    2.0435   -1.3596    0.0261 C   0  0  0  0  0  0  0  0  0  0  0  0
    1.9878   -2.1459    1.3014 C   0  0  0  0  0  0  0  0  0  0  0  0
    7.2774    3.5421    0.4400 H   0  0  0  0  0  0  0  0  0  0  0  0
    6.6695    2.4866    1.7333 H   0  0  0  0  0  0  0  0  0  0  0  0
    8.4146    2.4930    1.3142 H   0  0  0  0  0  0  0  0  0  0  0  0
    6.6552    0.1321    1.3654 H   0  0  0  0  0  0  0  0  0  0  0  0
    8.3587    0.1199    0.8301 H   0  0  0  0  0  0  0  0  0  0  0  0
    7.2236   -1.7947   -0.2109 H   0  0  0  0  0  0  0  0  0  0  0  0
    7.5844   -0.5959   -1.4789 H   0  0  0  0  0  0  0  0  0  0  0  0
    5.3290    0.0041   -1.6130 H   0  0  0  0  0  0  0  0  0  0  0  0
   -1.6190    0.7035   -3.1074 H   0  0  0  0  0  0  0  0  0  0  0  0
   -3.3040   -0.5230   -2.1816 H   0  0  0  0  0  0  0  0  0  0  0  0
   -3.0338   -1.5323   -0.7278 H   0  0  0  0  0  0  0  0  0  0  0  0
   -5.1867   -1.2794   -0.8487 H   0  0  0  0  0  0  0  0  0  0  0  0
   -5.2101   -1.2544    0.9171 H   0  0  0  0  0  0  0  0  0  0  0  0
   -7.1979    0.0464   -1.0187 H   0  0  0  0  0  0  0  0  0  0  0  0
   -7.5140   -1.3220    0.0478 H   0  0  0  0  0  0  0  0  0  0  0  0
   -8.4460    0.8209    0.9449 H   0  0  0  0  0  0  0  0  0  0  0  0
   -7.2509    0.1178    2.0371 H   0  0  0  0  0  0  0  0  0  0  0  0
   -6.8336    2.5399    1.7845 H   0  0  0  0  0  0  0  0  0  0  0  0
   -6.7801    2.3762    0.0288 H   0  0  0  0  0  0  0  0  0  0  0  0
   -4.7939    1.1783    2.0308 H   0  0  0  0  0  0  0  0  0  0  0  0
   -4.5040    2.4888    0.8852 H   0  0  0  0  0  0  0  0  0  0  0  0
    2.7068   -1.7566    2.0295 H   0  0  0  0  0  0  0  0  0  0  0  0
    1.0098   -2.0947    1.7833 H   0  0  0  0  0  0  0  0  0  0  0  0
    2.2181   -3.1979    1.1056 H   0  0  0  0  0  0  0  0  0  0  0  0
  1  2  1  0
  2  3  1  0
  3  4  1  0
  4  5  1  0
  5  6  1  0
  6  7  2  0
  6  8  1  0
  8  9  1  0
  9 10  1  0
 10 11  1  0
 11 12  2  0
 12 13  1  0
 13 14  1  0
 14 15  1  0
 15 16  2  0
 15 17  1  0
 17 18  1  0
 18 19  1  0
 19 20  1  0
 20 21  1  0
 21 22  1  0
 13 23  1  0
 23 24  2  0
 23 25  1  0
 25 26  1  0
 26 27  1  0
 26  8  2  0
 25 10  2  0
 22 17  1  0
  1 28  1  0
  1 29  1  0
  1 30  1  0
  3 31  1  0
  3 32  1  0
  4 33  1  0
  4 34  1  0
  5 35  1  0
 12 36  1  0
 14 37  1  0
 14 38  1  0
 18 39  1  0
 18 40  1  0
 19 41  1  0
 19 42  1  0
 20 43  1  0
 20 44  1  0
 21 45  1  0
 21 46  1  0
 22 47  1  0
 22 48  1  0
 27 49  1  0
 27 50  1  0
 27 51  1  0
M  END
$$$$
