
     RDKit          3D

 40 43  0  0  0  0  0  0  0  0999 V2000
   -3.1814    3.2603    2.1667 C   0  0  0  0  0  0  0  0  0  0  0  0
   -2.4624    2.1851    2.8970 C   0  0  0  0  0  0  0  0  0  0  0  0
   -2.3753    2.2804    4.2829 N   0  0  0  0  0  0  0  0  0  0  0  0
   -1.6921    1.2780    4.8056 N   0  0  0  0  0  0  0  0  0  0  0  0
   -1.1259    0.2113    3.6544 S   0  0  0  0  0  0  0  0  0  0  0  0
   -1.8540    1.0602    2.3534 C   0  0  0  0  0  0  0  0  0  0  0  0
   -1.7436    0.6787    0.9841 C   0  0  0  0  0  0  0  0  0  0  0  0
   -1.5369    1.5430    0.0042 N   0  0  0  0  0  0  0  0  0  0  0  0
   -1.3912    0.8395   -1.1714 N   0  0  0  0  0  0  0  0  0  0  0  0
   -1.5541   -0.4331   -0.8902 C   0  0  0  0  0  0  0  0  0  0  0  0
   -1.3254   -1.7440   -1.9932 S   0  0  0  0  0  0  0  0  0  0  0  0
    0.3067   -1.2785   -2.6501 C   0  0  0  0  0  0  0  0  0  0  0  0
    1.3699   -1.2213   -1.5608 C   0  0  0  0  0  0  0  0  0  0  0  0
    1.2284   -1.7227   -0.4446 O   0  0  0  0  0  0  0  0  0  0  0  0
    2.6616   -0.5336   -1.8710 C   0  0  0  0  0  0  0  0  0  0  0  0
    3.5432   -0.2639   -0.8132 C   0  0  0  0  0  0  0  0  0  0  0  0
    4.7642    0.3759   -1.0492 C   0  0  0  0  0  0  0  0  0  0  0  0
    5.1187    0.7504   -2.3477 C   0  0  0  0  0  0  0  0  0  0  0  0
    6.3706    1.4048   -2.5945 C   0  0  0  0  0  0  0  0  0  0  0  0
    7.3836    1.9319   -2.8003 N   0  0  0  0  0  0  0  0  0  0  0  0
    4.2460    0.4793   -3.4071 C   0  0  0  0  0  0  0  0  0  0  0  0
    3.0226   -0.1613   -3.1722 C   0  0  0  0  0  0  0  0  0  0  0  0
   -1.8357   -0.5791    0.4388 N   0  0  0  0  0  0  0  0  0  0  0  0
   -2.1282   -1.8489    1.1441 C   0  0  0  0  0  0  0  0  0  0  0  0
   -3.2751   -2.7496    0.7374 C   0  0  0  0  0  0  0  0  0  0  0  0
   -3.3300   -2.0287    2.0465 C   0  0  0  0  0  0  0  0  0  0  0  0
   -3.9280    2.8371    1.4875 H   0  0  0  0  0  0  0  0  0  0  0  0
   -2.4776    3.8628    1.5842 H   0  0  0  0  0  0  0  0  0  0  0  0
   -3.7011    3.9258    2.8634 H   0  0  0  0  0  0  0  0  0  0  0  0
    0.2124   -0.3062   -3.1424 H   0  0  0  0  0  0  0  0  0  0  0  0
    0.6027   -2.0314   -3.3866 H   0  0  0  0  0  0  0  0  0  0  0  0
    3.2828   -0.5482    0.2058 H   0  0  0  0  0  0  0  0  0  0  0  0
    5.4312    0.5776   -0.2122 H   0  0  0  0  0  0  0  0  0  0  0  0
    4.5131    0.7642   -4.4242 H   0  0  0  0  0  0  0  0  0  0  0  0
    2.3803   -0.3601   -4.0257 H   0  0  0  0  0  0  0  0  0  0  0  0
   -1.2113   -2.3552    1.4393 H   0  0  0  0  0  0  0  0  0  0  0  0
   -3.9513   -2.4231   -0.0452 H   0  0  0  0  0  0  0  0  0  0  0  0
   -3.1032   -3.8205    0.7492 H   0  0  0  0  0  0  0  0  0  0  0  0
   -3.2035   -2.6131    2.9517 H   0  0  0  0  0  0  0  0  0  0  0  0
   -4.0507   -1.2238    2.1419 H   0  0  0  0  0  0  0  0  0  0  0  0
  1  2  1  0
  2  3  1  0
  3  4  2  0
  4  5  1  0
  5  6  1  0
  6  7  1  0
  7  8  2  0
  8  9  1  0
  9 10  2  0
 10 11  1  0
 11 12  1  0
 12 13  1  0
 13 14  2  0
 13 15  1  0
 15 16  2  0
 16 17  1  0
 17 18  2  0
 18 19  1  0
 19 20  3  0
 18 21  1  0
 21 22  2  0
 10 23  1  0
 23 24  1  0
 24 25  1  0
 25 26  1  0
  6  2  2  0
 23  7  1  0
 26 24  1  0
 22 15  1  0
  1 27  1  0
  1 28  1  0
  1 29  1  0
 12 30  1  0
 12 31  1  0
 16 32  1  0
 17 33  1  0
 21 34  1  0
 22 35  1  0
 24 36  1  0
 25 37  1  0
 25 38  1  0
 26 39  1  0
 26 40  1  0
M  END
$$$$
