
     RDKit          3D

 90 91  0  0  0  0  0  0  0  0999 V2000
    5.0019   -1.2985   -2.5136 C   0  0  0  0  0  0  0  0  0  0  0  0
    3.6346   -0.9948   -1.9814 C   0  0  0  0  0  0  0  0  0  0  0  0
    2.5951   -1.2266   -2.5823 O   0  0  0  0  0  0  0  0  0  0  0  0
    3.7267   -0.3938   -0.7667 O   0  0  0  0  0  0  0  0  0  0  0  0
    2.4835   -0.0264   -0.1051 C   0  0  1  0  0  0  0  0  0  0  0  0
    2.0447   -1.1565    0.8688 C   0  0  2  0  0  0  0  0  0  0  0  0
    1.8033   -2.3923    0.1603 O   0  0  0  0  0  0  0  0  0  0  0  0
    2.8232   -3.2867    0.1025 C   0  0  0  0  0  0  0  0  0  0  0  0
    2.3927   -4.5203   -0.6278 C   0  0  0  0  0  0  0  0  0  0  0  0
    3.9389   -3.1281    0.5789 O   0  0  0  0  0  0  0  0  0  0  0  0
    0.7625   -0.8962    1.6645 C   0  0  0  0  0  0  0  0  0  0  0  0
    0.9506   -1.0716    3.1572 C   0  0  0  0  0  0  0  0  0  0  0  0
   -0.4767   -0.6096    1.2004 C   0  0  0  0  0  0  0  0  0  0  0  0
   -0.9988   -0.4813   -0.2217 C   0  0  1  0  0  0  0  0  0  0  0  0
   -1.2352   -1.8435   -0.9258 C   0  0  1  0  0  0  0  0  0  0  0  0
   -1.9895   -2.7225   -0.0711 O   0  0  0  0  0  0  0  0  0  0  0  0
   -1.6724   -4.0432   -0.1004 C   0  0  0  0  0  0  0  0  0  0  0  0
   -2.5321   -4.7885    0.8744 C   0  0  0  0  0  0  0  0  0  0  0  0
   -0.8324   -4.5682   -0.8167 O   0  0  0  0  0  0  0  0  0  0  0  0
   -2.0427   -1.4521   -2.1781 C   0  0  1  0  0  0  0  0  0  0  0  0
   -3.0038   -2.5129   -2.6988 C   0  0  0  0  0  0  0  0  0  0  0  0
   -2.7604   -0.1279   -1.8367 C   0  0  0  0  0  0  0  0  0  0  0  0
   -2.3970    0.2229   -0.3735 C   0  0  1  0  0  0  0  0  0  0  0  0
   -3.2709   -0.4765    0.5898 O   0  0  0  0  0  0  0  0  0  0  0  0
   -4.6206   -0.5438    0.5378 C   0  0  0  0  0  0  0  0  0  0  0  0
   -5.1203   -1.3381    1.7066 C   0  0  0  0  0  0  0  0  0  0  0  0
   -5.3482   -0.0590   -0.3130 O   0  0  0  0  0  0  0  0  0  0  0  0
   -2.4351    1.7559   -0.0431 C   0  0  2  0  0  0  0  0  0  0  0  0
   -3.7485    2.2607   -0.4177 O   0  0  0  0  0  0  0  0  0  0  0  0
   -4.5866    2.6498    0.5815 C   0  0  0  0  0  0  0  0  0  0  0  0
   -5.8465    3.2201    0.0028 C   0  0  0  0  0  0  0  0  0  0  0  0
   -4.3552    2.5639    1.7792 O   0  0  0  0  0  0  0  0  0  0  0  0
   -1.3929    2.6795   -0.7583 C   0  0  1  0  0  0  0  0  0  0  0  0
   -1.8328    4.1573   -0.7510 C   0  0  0  0  0  0  0  0  0  0  0  0
   -0.0156    2.6382   -0.1317 C   0  0  0  0  0  0  0  0  0  0  0  0
    1.1268    2.6328   -0.8430 C   0  0  0  0  0  0  0  0  0  0  0  0
    2.5359    2.5923   -0.2475 C   0  0  0  0  0  0  0  0  0  0  0  0
    3.5637    2.6352   -1.3989 C   0  0  0  0  0  0  0  0  0  0  0  0
    2.7613    3.8647    0.6020 C   0  0  0  0  0  0  0  0  0  0  0  0
    2.7170    1.3175    0.6490 C   0  0  2  0  0  0  0  0  0  0  0  0
    4.0580    1.3004    1.2097 O   0  0  0  0  0  0  0  0  0  0  0  0
    4.1964    1.5004    2.5459 C   0  0  0  0  0  0  0  0  0  0  0  0
    5.6437    1.4208    2.9250 C   0  0  0  0  0  0  0  0  0  0  0  0
    3.2865    1.7149    3.3324 O   0  0  0  0  0  0  0  0  0  0  0  0
    4.9368   -2.1276   -3.2257 H   0  0  0  0  0  0  0  0  0  0  0  0
    5.6655   -1.6088   -1.6998 H   0  0  0  0  0  0  0  0  0  0  0  0
    5.4046   -0.4126   -3.0091 H   0  0  0  0  0  0  0  0  0  0  0  0
    1.7168    0.0995   -0.8677 H   0  0  0  0  0  0  0  0  0  0  0  0
    2.8659   -1.3064    1.5829 H   0  0  0  0  0  0  0  0  0  0  0  0
    1.9072   -4.2469   -1.5682 H   0  0  0  0  0  0  0  0  0  0  0  0
    3.2731   -5.1260   -0.8642 H   0  0  0  0  0  0  0  0  0  0  0  0
    1.7171   -5.1015    0.0035 H   0  0  0  0  0  0  0  0  0  0  0  0
    1.6521   -0.3273    3.5426 H   0  0  0  0  0  0  0  0  0  0  0  0
    0.0154   -0.9690    3.7181 H   0  0  0  0  0  0  0  0  0  0  0  0
    1.3484   -2.0696    3.3699 H   0  0  0  0  0  0  0  0  0  0  0  0
   -1.2585   -0.5031    1.9550 H   0  0  0  0  0  0  0  0  0  0  0  0
   -0.2866    0.0726   -0.8323 H   0  0  0  0  0  0  0  0  0  0  0  0
   -0.2826   -2.2965   -1.2176 H   0  0  0  0  0  0  0  0  0  0  0  0
   -2.2418   -5.8429    0.8827 H   0  0  0  0  0  0  0  0  0  0  0  0
   -2.3926   -4.3827    1.8797 H   0  0  0  0  0  0  0  0  0  0  0  0
   -3.5804   -4.7148    0.5723 H   0  0  0  0  0  0  0  0  0  0  0  0
   -1.3262   -1.2317   -2.9815 H   0  0  0  0  0  0  0  0  0  0  0  0
   -3.4930   -2.1664   -3.6159 H   0  0  0  0  0  0  0  0  0  0  0  0
   -3.7914   -2.7407   -1.9723 H   0  0  0  0  0  0  0  0  0  0  0  0
   -2.4720   -3.4399   -2.9361 H   0  0  0  0  0  0  0  0  0  0  0  0
   -2.3837    0.6386   -2.5223 H   0  0  0  0  0  0  0  0  0  0  0  0
   -3.8314   -0.1997   -2.0244 H   0  0  0  0  0  0  0  0  0  0  0  0
   -4.7977   -2.3776    1.6110 H   0  0  0  0  0  0  0  0  0  0  0  0
   -6.2136   -1.3086    1.7266 H   0  0  0  0  0  0  0  0  0  0  0  0
   -4.7490   -0.9036    2.6388 H   0  0  0  0  0  0  0  0  0  0  0  0
   -2.2961    1.8648    1.0402 H   0  0  0  0  0  0  0  0  0  0  0  0
   -6.5142    3.5218    0.8157 H   0  0  0  0  0  0  0  0  0  0  0  0
   -5.6110    4.1018   -0.5999 H   0  0  0  0  0  0  0  0  0  0  0  0
   -6.3559    2.4670   -0.6043 H   0  0  0  0  0  0  0  0  0  0  0  0
   -1.3232    2.3860   -1.8124 H   0  0  0  0  0  0  0  0  0  0  0  0
   -2.0602    4.5034    0.2631 H   0  0  0  0  0  0  0  0  0  0  0  0
   -1.0515    4.8069   -1.1599 H   0  0  0  0  0  0  0  0  0  0  0  0
   -2.7221    4.3080   -1.3728 H   0  0  0  0  0  0  0  0  0  0  0  0
    0.0216    2.6569    0.9575 H   0  0  0  0  0  0  0  0  0  0  0  0
    1.0581    2.6508   -1.9315 H   0  0  0  0  0  0  0  0  0  0  0  0
    3.3942    1.8356   -2.1269 H   0  0  0  0  0  0  0  0  0  0  0  0
    4.5904    2.5431   -1.0276 H   0  0  0  0  0  0  0  0  0  0  0  0
    3.5001    3.5811   -1.9514 H   0  0  0  0  0  0  0  0  0  0  0  0
    2.1299    3.8727    1.4979 H   0  0  0  0  0  0  0  0  0  0  0  0
    2.5315    4.7712    0.0287 H   0  0  0  0  0  0  0  0  0  0  0  0
    3.8021    3.9455    0.9347 H   0  0  0  0  0  0  0  0  0  0  0  0
    1.9804    1.3970    1.4554 H   0  0  0  0  0  0  0  0  0  0  0  0
    6.2107    2.1788    2.3794 H   0  0  0  0  0  0  0  0  0  0  0  0
    6.0281    0.4217    2.7064 H   0  0  0  0  0  0  0  0  0  0  0  0
    5.7516    1.6107    3.9967 H   0  0  0  0  0  0  0  0  0  0  0  0
  1  2  1  0
  2  3  2  0
  2  4  1  0
  4  5  1  0
  5  6  1  0
  6  7  1  0
  7  8  1  0
  8  9  1  0
  8 10  2  0
  6 11  1  0
 11 12  1  0
 11 13  2  0
 13 14  1  0
 14 15  1  0
 15 16  1  0
 16 17  1  0
 17 18  1  0
 17 19  2  0
 15 20  1  0
 20 21  1  0
 20 22  1  0
 22 23  1  0
 23 24  1  1
 24 25  1  0
 25 26  1  0
 25 27  2  0
 23 28  1  0
 28 29  1  0
 29 30  1  0
 30 31  1  0
 30 32  2  0
 28 33  1  0
 33 34  1  0
 33 35  1  0
 35 36  2  0
 36 37  1  0
 37 38  1  0
 37 39  1  0
 37 40  1  0
 40 41  1  0
 41 42  1  0
 42 43  1  0
 42 44  2  0
 40  5  1  0
 23 14  1  0
  1 45  1  0
  1 46  1  0
  1 47  1  0
  5 48  1  6
  6 49  1  1
  9 50  1  0
  9 51  1  0
  9 52  1  0
 12 53  1  0
 12 54  1  0
 12 55  1  0
 13 56  1  0
 14 57  1  6
 15 58  1  6
 18 59  1  0
 18 60  1  0
 18 61  1  0
 20 62  1  6
 21 63  1  0
 21 64  1  0
 21 65  1  0
 22 66  1  0
 22 67  1  0
 26 68  1  0
 26 69  1  0
 26 70  1  0
 28 71  1  1
 31 72  1  0
 31 73  1  0
 31 74  1  0
 33 75  1  6
 34 76  1  0
 34 77  1  0
 34 78  1  0
 35 79  1  0
 36 80  1  0
 38 81  1  0
 38 82  1  0
 38 83  1  0
 39 84  1  0
 39 85  1  0
 39 86  1  0
 40 87  1  1
 43 88  1  0
 43 89  1  0
 43 90  1  0
M  END
$$$$
