
     RDKit          3D

 73 76  0  0  0  0  0  0  0  0999 V2000
    8.1181   -0.5269   -0.6033 C   0  0  0  0  0  0  0  0  0  0  0  0
    6.8249    0.0922   -0.0775 C   0  0  0  0  0  0  0  0  0  0  0  0
    6.5926   -0.2629    1.3923 C   0  0  0  0  0  0  0  0  0  0  0  0
    5.2916    0.3759    1.9183 C   0  0  0  0  0  0  0  0  0  0  0  0
    5.5885    1.5721    2.8244 C   0  0  0  0  0  0  0  0  0  0  0  0
    4.3352    0.7987    0.7832 C   0  0  0  0  0  0  0  0  0  0  0  0
    4.3176   -0.2360   -0.2532 N   0  0  0  0  0  0  0  0  0  0  0  0
    3.2281   -0.0744   -1.2252 C   0  0  0  0  0  0  0  0  0  0  0  0
    1.8232   -0.2962   -0.6522 C   0  0  0  0  0  0  0  0  0  0  0  0
    1.6997   -1.6112    0.1179 C   0  0  0  0  0  0  0  0  0  0  0  0
    0.3161   -1.9660    0.3810 N   0  0  0  0  0  0  0  0  0  0  0  0
   -0.4559   -1.2619    1.2796 C   0  0  0  0  0  0  0  0  0  0  0  0
   -0.0456   -0.2895    1.9115 O   0  0  0  0  0  0  0  0  0  0  0  0
   -1.8663   -1.8130    1.5114 C   0  0  0  0  0  0  0  0  0  0  0  0
   -2.4352   -2.5917    0.3986 N   0  0  0  0  0  0  0  0  0  0  0  0
   -2.2966   -3.9780    0.4568 C   0  0  0  0  0  0  0  0  0  0  0  0
   -1.6294   -4.5194    1.3437 O   0  0  0  0  0  0  0  0  0  0  0  0
   -2.8349   -4.8155   -0.6815 C   0  0  0  0  0  0  0  0  0  0  0  0
   -4.4740   -4.2945   -1.1970 S   0  0  0  0  0  0  0  0  0  0  0  0
   -4.0734   -2.5818   -1.4592 C   0  0  0  0  0  0  0  0  0  0  0  0
   -4.7666   -1.9036   -2.4730 C   0  0  0  0  0  0  0  0  0  0  0  0
   -4.5187   -0.5561   -2.7194 C   0  0  0  0  0  0  0  0  0  0  0  0
   -3.5904    0.1189   -1.9295 C   0  0  0  0  0  0  0  0  0  0  0  0
   -3.1972    1.8223   -2.2898 S   0  0  0  0  0  6  0  0  0  0  0  0
   -1.8123    2.0224   -1.9208 O   0  0  0  0  0  0  0  0  0  0  0  0
   -3.6590    2.0926   -3.6354 O   0  0  0  0  0  0  0  0  0  0  0  0
   -4.1791    2.6781   -1.2088 N   0  0  0  0  0  0  0  0  0  0  0  0
   -5.6376    2.7208   -1.4673 C   0  0  0  0  0  0  0  0  0  0  0  0
   -6.4238    2.2189   -0.2637 C   0  0  0  0  0  0  0  0  0  0  0  0
   -6.1353    3.0444    0.9894 C   0  0  0  0  0  0  0  0  0  0  0  0
   -4.7184    3.6173    1.0012 C   0  0  0  0  0  0  0  0  0  0  0  0
   -3.7547    2.7422    0.2083 C   0  0  0  0  0  0  0  0  0  0  0  0
   -2.8954   -0.5490   -0.9116 C   0  0  0  0  0  0  0  0  0  0  0  0
   -3.1295   -1.9103   -0.6566 C   0  0  0  0  0  0  0  0  0  0  0  0
    5.6196   -0.3367   -0.9404 C   0  0  0  0  0  0  0  0  0  0  0  0
    8.2853   -0.2431   -1.6480 H   0  0  0  0  0  0  0  0  0  0  0  0
    8.9788   -0.1828   -0.0190 H   0  0  0  0  0  0  0  0  0  0  0  0
    8.0885   -1.6204   -0.5487 H   0  0  0  0  0  0  0  0  0  0  0  0
    6.9314    1.1839   -0.1480 H   0  0  0  0  0  0  0  0  0  0  0  0
    6.5156   -1.3552    1.4893 H   0  0  0  0  0  0  0  0  0  0  0  0
    7.4550    0.0365    2.0019 H   0  0  0  0  0  0  0  0  0  0  0  0
    4.7841   -0.3789    2.5353 H   0  0  0  0  0  0  0  0  0  0  0  0
    6.1901    1.2644    3.6866 H   0  0  0  0  0  0  0  0  0  0  0  0
    4.6617    2.0131    3.2052 H   0  0  0  0  0  0  0  0  0  0  0  0
    6.1404    2.3496    2.2858 H   0  0  0  0  0  0  0  0  0  0  0  0
    4.6198    1.7705    0.3571 H   0  0  0  0  0  0  0  0  0  0  0  0
    3.3427    0.9334    1.2284 H   0  0  0  0  0  0  0  0  0  0  0  0
    3.3625   -0.8103   -2.0300 H   0  0  0  0  0  0  0  0  0  0  0  0
    3.2734    0.9165   -1.6976 H   0  0  0  0  0  0  0  0  0  0  0  0
    1.5348    0.5465   -0.0137 H   0  0  0  0  0  0  0  0  0  0  0  0
    1.1104   -0.2934   -1.4873 H   0  0  0  0  0  0  0  0  0  0  0  0
    2.1252   -2.4347   -0.4656 H   0  0  0  0  0  0  0  0  0  0  0  0
    2.2268   -1.5595    1.0770 H   0  0  0  0  0  0  0  0  0  0  0  0
    0.0553   -2.9340    0.2353 H   0  0  0  0  0  0  0  0  0  0  0  0
   -2.5388   -0.9776    1.7400 H   0  0  0  0  0  0  0  0  0  0  0  0
   -1.8226   -2.4312    2.4161 H   0  0  0  0  0  0  0  0  0  0  0  0
   -2.8972   -5.8567   -0.3509 H   0  0  0  0  0  0  0  0  0  0  0  0
   -2.1336   -4.7623   -1.5205 H   0  0  0  0  0  0  0  0  0  0  0  0
   -5.4973   -2.4277   -3.0873 H   0  0  0  0  0  0  0  0  0  0  0  0
   -5.0408   -0.0506   -3.5294 H   0  0  0  0  0  0  0  0  0  0  0  0
   -5.9120    3.7570   -1.6970 H   0  0  0  0  0  0  0  0  0  0  0  0
   -5.9070    2.1223   -2.3430 H   0  0  0  0  0  0  0  0  0  0  0  0
   -6.1601    1.1712   -0.0709 H   0  0  0  0  0  0  0  0  0  0  0  0
   -7.4985    2.2363   -0.4772 H   0  0  0  0  0  0  0  0  0  0  0  0
   -6.2910    2.4123    1.8727 H   0  0  0  0  0  0  0  0  0  0  0  0
   -6.8538    3.8694    1.0699 H   0  0  0  0  0  0  0  0  0  0  0  0
   -4.7354    4.6246    0.5654 H   0  0  0  0  0  0  0  0  0  0  0  0
   -4.3723    3.7283    2.0351 H   0  0  0  0  0  0  0  0  0  0  0  0
   -3.7217    1.7397    0.6458 H   0  0  0  0  0  0  0  0  0  0  0  0
   -2.7534    3.1819    0.2679 H   0  0  0  0  0  0  0  0  0  0  0  0
   -2.1453    0.0104   -0.3583 H   0  0  0  0  0  0  0  0  0  0  0  0
    5.7401   -1.3767   -1.2687 H   0  0  0  0  0  0  0  0  0  0  0  0
    5.6327    0.2848   -1.8467 H   0  0  0  0  0  0  0  0  0  0  0  0
  1  2  1  0
  2  3  1  0
  3  4  1  0
  4  5  1  0
  4  6  1  0
  6  7  1  0
  7  8  1  0
  8  9  1  0
  9 10  1  0
 10 11  1  0
 11 12  1  0
 12 13  2  0
 12 14  1  0
 14 15  1  0
 15 16  1  0
 16 17  2  0
 16 18  1  0
 18 19  1  0
 19 20  1  0
 20 21  2  0
 21 22  1  0
 22 23  2  0
 23 24  1  0
 24 25  2  0
 24 26  2  0
 24 27  1  0
 27 28  1  0
 28 29  1  0
 29 30  1  0
 30 31  1  0
 31 32  1  0
 23 33  1  0
 33 34  2  0
  7 35  1  0
 35  2  1  0
 34 15  1  0
 34 20  1  0
 32 27  1  0
  1 36  1  0
  1 37  1  0
  1 38  1  0
  2 39  1  0
  3 40  1  0
  3 41  1  0
  4 42  1  0
  5 43  1  0
  5 44  1  0
  5 45  1  0
  6 46  1  0
  6 47  1  0
  8 48  1  0
  8 49  1  0
  9 50  1  0
  9 51  1  0
 10 52  1  0
 10 53  1  0
 11 54  1  0
 14 55  1  0
 14 56  1  0
 18 57  1  0
 18 58  1  0
 21 59  1  0
 22 60  1  0
 28 61  1  0
 28 62  1  0
 29 63  1  0
 29 64  1  0
 30 65  1  0
 30 66  1  0
 31 67  1  0
 31 68  1  0
 32 69  1  0
 32 70  1  0
 33 71  1  0
 35 72  1  0
 35 73  1  0
M  END
$$$$
