
     RDKit          3D

 43 45  0  0  0  0  0  0  0  0999 V2000
   -2.2901    4.6789   -0.1882 C   0  0  0  0  0  0  0  0  0  0  0  0
   -1.7738    3.5236   -0.8518 O   0  0  0  0  0  0  0  0  0  0  0  0
   -1.5368    2.4644   -0.0232 C   0  0  0  0  0  0  0  0  0  0  0  0
   -1.6934    2.4818    1.1904 O   0  0  0  0  0  0  0  0  0  0  0  0
   -1.0076    1.3050   -0.8258 C   0  0  0  0  0  0  0  0  0  0  0  0
   -0.9721    0.0709   -0.0592 N   0  0  0  0  0  0  0  0  0  0  0  0
    0.0785   -0.4060    0.7070 C   0  0  0  0  0  0  0  0  0  0  0  0
    1.3573    0.3461    0.9446 C   0  0  0  0  0  0  0  0  0  0  0  0
    2.2005    0.4176   -0.2635 N   0  0  0  0  0  0  0  0  0  0  0  0
    2.7371   -0.9209   -0.6152 C   0  0  0  0  0  0  0  0  0  0  0  0
    3.7045   -0.8383   -1.8074 C   0  0  0  0  0  0  0  0  0  0  0  0
    4.7923    0.0545   -1.5344 O   0  0  0  0  0  0  0  0  0  0  0  0
    4.2924    1.3623   -1.2323 C   0  0  0  0  0  0  0  0  0  0  0  0
    3.3447    1.3259   -0.0236 C   0  0  0  0  0  0  0  0  0  0  0  0
   -0.2066   -1.6027    1.2022 N   0  0  0  0  0  0  0  0  0  0  0  0
   -1.4707   -1.8681    0.7827 C   0  0  0  0  0  0  0  0  0  0  0  0
   -1.9737   -0.8596    0.0150 C   0  0  0  0  0  0  0  0  0  0  0  0
   -3.2882   -0.8939   -0.5234 C   0  0  0  0  0  0  0  0  0  0  0  0
   -3.7931   -0.0067   -1.2015 O   0  0  0  0  0  0  0  0  0  0  0  0
   -3.9606   -2.0504   -0.1992 N   0  0  0  0  0  0  0  0  0  0  0  0
   -3.4978   -3.1010    0.5728 C   0  0  0  0  0  0  0  0  0  0  0  0
   -4.2419   -4.0608    0.7751 O   0  0  0  0  0  0  0  0  0  0  0  0
   -2.2046   -2.9979    1.0736 N   0  0  0  0  0  0  0  0  0  0  0  0
   -1.6437   -4.0477    1.9009 C   0  0  0  0  0  0  0  0  0  0  0  0
   -1.5625    5.0608    0.5347 H   0  0  0  0  0  0  0  0  0  0  0  0
   -3.2409    4.4474    0.3021 H   0  0  0  0  0  0  0  0  0  0  0  0
   -2.4681    5.4509   -0.9418 H   0  0  0  0  0  0  0  0  0  0  0  0
   -1.6362    1.1381   -1.7049 H   0  0  0  0  0  0  0  0  0  0  0  0
    0.0018    1.5371   -1.1709 H   0  0  0  0  0  0  0  0  0  0  0  0
    1.0915    1.3599    1.2708 H   0  0  0  0  0  0  0  0  0  0  0  0
    1.9008   -0.1166    1.7789 H   0  0  0  0  0  0  0  0  0  0  0  0
    3.2709   -1.3483    0.2438 H   0  0  0  0  0  0  0  0  0  0  0  0
    1.9234   -1.6029   -0.8846 H   0  0  0  0  0  0  0  0  0  0  0  0
    4.1307   -1.8266   -2.0072 H   0  0  0  0  0  0  0  0  0  0  0  0
    3.1866   -0.5093   -2.7165 H   0  0  0  0  0  0  0  0  0  0  0  0
    5.1524    2.0017   -1.0092 H   0  0  0  0  0  0  0  0  0  0  0  0
    3.7928    1.7734   -2.1179 H   0  0  0  0  0  0  0  0  0  0  0  0
    2.9791    2.3416    0.1663 H   0  0  0  0  0  0  0  0  0  0  0  0
    3.9075    0.9960    0.8597 H   0  0  0  0  0  0  0  0  0  0  0  0
   -4.9032   -2.1397   -0.5435 H   0  0  0  0  0  0  0  0  0  0  0  0
   -0.7267   -4.4208    1.4341 H   0  0  0  0  0  0  0  0  0  0  0  0
   -1.4123   -3.6381    2.8891 H   0  0  0  0  0  0  0  0  0  0  0  0
   -2.3400   -4.8819    2.0213 H   0  0  0  0  0  0  0  0  0  0  0  0
  1  2  1  0
  2  3  1  0
  3  4  2  0
  3  5  1  0
  5  6  1  0
  6  7  1  0
  7  8  1  0
  8  9  1  0
  9 10  1  0
 10 11  1  0
 11 12  1  0
 12 13  1  0
 13 14  1  0
  7 15  2  0
 15 16  1  0
 16 17  2  0
 17 18  1  0
 18 19  2  0
 18 20  1  0
 20 21  1  0
 21 22  2  0
 21 23  1  0
 23 24  1  0
 17  6  1  0
 14  9  1  0
 23 16  1  0
  1 25  1  0
  1 26  1  0
  1 27  1  0
  5 28  1  0
  5 29  1  0
  8 30  1  0
  8 31  1  0
 10 32  1  0
 10 33  1  0
 11 34  1  0
 11 35  1  0
 13 36  1  0
 13 37  1  0
 14 38  1  0
 14 39  1  0
 20 40  1  0
 24 41  1  0
 24 42  1  0
 24 43  1  0
M  END
$$$$
