
     RDKit          3D

 43 44  0  0  0  0  0  0  0  0999 V2000
   -2.9883    1.3054   -0.8224 O   0  0  0  0  0  0  0  0  0  0  0  0
   -2.2539    0.4634   -0.3105 C   0  0  0  0  0  0  0  0  0  0  0  0
   -0.7219    0.5483   -0.3746 C   0  0  0  0  0  0  0  0  0  0  0  0
   -0.2627    1.3554   -1.4515 O   0  0  0  0  0  0  0  0  0  0  0  0
    0.9255    2.0702   -1.1648 C   0  0  0  0  0  0  0  0  0  0  0  0
    2.1966    1.2673   -0.8238 C   0  0  0  0  0  0  0  0  0  0  0  0
    2.1624    0.0872   -0.4806 O   0  0  0  0  0  0  0  0  0  0  0  0
    3.3478    2.0519   -0.9302 N   0  0  0  0  0  0  0  0  0  0  0  0
    4.6006    1.6581   -0.5327 N   0  0  0  0  0  0  0  0  0  0  0  0
    4.9513    0.4324   -0.7689 C   0  0  0  0  0  0  0  0  0  0  0  0
    6.2615   -0.0966   -0.3356 C   0  0  0  0  0  0  0  0  0  0  0  0
    7.1783    0.7156    0.3433 C   0  0  0  0  0  0  0  0  0  0  0  0
    8.4089    0.1891    0.7400 C   0  0  0  0  0  0  0  0  0  0  0  0
    8.7101   -1.1392    0.4574 C   0  0  0  0  0  0  0  0  0  0  0  0
    9.8907   -1.6430    0.8394 F   0  0  0  0  0  0  0  0  0  0  0  0
    7.8048   -1.9537   -0.2167 C   0  0  0  0  0  0  0  0  0  0  0  0
    6.5727   -1.4325   -0.6166 C   0  0  0  0  0  0  0  0  0  0  0  0
   -2.6770   -0.6507    0.4226 N   0  0  0  0  0  0  0  0  0  0  0  0
   -3.9798   -1.0628    0.5528 N   0  0  0  0  0  0  0  0  0  0  0  0
   -4.9014   -0.1568    0.6470 C   0  0  0  0  0  0  0  0  0  0  0  0
   -6.3323   -0.5163    0.7397 C   0  0  0  0  0  0  0  0  0  0  0  0
   -6.7401   -1.8560    0.7408 C   0  0  0  0  0  0  0  0  0  0  0  0
   -8.0981   -2.1665    0.8310 C   0  0  0  0  0  0  0  0  0  0  0  0
   -9.0325   -1.1393    0.9174 C   0  0  0  0  0  0  0  0  0  0  0  0
  -10.3349   -1.4391    1.0046 F   0  0  0  0  0  0  0  0  0  0  0  0
   -8.6364    0.1948    0.9147 C   0  0  0  0  0  0  0  0  0  0  0  0
   -7.2794    0.5114    0.8251 C   0  0  0  0  0  0  0  0  0  0  0  0
   -0.3178   -0.4603   -0.5096 H   0  0  0  0  0  0  0  0  0  0  0  0
   -0.3899    0.9477    0.5919 H   0  0  0  0  0  0  0  0  0  0  0  0
    0.7347    2.7689   -0.3410 H   0  0  0  0  0  0  0  0  0  0  0  0
    1.1437    2.6730   -2.0539 H   0  0  0  0  0  0  0  0  0  0  0  0
    3.2313    3.0616   -0.9236 H   0  0  0  0  0  0  0  0  0  0  0  0
    4.3111   -0.2721   -1.3280 H   0  0  0  0  0  0  0  0  0  0  0  0
    6.9405    1.7534    0.5641 H   0  0  0  0  0  0  0  0  0  0  0  0
    9.1318    0.8050    1.2655 H   0  0  0  0  0  0  0  0  0  0  0  0
    8.0643   -2.9873   -0.4232 H   0  0  0  0  0  0  0  0  0  0  0  0
    5.8659   -2.0723   -1.1392 H   0  0  0  0  0  0  0  0  0  0  0  0
   -2.0136   -1.4129    0.5334 H   0  0  0  0  0  0  0  0  0  0  0  0
   -4.6766    0.9223    0.6940 H   0  0  0  0  0  0  0  0  0  0  0  0
   -6.0075   -2.6569    0.6709 H   0  0  0  0  0  0  0  0  0  0  0  0
   -8.4315   -3.1995    0.8330 H   0  0  0  0  0  0  0  0  0  0  0  0
   -9.3863    0.9769    0.9799 H   0  0  0  0  0  0  0  0  0  0  0  0
   -6.9725    1.5543    0.8177 H   0  0  0  0  0  0  0  0  0  0  0  0
  1  2  2  0
  2  3  1  0
  3  4  1  0
  4  5  1  0
  5  6  1  0
  6  7  2  0
  6  8  1  0
  8  9  1  0
  9 10  2  3
 10 11  1  0
 11 12  2  0
 12 13  1  0
 13 14  2  0
 14 15  1  0
 14 16  1  0
 16 17  2  0
  2 18  1  0
 18 19  1  0
 19 20  2  3
 20 21  1  0
 21 22  2  0
 22 23  1  0
 23 24  2  0
 24 25  1  0
 24 26  1  0
 26 27  2  0
 17 11  1  0
 27 21  1  0
  3 28  1  0
  3 29  1  0
  5 30  1  0
  5 31  1  0
  8 32  1  0
 10 33  1  0
 12 34  1  0
 13 35  1  0
 16 36  1  0
 17 37  1  0
 18 38  1  0
 20 39  1  0
 22 40  1  0
 23 41  1  0
 26 42  1  0
 27 43  1  0
M  END
$$$$
