
     RDKit          3D

 46 49  0  0  0  0  0  0  0  0999 V2000
    5.7287   -1.2761   -3.1528 N   0  0  0  0  0  0  0  0  0  0  0  0
    5.7520   -0.2695   -1.8009 S   0  0  0  0  0  6  0  0  0  0  0  0
    6.5221   -0.9287   -0.7733 O   0  0  0  0  0  0  0  0  0  0  0  0
    6.0840    1.0449   -2.3005 O   0  0  0  0  0  0  0  0  0  0  0  0
    4.0456   -0.2820   -1.3276 C   0  0  0  0  0  0  0  0  0  0  0  0
    3.1733    0.6684   -1.8502 C   0  0  0  0  0  0  0  0  0  0  0  0
    1.8271    0.6420   -1.4709 C   0  0  0  0  0  0  0  0  0  0  0  0
    1.3224   -0.3111   -0.5651 C   0  0  0  0  0  0  0  0  0  0  0  0
   -0.0251   -0.3085   -0.2103 N   0  0  0  0  0  0  0  0  0  0  0  0
   -0.8945    0.5827   -0.7721 N   0  0  0  0  0  0  0  0  0  0  0  0
   -2.0884    0.2576   -0.3773 C   0  0  0  0  0  0  0  0  0  0  0  0
   -3.3034    1.0125   -0.7634 C   0  0  0  0  0  0  0  0  0  0  0  0
   -3.1613    2.1917   -1.5058 C   0  0  0  0  0  0  0  0  0  0  0  0
   -4.2871    2.9258   -1.8834 C   0  0  0  0  0  0  0  0  0  0  0  0
   -5.5591    2.4854   -1.5225 C   0  0  0  0  0  0  0  0  0  0  0  0
   -5.7074    1.3113   -0.7852 C   0  0  0  0  0  0  0  0  0  0  0  0
   -4.5830    0.5734   -0.4051 C   0  0  0  0  0  0  0  0  0  0  0  0
   -2.1602   -0.9739    0.4831 C   0  0  0  0  0  0  0  0  0  0  0  0
   -0.6716   -1.2192    0.7372 C   0  0  0  0  0  0  0  0  0  0  0  0
   -0.3132   -0.9362    2.1907 C   0  0  0  0  0  0  0  0  0  0  0  0
   -0.0764    0.3690    2.6597 C   0  0  0  0  0  0  0  0  0  0  0  0
    0.2269    0.5993    4.0026 C   0  0  0  0  0  0  0  0  0  0  0  0
    0.2874   -0.4713    4.8844 C   0  0  0  0  0  0  0  0  0  0  0  0
    0.5754   -0.2507    6.1736 F   0  0  0  0  0  0  0  0  0  0  0  0
    0.0497   -1.7691    4.4495 C   0  0  0  0  0  0  0  0  0  0  0  0
   -0.2529   -2.0027    3.1066 C   0  0  0  0  0  0  0  0  0  0  0  0
    2.2377   -1.2433   -0.0475 C   0  0  0  0  0  0  0  0  0  0  0  0
    3.5883   -1.2335   -0.4179 C   0  0  0  0  0  0  0  0  0  0  0  0
    5.9866   -0.7255   -3.9736 H   0  0  0  0  0  0  0  0  0  0  0  0
    4.8356   -1.7509   -3.2800 H   0  0  0  0  0  0  0  0  0  0  0  0
    3.5198    1.4318   -2.5426 H   0  0  0  0  0  0  0  0  0  0  0  0
    1.1558    1.3914   -1.8873 H   0  0  0  0  0  0  0  0  0  0  0  0
   -2.1737    2.5468   -1.7932 H   0  0  0  0  0  0  0  0  0  0  0  0
   -4.1695    3.8409   -2.4585 H   0  0  0  0  0  0  0  0  0  0  0  0
   -6.4355    3.0579   -1.8167 H   0  0  0  0  0  0  0  0  0  0  0  0
   -6.7016    0.9700   -0.5064 H   0  0  0  0  0  0  0  0  0  0  0  0
   -4.7331   -0.3381    0.1649 H   0  0  0  0  0  0  0  0  0  0  0  0
   -2.5968   -1.7877   -0.1058 H   0  0  0  0  0  0  0  0  0  0  0  0
   -2.7491   -0.8106    1.3897 H   0  0  0  0  0  0  0  0  0  0  0  0
   -0.4291   -2.2606    0.4901 H   0  0  0  0  0  0  0  0  0  0  0  0
   -0.1166    1.2156    1.9751 H   0  0  0  0  0  0  0  0  0  0  0  0
    0.4181    1.6055    4.3616 H   0  0  0  0  0  0  0  0  0  0  0  0
    0.1019   -2.5889    5.1590 H   0  0  0  0  0  0  0  0  0  0  0  0
   -0.4391   -3.0239    2.7804 H   0  0  0  0  0  0  0  0  0  0  0  0
    1.9201   -1.9969    0.6673 H   0  0  0  0  0  0  0  0  0  0  0  0
    4.2694   -1.9651    0.0127 H   0  0  0  0  0  0  0  0  0  0  0  0
  1  2  1  0
  2  3  2  0
  2  4  2  0
  2  5  1  0
  5  6  2  0
  6  7  1  0
  7  8  2  0
  8  9  1  0
  9 10  1  0
 10 11  2  0
 11 12  1  0
 12 13  2  0
 13 14  1  0
 14 15  2  0
 15 16  1  0
 16 17  2  0
 11 18  1  0
 18 19  1  0
 19 20  1  0
 20 21  2  0
 21 22  1  0
 22 23  2  0
 23 24  1  0
 23 25  1  0
 25 26  2  0
  8 27  1  0
 27 28  2  0
 28  5  1  0
 19  9  1  0
 26 20  1  0
 17 12  1  0
  1 29  1  0
  1 30  1  0
  6 31  1  0
  7 32  1  0
 13 33  1  0
 14 34  1  0
 15 35  1  0
 16 36  1  0
 17 37  1  0
 18 38  1  0
 18 39  1  0
 19 40  1  0
 21 41  1  0
 22 42  1  0
 25 43  1  0
 26 44  1  0
 27 45  1  0
 28 46  1  0
M  END
$$$$
