
     RDKit          3D

 39 41  0  0  0  0  0  0  0  0999 V2000
   -2.7251   -1.8129    0.9441 C   0  0  0  0  0  0  0  0  0  0  0  0
   -2.7434   -0.7813   -0.1271 C   0  0  0  0  0  0  0  0  0  0  0  0
   -3.9210   -0.5063   -0.7836 N   0  0  0  0  0  0  0  0  0  0  0  0
   -3.7274    0.4205   -1.7752 C   0  0  0  0  0  0  0  0  0  0  0  0
   -4.6406    0.9725   -2.6820 C   0  0  0  0  0  0  0  0  0  0  0  0
   -4.1571    1.9063   -3.6022 C   0  0  0  0  0  0  0  0  0  0  0  0
   -2.8139    2.2701   -3.6125 C   0  0  0  0  0  0  0  0  0  0  0  0
   -1.9172    1.7070   -2.6972 C   0  0  0  0  0  0  0  0  0  0  0  0
   -2.3772    0.7596   -1.7561 C   0  0  0  0  0  0  0  0  0  0  0  0
   -1.7513    0.0156   -0.6936 C   0  0  0  0  0  0  0  0  0  0  0  0
   -0.3276    0.1035   -0.3315 C   0  0  0  0  0  0  0  0  0  0  0  0
    0.5170    0.3971   -1.1830 O   0  0  0  0  0  0  0  0  0  0  0  0
    0.1046   -0.1160    1.1317 C   0  0  0  0  0  0  0  0  0  0  0  0
   -0.3754    1.0484    1.9902 C   0  0  0  0  0  0  0  0  0  0  0  0
    1.5357   -0.1557    1.2601 O   0  0  0  0  0  0  0  0  0  0  0  0
    2.1157   -1.2774    0.7457 C   0  0  0  0  0  0  0  0  0  0  0  0
    1.4945   -2.2476    0.3273 O   0  0  0  0  0  0  0  0  0  0  0  0
    3.5555   -1.1644    0.7859 C   0  0  0  0  0  0  0  0  0  0  0  0
    4.5389   -2.0238    0.3184 C   0  0  0  0  0  0  0  0  0  0  0  0
    5.7915   -1.4271    0.6117 C   0  0  0  0  0  0  0  0  0  0  0  0
    5.4899   -0.2453    1.2441 C   0  0  0  0  0  0  0  0  0  0  0  0
    6.3228    0.7850    1.7802 N   0  0  0  0  0  4  0  0  0  0  0  0
    7.5440    0.6234    1.6495 O   0  0  0  0  0  0  0  0  0  0  0  0
    5.7740    1.7453    2.3346 O   0  0  0  0  0  1  0  0  0  0  0  0
    4.1482   -0.0667    1.3634 O   0  0  0  0  0  0  0  0  0  0  0  0
   -1.9040   -2.5189    0.7856 H   0  0  0  0  0  0  0  0  0  0  0  0
   -3.6542   -2.3928    0.9593 H   0  0  0  0  0  0  0  0  0  0  0  0
   -2.6105   -1.3445    1.9262 H   0  0  0  0  0  0  0  0  0  0  0  0
   -4.8116   -0.9426   -0.5872 H   0  0  0  0  0  0  0  0  0  0  0  0
   -5.6880    0.6890   -2.6784 H   0  0  0  0  0  0  0  0  0  0  0  0
   -4.8396    2.3528   -4.3216 H   0  0  0  0  0  0  0  0  0  0  0  0
   -2.4534    2.9957   -4.3373 H   0  0  0  0  0  0  0  0  0  0  0  0
   -0.8694    1.9964   -2.7189 H   0  0  0  0  0  0  0  0  0  0  0  0
   -0.3003   -1.0498    1.5264 H   0  0  0  0  0  0  0  0  0  0  0  0
   -0.0248    0.9342    3.0216 H   0  0  0  0  0  0  0  0  0  0  0  0
    0.0295    1.9976    1.6206 H   0  0  0  0  0  0  0  0  0  0  0  0
   -1.4665    1.1266    2.0010 H   0  0  0  0  0  0  0  0  0  0  0  0
    4.3571   -2.9668   -0.1820 H   0  0  0  0  0  0  0  0  0  0  0  0
    6.7802   -1.8069    0.3913 H   0  0  0  0  0  0  0  0  0  0  0  0
  1  2  1  0
  2  3  1  0
  3  4  1  0
  4  5  2  0
  5  6  1  0
  6  7  2  0
  7  8  1  0
  8  9  2  0
  9 10  1  0
 10 11  1  0
 11 12  2  0
 11 13  1  0
 13 14  1  0
 13 15  1  0
 15 16  1  0
 16 17  2  0
 16 18  1  0
 18 19  2  0
 19 20  1  0
 20 21  2  0
 21 22  1  0
 22 23  2  0
 22 24  1  0
 21 25  1  0
 10  2  2  0
 25 18  1  0
  9  4  1  0
  1 26  1  0
  1 27  1  0
  1 28  1  0
  3 29  1  0
  5 30  1  0
  6 31  1  0
  7 32  1  0
  8 33  1  0
 13 34  1  0
 14 35  1  0
 14 36  1  0
 14 37  1  0
 19 38  1  0
 20 39  1  0
M  CHG  2  22   1  24  -1
M  END
$$$$
