
     RDKit          3D

 53 56  0  0  0  0  0  0  0  0999 V2000
    6.3643    0.5682    3.9470 C   0  0  0  0  0  0  0  0  0  0  0  0
    5.9295    1.5078    2.9709 O   0  0  0  0  0  0  0  0  0  0  0  0
    5.2358    1.0086    1.9024 C   0  0  0  0  0  0  0  0  0  0  0  0
    4.7686    1.9736    1.0062 C   0  0  0  0  0  0  0  0  0  0  0  0
    4.0401    1.6040   -0.1277 C   0  0  0  0  0  0  0  0  0  0  0  0
    3.7777    0.2529   -0.3881 C   0  0  0  0  0  0  0  0  0  0  0  0
    2.9673   -0.1602   -1.5893 C   0  0  0  0  0  0  0  0  0  0  0  0
    1.5890   -0.3860   -1.2200 N   0  0  0  0  0  0  0  0  0  0  0  0
    1.0960   -1.6358   -0.9271 C   0  0  0  0  0  0  0  0  0  0  0  0
    1.7761   -2.6498   -1.1119 O   0  0  0  0  0  0  0  0  0  0  0  0
   -0.3209   -1.7443   -0.3663 C   0  0  0  0  0  0  0  0  0  0  0  0
   -0.2535   -2.2529    1.0121 C   0  0  0  0  0  0  0  0  0  0  0  0
   -0.2481   -2.6545    2.1029 N   0  0  0  0  0  0  0  0  0  0  0  0
   -1.1801   -0.4940   -0.4224 C   0  0  0  0  0  0  0  0  0  0  0  0
   -0.5981    0.7090   -0.1267 N   0  0  0  0  0  0  0  0  0  0  0  0
   -1.3873    1.7993   -0.1504 C   0  0  0  0  0  0  0  0  0  0  0  0
   -0.8490    3.0464    0.1465 C   0  0  0  0  0  0  0  0  0  0  0  0
   -1.6355    4.1998    0.1239 C   0  0  0  0  0  0  0  0  0  0  0  0
   -2.9823    4.1035   -0.2003 C   0  0  0  0  0  0  0  0  0  0  0  0
   -3.5309    2.8548   -0.4976 C   0  0  0  0  0  0  0  0  0  0  0  0
   -2.7564    1.7004   -0.4771 C   0  0  0  0  0  0  0  0  0  0  0  0
   -3.3245    0.5146   -0.7627 N   0  0  0  0  0  0  0  0  0  0  0  0
   -2.5483   -0.5924   -0.7239 C   0  0  0  0  0  0  0  0  0  0  0  0
   -3.1407   -1.8526   -0.9494 N   0  0  0  0  0  0  0  0  0  0  0  0
   -3.8117   -2.3207    0.2909 C   0  0  0  0  0  0  0  0  0  0  0  0
   -5.1536   -2.8818   -0.1698 C   0  0  0  0  0  0  0  0  0  0  0  0
   -5.5005   -1.9800   -1.3374 C   0  0  0  0  0  0  0  0  0  0  0  0
   -4.1532   -1.8238   -2.0307 C   0  0  0  0  0  0  0  0  0  0  0  0
    4.2466   -0.7117    0.5144 C   0  0  0  0  0  0  0  0  0  0  0  0
    4.9717   -0.3379    1.6514 C   0  0  0  0  0  0  0  0  0  0  0  0
    6.8694    1.1241    4.7436 H   0  0  0  0  0  0  0  0  0  0  0  0
    7.0870   -0.1378    3.5231 H   0  0  0  0  0  0  0  0  0  0  0  0
    5.5149    0.0420    4.3971 H   0  0  0  0  0  0  0  0  0  0  0  0
    4.9707    3.0247    1.1974 H   0  0  0  0  0  0  0  0  0  0  0  0
    3.6805    2.3793   -0.8003 H   0  0  0  0  0  0  0  0  0  0  0  0
    3.3998   -1.0545   -2.0513 H   0  0  0  0  0  0  0  0  0  0  0  0
    2.9744    0.6323   -2.3456 H   0  0  0  0  0  0  0  0  0  0  0  0
    1.0745    0.4116   -0.8469 H   0  0  0  0  0  0  0  0  0  0  0  0
   -0.7799   -2.5108   -1.0038 H   0  0  0  0  0  0  0  0  0  0  0  0
    0.2044    3.1220    0.4068 H   0  0  0  0  0  0  0  0  0  0  0  0
   -1.1953    5.1657    0.3616 H   0  0  0  0  0  0  0  0  0  0  0  0
   -3.6079    4.9928   -0.2172 H   0  0  0  0  0  0  0  0  0  0  0  0
   -4.5861    2.7762   -0.7475 H   0  0  0  0  0  0  0  0  0  0  0  0
   -3.9818   -1.5113    1.0139 H   0  0  0  0  0  0  0  0  0  0  0  0
   -3.2126   -3.0958    0.7798 H   0  0  0  0  0  0  0  0  0  0  0  0
   -5.9092   -2.8643    0.6210 H   0  0  0  0  0  0  0  0  0  0  0  0
   -5.0350   -3.9178   -0.5114 H   0  0  0  0  0  0  0  0  0  0  0  0
   -6.2628   -2.4076   -1.9945 H   0  0  0  0  0  0  0  0  0  0  0  0
   -5.8599   -1.0094   -0.9743 H   0  0  0  0  0  0  0  0  0  0  0  0
   -3.9697   -2.6951   -2.6735 H   0  0  0  0  0  0  0  0  0  0  0  0
   -4.1153   -0.9391   -2.6784 H   0  0  0  0  0  0  0  0  0  0  0  0
    4.0413   -1.7673    0.3390 H   0  0  0  0  0  0  0  0  0  0  0  0
    5.3109   -1.1245    2.3175 H   0  0  0  0  0  0  0  0  0  0  0  0
  1  2  1  0
  2  3  1  0
  3  4  2  0
  4  5  1  0
  5  6  2  0
  6  7  1  0
  7  8  1  0
  8  9  1  0
  9 10  2  0
  9 11  1  0
 11 12  1  0
 12 13  3  0
 11 14  1  0
 14 15  2  0
 15 16  1  0
 16 17  2  0
 17 18  1  0
 18 19  2  0
 19 20  1  0
 20 21  2  0
 21 22  1  0
 22 23  2  0
 23 24  1  0
 24 25  1  0
 25 26  1  0
 26 27  1  0
 27 28  1  0
  6 29  1  0
 29 30  2  0
 30  3  1  0
 23 14  1  0
 28 24  1  0
 21 16  1  0
  1 31  1  0
  1 32  1  0
  1 33  1  0
  4 34  1  0
  5 35  1  0
  7 36  1  0
  7 37  1  0
  8 38  1  0
 11 39  1  0
 17 40  1  0
 18 41  1  0
 19 42  1  0
 20 43  1  0
 25 44  1  0
 25 45  1  0
 26 46  1  0
 26 47  1  0
 27 48  1  0
 27 49  1  0
 28 50  1  0
 28 51  1  0
 29 52  1  0
 30 53  1  0
M  END
$$$$
