
     RDKit          3D

 40 42  0  0  0  0  0  0  0  0999 V2000
    6.6172    0.1336   -2.9284 N   0  0  0  0  0  0  0  0  0  0  0  0
    5.4662   -0.0147   -2.9188 C   0  0  0  0  0  0  0  0  0  0  0  0
    4.0509   -0.1892   -2.8905 C   0  0  0  0  0  0  0  0  0  0  0  0
    3.4548   -0.6980   -4.0824 C   0  0  0  0  0  0  0  0  0  0  0  0
    2.9570   -1.1095   -5.0469 N   0  0  0  0  0  0  0  0  0  0  0  0
    3.3201    0.1235   -1.7895 C   0  0  0  0  0  0  0  0  0  0  0  0
    1.8597   -0.0149   -1.7340 C   0  0  0  0  0  0  0  0  0  0  0  0
    1.1306    0.1652   -0.6159 C   0  0  0  0  0  0  0  0  0  0  0  0
   -0.3183    0.0215   -0.6373 C   0  0  0  0  0  0  0  0  0  0  0  0
   -1.1108    0.0492    0.4556 C   0  0  0  0  0  0  0  0  0  0  0  0
   -2.5101   -0.0704    0.4062 N   0  0  0  0  0  0  0  0  0  0  0  0
   -3.2460   -0.5538   -0.7862 C   0  0  0  0  0  0  0  0  0  0  0  0
   -4.5955   -1.1710   -0.3865 C   0  0  0  0  0  0  0  0  0  0  0  0
   -5.4739   -0.2584    0.2852 O   0  0  0  0  0  0  0  0  0  0  0  0
   -4.7720    0.7452    1.0308 C   0  0  0  0  0  0  0  0  0  0  0  0
   -3.3947    0.2908    1.5388 C   0  0  0  0  0  0  0  0  0  0  0  0
   -0.4706    0.1933    1.8314 C   0  0  0  0  0  0  0  0  0  0  0  0
    1.0144   -0.1724    1.8607 C   0  0  0  0  0  0  0  0  0  0  0  0
    1.7608    0.5124    0.7149 C   0  0  0  0  0  0  0  0  0  0  0  0
    3.2477    0.1415    0.7421 C   0  0  0  0  0  0  0  0  0  0  0  0
    3.9517    0.6610   -0.5107 C   0  0  0  0  0  0  0  0  0  0  0  0
    1.3366   -0.2836   -2.6513 H   0  0  0  0  0  0  0  0  0  0  0  0
   -0.7678   -0.0948   -1.6193 H   0  0  0  0  0  0  0  0  0  0  0  0
   -3.4062    0.2923   -1.4643 H   0  0  0  0  0  0  0  0  0  0  0  0
   -2.6667   -1.3207   -1.3124 H   0  0  0  0  0  0  0  0  0  0  0  0
   -4.4396   -2.0308    0.2758 H   0  0  0  0  0  0  0  0  0  0  0  0
   -5.1199   -1.5359   -1.2755 H   0  0  0  0  0  0  0  0  0  0  0  0
   -4.6684    1.6262    0.3864 H   0  0  0  0  0  0  0  0  0  0  0  0
   -5.4084    1.0311    1.8743 H   0  0  0  0  0  0  0  0  0  0  0  0
   -3.5043   -0.5845    2.1894 H   0  0  0  0  0  0  0  0  0  0  0  0
   -2.9621    1.1087    2.1247 H   0  0  0  0  0  0  0  0  0  0  0  0
   -0.5950    1.2296    2.1698 H   0  0  0  0  0  0  0  0  0  0  0  0
   -0.9825   -0.4521    2.5555 H   0  0  0  0  0  0  0  0  0  0  0  0
    1.1215   -1.2633    1.7865 H   0  0  0  0  0  0  0  0  0  0  0  0
    1.4427    0.1225    2.8262 H   0  0  0  0  0  0  0  0  0  0  0  0
    1.6750    1.6007    0.8485 H   0  0  0  0  0  0  0  0  0  0  0  0
    3.3728   -0.9478    0.8075 H   0  0  0  0  0  0  0  0  0  0  0  0
    3.7211    0.5693    1.6342 H   0  0  0  0  0  0  0  0  0  0  0  0
    5.0100    0.3907   -0.4315 H   0  0  0  0  0  0  0  0  0  0  0  0
    3.9022    1.7576   -0.5291 H   0  0  0  0  0  0  0  0  0  0  0  0
  1  2  3  0
  2  3  1  0
  3  4  1  0
  4  5  3  0
  3  6  2  3
  6  7  1  0
  7  8  2  0
  8  9  1  0
  9 10  2  0
 10 11  1  0
 11 12  1  0
 12 13  1  0
 13 14  1  0
 14 15  1  0
 15 16  1  0
 10 17  1  0
 17 18  1  0
 18 19  1  0
 19 20  1  0
 20 21  1  0
 21  6  1  0
 19  8  1  0
 16 11  1  0
  7 22  1  0
  9 23  1  0
 12 24  1  0
 12 25  1  0
 13 26  1  0
 13 27  1  0
 15 28  1  0
 15 29  1  0
 16 30  1  0
 16 31  1  0
 17 32  1  0
 17 33  1  0
 18 34  1  0
 18 35  1  0
 19 36  1  0
 20 37  1  0
 20 38  1  0
 21 39  1  0
 21 40  1  0
M  END
$$$$
