
     RDKit          3D

 55 59  0  0  0  0  0  0  0  0999 V2000
   -2.3821    2.0005   -1.9132 C   0  0  0  0  0  0  0  0  0  0  0  0
   -2.6908    1.1639   -0.7027 C   0  0  0  0  0  0  0  0  0  0  0  0
   -3.8894    0.4613   -0.5835 C   0  0  0  0  0  0  0  0  0  0  0  0
   -4.9489    0.4598   -1.6039 C   0  0  0  0  0  0  0  0  0  0  0  0
   -5.6514    1.6323   -1.9338 C   0  0  0  0  0  0  0  0  0  0  0  0
   -6.6581    1.6190   -2.9030 C   0  0  0  0  0  0  0  0  0  0  0  0
   -6.9833    0.4294   -3.5518 C   0  0  0  0  0  0  0  0  0  0  0  0
   -6.3065   -0.7425   -3.2233 C   0  0  0  0  0  0  0  0  0  0  0  0
   -6.7122   -2.2132   -4.0189 Cl  0  0  0  0  0  0  0  0  0  0  0  0
   -5.3015   -0.7333   -2.2564 C   0  0  0  0  0  0  0  0  0  0  0  0
   -4.1855   -0.3043    0.4968 N   0  0  0  0  0  0  0  0  0  0  0  0
   -3.3374   -0.3626    1.5329 C   0  0  0  0  0  0  0  0  0  0  0  0
   -3.6844   -1.1446    2.6270 C   0  0  0  0  0  0  0  0  0  0  0  0
   -2.8611   -1.2528    3.7494 C   0  0  0  0  0  0  0  0  0  0  0  0
   -1.6627   -0.5566    3.7890 C   0  0  0  0  0  0  0  0  0  0  0  0
   -1.2951    0.2364    2.7040 C   0  0  0  0  0  0  0  0  0  0  0  0
   -2.1204    0.3343    1.5539 C   0  0  0  0  0  0  0  0  0  0  0  0
   -1.8149    1.0857    0.3947 C   0  0  0  0  0  0  0  0  0  0  0  0
   -0.5241    1.7909    0.3388 C   0  0  0  0  0  0  0  0  0  0  0  0
   -0.2967    2.8654    0.8579 O   0  0  0  0  0  0  0  0  0  0  0  0
    0.3408    1.0136   -0.3589 O   0  0  0  0  0  0  0  0  0  0  0  0
    1.6474    1.5619   -0.5341 C   0  0  0  0  0  0  0  0  0  0  0  0
    2.5845    1.1229    0.5772 C   0  0  0  0  0  0  0  0  0  0  0  0
    3.2772    1.9384    1.1945 O   0  0  0  0  0  0  0  0  0  0  0  0
    2.6881   -0.3669    0.8259 C   0  0  0  0  0  0  0  0  0  0  0  0
    2.4213   -0.6603    2.2373 C   0  0  0  0  0  0  0  0  0  0  0  0
    2.1989   -0.8829    3.3554 N   0  0  0  0  0  0  0  0  0  0  0  0
    4.0563   -0.8090    0.4174 C   0  0  0  0  0  0  0  0  0  0  0  0
    4.3387   -1.6010   -0.5994 N   0  0  0  0  0  0  0  0  0  0  0  0
    5.7082   -1.7207   -0.6094 C   0  0  0  0  0  0  0  0  0  0  0  0
    6.5392   -2.4503   -1.4710 C   0  0  0  0  0  0  0  0  0  0  0  0
    7.9242   -2.3998   -1.2690 C   0  0  0  0  0  0  0  0  0  0  0  0
    8.4690   -1.6381   -0.2314 C   0  0  0  0  0  0  0  0  0  0  0  0
    7.6541   -0.9023    0.6368 C   0  0  0  0  0  0  0  0  0  0  0  0
    6.2779   -0.9728    0.4138 C   0  0  0  0  0  0  0  0  0  0  0  0
    5.2102   -0.3937    1.0488 N   0  0  0  0  0  0  0  0  0  0  0  0
   -2.8168    2.9983   -1.7987 H   0  0  0  0  0  0  0  0  0  0  0  0
   -2.7739    1.5408   -2.8262 H   0  0  0  0  0  0  0  0  0  0  0  0
   -1.3076    2.1123   -2.0809 H   0  0  0  0  0  0  0  0  0  0  0  0
   -5.4257    2.5663   -1.4220 H   0  0  0  0  0  0  0  0  0  0  0  0
   -7.1933    2.5341   -3.1445 H   0  0  0  0  0  0  0  0  0  0  0  0
   -7.7686    0.4201   -4.3029 H   0  0  0  0  0  0  0  0  0  0  0  0
   -4.7893   -1.6581   -1.9988 H   0  0  0  0  0  0  0  0  0  0  0  0
   -4.6280   -1.6863    2.6063 H   0  0  0  0  0  0  0  0  0  0  0  0
   -3.1625   -1.8746    4.5885 H   0  0  0  0  0  0  0  0  0  0  0  0
   -1.0134   -0.6257    4.6593 H   0  0  0  0  0  0  0  0  0  0  0  0
   -0.3597    0.7877    2.7755 H   0  0  0  0  0  0  0  0  0  0  0  0
    1.6294    2.6556   -0.5978 H   0  0  0  0  0  0  0  0  0  0  0  0
    2.0463    1.1897   -1.4829 H   0  0  0  0  0  0  0  0  0  0  0  0
    1.9504   -0.8924    0.2088 H   0  0  0  0  0  0  0  0  0  0  0  0
    6.1113   -3.0394   -2.2753 H   0  0  0  0  0  0  0  0  0  0  0  0
    8.5816   -2.9624   -1.9280 H   0  0  0  0  0  0  0  0  0  0  0  0
    9.5484   -1.6166   -0.0957 H   0  0  0  0  0  0  0  0  0  0  0  0
    8.0783   -0.3087    1.4389 H   0  0  0  0  0  0  0  0  0  0  0  0
    5.2636    0.2512    1.8281 H   0  0  0  0  0  0  0  0  0  0  0  0
  1  2  1  0
  2  3  2  0
  3  4  1  0
  4  5  2  0
  5  6  1  0
  6  7  2  0
  7  8  1  0
  8  9  1  0
  8 10  2  0
  3 11  1  0
 11 12  2  0
 12 13  1  0
 13 14  2  0
 14 15  1  0
 15 16  2  0
 16 17  1  0
 17 18  2  0
 18 19  1  0
 19 20  2  0
 19 21  1  0
 21 22  1  0
 22 23  1  0
 23 24  2  0
 23 25  1  0
 25 26  1  0
 26 27  3  0
 25 28  1  0
 28 29  2  0
 29 30  1  0
 30 31  2  0
 31 32  1  0
 32 33  2  0
 33 34  1  0
 34 35  2  0
 35 36  1  0
 18  2  1  0
 36 28  1  0
 10  4  1  0
 17 12  1  0
 35 30  1  0
  1 37  1  0
  1 38  1  0
  1 39  1  0
  5 40  1  0
  6 41  1  0
  7 42  1  0
 10 43  1  0
 13 44  1  0
 14 45  1  0
 15 46  1  0
 16 47  1  0
 22 48  1  0
 22 49  1  0
 25 50  1  0
 31 51  1  0
 32 52  1  0
 33 53  1  0
 34 54  1  0
 36 55  1  0
M  END
$$$$
