
     RDKit          3D

 56 60  0  0  0  0  0  0  0  0999 V2000
   -5.9808   -3.8771   -0.2154 C   0  0  0  0  0  0  0  0  0  0  0  0
   -5.3099   -2.5962    0.1862 C   0  0  0  0  0  0  0  0  0  0  0  0
   -4.8762   -2.4098    1.5061 C   0  0  0  0  0  0  0  0  0  0  0  0
   -4.2829   -1.2072    1.8940 C   0  0  0  0  0  0  0  0  0  0  0  0
   -4.1188   -0.1870    0.9552 C   0  0  0  0  0  0  0  0  0  0  0  0
   -3.4018    1.3720    1.4407 S   0  0  0  0  0  6  0  0  0  0  0  0
   -3.2549    1.3748    2.8866 O   0  0  0  0  0  0  0  0  0  0  0  0
   -4.2579    2.3804    0.8297 O   0  0  0  0  0  0  0  0  0  0  0  0
   -1.8485    1.3974    0.6820 C   0  0  0  0  0  0  0  0  0  0  0  0
   -1.4920    2.4596   -0.0584 C   0  0  0  0  0  0  0  0  0  0  0  0
   -0.1925    2.5565   -0.7030 C   0  0  0  0  0  0  0  0  0  0  0  0
    0.1503    3.7804   -1.4826 C   0  0  0  0  0  0  0  0  0  0  0  0
   -0.6737    4.6909   -1.5886 O   0  0  0  0  0  0  0  0  0  0  0  0
    1.4104    3.8042   -2.0524 N   0  0  0  0  0  0  0  0  0  0  0  0
    1.8090    4.9154   -2.7883 C   0  0  0  0  0  0  0  0  0  0  0  0
    3.0166    4.9846   -3.3617 C   0  0  0  0  0  0  0  0  0  0  0  0
    3.9382    3.8890   -3.2237 C   0  0  0  0  0  0  0  0  0  0  0  0
    3.5955    2.8001   -2.5253 C   0  0  0  0  0  0  0  0  0  0  0  0
    2.2514    2.7206   -1.8852 C   0  0  0  0  0  0  0  0  0  0  0  0
    1.9476    1.6549   -1.2165 N   0  0  0  0  0  0  0  0  0  0  0  0
    0.7140    1.5568   -0.6124 C   0  0  0  0  0  0  0  0  0  0  0  0
    0.3764    0.3922    0.1310 N   0  0  0  0  0  0  0  0  0  0  0  0
    1.3690   -0.6989    0.1979 C   0  0  0  0  0  0  0  0  0  0  0  0
    2.3010   -0.5081    1.3992 C   0  0  0  0  0  0  0  0  0  0  0  0
    3.2772   -1.6503    1.5313 C   0  0  0  0  0  0  0  0  0  0  0  0
    4.4467   -1.6744    0.7593 C   0  0  0  0  0  0  0  0  0  0  0  0
    5.3395   -2.7418    0.8630 C   0  0  0  0  0  0  0  0  0  0  0  0
    5.0707   -3.7941    1.7362 C   0  0  0  0  0  0  0  0  0  0  0  0
    3.9094   -3.7802    2.5066 C   0  0  0  0  0  0  0  0  0  0  0  0
    3.0145   -2.7140    2.4046 C   0  0  0  0  0  0  0  0  0  0  0  0
   -0.8397    0.3067    0.8331 C   0  0  0  0  0  0  0  0  0  0  0  0
   -1.1519   -0.6721    1.6251 N   0  0  0  0  0  0  0  0  0  0  0  0
   -4.5751   -0.3465   -0.3571 C   0  0  0  0  0  0  0  0  0  0  0  0
   -5.1691   -1.5511   -0.7373 C   0  0  0  0  0  0  0  0  0  0  0  0
   -5.5863   -4.7214    0.3598 H   0  0  0  0  0  0  0  0  0  0  0  0
   -7.0591   -3.8043   -0.0439 H   0  0  0  0  0  0  0  0  0  0  0  0
   -5.8041   -4.0951   -1.2739 H   0  0  0  0  0  0  0  0  0  0  0  0
   -4.9984   -3.2012    2.2425 H   0  0  0  0  0  0  0  0  0  0  0  0
   -3.9427   -1.0781    2.9191 H   0  0  0  0  0  0  0  0  0  0  0  0
   -2.1709    3.3006   -0.1932 H   0  0  0  0  0  0  0  0  0  0  0  0
    1.0958    5.7315   -2.8791 H   0  0  0  0  0  0  0  0  0  0  0  0
    3.3189    5.8563   -3.9335 H   0  0  0  0  0  0  0  0  0  0  0  0
    4.9116    3.9676   -3.6974 H   0  0  0  0  0  0  0  0  0  0  0  0
    4.2601    1.9549   -2.3985 H   0  0  0  0  0  0  0  0  0  0  0  0
    0.8668   -1.6734    0.2409 H   0  0  0  0  0  0  0  0  0  0  0  0
    1.9533   -0.7522   -0.7304 H   0  0  0  0  0  0  0  0  0  0  0  0
    2.8578    0.4334    1.3083 H   0  0  0  0  0  0  0  0  0  0  0  0
    1.7195   -0.4139    2.3250 H   0  0  0  0  0  0  0  0  0  0  0  0
    4.6697   -0.8596    0.0736 H   0  0  0  0  0  0  0  0  0  0  0  0
    6.2461   -2.7523    0.2636 H   0  0  0  0  0  0  0  0  0  0  0  0
    5.7672   -4.6244    1.8181 H   0  0  0  0  0  0  0  0  0  0  0  0
    3.7014   -4.6000    3.1894 H   0  0  0  0  0  0  0  0  0  0  0  0
    2.1148   -2.7193    3.0162 H   0  0  0  0  0  0  0  0  0  0  0  0
   -0.4146   -1.3697    1.6985 H   0  0  0  0  0  0  0  0  0  0  0  0
   -4.4885    0.4613   -1.0797 H   0  0  0  0  0  0  0  0  0  0  0  0
   -5.5301   -1.6685   -1.7569 H   0  0  0  0  0  0  0  0  0  0  0  0
  1  2  1  0
  2  3  2  0
  3  4  1  0
  4  5  2  0
  5  6  1  0
  6  7  2  0
  6  8  2  0
  6  9  1  0
  9 10  2  0
 10 11  1  0
 11 12  1  0
 12 13  2  0
 12 14  1  0
 14 15  1  0
 15 16  2  0
 16 17  1  0
 17 18  2  0
 18 19  1  0
 19 20  2  0
 20 21  1  0
 21 22  1  0
 22 23  1  0
 23 24  1  0
 24 25  1  0
 25 26  2  0
 26 27  1  0
 27 28  2  0
 28 29  1  0
 29 30  2  0
 22 31  1  0
 31 32  2  3
  5 33  1  0
 33 34  2  0
 34  2  1  0
 31  9  1  0
 21 11  2  0
 30 25  1  0
 19 14  1  0
  1 35  1  0
  1 36  1  0
  1 37  1  0
  3 38  1  0
  4 39  1  0
 10 40  1  0
 15 41  1  0
 16 42  1  0
 17 43  1  0
 18 44  1  0
 23 45  1  0
 23 46  1  0
 24 47  1  0
 24 48  1  0
 26 49  1  0
 27 50  1  0
 28 51  1  0
 29 52  1  0
 30 53  1  0
 32 54  1  0
 33 55  1  0
 34 56  1  0
M  END
$$$$
