
     RDKit          3D

 48 50  0  0  0  0  0  0  0  0999 V2000
    0.7204   -0.6023    0.0030 C   0  0  0  0  0  0  0  0  0  0  0  0
    0.4587    0.5291   -0.6658 C   0  0  0  0  0  0  0  0  0  0  0  0
    1.4342    1.5048   -1.2081 C   0  0  0  0  0  0  0  0  0  0  0  0
    2.7750    1.5157   -1.3034 C   0  0  0  0  0  0  0  0  0  0  0  0
    3.6478    0.4618   -0.9304 C   0  0  0  0  0  0  0  0  0  0  0  0
    4.8270    0.7246    0.2999 S   0  0  0  0  0  0  0  0  0  0  0  0
    5.4131   -0.8550    0.0824 C   0  0  0  0  0  0  0  0  0  0  0  0
    6.4461   -1.3843    0.8122 N   0  0  0  0  0  0  0  0  0  0  0  0
    7.1753   -0.7615    1.7969 C   0  0  0  0  0  0  0  0  0  0  0  0
    8.2418   -1.6613    2.3717 C   0  0  0  0  0  0  0  0  0  0  0  0
    7.0561    0.3901    2.1993 O   0  0  0  0  0  0  0  0  0  0  0  0
    4.8187   -1.5678   -0.8419 N   0  0  0  0  0  0  0  0  0  0  0  0
    3.8260   -0.8218   -1.4297 C   0  0  0  0  0  0  0  0  0  0  0  0
    3.0786   -1.3297   -2.4277 O   0  0  0  0  0  0  0  0  0  0  0  0
    0.6624    2.6226   -1.7535 C   0  0  0  0  0  0  0  0  0  0  0  0
   -0.6423    2.3177   -1.6200 C   0  0  0  0  0  0  0  0  0  0  0  0
   -1.7724    3.2104   -2.0098 C   0  0  0  0  0  0  0  0  0  0  0  0
   -0.8036    1.0619   -0.9989 N   0  0  0  0  0  0  0  0  0  0  0  0
   -2.0534    0.5645   -0.5514 C   0  0  0  0  0  0  0  0  0  0  0  0
   -2.3244    0.3954    0.8121 C   0  0  0  0  0  0  0  0  0  0  0  0
   -3.5657   -0.0862    1.2437 C   0  0  0  0  0  0  0  0  0  0  0  0
   -4.5670   -0.4092    0.3209 C   0  0  0  0  0  0  0  0  0  0  0  0
   -5.7885   -0.8883    0.8370 N   0  0  0  0  0  0  0  0  0  0  0  0
   -6.9182   -1.2524    0.1265 C   0  0  0  0  0  0  0  0  0  0  0  0
   -8.0319   -1.7190    1.0308 C   0  0  0  0  0  0  0  0  0  0  0  0
   -7.0762   -1.2038   -1.0878 O   0  0  0  0  0  0  0  0  0  0  0  0
   -4.3042   -0.2435   -1.0383 C   0  0  0  0  0  0  0  0  0  0  0  0
   -3.0611    0.2395   -1.4679 C   0  0  0  0  0  0  0  0  0  0  0  0
   -0.0811   -1.2540    0.3337 H   0  0  0  0  0  0  0  0  0  0  0  0
    1.7164   -0.9310    0.2615 H   0  0  0  0  0  0  0  0  0  0  0  0
    3.2625    2.3948   -1.7225 H   0  0  0  0  0  0  0  0  0  0  0  0
    6.6627   -2.3348    0.5466 H   0  0  0  0  0  0  0  0  0  0  0  0
    7.9502   -2.7139    2.3129 H   0  0  0  0  0  0  0  0  0  0  0  0
    9.1743   -1.5108    1.8215 H   0  0  0  0  0  0  0  0  0  0  0  0
    8.3941   -1.4124    3.4259 H   0  0  0  0  0  0  0  0  0  0  0  0
    2.3692   -0.7108   -2.6686 H   0  0  0  0  0  0  0  0  0  0  0  0
    1.0714    3.5263   -2.1764 H   0  0  0  0  0  0  0  0  0  0  0  0
   -2.3582    2.7662   -2.8199 H   0  0  0  0  0  0  0  0  0  0  0  0
   -1.4077    4.1807   -2.3642 H   0  0  0  0  0  0  0  0  0  0  0  0
   -2.4320    3.4018   -1.1575 H   0  0  0  0  0  0  0  0  0  0  0  0
   -1.5700    0.6579    1.5501 H   0  0  0  0  0  0  0  0  0  0  0  0
   -3.7328   -0.1970    2.3117 H   0  0  0  0  0  0  0  0  0  0  0  0
   -5.8422   -0.9641    1.8448 H   0  0  0  0  0  0  0  0  0  0  0  0
   -7.6390   -2.3296    1.8490 H   0  0  0  0  0  0  0  0  0  0  0  0
   -8.5571   -0.8508    1.4376 H   0  0  0  0  0  0  0  0  0  0  0  0
   -8.7336   -2.3318    0.4576 H   0  0  0  0  0  0  0  0  0  0  0  0
   -5.0418   -0.4835   -1.7974 H   0  0  0  0  0  0  0  0  0  0  0  0
   -2.8779    0.3449   -2.5345 H   0  0  0  0  0  0  0  0  0  0  0  0
  1  2  2  0
  2  3  1  0
  3  4  2  3
  4  5  1  0
  5  6  1  0
  6  7  1  0
  7  8  1  0
  8  9  1  0
  9 10  1  0
  9 11  2  0
  7 12  2  0
 12 13  1  0
 13 14  1  0
  3 15  1  0
 15 16  2  0
 16 17  1  0
 16 18  1  0
 18 19  1  0
 19 20  2  0
 20 21  1  0
 21 22  2  0
 22 23  1  0
 23 24  1  0
 24 25  1  0
 24 26  2  0
 22 27  1  0
 27 28  2  0
 18  2  1  0
 28 19  1  0
 13  5  2  0
  1 29  1  0
  1 30  1  0
  4 31  1  0
  8 32  1  0
 10 33  1  0
 10 34  1  0
 10 35  1  0
 14 36  1  0
 15 37  1  0
 17 38  1  0
 17 39  1  0
 17 40  1  0
 20 41  1  0
 21 42  1  0
 23 43  1  0
 25 44  1  0
 25 45  1  0
 25 46  1  0
 27 47  1  0
 28 48  1  0
M  END
$$$$
