
     RDKit          3D

 41 42  0  0  0  0  0  0  0  0999 V2000
   -5.7119    0.8370   -3.8106 C   0  0  0  0  0  0  0  0  0  0  0  0
   -5.7533    0.3357   -2.0696 S   0  0  0  0  0  0  0  0  0  0  0  0
   -4.0398    0.5856   -1.6456 C   0  0  0  0  0  0  0  0  0  0  0  0
   -3.2807   -0.4981   -1.1997 C   0  0  0  0  0  0  0  0  0  0  0  0
   -1.9376   -0.3266   -0.8518 C   0  0  0  0  0  0  0  0  0  0  0  0
   -1.3347    0.9373   -0.9279 C   0  0  0  0  0  0  0  0  0  0  0  0
    0.1197    1.1236   -0.5488 C   0  0  0  0  0  0  0  0  0  0  0  0
    0.4178    1.4776    0.8571 N   0  0  0  0  0  0  0  0  0  0  0  0
   -0.1390    2.7775    1.2305 C   0  0  0  0  0  0  0  0  0  0  0  0
   -0.0133    0.4436    1.8298 C   0  0  0  0  0  0  0  0  0  0  0  0
    0.8079   -0.8451    1.6808 C   0  0  0  0  0  0  0  0  0  0  0  0
    0.2929   -1.9490    1.8268 O   0  0  0  0  0  0  0  0  0  0  0  0
    2.1422   -0.5788    1.4214 N   0  0  0  0  0  0  0  0  0  0  0  0
    3.1995   -1.4901    1.2587 C   0  0  0  0  0  0  0  0  0  0  0  0
    3.0663   -2.8708    1.4207 C   0  0  0  0  0  0  0  0  0  0  0  0
    4.1667   -3.7162    1.2429 C   0  0  0  0  0  0  0  0  0  0  0  0
    5.4099   -3.1875    0.9029 C   0  0  0  0  0  0  0  0  0  0  0  0
    5.5459   -1.8116    0.7434 C   0  0  0  0  0  0  0  0  0  0  0  0
    7.2299   -1.0842    0.2832 Br  0  0  0  0  0  0  0  0  0  0  0  0
    4.4515   -0.9630    0.9199 C   0  0  0  0  0  0  0  0  0  0  0  0
   -2.1046    2.0218   -1.3720 C   0  0  0  0  0  0  0  0  0  0  0  0
   -3.4471    1.8482   -1.7222 C   0  0  0  0  0  0  0  0  0  0  0  0
   -5.4865    1.9024   -3.9047 H   0  0  0  0  0  0  0  0  0  0  0  0
   -4.9649    0.2567   -4.3594 H   0  0  0  0  0  0  0  0  0  0  0  0
   -6.6921    0.6522   -4.2584 H   0  0  0  0  0  0  0  0  0  0  0  0
   -3.7254   -1.4877   -1.1206 H   0  0  0  0  0  0  0  0  0  0  0  0
   -1.3684   -1.1918   -0.5146 H   0  0  0  0  0  0  0  0  0  0  0  0
    0.5539    1.8947   -1.2004 H   0  0  0  0  0  0  0  0  0  0  0  0
    0.6708    0.2158   -0.8264 H   0  0  0  0  0  0  0  0  0  0  0  0
   -1.2324    2.7691    1.2923 H   0  0  0  0  0  0  0  0  0  0  0  0
    0.1676    3.5525    0.5193 H   0  0  0  0  0  0  0  0  0  0  0  0
    0.2488    3.0864    2.2080 H   0  0  0  0  0  0  0  0  0  0  0  0
    0.1729    0.7943    2.8534 H   0  0  0  0  0  0  0  0  0  0  0  0
   -1.0806    0.2141    1.7524 H   0  0  0  0  0  0  0  0  0  0  0  0
    2.3351    0.4066    1.2586 H   0  0  0  0  0  0  0  0  0  0  0  0
    2.1165   -3.3236    1.6894 H   0  0  0  0  0  0  0  0  0  0  0  0
    4.0474   -4.7893    1.3723 H   0  0  0  0  0  0  0  0  0  0  0  0
    6.2586   -3.8521    0.7670 H   0  0  0  0  0  0  0  0  0  0  0  0
    4.5798    0.1081    0.7912 H   0  0  0  0  0  0  0  0  0  0  0  0
   -1.6647    3.0140   -1.4447 H   0  0  0  0  0  0  0  0  0  0  0  0
   -4.0245    2.7109   -2.0440 H   0  0  0  0  0  0  0  0  0  0  0  0
  1  2  1  0
  2  3  1  0
  3  4  2  0
  4  5  1  0
  5  6  2  0
  6  7  1  0
  7  8  1  0
  8  9  1  0
  8 10  1  0
 10 11  1  0
 11 12  2  0
 11 13  1  0
 13 14  1  0
 14 15  2  0
 15 16  1  0
 16 17  2  0
 17 18  1  0
 18 19  1  0
 18 20  2  0
  6 21  1  0
 21 22  2  0
 22  3  1  0
 20 14  1  0
  1 23  1  0
  1 24  1  0
  1 25  1  0
  4 26  1  0
  5 27  1  0
  7 28  1  0
  7 29  1  0
  9 30  1  0
  9 31  1  0
  9 32  1  0
 10 33  1  0
 10 34  1  0
 13 35  1  0
 15 36  1  0
 16 37  1  0
 17 38  1  0
 20 39  1  0
 21 40  1  0
 22 41  1  0
M  END
$$$$
