
     RDKit          3D

 44 45  0  0  0  0  0  0  0  0999 V2000
   -3.3967   -3.1870   -2.5695 C   0  0  0  0  0  0  0  0  0  0  0  0
   -2.4102   -2.3997   -1.9092 O   0  0  0  0  0  0  0  0  0  0  0  0
   -2.8414   -1.4801   -0.9871 C   0  0  0  0  0  0  0  0  0  0  0  0
   -4.1826   -1.2716   -0.6427 C   0  0  0  0  0  0  0  0  0  0  0  0
   -4.5365   -0.3071    0.3123 C   0  0  0  0  0  0  0  0  0  0  0  0
   -5.8250   -0.0427    0.7063 O   0  0  0  0  0  0  0  0  0  0  0  0
   -6.8801   -0.7630    0.0860 C   0  0  0  0  0  0  0  0  0  0  0  0
   -3.5366    0.4643    0.9370 C   0  0  0  0  0  0  0  0  0  0  0  0
   -3.9716    1.3840    1.8575 O   0  0  0  0  0  0  0  0  0  0  0  0
   -2.9979    2.1940    2.5011 C   0  0  0  0  0  0  0  0  0  0  0  0
   -2.1985    0.2595    0.5977 C   0  0  0  0  0  0  0  0  0  0  0  0
   -1.8535   -0.7066   -0.3579 C   0  0  0  0  0  0  0  0  0  0  0  0
   -0.4260   -0.9050   -0.7012 C   0  0  0  0  0  0  0  0  0  0  0  0
    0.5149   -0.2055   -0.1441 N   0  0  0  0  0  0  0  0  0  0  0  0
    1.7866   -0.4799   -0.5427 N   0  0  0  0  0  0  0  0  0  0  0  0
    2.8269    0.2440    0.0245 C   0  0  0  0  0  0  0  0  0  0  0  0
    2.7019    1.1271    0.8708 O   0  0  0  0  0  0  0  0  0  0  0  0
    4.1907   -0.1475   -0.4958 C   0  0  0  0  0  0  0  0  0  0  0  0
    5.2432    0.6640    0.1581 N   0  0  0  0  0  4  0  0  0  0  0  0
    5.8021    0.2327    1.3138 C   0  0  0  0  0  0  0  0  0  0  0  0
    6.7822    0.9852    1.9506 C   0  0  0  0  0  0  0  0  0  0  0  0
    7.1765    2.1970    1.3995 C   0  0  0  0  0  0  0  0  0  0  0  0
    6.5767    2.6393    0.2282 C   0  0  0  0  0  0  0  0  0  0  0  0
    5.6004    1.8560   -0.3764 C   0  0  0  0  0  0  0  0  0  0  0  0
   -4.0767   -2.5584   -3.1535 H   0  0  0  0  0  0  0  0  0  0  0  0
   -3.9440   -3.8118   -1.8560 H   0  0  0  0  0  0  0  0  0  0  0  0
   -2.8788   -3.8532   -3.2662 H   0  0  0  0  0  0  0  0  0  0  0  0
   -4.9595   -1.8588   -1.1146 H   0  0  0  0  0  0  0  0  0  0  0  0
   -7.8235   -0.4090    0.5128 H   0  0  0  0  0  0  0  0  0  0  0  0
   -6.9093   -0.5704   -0.9914 H   0  0  0  0  0  0  0  0  0  0  0  0
   -6.8022   -1.8349    0.2951 H   0  0  0  0  0  0  0  0  0  0  0  0
   -2.3071    1.5852    3.0937 H   0  0  0  0  0  0  0  0  0  0  0  0
   -3.5223    2.8652    3.1882 H   0  0  0  0  0  0  0  0  0  0  0  0
   -2.4591    2.8142    1.7773 H   0  0  0  0  0  0  0  0  0  0  0  0
   -1.4086    0.8399    1.0641 H   0  0  0  0  0  0  0  0  0  0  0  0
   -0.1893   -1.6759   -1.4554 H   0  0  0  0  0  0  0  0  0  0  0  0
    1.9229   -1.2047   -1.2419 H   0  0  0  0  0  0  0  0  0  0  0  0
    4.3911   -1.2028   -0.2851 H   0  0  0  0  0  0  0  0  0  0  0  0
    4.2503    0.0208   -1.5759 H   0  0  0  0  0  0  0  0  0  0  0  0
    5.4528   -0.7097    1.7261 H   0  0  0  0  0  0  0  0  0  0  0  0
    7.2277    0.6346    2.8792 H   0  0  0  0  0  0  0  0  0  0  0  0
    7.9371    2.8029    1.8905 H   0  0  0  0  0  0  0  0  0  0  0  0
    6.8594    3.5967   -0.2043 H   0  0  0  0  0  0  0  0  0  0  0  0
    5.0937    2.1789   -1.2815 H   0  0  0  0  0  0  0  0  0  0  0  0
  1  2  1  0
  2  3  1  0
  3  4  2  0
  4  5  1  0
  5  6  1  0
  6  7  1  0
  5  8  2  0
  8  9  1  0
  9 10  1  0
  8 11  1  0
 11 12  2  0
 12 13  1  0
 13 14  2  3
 14 15  1  0
 15 16  1  0
 16 17  2  0
 16 18  1  0
 18 19  1  0
 19 20  2  0
 20 21  1  0
 21 22  2  0
 22 23  1  0
 23 24  2  0
 12  3  1  0
 24 19  1  0
  1 25  1  0
  1 26  1  0
  1 27  1  0
  4 28  1  0
  7 29  1  0
  7 30  1  0
  7 31  1  0
 10 32  1  0
 10 33  1  0
 10 34  1  0
 11 35  1  0
 13 36  1  0
 15 37  1  0
 18 38  1  0
 18 39  1  0
 20 40  1  0
 21 41  1  0
 22 42  1  0
 23 43  1  0
 24 44  1  0
M  CHG  1  19   1
M  END
$$$$
