
     RDKit          3D

 42 45  0  0  0  0  0  0  0  0999 V2000
   -4.5895    2.9341    1.7831 O   0  0  0  0  0  0  0  0  0  0  0  0
   -4.0552    2.0458    1.1191 C   0  0  0  0  0  0  0  0  0  0  0  0
   -2.7362    2.2318    0.5031 C   0  0  0  0  0  0  0  0  0  0  0  0
   -1.6278    1.3432    0.4849 C   0  0  0  0  0  0  0  0  0  0  0  0
   -0.6494    2.0085   -0.2136 C   0  0  0  0  0  0  0  0  0  0  0  0
    0.7480    1.7091   -0.6039 C   0  0  0  0  0  0  0  0  0  0  0  0
    0.8788    0.2792   -0.6190 O   0  0  0  0  0  0  0  0  0  0  0  0
    2.1868   -0.1151   -0.6866 C   0  0  0  0  0  0  0  0  0  0  0  0
    2.6516   -0.9537    0.3253 C   0  0  0  0  0  0  0  0  0  0  0  0
    3.9755   -1.4068    0.3138 C   0  0  0  0  0  0  0  0  0  0  0  0
    4.8310   -1.0353   -0.7335 C   0  0  0  0  0  0  0  0  0  0  0  0
    6.1810   -1.4709   -0.7683 N   0  0  0  0  0  0  0  0  0  0  0  0
    6.8641   -2.2481    0.1368 C   0  0  0  0  0  0  0  0  0  0  0  0
    8.1077   -2.4246   -0.2486 N   0  0  0  0  0  0  0  0  0  0  0  0
    8.1572   -1.7265   -1.4155 C   0  0  0  0  0  0  0  0  0  0  0  0
    7.0222   -1.1284   -1.7767 N   0  0  0  0  0  0  0  0  0  0  0  0
    4.3434   -0.2195   -1.7675 C   0  0  0  0  0  0  0  0  0  0  0  0
    3.0207    0.2346   -1.7458 C   0  0  0  0  0  0  0  0  0  0  0  0
   -1.1260    3.2265   -0.5855 O   0  0  0  0  0  0  0  0  0  0  0  0
   -2.4223    3.3743   -0.1340 N   0  0  0  0  0  0  0  0  0  0  0  0
   -4.6806    0.8170    0.9362 N   0  0  0  0  0  0  0  0  0  0  0  0
   -4.3401   -0.2112   -0.0400 C   0  0  0  0  0  0  0  0  0  0  0  0
   -5.6228   -1.0158   -0.2096 C   0  0  0  0  0  0  0  0  0  0  0  0
   -6.2928   -0.8766    1.1518 C   0  0  0  0  0  0  0  0  0  0  0  0
   -5.9787    0.5622    1.5324 C   0  0  0  0  0  0  0  0  0  0  0  0
   -1.5472    0.3613    0.9256 H   0  0  0  0  0  0  0  0  0  0  0  0
    1.4286    2.1509    0.1355 H   0  0  0  0  0  0  0  0  0  0  0  0
    0.9515    2.1214   -1.5995 H   0  0  0  0  0  0  0  0  0  0  0  0
    1.9861   -1.2436    1.1345 H   0  0  0  0  0  0  0  0  0  0  0  0
    4.2960   -2.0435    1.1326 H   0  0  0  0  0  0  0  0  0  0  0  0
    6.4244   -2.6470    1.0385 H   0  0  0  0  0  0  0  0  0  0  0  0
    9.0509   -1.6489   -2.0233 H   0  0  0  0  0  0  0  0  0  0  0  0
    4.9812    0.0670   -2.6023 H   0  0  0  0  0  0  0  0  0  0  0  0
    2.6540    0.8458   -2.5666 H   0  0  0  0  0  0  0  0  0  0  0  0
   -3.9948    0.2251   -0.9809 H   0  0  0  0  0  0  0  0  0  0  0  0
   -3.5509   -0.8365    0.3932 H   0  0  0  0  0  0  0  0  0  0  0  0
   -6.2533   -0.5607   -0.9836 H   0  0  0  0  0  0  0  0  0  0  0  0
   -5.4333   -2.0560   -0.4899 H   0  0  0  0  0  0  0  0  0  0  0  0
   -7.3654   -1.0824    1.1237 H   0  0  0  0  0  0  0  0  0  0  0  0
   -5.8267   -1.5662    1.8669 H   0  0  0  0  0  0  0  0  0  0  0  0
   -6.7020    1.2577    1.0930 H   0  0  0  0  0  0  0  0  0  0  0  0
   -5.9454    0.7217    2.6131 H   0  0  0  0  0  0  0  0  0  0  0  0
  1  2  2  0
  2  3  1  0
  3  4  1  0
  4  5  2  0
  5  6  1  0
  6  7  1  0
  7  8  1  0
  8  9  2  0
  9 10  1  0
 10 11  2  0
 11 12  1  0
 12 13  1  0
 13 14  2  0
 14 15  1  0
 15 16  2  0
 11 17  1  0
 17 18  2  0
  5 19  1  0
 19 20  1  0
  2 21  1  0
 21 22  1  0
 22 23  1  0
 23 24  1  0
 24 25  1  0
 20  3  2  0
 25 21  1  0
 18  8  1  0
 16 12  1  0
  4 26  1  0
  6 27  1  0
  6 28  1  0
  9 29  1  0
 10 30  1  0
 13 31  1  0
 15 32  1  0
 17 33  1  0
 18 34  1  0
 22 35  1  0
 22 36  1  0
 23 37  1  0
 23 38  1  0
 24 39  1  0
 24 40  1  0
 25 41  1  0
 25 42  1  0
M  END
$$$$
