
     RDKit          3D

 52 53  0  0  0  0  0  0  0  0999 V2000
    2.9288    3.6167    3.6509 C   0  0  0  0  0  0  0  0  0  0  0  0
    3.6010    4.1285    2.5061 O   0  0  0  0  0  0  0  0  0  0  0  0
    3.9454    3.2221    1.5352 C   0  0  0  0  0  0  0  0  0  0  0  0
    4.7836    3.7240    0.5380 C   0  0  0  0  0  0  0  0  0  0  0  0
    5.2209    2.8966   -0.5034 C   0  0  0  0  0  0  0  0  0  0  0  0
    4.8255    1.5566   -0.5517 C   0  0  0  0  0  0  0  0  0  0  0  0
    3.9777    1.0425    0.4317 C   0  0  0  0  0  0  0  0  0  0  0  0
    3.5229   -0.2907    0.4536 N   0  0  0  0  0  0  0  0  0  0  0  0
    3.8188   -1.3176   -0.4327 C   0  0  0  0  0  0  0  0  0  0  0  0
    4.5501   -1.2581   -1.4190 O   0  0  0  0  0  0  0  0  0  0  0  0
    3.0725   -2.6121   -0.0850 C   0  0  0  0  0  0  0  0  0  0  0  0
    1.6813   -2.5368   -0.5379 N   0  0  0  0  0  0  0  0  0  0  0  0
    1.4404   -2.8587   -1.9394 C   0  0  0  0  0  0  0  0  0  0  0  0
    0.7920   -1.8595    0.2864 C   0  0  0  0  0  0  0  0  0  0  0  0
    1.1130   -1.4805    1.4150 O   0  0  0  0  0  0  0  0  0  0  0  0
   -0.5506   -1.5448   -0.2631 C   0  0  0  0  0  0  0  0  0  0  0  0
   -1.5547   -1.1898    0.5549 C   0  0  0  0  0  0  0  0  0  0  0  0
   -2.8775   -0.8064    0.0345 C   0  0  0  0  0  0  0  0  0  0  0  0
   -3.3586    0.4682    0.3814 C   0  0  0  0  0  0  0  0  0  0  0  0
   -4.5884    0.9307   -0.0946 C   0  0  0  0  0  0  0  0  0  0  0  0
   -4.9231    2.1930    0.3134 O   0  0  0  0  0  0  0  0  0  0  0  0
   -6.1349    2.7277   -0.1989 C   0  0  0  0  0  0  0  0  0  0  0  0
   -5.3491    0.1061   -0.9217 C   0  0  0  0  0  0  0  0  0  0  0  0
   -4.8922   -1.1761   -1.2595 C   0  0  0  0  0  0  0  0  0  0  0  0
   -3.6647   -1.6479   -0.7791 C   0  0  0  0  0  0  0  0  0  0  0  0
   -3.1594   -2.8956   -1.0496 O   0  0  0  0  0  0  0  0  0  0  0  0
   -4.0080   -3.8152   -1.7254 C   0  0  0  0  0  0  0  0  0  0  0  0
    3.5294    1.8884    1.4682 C   0  0  0  0  0  0  0  0  0  0  0  0
    2.9249    4.4078    4.4116 H   0  0  0  0  0  0  0  0  0  0  0  0
    3.4554    2.7533    4.0777 H   0  0  0  0  0  0  0  0  0  0  0  0
    1.8859    3.3674    3.4104 H   0  0  0  0  0  0  0  0  0  0  0  0
    5.1005    4.7618    0.5721 H   0  0  0  0  0  0  0  0  0  0  0  0
    5.8682    3.2953   -1.2829 H   0  0  0  0  0  0  0  0  0  0  0  0
    5.1812    0.9466   -1.3780 H   0  0  0  0  0  0  0  0  0  0  0  0
    2.8453   -0.5244    1.1809 H   0  0  0  0  0  0  0  0  0  0  0  0
    3.5767   -3.4678   -0.5518 H   0  0  0  0  0  0  0  0  0  0  0  0
    3.1142   -2.7722    1.0007 H   0  0  0  0  0  0  0  0  0  0  0  0
    0.4185   -3.2204   -2.0819 H   0  0  0  0  0  0  0  0  0  0  0  0
    2.1241   -3.6503   -2.2641 H   0  0  0  0  0  0  0  0  0  0  0  0
    1.6009   -1.9620   -2.5447 H   0  0  0  0  0  0  0  0  0  0  0  0
   -0.6985   -1.5598   -1.3338 H   0  0  0  0  0  0  0  0  0  0  0  0
   -1.4186   -1.1318    1.6315 H   0  0  0  0  0  0  0  0  0  0  0  0
   -2.7634    1.1227    1.0192 H   0  0  0  0  0  0  0  0  0  0  0  0
   -6.9980    2.1348    0.1225 H   0  0  0  0  0  0  0  0  0  0  0  0
   -6.0923    2.8130   -1.2920 H   0  0  0  0  0  0  0  0  0  0  0  0
   -6.2561    3.7344    0.2102 H   0  0  0  0  0  0  0  0  0  0  0  0
   -6.3066    0.4243   -1.3219 H   0  0  0  0  0  0  0  0  0  0  0  0
   -5.5220   -1.7794   -1.9081 H   0  0  0  0  0  0  0  0  0  0  0  0
   -3.5046   -4.7859   -1.7460 H   0  0  0  0  0  0  0  0  0  0  0  0
   -4.1756   -3.5049   -2.7631 H   0  0  0  0  0  0  0  0  0  0  0  0
   -4.9564   -3.9477   -1.1933 H   0  0  0  0  0  0  0  0  0  0  0  0
    2.8542    1.4860    2.2165 H   0  0  0  0  0  0  0  0  0  0  0  0
  1  2  1  0
  2  3  1  0
  3  4  2  0
  4  5  1  0
  5  6  2  0
  6  7  1  0
  7  8  1  0
  8  9  1  0
  9 10  2  0
  9 11  1  0
 11 12  1  0
 12 13  1  0
 12 14  1  0
 14 15  2  0
 14 16  1  0
 16 17  2  3
 17 18  1  0
 18 19  2  0
 19 20  1  0
 20 21  1  0
 21 22  1  0
 20 23  2  0
 23 24  1  0
 24 25  2  0
 25 26  1  0
 26 27  1  0
  7 28  2  0
 28  3  1  0
 25 18  1  0
  1 29  1  0
  1 30  1  0
  1 31  1  0
  4 32  1  0
  5 33  1  0
  6 34  1  0
  8 35  1  0
 11 36  1  0
 11 37  1  0
 13 38  1  0
 13 39  1  0
 13 40  1  0
 16 41  1  0
 17 42  1  0
 19 43  1  0
 22 44  1  0
 22 45  1  0
 22 46  1  0
 23 47  1  0
 24 48  1  0
 27 49  1  0
 27 50  1  0
 27 51  1  0
 28 52  1  0
M  END
$$$$
