
     RDKit          3D

 53 57  0  0  0  0  0  0  0  0999 V2000
    2.0069    2.8785    3.5880 C   0  0  0  0  0  0  0  0  0  0  0  0
    2.8753    1.6886    3.2939 C   0  0  0  0  0  0  0  0  0  0  0  0
    4.2676    1.8811    3.2309 C   0  0  0  0  0  0  0  0  0  0  0  0
    5.1350    0.8193    2.9653 C   0  0  0  0  0  0  0  0  0  0  0  0
    4.6294   -0.4597    2.7601 C   0  0  0  0  0  0  0  0  0  0  0  0
    3.2542   -0.6753    2.8147 C   0  0  0  0  0  0  0  0  0  0  0  0
    2.3750    0.3918    3.0702 C   0  0  0  0  0  0  0  0  0  0  0  0
    0.6341   -0.0065    3.0981 S   0  0  0  0  0  6  0  0  0  0  0  0
    0.4529   -0.9617    4.1742 O   0  0  0  0  0  0  0  0  0  0  0  0
   -0.1819    1.1874    3.0414 O   0  0  0  0  0  0  0  0  0  0  0  0
    0.3857   -0.8795    1.6741 N   0  0  0  0  0  0  0  0  0  0  0  0
    0.2505   -0.0672    0.5130 C   0  0  0  0  0  0  0  0  0  0  0  0
    1.3308    0.6678    0.1960 N   0  0  0  0  0  0  0  0  0  0  0  0
    1.1761    1.5102   -0.8364 C   0  0  0  0  0  0  0  0  0  0  0  0
    2.2403    2.3175   -1.2158 C   0  0  0  0  0  0  0  0  0  0  0  0
    2.1263    3.2147   -2.2782 C   0  0  0  0  0  0  0  0  0  0  0  0
    0.9263    3.3064   -2.9721 C   0  0  0  0  0  0  0  0  0  0  0  0
   -0.1495    2.4990   -2.5989 C   0  0  0  0  0  0  0  0  0  0  0  0
   -0.0495    1.6008   -1.5438 C   0  0  0  0  0  0  0  0  0  0  0  0
   -1.1119    0.8344   -1.2227 N   0  0  0  0  0  0  0  0  0  0  0  0
   -0.9688   -0.0362   -0.2020 C   0  0  0  0  0  0  0  0  0  0  0  0
   -2.0218   -0.9056    0.1576 N   0  0  0  0  0  0  0  0  0  0  0  0
   -3.3724   -0.3866   -0.1031 C   0  0  0  0  0  0  0  0  0  0  0  0
   -3.8107   -0.5024   -1.5650 C   0  0  0  0  0  0  0  0  0  0  0  0
   -3.4633   -1.8349   -2.1749 C   0  0  0  0  0  0  0  0  0  0  0  0
   -4.0819   -2.2313   -3.3703 C   0  0  0  0  0  0  0  0  0  0  0  0
   -3.7511   -3.4455   -3.9705 C   0  0  0  0  0  0  0  0  0  0  0  0
   -2.7945   -4.2698   -3.3867 C   0  0  0  0  0  0  0  0  0  0  0  0
   -2.1662   -3.8784   -2.2038 C   0  0  0  0  0  0  0  0  0  0  0  0
   -2.4846   -2.6551   -1.5898 C   0  0  0  0  0  0  0  0  0  0  0  0
   -1.8058   -2.2943   -0.2856 C   0  0  0  0  0  0  0  0  0  0  0  0
    1.4121    3.1441    2.7093 H   0  0  0  0  0  0  0  0  0  0  0  0
    2.6078    3.7571    3.8476 H   0  0  0  0  0  0  0  0  0  0  0  0
    1.3591    2.6813    4.4475 H   0  0  0  0  0  0  0  0  0  0  0  0
    4.6921    2.8711    3.3943 H   0  0  0  0  0  0  0  0  0  0  0  0
    6.2075    0.9931    2.9237 H   0  0  0  0  0  0  0  0  0  0  0  0
    5.3038   -1.2881    2.5580 H   0  0  0  0  0  0  0  0  0  0  0  0
    2.8679   -1.6796    2.6539 H   0  0  0  0  0  0  0  0  0  0  0  0
   -0.4251   -1.4794    1.8204 H   0  0  0  0  0  0  0  0  0  0  0  0
    3.1774    2.2458   -0.6680 H   0  0  0  0  0  0  0  0  0  0  0  0
    2.9722    3.8373   -2.5584 H   0  0  0  0  0  0  0  0  0  0  0  0
    0.8236    4.0016   -3.8019 H   0  0  0  0  0  0  0  0  0  0  0  0
   -1.0876    2.5681   -3.1444 H   0  0  0  0  0  0  0  0  0  0  0  0
   -3.4688    0.6504    0.2435 H   0  0  0  0  0  0  0  0  0  0  0  0
   -4.0676   -0.9693    0.5161 H   0  0  0  0  0  0  0  0  0  0  0  0
   -4.8953   -0.3468   -1.6113 H   0  0  0  0  0  0  0  0  0  0  0  0
   -3.3513    0.2839   -2.1738 H   0  0  0  0  0  0  0  0  0  0  0  0
   -4.8253   -1.5907   -3.8398 H   0  0  0  0  0  0  0  0  0  0  0  0
   -4.2393   -3.7470   -4.8941 H   0  0  0  0  0  0  0  0  0  0  0  0
   -2.5374   -5.2194   -3.8500 H   0  0  0  0  0  0  0  0  0  0  0  0
   -1.4230   -4.5375   -1.7596 H   0  0  0  0  0  0  0  0  0  0  0  0
   -0.7364   -2.5321   -0.3615 H   0  0  0  0  0  0  0  0  0  0  0  0
   -2.2189   -2.9515    0.4907 H   0  0  0  0  0  0  0  0  0  0  0  0
  1  2  1  0
  2  3  2  0
  3  4  1  0
  4  5  2  0
  5  6  1  0
  6  7  2  0
  7  8  1  0
  8  9  2  0
  8 10  2  0
  8 11  1  0
 11 12  1  0
 12 13  2  0
 13 14  1  0
 14 15  2  0
 15 16  1  0
 16 17  2  0
 17 18  1  0
 18 19  2  0
 19 20  1  0
 20 21  2  0
 21 22  1  0
 22 23  1  0
 23 24  1  0
 24 25  1  0
 25 26  2  0
 26 27  1  0
 27 28  2  0
 28 29  1  0
 29 30  2  0
 30 31  1  0
  7  2  1  0
 21 12  1  0
 31 22  1  0
 19 14  1  0
 30 25  1  0
  1 32  1  0
  1 33  1  0
  1 34  1  0
  3 35  1  0
  4 36  1  0
  5 37  1  0
  6 38  1  0
 11 39  1  0
 15 40  1  0
 16 41  1  0
 17 42  1  0
 18 43  1  0
 23 44  1  0
 23 45  1  0
 24 46  1  0
 24 47  1  0
 26 48  1  0
 27 49  1  0
 28 50  1  0
 29 51  1  0
 31 52  1  0
 31 53  1  0
M  END
$$$$
