
     RDKit          3D

 43 45  0  0  0  0  0  0  0  0999 V2000
    6.7121   -1.3288    1.4273 C   0  0  0  0  0  0  0  0  0  0  0  0
    5.8139   -0.7408    0.3786 C   0  0  0  0  0  0  0  0  0  0  0  0
    6.3522   -0.2370   -0.8077 C   0  0  0  0  0  0  0  0  0  0  0  0
    5.5224    0.3433   -1.7666 C   0  0  0  0  0  0  0  0  0  0  0  0
    4.1405    0.4365   -1.5516 C   0  0  0  0  0  0  0  0  0  0  0  0
    3.2638    1.0695   -2.5975 C   0  0  0  0  0  0  0  0  0  0  0  0
    3.5924   -0.0574   -0.3546 C   0  0  0  0  0  0  0  0  0  0  0  0
    2.2362    0.0911   -0.2212 O   0  0  0  0  0  0  0  0  0  0  0  0
    1.6121   -0.5406    0.8923 C   0  0  0  0  0  0  0  0  0  0  0  0
    0.1577   -0.2862    0.7726 C   0  0  0  0  0  0  0  0  0  0  0  0
   -0.6088    0.7349    0.2689 C   0  0  0  0  0  0  0  0  0  0  0  0
   -1.9566    0.3361    0.4951 C   0  0  0  0  0  0  0  0  0  0  0  0
   -3.1486    1.1272    0.1382 C   0  0  0  0  0  0  0  0  0  0  0  0
   -2.9998    2.2906   -0.2437 O   0  0  0  0  0  0  0  0  0  0  0  0
   -4.4395    0.5788    0.2270 N   0  0  0  0  0  0  0  0  0  0  0  0
   -5.5444    1.4190   -0.2347 C   0  0  0  0  0  0  0  0  0  0  0  0
   -6.8783    0.9739    0.3520 C   0  0  0  0  0  0  0  0  0  0  0  0
   -7.1349   -0.4143    0.0567 N   0  0  0  0  0  0  0  0  0  0  0  0
   -6.1505   -1.3601    0.1708 C   0  0  0  0  0  0  0  0  0  0  0  0
   -6.4452   -2.5535    0.1573 O   0  0  0  0  0  0  0  0  0  0  0  0
   -4.7009   -0.8674    0.3337 C   0  0  0  0  0  0  0  0  0  0  0  0
   -1.9795   -0.8531    1.1192 N   0  0  0  0  0  0  0  0  0  0  0  0
   -0.6653   -1.2384    1.2834 O   0  0  0  0  0  0  0  0  0  0  0  0
    4.4330   -0.6352    0.6038 C   0  0  0  0  0  0  0  0  0  0  0  0
    7.5859   -1.8057    0.9712 H   0  0  0  0  0  0  0  0  0  0  0  0
    6.1876   -2.0981    2.0047 H   0  0  0  0  0  0  0  0  0  0  0  0
    7.0531   -0.5443    2.1109 H   0  0  0  0  0  0  0  0  0  0  0  0
    7.4225   -0.2918   -0.9941 H   0  0  0  0  0  0  0  0  0  0  0  0
    5.9627    0.7244   -2.6850 H   0  0  0  0  0  0  0  0  0  0  0  0
    3.8372    1.3481   -3.4879 H   0  0  0  0  0  0  0  0  0  0  0  0
    2.4835    0.3695   -2.9140 H   0  0  0  0  0  0  0  0  0  0  0  0
    2.7992    1.9778   -2.2016 H   0  0  0  0  0  0  0  0  0  0  0  0
    1.9698   -0.1053    1.8322 H   0  0  0  0  0  0  0  0  0  0  0  0
    1.8046   -1.6195    0.8734 H   0  0  0  0  0  0  0  0  0  0  0  0
   -0.2600    1.6446   -0.1998 H   0  0  0  0  0  0  0  0  0  0  0  0
   -5.5642    1.3496   -1.3302 H   0  0  0  0  0  0  0  0  0  0  0  0
   -5.3604    2.4664    0.0307 H   0  0  0  0  0  0  0  0  0  0  0  0
   -7.7020    1.5657   -0.0585 H   0  0  0  0  0  0  0  0  0  0  0  0
   -6.8766    1.0819    1.4422 H   0  0  0  0  0  0  0  0  0  0  0  0
   -8.0797   -0.7793    0.0695 H   0  0  0  0  0  0  0  0  0  0  0  0
   -4.1015   -1.3762   -0.4290 H   0  0  0  0  0  0  0  0  0  0  0  0
   -4.3881   -1.1869    1.3326 H   0  0  0  0  0  0  0  0  0  0  0  0
    4.0427   -1.0088    1.5447 H   0  0  0  0  0  0  0  0  0  0  0  0
  1  2  1  0
  2  3  2  0
  3  4  1  0
  4  5  2  0
  5  6  1  0
  5  7  1  0
  7  8  1  0
  8  9  1  0
  9 10  1  0
 10 11  2  0
 11 12  1  0
 12 13  1  0
 13 14  2  0
 13 15  1  0
 15 16  1  0
 16 17  1  0
 17 18  1  0
 18 19  1  0
 19 20  2  0
 19 21  1  0
 12 22  2  0
 22 23  1  0
  7 24  2  0
 24  2  1  0
 23 10  1  0
 21 15  1  0
  1 25  1  0
  1 26  1  0
  1 27  1  0
  3 28  1  0
  4 29  1  0
  6 30  1  0
  6 31  1  0
  6 32  1  0
  9 33  1  0
  9 34  1  0
 11 35  1  0
 16 36  1  0
 16 37  1  0
 17 38  1  0
 17 39  1  0
 18 40  1  0
 21 41  1  0
 21 42  1  0
 24 43  1  0
M  END
$$$$
