
     RDKit          3D

 49 52  0  0  0  0  0  0  0  0999 V2000
   -3.9890   -5.2350   -0.7717 C   0  0  0  0  0  0  0  0  0  0  0  0
   -3.2053   -4.3308   -1.5399 O   0  0  0  0  0  0  0  0  0  0  0  0
   -2.7009   -3.2422   -0.8832 C   0  0  0  0  0  0  0  0  0  0  0  0
   -1.9298   -2.3885   -1.6734 C   0  0  0  0  0  0  0  0  0  0  0  0
   -1.3551   -1.2356   -1.1306 C   0  0  0  0  0  0  0  0  0  0  0  0
   -1.5373   -0.9151    0.2226 C   0  0  0  0  0  0  0  0  0  0  0  0
   -0.9370    0.3534    0.8355 C   0  0  0  0  0  0  0  0  0  0  0  0
    0.5127    0.4228    0.5491 N   0  0  0  0  0  0  0  0  0  0  0  0
    0.9071    1.2784   -0.3290 C   0  0  0  0  0  0  0  0  0  0  0  0
    2.1917    1.4444   -0.7848 N   0  0  0  0  0  0  0  0  0  0  0  0
    3.3681    0.7669   -0.3995 C   0  0  0  0  0  0  0  0  0  0  0  0
    4.5336    0.9703   -1.1588 C   0  0  0  0  0  0  0  0  0  0  0  0
    5.7447    0.3557   -0.8203 C   0  0  0  0  0  0  0  0  0  0  0  0
    5.8239   -0.4811    0.2936 C   0  0  0  0  0  0  0  0  0  0  0  0
    7.1243   -1.1179    0.6821 C   0  0  0  0  0  0  0  0  0  0  0  0
    4.6819   -0.6638    1.0761 C   0  0  0  0  0  0  0  0  0  0  0  0
    3.4725   -0.0452    0.7327 C   0  0  0  0  0  0  0  0  0  0  0  0
    0.0375    2.1501   -0.9104 N   0  0  0  0  0  0  0  0  0  0  0  0
   -1.2334    2.3783   -0.4937 C   0  0  0  0  0  0  0  0  0  0  0  0
   -1.9017    3.3872   -0.9673 N   0  0  0  0  0  0  0  0  0  0  0  0
   -3.1619    3.6041   -0.4710 C   0  0  0  0  0  0  0  0  0  0  0  0
   -3.9056    4.7560   -1.0839 C   0  0  0  0  0  0  0  0  0  0  0  0
   -3.7089    2.8664    0.5018 C   0  0  0  0  0  0  0  0  0  0  0  0
   -2.9356    1.7444    1.0576 C   0  0  0  0  0  0  0  0  0  0  0  0
   -3.4078    1.0969    1.9880 O   0  0  0  0  0  0  0  0  0  0  0  0
   -1.7130    1.5282    0.4674 N   0  0  0  0  0  0  0  0  0  0  0  0
   -2.3178   -1.7783    1.0081 C   0  0  0  0  0  0  0  0  0  0  0  0
   -2.8942   -2.9315    0.4615 C   0  0  0  0  0  0  0  0  0  0  0  0
   -4.3082   -6.0460   -1.4335 H   0  0  0  0  0  0  0  0  0  0  0  0
   -4.8900   -4.7468   -0.3856 H   0  0  0  0  0  0  0  0  0  0  0  0
   -3.4006   -5.6787    0.0382 H   0  0  0  0  0  0  0  0  0  0  0  0
   -1.7732   -2.6236   -2.7232 H   0  0  0  0  0  0  0  0  0  0  0  0
   -0.7588   -0.5959   -1.7748 H   0  0  0  0  0  0  0  0  0  0  0  0
   -1.0106    0.2629    1.9274 H   0  0  0  0  0  0  0  0  0  0  0  0
    2.2898    1.9002   -1.6802 H   0  0  0  0  0  0  0  0  0  0  0  0
    4.5165    1.6158   -2.0334 H   0  0  0  0  0  0  0  0  0  0  0  0
    6.6241    0.5380   -1.4337 H   0  0  0  0  0  0  0  0  0  0  0  0
    7.6788   -0.4567    1.3551 H   0  0  0  0  0  0  0  0  0  0  0  0
    6.9551   -2.0754    1.1861 H   0  0  0  0  0  0  0  0  0  0  0  0
    7.7393   -1.3206   -0.2010 H   0  0  0  0  0  0  0  0  0  0  0  0
    4.7178   -1.2889    1.9658 H   0  0  0  0  0  0  0  0  0  0  0  0
    2.6203   -0.2154    1.3835 H   0  0  0  0  0  0  0  0  0  0  0  0
    0.4008    2.8933   -1.4860 H   0  0  0  0  0  0  0  0  0  0  0  0
   -4.8996    4.8881   -0.6436 H   0  0  0  0  0  0  0  0  0  0  0  0
   -4.0347    4.5941   -2.1592 H   0  0  0  0  0  0  0  0  0  0  0  0
   -3.3485    5.6875   -0.9386 H   0  0  0  0  0  0  0  0  0  0  0  0
   -4.6960    3.0378    0.9080 H   0  0  0  0  0  0  0  0  0  0  0  0
   -2.4955   -1.5497    2.0581 H   0  0  0  0  0  0  0  0  0  0  0  0
   -3.4905   -3.5585    1.1154 H   0  0  0  0  0  0  0  0  0  0  0  0
  1  2  1  0
  2  3  1  0
  3  4  2  0
  4  5  1  0
  5  6  2  0
  6  7  1  0
  7  8  1  0
  8  9  2  0
  9 10  1  0
 10 11  1  0
 11 12  2  0
 12 13  1  0
 13 14  2  0
 14 15  1  0
 14 16  1  0
 16 17  2  0
  9 18  1  0
 18 19  1  0
 19 20  2  0
 20 21  1  0
 21 22  1  0
 21 23  2  0
 23 24  1  0
 24 25  2  0
 24 26  1  0
  6 27  1  0
 27 28  2  0
 28  3  1  0
 26  7  1  0
 17 11  1  0
 26 19  1  0
  1 29  1  0
  1 30  1  0
  1 31  1  0
  4 32  1  0
  5 33  1  0
  7 34  1  0
 10 35  1  0
 12 36  1  0
 13 37  1  0
 15 38  1  0
 15 39  1  0
 15 40  1  0
 16 41  1  0
 17 42  1  0
 18 43  1  0
 22 44  1  0
 22 45  1  0
 22 46  1  0
 23 47  1  0
 27 48  1  0
 28 49  1  0
M  END
$$$$
