
     RDKit          3D

 41 42  0  0  0  0  0  0  0  0999 V2000
   -6.1035   -2.3818   -0.0253 C   0  0  0  0  0  0  0  0  0  0  0  0
   -5.6808   -1.1361   -0.5657 O   0  0  0  0  0  0  0  0  0  0  0  0
   -4.8332   -0.3851    0.2004 C   0  0  0  0  0  0  0  0  0  0  0  0
   -4.2968   -0.7538    1.4334 C   0  0  0  0  0  0  0  0  0  0  0  0
   -3.4379    0.1137    2.1158 C   0  0  0  0  0  0  0  0  0  0  0  0
   -3.1056    1.3625    1.5740 C   0  0  0  0  0  0  0  0  0  0  0  0
   -2.1486    2.2797    2.3001 C   0  0  0  0  0  0  0  0  0  0  0  0
   -0.7081    1.8200    2.2567 C   0  0  0  0  0  0  0  0  0  0  0  0
    0.0376    1.8662    3.2298 O   0  0  0  0  0  0  0  0  0  0  0  0
   -0.3899    1.4078    0.9868 O   0  0  0  0  0  0  0  0  0  0  0  0
    0.9692    1.0572    0.9050 N   0  0  0  0  0  0  0  0  0  0  0  0
    1.2428    0.5288   -0.2509 C   0  0  0  0  0  0  0  0  0  0  0  0
    0.2939    0.3187   -1.2283 N   0  0  0  0  0  0  0  0  0  0  0  0
    2.6569    0.1139   -0.5161 C   0  0  0  0  0  0  0  0  0  0  0  0
    3.1285   -0.0061   -1.8282 C   0  0  0  0  0  0  0  0  0  0  0  0
    4.4529   -0.3913   -2.0714 C   0  0  0  0  0  0  0  0  0  0  0  0
    5.3132   -0.6603   -1.0059 C   0  0  0  0  0  0  0  0  0  0  0  0
    6.6213   -1.0446   -1.1062 O   0  0  0  0  0  0  0  0  0  0  0  0
    7.1884   -1.0657   -2.4103 C   0  0  0  0  0  0  0  0  0  0  0  0
    4.8391   -0.5389    0.3031 C   0  0  0  0  0  0  0  0  0  0  0  0
    3.5210   -0.1475    0.5512 C   0  0  0  0  0  0  0  0  0  0  0  0
   -3.6442    1.7273    0.3347 C   0  0  0  0  0  0  0  0  0  0  0  0
   -4.5004    0.8577   -0.3427 C   0  0  0  0  0  0  0  0  0  0  0  0
   -6.6362   -2.2441    0.9213 H   0  0  0  0  0  0  0  0  0  0  0  0
   -5.2577   -3.0665    0.0911 H   0  0  0  0  0  0  0  0  0  0  0  0
   -6.8012   -2.8335   -0.7374 H   0  0  0  0  0  0  0  0  0  0  0  0
   -4.5237   -1.7095    1.8932 H   0  0  0  0  0  0  0  0  0  0  0  0
   -3.0276   -0.1955    3.0764 H   0  0  0  0  0  0  0  0  0  0  0  0
   -2.4612    2.3518    3.3498 H   0  0  0  0  0  0  0  0  0  0  0  0
   -2.1910    3.2931    1.8840 H   0  0  0  0  0  0  0  0  0  0  0  0
   -0.6483    0.3937   -0.8561 H   0  0  0  0  0  0  0  0  0  0  0  0
    0.4116   -0.5373   -1.7589 H   0  0  0  0  0  0  0  0  0  0  0  0
    2.4839    0.2245   -2.6722 H   0  0  0  0  0  0  0  0  0  0  0  0
    4.7807   -0.4642   -3.1029 H   0  0  0  0  0  0  0  0  0  0  0  0
    6.7000   -1.8175   -3.0401 H   0  0  0  0  0  0  0  0  0  0  0  0
    7.1501   -0.0741   -2.8747 H   0  0  0  0  0  0  0  0  0  0  0  0
    8.2420   -1.3470   -2.3128 H   0  0  0  0  0  0  0  0  0  0  0  0
    5.5044   -0.7417    1.1391 H   0  0  0  0  0  0  0  0  0  0  0  0
    3.1772   -0.0499    1.5786 H   0  0  0  0  0  0  0  0  0  0  0  0
   -3.4033    2.6878   -0.1160 H   0  0  0  0  0  0  0  0  0  0  0  0
   -4.9157    1.1522   -1.3027 H   0  0  0  0  0  0  0  0  0  0  0  0
  1  2  1  0
  2  3  1  0
  3  4  2  0
  4  5  1  0
  5  6  2  0
  6  7  1  0
  7  8  1  0
  8  9  2  0
  8 10  1  0
 10 11  1  0
 11 12  2  3
 12 13  1  0
 12 14  1  0
 14 15  2  0
 15 16  1  0
 16 17  2  0
 17 18  1  0
 18 19  1  0
 17 20  1  0
 20 21  2  0
  6 22  1  0
 22 23  2  0
 23  3  1  0
 21 14  1  0
  1 24  1  0
  1 25  1  0
  1 26  1  0
  4 27  1  0
  5 28  1  0
  7 29  1  0
  7 30  1  0
 13 31  1  0
 13 32  1  0
 15 33  1  0
 16 34  1  0
 19 35  1  0
 19 36  1  0
 19 37  1  0
 20 38  1  0
 21 39  1  0
 22 40  1  0
 23 41  1  0
M  END
$$$$
