
     RDKit          3D

 46 49  0  0  0  0  0  0  0  0999 V2000
    6.4457   -0.5868    0.5244 N   0  0  0  0  0  0  0  0  0  0  0  0
    5.7302   -0.3854    2.0367 S   0  0  0  0  0  6  0  0  0  0  0  0
    5.9259   -1.6384    2.7290 O   0  0  0  0  0  0  0  0  0  0  0  0
    6.1756    0.8778    2.5746 O   0  0  0  0  0  0  0  0  0  0  0  0
    4.0206   -0.2396    1.5987 C   0  0  0  0  0  0  0  0  0  0  0  0
    3.5009    1.0101    1.2665 C   0  0  0  0  0  0  0  0  0  0  0  0
    2.1498    1.1265    0.9170 C   0  0  0  0  0  0  0  0  0  0  0  0
    1.2929    0.0129    0.8963 C   0  0  0  0  0  0  0  0  0  0  0  0
   -0.0521    0.1097    0.5435 N   0  0  0  0  0  0  0  0  0  0  0  0
   -0.8637   -0.9882    0.5754 N   0  0  0  0  0  0  0  0  0  0  0  0
   -2.0832   -0.5710    0.4182 C   0  0  0  0  0  0  0  0  0  0  0  0
   -3.2504   -1.4832    0.3759 C   0  0  0  0  0  0  0  0  0  0  0  0
   -4.5596   -0.9947    0.2914 C   0  0  0  0  0  0  0  0  0  0  0  0
   -5.6383   -1.8843    0.2523 C   0  0  0  0  0  0  0  0  0  0  0  0
   -5.4082   -3.2587    0.2990 C   0  0  0  0  0  0  0  0  0  0  0  0
   -6.8692   -4.4563    0.2459 Br  0  0  0  0  0  0  0  0  0  0  0  0
   -4.1095   -3.7546    0.3853 C   0  0  0  0  0  0  0  0  0  0  0  0
   -3.0313   -2.8667    0.4243 C   0  0  0  0  0  0  0  0  0  0  0  0
   -2.2377    0.9212    0.3142 C   0  0  0  0  0  0  0  0  0  0  0  0
   -0.7704    1.3450    0.2222 C   0  0  0  0  0  0  0  0  0  0  0  0
   -0.4433    1.8850   -1.1643 C   0  0  0  0  0  0  0  0  0  0  0  0
   -0.1834    1.0321   -2.2529 C   0  0  0  0  0  0  0  0  0  0  0  0
    0.0912    1.5550   -3.5175 C   0  0  0  0  0  0  0  0  0  0  0  0
    0.1008    2.9311   -3.7021 C   0  0  0  0  0  0  0  0  0  0  0  0
    0.3635    3.4331   -4.9157 F   0  0  0  0  0  0  0  0  0  0  0  0
   -0.1605    3.7955   -2.6464 C   0  0  0  0  0  0  0  0  0  0  0  0
   -0.4353    3.2752   -1.3801 C   0  0  0  0  0  0  0  0  0  0  0  0
    1.8540   -1.2295    1.2502 C   0  0  0  0  0  0  0  0  0  0  0  0
    3.2007   -1.3641    1.6046 C   0  0  0  0  0  0  0  0  0  0  0  0
    5.7989   -0.4275   -0.2475 H   0  0  0  0  0  0  0  0  0  0  0  0
    6.8646   -1.5174    0.4824 H   0  0  0  0  0  0  0  0  0  0  0  0
    4.1326    1.8963    1.2769 H   0  0  0  0  0  0  0  0  0  0  0  0
    1.7840    2.1157    0.6577 H   0  0  0  0  0  0  0  0  0  0  0  0
   -4.7686    0.0704    0.2581 H   0  0  0  0  0  0  0  0  0  0  0  0
   -6.6520   -1.4963    0.1868 H   0  0  0  0  0  0  0  0  0  0  0  0
   -3.9233   -4.8249    0.4237 H   0  0  0  0  0  0  0  0  0  0  0  0
   -2.0195   -3.2626    0.4927 H   0  0  0  0  0  0  0  0  0  0  0  0
   -2.6961    1.2921    1.2372 H   0  0  0  0  0  0  0  0  0  0  0  0
   -2.8437    1.2134   -0.5477 H   0  0  0  0  0  0  0  0  0  0  0  0
   -0.5686    2.1131    0.9797 H   0  0  0  0  0  0  0  0  0  0  0  0
   -0.1843   -0.0488   -2.1168 H   0  0  0  0  0  0  0  0  0  0  0  0
    0.2982    0.8972   -4.3555 H   0  0  0  0  0  0  0  0  0  0  0  0
   -0.1487    4.8674   -2.8168 H   0  0  0  0  0  0  0  0  0  0  0  0
   -0.6406    3.9637   -0.5627 H   0  0  0  0  0  0  0  0  0  0  0  0
    1.2250   -2.1182    1.2563 H   0  0  0  0  0  0  0  0  0  0  0  0
    3.5864   -2.3423    1.8814 H   0  0  0  0  0  0  0  0  0  0  0  0
  1  2  1  0
  2  3  2  0
  2  4  2  0
  2  5  1  0
  5  6  2  0
  6  7  1  0
  7  8  2  0
  8  9  1  0
  9 10  1  0
 10 11  2  0
 11 12  1  0
 12 13  2  0
 13 14  1  0
 14 15  2  0
 15 16  1  0
 15 17  1  0
 17 18  2  0
 11 19  1  0
 19 20  1  0
 20 21  1  0
 21 22  2  0
 22 23  1  0
 23 24  2  0
 24 25  1  0
 24 26  1  0
 26 27  2  0
  8 28  1  0
 28 29  2  0
 29  5  1  0
 20  9  1  0
 27 21  1  0
 18 12  1  0
  1 30  1  0
  1 31  1  0
  6 32  1  0
  7 33  1  0
 13 34  1  0
 14 35  1  0
 17 36  1  0
 18 37  1  0
 19 38  1  0
 19 39  1  0
 20 40  1  0
 22 41  1  0
 23 42  1  0
 26 43  1  0
 27 44  1  0
 28 45  1  0
 29 46  1  0
M  END
$$$$
