
     RDKit          3D

 47 49  0  0  0  0  0  0  0  0999 V2000
    0.6454    1.6315    2.4986 C   0  0  0  0  0  0  0  0  0  0  0  0
   -0.2093    0.4486    2.3673 N   0  0  0  0  0  0  0  0  0  0  0  0
   -1.0428    0.1737    3.5382 C   0  0  0  0  0  0  0  0  0  0  0  0
   -0.1068   -0.4562    1.2663 C   0  0  0  0  0  0  0  0  0  0  0  0
   -1.3393   -1.3350    0.9813 C   0  0  0  0  0  0  0  0  0  0  0  0
   -2.1662   -0.8064   -0.1200 N   0  0  0  0  0  0  0  0  0  0  0  0
   -3.1365   -1.8318   -0.5624 C   0  0  0  0  0  0  0  0  0  0  0  0
   -4.0255   -1.3405   -1.7177 C   0  0  0  0  0  0  0  0  0  0  0  0
   -4.6516   -0.0559   -1.4199 N   0  0  0  0  0  0  0  0  0  0  0  0
   -5.7851    0.3131   -2.1137 C   0  0  0  0  0  0  0  0  0  0  0  0
   -6.4326   -0.4041   -2.8651 O   0  0  0  0  0  0  0  0  0  0  0  0
   -3.7647    0.9647   -0.8752 C   0  0  0  0  0  0  0  0  0  0  0  0
   -2.8844    0.4246    0.2669 C   0  0  0  0  0  0  0  0  0  0  0  0
    0.9818   -0.5721    0.4600 C   0  0  0  0  0  0  0  0  0  0  0  0
    2.1495    0.1536    0.5914 N   0  0  0  0  0  0  0  0  0  0  0  0
    2.8760   -0.2605   -0.3931 C   0  0  0  0  0  0  0  0  0  0  0  0
    4.2329    0.1925   -0.7376 C   0  0  0  0  0  0  0  0  0  0  0  0
    4.8475    1.1586    0.0688 C   0  0  0  0  0  0  0  0  0  0  0  0
    6.1342    1.6080   -0.2335 C   0  0  0  0  0  0  0  0  0  0  0  0
    6.8098    1.0952   -1.3403 C   0  0  0  0  0  0  0  0  0  0  0  0
    6.2020    0.1330   -2.1467 C   0  0  0  0  0  0  0  0  0  0  0  0
    4.9149   -0.3199   -1.8482 C   0  0  0  0  0  0  0  0  0  0  0  0
    2.3599   -1.2104   -1.1982 O   0  0  0  0  0  0  0  0  0  0  0  0
    1.1213   -1.5058   -0.7101 C   0  0  0  0  0  0  0  0  0  0  0  0
    0.3844   -2.3643   -1.1505 O   0  0  0  0  0  0  0  0  0  0  0  0
    1.6154    1.3605    2.9272 H   0  0  0  0  0  0  0  0  0  0  0  0
    0.7894    2.1282    1.5333 H   0  0  0  0  0  0  0  0  0  0  0  0
    0.1843    2.3785    3.1551 H   0  0  0  0  0  0  0  0  0  0  0  0
   -0.9604   -0.8767    3.8377 H   0  0  0  0  0  0  0  0  0  0  0  0
   -2.0899    0.4078    3.3232 H   0  0  0  0  0  0  0  0  0  0  0  0
   -0.7387    0.7711    4.4051 H   0  0  0  0  0  0  0  0  0  0  0  0
   -0.9983   -2.3534    0.7588 H   0  0  0  0  0  0  0  0  0  0  0  0
   -1.9574   -1.4693    1.8761 H   0  0  0  0  0  0  0  0  0  0  0  0
   -3.7779   -2.1273    0.2788 H   0  0  0  0  0  0  0  0  0  0  0  0
   -2.6045   -2.7289   -0.9008 H   0  0  0  0  0  0  0  0  0  0  0  0
   -3.4276   -1.2086   -2.6281 H   0  0  0  0  0  0  0  0  0  0  0  0
   -4.7984   -2.0856   -1.9369 H   0  0  0  0  0  0  0  0  0  0  0  0
   -6.0977    1.3483   -1.8970 H   0  0  0  0  0  0  0  0  0  0  0  0
   -3.1380    1.3257   -1.7002 H   0  0  0  0  0  0  0  0  0  0  0  0
   -4.3606    1.8140   -0.5223 H   0  0  0  0  0  0  0  0  0  0  0  0
   -3.5191    0.2320    1.1419 H   0  0  0  0  0  0  0  0  0  0  0  0
   -2.1779    1.2163    0.5374 H   0  0  0  0  0  0  0  0  0  0  0  0
    4.3297    1.5648    0.9353 H   0  0  0  0  0  0  0  0  0  0  0  0
    6.6093    2.3578    0.3945 H   0  0  0  0  0  0  0  0  0  0  0  0
    7.8121    1.4459   -1.5751 H   0  0  0  0  0  0  0  0  0  0  0  0
    6.7314   -0.2650   -3.0093 H   0  0  0  0  0  0  0  0  0  0  0  0
    4.4599   -1.0700   -2.4905 H   0  0  0  0  0  0  0  0  0  0  0  0
  1  2  1  0
  2  3  1  0
  2  4  1  0
  4  5  1  0
  5  6  1  0
  6  7  1  0
  7  8  1  0
  8  9  1  0
  9 10  1  0
 10 11  2  0
  9 12  1  0
 12 13  1  0
  4 14  2  3
 14 15  1  0
 15 16  2  0
 16 17  1  0
 17 18  2  0
 18 19  1  0
 19 20  2  0
 20 21  1  0
 21 22  2  0
 16 23  1  0
 23 24  1  0
 24 25  2  0
 13  6  1  0
 24 14  1  0
 22 17  1  0
  1 26  1  0
  1 27  1  0
  1 28  1  0
  3 29  1  0
  3 30  1  0
  3 31  1  0
  5 32  1  0
  5 33  1  0
  7 34  1  0
  7 35  1  0
  8 36  1  0
  8 37  1  0
 10 38  1  0
 12 39  1  0
 12 40  1  0
 13 41  1  0
 13 42  1  0
 18 43  1  0
 19 44  1  0
 20 45  1  0
 21 46  1  0
 22 47  1  0
M  END
$$$$
