
     RDKit          3D

 37 40  0  0  0  0  0  0  0  0999 V2000
   -3.6352    3.8684   -0.5393 C   0  0  0  0  0  0  0  0  0  0  0  0
   -2.7210    3.1494    0.2794 O   0  0  0  0  0  0  0  0  0  0  0  0
   -2.6754    1.7943    0.1116 C   0  0  0  0  0  0  0  0  0  0  0  0
   -3.4382    1.0516   -0.7778 C   0  0  0  0  0  0  0  0  0  0  0  0
   -3.2803   -0.3375   -0.8345 C   0  0  0  0  0  0  0  0  0  0  0  0
   -2.3771   -1.0145   -0.0276 C   0  0  0  0  0  0  0  0  0  0  0  0
   -2.3010   -2.3490   -0.1531 N   0  0  0  0  0  0  0  0  0  0  0  0
   -1.4281   -3.0305    0.6201 C   0  0  0  0  0  0  0  0  0  0  0  0
   -1.3671   -4.5176    0.4419 C   0  0  0  0  0  0  0  0  0  0  0  0
   -0.6097   -2.4063    1.5445 C   0  0  0  0  0  0  0  0  0  0  0  0
   -0.6806   -1.0178    1.6754 C   0  0  0  0  0  0  0  0  0  0  0  0
    0.3987   -0.2581    2.8953 S   0  0  0  0  0  0  0  0  0  0  0  0
    1.7303    0.1514    1.8264 C   0  0  0  0  0  0  0  0  0  0  0  0
    2.1694   -0.6814    0.9113 N   0  0  0  0  0  0  0  0  0  0  0  0
    3.2167   -0.1002    0.2178 C   0  0  0  0  0  0  0  0  0  0  0  0
    3.9275   -0.6870   -0.8487 C   0  0  0  0  0  0  0  0  0  0  0  0
    4.9705    0.0163   -1.4603 C   0  0  0  0  0  0  0  0  0  0  0  0
    5.3121    1.2920   -1.0225 C   0  0  0  0  0  0  0  0  0  0  0  0
    4.6231    1.8966    0.0336 C   0  0  0  0  0  0  0  0  0  0  0  0
    3.5768    1.1816    0.6398 C   0  0  0  0  0  0  0  0  0  0  0  0
    2.5540    1.6471    1.9443 S   0  0  0  0  0  0  0  0  0  0  0  0
   -1.5904   -0.2781    0.8796 C   0  0  0  0  0  0  0  0  0  0  0  0
   -1.7614    1.1305    0.9326 C   0  0  0  0  0  0  0  0  0  0  0  0
   -4.6676    3.5621   -0.3409 H   0  0  0  0  0  0  0  0  0  0  0  0
   -3.5481    4.9293   -0.2855 H   0  0  0  0  0  0  0  0  0  0  0  0
   -3.3863    3.7580   -1.5999 H   0  0  0  0  0  0  0  0  0  0  0  0
   -4.1641    1.5098   -1.4405 H   0  0  0  0  0  0  0  0  0  0  0  0
   -3.8844   -0.9115   -1.5343 H   0  0  0  0  0  0  0  0  0  0  0  0
   -1.6171   -5.0218    1.3806 H   0  0  0  0  0  0  0  0  0  0  0  0
   -0.3634   -4.8198    0.1270 H   0  0  0  0  0  0  0  0  0  0  0  0
   -2.0780   -4.8483   -0.3221 H   0  0  0  0  0  0  0  0  0  0  0  0
    0.0843   -2.9898    2.1413 H   0  0  0  0  0  0  0  0  0  0  0  0
    3.6568   -1.6820   -1.1880 H   0  0  0  0  0  0  0  0  0  0  0  0
    5.5153   -0.4399   -2.2837 H   0  0  0  0  0  0  0  0  0  0  0  0
    6.1255    1.8280   -1.5075 H   0  0  0  0  0  0  0  0  0  0  0  0
    4.8906    2.8924    0.3737 H   0  0  0  0  0  0  0  0  0  0  0  0
   -1.1770    1.7324    1.6244 H   0  0  0  0  0  0  0  0  0  0  0  0
  1  2  1  0
  2  3  1  0
  3  4  2  0
  4  5  1  0
  5  6  2  0
  6  7  1  0
  7  8  2  0
  8  9  1  0
  8 10  1  0
 10 11  2  0
 11 12  1  0
 12 13  1  0
 13 14  2  0
 14 15  1  0
 15 16  2  0
 16 17  1  0
 17 18  2  0
 18 19  1  0
 19 20  2  0
 20 21  1  0
 11 22  1  0
 22 23  2  0
 23  3  1  0
 22  6  1  0
 21 13  1  0
 20 15  1  0
  1 24  1  0
  1 25  1  0
  1 26  1  0
  4 27  1  0
  5 28  1  0
  9 29  1  0
  9 30  1  0
  9 31  1  0
 10 32  1  0
 16 33  1  0
 17 34  1  0
 18 35  1  0
 19 36  1  0
 23 37  1  0
M  END
$$$$
