
     RDKit          3D

 45 47  0  0  0  0  0  0  0  0999 V2000
    5.8146    4.4464   -2.9338 C   0  0  0  0  0  0  0  0  0  0  0  0
    4.8718    3.8817   -1.9001 C   0  0  0  0  0  0  0  0  0  0  0  0
    5.1696    3.8910   -0.7110 O   0  0  0  0  0  0  0  0  0  0  0  0
    3.7227    3.3572   -2.4656 N   0  0  0  0  0  0  0  0  0  0  0  0
    2.6312    2.7652   -1.7970 C   0  0  0  0  0  0  0  0  0  0  0  0
    1.5860    2.2723   -2.5935 C   0  0  0  0  0  0  0  0  0  0  0  0
    0.4651    1.6708   -2.0138 C   0  0  0  0  0  0  0  0  0  0  0  0
    0.3907    1.5608   -0.6252 C   0  0  0  0  0  0  0  0  0  0  0  0
   -1.0185    0.7930    0.1438 S   0  0  0  0  0  6  0  0  0  0  0  0
   -1.4723    1.7130    1.1611 O   0  0  0  0  0  0  0  0  0  0  0  0
   -1.9114    0.3603   -0.9131 O   0  0  0  0  0  0  0  0  0  0  0  0
   -0.3522   -0.5745    0.8176 N   0  0  0  0  0  0  0  0  0  0  0  0
    0.2787   -1.5492   -0.0793 C   0  0  0  0  0  0  0  0  0  0  0  0
    0.6519   -2.6453    0.9197 C   0  0  0  0  0  0  0  0  0  0  0  0
   -0.1273   -2.3961    2.1578 N   0  0  0  0  0  0  0  0  0  0  0  0
   -0.6616   -1.2244    2.0177 C   0  0  0  0  0  0  0  0  0  0  0  0
   -1.6381   -0.5537    3.2611 S   0  0  0  0  0  0  0  0  0  0  0  0
   -3.2884   -0.7945    2.5557 C   0  0  0  0  0  0  0  0  0  0  0  0
   -3.5534   -2.1816    2.0219 C   0  0  0  0  0  0  0  0  0  0  0  0
   -3.7534   -2.3826    0.6455 C   0  0  0  0  0  0  0  0  0  0  0  0
   -3.9900   -3.6638    0.1446 C   0  0  0  0  0  0  0  0  0  0  0  0
   -4.0291   -4.7446    1.0169 C   0  0  0  0  0  0  0  0  0  0  0  0
   -4.2490   -5.9744    0.5338 F   0  0  0  0  0  0  0  0  0  0  0  0
   -3.8403   -4.5685    2.3818 C   0  0  0  0  0  0  0  0  0  0  0  0
   -3.6045   -3.2881    2.8861 C   0  0  0  0  0  0  0  0  0  0  0  0
    1.4150    2.0577    0.1831 C   0  0  0  0  0  0  0  0  0  0  0  0
    2.5338    2.6546   -0.4067 C   0  0  0  0  0  0  0  0  0  0  0  0
    5.2651    4.8823   -3.7736 H   0  0  0  0  0  0  0  0  0  0  0  0
    6.4185    5.2368   -2.4792 H   0  0  0  0  0  0  0  0  0  0  0  0
    6.4688    3.6506   -3.2990 H   0  0  0  0  0  0  0  0  0  0  0  0
    3.6552    3.3992   -3.4743 H   0  0  0  0  0  0  0  0  0  0  0  0
    1.6282    2.3516   -3.6775 H   0  0  0  0  0  0  0  0  0  0  0  0
   -0.3367    1.3015   -2.6494 H   0  0  0  0  0  0  0  0  0  0  0  0
    1.1651   -1.1622   -0.5864 H   0  0  0  0  0  0  0  0  0  0  0  0
   -0.4413   -1.9307   -0.8104 H   0  0  0  0  0  0  0  0  0  0  0  0
    0.4268   -3.6384    0.5188 H   0  0  0  0  0  0  0  0  0  0  0  0
    1.7205   -2.6072    1.1600 H   0  0  0  0  0  0  0  0  0  0  0  0
   -4.0274   -0.5741    3.3352 H   0  0  0  0  0  0  0  0  0  0  0  0
   -3.4536   -0.0491    1.7713 H   0  0  0  0  0  0  0  0  0  0  0  0
   -3.7287   -1.5432   -0.0477 H   0  0  0  0  0  0  0  0  0  0  0  0
   -4.1447   -3.8247   -0.9175 H   0  0  0  0  0  0  0  0  0  0  0  0
   -3.8716   -5.4275    3.0446 H   0  0  0  0  0  0  0  0  0  0  0  0
   -3.4471   -3.1598    3.9560 H   0  0  0  0  0  0  0  0  0  0  0  0
    1.3509    1.9909    1.2677 H   0  0  0  0  0  0  0  0  0  0  0  0
    3.3101    3.0332    0.2524 H   0  0  0  0  0  0  0  0  0  0  0  0
  1  2  1  0
  2  3  2  0
  2  4  1  0
  4  5  1  0
  5  6  2  0
  6  7  1  0
  7  8  2  0
  8  9  1  0
  9 10  2  0
  9 11  2  0
  9 12  1  0
 12 13  1  0
 13 14  1  0
 14 15  1  0
 15 16  2  0
 16 17  1  0
 17 18  1  0
 18 19  1  0
 19 20  2  0
 20 21  1  0
 21 22  2  0
 22 23  1  0
 22 24  1  0
 24 25  2  0
  8 26  1  0
 26 27  2  0
 27  5  1  0
 16 12  1  0
 25 19  1  0
  1 28  1  0
  1 29  1  0
  1 30  1  0
  4 31  1  0
  6 32  1  0
  7 33  1  0
 13 34  1  0
 13 35  1  0
 14 36  1  0
 14 37  1  0
 18 38  1  0
 18 39  1  0
 20 40  1  0
 21 41  1  0
 24 42  1  0
 25 43  1  0
 26 44  1  0
 27 45  1  0
M  END
$$$$
