
     RDKit          3D

 26 27  0  0  0  0  0  0  0  0999 V2000
    6.1332    0.4795   -0.3970 C   0  0  0  0  0  0  0  0  0  0  0  0
    4.7597    0.1208   -0.0078 C   0  0  0  0  0  0  0  0  0  0  0  0
    4.3367   -0.7161    0.9138 N   0  0  0  0  0  0  0  0  0  0  0  0
    2.9589   -0.6763    0.8633 N   0  0  0  0  0  0  0  0  0  0  0  0
    2.6362    0.1810   -0.0843 C   0  0  0  0  0  0  0  0  0  0  0  0
    1.0163    0.5943   -0.5482 S   0  0  0  0  0  0  0  0  0  0  0  0
    0.0821   -0.4529    0.6030 C   0  0  0  0  0  0  0  0  0  0  0  0
   -1.4074   -0.2842    0.4098 C   0  0  0  0  0  0  0  0  0  0  0  0
   -2.1013   -1.0928   -0.5051 C   0  0  0  0  0  0  0  0  0  0  0  0
   -3.4751   -0.9291   -0.6995 C   0  0  0  0  0  0  0  0  0  0  0  0
   -4.1618    0.0546    0.0227 C   0  0  0  0  0  0  0  0  0  0  0  0
   -5.6051    0.2312   -0.1791 N   0  0  0  0  0  4  0  0  0  0  0  0
   -6.1762    1.1131    0.4786 O   0  0  0  0  0  0  0  0  0  0  0  0
   -6.1692   -0.5126   -0.9945 O   0  0  0  0  0  1  0  0  0  0  0  0
   -3.4829    0.8732    0.9337 C   0  0  0  0  0  0  0  0  0  0  0  0
   -2.1091    0.7023    1.1216 C   0  0  0  0  0  0  0  0  0  0  0  0
    3.7399    0.7297   -0.6846 O   0  0  0  0  0  0  0  0  0  0  0  0
    6.8621   -0.0666    0.2091 H   0  0  0  0  0  0  0  0  0  0  0  0
    6.3046    1.5506   -0.2559 H   0  0  0  0  0  0  0  0  0  0  0  0
    6.3103    0.2345   -1.4484 H   0  0  0  0  0  0  0  0  0  0  0  0
    0.3463   -0.1982    1.6362 H   0  0  0  0  0  0  0  0  0  0  0  0
    0.3520   -1.5048    0.4522 H   0  0  0  0  0  0  0  0  0  0  0  0
   -1.5722   -1.8546   -1.0759 H   0  0  0  0  0  0  0  0  0  0  0  0
   -3.9891   -1.5691   -1.4139 H   0  0  0  0  0  0  0  0  0  0  0  0
   -4.0030    1.6445    1.4982 H   0  0  0  0  0  0  0  0  0  0  0  0
   -1.5860    1.3476    1.8259 H   0  0  0  0  0  0  0  0  0  0  0  0
  1  2  1  0
  2  3  2  0
  3  4  1  0
  4  5  2  0
  5  6  1  0
  6  7  1  0
  7  8  1  0
  8  9  2  0
  9 10  1  0
 10 11  2  0
 11 12  1  0
 12 13  2  0
 12 14  1  0
 11 15  1  0
 15 16  2  0
  5 17  1  0
 17  2  1  0
 16  8  1  0
  1 18  1  0
  1 19  1  0
  1 20  1  0
  7 21  1  0
  7 22  1  0
  9 23  1  0
 10 24  1  0
 15 25  1  0
 16 26  1  0
M  CHG  2  12   1  14  -1
M  END
$$$$
