
     RDKit          3D

 38 40  0  0  0  0  0  0  0  0999 V2000
   -2.9334    2.6690   -1.0005 C   0  0  0  0  0  0  0  0  0  0  0  0
   -3.5437    1.4098   -0.4841 C   0  0  0  0  0  0  0  0  0  0  0  0
   -4.8835    1.1883   -0.2289 C   0  0  0  0  0  0  0  0  0  0  0  0
   -5.0081   -0.0851    0.3483 C   0  0  0  0  0  0  0  0  0  0  0  0
   -3.7465   -0.6443    0.4201 C   0  0  0  0  0  0  0  0  0  0  0  0
   -3.4131   -2.0300    0.8621 C   0  0  0  0  0  0  0  0  0  0  0  0
   -2.8292    0.2786   -0.0855 N   0  0  0  0  0  0  0  0  0  0  0  0
   -1.4225    0.0999   -0.1794 C   0  0  0  0  0  0  0  0  0  0  0  0
   -0.7131    0.4930   -1.3084 C   0  0  0  0  0  0  0  0  0  0  0  0
    0.6681    0.2902   -1.3493 C   0  0  0  0  0  0  0  0  0  0  0  0
    1.3281   -0.2899   -0.2637 C   0  0  0  0  0  0  0  0  0  0  0  0
    2.7187   -0.5050   -0.3298 N   0  0  0  0  0  0  0  0  0  0  0  0
    3.4893    0.7498   -0.4733 C   0  0  0  0  0  0  0  0  0  0  0  0
    4.9877    0.4259   -0.6022 C   0  0  0  0  0  0  0  0  0  0  0  0
    5.4639   -0.3444    0.5124 O   0  0  0  0  0  0  0  0  0  0  0  0
    4.7311   -1.5779    0.6083 C   0  0  0  0  0  0  0  0  0  0  0  0
    3.2270   -1.3248    0.7939 C   0  0  0  0  0  0  0  0  0  0  0  0
    0.6357   -0.6840    0.8266 N   0  0  0  0  0  0  0  0  0  0  0  0
   -0.7052   -0.4796    0.8539 C   0  0  0  0  0  0  0  0  0  0  0  0
   -2.0040    2.9152   -0.4783 H   0  0  0  0  0  0  0  0  0  0  0  0
   -2.7399    2.5944   -2.0745 H   0  0  0  0  0  0  0  0  0  0  0  0
   -3.6162    3.5128   -0.8501 H   0  0  0  0  0  0  0  0  0  0  0  0
   -5.6850    1.8906   -0.4221 H   0  0  0  0  0  0  0  0  0  0  0  0
   -5.9274   -0.5657    0.6594 H   0  0  0  0  0  0  0  0  0  0  0  0
   -3.0744   -2.0344    1.9021 H   0  0  0  0  0  0  0  0  0  0  0  0
   -2.6484   -2.4871    0.2271 H   0  0  0  0  0  0  0  0  0  0  0  0
   -4.2998   -2.6715    0.8049 H   0  0  0  0  0  0  0  0  0  0  0  0
   -1.2085    0.9016   -2.1828 H   0  0  0  0  0  0  0  0  0  0  0  0
    1.2173    0.5528   -2.2473 H   0  0  0  0  0  0  0  0  0  0  0  0
    3.1848    1.3147   -1.3610 H   0  0  0  0  0  0  0  0  0  0  0  0
    3.3304    1.3810    0.4110 H   0  0  0  0  0  0  0  0  0  0  0  0
    5.1914   -0.1260   -1.5278 H   0  0  0  0  0  0  0  0  0  0  0  0
    5.5661    1.3546   -0.6336 H   0  0  0  0  0  0  0  0  0  0  0  0
    4.9230   -2.1760   -0.2906 H   0  0  0  0  0  0  0  0  0  0  0  0
    5.1242   -2.1300    1.4678 H   0  0  0  0  0  0  0  0  0  0  0  0
    3.0742   -0.7980    1.7453 H   0  0  0  0  0  0  0  0  0  0  0  0
    2.7124   -2.2924    0.8330 H   0  0  0  0  0  0  0  0  0  0  0  0
   -1.1714   -0.7761    1.7879 H   0  0  0  0  0  0  0  0  0  0  0  0
  1  2  1  0
  2  3  2  0
  3  4  1  0
  4  5  2  0
  5  6  1  0
  5  7  1  0
  7  8  1  0
  8  9  2  0
  9 10  1  0
 10 11  2  0
 11 12  1  0
 12 13  1  0
 13 14  1  0
 14 15  1  0
 15 16  1  0
 16 17  1  0
 11 18  1  0
 18 19  2  0
  7  2  1  0
 19  8  1  0
 17 12  1  0
  1 20  1  0
  1 21  1  0
  1 22  1  0
  3 23  1  0
  4 24  1  0
  6 25  1  0
  6 26  1  0
  6 27  1  0
  9 28  1  0
 10 29  1  0
 13 30  1  0
 13 31  1  0
 14 32  1  0
 14 33  1  0
 16 34  1  0
 16 35  1  0
 17 36  1  0
 17 37  1  0
 19 38  1  0
M  END
$$$$
