
     RDKit          3D

 59 63  0  0  0  0  0  0  0  0999 V2000
   -3.2981   -4.4799    2.3959 C   0  0  0  0  0  0  0  0  0  0  0  0
   -3.3761   -3.3423    1.4214 C   0  0  0  0  0  0  0  0  0  0  0  0
   -3.2075   -3.5680    0.0515 C   0  0  0  0  0  0  0  0  0  0  0  0
   -3.3066   -2.5117   -0.8568 C   0  0  0  0  0  0  0  0  0  0  0  0
   -3.5926   -1.2133   -0.4138 C   0  0  0  0  0  0  0  0  0  0  0  0
   -3.6588   -0.0696   -1.3933 C   0  0  0  0  0  0  0  0  0  0  0  0
   -2.3955    0.6298   -1.4537 N   0  0  0  0  0  0  0  0  0  0  0  0
   -1.3829    0.2047   -2.2847 C   0  0  0  0  0  0  0  0  0  0  0  0
   -1.5453   -0.6947   -3.1028 O   0  0  0  0  0  0  0  0  0  0  0  0
   -0.1107    0.8518   -2.0575 C   0  0  0  0  0  0  0  0  0  0  0  0
    0.1790    2.0574   -1.4383 C   0  0  0  0  0  0  0  0  0  0  0  0
    1.5887    2.2024   -1.4622 C   0  0  0  0  0  0  0  0  0  0  0  0
    2.4067    3.2766   -0.8911 C   0  0  0  0  0  0  0  0  0  0  0  0
    1.8424    4.5062   -0.5213 C   0  0  0  0  0  0  0  0  0  0  0  0
    2.6337    5.5135    0.0403 C   0  0  0  0  0  0  0  0  0  0  0  0
    3.9967    5.3038    0.2392 C   0  0  0  0  0  0  0  0  0  0  0  0
    4.5720    4.0891   -0.1250 C   0  0  0  0  0  0  0  0  0  0  0  0
    3.7821    3.0832   -0.6869 C   0  0  0  0  0  0  0  0  0  0  0  0
    2.1409    1.1632   -2.0990 N   0  0  0  0  0  0  0  0  0  0  0  0
    1.1208    0.3435   -2.4091 N   0  0  0  0  0  0  0  0  0  0  0  0
    1.4348   -0.9404   -3.0181 C   0  0  0  0  0  0  0  0  0  0  0  0
    1.6457   -2.1208   -2.0517 C   0  0  0  0  0  0  0  0  0  0  0  0
    0.8028   -2.1702   -0.7969 C   0  0  0  0  0  0  0  0  0  0  0  0
    1.7392   -1.4321    0.0987 C   0  0  0  0  0  0  0  0  0  0  0  0
    1.2852   -0.7084    1.2973 C   0  0  0  0  0  0  0  0  0  0  0  0
    2.1363    0.2080    1.9167 C   0  0  0  0  0  0  0  0  0  0  0  0
    1.6822    0.9333    3.0150 C   0  0  0  0  0  0  0  0  0  0  0  0
    0.3865    0.7161    3.4545 C   0  0  0  0  0  0  0  0  0  0  0  0
   -0.4657   -0.1609    2.8783 N   0  0  0  0  0  0  0  0  0  0  0  0
    0.0068   -0.8596    1.8150 C   0  0  0  0  0  0  0  0  0  0  0  0
    2.9763   -1.4735   -0.2849 N   0  0  0  0  0  0  0  0  0  0  0  0
    2.9940   -2.1261   -1.5426 O   0  0  0  0  0  0  0  0  0  0  0  0
   -3.7697   -0.9913    0.9576 C   0  0  0  0  0  0  0  0  0  0  0  0
   -3.6706   -2.0485    1.8656 C   0  0  0  0  0  0  0  0  0  0  0  0
   -2.5989   -5.2465    2.0456 H   0  0  0  0  0  0  0  0  0  0  0  0
   -2.9389   -4.1349    3.3711 H   0  0  0  0  0  0  0  0  0  0  0  0
   -4.2863   -4.9327    2.5221 H   0  0  0  0  0  0  0  0  0  0  0  0
   -2.9964   -4.5688   -0.3187 H   0  0  0  0  0  0  0  0  0  0  0  0
   -3.1555   -2.7061   -1.9176 H   0  0  0  0  0  0  0  0  0  0  0  0
   -3.9409   -0.4270   -2.3903 H   0  0  0  0  0  0  0  0  0  0  0  0
   -4.4216    0.6512   -1.0788 H   0  0  0  0  0  0  0  0  0  0  0  0
   -2.1495    1.1909   -0.6514 H   0  0  0  0  0  0  0  0  0  0  0  0
   -0.5352    2.7459   -1.0111 H   0  0  0  0  0  0  0  0  0  0  0  0
    0.7859    4.7055   -0.6742 H   0  0  0  0  0  0  0  0  0  0  0  0
    2.1857    6.4643    0.3174 H   0  0  0  0  0  0  0  0  0  0  0  0
    4.6119    6.0881    0.6725 H   0  0  0  0  0  0  0  0  0  0  0  0
    5.6354    3.9203    0.0231 H   0  0  0  0  0  0  0  0  0  0  0  0
    4.2467    2.1377   -0.9650 H   0  0  0  0  0  0  0  0  0  0  0  0
    0.6361   -1.1724   -3.7262 H   0  0  0  0  0  0  0  0  0  0  0  0
    2.3403   -0.7880   -3.6195 H   0  0  0  0  0  0  0  0  0  0  0  0
    1.5214   -3.0474   -2.6235 H   0  0  0  0  0  0  0  0  0  0  0  0
    0.7191   -3.1953   -0.4188 H   0  0  0  0  0  0  0  0  0  0  0  0
   -0.1893   -1.7392   -0.8924 H   0  0  0  0  0  0  0  0  0  0  0  0
    3.1424    0.3731    1.5364 H   0  0  0  0  0  0  0  0  0  0  0  0
    2.3243    1.6550    3.5080 H   0  0  0  0  0  0  0  0  0  0  0  0
   -0.0119    1.2590    4.3070 H   0  0  0  0  0  0  0  0  0  0  0  0
   -0.7060   -1.5605    1.3931 H   0  0  0  0  0  0  0  0  0  0  0  0
   -3.9801    0.0073    1.3341 H   0  0  0  0  0  0  0  0  0  0  0  0
   -3.8113   -1.8508    2.9265 H   0  0  0  0  0  0  0  0  0  0  0  0
  1  2  1  0
  2  3  2  0
  3  4  1  0
  4  5  2  0
  5  6  1  0
  6  7  1  0
  7  8  1  0
  8  9  2  0
  8 10  1  0
 10 11  2  0
 11 12  1  0
 12 13  1  0
 13 14  2  0
 14 15  1  0
 15 16  2  0
 16 17  1  0
 17 18  2  0
 12 19  2  0
 19 20  1  0
 20 21  1  0
 21 22  1  0
 22 23  1  0
 23 24  1  0
 24 25  1  0
 25 26  2  0
 26 27  1  0
 27 28  2  0
 28 29  1  0
 29 30  2  0
 24 31  2  0
 31 32  1  0
  5 33  1  0
 33 34  2  0
 34  2  1  0
 20 10  1  0
 32 22  1  0
 18 13  1  0
 30 25  1  0
  1 35  1  0
  1 36  1  0
  1 37  1  0
  3 38  1  0
  4 39  1  0
  6 40  1  0
  6 41  1  0
  7 42  1  0
 11 43  1  0
 14 44  1  0
 15 45  1  0
 16 46  1  0
 17 47  1  0
 18 48  1  0
 21 49  1  0
 21 50  1  0
 22 51  1  0
 23 52  1  0
 23 53  1  0
 26 54  1  0
 27 55  1  0
 28 56  1  0
 30 57  1  0
 33 58  1  0
 34 59  1  0
M  END
$$$$
