
     RDKit          3D

 57 60  0  0  0  0  0  0  0  0999 V2000
   -7.7404    0.9098   -1.9972 C   0  0  0  0  0  0  0  0  0  0  0  0
   -6.2805    0.6899   -1.7301 C   0  0  0  0  0  0  0  0  0  0  0  0
   -5.7735   -0.6076   -1.5924 C   0  0  0  0  0  0  0  0  0  0  0  0
   -4.4090   -0.8178   -1.3780 C   0  0  0  0  0  0  0  0  0  0  0  0
   -3.5335    0.2713   -1.3115 C   0  0  0  0  0  0  0  0  0  0  0  0
   -2.1396    0.0520   -1.1054 N   0  0  0  0  0  0  0  0  0  0  0  0
   -1.1064    0.6487   -1.8269 C   0  0  0  0  0  0  0  0  0  0  0  0
   -1.2946    1.5756   -2.9783 C   0  0  0  0  0  0  0  0  0  0  0  0
    0.0883    0.1288   -1.3682 C   0  0  0  0  0  0  0  0  0  0  0  0
   -0.1968   -0.7833   -0.3275 C   0  0  0  0  0  0  0  0  0  0  0  0
    0.7735   -1.5305    0.4497 C   0  0  0  0  0  0  0  0  0  0  0  0
    0.7854   -2.7246    0.0362 O   0  0  0  0  0  1  0  0  0  0  0  0
    1.4976   -0.9190    1.4312 C   0  0  0  0  0  0  0  0  0  0  0  0
    1.2337    0.5376    1.7184 C   0  0  0  0  0  0  0  0  0  0  0  0
    0.0217    1.0864    2.7692 S   0  0  0  0  0  0  0  0  0  0  0  0
    2.0898    1.5104    1.2564 N   0  0  0  0  0  0  0  0  0  0  0  0
    3.2336    1.5024    0.4326 C   0  0  0  0  0  0  0  0  0  0  0  0
    3.9253    2.7240    0.3454 C   0  0  0  0  0  0  0  0  0  0  0  0
    5.0943    2.8418   -0.4104 C   0  0  0  0  0  0  0  0  0  0  0  0
    5.5787    1.7375   -1.0957 C   0  0  0  0  0  0  0  0  0  0  0  0
    6.7090    1.8621   -1.8054 F   0  0  0  0  0  0  0  0  0  0  0  0
    4.8959    0.5259   -1.0413 C   0  0  0  0  0  0  0  0  0  0  0  0
    5.4912   -0.8484   -1.8925 Cl  0  0  0  0  0  0  0  0  0  0  0  0
    3.7222    0.4079   -0.2840 C   0  0  0  0  0  0  0  0  0  0  0  0
    2.5873   -1.6659    2.2400 N   0  0  0  0  0  4  0  0  0  0  0  0
    3.1081   -2.8520    1.8346 C   0  0  0  0  0  0  0  0  0  0  0  0
    4.0953   -3.5030    2.5732 C   0  0  0  0  0  0  0  0  0  0  0  0
    4.5664   -2.9350    3.7441 C   0  0  0  0  0  0  0  0  0  0  0  0
    4.0414   -1.7210    4.1505 C   0  0  0  0  0  0  0  0  0  0  0  0
    3.0556   -1.1061    3.3827 C   0  0  0  0  0  0  0  0  0  0  0  0
   -1.5757   -0.8083   -0.1621 C   0  0  0  0  0  0  0  0  0  0  0  0
   -2.3642   -1.5647    0.8573 C   0  0  0  0  0  0  0  0  0  0  0  0
   -4.0313    1.5696   -1.4644 C   0  0  0  0  0  0  0  0  0  0  0  0
   -5.3976    1.7749   -1.6754 C   0  0  0  0  0  0  0  0  0  0  0  0
   -7.9272    0.9115   -3.0755 H   0  0  0  0  0  0  0  0  0  0  0  0
   -8.3458    0.1229   -1.5348 H   0  0  0  0  0  0  0  0  0  0  0  0
   -8.0745    1.8645   -1.5777 H   0  0  0  0  0  0  0  0  0  0  0  0
   -6.4355   -1.4682   -1.6609 H   0  0  0  0  0  0  0  0  0  0  0  0
   -4.0389   -1.8378   -1.3125 H   0  0  0  0  0  0  0  0  0  0  0  0
   -2.1294    1.2715   -3.6158 H   0  0  0  0  0  0  0  0  0  0  0  0
   -1.4575    2.5984   -2.6276 H   0  0  0  0  0  0  0  0  0  0  0  0
   -0.3983    1.5870   -3.6085 H   0  0  0  0  0  0  0  0  0  0  0  0
    1.0635    0.3579   -1.7761 H   0  0  0  0  0  0  0  0  0  0  0  0
    1.7994    2.4299    1.5809 H   0  0  0  0  0  0  0  0  0  0  0  0
    3.5693    3.6061    0.8756 H   0  0  0  0  0  0  0  0  0  0  0  0
    5.6276    3.7872   -0.4680 H   0  0  0  0  0  0  0  0  0  0  0  0
    3.2075   -0.5435   -0.3283 H   0  0  0  0  0  0  0  0  0  0  0  0
    2.7830   -3.2842    0.8970 H   0  0  0  0  0  0  0  0  0  0  0  0
    4.4907   -4.4512    2.2167 H   0  0  0  0  0  0  0  0  0  0  0  0
    5.3352   -3.4343    4.3298 H   0  0  0  0  0  0  0  0  0  0  0  0
    4.3898   -1.2514    5.0662 H   0  0  0  0  0  0  0  0  0  0  0  0
    2.6350   -0.1624    3.7066 H   0  0  0  0  0  0  0  0  0  0  0  0
   -1.7594   -1.7887    1.7421 H   0  0  0  0  0  0  0  0  0  0  0  0
   -2.7085   -2.5183    0.4467 H   0  0  0  0  0  0  0  0  0  0  0  0
   -3.2271   -0.9912    1.2098 H   0  0  0  0  0  0  0  0  0  0  0  0
   -3.3802    2.4343   -1.3807 H   0  0  0  0  0  0  0  0  0  0  0  0
   -5.7700    2.7904   -1.7905 H   0  0  0  0  0  0  0  0  0  0  0  0
  1  2  1  0
  2  3  2  0
  3  4  1  0
  4  5  2  0
  5  6  1  0
  6  7  1  0
  7  8  1  0
  7  9  2  0
  9 10  1  0
 10 11  1  0
 11 12  1  0
 11 13  2  3
 13 14  1  0
 14 15  2  0
 14 16  1  0
 16 17  1  0
 17 18  2  0
 18 19  1  0
 19 20  2  0
 20 21  1  0
 20 22  1  0
 22 23  1  0
 22 24  2  0
 13 25  1  0
 25 26  2  0
 26 27  1  0
 27 28  2  0
 28 29  1  0
 29 30  2  0
 10 31  2  0
 31 32  1  0
  5 33  1  0
 33 34  2  0
 34  2  1  0
 31  6  1  0
 24 17  1  0
 30 25  1  0
  1 35  1  0
  1 36  1  0
  1 37  1  0
  3 38  1  0
  4 39  1  0
  8 40  1  0
  8 41  1  0
  8 42  1  0
  9 43  1  0
 16 44  1  0
 18 45  1  0
 19 46  1  0
 24 47  1  0
 26 48  1  0
 27 49  1  0
 28 50  1  0
 29 51  1  0
 30 52  1  0
 32 53  1  0
 32 54  1  0
 32 55  1  0
 33 56  1  0
 34 57  1  0
M  CHG  2  12  -1  25   1
M  END
$$$$
