
     RDKit          3D

 30 30  0  0  0  0  0  0  0  0999 V2000
    3.4356    1.9386    1.2751 C   0  0  0  0  0  0  0  0  0  0  0  0
    3.2821    0.8346    2.2251 N   0  0  0  0  0  0  0  0  0  0  0  0
    4.3848    0.7251    3.1822 C   0  0  0  0  0  0  0  0  0  0  0  0
    2.0545    0.1873    2.4492 C   0  0  0  0  0  0  0  0  0  0  0  0
    1.7280   -0.9190    3.6755 S   0  0  0  0  0  0  0  0  0  0  0  0
    0.7389    0.5893    1.3392 S   0  0  0  0  0  0  0  0  0  0  0  0
    1.0421   -0.7150    0.1081 C   0  0  0  0  0  0  0  0  0  0  0  0
    0.0847   -0.5705   -1.0634 C   0  0  0  0  0  0  0  0  0  0  0  0
    0.5096   -0.4068   -2.2041 O   0  0  0  0  0  0  0  0  0  0  0  0
   -1.2446   -0.6877   -0.6971 N   0  0  0  0  0  0  0  0  0  0  0  0
   -2.3896   -0.6443   -1.5251 C   0  0  0  0  0  0  0  0  0  0  0  0
   -2.3251   -0.5482   -2.9180 C   0  0  0  0  0  0  0  0  0  0  0  0
   -3.4972   -0.5112   -3.6828 C   0  0  0  0  0  0  0  0  0  0  0  0
   -4.7409   -0.5768   -3.0598 C   0  0  0  0  0  0  0  0  0  0  0  0
   -6.1745   -0.5355   -4.0090 Cl  0  0  0  0  0  0  0  0  0  0  0  0
   -4.8302   -0.6759   -1.6760 C   0  0  0  0  0  0  0  0  0  0  0  0
   -3.6591   -0.7093   -0.9157 C   0  0  0  0  0  0  0  0  0  0  0  0
   -3.8128   -0.8298    0.8057 Cl  0  0  0  0  0  0  0  0  0  0  0  0
    4.4953    2.0945    1.0514 H   0  0  0  0  0  0  0  0  0  0  0  0
    2.9319    1.7311    0.3284 H   0  0  0  0  0  0  0  0  0  0  0  0
    3.0226    2.8490    1.7218 H   0  0  0  0  0  0  0  0  0  0  0  0
    5.3345    0.7463    2.6384 H   0  0  0  0  0  0  0  0  0  0  0  0
    4.3567   -0.1988    3.7623 H   0  0  0  0  0  0  0  0  0  0  0  0
    4.3369    1.5789    3.8657 H   0  0  0  0  0  0  0  0  0  0  0  0
    2.0681   -0.6390   -0.2669 H   0  0  0  0  0  0  0  0  0  0  0  0
    0.9079   -1.7070    0.5506 H   0  0  0  0  0  0  0  0  0  0  0  0
   -1.4357   -0.7364    0.3016 H   0  0  0  0  0  0  0  0  0  0  0  0
   -1.3774   -0.5012   -3.4468 H   0  0  0  0  0  0  0  0  0  0  0  0
   -3.4255   -0.4336   -4.7656 H   0  0  0  0  0  0  0  0  0  0  0  0
   -5.8016   -0.7287   -1.1930 H   0  0  0  0  0  0  0  0  0  0  0  0
  1  2  1  0
  2  3  1  0
  2  4  1  0
  4  5  2  0
  4  6  1  0
  6  7  1  0
  7  8  1  0
  8  9  2  0
  8 10  1  0
 10 11  1  0
 11 12  2  0
 12 13  1  0
 13 14  2  0
 14 15  1  0
 14 16  1  0
 16 17  2  0
 17 18  1  0
 17 11  1  0
  1 19  1  0
  1 20  1  0
  1 21  1  0
  3 22  1  0
  3 23  1  0
  3 24  1  0
  7 25  1  0
  7 26  1  0
 10 27  1  0
 12 28  1  0
 13 29  1  0
 16 30  1  0
M  END
$$$$
