
     RDKit          3D

 49 51  0  0  0  0  0  0  0  0999 V2000
   -1.5536   -0.9633    3.2762 N   0  0  0  0  0  0  0  0  0  0  0  0
   -0.4341   -1.3674    2.6505 C   0  0  0  0  0  0  0  0  0  0  0  0
    0.4029   -2.2166    3.1762 N   0  0  0  0  0  0  0  0  0  0  0  0
    1.4413   -2.3947    2.1145 C   0  0  0  0  0  0  0  0  0  0  0  0
    1.2334   -1.2516    1.0934 C   0  0  0  0  0  0  0  0  0  0  0  0
    2.2287   -0.0950    1.3164 C   0  0  0  0  0  0  0  0  0  0  0  0
    3.6248   -0.4140    0.8282 C   0  0  0  0  0  0  0  0  0  0  0  0
    4.6587   -0.6714    1.7407 C   0  0  0  0  0  0  0  0  0  0  0  0
    5.9455   -0.9772    1.2886 C   0  0  0  0  0  0  0  0  0  0  0  0
    6.1992   -1.0187   -0.0784 C   0  0  0  0  0  0  0  0  0  0  0  0
    7.4405   -1.3081   -0.5632 O   0  0  0  0  0  0  0  0  0  0  0  0
    5.1899   -0.7593   -0.9970 C   0  0  0  0  0  0  0  0  0  0  0  0
    3.9041   -0.4560   -0.5456 C   0  0  0  0  0  0  0  0  0  0  0  0
   -0.1284   -0.8536    1.4360 N   0  0  0  0  0  0  0  0  0  0  0  0
   -0.8660    0.0989    0.6341 C   0  0  0  0  0  0  0  0  0  0  0  0
   -1.9177   -0.6194   -0.2197 C   0  0  0  0  0  0  0  0  0  0  0  0
   -2.6892    0.3380   -1.0979 C   0  0  0  0  0  0  0  0  0  0  0  0
   -3.6449    1.2020   -0.5412 C   0  0  0  0  0  0  0  0  0  0  0  0
   -4.3538    2.1113   -1.3427 C   0  0  0  0  0  0  0  0  0  0  0  0
   -5.3930    3.0218   -0.7293 C   0  0  0  0  0  0  0  0  0  0  0  0
   -5.5785    4.1716   -1.4351 F   0  0  0  0  0  0  0  0  0  0  0  0
   -5.0764    3.4089    0.5375 F   0  0  0  0  0  0  0  0  0  0  0  0
   -6.6152    2.4283   -0.6458 F   0  0  0  0  0  0  0  0  0  0  0  0
   -4.1061    2.1325   -2.7253 C   0  0  0  0  0  0  0  0  0  0  0  0
   -3.1536    1.2756   -3.3042 C   0  0  0  0  0  0  0  0  0  0  0  0
   -2.9020    1.3208   -4.7945 C   0  0  0  0  0  0  0  0  0  0  0  0
   -4.0103    1.0036   -5.5174 F   0  0  0  0  0  0  0  0  0  0  0  0
   -2.5182    2.5562   -5.2178 F   0  0  0  0  0  0  0  0  0  0  0  0
   -1.9268    0.4647   -5.2087 F   0  0  0  0  0  0  0  0  0  0  0  0
   -2.4514    0.3835   -2.4782 C   0  0  0  0  0  0  0  0  0  0  0  0
   -2.3770   -0.9897    2.6933 H   0  0  0  0  0  0  0  0  0  0  0  0
   -1.6946   -1.5175    4.1153 H   0  0  0  0  0  0  0  0  0  0  0  0
    1.2730   -3.3677    1.6369 H   0  0  0  0  0  0  0  0  0  0  0  0
    2.4377   -2.4060    2.5634 H   0  0  0  0  0  0  0  0  0  0  0  0
    1.2846   -1.6373    0.0679 H   0  0  0  0  0  0  0  0  0  0  0  0
    2.2551    0.1897    2.3772 H   0  0  0  0  0  0  0  0  0  0  0  0
    1.8949    0.8069    0.7866 H   0  0  0  0  0  0  0  0  0  0  0  0
    4.4665   -0.6393    2.8125 H   0  0  0  0  0  0  0  0  0  0  0  0
    6.7289   -1.1774    2.0143 H   0  0  0  0  0  0  0  0  0  0  0  0
    8.0411   -1.4444    0.1880 H   0  0  0  0  0  0  0  0  0  0  0  0
    5.4057   -0.7889   -2.0621 H   0  0  0  0  0  0  0  0  0  0  0  0
    3.1259   -0.2470   -1.2767 H   0  0  0  0  0  0  0  0  0  0  0  0
   -0.1885    0.6499   -0.0286 H   0  0  0  0  0  0  0  0  0  0  0  0
   -1.3359    0.8532    1.2784 H   0  0  0  0  0  0  0  0  0  0  0  0
   -1.4276   -1.3812   -0.8394 H   0  0  0  0  0  0  0  0  0  0  0  0
   -2.6266   -1.1684    0.4122 H   0  0  0  0  0  0  0  0  0  0  0  0
   -3.8431    1.1726    0.5324 H   0  0  0  0  0  0  0  0  0  0  0  0
   -4.6589    2.8269   -3.3617 H   0  0  0  0  0  0  0  0  0  0  0  0
   -1.7108   -0.2861   -2.9214 H   0  0  0  0  0  0  0  0  0  0  0  0
  1  2  1  0
  2  3  2  0
  3  4  1  0
  4  5  1  0
  5  6  1  0
  6  7  1  0
  7  8  2  0
  8  9  1  0
  9 10  2  0
 10 11  1  0
 10 12  1  0
 12 13  2  0
  5 14  1  0
 14 15  1  0
 15 16  1  0
 16 17  1  0
 17 18  2  0
 18 19  1  0
 19 20  1  0
 20 21  1  0
 20 22  1  0
 20 23  1  0
 19 24  2  0
 24 25  1  0
 25 26  1  0
 26 27  1  0
 26 28  1  0
 26 29  1  0
 25 30  2  0
 14  2  1  0
 30 17  1  0
 13  7  1  0
  1 31  1  0
  1 32  1  0
  4 33  1  0
  4 34  1  0
  5 35  1  0
  6 36  1  0
  6 37  1  0
  8 38  1  0
  9 39  1  0
 11 40  1  0
 12 41  1  0
 13 42  1  0
 15 43  1  0
 15 44  1  0
 16 45  1  0
 16 46  1  0
 18 47  1  0
 24 48  1  0
 30 49  1  0
M  END
$$$$
