
     RDKit          3D

 50 53  0  0  0  0  0  0  0  0999 V2000
   -7.6844    2.1593    1.0313 C   0  0  0  0  0  0  0  0  0  0  0  0
   -6.3227    1.5427    0.8890 C   0  0  0  0  0  0  0  0  0  0  0  0
   -5.2690    1.9298    1.7189 C   0  0  0  0  0  0  0  0  0  0  0  0
   -3.9976    1.3686    1.5631 C   0  0  0  0  0  0  0  0  0  0  0  0
   -3.7628    0.4193    0.5627 C   0  0  0  0  0  0  0  0  0  0  0  0
   -2.3328   -0.2124    0.4004 C   0  0  0  0  0  0  0  0  0  0  0  0
   -1.2239    0.0388    1.2012 C   0  0  0  0  0  0  0  0  0  0  0  0
   -0.1573   -0.7440    0.7598 N   0  0  0  0  0  4  0  0  0  0  0  0
    1.2209   -0.7317    1.2709 C   0  0  0  0  0  0  0  0  0  0  0  0
    2.2063   -0.1564    0.2413 C   0  0  0  0  0  0  0  0  0  0  0  0
    1.8154    0.1791   -0.8738 O   0  0  0  0  0  0  0  0  0  0  0  0
    3.5116   -0.1166    0.7066 N   0  0  0  0  0  0  0  0  0  0  0  0
    4.6643    0.3387    0.0160 C   0  0  0  0  0  0  0  0  0  0  0  0
    4.6043    0.8826   -1.2724 C   0  0  0  0  0  0  0  0  0  0  0  0
    5.7609    1.3198   -1.9243 C   0  0  0  0  0  0  0  0  0  0  0  0
    6.9956    1.2209   -1.2978 C   0  0  0  0  0  0  0  0  0  0  0  0
    7.0759    0.6856   -0.0161 C   0  0  0  0  0  0  0  0  0  0  0  0
    5.9215    0.2425    0.6558 C   0  0  0  0  0  0  0  0  0  0  0  0
    6.0906   -0.3245    2.0412 C   0  0  0  0  0  0  0  0  0  0  0  0
   -0.5819   -1.4324   -0.2976 C   0  0  0  0  0  0  0  0  0  0  0  0
   -1.8553   -1.1234   -0.5257 N   0  0  0  0  0  0  0  0  0  0  0  0
   -2.3757   -1.8028   -1.7039 C   0  0  0  0  0  0  0  0  0  0  0  0
   -1.1041   -2.3842   -2.3792 C   0  0  0  0  0  0  0  0  0  0  0  0
   -0.0440   -2.4223   -1.2620 C   0  0  0  0  0  0  0  0  0  0  0  0
   -4.8104    0.0357   -0.2733 C   0  0  0  0  0  0  0  0  0  0  0  0
   -6.0811    0.5986   -0.1133 C   0  0  0  0  0  0  0  0  0  0  0  0
   -7.8457    2.8939    0.2361 H   0  0  0  0  0  0  0  0  0  0  0  0
   -7.7955    2.6624    1.9984 H   0  0  0  0  0  0  0  0  0  0  0  0
   -8.4609    1.3888    0.9717 H   0  0  0  0  0  0  0  0  0  0  0  0
   -5.4344    2.6722    2.4988 H   0  0  0  0  0  0  0  0  0  0  0  0
   -3.2154    1.7020    2.2370 H   0  0  0  0  0  0  0  0  0  0  0  0
   -1.0596    0.6835    2.0484 H   0  0  0  0  0  0  0  0  0  0  0  0
    1.2609   -0.1289    2.1833 H   0  0  0  0  0  0  0  0  0  0  0  0
    1.5041   -1.7621    1.5040 H   0  0  0  0  0  0  0  0  0  0  0  0
    3.6878   -0.4666    1.6403 H   0  0  0  0  0  0  0  0  0  0  0  0
    3.6699    0.9932   -1.8112 H   0  0  0  0  0  0  0  0  0  0  0  0
    5.6922    1.7414   -2.9244 H   0  0  0  0  0  0  0  0  0  0  0  0
    7.8956    1.5615   -1.8048 H   0  0  0  0  0  0  0  0  0  0  0  0
    8.0539    0.6183    0.4588 H   0  0  0  0  0  0  0  0  0  0  0  0
    7.1363   -0.2999    2.3642 H   0  0  0  0  0  0  0  0  0  0  0  0
    5.5115    0.2580    2.7656 H   0  0  0  0  0  0  0  0  0  0  0  0
    5.7668   -1.3702    2.0641 H   0  0  0  0  0  0  0  0  0  0  0  0
   -2.8863   -1.1005   -2.3683 H   0  0  0  0  0  0  0  0  0  0  0  0
   -3.0514   -2.5988   -1.3801 H   0  0  0  0  0  0  0  0  0  0  0  0
   -1.2747   -3.3591   -2.8450 H   0  0  0  0  0  0  0  0  0  0  0  0
   -0.7722   -1.6901   -3.1606 H   0  0  0  0  0  0  0  0  0  0  0  0
   -0.0229   -3.3807   -0.7393 H   0  0  0  0  0  0  0  0  0  0  0  0
    0.9478   -2.1240   -1.5981 H   0  0  0  0  0  0  0  0  0  0  0  0
   -4.6843   -0.7013   -1.0560 H   0  0  0  0  0  0  0  0  0  0  0  0
   -6.8882    0.2954   -0.7768 H   0  0  0  0  0  0  0  0  0  0  0  0
  1  2  1  0
  2  3  2  0
  3  4  1  0
  4  5  2  0
  5  6  1  0
  6  7  2  0
  7  8  1  0
  8  9  1  0
  9 10  1  0
 10 11  2  0
 10 12  1  0
 12 13  1  0
 13 14  2  0
 14 15  1  0
 15 16  2  0
 16 17  1  0
 17 18  2  0
 18 19  1  0
  8 20  2  0
 20 21  1  0
 21 22  1  0
 22 23  1  0
 23 24  1  0
  5 25  1  0
 25 26  2  0
 26  2  1  0
 21  6  1  0
 18 13  1  0
 24 20  1  0
  1 27  1  0
  1 28  1  0
  1 29  1  0
  3 30  1  0
  4 31  1  0
  7 32  1  0
  9 33  1  0
  9 34  1  0
 12 35  1  0
 14 36  1  0
 15 37  1  0
 16 38  1  0
 17 39  1  0
 19 40  1  0
 19 41  1  0
 19 42  1  0
 22 43  1  0
 22 44  1  0
 23 45  1  0
 23 46  1  0
 24 47  1  0
 24 48  1  0
 25 49  1  0
 26 50  1  0
M  CHG  1   8   1
M  END
$$$$
