
     RDKit          3D

 42 44  0  0  0  0  0  0  0  0999 V2000
    5.2466    0.7408   -0.6328 C   0  0  0  0  0  0  0  0  0  0  0  0
    4.2153   -0.3780   -0.6582 C   0  0  0  0  0  0  0  0  0  0  0  0
    3.4764   -0.4109   -1.9946 C   0  0  0  0  0  0  0  0  0  0  0  0
    2.2391   -1.7532   -2.0515 S   0  0  0  0  0  0  0  0  0  0  0  0
    0.9082   -1.0589   -1.0770 C   0  0  0  0  0  0  0  0  0  0  0  0
   -0.1537   -1.8724   -0.7445 C   0  0  0  0  0  0  0  0  0  0  0  0
   -1.1747   -1.3177   -0.0019 C   0  0  0  0  0  0  0  0  0  0  0  0
   -2.2679   -2.0554    0.3900 N   0  0  0  0  0  0  0  0  0  0  0  0
   -3.3471   -1.4112    1.1298 C   0  0  0  0  0  0  0  0  0  0  0  0
   -4.3663   -2.5337    1.2972 C   0  0  0  0  0  0  0  0  0  0  0  0
   -4.2302   -3.3023   -0.0075 C   0  0  0  0  0  0  0  0  0  0  0  0
   -2.7295   -3.2553   -0.2989 C   0  0  0  0  0  0  0  0  0  0  0  0
   -1.1043   -0.0340    0.3896 N   0  0  0  0  0  0  0  0  0  0  0  0
   -0.0354    0.6956    0.0210 C   0  0  0  0  0  0  0  0  0  0  0  0
    0.0228    2.1058    0.4595 C   0  0  0  0  0  0  0  0  0  0  0  0
    1.1071    2.9392    0.1195 C   0  0  0  0  0  0  0  0  0  0  0  0
    1.1644    4.2738    0.5350 C   0  0  0  0  0  0  0  0  0  0  0  0
    0.1351    4.8088    1.3031 C   0  0  0  0  0  0  0  0  0  0  0  0
   -0.9494    4.0115    1.6556 C   0  0  0  0  0  0  0  0  0  0  0  0
   -1.0027    2.6774    1.2382 C   0  0  0  0  0  0  0  0  0  0  0  0
    0.9827    0.2275   -0.7152 N   0  0  0  0  0  0  0  0  0  0  0  0
    5.7737    0.7484    0.3264 H   0  0  0  0  0  0  0  0  0  0  0  0
    5.9884    0.6093   -1.4270 H   0  0  0  0  0  0  0  0  0  0  0  0
    4.7689    1.7169   -0.7655 H   0  0  0  0  0  0  0  0  0  0  0  0
    3.5194   -0.2269    0.1744 H   0  0  0  0  0  0  0  0  0  0  0  0
    4.7265   -1.3329   -0.4857 H   0  0  0  0  0  0  0  0  0  0  0  0
    4.1948   -0.6098   -2.7978 H   0  0  0  0  0  0  0  0  0  0  0  0
    3.0099    0.5526   -2.2249 H   0  0  0  0  0  0  0  0  0  0  0  0
   -0.1702   -2.9104   -1.0461 H   0  0  0  0  0  0  0  0  0  0  0  0
   -3.0180   -1.0320    2.1031 H   0  0  0  0  0  0  0  0  0  0  0  0
   -3.7832   -0.5899    0.5477 H   0  0  0  0  0  0  0  0  0  0  0  0
   -4.0877   -3.1763    2.1411 H   0  0  0  0  0  0  0  0  0  0  0  0
   -5.3795   -2.1593    1.4673 H   0  0  0  0  0  0  0  0  0  0  0  0
   -4.7805   -2.7845   -0.8027 H   0  0  0  0  0  0  0  0  0  0  0  0
   -4.6113   -4.3252    0.0584 H   0  0  0  0  0  0  0  0  0  0  0  0
   -2.2269   -4.1358    0.1161 H   0  0  0  0  0  0  0  0  0  0  0  0
   -2.5611   -3.2233   -1.3811 H   0  0  0  0  0  0  0  0  0  0  0  0
    1.9266    2.5471   -0.4805 H   0  0  0  0  0  0  0  0  0  0  0  0
    2.0144    4.8912    0.2565 H   0  0  0  0  0  0  0  0  0  0  0  0
    0.1781    5.8452    1.6269 H   0  0  0  0  0  0  0  0  0  0  0  0
   -1.7564    4.4230    2.2560 H   0  0  0  0  0  0  0  0  0  0  0  0
   -1.8623    2.0752    1.5290 H   0  0  0  0  0  0  0  0  0  0  0  0
  1  2  1  0
  2  3  1  0
  3  4  1  0
  4  5  1  0
  5  6  2  0
  6  7  1  0
  7  8  1  0
  8  9  1  0
  9 10  1  0
 10 11  1  0
 11 12  1  0
  7 13  2  0
 13 14  1  0
 14 15  1  0
 15 16  2  0
 16 17  1  0
 17 18  2  0
 18 19  1  0
 19 20  2  0
 14 21  2  0
 21  5  1  0
 12  8  1  0
 20 15  1  0
  1 22  1  0
  1 23  1  0
  1 24  1  0
  2 25  1  0
  2 26  1  0
  3 27  1  0
  3 28  1  0
  6 29  1  0
  9 30  1  0
  9 31  1  0
 10 32  1  0
 10 33  1  0
 11 34  1  0
 11 35  1  0
 12 36  1  0
 12 37  1  0
 16 38  1  0
 17 39  1  0
 18 40  1  0
 19 41  1  0
 20 42  1  0
M  END
$$$$
