
     RDKit          3D

 61 65  0  0  0  0  0  0  0  0999 V2000
  -10.3221    1.8076   -0.3490 C   0  0  0  0  0  0  0  0  0  0  0  0
   -9.6010    1.0939   -1.3461 O   0  0  0  0  0  0  0  0  0  0  0  0
   -8.3549    0.6463   -1.0053 C   0  0  0  0  0  0  0  0  0  0  0  0
   -7.6937   -0.0613   -2.0102 C   0  0  0  0  0  0  0  0  0  0  0  0
   -6.4127   -0.5797   -1.7964 C   0  0  0  0  0  0  0  0  0  0  0  0
   -5.7750   -0.4023   -0.5606 C   0  0  0  0  0  0  0  0  0  0  0  0
   -4.4645   -0.9387   -0.3453 N   0  0  0  0  0  0  0  0  0  0  0  0
   -3.9419   -2.0993   -0.9299 C   0  0  0  0  0  0  0  0  0  0  0  0
   -4.6570   -2.9883   -1.6211 O   0  0  0  0  0  0  0  0  0  0  0  0
   -2.6015   -2.1765   -0.6199 C   0  0  0  0  0  0  0  0  0  0  0  0
   -2.2934   -1.1050    0.2378 C   0  0  0  0  0  0  0  0  0  0  0  0
   -1.0824   -0.8028    0.7942 N   0  0  0  0  0  0  0  0  0  0  0  0
   -0.5556    0.5796    0.6472 C   0  0  0  0  0  0  0  0  0  0  0  0
    0.8948    0.6230    0.1135 C   0  0  0  0  0  0  0  0  0  0  0  0
    1.8081   -0.1660    0.9594 N   0  0  0  0  0  0  0  0  0  0  0  0
    3.1727    0.0629    0.9829 C   0  0  0  0  0  0  0  0  0  0  0  0
    3.9843   -0.4389    2.0149 C   0  0  0  0  0  0  0  0  0  0  0  0
    5.3658   -0.2117    2.0534 C   0  0  0  0  0  0  0  0  0  0  0  0
    5.9798    0.5206    1.0402 C   0  0  0  0  0  0  0  0  0  0  0  0
    7.4437    0.7482    1.1086 C   0  0  0  0  0  0  0  0  0  0  0  0
    7.9677    0.9485    2.2009 O   0  0  0  0  0  0  0  0  0  0  0  0
    8.2860    0.7339   -0.1078 C   0  0  0  0  0  0  0  0  0  0  0  0
    7.9945   -0.0499   -1.2269 C   0  0  0  0  0  0  0  0  0  0  0  0
    8.8475   -0.0103   -2.3291 C   0  0  0  0  0  0  0  0  0  0  0  0
    9.9674    0.8048   -2.2681 C   0  0  0  0  0  0  0  0  0  0  0  0
   10.2862    1.5614   -1.1952 N   0  0  0  0  0  0  0  0  0  0  0  0
    9.4447    1.5002   -0.1320 C   0  0  0  0  0  0  0  0  0  0  0  0
    5.1997    1.0576    0.0168 C   0  0  0  0  0  0  0  0  0  0  0  0
    3.8180    0.8245   -0.0055 C   0  0  0  0  0  0  0  0  0  0  0  0
    1.2232   -1.3546    1.6134 C   0  0  0  0  0  0  0  0  0  0  0  0
   -0.0385   -1.8491    0.8708 C   0  0  0  0  0  0  0  0  0  0  0  0
   -3.4647   -0.4091    0.4727 C   0  0  0  0  0  0  0  0  0  0  0  0
   -3.6595    0.6221    1.2958 O   0  0  0  0  0  0  0  0  0  0  0  0
   -6.4321    0.3256    0.4389 C   0  0  0  0  0  0  0  0  0  0  0  0
   -7.7167    0.8422    0.2184 C   0  0  0  0  0  0  0  0  0  0  0  0
  -11.2928    2.0839   -0.7719 H   0  0  0  0  0  0  0  0  0  0  0  0
  -10.5083    1.1791    0.5290 H   0  0  0  0  0  0  0  0  0  0  0  0
   -9.8041    2.7320   -0.0725 H   0  0  0  0  0  0  0  0  0  0  0  0
   -8.1755   -0.1988   -2.9752 H   0  0  0  0  0  0  0  0  0  0  0  0
   -5.9172   -1.0714   -2.6293 H   0  0  0  0  0  0  0  0  0  0  0  0
   -5.5932   -2.9037   -1.3650 H   0  0  0  0  0  0  0  0  0  0  0  0
   -1.9417   -2.9571   -0.9710 H   0  0  0  0  0  0  0  0  0  0  0  0
   -1.1841    1.1771   -0.0254 H   0  0  0  0  0  0  0  0  0  0  0  0
   -0.5872    1.0567    1.6348 H   0  0  0  0  0  0  0  0  0  0  0  0
    0.9240    0.2350   -0.9123 H   0  0  0  0  0  0  0  0  0  0  0  0
    1.2014    1.6758    0.0909 H   0  0  0  0  0  0  0  0  0  0  0  0
    3.5467   -0.9979    2.8378 H   0  0  0  0  0  0  0  0  0  0  0  0
    5.9536   -0.6049    2.8803 H   0  0  0  0  0  0  0  0  0  0  0  0
    7.1272   -0.7038   -1.2504 H   0  0  0  0  0  0  0  0  0  0  0  0
    8.6474   -0.6073   -3.2128 H   0  0  0  0  0  0  0  0  0  0  0  0
   10.6612    0.8682   -3.1024 H   0  0  0  0  0  0  0  0  0  0  0  0
    9.7382    2.1082    0.7209 H   0  0  0  0  0  0  0  0  0  0  0  0
    5.6397    1.6720   -0.7639 H   0  0  0  0  0  0  0  0  0  0  0  0
    3.2546    1.2473   -0.8332 H   0  0  0  0  0  0  0  0  0  0  0  0
    0.9685   -1.0992    2.6496 H   0  0  0  0  0  0  0  0  0  0  0  0
    1.9378   -2.1868    1.6307 H   0  0  0  0  0  0  0  0  0  0  0  0
    0.2465   -2.1639   -0.1416 H   0  0  0  0  0  0  0  0  0  0  0  0
   -0.4359   -2.7242    1.3990 H   0  0  0  0  0  0  0  0  0  0  0  0
   -2.8536    0.6485    1.8449 H   0  0  0  0  0  0  0  0  0  0  0  0
   -5.9846    0.4816    1.4174 H   0  0  0  0  0  0  0  0  0  0  0  0
   -8.1854    1.3938    1.0281 H   0  0  0  0  0  0  0  0  0  0  0  0
  1  2  1  0
  2  3  1  0
  3  4  2  0
  4  5  1  0
  5  6  2  0
  6  7  1  0
  7  8  1  0
  8  9  1  0
  8 10  2  0
 10 11  1  0
 11 12  1  0
 12 13  1  0
 13 14  1  0
 14 15  1  0
 15 16  1  0
 16 17  2  0
 17 18  1  0
 18 19  2  0
 19 20  1  0
 20 21  2  0
 20 22  1  0
 22 23  2  0
 23 24  1  0
 24 25  2  0
 25 26  1  0
 26 27  2  0
 19 28  1  0
 28 29  2  0
 15 30  1  0
 30 31  1  0
 11 32  2  0
 32 33  1  0
  6 34  1  0
 34 35  2  0
 35  3  1  0
 32  7  1  0
 31 12  1  0
 29 16  1  0
 27 22  1  0
  1 36  1  0
  1 37  1  0
  1 38  1  0
  4 39  1  0
  5 40  1  0
  9 41  1  0
 10 42  1  0
 13 43  1  0
 13 44  1  0
 14 45  1  0
 14 46  1  0
 17 47  1  0
 18 48  1  0
 23 49  1  0
 24 50  1  0
 25 51  1  0
 27 52  1  0
 28 53  1  0
 29 54  1  0
 30 55  1  0
 30 56  1  0
 31 57  1  0
 31 58  1  0
 33 59  1  0
 34 60  1  0
 35 61  1  0
M  END
$$$$
