
     RDKit          3D

 28 30  0  0  0  0  0  0  0  0999 V2000
    1.0956    3.9338    0.6032 S   0  0  0  0  0  0  0  0  0  0  0  0
   -0.1992    3.0039    0.1374 C   0  0  0  0  0  0  0  0  0  0  0  0
   -1.4417    3.5539   -0.1729 N   0  0  0  0  0  0  0  0  0  0  0  0
   -2.3764    2.5709   -0.3351 N   0  0  0  0  0  0  0  0  0  0  0  0
   -1.7092    1.4525   -0.2090 C   0  0  0  0  0  0  0  0  0  0  0  0
   -2.3559    0.1302   -0.2892 C   0  0  0  0  0  0  0  0  0  0  0  0
   -1.7063   -1.0346   -0.6994 C   0  0  0  0  0  0  0  0  0  0  0  0
   -2.4147   -2.2348   -0.7553 C   0  0  0  0  0  0  0  0  0  0  0  0
   -3.7566   -2.2270   -0.4108 C   0  0  0  0  0  0  0  0  0  0  0  0
   -4.4235   -1.1178   -0.0286 N   0  0  0  0  0  0  0  0  0  0  0  0
   -3.7089    0.0354    0.0192 C   0  0  0  0  0  0  0  0  0  0  0  0
   -0.3634    1.6302    0.0093 N   0  0  0  0  0  0  0  0  0  0  0  0
    0.4614    0.6428    0.4696 N   0  0  0  0  0  0  0  0  0  0  0  0
    1.7124    0.7063    0.1409 C   0  0  0  0  0  0  0  0  0  0  0  0
    2.6777   -0.2685    0.5962 C   0  0  0  0  0  0  0  0  0  0  0  0
    4.0359   -0.2871    0.3338 C   0  0  0  0  0  0  0  0  0  0  0  0
    4.6907   -1.4017    0.9410 C   0  0  0  0  0  0  0  0  0  0  0  0
    3.8001   -2.1794    1.6355 C   0  0  0  0  0  0  0  0  0  0  0  0
    4.2974   -3.7625    2.5830 Br  0  0  0  0  0  0  0  0  0  0  0  0
    2.2115   -1.5990    1.5710 S   0  0  0  0  0  0  0  0  0  0  0  0
   -1.7026    4.5298   -0.0902 H   0  0  0  0  0  0  0  0  0  0  0  0
   -0.6610   -1.0298   -0.9884 H   0  0  0  0  0  0  0  0  0  0  0  0
   -1.9298   -3.1547   -1.0635 H   0  0  0  0  0  0  0  0  0  0  0  0
   -4.3482   -3.1379   -0.4381 H   0  0  0  0  0  0  0  0  0  0  0  0
   -4.2819    0.9062    0.3291 H   0  0  0  0  0  0  0  0  0  0  0  0
    2.1013    1.4841   -0.5393 H   0  0  0  0  0  0  0  0  0  0  0  0
    4.5436    0.4633   -0.2614 H   0  0  0  0  0  0  0  0  0  0  0  0
    5.7515   -1.6086    0.8670 H   0  0  0  0  0  0  0  0  0  0  0  0
  1  2  2  0
  2  3  1  0
  3  4  1  0
  4  5  2  0
  5  6  1  0
  6  7  2  0
  7  8  1  0
  8  9  2  0
  9 10  1  0
 10 11  2  0
  5 12  1  0
 12 13  1  0
 13 14  2  3
 14 15  1  0
 15 16  2  0
 16 17  1  0
 17 18  2  0
 18 19  1  0
 18 20  1  0
 12  2  1  0
 20 15  1  0
 11  6  1  0
  3 21  1  0
  7 22  1  0
  8 23  1  0
  9 24  1  0
 11 25  1  0
 14 26  1  0
 16 27  1  0
 17 28  1  0
M  END
$$$$
