
     RDKit          3D

 46 48  0  0  0  0  0  0  0  0999 V2000
   -0.8168    3.2994   -1.0832 C   0  0  0  0  0  0  0  0  0  0  0  0
   -1.3642    1.8812   -0.9622 C   0  0  0  0  0  0  0  0  0  0  0  0
   -1.0044    1.1462    0.3413 C   0  0  0  0  0  0  0  0  0  0  0  0
   -1.5984    1.9889    1.8552 S   0  0  0  0  0  0  0  0  0  0  0  0
   -3.2752    1.6021    1.8110 C   0  0  0  0  0  0  0  0  0  0  0  0
   -3.8955    0.8148    0.9674 N   0  0  0  0  0  0  0  0  0  0  0  0
   -5.2111    0.8457    1.3675 C   0  0  0  0  0  0  0  0  0  0  0  0
   -6.3279    0.1920    0.8273 C   0  0  0  0  0  0  0  0  0  0  0  0
   -7.5781    0.3909    1.4274 C   0  0  0  0  0  0  0  0  0  0  0  0
   -7.7139    1.2232    2.5418 C   0  0  0  0  0  0  0  0  0  0  0  0
   -6.6116    1.8842    3.0965 C   0  0  0  0  0  0  0  0  0  0  0  0
   -5.3783    1.6688    2.4790 C   0  0  0  0  0  0  0  0  0  0  0  0
   -4.1164    2.1372    2.7403 N   0  0  0  0  0  0  0  0  0  0  0  0
    0.5149    0.9053    0.4199 C   0  0  0  0  0  0  0  0  0  0  0  0
    1.2709    1.6178    1.0745 O   0  0  0  0  0  0  0  0  0  0  0  0
    0.9104   -0.1757   -0.3638 N   0  0  0  0  0  0  0  0  0  0  0  0
    2.2177   -0.6653   -0.5616 C   0  0  0  0  0  0  0  0  0  0  0  0
    3.3597   -0.1099    0.0109 C   0  0  0  0  0  0  0  0  0  0  0  0
    4.6228   -0.6611   -0.2441 C   0  0  0  0  0  0  0  0  0  0  0  0
    4.7672   -1.7763   -1.0757 C   0  0  0  0  0  0  0  0  0  0  0  0
    6.0731   -2.2662   -1.2788 N   0  0  0  0  0  0  0  0  0  0  0  0
    6.4574   -3.3423   -2.0583 C   0  0  0  0  0  0  0  0  0  0  0  0
    7.9501   -3.5563   -2.0280 C   0  0  0  0  0  0  0  0  0  0  0  0
    5.7318   -4.0645   -2.7320 O   0  0  0  0  0  0  0  0  0  0  0  0
    3.6254   -2.3324   -1.6480 C   0  0  0  0  0  0  0  0  0  0  0  0
    2.3625   -1.7812   -1.3927 C   0  0  0  0  0  0  0  0  0  0  0  0
   -1.2338    3.9635   -0.3210 H   0  0  0  0  0  0  0  0  0  0  0  0
   -1.0823    3.7162   -2.0606 H   0  0  0  0  0  0  0  0  0  0  0  0
    0.2739    3.3169   -1.0016 H   0  0  0  0  0  0  0  0  0  0  0  0
   -2.4533    1.9165   -1.0829 H   0  0  0  0  0  0  0  0  0  0  0  0
   -0.9876    1.3029   -1.8156 H   0  0  0  0  0  0  0  0  0  0  0  0
   -1.4729    0.1540    0.3263 H   0  0  0  0  0  0  0  0  0  0  0  0
   -6.2174   -0.4526   -0.0373 H   0  0  0  0  0  0  0  0  0  0  0  0
   -8.4527   -0.1098    1.0186 H   0  0  0  0  0  0  0  0  0  0  0  0
   -8.6971    1.3600    2.9884 H   0  0  0  0  0  0  0  0  0  0  0  0
   -6.7187    2.5287    3.9621 H   0  0  0  0  0  0  0  0  0  0  0  0
   -3.8423    2.7649    3.4806 H   0  0  0  0  0  0  0  0  0  0  0  0
    0.1776   -0.6844   -0.8440 H   0  0  0  0  0  0  0  0  0  0  0  0
    3.3098    0.7564    0.6629 H   0  0  0  0  0  0  0  0  0  0  0  0
    5.4873   -0.1961    0.2229 H   0  0  0  0  0  0  0  0  0  0  0  0
    6.8113   -1.7659   -0.7997 H   0  0  0  0  0  0  0  0  0  0  0  0
    8.3214   -3.5180   -0.9999 H   0  0  0  0  0  0  0  0  0  0  0  0
    8.4416   -2.7866   -2.6288 H   0  0  0  0  0  0  0  0  0  0  0  0
    8.1872   -4.5408   -2.4414 H   0  0  0  0  0  0  0  0  0  0  0  0
    3.6774   -3.1983   -2.3006 H   0  0  0  0  0  0  0  0  0  0  0  0
    1.4983   -2.2468   -1.8600 H   0  0  0  0  0  0  0  0  0  0  0  0
  1  2  1  0
  2  3  1  0
  3  4  1  0
  4  5  1  0
  5  6  2  0
  6  7  1  0
  7  8  2  0
  8  9  1  0
  9 10  2  0
 10 11  1  0
 11 12  2  0
 12 13  1  0
  3 14  1  0
 14 15  2  0
 14 16  1  0
 16 17  1  0
 17 18  2  0
 18 19  1  0
 19 20  2  0
 20 21  1  0
 21 22  1  0
 22 23  1  0
 22 24  2  0
 20 25  1  0
 25 26  2  0
 13  5  1  0
 26 17  1  0
 12  7  1  0
  1 27  1  0
  1 28  1  0
  1 29  1  0
  2 30  1  0
  2 31  1  0
  3 32  1  0
  8 33  1  0
  9 34  1  0
 10 35  1  0
 11 36  1  0
 13 37  1  0
 16 38  1  0
 18 39  1  0
 19 40  1  0
 21 41  1  0
 23 42  1  0
 23 43  1  0
 23 44  1  0
 25 45  1  0
 26 46  1  0
M  END
$$$$
