
     RDKit          3D

 38 40  0  0  0  0  0  0  0  0999 V2000
   -0.3213    1.5629   -0.5249 O   0  0  0  0  0  0  0  0  0  0  0  0
   -0.6067    0.8064   -1.4419 C   0  0  0  0  0  0  0  0  0  0  0  0
   -1.9467    0.1370   -1.6584 C   0  0  0  0  0  0  0  0  0  0  0  0
   -2.7712    0.0093   -0.3990 C   0  0  0  0  0  0  0  0  0  0  0  0
   -2.6797   -1.1433    0.3926 C   0  0  0  0  0  0  0  0  0  0  0  0
   -3.4294   -1.2588    1.5627 C   0  0  0  0  0  0  0  0  0  0  0  0
   -4.2716   -0.2204    1.9591 C   0  0  0  0  0  0  0  0  0  0  0  0
   -4.3665    0.9509    1.1930 C   0  0  0  0  0  0  0  0  0  0  0  0
   -5.2893    2.0658    1.6190 C   0  0  0  0  0  0  0  0  0  0  0  0
   -6.5746    1.8509    1.2218 F   0  0  0  0  0  0  0  0  0  0  0  0
   -5.3405    2.2295    2.9709 F   0  0  0  0  0  0  0  0  0  0  0  0
   -4.9419    3.2814    1.1108 F   0  0  0  0  0  0  0  0  0  0  0  0
   -3.6149    1.0527    0.0108 C   0  0  0  0  0  0  0  0  0  0  0  0
    0.2372    0.4624   -2.4529 O   0  0  0  0  0  0  0  0  0  0  0  0
    1.5610    0.9956   -2.3511 C   0  0  0  0  0  0  0  0  0  0  0  0
    2.3161    0.3325   -1.3204 N   0  0  0  0  0  0  0  0  0  0  0  0
    2.4384   -1.0220   -1.1980 C   0  0  0  0  0  0  0  0  0  0  0  0
    1.9144   -1.9102   -1.8426 O   0  0  0  0  0  0  0  0  0  0  0  0
    3.3880   -1.2555   -0.1113 C   0  0  0  0  0  0  0  0  0  0  0  0
    3.8312   -2.4348    0.4546 C   0  0  0  0  0  0  0  0  0  0  0  0
    4.7716   -2.3341    1.4850 C   0  0  0  0  0  0  0  0  0  0  0  0
    5.2433   -1.0755    1.9142 C   0  0  0  0  0  0  0  0  0  0  0  0
    4.7830    0.1040    1.3202 C   0  0  0  0  0  0  0  0  0  0  0  0
    3.8500   -0.0221    0.3100 C   0  0  0  0  0  0  0  0  0  0  0  0
    3.1994    0.9943   -0.5139 C   0  0  0  0  0  0  0  0  0  0  0  0
    3.4830    2.1764   -0.4869 O   0  0  0  0  0  0  0  0  0  0  0  0
   -2.4998    0.7113   -2.4107 H   0  0  0  0  0  0  0  0  0  0  0  0
   -1.7812   -0.8651   -2.0735 H   0  0  0  0  0  0  0  0  0  0  0  0
   -2.0226   -1.9614    0.1027 H   0  0  0  0  0  0  0  0  0  0  0  0
   -3.3547   -2.1590    2.1682 H   0  0  0  0  0  0  0  0  0  0  0  0
   -4.8513   -0.3237    2.8752 H   0  0  0  0  0  0  0  0  0  0  0  0
   -3.6811    1.9608   -0.5887 H   0  0  0  0  0  0  0  0  0  0  0  0
    1.5375    2.0815   -2.2019 H   0  0  0  0  0  0  0  0  0  0  0  0
    2.0604    0.7993   -3.3058 H   0  0  0  0  0  0  0  0  0  0  0  0
    3.4644   -3.3964    0.1107 H   0  0  0  0  0  0  0  0  0  0  0  0
    5.1479   -3.2376    1.9620 H   0  0  0  0  0  0  0  0  0  0  0  0
    5.9773   -1.0237    2.7167 H   0  0  0  0  0  0  0  0  0  0  0  0
    5.1411    1.0786    1.6360 H   0  0  0  0  0  0  0  0  0  0  0  0
  1  2  2  0
  2  3  1  0
  3  4  1  0
  4  5  2  0
  5  6  1  0
  6  7  2  0
  7  8  1  0
  8  9  1  0
  9 10  1  0
  9 11  1  0
  9 12  1  0
  8 13  2  0
  2 14  1  0
 14 15  1  0
 15 16  1  0
 16 17  1  0
 17 18  2  0
 17 19  1  0
 19 20  2  0
 20 21  1  0
 21 22  2  0
 22 23  1  0
 23 24  2  0
 24 25  1  0
 25 26  2  0
 13  4  1  0
 25 16  1  0
 24 19  1  0
  3 27  1  0
  3 28  1  0
  5 29  1  0
  6 30  1  0
  7 31  1  0
 13 32  1  0
 15 33  1  0
 15 34  1  0
 20 35  1  0
 21 36  1  0
 22 37  1  0
 23 38  1  0
M  END
$$$$
