
     RDKit          3D

 43 45  0  0  0  0  0  0  0  0999 V2000
   -6.7635    0.7035    2.3795 C   0  0  0  0  0  0  0  0  0  0  0  0
   -6.6963    1.5362    1.1074 C   0  0  0  0  0  0  0  0  0  0  0  0
   -5.3123    2.1342    0.8617 C   0  0  0  0  0  0  0  0  0  0  0  0
   -4.2999    1.0848    0.5085 C   0  0  0  0  0  0  0  0  0  0  0  0
   -4.3357    0.3915   -0.5857 N   0  0  0  0  0  0  0  0  0  0  0  0
   -3.2660   -0.4752   -0.5958 N   0  0  0  0  0  0  0  0  0  0  0  0
   -3.0426   -1.3487   -1.6370 C   0  0  0  0  0  0  0  0  0  0  0  0
   -3.7227   -1.4815   -2.6495 O   0  0  0  0  0  0  0  0  0  0  0  0
   -1.8386   -2.1914   -1.4519 C   0  0  0  0  0  0  0  0  0  0  0  0
   -1.0822   -2.0458   -0.3494 C   0  0  0  0  0  0  0  0  0  0  0  0
    0.1431   -2.9061   -0.1354 C   0  0  0  0  0  0  0  0  0  0  0  0
    1.6542   -2.0666   -0.7145 S   0  0  0  0  0  0  0  0  0  0  0  0
    1.7961   -0.7808    0.5821 C   0  0  0  0  0  0  0  0  0  0  0  0
    3.1481   -0.0667    0.5963 C   0  0  0  0  0  0  0  0  0  0  0  0
    3.4535    0.6307    1.5626 O   0  0  0  0  0  0  0  0  0  0  0  0
    3.9126   -0.2460   -0.5401 N   0  0  0  0  0  0  0  0  0  0  0  0
    5.1740    0.2987   -0.8425 C   0  0  0  0  0  0  0  0  0  0  0  0
    5.8541    1.1990   -0.0174 C   0  0  0  0  0  0  0  0  0  0  0  0
    7.1079    1.6932   -0.3925 C   0  0  0  0  0  0  0  0  0  0  0  0
    7.6786    1.2864   -1.5912 C   0  0  0  0  0  0  0  0  0  0  0  0
    8.8800    1.7592   -1.9476 F   0  0  0  0  0  0  0  0  0  0  0  0
    7.0183    0.3953   -2.4261 C   0  0  0  0  0  0  0  0  0  0  0  0
    5.7654   -0.0971   -2.0523 C   0  0  0  0  0  0  0  0  0  0  0  0
   -1.3777   -1.1565    0.6656 N   0  0  0  0  0  0  0  0  0  0  0  0
   -2.4305   -0.4312    0.4874 C   0  0  0  0  0  0  0  0  0  0  0  0
   -2.9870    0.7598    1.6162 S   0  0  0  0  0  0  0  0  0  0  0  0
   -6.1253   -0.1832    2.3103 H   0  0  0  0  0  0  0  0  0  0  0  0
   -7.7897    0.3631    2.5519 H   0  0  0  0  0  0  0  0  0  0  0  0
   -6.4496    1.2885    3.2501 H   0  0  0  0  0  0  0  0  0  0  0  0
   -7.4224    2.3540    1.1864 H   0  0  0  0  0  0  0  0  0  0  0  0
   -7.0032    0.9170    0.2558 H   0  0  0  0  0  0  0  0  0  0  0  0
   -4.9859    2.7158    1.7304 H   0  0  0  0  0  0  0  0  0  0  0  0
   -5.3710    2.8269    0.0134 H   0  0  0  0  0  0  0  0  0  0  0  0
   -1.6145   -2.8957   -2.2438 H   0  0  0  0  0  0  0  0  0  0  0  0
    0.2493   -3.1862    0.9187 H   0  0  0  0  0  0  0  0  0  0  0  0
    0.0551   -3.8436   -0.6972 H   0  0  0  0  0  0  0  0  0  0  0  0
    1.6617   -1.2502    1.5613 H   0  0  0  0  0  0  0  0  0  0  0  0
    1.0311   -0.0167    0.4222 H   0  0  0  0  0  0  0  0  0  0  0  0
    3.5180   -0.8944   -1.2171 H   0  0  0  0  0  0  0  0  0  0  0  0
    5.4343    1.5415    0.9242 H   0  0  0  0  0  0  0  0  0  0  0  0
    7.6374    2.3920    0.2475 H   0  0  0  0  0  0  0  0  0  0  0  0
    7.4817    0.0881   -3.3585 H   0  0  0  0  0  0  0  0  0  0  0  0
    5.2618   -0.7957   -2.7157 H   0  0  0  0  0  0  0  0  0  0  0  0
  1  2  1  0
  2  3  1  0
  3  4  1  0
  4  5  2  0
  5  6  1  0
  6  7  1  0
  7  8  2  0
  7  9  1  0
  9 10  2  0
 10 11  1  0
 11 12  1  0
 12 13  1  0
 13 14  1  0
 14 15  2  0
 14 16  1  0
 16 17  1  0
 17 18  2  0
 18 19  1  0
 19 20  2  0
 20 21  1  0
 20 22  1  0
 22 23  2  0
 10 24  1  0
 24 25  2  0
 25 26  1  0
 26  4  1  0
 25  6  1  0
 23 17  1  0
  1 27  1  0
  1 28  1  0
  1 29  1  0
  2 30  1  0
  2 31  1  0
  3 32  1  0
  3 33  1  0
  9 34  1  0
 11 35  1  0
 11 36  1  0
 13 37  1  0
 13 38  1  0
 16 39  1  0
 18 40  1  0
 19 41  1  0
 22 42  1  0
 23 43  1  0
M  END
$$$$
