
     RDKit          3D

 50 52  0  0  0  0  0  0  0  0999 V2000
    6.1984    1.9650   -2.0922 C   0  0  0  0  0  0  0  0  0  0  0  0
    4.8790    1.4373   -1.9971 O   0  0  0  0  0  0  0  0  0  0  0  0
    4.6266    0.2778   -2.6975 C   0  0  0  0  0  0  0  0  0  0  0  0
    5.5474   -0.3753   -3.5253 C   0  0  0  0  0  0  0  0  0  0  0  0
    5.1852   -1.5486   -4.1900 C   0  0  0  0  0  0  0  0  0  0  0  0
    3.9043   -2.0736   -4.0286 C   0  0  0  0  0  0  0  0  0  0  0  0
    2.9788   -1.4311   -3.2015 C   0  0  0  0  0  0  0  0  0  0  0  0
    3.3280   -0.2549   -2.5349 C   0  0  0  0  0  0  0  0  0  0  0  0
    2.4476    0.4585   -1.6899 N   0  0  0  0  0  0  0  0  0  0  0  0
    1.1457    0.1411   -1.3429 C   0  0  0  0  0  0  0  0  0  0  0  0
    0.5272   -0.8579   -1.6999 O   0  0  0  0  0  0  0  0  0  0  0  0
    0.5272    1.2034   -0.4296 C   0  0  0  0  0  0  0  0  0  0  0  0
   -0.8248    0.8815   -0.1214 O   0  0  0  0  0  0  0  0  0  0  0  0
   -1.3901    1.7118    0.7832 C   0  0  0  0  0  0  0  0  0  0  0  0
   -0.8956    2.7090    1.2820 O   0  0  0  0  0  0  0  0  0  0  0  0
   -2.7745    1.2655    0.9962 C   0  0  0  0  0  0  0  0  0  0  0  0
   -3.7772    1.9506    0.2968 C   0  0  0  0  0  0  0  0  0  0  0  0
   -5.1074    1.5625    0.4709 C   0  0  0  0  0  0  0  0  0  0  0  0
   -6.1701    2.2574   -0.2637 N   0  0  0  0  0  4  0  0  0  0  0  0
   -5.8307    3.1214   -1.0844 O   0  0  0  0  0  0  0  0  0  0  0  0
   -7.3428    1.9388   -0.0214 O   0  0  0  0  0  1  0  0  0  0  0  0
   -5.4332    0.5120    1.3331 C   0  0  0  0  0  0  0  0  0  0  0  0
   -4.4158   -0.1582    2.0284 C   0  0  0  0  0  0  0  0  0  0  0  0
   -3.0654    0.2065    1.8845 C   0  0  0  0  0  0  0  0  0  0  0  0
   -2.0429   -0.4618    2.5664 N   0  0  0  0  0  0  0  0  0  0  0  0
   -1.5571   -1.6734    1.8755 C   0  0  0  0  0  0  0  0  0  0  0  0
   -0.9730   -2.5186    2.9991 C   0  0  0  0  0  0  0  0  0  0  0  0
   -1.9354   -2.2456    4.1408 C   0  0  0  0  0  0  0  0  0  0  0  0
   -2.2209   -0.7526    4.0005 C   0  0  0  0  0  0  0  0  0  0  0  0
    6.9363    1.2601   -1.6933 H   0  0  0  0  0  0  0  0  0  0  0  0
    6.4378    2.2501   -3.1234 H   0  0  0  0  0  0  0  0  0  0  0  0
    6.2390    2.8719   -1.4820 H   0  0  0  0  0  0  0  0  0  0  0  0
    6.5562   -0.0022   -3.6766 H   0  0  0  0  0  0  0  0  0  0  0  0
    5.9047   -2.0580   -4.8326 H   0  0  0  0  0  0  0  0  0  0  0  0
    3.6220   -2.9883   -4.5433 H   0  0  0  0  0  0  0  0  0  0  0  0
    1.9933   -1.8760   -3.0998 H   0  0  0  0  0  0  0  0  0  0  0  0
    2.8589    1.3037   -1.3003 H   0  0  0  0  0  0  0  0  0  0  0  0
    1.1216    1.2466    0.4912 H   0  0  0  0  0  0  0  0  0  0  0  0
    0.5589    2.1642   -0.9517 H   0  0  0  0  0  0  0  0  0  0  0  0
   -3.5035    2.7621   -0.3714 H   0  0  0  0  0  0  0  0  0  0  0  0
   -6.4653    0.1941    1.4730 H   0  0  0  0  0  0  0  0  0  0  0  0
   -4.6913   -0.9912    2.6788 H   0  0  0  0  0  0  0  0  0  0  0  0
   -2.3757   -2.2192    1.3893 H   0  0  0  0  0  0  0  0  0  0  0  0
   -0.7984   -1.4366    1.1285 H   0  0  0  0  0  0  0  0  0  0  0  0
   -0.9079   -3.5799    2.7348 H   0  0  0  0  0  0  0  0  0  0  0  0
    0.0306   -2.1625    3.2582 H   0  0  0  0  0  0  0  0  0  0  0  0
   -1.5196   -2.4971    5.1193 H   0  0  0  0  0  0  0  0  0  0  0  0
   -2.8563   -2.8236    4.0003 H   0  0  0  0  0  0  0  0  0  0  0  0
   -3.2039   -0.4946    4.4059 H   0  0  0  0  0  0  0  0  0  0  0  0
   -1.4760   -0.1727    4.5584 H   0  0  0  0  0  0  0  0  0  0  0  0
  1  2  1  0
  2  3  1  0
  3  4  2  0
  4  5  1  0
  5  6  2  0
  6  7  1  0
  7  8  2  0
  8  9  1  0
  9 10  1  0
 10 11  2  0
 10 12  1  0
 12 13  1  0
 13 14  1  0
 14 15  2  0
 14 16  1  0
 16 17  2  0
 17 18  1  0
 18 19  1  0
 19 20  2  0
 19 21  1  0
 18 22  2  0
 22 23  1  0
 23 24  2  0
 24 25  1  0
 25 26  1  0
 26 27  1  0
 27 28  1  0
 28 29  1  0
  8  3  1  0
 24 16  1  0
 29 25  1  0
  1 30  1  0
  1 31  1  0
  1 32  1  0
  4 33  1  0
  5 34  1  0
  6 35  1  0
  7 36  1  0
  9 37  1  0
 12 38  1  0
 12 39  1  0
 17 40  1  0
 22 41  1  0
 23 42  1  0
 26 43  1  0
 26 44  1  0
 27 45  1  0
 27 46  1  0
 28 47  1  0
 28 48  1  0
 29 49  1  0
 29 50  1  0
M  CHG  2  19   1  21  -1
M  END
$$$$
