
     RDKit          3D

 47 50  0  0  0  0  0  0  0  0999 V2000
   -3.1557    2.0568   -0.2177 O   0  0  0  0  0  0  0  0  0  0  0  0
   -3.2349    1.0283    0.4659 C   0  0  0  0  0  0  0  0  0  0  0  0
   -4.3470    0.8509    1.5488 C   0  0  0  0  0  0  0  0  0  0  0  0
   -5.6185    0.0604    1.1294 C   0  0  0  0  0  0  0  0  0  0  0  0
   -6.3006    1.4093    0.8408 C   0  0  0  0  0  0  0  0  0  0  0  0
   -5.2967    2.0551    1.8121 C   0  0  0  0  0  0  0  0  0  0  0  0
   -2.3510   -0.0395    0.3326 N   0  0  0  0  0  0  0  0  0  0  0  0
   -2.3713   -1.2715    1.1365 C   0  0  0  0  0  0  0  0  0  0  0  0
   -1.2048   -2.1526    0.6728 C   0  0  0  0  0  0  0  0  0  0  0  0
   -0.6312   -1.3497   -0.4489 C   0  0  0  0  0  0  0  0  0  0  0  0
    0.4375   -1.6953   -1.2639 C   0  0  0  0  0  0  0  0  0  0  0  0
    0.8169   -0.7924   -2.2622 C   0  0  0  0  0  0  0  0  0  0  0  0
    2.1685   -1.2167   -3.3376 S   0  0  0  0  0  6  0  0  0  0  0  0
    2.2420   -0.2211   -4.3849 O   0  0  0  0  0  0  0  0  0  0  0  0
    2.0550   -2.6284   -3.6302 O   0  0  0  0  0  0  0  0  0  0  0  0
    3.4998   -1.0173   -2.3562 N   0  0  0  0  0  0  0  0  0  0  0  0
    3.8357    0.3340   -1.8870 C   0  0  0  0  0  0  0  0  0  0  0  0
    4.7328    0.2771   -0.6639 C   0  0  0  0  0  0  0  0  0  0  0  0
    5.5512    1.3578   -0.3412 C   0  0  0  0  0  0  0  0  0  0  0  0
    6.3607    1.2718    0.7892 C   0  0  0  0  0  0  0  0  0  0  0  0
    6.3245    0.1213    1.5677 C   0  0  0  0  0  0  0  0  0  0  0  0
    5.4671   -0.8993    1.1913 C   0  0  0  0  0  0  0  0  0  0  0  0
    4.6672   -0.8477    0.1021 N   0  0  0  0  0  0  0  0  0  0  0  0
    0.1277    0.4169   -2.4459 C   0  0  0  0  0  0  0  0  0  0  0  0
   -0.9430    0.7488   -1.6079 C   0  0  0  0  0  0  0  0  0  0  0  0
   -1.3119   -0.1413   -0.6118 C   0  0  0  0  0  0  0  0  0  0  0  0
   -3.9209    0.4951    2.4963 H   0  0  0  0  0  0  0  0  0  0  0  0
   -6.0748   -0.5027    1.9517 H   0  0  0  0  0  0  0  0  0  0  0  0
   -5.5174   -0.6008    0.2645 H   0  0  0  0  0  0  0  0  0  0  0  0
   -7.3527    1.4806    1.1272 H   0  0  0  0  0  0  0  0  0  0  0  0
   -6.1904    1.7467   -0.1962 H   0  0  0  0  0  0  0  0  0  0  0  0
   -4.9313    3.0438    1.5205 H   0  0  0  0  0  0  0  0  0  0  0  0
   -5.6561    2.1090    2.8471 H   0  0  0  0  0  0  0  0  0  0  0  0
   -3.3330   -1.7760    0.9901 H   0  0  0  0  0  0  0  0  0  0  0  0
   -2.2758   -1.0175    2.1978 H   0  0  0  0  0  0  0  0  0  0  0  0
   -1.5592   -3.1300    0.3299 H   0  0  0  0  0  0  0  0  0  0  0  0
   -0.4709   -2.2865    1.4741 H   0  0  0  0  0  0  0  0  0  0  0  0
    0.9562   -2.6404   -1.1359 H   0  0  0  0  0  0  0  0  0  0  0  0
    3.6303   -1.7366   -1.6390 H   0  0  0  0  0  0  0  0  0  0  0  0
    2.9387    0.8955   -1.6059 H   0  0  0  0  0  0  0  0  0  0  0  0
    4.3478    0.8648   -2.6988 H   0  0  0  0  0  0  0  0  0  0  0  0
    5.5718    2.2492   -0.9600 H   0  0  0  0  0  0  0  0  0  0  0  0
    7.0183    2.0960    1.0588 H   0  0  0  0  0  0  0  0  0  0  0  0
    6.9496    0.0229    2.4493 H   0  0  0  0  0  0  0  0  0  0  0  0
    5.4028   -1.8180    1.7700 H   0  0  0  0  0  0  0  0  0  0  0  0
    0.4138    1.1038   -3.2396 H   0  0  0  0  0  0  0  0  0  0  0  0
   -1.4669    1.6855   -1.7619 H   0  0  0  0  0  0  0  0  0  0  0  0
  1  2  2  0
  2  3  1  0
  3  4  1  0
  4  5  1  0
  5  6  1  0
  2  7  1  0
  7  8  1  0
  8  9  1  0
  9 10  1  0
 10 11  2  0
 11 12  1  0
 12 13  1  0
 13 14  2  0
 13 15  2  0
 13 16  1  0
 16 17  1  0
 17 18  1  0
 18 19  2  0
 19 20  1  0
 20 21  2  0
 21 22  1  0
 22 23  2  0
 12 24  2  0
 24 25  1  0
 25 26  2  0
  6  3  1  0
 26  7  1  0
 26 10  1  0
 23 18  1  0
  3 27  1  0
  4 28  1  0
  4 29  1  0
  5 30  1  0
  5 31  1  0
  6 32  1  0
  6 33  1  0
  8 34  1  0
  8 35  1  0
  9 36  1  0
  9 37  1  0
 11 38  1  0
 16 39  1  0
 17 40  1  0
 17 41  1  0
 19 42  1  0
 20 43  1  0
 21 44  1  0
 22 45  1  0
 24 46  1  0
 25 47  1  0
M  END
$$$$
