
     RDKit          3D

 38 39  0  0  0  0  0  0  0  0999 V2000
   -2.5422    1.1781    2.8033 C   0  0  0  0  0  0  0  0  0  0  0  0
   -3.2528    1.4587    1.6061 O   0  0  0  0  0  0  0  0  0  0  0  0
   -2.7873    0.9043    0.4392 C   0  0  0  0  0  0  0  0  0  0  0  0
   -1.6127    0.1481    0.3341 C   0  0  0  0  0  0  0  0  0  0  0  0
   -1.2069   -0.3751   -0.9011 C   0  0  0  0  0  0  0  0  0  0  0  0
    0.0051   -1.1908   -1.0449 C   0  0  0  0  0  0  0  0  0  0  0  0
    1.1772   -0.8897   -0.4649 C   0  0  0  0  0  0  0  0  0  0  0  0
    2.3582   -1.7634   -0.7087 C   0  0  0  0  0  0  0  0  0  0  0  0
    2.3408   -2.6533   -1.5527 O   0  0  0  0  0  0  0  0  0  0  0  0
    3.5943   -1.5047    0.0781 C   0  0  0  0  0  0  0  0  0  0  0  0
    3.5641   -0.9819    1.3789 C   0  0  0  0  0  0  0  0  0  0  0  0
    4.7571   -0.7648    2.0767 C   0  0  0  0  0  0  0  0  0  0  0  0
    5.9716   -1.0792    1.4744 C   0  0  0  0  0  0  0  0  0  0  0  0
    7.1562   -0.8833    2.1187 O   0  0  0  0  0  0  0  0  0  0  0  0
    6.0148   -1.6131    0.1920 C   0  0  0  0  0  0  0  0  0  0  0  0
    4.8259   -1.8323   -0.5056 C   0  0  0  0  0  0  0  0  0  0  0  0
   -2.0059   -0.1558   -2.0265 C   0  0  0  0  0  0  0  0  0  0  0  0
   -3.1783    0.6003   -1.9342 C   0  0  0  0  0  0  0  0  0  0  0  0
   -3.5742    1.1379   -0.7066 C   0  0  0  0  0  0  0  0  0  0  0  0
   -4.7035    1.8933   -0.5116 O   0  0  0  0  0  0  0  0  0  0  0  0
   -5.5328    2.1619   -1.6405 C   0  0  0  0  0  0  0  0  0  0  0  0
   -6.6819    2.9893   -1.2360 C   0  0  0  0  0  0  0  0  0  0  0  0
   -7.6007    3.6421   -0.9541 N   0  0  0  0  0  0  0  0  0  0  0  0
   -3.0715    1.6645    3.6284 H   0  0  0  0  0  0  0  0  0  0  0  0
   -1.5301    1.5940    2.7670 H   0  0  0  0  0  0  0  0  0  0  0  0
   -2.5220    0.1028    3.0093 H   0  0  0  0  0  0  0  0  0  0  0  0
   -1.0050   -0.0539    1.2092 H   0  0  0  0  0  0  0  0  0  0  0  0
   -0.0821   -2.0646   -1.6897 H   0  0  0  0  0  0  0  0  0  0  0  0
    1.3033   -0.0040    0.1437 H   0  0  0  0  0  0  0  0  0  0  0  0
    2.6249   -0.7602    1.8771 H   0  0  0  0  0  0  0  0  0  0  0  0
    4.7190   -0.3610    3.0840 H   0  0  0  0  0  0  0  0  0  0  0  0
    6.9804   -0.5255    3.0042 H   0  0  0  0  0  0  0  0  0  0  0  0
    6.9696   -1.8629   -0.2628 H   0  0  0  0  0  0  0  0  0  0  0  0
    4.8633   -2.2579   -1.5067 H   0  0  0  0  0  0  0  0  0  0  0  0
   -1.7164   -0.5654   -2.9930 H   0  0  0  0  0  0  0  0  0  0  0  0
   -3.7522    0.7436   -2.8432 H   0  0  0  0  0  0  0  0  0  0  0  0
   -4.9608    2.7029   -2.4036 H   0  0  0  0  0  0  0  0  0  0  0  0
   -5.9066    1.2208   -2.0606 H   0  0  0  0  0  0  0  0  0  0  0  0
  1  2  1  0
  2  3  1  0
  3  4  2  0
  4  5  1  0
  5  6  1  0
  6  7  2  3
  7  8  1  0
  8  9  2  0
  8 10  1  0
 10 11  2  0
 11 12  1  0
 12 13  2  0
 13 14  1  0
 13 15  1  0
 15 16  2  0
  5 17  2  0
 17 18  1  0
 18 19  2  0
 19 20  1  0
 20 21  1  0
 21 22  1  0
 22 23  3  0
 19  3  1  0
 16 10  1  0
  1 24  1  0
  1 25  1  0
  1 26  1  0
  4 27  1  0
  6 28  1  0
  7 29  1  0
 11 30  1  0
 12 31  1  0
 14 32  1  0
 15 33  1  0
 16 34  1  0
 17 35  1  0
 18 36  1  0
 21 37  1  0
 21 38  1  0
M  END
$$$$
