
     RDKit          3D

 41 43  0  0  0  0  0  0  0  0999 V2000
   -7.1537   -0.2698   -0.7191 C   0  0  0  0  0  0  0  0  0  0  0  0
   -6.7380    0.5669    0.4783 C   0  0  0  0  0  0  0  0  0  0  0  0
   -5.6497   -0.0445    1.1690 O   0  0  0  0  0  0  0  0  0  0  0  0
   -4.3732    0.2758    0.8057 C   0  0  0  0  0  0  0  0  0  0  0  0
   -3.9911    1.0444   -0.2905 C   0  0  0  0  0  0  0  0  0  0  0  0
   -2.6341    1.2901   -0.5446 C   0  0  0  0  0  0  0  0  0  0  0  0
   -1.6359    0.7780    0.2969 C   0  0  0  0  0  0  0  0  0  0  0  0
   -0.2370    1.0234    0.0339 N   0  0  0  0  0  0  0  0  0  0  0  0
    0.5931   -0.1119   -0.0152 C   0  0  0  0  0  0  0  0  0  0  0  0
    0.1889   -1.2680    0.1300 O   0  0  0  0  0  0  0  0  0  0  0  0
    2.0455    0.1287   -0.2858 C   0  0  0  0  0  0  0  0  0  0  0  0
    2.8467   -0.9476   -0.1500 C   0  0  0  0  0  0  0  0  0  0  0  0
    4.2603   -1.0040   -0.2905 C   0  0  0  0  0  0  0  0  0  0  0  0
    5.2728   -0.1551    0.1427 C   0  0  0  0  0  0  0  0  0  0  0  0
    6.5155   -0.7235   -0.2264 C   0  0  0  0  0  0  0  0  0  0  0  0
    6.2163   -1.9108   -0.8465 C   0  0  0  0  0  0  0  0  0  0  0  0
    7.0330   -2.9776   -1.4558 C   0  0  0  0  0  0  0  0  0  0  0  0
    4.8711   -2.0947   -0.8730 O   0  0  0  0  0  0  0  0  0  0  0  0
    2.4851    1.4713   -0.7029 C   0  0  0  0  0  0  0  0  0  0  0  0
    3.5796    1.7526   -1.1709 O   0  0  0  0  0  0  0  0  0  0  0  0
    1.5475    2.4483   -0.5454 N   0  0  0  0  0  0  0  0  0  0  0  0
    0.2355    2.3259   -0.1693 C   0  0  0  0  0  0  0  0  0  0  0  0
   -0.5728    3.7876    0.0391 S   0  0  0  0  0  0  0  0  0  0  0  0
   -2.0298   -0.0160    1.3818 C   0  0  0  0  0  0  0  0  0  0  0  0
   -3.3842   -0.2590    1.6324 C   0  0  0  0  0  0  0  0  0  0  0  0
   -8.0324    0.1625   -1.2061 H   0  0  0  0  0  0  0  0  0  0  0  0
   -7.3918   -1.2923   -0.4074 H   0  0  0  0  0  0  0  0  0  0  0  0
   -6.3482   -0.3434   -1.4557 H   0  0  0  0  0  0  0  0  0  0  0  0
   -7.5749    0.5971    1.1853 H   0  0  0  0  0  0  0  0  0  0  0  0
   -6.5349    1.6096    0.2103 H   0  0  0  0  0  0  0  0  0  0  0  0
   -4.7171    1.4583   -0.9819 H   0  0  0  0  0  0  0  0  0  0  0  0
   -2.3772    1.8634   -1.4322 H   0  0  0  0  0  0  0  0  0  0  0  0
    2.4068   -1.9164    0.0835 H   0  0  0  0  0  0  0  0  0  0  0  0
    5.1316    0.7807    0.6654 H   0  0  0  0  0  0  0  0  0  0  0  0
    7.5024   -0.3175   -0.0556 H   0  0  0  0  0  0  0  0  0  0  0  0
    6.8631   -3.9297   -0.9440 H   0  0  0  0  0  0  0  0  0  0  0  0
    8.0997   -2.7414   -1.3911 H   0  0  0  0  0  0  0  0  0  0  0  0
    6.7750   -3.1015   -2.5120 H   0  0  0  0  0  0  0  0  0  0  0  0
    1.8703    3.3832   -0.7649 H   0  0  0  0  0  0  0  0  0  0  0  0
   -1.2944   -0.4490    2.0556 H   0  0  0  0  0  0  0  0  0  0  0  0
   -3.6694   -0.8741    2.4829 H   0  0  0  0  0  0  0  0  0  0  0  0
  1  2  1  0
  2  3  1  0
  3  4  1  0
  4  5  2  0
  5  6  1  0
  6  7  2  0
  7  8  1  0
  8  9  1  0
  9 10  2  0
  9 11  1  0
 11 12  2  3
 12 13  1  0
 13 14  2  0
 14 15  1  0
 15 16  2  0
 16 17  1  0
 16 18  1  0
 11 19  1  0
 19 20  2  0
 19 21  1  0
 21 22  1  0
 22 23  2  0
  7 24  1  0
 24 25  2  0
 25  4  1  0
 22  8  1  0
 18 13  1  0
  1 26  1  0
  1 27  1  0
  1 28  1  0
  2 29  1  0
  2 30  1  0
  5 31  1  0
  6 32  1  0
 12 33  1  0
 14 34  1  0
 15 35  1  0
 17 36  1  0
 17 37  1  0
 17 38  1  0
 21 39  1  0
 24 40  1  0
 25 41  1  0
M  END
$$$$
