
     RDKit          3D

 57 61  0  0  0  0  0  0  0  0999 V2000
    5.1466    1.7667    1.3273 C   0  0  0  0  0  0  0  0  0  0  0  0
    4.2875    0.9721    0.3888 C   0  0  0  0  0  0  0  0  0  0  0  0
    2.9058    1.1809    0.3357 C   0  0  0  0  0  0  0  0  0  0  0  0
    2.1166    0.4551   -0.5589 C   0  0  0  0  0  0  0  0  0  0  0  0
    2.6941   -0.4817   -1.4258 C   0  0  0  0  0  0  0  0  0  0  0  0
    1.8330   -1.2773   -2.3743 C   0  0  0  0  0  0  0  0  0  0  0  0
    1.4931   -2.5706   -1.8192 N   0  0  0  0  0  0  0  0  0  0  0  0
    2.1681   -3.6864   -2.1927 N   0  0  0  0  0  0  0  0  0  0  0  0
    1.6499   -4.7173   -1.5252 N   0  0  0  0  0  0  0  0  0  0  0  0
    0.6405   -4.2322   -0.7536 C   0  0  0  0  0  0  0  0  0  0  0  0
   -0.2397   -4.8952    0.1686 C   0  0  0  0  0  0  0  0  0  0  0  0
   -0.2455   -6.0933    0.4259 O   0  0  0  0  0  0  0  0  0  0  0  0
   -1.1282   -4.0109    0.7686 N   0  0  0  0  0  0  0  0  0  0  0  0
   -1.1895   -2.6493    0.4856 C   0  0  0  0  0  0  0  0  0  0  0  0
   -2.2313   -1.8778    1.2828 C   0  0  0  0  0  0  0  0  0  0  0  0
   -1.5293   -1.0993    2.4078 C   0  0  0  0  0  0  0  0  0  0  0  0
   -1.3524    0.3722    2.0447 C   0  0  0  0  0  0  0  0  0  0  0  0
   -2.6781    0.9957    1.8432 N   0  0  0  0  0  0  0  0  0  0  0  0
   -2.7288    2.6778    1.6228 S   0  0  0  0  0  6  0  0  0  0  0  0
   -1.7518    3.2796    2.5047 O   0  0  0  0  0  0  0  0  0  0  0  0
   -4.1144    3.0950    1.6403 O   0  0  0  0  0  0  0  0  0  0  0  0
   -2.1303    2.8839   -0.0463 C   0  0  0  0  0  0  0  0  0  0  0  0
   -0.7657    3.1041   -0.2687 C   0  0  0  0  0  0  0  0  0  0  0  0
   -0.3019    3.2884   -1.5723 C   0  0  0  0  0  0  0  0  0  0  0  0
   -1.2039    3.2671   -2.6316 C   0  0  0  0  0  0  0  0  0  0  0  0
   -0.7555    3.4400   -3.8816 F   0  0  0  0  0  0  0  0  0  0  0  0
   -2.5649    3.0792   -2.4139 C   0  0  0  0  0  0  0  0  0  0  0  0
   -3.0367    2.8957   -1.1134 C   0  0  0  0  0  0  0  0  0  0  0  0
   -3.7017    0.1714    1.1623 C   0  0  0  0  0  0  0  0  0  0  0  0
   -3.0637   -0.9640    0.3735 C   0  0  0  0  0  0  0  0  0  0  0  0
   -0.3956   -2.0383   -0.3512 N   0  0  0  0  0  0  0  0  0  0  0  0
    0.4986   -2.8768   -0.9333 C   0  0  0  0  0  0  0  0  0  0  0  0
    4.0788   -0.6859   -1.3735 C   0  0  0  0  0  0  0  0  0  0  0  0
    4.8682    0.0403   -0.4788 C   0  0  0  0  0  0  0  0  0  0  0  0
    5.6019    2.6088    0.7963 H   0  0  0  0  0  0  0  0  0  0  0  0
    4.5598    2.1578    2.1655 H   0  0  0  0  0  0  0  0  0  0  0  0
    5.9387    1.1394    1.7495 H   0  0  0  0  0  0  0  0  0  0  0  0
    2.4361    1.9062    0.9968 H   0  0  0  0  0  0  0  0  0  0  0  0
    1.0421    0.6177   -0.5730 H   0  0  0  0  0  0  0  0  0  0  0  0
    0.8979   -0.7511   -2.5989 H   0  0  0  0  0  0  0  0  0  0  0  0
    2.3493   -1.4340   -3.3288 H   0  0  0  0  0  0  0  0  0  0  0  0
   -1.7617   -4.4399    1.4271 H   0  0  0  0  0  0  0  0  0  0  0  0
   -2.9068   -2.6024    1.7559 H   0  0  0  0  0  0  0  0  0  0  0  0
   -2.1406   -1.1681    3.3187 H   0  0  0  0  0  0  0  0  0  0  0  0
   -0.5546   -1.5392    2.6522 H   0  0  0  0  0  0  0  0  0  0  0  0
   -0.8343    0.8708    2.8705 H   0  0  0  0  0  0  0  0  0  0  0  0
   -0.7404    0.4734    1.1440 H   0  0  0  0  0  0  0  0  0  0  0  0
   -0.0651    3.1390    0.5625 H   0  0  0  0  0  0  0  0  0  0  0  0
    0.7532    3.4547   -1.7696 H   0  0  0  0  0  0  0  0  0  0  0  0
   -3.2488    3.0884   -3.2573 H   0  0  0  0  0  0  0  0  0  0  0  0
   -4.1036    2.7762   -0.9398 H   0  0  0  0  0  0  0  0  0  0  0  0
   -4.3766   -0.2308    1.9272 H   0  0  0  0  0  0  0  0  0  0  0  0
   -4.3174    0.7696    0.4844 H   0  0  0  0  0  0  0  0  0  0  0  0
   -3.8421   -1.5581   -0.1201 H   0  0  0  0  0  0  0  0  0  0  0  0
   -2.4552   -0.5370   -0.4335 H   0  0  0  0  0  0  0  0  0  0  0  0
    4.5535   -1.4186   -2.0248 H   0  0  0  0  0  0  0  0  0  0  0  0
    5.9426   -0.1317   -0.4590 H   0  0  0  0  0  0  0  0  0  0  0  0
  1  2  1  0
  2  3  2  0
  3  4  1  0
  4  5  2  0
  5  6  1  0
  6  7  1  0
  7  8  1  0
  8  9  2  0
  9 10  1  0
 10 11  1  0
 11 12  2  0
 11 13  1  0
 13 14  1  0
 14 15  1  0
 15 16  1  0
 16 17  1  0
 17 18  1  0
 18 19  1  0
 19 20  2  0
 19 21  2  0
 19 22  1  0
 22 23  2  0
 23 24  1  0
 24 25  2  0
 25 26  1  0
 25 27  1  0
 27 28  2  0
 18 29  1  0
 29 30  1  0
 14 31  2  0
 31 32  1  0
  5 33  1  0
 33 34  2  0
 34  2  1  0
 32  7  1  0
 32 10  2  0
 30 15  1  0
 28 22  1  0
  1 35  1  0
  1 36  1  0
  1 37  1  0
  3 38  1  0
  4 39  1  0
  6 40  1  0
  6 41  1  0
 13 42  1  0
 15 43  1  0
 16 44  1  0
 16 45  1  0
 17 46  1  0
 17 47  1  0
 23 48  1  0
 24 49  1  0
 27 50  1  0
 28 51  1  0
 29 52  1  0
 29 53  1  0
 30 54  1  0
 30 55  1  0
 33 56  1  0
 34 57  1  0
M  END
$$$$
