
     RDKit          3D

 48 50  0  0  0  0  0  0  0  0999 V2000
   -4.5261   -0.8246   -1.9453 C   0  0  0  0  0  0  0  0  0  0  0  0
   -3.4207   -1.8587   -1.8611 C   0  0  0  0  0  0  0  0  0  0  0  0
   -2.4286   -1.4580   -0.9027 O   0  0  0  0  0  0  0  0  0  0  0  0
   -1.4288   -0.6606   -1.3709 C   0  0  0  0  0  0  0  0  0  0  0  0
   -1.3298   -0.2657   -2.5240 O   0  0  0  0  0  0  0  0  0  0  0  0
   -0.4143   -0.3944   -0.2844 C   0  0  0  0  0  0  0  0  0  0  0  0
    0.9731   -0.2236   -0.8683 C   0  0  0  0  0  0  0  0  0  0  0  0
    1.7633   -1.4628   -1.1856 C   0  0  0  0  0  0  0  0  0  0  0  0
    2.6867   -1.9690    0.2385 S   0  0  0  0  0  6  0  0  0  0  0  0
    1.8581   -1.7544    1.4132 O   0  0  0  0  0  0  0  0  0  0  0  0
    3.2257   -3.2887   -0.0344 O   0  0  0  0  0  0  0  0  0  0  0  0
    4.0579   -0.8459    0.3202 C   0  0  0  0  0  0  0  0  0  0  0  0
    4.0016    0.2623    1.1693 C   0  0  0  0  0  0  0  0  0  0  0  0
    5.0897    1.1325    1.2312 C   0  0  0  0  0  0  0  0  0  0  0  0
    6.2282    0.8853    0.4623 C   0  0  0  0  0  0  0  0  0  0  0  0
    6.2872   -0.2357   -0.3671 C   0  0  0  0  0  0  0  0  0  0  0  0
    5.2028   -1.1097   -0.4375 C   0  0  0  0  0  0  0  0  0  0  0  0
    1.5216    0.9236   -1.1193 N   0  0  0  0  0  0  0  0  0  0  0  0
    0.8554    2.0954   -0.8898 C   0  0  0  0  0  0  0  0  0  0  0  0
    1.2835    3.1862   -1.2444 O   0  0  0  0  0  0  0  0  0  0  0  0
   -0.3256    2.0360   -0.2101 N   0  0  0  0  0  0  0  0  0  0  0  0
   -0.6869    0.8586    0.5337 C   0  0  0  0  0  0  0  0  0  0  0  0
   -2.0801    0.9427    1.1228 C   0  0  0  0  0  0  0  0  0  0  0  0
   -2.3569    0.2851    2.3327 C   0  0  0  0  0  0  0  0  0  0  0  0
   -3.6337    0.3338    2.8948 C   0  0  0  0  0  0  0  0  0  0  0  0
   -4.6516    1.0367    2.2552 C   0  0  0  0  0  0  0  0  0  0  0  0
   -4.3957    1.6877    1.0511 C   0  0  0  0  0  0  0  0  0  0  0  0
   -3.1205    1.6375    0.4846 C   0  0  0  0  0  0  0  0  0  0  0  0
   -4.1349    0.1444   -2.2701 H   0  0  0  0  0  0  0  0  0  0  0  0
   -4.9855   -0.6742   -0.9634 H   0  0  0  0  0  0  0  0  0  0  0  0
   -5.3008   -1.1421   -2.6489 H   0  0  0  0  0  0  0  0  0  0  0  0
   -3.8336   -2.8115   -1.5135 H   0  0  0  0  0  0  0  0  0  0  0  0
   -2.9709   -2.0442   -2.8432 H   0  0  0  0  0  0  0  0  0  0  0  0
   -0.4053   -1.2749    0.3690 H   0  0  0  0  0  0  0  0  0  0  0  0
    1.0845   -2.2792   -1.4480 H   0  0  0  0  0  0  0  0  0  0  0  0
    2.4531   -1.2986   -2.0172 H   0  0  0  0  0  0  0  0  0  0  0  0
    3.1238    0.4622    1.7781 H   0  0  0  0  0  0  0  0  0  0  0  0
    5.0523    2.0062    1.8778 H   0  0  0  0  0  0  0  0  0  0  0  0
    7.0738    1.5676    0.5122 H   0  0  0  0  0  0  0  0  0  0  0  0
    7.1809   -0.4276   -0.9563 H   0  0  0  0  0  0  0  0  0  0  0  0
    5.2631   -1.9876   -1.0768 H   0  0  0  0  0  0  0  0  0  0  0  0
   -0.6474    2.9469    0.0928 H   0  0  0  0  0  0  0  0  0  0  0  0
    0.0146    0.8633    1.3824 H   0  0  0  0  0  0  0  0  0  0  0  0
   -1.5779   -0.2715    2.8516 H   0  0  0  0  0  0  0  0  0  0  0  0
   -3.8341   -0.1772    3.8334 H   0  0  0  0  0  0  0  0  0  0  0  0
   -5.6455    1.0748    2.6938 H   0  0  0  0  0  0  0  0  0  0  0  0
   -5.1918    2.2309    0.5478 H   0  0  0  0  0  0  0  0  0  0  0  0
   -2.9539    2.1412   -0.4663 H   0  0  0  0  0  0  0  0  0  0  0  0
  1  2  1  0
  2  3  1  0
  3  4  1  0
  4  5  2  0
  4  6  1  0
  6  7  1  0
  7  8  1  0
  8  9  1  0
  9 10  2  0
  9 11  2  0
  9 12  1  0
 12 13  2  0
 13 14  1  0
 14 15  2  0
 15 16  1  0
 16 17  2  0
  7 18  2  0
 18 19  1  0
 19 20  2  0
 19 21  1  0
 21 22  1  0
 22 23  1  0
 23 24  2  0
 24 25  1  0
 25 26  2  0
 26 27  1  0
 27 28  2  0
 22  6  1  0
 28 23  1  0
 17 12  1  0
  1 29  1  0
  1 30  1  0
  1 31  1  0
  2 32  1  0
  2 33  1  0
  6 34  1  0
  8 35  1  0
  8 36  1  0
 13 37  1  0
 14 38  1  0
 15 39  1  0
 16 40  1  0
 17 41  1  0
 21 42  1  0
 22 43  1  0
 24 44  1  0
 25 45  1  0
 26 46  1  0
 27 47  1  0
 28 48  1  0
M  END
$$$$
