
     RDKit          3D

 28 29  0  0  0  0  0  0  0  0999 V2000
   -1.9776    1.7681    1.2559 O   0  0  0  0  0  0  0  0  0  0  0  0
   -2.1042    0.7422    0.6062 C   0  0  0  0  0  0  0  0  0  0  0  0
   -1.1242    0.1765   -0.1426 O   0  0  0  0  0  0  0  0  0  0  0  0
    0.1043    0.9145   -0.1566 C   0  0  0  0  0  0  0  0  0  0  0  0
    1.1025    0.1493   -1.0109 C   0  0  0  0  0  0  0  0  0  0  0  0
    0.7647   -0.5903   -1.9352 O   0  0  0  0  0  0  0  0  0  0  0  0
    2.5422    0.2225   -0.6579 C   0  0  0  0  0  0  0  0  0  0  0  0
    3.2296   -1.0017   -0.6017 C   0  0  0  0  0  0  0  0  0  0  0  0
    4.5806   -1.0407   -0.2551 C   0  0  0  0  0  0  0  0  0  0  0  0
    5.2576    0.1420    0.0289 C   0  0  0  0  0  0  0  0  0  0  0  0
    4.5869    1.3641   -0.0458 C   0  0  0  0  0  0  0  0  0  0  0  0
    3.2313    1.4113   -0.3943 C   0  0  0  0  0  0  0  0  0  0  0  0
    2.5168    2.9747   -0.5358 Cl  0  0  0  0  0  0  0  0  0  0  0  0
   -3.3494   -0.0757    0.5266 C   0  0  0  0  0  0  0  0  0  0  0  0
   -3.4518   -1.1854   -0.3048 C   0  0  0  0  0  0  0  0  0  0  0  0
   -4.5801   -1.9404   -0.3853 N   0  0  0  0  0  0  0  0  0  0  0  0
   -5.6050   -1.5356    0.3980 C   0  0  0  0  0  0  0  0  0  0  0  0
   -5.5115   -0.4299    1.2261 C   0  0  0  0  0  0  0  0  0  0  0  0
   -4.3902    0.3216    1.3117 N   0  0  0  0  0  0  0  0  0  0  0  0
   -0.0762    1.8916   -0.6138 H   0  0  0  0  0  0  0  0  0  0  0  0
    0.4846    1.0077    0.8661 H   0  0  0  0  0  0  0  0  0  0  0  0
    2.7100   -1.9323   -0.8278 H   0  0  0  0  0  0  0  0  0  0  0  0
    5.1037   -1.9936   -0.2113 H   0  0  0  0  0  0  0  0  0  0  0  0
    6.3118    0.1154    0.2960 H   0  0  0  0  0  0  0  0  0  0  0  0
    5.1345    2.2821    0.1583 H   0  0  0  0  0  0  0  0  0  0  0  0
   -2.6368   -1.5140   -0.9417 H   0  0  0  0  0  0  0  0  0  0  0  0
   -6.5114   -2.1280    0.3415 H   0  0  0  0  0  0  0  0  0  0  0  0
   -6.3424   -0.1159    1.8482 H   0  0  0  0  0  0  0  0  0  0  0  0
  1  2  2  0
  2  3  1  0
  3  4  1  0
  4  5  1  0
  5  6  2  0
  5  7  1  0
  7  8  2  0
  8  9  1  0
  9 10  2  0
 10 11  1  0
 11 12  2  0
 12 13  1  0
  2 14  1  0
 14 15  2  0
 15 16  1  0
 16 17  2  0
 17 18  1  0
 18 19  2  0
 12  7  1  0
 19 14  1  0
  4 20  1  0
  4 21  1  0
  8 22  1  0
  9 23  1  0
 10 24  1  0
 11 25  1  0
 15 26  1  0
 17 27  1  0
 18 28  1  0
M  END
$$$$
