
     RDKit          3D

 43 46  0  0  0  0  0  0  0  0999 V2000
    4.2275    3.2031    0.4815 C   0  0  0  0  0  0  0  0  0  0  0  0
    3.0103    2.4674    0.6189 O   0  0  0  0  0  0  0  0  0  0  0  0
    3.1824    1.2044    1.0839 C   0  0  0  0  0  0  0  0  0  0  0  0
    4.2477    0.6955    1.3924 O   0  0  0  0  0  0  0  0  0  0  0  0
    1.8695    0.5279    1.1693 C   0  0  0  0  0  0  0  0  0  0  0  0
    1.5687   -0.3070    2.1861 C   0  0  0  0  0  0  0  0  0  0  0  0
    2.4763   -0.5789    3.3597 C   0  0  0  0  0  0  0  0  0  0  0  0
    0.3591   -0.9691    2.2581 N   0  0  0  0  0  0  0  0  0  0  0  0
   -0.5375   -0.6675    1.3840 C   0  0  0  0  0  0  0  0  0  0  0  0
   -2.1471   -1.3217    1.4243 S   0  0  0  0  0  0  0  0  0  0  0  0
   -2.6624   -0.3282    0.1165 C   0  0  0  0  0  0  0  0  0  0  0  0
   -3.8737   -0.2147   -0.4478 C   0  0  0  0  0  0  0  0  0  0  0  0
   -5.0965   -0.8908   -0.1505 C   0  0  0  0  0  0  0  0  0  0  0  0
   -5.3628   -2.0594    0.6068 C   0  0  0  0  0  0  0  0  0  0  0  0
   -6.7234   -2.2607    0.5476 C   0  0  0  0  0  0  0  0  0  0  0  0
   -7.3134   -1.2977   -0.2032 O   0  0  0  0  0  0  0  0  0  0  0  0
   -6.3224   -0.4729   -0.6283 C   0  0  0  0  0  0  0  0  0  0  0  0
   -1.5165    0.5006   -0.3681 C   0  0  0  0  0  0  0  0  0  0  0  0
   -1.6048    1.3348   -1.2582 O   0  0  0  0  0  0  0  0  0  0  0  0
   -0.3864    0.2005    0.3508 N   0  0  0  0  0  0  0  0  0  0  0  0
    0.9139    0.7600    0.0298 C   0  0  0  0  0  0  0  0  0  0  0  0
    1.4390    0.1746   -1.2819 C   0  0  0  0  0  0  0  0  0  0  0  0
    1.5731    0.9990   -2.4110 C   0  0  0  0  0  0  0  0  0  0  0  0
    2.0468    0.4815   -3.6176 C   0  0  0  0  0  0  0  0  0  0  0  0
    2.3907   -0.8648   -3.7133 C   0  0  0  0  0  0  0  0  0  0  0  0
    2.2580   -1.6974   -2.6046 C   0  0  0  0  0  0  0  0  0  0  0  0
    1.7828   -1.1843   -1.3966 C   0  0  0  0  0  0  0  0  0  0  0  0
    4.7156    3.3212    1.4540 H   0  0  0  0  0  0  0  0  0  0  0  0
    3.9807    4.1957    0.0948 H   0  0  0  0  0  0  0  0  0  0  0  0
    4.8952    2.7097   -0.2317 H   0  0  0  0  0  0  0  0  0  0  0  0
    1.8867   -0.7925    4.2588 H   0  0  0  0  0  0  0  0  0  0  0  0
    3.1079   -1.4491    3.1552 H   0  0  0  0  0  0  0  0  0  0  0  0
    3.1113    0.2764    3.6078 H   0  0  0  0  0  0  0  0  0  0  0  0
   -3.9530    0.5151   -1.2567 H   0  0  0  0  0  0  0  0  0  0  0  0
   -4.6718   -2.7010    1.1333 H   0  0  0  0  0  0  0  0  0  0  0  0
   -7.3887   -3.0068    0.9595 H   0  0  0  0  0  0  0  0  0  0  0  0
   -6.6456    0.3516   -1.2493 H   0  0  0  0  0  0  0  0  0  0  0  0
    0.7482    1.8377   -0.0979 H   0  0  0  0  0  0  0  0  0  0  0  0
    1.2976    2.0512   -2.3634 H   0  0  0  0  0  0  0  0  0  0  0  0
    2.1425    1.1291   -4.4856 H   0  0  0  0  0  0  0  0  0  0  0  0
    2.7593   -1.2664   -4.6537 H   0  0  0  0  0  0  0  0  0  0  0  0
    2.5257   -2.7485   -2.6802 H   0  0  0  0  0  0  0  0  0  0  0  0
    1.6895   -1.8578   -0.5463 H   0  0  0  0  0  0  0  0  0  0  0  0
  1  2  1  0
  2  3  1  0
  3  4  2  0
  3  5  1  0
  5  6  2  0
  6  7  1  0
  6  8  1  0
  8  9  2  0
  9 10  1  0
 10 11  1  0
 11 12  2  3
 12 13  1  0
 13 14  1  0
 14 15  2  0
 15 16  1  0
 16 17  1  0
 11 18  1  0
 18 19  2  0
 18 20  1  0
 20 21  1  0
 21 22  1  0
 22 23  2  0
 23 24  1  0
 24 25  2  0
 25 26  1  0
 26 27  2  0
 21  5  1  0
 27 22  1  0
 20  9  1  0
 17 13  2  0
  1 28  1  0
  1 29  1  0
  1 30  1  0
  7 31  1  0
  7 32  1  0
  7 33  1  0
 12 34  1  0
 14 35  1  0
 15 36  1  0
 17 37  1  0
 21 38  1  0
 23 39  1  0
 24 40  1  0
 25 41  1  0
 26 42  1  0
 27 43  1  0
M  END
$$$$
