
     RDKit          3D

 54 58  0  0  0  0  0  0  0  0999 V2000
    6.0350   -0.7744   -0.4333 C   0  0  0  0  0  0  0  0  0  0  0  0
    5.1969   -2.0250   -0.2445 C   0  0  0  0  0  0  0  0  0  0  0  0
    4.1109   -1.8247    0.7973 C   0  0  0  0  0  0  0  0  0  0  0  0
    4.2596   -2.2984    1.9260 O   0  0  0  0  0  0  0  0  0  0  0  0
    2.9862   -1.0831    0.4562 N   0  0  0  0  0  0  0  0  0  0  0  0
    2.0128   -0.7963    1.5048 C   0  0  0  0  0  0  0  0  0  0  0  0
    1.2874    0.5257    1.2730 C   0  0  0  0  0  0  0  0  0  0  0  0
    0.6046    0.6312   -0.1243 C   0  0  0  0  0  0  0  0  0  0  0  0
    1.1442   -0.4690   -1.0734 C   0  0  0  0  0  0  0  0  0  0  0  0
    2.6492   -0.6583   -0.8998 C   0  0  0  0  0  0  0  0  0  0  0  0
    1.0700    1.9173   -0.6308 O   0  0  0  0  0  0  0  0  0  0  0  0
    0.3597    2.5088   -1.6337 C   0  0  0  0  0  0  0  0  0  0  0  0
    0.9612    3.6083   -2.2456 C   0  0  0  0  0  0  0  0  0  0  0  0
    0.3205    4.2591   -3.3033 C   0  0  0  0  0  0  0  0  0  0  0  0
   -0.9234    3.8081   -3.7460 C   0  0  0  0  0  0  0  0  0  0  0  0
   -1.7032    4.6068   -5.0541 Cl  0  0  0  0  0  0  0  0  0  0  0  0
   -1.5375    2.7186   -3.1349 C   0  0  0  0  0  0  0  0  0  0  0  0
   -0.8915    2.0837   -2.0699 C   0  0  0  0  0  0  0  0  0  0  0  0
   -1.5181    0.9449   -1.3868 C   0  0  0  0  0  0  0  0  0  0  0  0
   -2.4257    0.3248   -1.9335 O   0  0  0  0  0  0  0  0  0  0  0  0
   -0.9469    0.6070   -0.0155 C   0  0  0  0  0  0  0  0  0  0  0  0
   -1.5442   -0.6770    0.5382 C   0  0  0  0  0  0  0  0  0  0  0  0
   -2.6684   -0.0842    1.3195 C   0  0  0  0  0  0  0  0  0  0  0  0
   -3.7883   -0.9035    1.8398 C   0  0  0  0  0  0  0  0  0  0  0  0
   -3.8036   -2.2968    1.7041 C   0  0  0  0  0  0  0  0  0  0  0  0
   -4.8766   -3.0380    2.2112 C   0  0  0  0  0  0  0  0  0  0  0  0
   -5.9305   -2.3892    2.8531 C   0  0  0  0  0  0  0  0  0  0  0  0
   -7.2461   -3.3061    3.4747 Cl  0  0  0  0  0  0  0  0  0  0  0  0
   -5.9226   -1.0038    2.9947 C   0  0  0  0  0  0  0  0  0  0  0  0
   -4.8519   -0.2614    2.4892 C   0  0  0  0  0  0  0  0  0  0  0  0
   -2.5650    1.1890    1.5330 N   0  0  0  0  0  0  0  0  0  0  0  0
   -1.3908    1.6346    0.8879 O   0  0  0  0  0  0  0  0  0  0  0  0
    5.4499    0.0501   -0.8485 H   0  0  0  0  0  0  0  0  0  0  0  0
    6.4513   -0.4361    0.5214 H   0  0  0  0  0  0  0  0  0  0  0  0
    6.8662   -0.9749   -1.1164 H   0  0  0  0  0  0  0  0  0  0  0  0
    5.8432   -2.8390    0.1068 H   0  0  0  0  0  0  0  0  0  0  0  0
    4.7753   -2.3704   -1.1911 H   0  0  0  0  0  0  0  0  0  0  0  0
    2.5087   -0.7674    2.4816 H   0  0  0  0  0  0  0  0  0  0  0  0
    1.3087   -1.6351    1.5305 H   0  0  0  0  0  0  0  0  0  0  0  0
    0.5653    0.6711    2.0843 H   0  0  0  0  0  0  0  0  0  0  0  0
    2.0212    1.3356    1.3894 H   0  0  0  0  0  0  0  0  0  0  0  0
    0.9538   -0.2141   -2.1220 H   0  0  0  0  0  0  0  0  0  0  0  0
    0.6443   -1.4257   -0.8795 H   0  0  0  0  0  0  0  0  0  0  0  0
    2.9978   -1.4008   -1.6214 H   0  0  0  0  0  0  0  0  0  0  0  0
    3.1805    0.2785   -1.0977 H   0  0  0  0  0  0  0  0  0  0  0  0
    1.9324    3.9585   -1.9036 H   0  0  0  0  0  0  0  0  0  0  0  0
    0.7965    5.1144   -3.7771 H   0  0  0  0  0  0  0  0  0  0  0  0
   -2.5116    2.3723   -3.4723 H   0  0  0  0  0  0  0  0  0  0  0  0
   -0.8886   -1.1905    1.2450 H   0  0  0  0  0  0  0  0  0  0  0  0
   -1.8794   -1.3812   -0.2263 H   0  0  0  0  0  0  0  0  0  0  0  0
   -2.9961   -2.8312    1.2127 H   0  0  0  0  0  0  0  0  0  0  0  0
   -4.8844   -4.1198    2.1024 H   0  0  0  0  0  0  0  0  0  0  0  0
   -6.7424   -0.4944    3.4947 H   0  0  0  0  0  0  0  0  0  0  0  0
   -4.8561    0.8214    2.6042 H   0  0  0  0  0  0  0  0  0  0  0  0
  1  2  1  0
  2  3  1  0
  3  4  2  0
  3  5  1  0
  5  6  1  0
  6  7  1  0
  7  8  1  0
  8  9  1  0
  9 10  1  0
  8 11  1  0
 11 12  1  0
 12 13  2  0
 13 14  1  0
 14 15  2  0
 15 16  1  0
 15 17  1  0
 17 18  2  0
 18 19  1  0
 19 20  2  0
 19 21  1  0
 21 22  1  0
 22 23  1  0
 23 24  1  0
 24 25  2  0
 25 26  1  0
 26 27  2  0
 27 28  1  0
 27 29  1  0
 29 30  2  0
 23 31  2  0
 31 32  1  0
 10  5  1  0
 18 12  1  0
 32 21  1  0
 21  8  1  0
 30 24  1  0
  1 33  1  0
  1 34  1  0
  1 35  1  0
  2 36  1  0
  2 37  1  0
  6 38  1  0
  6 39  1  0
  7 40  1  0
  7 41  1  0
  9 42  1  0
  9 43  1  0
 10 44  1  0
 10 45  1  0
 13 46  1  0
 14 47  1  0
 17 48  1  0
 22 49  1  0
 22 50  1  0
 25 51  1  0
 26 52  1  0
 29 53  1  0
 30 54  1  0
M  END
$$$$
