
     RDKit          3D

 54 55  0  0  0  0  0  0  0  0999 V2000
   -0.7398    3.7255   -0.1391 C   0  0  0  0  0  0  0  0  0  0  0  0
   -1.2940    2.4790   -0.5426 O   0  0  0  0  0  0  0  0  0  0  0  0
   -0.4252    1.5293   -1.0142 C   0  0  0  0  0  0  0  0  0  0  0  0
    0.9663    1.5984   -0.8823 C   0  0  0  0  0  0  0  0  0  0  0  0
    1.7969    0.5911   -1.4065 C   0  0  0  0  0  0  0  0  0  0  0  0
    3.2982    0.6910   -1.2547 C   0  0  0  0  0  0  0  0  0  0  0  0
    3.6421    0.5769    0.1562 N   0  0  0  0  0  0  0  0  0  0  0  0
    4.9849    0.5543    0.5433 C   0  0  0  0  0  0  0  0  0  0  0  0
    5.2966    0.1077    1.8365 C   0  0  0  0  0  0  0  0  0  0  0  0
    6.6106    0.1205    2.3172 C   0  0  0  0  0  0  0  0  0  0  0  0
    7.6435    0.6108    1.5160 C   0  0  0  0  0  0  0  0  0  0  0  0
    9.0221    0.6094    2.0609 C   0  0  0  0  0  0  0  0  0  0  0  0
    9.3535    0.2110    3.1623 O   0  0  0  0  0  0  0  0  0  0  0  0
    9.9255    1.1069    1.1977 O   0  0  0  0  0  0  0  0  0  0  0  0
    7.3460    1.0974    0.2407 C   0  0  0  0  0  0  0  0  0  0  0  0
    6.0261    1.0809   -0.2306 C   0  0  0  0  0  0  0  0  0  0  0  0
    1.2151   -0.4995   -2.0637 C   0  0  0  0  0  0  0  0  0  0  0  0
   -0.1726   -0.5812   -2.1949 C   0  0  0  0  0  0  0  0  0  0  0  0
   -0.8963   -2.0876   -3.0946 Br  0  0  0  0  0  0  0  0  0  0  0  0
   -0.9946    0.4173   -1.6581 C   0  0  0  0  0  0  0  0  0  0  0  0
   -2.3536    0.3238   -1.8426 O   0  0  0  0  0  0  0  0  0  0  0  0
   -3.0258    0.0237   -0.6232 C   0  0  0  0  0  0  0  0  0  0  0  0
   -4.3815   -0.6466   -0.8769 C   0  0  0  0  0  0  0  0  0  0  0  0
   -4.7933   -0.9521   -1.9904 O   0  0  0  0  0  0  0  0  0  0  0  0
   -5.0903   -0.8800    0.2929 N   0  0  0  0  0  0  0  0  0  0  0  0
   -6.4380   -1.4677    0.3515 C   0  0  0  0  0  0  0  0  0  0  0  0
   -6.4564   -2.8788   -0.2580 C   0  0  0  0  0  0  0  0  0  0  0  0
   -6.8426   -1.5806    1.8335 C   0  0  0  0  0  0  0  0  0  0  0  0
   -7.4578   -0.5680   -0.3636 C   0  0  0  0  0  0  0  0  0  0  0  0
   -0.1412    4.1752   -0.9387 H   0  0  0  0  0  0  0  0  0  0  0  0
   -1.5697    4.4052    0.0773 H   0  0  0  0  0  0  0  0  0  0  0  0
   -0.1549    3.6133    0.7797 H   0  0  0  0  0  0  0  0  0  0  0  0
    1.4434    2.4275   -0.3659 H   0  0  0  0  0  0  0  0  0  0  0  0
    3.7887   -0.1016   -1.8331 H   0  0  0  0  0  0  0  0  0  0  0  0
    3.6177    1.6565   -1.6654 H   0  0  0  0  0  0  0  0  0  0  0  0
    3.1036   -0.1483    0.6256 H   0  0  0  0  0  0  0  0  0  0  0  0
    4.5083   -0.2577    2.4912 H   0  0  0  0  0  0  0  0  0  0  0  0
    6.8181   -0.2450    3.3209 H   0  0  0  0  0  0  0  0  0  0  0  0
   10.7735    1.0441    1.6852 H   0  0  0  0  0  0  0  0  0  0  0  0
    8.1292    1.5028   -0.3952 H   0  0  0  0  0  0  0  0  0  0  0  0
    5.8392    1.4941   -1.2174 H   0  0  0  0  0  0  0  0  0  0  0  0
    1.8438   -1.2858   -2.4759 H   0  0  0  0  0  0  0  0  0  0  0  0
   -3.2194    0.9512   -0.0731 H   0  0  0  0  0  0  0  0  0  0  0  0
   -2.4374   -0.6616    0.0021 H   0  0  0  0  0  0  0  0  0  0  0  0
   -4.7243   -0.4758    1.1454 H   0  0  0  0  0  0  0  0  0  0  0  0
   -6.2534   -2.8664   -1.3333 H   0  0  0  0  0  0  0  0  0  0  0  0
   -7.4333   -3.3558   -0.1195 H   0  0  0  0  0  0  0  0  0  0  0  0
   -5.7001   -3.5190    0.2102 H   0  0  0  0  0  0  0  0  0  0  0  0
   -6.8489   -0.5966    2.3175 H   0  0  0  0  0  0  0  0  0  0  0  0
   -6.1372   -2.2109    2.3883 H   0  0  0  0  0  0  0  0  0  0  0  0
   -7.8423   -2.0153    1.9444 H   0  0  0  0  0  0  0  0  0  0  0  0
   -8.4757   -0.9583   -0.2529 H   0  0  0  0  0  0  0  0  0  0  0  0
   -7.4401    0.4485    0.0463 H   0  0  0  0  0  0  0  0  0  0  0  0
   -7.2534   -0.4896   -1.4364 H   0  0  0  0  0  0  0  0  0  0  0  0
  1  2  1  0
  2  3  1  0
  3  4  2  0
  4  5  1  0
  5  6  1  0
  6  7  1  0
  7  8  1  0
  8  9  2  0
  9 10  1  0
 10 11  2  0
 11 12  1  0
 12 13  2  0
 12 14  1  0
 11 15  1  0
 15 16  2  0
  5 17  2  0
 17 18  1  0
 18 19  1  0
 18 20  2  0
 20 21  1  0
 21 22  1  0
 22 23  1  0
 23 24  2  0
 23 25  1  0
 25 26  1  0
 26 27  1  0
 26 28  1  0
 26 29  1  0
 20  3  1  0
 16  8  1  0
  1 30  1  0
  1 31  1  0
  1 32  1  0
  4 33  1  0
  6 34  1  0
  6 35  1  0
  7 36  1  0
  9 37  1  0
 10 38  1  0
 14 39  1  0
 15 40  1  0
 16 41  1  0
 17 42  1  0
 22 43  1  0
 22 44  1  0
 25 45  1  0
 27 46  1  0
 27 47  1  0
 27 48  1  0
 28 49  1  0
 28 50  1  0
 28 51  1  0
 29 52  1  0
 29 53  1  0
 29 54  1  0
M  END
$$$$
