
     RDKit          3D

 37 40  0  0  0  0  0  0  0  0999 V2000
    6.0130   -0.0076   -0.3622 C   0  0  0  0  0  0  0  0  0  0  0  0
    4.7571   -0.6079   -0.0732 O   0  0  0  0  0  0  0  0  0  0  0  0
    3.6421    0.1679   -0.2503 C   0  0  0  0  0  0  0  0  0  0  0  0
    3.6289    1.4879   -0.6901 C   0  0  0  0  0  0  0  0  0  0  0  0
    2.4233    2.1802   -0.8462 C   0  0  0  0  0  0  0  0  0  0  0  0
    1.2359    1.5059   -0.5394 C   0  0  0  0  0  0  0  0  0  0  0  0
   -0.0610    1.9364   -0.6200 N   0  0  0  0  0  0  0  0  0  0  0  0
   -0.9504    0.9510   -0.2485 C   0  0  0  0  0  0  0  0  0  0  0  0
   -2.3596    0.9864   -0.2352 C   0  0  0  0  0  0  0  0  0  0  0  0
   -3.1273    2.2137   -0.6591 C   0  0  0  0  0  0  0  0  0  0  0  0
   -3.0342   -0.1986    0.1698 C   0  0  0  0  0  0  0  0  0  0  0  0
   -4.4430   -0.2835    0.1718 C   0  0  0  0  0  0  0  0  0  0  0  0
   -5.0748   -1.4523    0.5590 C   0  0  0  0  0  0  0  0  0  0  0  0
   -4.4158   -2.5518    0.9437 N   0  0  0  0  0  0  0  0  0  0  0  0
   -3.0642   -2.4626    0.9433 C   0  0  0  0  0  0  0  0  0  0  0  0
   -2.3000   -1.3338    0.5847 C   0  0  0  0  0  0  0  0  0  0  0  0
   -0.8660   -1.3093    0.6248 C   0  0  0  0  0  0  0  0  0  0  0  0
   -0.1080   -2.5078    1.1450 C   0  0  0  0  0  0  0  0  0  0  0  0
   -0.1908   -0.1530    0.1401 C   0  0  0  0  0  0  0  0  0  0  0  0
    1.1978    0.1934   -0.0792 C   0  0  0  0  0  0  0  0  0  0  0  0
    2.4345   -0.4800    0.0512 C   0  0  0  0  0  0  0  0  0  0  0  0
    6.2022    0.8481    0.2943 H   0  0  0  0  0  0  0  0  0  0  0  0
    6.7915   -0.7523   -0.1701 H   0  0  0  0  0  0  0  0  0  0  0  0
    6.0803    0.2793   -1.4168 H   0  0  0  0  0  0  0  0  0  0  0  0
    4.5457    2.0162   -0.9309 H   0  0  0  0  0  0  0  0  0  0  0  0
    2.4174    3.2066   -1.1994 H   0  0  0  0  0  0  0  0  0  0  0  0
   -0.3273    2.8552   -0.9387 H   0  0  0  0  0  0  0  0  0  0  0  0
   -3.7834    2.5500    0.1505 H   0  0  0  0  0  0  0  0  0  0  0  0
   -3.7254    1.9972   -1.5503 H   0  0  0  0  0  0  0  0  0  0  0  0
   -2.4695    3.0516   -0.9048 H   0  0  0  0  0  0  0  0  0  0  0  0
   -5.0665    0.5509   -0.1306 H   0  0  0  0  0  0  0  0  0  0  0  0
   -6.1578   -1.5298    0.5633 H   0  0  0  0  0  0  0  0  0  0  0  0
   -2.5919   -3.3921    1.2492 H   0  0  0  0  0  0  0  0  0  0  0  0
   -0.6234   -2.9788    1.9874 H   0  0  0  0  0  0  0  0  0  0  0  0
    0.0329   -3.2414    0.3460 H   0  0  0  0  0  0  0  0  0  0  0  0
    0.8645   -2.2203    1.5475 H   0  0  0  0  0  0  0  0  0  0  0  0
    2.4732   -1.5148    0.3733 H   0  0  0  0  0  0  0  0  0  0  0  0
  1  2  1  0
  2  3  1  0
  3  4  2  0
  4  5  1  0
  5  6  2  0
  6  7  1  0
  7  8  1  0
  8  9  2  0
  9 10  1  0
  9 11  1  0
 11 12  2  0
 12 13  1  0
 13 14  2  0
 14 15  1  0
 15 16  2  0
 16 17  1  0
 17 18  1  0
 17 19  2  0
 19 20  1  0
 20 21  2  0
 21  3  1  0
 20  6  1  0
 19  8  1  0
 16 11  1  0
  1 22  1  0
  1 23  1  0
  1 24  1  0
  4 25  1  0
  5 26  1  0
  7 27  1  0
 10 28  1  0
 10 29  1  0
 10 30  1  0
 12 31  1  0
 13 32  1  0
 15 33  1  0
 18 34  1  0
 18 35  1  0
 18 36  1  0
 21 37  1  0
M  END
$$$$
