
     RDKit          3D

 45 48  0  0  0  0  0  0  0  0999 V2000
   -1.5507   -1.7181   -2.5683 C   0  0  0  0  0  0  0  0  0  0  0  0
   -2.2220   -1.7917   -1.2107 C   0  0  0  0  0  0  0  0  0  0  0  0
   -1.4857   -1.0390   -0.2362 O   0  0  0  0  0  0  0  0  0  0  0  0
   -1.8186    0.2769   -0.1299 C   0  0  0  0  0  0  0  0  0  0  0  0
   -2.6466    0.8685   -0.8075 O   0  0  0  0  0  0  0  0  0  0  0  0
   -1.1544    0.8609    1.0601 C   0  0  0  0  0  0  0  0  0  0  0  0
   -2.0946    1.4748    2.0279 C   0  0  0  0  0  0  0  0  0  0  0  0
   -1.9312    2.5633    2.5588 O   0  0  0  0  0  0  0  0  0  0  0  0
   -3.1305    0.6254    2.2529 O   0  0  0  0  0  0  0  0  0  0  0  0
   -4.1416    1.0970    3.1556 C   0  0  0  0  0  0  0  0  0  0  0  0
   -5.1640    1.9291    2.4046 C   0  0  0  0  0  0  0  0  0  0  0  0
    0.1796    0.7893    1.3225 C   0  0  0  0  0  0  0  0  0  0  0  0
    0.6883    1.0386    2.7244 C   0  0  0  0  0  0  0  0  0  0  0  0
    1.8885    0.5833    3.1673 C   0  0  0  0  0  0  0  0  0  0  0  0
    2.4442    0.8493    4.9308 Br  0  0  0  0  0  0  0  0  0  0  0  0
    2.7693   -0.0949    2.2613 C   0  0  0  0  0  0  0  0  0  0  0  0
    3.9808   -0.6400    2.4209 N   0  0  0  0  0  0  0  0  0  0  0  0
    4.3865   -1.0144    1.1312 O   0  0  0  0  0  0  0  0  0  0  0  0
    3.4196   -0.6673    0.2276 C   0  0  0  0  0  0  0  0  0  0  0  0
    3.4319   -0.7661   -1.1692 C   0  0  0  0  0  0  0  0  0  0  0  0
    4.5257   -1.3351   -1.8472 C   0  0  0  0  0  0  0  0  0  0  0  0
    4.5102   -1.3929   -3.2368 C   0  0  0  0  0  0  0  0  0  0  0  0
    3.4180   -0.8893   -3.9409 C   0  0  0  0  0  0  0  0  0  0  0  0
    2.3337   -0.3161   -3.2623 C   0  0  0  0  0  0  0  0  0  0  0  0
    2.3068   -0.2276   -1.8524 C   0  0  0  0  0  0  0  0  0  0  0  0
    1.2386    0.3509   -1.0961 C   0  0  0  0  0  0  0  0  0  0  0  0
    0.2404    1.0439   -1.7328 O   0  0  0  0  0  0  0  0  0  0  0  0
    1.1885    0.3088    0.3092 C   0  0  0  0  0  0  0  0  0  0  0  0
    2.3580   -0.1492    0.9198 C   0  0  0  0  0  0  0  0  0  0  0  0
   -2.0708   -2.3526   -3.2915 H   0  0  0  0  0  0  0  0  0  0  0  0
   -0.5078   -2.0432   -2.5010 H   0  0  0  0  0  0  0  0  0  0  0  0
   -1.5461   -0.6924   -2.9490 H   0  0  0  0  0  0  0  0  0  0  0  0
   -2.2338   -2.8307   -0.8652 H   0  0  0  0  0  0  0  0  0  0  0  0
   -3.2659   -1.4615   -1.2634 H   0  0  0  0  0  0  0  0  0  0  0  0
   -3.7020    1.6566    3.9892 H   0  0  0  0  0  0  0  0  0  0  0  0
   -4.6273    0.2132    3.5818 H   0  0  0  0  0  0  0  0  0  0  0  0
   -5.9723    2.2442    3.0704 H   0  0  0  0  0  0  0  0  0  0  0  0
   -4.7016    2.8209    1.9697 H   0  0  0  0  0  0  0  0  0  0  0  0
   -5.5917    1.3559    1.5755 H   0  0  0  0  0  0  0  0  0  0  0  0
    0.0448    1.5525    3.4331 H   0  0  0  0  0  0  0  0  0  0  0  0
    5.3797   -1.7288   -1.3005 H   0  0  0  0  0  0  0  0  0  0  0  0
    5.3473   -1.8340   -3.7724 H   0  0  0  0  0  0  0  0  0  0  0  0
    3.4048   -0.9475   -5.0274 H   0  0  0  0  0  0  0  0  0  0  0  0
    1.4957    0.0326   -3.8610 H   0  0  0  0  0  0  0  0  0  0  0  0
    0.5781    1.3967   -2.5727 H   0  0  0  0  0  0  0  0  0  0  0  0
  1  2  1  0
  2  3  1  0
  3  4  1  0
  4  5  2  0
  4  6  1  0
  6  7  1  0
  7  8  2  0
  7  9  1  0
  9 10  1  0
 10 11  1  0
  6 12  2  3
 12 13  1  0
 13 14  2  0
 14 15  1  0
 14 16  1  0
 16 17  2  0
 17 18  1  0
 18 19  1  0
 19 20  1  0
 20 21  2  0
 21 22  1  0
 22 23  2  0
 23 24  1  0
 24 25  2  0
 25 26  1  0
 26 27  1  0
 26 28  2  0
 28 29  1  0
 28 12  1  0
 29 16  1  0
 29 19  2  0
 25 20  1  0
  1 30  1  0
  1 31  1  0
  1 32  1  0
  2 33  1  0
  2 34  1  0
 10 35  1  0
 10 36  1  0
 11 37  1  0
 11 38  1  0
 11 39  1  0
 13 40  1  0
 21 41  1  0
 22 42  1  0
 23 43  1  0
 24 44  1  0
 27 45  1  0
M  END
$$$$
