
     RDKit          3D

 37 37  0  0  0  0  0  0  0  0999 V2000
   -3.7757    0.9162   -1.2192 C   0  0  0  0  0  0  0  0  0  0  0  0
   -3.5492    0.6330    0.2591 C   0  0  0  0  0  0  0  0  0  0  0  0
   -2.4096   -0.2748    0.4555 N   0  0  0  0  0  0  0  0  0  0  0  0
   -2.7414   -1.7072    0.4932 C   0  0  0  0  0  0  0  0  0  0  0  0
   -2.9954   -2.1710    1.9204 C   0  0  0  0  0  0  0  0  0  0  0  0
   -1.1036    0.1863    0.5750 C   0  0  0  0  0  0  0  0  0  0  0  0
   -0.0321   -0.6710    0.8946 C   0  0  0  0  0  0  0  0  0  0  0  0
    1.2891   -0.2192    1.0091 C   0  0  0  0  0  0  0  0  0  0  0  0
    1.5692    1.1229    0.7907 C   0  0  0  0  0  0  0  0  0  0  0  0
    2.9467    1.6189    0.8887 C   0  0  0  0  0  0  0  0  0  0  0  0
    3.9216    1.3872    0.0764 N   0  0  0  0  0  0  0  0  0  0  0  0
    3.6958    0.6041   -1.1594 C   0  0  0  0  0  0  0  0  0  0  0  0
    4.5585    1.1711   -2.2111 C   0  0  0  0  0  0  0  0  0  0  0  0
    5.2188    1.6037   -3.0630 N   0  0  0  0  0  0  0  0  0  0  0  0
    4.1069   -0.8198   -0.9002 C   0  0  0  0  0  0  0  0  0  0  0  0
    4.8007   -1.2439    0.1130 N   0  0  0  0  0  0  0  0  0  0  0  0
    3.6879   -1.8484   -1.8218 C   0  0  0  0  0  0  0  0  0  0  0  0
    3.3030   -2.6390   -2.5813 N   0  0  0  0  0  0  0  0  0  0  0  0
    0.5490    2.0154    0.4975 C   0  0  0  0  0  0  0  0  0  0  0  0
   -0.7656    1.5418    0.3892 C   0  0  0  0  0  0  0  0  0  0  0  0
   -3.9710   -0.0089   -1.7717 H   0  0  0  0  0  0  0  0  0  0  0  0
   -4.6387    1.5767   -1.3491 H   0  0  0  0  0  0  0  0  0  0  0  0
   -2.9076    1.3986   -1.6783 H   0  0  0  0  0  0  0  0  0  0  0  0
   -3.4295    1.5645    0.8235 H   0  0  0  0  0  0  0  0  0  0  0  0
   -4.4596    0.1751    0.6668 H   0  0  0  0  0  0  0  0  0  0  0  0
   -3.6486   -1.8916   -0.0964 H   0  0  0  0  0  0  0  0  0  0  0  0
   -1.9685   -2.3178    0.0131 H   0  0  0  0  0  0  0  0  0  0  0  0
   -3.2590   -3.2332    1.9309 H   0  0  0  0  0  0  0  0  0  0  0  0
   -2.1147   -2.0339    2.5551 H   0  0  0  0  0  0  0  0  0  0  0  0
   -3.8206   -1.6125    2.3743 H   0  0  0  0  0  0  0  0  0  0  0  0
   -0.2008   -1.7277    1.0829 H   0  0  0  0  0  0  0  0  0  0  0  0
    2.0708   -0.9230    1.2844 H   0  0  0  0  0  0  0  0  0  0  0  0
    3.1459    2.2648    1.7622 H   0  0  0  0  0  0  0  0  0  0  0  0
    2.6561    0.6363   -1.5020 H   0  0  0  0  0  0  0  0  0  0  0  0
    5.0428   -0.4200    0.6905 H   0  0  0  0  0  0  0  0  0  0  0  0
    0.7542    3.0706    0.3363 H   0  0  0  0  0  0  0  0  0  0  0  0
   -1.5257    2.2760    0.1382 H   0  0  0  0  0  0  0  0  0  0  0  0
  1  2  1  0
  2  3  1  0
  3  4  1  0
  4  5  1  0
  3  6  1  0
  6  7  2  0
  7  8  1  0
  8  9  2  0
  9 10  1  0
 10 11  2  3
 11 12  1  0
 12 13  1  0
 13 14  3  0
 12 15  1  0
 15 16  2  3
 15 17  1  0
 17 18  3  0
  9 19  1  0
 19 20  2  0
 20  6  1  0
  1 21  1  0
  1 22  1  0
  1 23  1  0
  2 24  1  0
  2 25  1  0
  4 26  1  0
  4 27  1  0
  5 28  1  0
  5 29  1  0
  5 30  1  0
  7 31  1  0
  8 32  1  0
 10 33  1  0
 12 34  1  0
 16 35  1  0
 19 36  1  0
 20 37  1  0
M  END
$$$$
