
     RDKit          3D

 45 48  0  0  0  0  0  0  0  0999 V2000
   -3.0172    2.2138   -1.1454 C   0  0  0  0  0  0  0  0  0  0  0  0
   -3.8124    1.0666   -1.7714 C   0  0  0  0  0  0  0  0  0  0  0  0
   -5.0564    0.7655   -0.9357 C   0  0  0  0  0  0  0  0  0  0  0  0
   -2.9495   -0.1852   -2.0277 C   0  0  0  0  0  0  0  0  0  0  0  0
   -2.3782   -0.7949   -0.8268 N   0  0  0  0  0  0  0  0  0  0  0  0
   -1.1941   -0.2576   -0.3851 N   0  0  0  0  0  0  0  0  0  0  0  0
   -0.6442   -0.7350    0.6950 C   0  0  0  0  0  0  0  0  0  0  0  0
    0.6624   -0.0581    1.1062 C   0  0  0  0  0  0  0  0  0  0  0  0
    0.8910    0.1519    2.2844 O   0  0  0  0  0  0  0  0  0  0  0  0
    1.4243    0.2524    0.0090 N   0  0  0  0  0  0  0  0  0  0  0  0
    2.6420    0.8544    0.1153 C   0  0  0  0  0  0  0  0  0  0  0  0
    3.3366    1.1763    1.1785 N   0  0  0  0  0  0  0  0  0  0  0  0
    4.5411    1.7706    0.8401 N   0  0  0  0  0  0  0  0  0  0  0  0
    4.6893    1.8548   -0.4625 C   0  0  0  0  0  0  0  0  0  0  0  0
    5.9564    2.4821   -1.1212 C   0  0  0  0  0  0  0  0  0  0  0  0
    6.9966    1.5710   -1.7241 C   0  0  0  0  0  0  0  0  0  0  0  0
    7.2959    2.3077   -0.4509 C   0  0  0  0  0  0  0  0  0  0  0  0
    3.3812    1.2348   -1.3759 S   0  0  0  0  0  0  0  0  0  0  0  0
   -1.1953   -1.8639    1.4631 C   0  0  0  0  0  0  0  0  0  0  0  0
   -0.5727   -2.4195    2.5885 C   0  0  0  0  0  0  0  0  0  0  0  0
   -1.1597   -3.5001    3.2543 C   0  0  0  0  0  0  0  0  0  0  0  0
   -2.3634   -4.0338    2.8002 C   0  0  0  0  0  0  0  0  0  0  0  0
   -2.9800   -3.4912    1.6740 C   0  0  0  0  0  0  0  0  0  0  0  0
   -2.3916   -2.4081    1.0048 C   0  0  0  0  0  0  0  0  0  0  0  0
   -3.0352   -1.8539   -0.2019 C   0  0  0  0  0  0  0  0  0  0  0  0
   -4.0886   -2.3432   -0.6009 O   0  0  0  0  0  0  0  0  0  0  0  0
   -3.6166    3.1311   -1.1333 H   0  0  0  0  0  0  0  0  0  0  0  0
   -2.7319    1.9951   -0.1117 H   0  0  0  0  0  0  0  0  0  0  0  0
   -2.1078    2.4190   -1.7195 H   0  0  0  0  0  0  0  0  0  0  0  0
   -4.1584    1.4132   -2.7545 H   0  0  0  0  0  0  0  0  0  0  0  0
   -4.7970    0.4639    0.0849 H   0  0  0  0  0  0  0  0  0  0  0  0
   -5.6964    1.6523   -0.8660 H   0  0  0  0  0  0  0  0  0  0  0  0
   -5.6480   -0.0351   -1.3930 H   0  0  0  0  0  0  0  0  0  0  0  0
   -3.5511   -0.9362   -2.5538 H   0  0  0  0  0  0  0  0  0  0  0  0
   -2.1180    0.0697   -2.6969 H   0  0  0  0  0  0  0  0  0  0  0  0
    1.0310    0.1087   -0.9121 H   0  0  0  0  0  0  0  0  0  0  0  0
    5.7749    3.4333   -1.6106 H   0  0  0  0  0  0  0  0  0  0  0  0
    6.8553    0.4973   -1.6608 H   0  0  0  0  0  0  0  0  0  0  0  0
    7.4991    1.8961   -2.6286 H   0  0  0  0  0  0  0  0  0  0  0  0
    7.9922    3.1373   -0.4905 H   0  0  0  0  0  0  0  0  0  0  0  0
    7.3417    1.7390    0.4719 H   0  0  0  0  0  0  0  0  0  0  0  0
    0.3663   -2.0335    2.9770 H   0  0  0  0  0  0  0  0  0  0  0  0
   -0.6759   -3.9221    4.1330 H   0  0  0  0  0  0  0  0  0  0  0  0
   -2.8208   -4.8722    3.3215 H   0  0  0  0  0  0  0  0  0  0  0  0
   -3.9173   -3.9142    1.3174 H   0  0  0  0  0  0  0  0  0  0  0  0
  1  2  1  0
  2  3  1  0
  2  4  1  0
  4  5  1  0
  5  6  1  0
  6  7  2  0
  7  8  1  0
  8  9  2  0
  8 10  1  0
 10 11  1  0
 11 12  2  0
 12 13  1  0
 13 14  2  0
 14 15  1  0
 15 16  1  0
 16 17  1  0
 14 18  1  0
  7 19  1  0
 19 20  2  0
 20 21  1  0
 21 22  2  0
 22 23  1  0
 23 24  2  0
 24 25  1  0
 25 26  2  0
 25  5  1  0
 18 11  1  0
 24 19  1  0
 17 15  1  0
  1 27  1  0
  1 28  1  0
  1 29  1  0
  2 30  1  0
  3 31  1  0
  3 32  1  0
  3 33  1  0
  4 34  1  0
  4 35  1  0
 10 36  1  0
 15 37  1  0
 16 38  1  0
 16 39  1  0
 17 40  1  0
 17 41  1  0
 20 42  1  0
 21 43  1  0
 22 44  1  0
 23 45  1  0
M  END
$$$$
