
     RDKit          3D

 59 62  0  0  0  0  0  0  0  0999 V2000
   -6.1611    2.5336    3.5567 C   0  0  0  0  0  0  0  0  0  0  0  0
   -7.0474    1.9333    2.6184 O   0  0  0  0  0  0  0  0  0  0  0  0
   -6.4929    1.0833    1.7011 C   0  0  0  0  0  0  0  0  0  0  0  0
   -7.4049    0.4942    0.8278 C   0  0  0  0  0  0  0  0  0  0  0  0
   -6.9680   -0.3995   -0.1489 C   0  0  0  0  0  0  0  0  0  0  0  0
   -5.6036   -0.7066   -0.2565 C   0  0  0  0  0  0  0  0  0  0  0  0
   -5.1201   -1.6037   -1.2141 C   0  0  0  0  0  0  0  0  0  0  0  0
   -3.7501   -1.8816   -1.2807 C   0  0  0  0  0  0  0  0  0  0  0  0
   -3.2798   -2.8283   -2.2447 C   0  0  0  0  0  0  0  0  0  0  0  0
   -2.9290   -3.5738   -3.0597 N   0  0  0  0  0  0  0  0  0  0  0  0
   -2.8831   -1.2428   -0.3876 C   0  0  0  0  0  0  0  0  0  0  0  0
   -1.4943   -1.4866   -0.4278 N   0  0  0  0  0  0  0  0  0  0  0  0
   -0.8372   -1.2709    0.8824 C   0  0  0  0  0  0  0  0  0  0  0  0
    0.6641   -1.6269    0.7785 C   0  0  0  0  0  0  0  0  0  0  0  0
    1.4173   -0.9240   -0.2979 N   0  0  0  0  0  0  0  0  0  0  0  0
    1.6334    0.5016    0.0088 C   0  0  0  0  0  0  0  0  0  0  0  0
    2.5746    0.7320    1.1389 C   0  0  0  0  0  0  0  0  0  0  0  0
    2.3529    1.4873    2.1964 N   0  0  0  0  0  0  0  0  0  0  0  0
    3.4953    1.4369    2.9548 N   0  0  0  0  0  0  0  0  0  0  0  0
    4.4087    0.6678    2.3871 N   0  0  0  0  0  0  0  0  0  0  0  0
    3.8437    0.2250    1.2492 N   0  0  0  0  0  0  0  0  0  0  0  0
    4.5631   -0.6999    0.4051 C   0  0  0  0  0  0  0  0  0  0  0  0
    4.9983   -0.1320   -0.9491 C   0  0  0  0  0  0  0  0  0  0  0  0
    5.9333    1.0914   -0.8847 C   0  0  0  0  0  0  0  0  0  0  0  0
    7.2487    0.7810   -0.1652 C   0  0  0  0  0  0  0  0  0  0  0  0
    6.2273    1.5901   -2.3043 C   0  0  0  0  0  0  0  0  0  0  0  0
    0.6690   -1.0810   -1.5716 C   0  0  0  0  0  0  0  0  0  0  0  0
   -0.8358   -0.7187   -1.5077 C   0  0  0  0  0  0  0  0  0  0  0  0
   -3.3569   -0.3800    0.5460 N   0  0  0  0  0  0  0  0  0  0  0  0
   -4.6736   -0.1136    0.6164 C   0  0  0  0  0  0  0  0  0  0  0  0
   -5.1365    0.7739    1.5814 C   0  0  0  0  0  0  0  0  0  0  0  0
   -5.4491    3.1955    3.0541 H   0  0  0  0  0  0  0  0  0  0  0  0
   -5.6421    1.7785    4.1539 H   0  0  0  0  0  0  0  0  0  0  0  0
   -6.7606    3.1457    4.2396 H   0  0  0  0  0  0  0  0  0  0  0  0
   -8.4637    0.7306    0.9137 H   0  0  0  0  0  0  0  0  0  0  0  0
   -7.6976   -0.8509   -0.8166 H   0  0  0  0  0  0  0  0  0  0  0  0
   -5.8070   -2.0947   -1.9010 H   0  0  0  0  0  0  0  0  0  0  0  0
   -0.9408   -0.2309    1.2191 H   0  0  0  0  0  0  0  0  0  0  0  0
   -1.2937   -1.9205    1.6398 H   0  0  0  0  0  0  0  0  0  0  0  0
    0.7489   -2.7056    0.5811 H   0  0  0  0  0  0  0  0  0  0  0  0
    1.1431   -1.4743    1.7538 H   0  0  0  0  0  0  0  0  0  0  0  0
    2.0635    1.0036   -0.8679 H   0  0  0  0  0  0  0  0  0  0  0  0
    0.6904    1.0203    0.2181 H   0  0  0  0  0  0  0  0  0  0  0  0
    5.4350   -1.0602    0.9636 H   0  0  0  0  0  0  0  0  0  0  0  0
    3.9217   -1.5745    0.2589 H   0  0  0  0  0  0  0  0  0  0  0  0
    4.1108    0.1304   -1.5340 H   0  0  0  0  0  0  0  0  0  0  0  0
    5.4987   -0.9350   -1.5059 H   0  0  0  0  0  0  0  0  0  0  0  0
    5.4307    1.9054   -0.3479 H   0  0  0  0  0  0  0  0  0  0  0  0
    7.9399    1.6281   -0.2282 H   0  0  0  0  0  0  0  0  0  0  0  0
    7.7426   -0.0911   -0.6043 H   0  0  0  0  0  0  0  0  0  0  0  0
    7.0798    0.5782    0.8980 H   0  0  0  0  0  0  0  0  0  0  0  0
    5.3006    1.8763   -2.8154 H   0  0  0  0  0  0  0  0  0  0  0  0
    6.8800    2.4712   -2.2817 H   0  0  0  0  0  0  0  0  0  0  0  0
    6.7236    0.8168   -2.9027 H   0  0  0  0  0  0  0  0  0  0  0  0
    1.1542   -0.4994   -2.3649 H   0  0  0  0  0  0  0  0  0  0  0  0
    0.7624   -2.1319   -1.8810 H   0  0  0  0  0  0  0  0  0  0  0  0
   -0.9549    0.3592   -1.3381 H   0  0  0  0  0  0  0  0  0  0  0  0
   -1.2770   -0.9458   -2.4849 H   0  0  0  0  0  0  0  0  0  0  0  0
   -4.3952    1.2138    2.2437 H   0  0  0  0  0  0  0  0  0  0  0  0
  1  2  1  0
  2  3  1  0
  3  4  2  0
  4  5  1  0
  5  6  2  0
  6  7  1  0
  7  8  2  0
  8  9  1  0
  9 10  3  0
  8 11  1  0
 11 12  1  0
 12 13  1  0
 13 14  1  0
 14 15  1  0
 15 16  1  0
 16 17  1  0
 17 18  2  0
 18 19  1  0
 19 20  2  0
 20 21  1  0
 21 22  1  0
 22 23  1  0
 23 24  1  0
 24 25  1  0
 24 26  1  0
 15 27  1  0
 27 28  1  0
 11 29  2  0
 29 30  1  0
 30 31  2  0
 31  3  1  0
 30  6  1  0
 28 12  1  0
 21 17  1  0
  1 32  1  0
  1 33  1  0
  1 34  1  0
  4 35  1  0
  5 36  1  0
  7 37  1  0
 13 38  1  0
 13 39  1  0
 14 40  1  0
 14 41  1  0
 16 42  1  0
 16 43  1  0
 22 44  1  0
 22 45  1  0
 23 46  1  0
 23 47  1  0
 24 48  1  0
 25 49  1  0
 25 50  1  0
 25 51  1  0
 26 52  1  0
 26 53  1  0
 26 54  1  0
 27 55  1  0
 27 56  1  0
 28 57  1  0
 28 58  1  0
 31 59  1  0
M  END
$$$$
