
     RDKit          3D

 36 38  0  0  0  0  0  0  0  0999 V2000
   -6.9260    0.3732   -0.4711 C   0  0  0  0  0  0  0  0  0  0  0  0
   -5.4975    0.1478   -0.0686 C   0  0  0  0  0  0  0  0  0  0  0  0
   -5.0618    0.5079    1.2141 C   0  0  0  0  0  0  0  0  0  0  0  0
   -3.7438    0.2706    1.6057 C   0  0  0  0  0  0  0  0  0  0  0  0
   -2.8591   -0.3332    0.7087 C   0  0  0  0  0  0  0  0  0  0  0  0
   -1.1802   -0.6255    1.2097 S   0  0  0  0  0  6  0  0  0  0  0  0
   -1.1757   -0.8152    2.6417 O   0  0  0  0  0  0  0  0  0  0  0  0
   -0.6053   -1.5975    0.3020 O   0  0  0  0  0  0  0  0  0  0  0  0
   -0.4776    0.8927    0.8517 N   0  0  0  0  0  0  0  0  0  0  0  0
    0.8738    0.7818    0.1725 N   0  0  0  0  0  0  0  0  0  0  0  0
    1.9768    0.3669    0.9014 C   0  0  0  0  0  0  0  0  0  0  0  0
    2.0295    0.1583    2.1046 O   0  0  0  0  0  0  0  0  0  0  0  0
    3.1386    0.2202   -0.0247 C   0  0  0  0  0  0  0  0  0  0  0  0
    4.3236   -0.1991    0.4411 C   0  0  0  0  0  0  0  0  0  0  0  0
    5.4998   -0.3911   -0.3408 C   0  0  0  0  0  0  0  0  0  0  0  0
    6.0517    0.3573   -1.3678 C   0  0  0  0  0  0  0  0  0  0  0  0
    7.2644   -0.1942   -1.8762 C   0  0  0  0  0  0  0  0  0  0  0  0
    7.6227   -1.3435   -1.2134 C   0  0  0  0  0  0  0  0  0  0  0  0
    6.5104   -1.7451    0.0169 S   0  0  0  0  0  0  0  0  0  0  0  0
    2.6683    0.6047   -1.6407 S   0  0  0  0  0  0  0  0  0  0  0  0
    1.0071    0.9408   -1.1883 C   0  0  0  0  0  0  0  0  0  0  0  0
   -0.1823    1.4117   -2.2579 S   0  0  0  0  0  0  0  0  0  0  0  0
   -3.2854   -0.7248   -0.5619 C   0  0  0  0  0  0  0  0  0  0  0  0
   -4.6049   -0.4826   -0.9464 C   0  0  0  0  0  0  0  0  0  0  0  0
   -7.0160    0.4743   -1.5581 H   0  0  0  0  0  0  0  0  0  0  0  0
   -7.5439   -0.4683   -0.1431 H   0  0  0  0  0  0  0  0  0  0  0  0
   -7.3139    1.2953   -0.0255 H   0  0  0  0  0  0  0  0  0  0  0  0
   -5.7519    0.9705    1.9175 H   0  0  0  0  0  0  0  0  0  0  0  0
   -3.4207    0.5491    2.6070 H   0  0  0  0  0  0  0  0  0  0  0  0
   -1.1288    1.5157    0.3653 H   0  0  0  0  0  0  0  0  0  0  0  0
    4.4011   -0.4515    1.4994 H   0  0  0  0  0  0  0  0  0  0  0  0
    5.6149    1.2735   -1.7455 H   0  0  0  0  0  0  0  0  0  0  0  0
    7.8456    0.2360   -2.6827 H   0  0  0  0  0  0  0  0  0  0  0  0
    8.4904   -1.9653   -1.3863 H   0  0  0  0  0  0  0  0  0  0  0  0
   -2.6080   -1.2187   -1.2551 H   0  0  0  0  0  0  0  0  0  0  0  0
   -4.9359   -0.7930   -1.9360 H   0  0  0  0  0  0  0  0  0  0  0  0
  1  2  1  0
  2  3  2  0
  3  4  1  0
  4  5  2  0
  5  6  1  0
  6  7  2  0
  6  8  2  0
  6  9  1  0
  9 10  1  0
 10 11  1  0
 11 12  2  0
 11 13  1  0
 13 14  2  3
 14 15  1  0
 15 16  2  0
 16 17  1  0
 17 18  2  0
 18 19  1  0
 13 20  1  0
 20 21  1  0
 21 22  2  0
  5 23  1  0
 23 24  2  0
 24  2  1  0
 21 10  1  0
 19 15  1  0
  1 25  1  0
  1 26  1  0
  1 27  1  0
  3 28  1  0
  4 29  1  0
  9 30  1  0
 14 31  1  0
 16 32  1  0
 17 33  1  0
 18 34  1  0
 23 35  1  0
 24 36  1  0
M  END
$$$$
