
     RDKit          3D

 72 77  0  0  0  0  0  0  0  0999 V2000
    2.7520    0.3739   -1.4340 O   0  0  0  0  0  0  0  0  0  0  0  0
    3.4170   -0.6521   -1.5682 C   0  0  0  0  0  0  0  0  0  0  0  0
    2.7636   -2.0147   -1.7242 C   0  0  0  0  0  0  0  0  0  0  0  0
    3.0345   -3.0533   -0.2590 S   0  0  0  0  0  0  0  0  0  0  0  0
    2.5105   -1.9152    0.9750 C   0  0  0  0  0  0  0  0  0  0  0  0
    3.4683   -1.3335    1.6443 N   0  0  0  0  0  0  0  0  0  0  0  0
    3.1463   -0.4007    2.6551 C   0  0  0  0  0  0  0  0  0  0  0  0
    4.1823    0.2094    3.3644 C   0  0  0  0  0  0  0  0  0  0  0  0
    3.9009    1.1281    4.3777 C   0  0  0  0  0  0  0  0  0  0  0  0
    2.5774    1.4453    4.6883 C   0  0  0  0  0  0  0  0  0  0  0  0
    1.5320    0.8458    3.9859 C   0  0  0  0  0  0  0  0  0  0  0  0
    1.8172   -0.0731    2.9742 C   0  0  0  0  0  0  0  0  0  0  0  0
    0.7807   -0.7455    2.2137 C   0  0  0  0  0  0  0  0  0  0  0  0
   -0.5281   -0.6354    2.3181 N   0  0  0  0  0  0  0  0  0  0  0  0
   -1.0426   -1.5101    1.3892 C   0  0  0  0  0  0  0  0  0  0  0  0
   -2.5169   -1.6971    1.2908 C   0  0  0  0  0  0  0  0  0  0  0  0
   -2.9841   -1.7221   -0.1562 C   0  0  0  0  0  0  0  0  0  0  0  0
   -2.6500   -2.6693   -0.8799 O   0  0  0  0  0  0  0  0  0  0  0  0
   -3.7672   -0.6853   -0.6249 N   0  0  0  0  0  0  0  0  0  0  0  0
   -4.0866    0.5317    0.1396 C   0  0  0  0  0  0  0  0  0  0  0  0
   -4.7710    1.6181   -0.7126 C   0  0  0  0  0  0  0  0  0  0  0  0
   -5.9589    1.0693   -1.3946 N   0  0  0  0  0  0  0  0  0  0  0  0
   -7.2639    1.4834   -1.1205 C   0  0  0  0  0  0  0  0  0  0  0  0
   -7.5753    2.5002   -0.2004 C   0  0  0  0  0  0  0  0  0  0  0  0
   -8.8963    2.9022    0.0633 C   0  0  0  0  0  0  0  0  0  0  0  0
   -9.9578    2.2999   -0.5967 C   0  0  0  0  0  0  0  0  0  0  0  0
   -9.6941    1.3035   -1.5264 C   0  0  0  0  0  0  0  0  0  0  0  0
   -8.3699    0.9136   -1.7842 C   0  0  0  0  0  0  0  0  0  0  0  0
   -5.7493   -0.2400   -2.0670 C   0  0  0  0  0  0  0  0  0  0  0  0
   -4.2899   -0.7298   -1.9943 C   0  0  0  0  0  0  0  0  0  0  0  0
   -0.0209   -2.1500    0.7029 C   0  0  0  0  0  0  0  0  0  0  0  0
   -0.0456   -3.0631   -0.2644 O   0  0  0  0  0  0  0  0  0  0  0  0
    1.1542   -1.6520    1.2404 N   0  0  0  0  0  0  0  0  0  0  0  0
    4.7915   -0.6730   -1.5910 N   0  0  0  0  0  0  0  0  0  0  0  0
    5.6045    0.5162   -1.4075 C   0  0  0  0  0  0  0  0  0  0  0  0
    6.8015    0.2246   -0.4887 C   0  0  0  0  0  0  0  0  0  0  0  0
    7.7011    1.4396   -0.3016 C   0  0  0  0  0  0  0  0  0  0  0  0
    8.7471    1.2495   -1.3764 C   0  0  0  0  0  0  0  0  0  0  0  0
    8.9125   -0.2534   -1.3863 C   0  0  0  0  0  0  0  0  0  0  0  0
    7.6174   -0.8043   -1.1031 O   0  0  0  0  0  0  0  0  0  0  0  0
    3.1829   -2.5136   -2.6039 H   0  0  0  0  0  0  0  0  0  0  0  0
    1.6932   -1.8736   -1.9058 H   0  0  0  0  0  0  0  0  0  0  0  0
    5.2136   -0.0415    3.1282 H   0  0  0  0  0  0  0  0  0  0  0  0
    4.7155    1.5937    4.9272 H   0  0  0  0  0  0  0  0  0  0  0  0
    2.3602    2.1580    5.4804 H   0  0  0  0  0  0  0  0  0  0  0  0
    0.5001    1.0874    4.2295 H   0  0  0  0  0  0  0  0  0  0  0  0
   -3.0386   -0.9428    1.8851 H   0  0  0  0  0  0  0  0  0  0  0  0
   -2.7878   -2.6660    1.7332 H   0  0  0  0  0  0  0  0  0  0  0  0
   -4.7521    0.2330    0.9598 H   0  0  0  0  0  0  0  0  0  0  0  0
   -3.1595    0.9266    0.5685 H   0  0  0  0  0  0  0  0  0  0  0  0
   -4.0707    1.9638   -1.4861 H   0  0  0  0  0  0  0  0  0  0  0  0
   -4.9653    2.4939   -0.0919 H   0  0  0  0  0  0  0  0  0  0  0  0
   -6.8064    3.0205    0.3573 H   0  0  0  0  0  0  0  0  0  0  0  0
   -9.0832    3.6922    0.7874 H   0  0  0  0  0  0  0  0  0  0  0  0
  -10.9810    2.6084   -0.3920 H   0  0  0  0  0  0  0  0  0  0  0  0
  -10.5133    0.8287   -2.0618 H   0  0  0  0  0  0  0  0  0  0  0  0
   -8.2273    0.1467   -2.5394 H   0  0  0  0  0  0  0  0  0  0  0  0
   -6.0421   -0.1701   -3.1216 H   0  0  0  0  0  0  0  0  0  0  0  0
   -6.3727   -1.0023   -1.5796 H   0  0  0  0  0  0  0  0  0  0  0  0
   -4.2275   -1.7462   -2.4012 H   0  0  0  0  0  0  0  0  0  0  0  0
   -3.6397   -0.0946   -2.6088 H   0  0  0  0  0  0  0  0  0  0  0  0
   -0.9713   -3.1385   -0.6033 H   0  0  0  0  0  0  0  0  0  0  0  0
    5.2843   -1.5615   -1.6415 H   0  0  0  0  0  0  0  0  0  0  0  0
    5.9411    0.8044   -2.4099 H   0  0  0  0  0  0  0  0  0  0  0  0
    4.9979    1.3320   -0.9941 H   0  0  0  0  0  0  0  0  0  0  0  0
    6.4456   -0.1549    0.4766 H   0  0  0  0  0  0  0  0  0  0  0  0
    7.1744    2.3936   -0.3695 H   0  0  0  0  0  0  0  0  0  0  0  0
    8.1772    1.3945    0.6843 H   0  0  0  0  0  0  0  0  0  0  0  0
    8.3566    1.5859   -2.3439 H   0  0  0  0  0  0  0  0  0  0  0  0
    9.6813    1.7804   -1.1792 H   0  0  0  0  0  0  0  0  0  0  0  0
    9.5979   -0.5811   -0.5981 H   0  0  0  0  0  0  0  0  0  0  0  0
    9.2728   -0.6324   -2.3473 H   0  0  0  0  0  0  0  0  0  0  0  0
  1  2  2  0
  2  3  1  0
  3  4  1  0
  4  5  1  0
  5  6  2  0
  6  7  1  0
  7  8  2  0
  8  9  1  0
  9 10  2  0
 10 11  1  0
 11 12  2  0
 12 13  1  0
 13 14  2  0
 14 15  1  0
 15 16  1  0
 16 17  1  0
 17 18  2  0
 17 19  1  0
 19 20  1  0
 20 21  1  0
 21 22  1  0
 22 23  1  0
 23 24  2  0
 24 25  1  0
 25 26  2  0
 26 27  1  0
 27 28  2  0
 22 29  1  0
 29 30  1  0
 15 31  2  0
 31 32  1  0
 31 33  1  0
  2 34  1  0
 34 35  1  0
 35 36  1  0
 36 37  1  0
 37 38  1  0
 38 39  1  0
 39 40  1  0
 33  5  1  0
 40 36  1  0
 12  7  1  0
 33 13  1  0
 30 19  1  0
 28 23  1  0
  3 41  1  0
  3 42  1  0
  8 43  1  0
  9 44  1  0
 10 45  1  0
 11 46  1  0
 16 47  1  0
 16 48  1  0
 20 49  1  0
 20 50  1  0
 21 51  1  0
 21 52  1  0
 24 53  1  0
 25 54  1  0
 26 55  1  0
 27 56  1  0
 28 57  1  0
 29 58  1  0
 29 59  1  0
 30 60  1  0
 30 61  1  0
 32 62  1  0
 34 63  1  0
 35 64  1  0
 35 65  1  0
 36 66  1  0
 37 67  1  0
 37 68  1  0
 38 69  1  0
 38 70  1  0
 39 71  1  0
 39 72  1  0
M  END
$$$$
