
     RDKit          3D

 50 53  0  0  0  0  0  0  0  0999 V2000
   -9.9983    0.9124   -1.0350 C   0  0  0  0  0  0  0  0  0  0  0  0
   -8.6090    0.3790   -0.8317 C   0  0  0  0  0  0  0  0  0  0  0  0
   -8.3201   -0.9549   -1.1300 C   0  0  0  0  0  0  0  0  0  0  0  0
   -7.0239   -1.4605   -0.9757 C   0  0  0  0  0  0  0  0  0  0  0  0
   -5.9911   -0.6164   -0.5240 C   0  0  0  0  0  0  0  0  0  0  0  0
   -4.6712   -0.9813   -0.3277 N   0  0  0  0  0  0  0  0  0  0  0  0
   -3.9601    0.0443    0.0999 C   0  0  0  0  0  0  0  0  0  0  0  0
   -2.5124   -0.0294    0.3919 C   0  0  0  0  0  0  0  0  0  0  0  0
   -1.8021   -1.1804    0.0152 C   0  0  0  0  0  0  0  0  0  0  0  0
   -0.4285   -1.3127    0.2650 C   0  0  0  0  0  0  0  0  0  0  0  0
    0.2736   -0.2949    0.9050 C   0  0  0  0  0  0  0  0  0  0  0  0
    1.6527   -0.3440    1.1978 N   0  0  0  0  0  0  0  0  0  0  0  0
    2.5338   -1.3745    0.9197 C   0  0  0  0  0  0  0  0  0  0  0  0
    2.2617   -2.4554    0.4107 O   0  0  0  0  0  0  0  0  0  0  0  0
    3.9411   -1.0743    1.4108 C   0  0  0  0  0  0  0  0  0  0  0  0
    4.9859   -1.8664    0.6411 C   0  0  0  0  0  0  0  0  0  0  0  0
    5.3602   -1.1377   -0.9470 S   0  0  0  0  0  6  0  0  0  0  0  0
    4.1502   -0.5760   -1.5144 O   0  0  0  0  0  0  0  0  0  0  0  0
    6.1766   -2.0720   -1.6979 O   0  0  0  0  0  0  0  0  0  0  0  0
    6.4226    0.2321   -0.5293 C   0  0  0  0  0  0  0  0  0  0  0  0
    5.9271    1.5382   -0.5717 C   0  0  0  0  0  0  0  0  0  0  0  0
    6.7698    2.6001   -0.2442 C   0  0  0  0  0  0  0  0  0  0  0  0
    8.0978    2.3554    0.1108 C   0  0  0  0  0  0  0  0  0  0  0  0
    8.5923    1.0499    0.1309 C   0  0  0  0  0  0  0  0  0  0  0  0
    7.7570   -0.0180   -0.1953 C   0  0  0  0  0  0  0  0  0  0  0  0
   -0.4216    0.8569    1.2882 C   0  0  0  0  0  0  0  0  0  0  0  0
   -1.7953    0.9882    1.0369 C   0  0  0  0  0  0  0  0  0  0  0  0
   -4.8549    1.5068    0.2754 S   0  0  0  0  0  0  0  0  0  0  0  0
   -6.2888    0.7149   -0.2436 C   0  0  0  0  0  0  0  0  0  0  0  0
   -7.5858    1.2358   -0.3953 C   0  0  0  0  0  0  0  0  0  0  0  0
  -10.7462    0.1368   -0.8387 H   0  0  0  0  0  0  0  0  0  0  0  0
  -10.1156    1.2668   -2.0637 H   0  0  0  0  0  0  0  0  0  0  0  0
  -10.2033    1.7412   -0.3493 H   0  0  0  0  0  0  0  0  0  0  0  0
   -9.1038   -1.6204   -1.4871 H   0  0  0  0  0  0  0  0  0  0  0  0
   -6.8041   -2.4988   -1.2035 H   0  0  0  0  0  0  0  0  0  0  0  0
   -2.3181   -1.9978   -0.4884 H   0  0  0  0  0  0  0  0  0  0  0  0
    0.0559   -2.2275   -0.0621 H   0  0  0  0  0  0  0  0  0  0  0  0
    2.0322    0.4790    1.6467 H   0  0  0  0  0  0  0  0  0  0  0  0
    3.9696   -1.3720    2.4658 H   0  0  0  0  0  0  0  0  0  0  0  0
    4.1425    0.0004    1.3627 H   0  0  0  0  0  0  0  0  0  0  0  0
    4.6681   -2.8959    0.4467 H   0  0  0  0  0  0  0  0  0  0  0  0
    5.9248   -1.9193    1.2016 H   0  0  0  0  0  0  0  0  0  0  0  0
    4.8999    1.7393   -0.8680 H   0  0  0  0  0  0  0  0  0  0  0  0
    6.3972    3.6213   -0.2784 H   0  0  0  0  0  0  0  0  0  0  0  0
    8.7547    3.1869    0.3568 H   0  0  0  0  0  0  0  0  0  0  0  0
    9.6333    0.8679    0.3882 H   0  0  0  0  0  0  0  0  0  0  0  0
    8.1542   -1.0308   -0.2008 H   0  0  0  0  0  0  0  0  0  0  0  0
    0.0895    1.6741    1.7908 H   0  0  0  0  0  0  0  0  0  0  0  0
   -2.2839    1.9024    1.3642 H   0  0  0  0  0  0  0  0  0  0  0  0
   -7.7864    2.2809   -0.1767 H   0  0  0  0  0  0  0  0  0  0  0  0
  1  2  1  0
  2  3  2  0
  3  4  1  0
  4  5  2  0
  5  6  1  0
  6  7  2  0
  7  8  1  0
  8  9  2  0
  9 10  1  0
 10 11  2  0
 11 12  1  0
 12 13  1  0
 13 14  2  0
 13 15  1  0
 15 16  1  0
 16 17  1  0
 17 18  2  0
 17 19  2  0
 17 20  1  0
 20 21  2  0
 21 22  1  0
 22 23  2  0
 23 24  1  0
 24 25  2  0
 11 26  1  0
 26 27  2  0
  7 28  1  0
 28 29  1  0
 29 30  2  0
 30  2  1  0
 29  5  1  0
 27  8  1  0
 25 20  1  0
  1 31  1  0
  1 32  1  0
  1 33  1  0
  3 34  1  0
  4 35  1  0
  9 36  1  0
 10 37  1  0
 12 38  1  0
 15 39  1  0
 15 40  1  0
 16 41  1  0
 16 42  1  0
 21 43  1  0
 22 44  1  0
 23 45  1  0
 24 46  1  0
 25 47  1  0
 26 48  1  0
 27 49  1  0
 30 50  1  0
M  END
$$$$
