
     RDKit          3D

 42 44  0  0  0  0  0  0  0  0999 V2000
   -4.4001    2.1425    5.4773 C   0  0  0  0  0  0  0  0  0  0  0  0
   -4.4960    1.0266    4.4458 C   0  0  0  0  0  0  0  0  0  0  0  0
   -3.2425    0.9179    3.5704 C   0  0  0  0  0  0  0  0  0  0  0  0
   -3.0995    2.0863    2.5792 C   0  0  0  0  0  0  0  0  0  0  0  0
   -1.8765    1.9257    1.7062 C   0  0  0  0  0  0  0  0  0  0  0  0
   -0.6644    2.5752    2.0296 C   0  0  0  0  0  0  0  0  0  0  0  0
    0.4770    2.4046    1.2318 C   0  0  0  0  0  0  0  0  0  0  0  0
    0.4315    1.5790    0.0979 C   0  0  0  0  0  0  0  0  0  0  0  0
    1.5946    1.3781   -0.7617 C   0  0  0  0  0  0  0  0  0  0  0  0
    2.6551    2.2582   -0.8701 C   0  0  0  0  0  0  0  0  0  0  0  0
    3.8034    1.6734   -1.9988 S   0  0  0  0  0  0  0  0  0  0  0  0
    2.7878    0.3097   -2.3337 C   0  0  0  0  0  0  0  0  0  0  0  0
    3.1722   -0.6745   -3.3067 C   0  0  0  0  0  0  0  0  0  0  0  0
    3.7752   -0.2379   -4.5413 C   0  0  0  0  0  0  0  0  0  0  0  0
    4.2452    0.1736   -5.5248 N   0  0  0  0  0  0  0  0  0  0  0  0
    2.8623   -1.9678   -3.0136 C   0  0  0  0  0  0  0  0  0  0  0  0
    3.1276   -3.0879   -3.8547 C   0  0  0  0  0  0  0  0  0  0  0  0
    2.8584   -4.4362   -3.5968 C   0  0  0  0  0  0  0  0  0  0  0  0
    3.2620   -5.1787   -4.7348 C   0  0  0  0  0  0  0  0  0  0  0  0
    3.7910   -4.2659   -5.6188 C   0  0  0  0  0  0  0  0  0  0  0  0
    3.7082   -3.0120   -5.1070 O   0  0  0  0  0  0  0  0  0  0  0  0
    1.7023    0.2542   -1.5679 N   0  0  0  0  0  0  0  0  0  0  0  0
   -0.7780    0.9242   -0.2137 C   0  0  0  0  0  0  0  0  0  0  0  0
   -1.9215    1.0989    0.5776 C   0  0  0  0  0  0  0  0  0  0  0  0
   -3.4847    2.0386    6.0933 H   0  0  0  0  0  0  0  0  0  0  0  0
   -4.3818    3.1347    4.9956 H   0  0  0  0  0  0  0  0  0  0  0  0
   -5.2759    2.1036    6.1451 H   0  0  0  0  0  0  0  0  0  0  0  0
   -5.3894    1.1770    3.8166 H   0  0  0  0  0  0  0  0  0  0  0  0
   -4.6411    0.0724    4.9762 H   0  0  0  0  0  0  0  0  0  0  0  0
   -2.3415    0.8467    4.2082 H   0  0  0  0  0  0  0  0  0  0  0  0
   -3.3023   -0.0279    3.0135 H   0  0  0  0  0  0  0  0  0  0  0  0
   -3.0337    3.0427    3.1109 H   0  0  0  0  0  0  0  0  0  0  0  0
   -3.9963    2.1536    1.9428 H   0  0  0  0  0  0  0  0  0  0  0  0
   -0.6011    3.2135    2.9085 H   0  0  0  0  0  0  0  0  0  0  0  0
    1.3889    2.9093    1.5257 H   0  0  0  0  0  0  0  0  0  0  0  0
    2.8149    3.2072   -0.3761 H   0  0  0  0  0  0  0  0  0  0  0  0
    2.3709   -2.2056   -2.0594 H   0  0  0  0  0  0  0  0  0  0  0  0
    2.3902   -4.8280   -2.6947 H   0  0  0  0  0  0  0  0  0  0  0  0
    3.1685   -6.2462   -4.8818 H   0  0  0  0  0  0  0  0  0  0  0  0
    4.2186   -4.3316   -6.6155 H   0  0  0  0  0  0  0  0  0  0  0  0
   -0.8401    0.2747   -1.0848 H   0  0  0  0  0  0  0  0  0  0  0  0
   -2.8392    0.5911    0.3043 H   0  0  0  0  0  0  0  0  0  0  0  0
  1  2  1  0
  2  3  1  0
  3  4  1  0
  4  5  1  0
  5  6  2  0
  6  7  1  0
  7  8  2  0
  8  9  1  0
  9 10  2  0
 10 11  1  0
 11 12  1  0
 12 13  1  0
 13 14  1  0
 14 15  3  0
 13 16  2  3
 16 17  1  0
 17 18  2  0
 18 19  1  0
 19 20  2  0
 20 21  1  0
 12 22  2  0
  8 23  1  0
 23 24  2  0
 24  5  1  0
 22  9  1  0
 21 17  1  0
  1 25  1  0
  1 26  1  0
  1 27  1  0
  2 28  1  0
  2 29  1  0
  3 30  1  0
  3 31  1  0
  4 32  1  0
  4 33  1  0
  6 34  1  0
  7 35  1  0
 10 36  1  0
 16 37  1  0
 18 38  1  0
 19 39  1  0
 20 40  1  0
 23 41  1  0
 24 42  1  0
M  END
$$$$
