
     RDKit          3D

 39 41  0  0  0  0  0  0  0  0999 V2000
   -0.2324    5.3411   -2.2090 C   0  0  0  0  0  0  0  0  0  0  0  0
    0.0065    4.0253   -1.4889 C   0  0  0  0  0  0  0  0  0  0  0  0
   -1.1386    2.7576   -2.1252 S   0  0  0  0  0  0  0  0  0  0  0  0
   -0.6805    1.3614   -1.1057 C   0  0  0  0  0  0  0  0  0  0  0  0
   -1.4663    0.2289   -1.1490 C   0  0  0  0  0  0  0  0  0  0  0  0
   -1.0869   -0.8425   -0.3678 C   0  0  0  0  0  0  0  0  0  0  0  0
   -1.8078   -2.0100   -0.3379 N   0  0  0  0  0  0  0  0  0  0  0  0
   -2.7686   -2.4239   -1.3514 C   0  0  0  0  0  0  0  0  0  0  0  0
   -2.8215   -3.9457   -1.2129 C   0  0  0  0  0  0  0  0  0  0  0  0
   -2.4395   -4.1845    0.2394 C   0  0  0  0  0  0  0  0  0  0  0  0
   -1.3633   -3.1302    0.4819 C   0  0  0  0  0  0  0  0  0  0  0  0
    0.0041   -0.7559    0.4124 N   0  0  0  0  0  0  0  0  0  0  0  0
    0.7055    0.3926    0.4076 C   0  0  0  0  0  0  0  0  0  0  0  0
    1.9212    0.4335    1.2291 C   0  0  0  0  0  0  0  0  0  0  0  0
    2.8118   -0.6627    1.1897 C   0  0  0  0  0  0  0  0  0  0  0  0
    3.9946   -0.6775    1.9337 C   0  0  0  0  0  0  0  0  0  0  0  0
    4.3156    0.4051    2.7435 C   0  0  0  0  0  0  0  0  0  0  0  0
    3.4499    1.4948    2.8134 C   0  0  0  0  0  0  0  0  0  0  0  0
    2.2614    1.5110    2.0676 C   0  0  0  0  0  0  0  0  0  0  0  0
    1.2353    2.8901    2.2882 Cl  0  0  0  0  0  0  0  0  0  0  0  0
    0.4186    1.4589   -0.3480 N   0  0  0  0  0  0  0  0  0  0  0  0
   -0.0566    5.2481   -3.2861 H   0  0  0  0  0  0  0  0  0  0  0  0
   -1.2530    5.7064   -2.0519 H   0  0  0  0  0  0  0  0  0  0  0  0
    0.4540    6.1040   -1.8267 H   0  0  0  0  0  0  0  0  0  0  0  0
    1.0407    3.7049   -1.6499 H   0  0  0  0  0  0  0  0  0  0  0  0
   -0.1585    4.1623   -0.4157 H   0  0  0  0  0  0  0  0  0  0  0  0
   -2.3521    0.1961   -1.7677 H   0  0  0  0  0  0  0  0  0  0  0  0
   -2.4648   -2.1509   -2.3679 H   0  0  0  0  0  0  0  0  0  0  0  0
   -3.7478   -1.9813   -1.1378 H   0  0  0  0  0  0  0  0  0  0  0  0
   -2.0770   -4.4067   -1.8734 H   0  0  0  0  0  0  0  0  0  0  0  0
   -3.8029   -4.3549   -1.4686 H   0  0  0  0  0  0  0  0  0  0  0  0
   -2.0807   -5.2007    0.4242 H   0  0  0  0  0  0  0  0  0  0  0  0
   -3.3038   -3.9991    0.8886 H   0  0  0  0  0  0  0  0  0  0  0  0
   -1.3012   -2.8741    1.5450 H   0  0  0  0  0  0  0  0  0  0  0  0
   -0.3884   -3.4972    0.1388 H   0  0  0  0  0  0  0  0  0  0  0  0
    2.5783   -1.5209    0.5593 H   0  0  0  0  0  0  0  0  0  0  0  0
    4.6605   -1.5352    1.8774 H   0  0  0  0  0  0  0  0  0  0  0  0
    5.2335    0.3995    3.3258 H   0  0  0  0  0  0  0  0  0  0  0  0
    3.7007    2.3323    3.4604 H   0  0  0  0  0  0  0  0  0  0  0  0
  1  2  1  0
  2  3  1  0
  3  4  1  0
  4  5  2  0
  5  6  1  0
  6  7  1  0
  7  8  1  0
  8  9  1  0
  9 10  1  0
 10 11  1  0
  6 12  2  0
 12 13  1  0
 13 14  1  0
 14 15  2  0
 15 16  1  0
 16 17  2  0
 17 18  1  0
 18 19  2  0
 19 20  1  0
 13 21  2  0
 21  4  1  0
 11  7  1  0
 19 14  1  0
  1 22  1  0
  1 23  1  0
  1 24  1  0
  2 25  1  0
  2 26  1  0
  5 27  1  0
  8 28  1  0
  8 29  1  0
  9 30  1  0
  9 31  1  0
 10 32  1  0
 10 33  1  0
 11 34  1  0
 11 35  1  0
 15 36  1  0
 16 37  1  0
 17 38  1  0
 18 39  1  0
M  END
$$$$
