
     RDKit          3D

 44 46  0  0  0  0  0  0  0  0999 V2000
    7.7132   -1.0677    0.2008 C   0  0  0  0  0  0  0  0  0  0  0  0
    7.0847   -0.5032   -1.0594 C   0  0  0  0  0  0  0  0  0  0  0  0
    5.6732   -0.3240   -0.8705 O   0  0  0  0  0  0  0  0  0  0  0  0
    5.2978    0.8576   -0.3205 C   0  0  0  0  0  0  0  0  0  0  0  0
    6.0449    1.7602    0.0219 O   0  0  0  0  0  0  0  0  0  0  0  0
    3.8174    0.9211   -0.1784 C   0  0  0  0  0  0  0  0  0  0  0  0
    2.9764   -0.1294   -0.5618 C   0  0  0  0  0  0  0  0  0  0  0  0
    1.5882   -0.0172   -0.4064 C   0  0  0  0  0  0  0  0  0  0  0  0
    1.0137    1.1380    0.1350 C   0  0  0  0  0  0  0  0  0  0  0  0
   -0.3717    1.3166    0.2996 N   0  0  0  0  0  0  0  0  0  0  0  0
   -1.4612    0.6030   -0.2132 C   0  0  0  0  0  0  0  0  0  0  0  0
   -1.4817    0.1198   -1.5053 C   0  0  0  0  0  0  0  0  0  0  0  0
   -2.6195   -0.5462   -1.9088 C   0  0  0  0  0  0  0  0  0  0  0  0
   -2.7215   -1.0972   -3.2985 C   0  0  0  0  0  0  0  0  0  0  0  0
   -3.6752   -0.7200   -1.0937 N   0  0  0  0  0  0  0  0  0  0  0  0
   -3.5858   -0.1980    0.1445 C   0  0  0  0  0  0  0  0  0  0  0  0
   -4.7415   -0.3675    1.0506 C   0  0  0  0  0  0  0  0  0  0  0  0
   -4.7294    0.1409    2.3645 C   0  0  0  0  0  0  0  0  0  0  0  0
   -5.8224   -0.0192    3.2230 C   0  0  0  0  0  0  0  0  0  0  0  0
   -6.9581   -0.6940    2.7865 C   0  0  0  0  0  0  0  0  0  0  0  0
   -7.0013   -1.2079    1.4944 C   0  0  0  0  0  0  0  0  0  0  0  0
   -5.9061   -1.0456    0.6393 C   0  0  0  0  0  0  0  0  0  0  0  0
   -2.5119    0.4686    0.6110 N   0  0  0  0  0  0  0  0  0  0  0  0
    1.8661    2.1829    0.5189 C   0  0  0  0  0  0  0  0  0  0  0  0
    3.2528    2.0796    0.3650 C   0  0  0  0  0  0  0  0  0  0  0  0
    7.2197   -2.0009    0.4916 H   0  0  0  0  0  0  0  0  0  0  0  0
    7.6020   -0.3738    1.0400 H   0  0  0  0  0  0  0  0  0  0  0  0
    8.7783   -1.2639    0.0487 H   0  0  0  0  0  0  0  0  0  0  0  0
    7.2091   -1.2140   -1.8829 H   0  0  0  0  0  0  0  0  0  0  0  0
    7.5684    0.4316   -1.3654 H   0  0  0  0  0  0  0  0  0  0  0  0
    3.3833   -1.0482   -0.9773 H   0  0  0  0  0  0  0  0  0  0  0  0
    0.9719   -0.8671   -0.6865 H   0  0  0  0  0  0  0  0  0  0  0  0
   -0.6127    1.6253    1.2380 H   0  0  0  0  0  0  0  0  0  0  0  0
   -0.6543    0.2792   -2.1839 H   0  0  0  0  0  0  0  0  0  0  0  0
   -3.6794   -1.6063   -3.4469 H   0  0  0  0  0  0  0  0  0  0  0  0
   -2.6479   -0.2886   -4.0323 H   0  0  0  0  0  0  0  0  0  0  0  0
   -1.9203   -1.8208   -3.4787 H   0  0  0  0  0  0  0  0  0  0  0  0
   -3.8540    0.6733    2.7331 H   0  0  0  0  0  0  0  0  0  0  0  0
   -5.7823    0.3848    4.2313 H   0  0  0  0  0  0  0  0  0  0  0  0
   -7.8080   -0.8191    3.4520 H   0  0  0  0  0  0  0  0  0  0  0  0
   -7.8853   -1.7360    1.1467 H   0  0  0  0  0  0  0  0  0  0  0  0
   -5.9672   -1.4578   -0.3671 H   0  0  0  0  0  0  0  0  0  0  0  0
    1.4506    3.0998    0.9322 H   0  0  0  0  0  0  0  0  0  0  0  0
    3.8872    2.9103    0.6691 H   0  0  0  0  0  0  0  0  0  0  0  0
  1  2  1  0
  2  3  1  0
  3  4  1  0
  4  5  2  0
  4  6  1  0
  6  7  2  0
  7  8  1  0
  8  9  2  0
  9 10  1  0
 10 11  1  0
 11 12  2  0
 12 13  1  0
 13 14  1  0
 13 15  2  0
 15 16  1  0
 16 17  1  0
 17 18  2  0
 18 19  1  0
 19 20  2  0
 20 21  1  0
 21 22  2  0
 16 23  2  0
  9 24  1  0
 24 25  2  0
 25  6  1  0
 23 11  1  0
 22 17  1  0
  1 26  1  0
  1 27  1  0
  1 28  1  0
  2 29  1  0
  2 30  1  0
  7 31  1  0
  8 32  1  0
 10 33  1  0
 12 34  1  0
 14 35  1  0
 14 36  1  0
 14 37  1  0
 18 38  1  0
 19 39  1  0
 20 40  1  0
 21 41  1  0
 22 42  1  0
 24 43  1  0
 25 44  1  0
M  END
$$$$
