
     RDKit          3D

 58 60  0  0  0  0  0  0  0  0999 V2000
   -4.1063    2.5266    3.0163 C   0  0  0  0  0  0  0  0  0  0  0  0
   -4.6368    2.1215    1.7594 O   0  0  0  0  0  0  0  0  0  0  0  0
   -4.4335    0.8262    1.3589 C   0  0  0  0  0  0  0  0  0  0  0  0
   -3.7845   -0.1505    2.1298 C   0  0  0  0  0  0  0  0  0  0  0  0
   -3.6236   -1.4504    1.6384 C   0  0  0  0  0  0  0  0  0  0  0  0
   -2.9958   -2.4806    2.2953 O   0  0  0  0  0  0  0  0  0  0  0  0
   -2.4447   -2.1933    3.5760 C   0  0  0  0  0  0  0  0  0  0  0  0
   -4.1183   -1.7708    0.3619 C   0  0  0  0  0  0  0  0  0  0  0  0
   -3.8916   -3.0832   -0.1699 N   0  0  0  0  0  0  0  0  0  0  0  0
   -2.6981   -3.2553   -1.3606 S   0  0  0  0  0  6  0  0  0  0  0  0
   -2.9721   -2.3615   -2.4633 O   0  0  0  0  0  0  0  0  0  0  0  0
   -2.5273   -4.6776   -1.5684 O   0  0  0  0  0  0  0  0  0  0  0  0
   -1.2241   -2.6634   -0.5508 C   0  0  0  0  0  0  0  0  0  0  0  0
   -0.3694   -3.5714    0.0837 C   0  0  0  0  0  0  0  0  0  0  0  0
    0.7774   -3.1025    0.7326 C   0  0  0  0  0  0  0  0  0  0  0  0
    1.0720   -1.7341    0.7464 C   0  0  0  0  0  0  0  0  0  0  0  0
    2.4621   -1.2151    1.6291 Cl  0  0  0  0  0  0  0  0  0  0  0  0
    0.2248   -0.8398    0.0838 C   0  0  0  0  0  0  0  0  0  0  0  0
    0.4520    0.6099    0.1056 C   0  0  0  0  0  0  0  0  0  0  0  0
   -0.3153    1.3928    0.6378 O   0  0  0  0  0  0  0  0  0  0  0  0
    1.5694    0.8846   -0.6016 O   0  0  0  0  0  0  0  0  0  0  0  0
    1.8656    2.2766   -0.7734 C   0  0  0  0  0  0  0  0  0  0  0  0
    2.5932    2.8338    0.4442 C   0  0  0  0  0  0  0  0  0  0  0  0
    2.6509    2.4896   -2.0805 C   0  0  0  0  0  0  0  0  0  0  0  0
    2.1747    3.2077   -2.9657 O   0  0  0  0  0  0  0  0  0  0  0  0
    3.8771    1.8843   -2.2529 N   0  0  0  0  0  0  0  0  0  0  0  0
    4.5646    0.9564   -1.3669 C   0  0  0  0  0  0  0  0  0  0  0  0
    5.6620    0.3454   -2.2305 C   0  0  0  0  0  0  0  0  0  0  0  0
    5.9816    1.4623   -3.2152 C   0  0  0  0  0  0  0  0  0  0  0  0
    4.6138    2.0610   -3.4942 C   0  0  0  0  0  0  0  0  0  0  0  0
   -0.9214   -1.2987   -0.5771 C   0  0  0  0  0  0  0  0  0  0  0  0
   -4.7595   -0.8099   -0.4133 C   0  0  0  0  0  0  0  0  0  0  0  0
   -4.9210    0.4820    0.0870 C   0  0  0  0  0  0  0  0  0  0  0  0
   -5.7327    1.6389   -0.9112 Cl  0  0  0  0  0  0  0  0  0  0  0  0
   -4.3340    3.5894    3.1516 H   0  0  0  0  0  0  0  0  0  0  0  0
   -4.5831    1.9755    3.8368 H   0  0  0  0  0  0  0  0  0  0  0  0
   -3.0164    2.4141    3.0409 H   0  0  0  0  0  0  0  0  0  0  0  0
   -3.4004    0.1071    3.1063 H   0  0  0  0  0  0  0  0  0  0  0  0
   -1.9747   -3.1085    3.9465 H   0  0  0  0  0  0  0  0  0  0  0  0
   -1.6693   -1.4231    3.5106 H   0  0  0  0  0  0  0  0  0  0  0  0
   -3.2276   -1.9097    4.2872 H   0  0  0  0  0  0  0  0  0  0  0  0
   -3.7780   -3.8002    0.5496 H   0  0  0  0  0  0  0  0  0  0  0  0
   -0.5896   -4.6383    0.0852 H   0  0  0  0  0  0  0  0  0  0  0  0
    1.4321   -3.8124    1.2364 H   0  0  0  0  0  0  0  0  0  0  0  0
    0.9293    2.8360   -0.9089 H   0  0  0  0  0  0  0  0  0  0  0  0
    3.0702    3.7936    0.2252 H   0  0  0  0  0  0  0  0  0  0  0  0
    3.3464    2.1386    0.8214 H   0  0  0  0  0  0  0  0  0  0  0  0
    1.8892    2.9863    1.2701 H   0  0  0  0  0  0  0  0  0  0  0  0
    3.8893    0.1980   -0.9669 H   0  0  0  0  0  0  0  0  0  0  0  0
    5.0002    1.5342   -0.5455 H   0  0  0  0  0  0  0  0  0  0  0  0
    5.2749   -0.5283   -2.7708 H   0  0  0  0  0  0  0  0  0  0  0  0
    6.5296    0.0308   -1.6459 H   0  0  0  0  0  0  0  0  0  0  0  0
    6.4787    1.1060   -4.1216 H   0  0  0  0  0  0  0  0  0  0  0  0
    6.6282    2.2064   -2.7351 H   0  0  0  0  0  0  0  0  0  0  0  0
    4.0893    1.5032   -4.2778 H   0  0  0  0  0  0  0  0  0  0  0  0
    4.6598    3.1154   -3.7796 H   0  0  0  0  0  0  0  0  0  0  0  0
   -1.5775   -0.5925   -1.0847 H   0  0  0  0  0  0  0  0  0  0  0  0
   -5.1319   -1.0633   -1.4034 H   0  0  0  0  0  0  0  0  0  0  0  0
  1  2  1  0
  2  3  1  0
  3  4  2  0
  4  5  1  0
  5  6  1  0
  6  7  1  0
  5  8  2  0
  8  9  1  0
  9 10  1  0
 10 11  2  0
 10 12  2  0
 10 13  1  0
 13 14  2  0
 14 15  1  0
 15 16  2  0
 16 17  1  0
 16 18  1  0
 18 19  1  0
 19 20  2  0
 19 21  1  0
 21 22  1  0
 22 23  1  0
 22 24  1  0
 24 25  2  0
 24 26  1  0
 26 27  1  0
 27 28  1  0
 28 29  1  0
 29 30  1  0
 18 31  2  0
  8 32  1  0
 32 33  2  0
 33 34  1  0
 33  3  1  0
 31 13  1  0
 30 26  1  0
  1 35  1  0
  1 36  1  0
  1 37  1  0
  4 38  1  0
  7 39  1  0
  7 40  1  0
  7 41  1  0
  9 42  1  0
 14 43  1  0
 15 44  1  0
 22 45  1  0
 23 46  1  0
 23 47  1  0
 23 48  1  0
 27 49  1  0
 27 50  1  0
 28 51  1  0
 28 52  1  0
 29 53  1  0
 29 54  1  0
 30 55  1  0
 30 56  1  0
 31 57  1  0
 32 58  1  0
M  END
$$$$
