
     RDKit          3D

 52 54  0  0  0  0  0  0  0  0999 V2000
    3.9137   -0.4130   -0.1441 O   0  0  0  0  0  0  0  0  0  0  0  0
    2.7731   -0.8569   -0.1102 C   0  0  0  0  0  0  0  0  0  0  0  0
    2.3793   -2.1348    0.2318 N   0  0  0  0  0  0  0  0  0  0  0  0
    3.1882   -3.2158    0.6270 C   0  0  0  0  0  0  0  0  0  0  0  0
    2.5444   -4.4293    0.9030 C   0  0  0  0  0  0  0  0  0  0  0  0
    3.2764   -5.5505    1.3028 C   0  0  0  0  0  0  0  0  0  0  0  0
    4.6601   -5.4679    1.4308 C   0  0  0  0  0  0  0  0  0  0  0  0
    5.3086   -4.2655    1.1591 C   0  0  0  0  0  0  0  0  0  0  0  0
    4.5759   -3.1435    0.7581 C   0  0  0  0  0  0  0  0  0  0  0  0
    1.5813    0.0028   -0.4607 C   0  0  0  0  0  0  0  0  0  0  0  0
    1.7919    1.2468   -0.9234 C   0  0  0  0  0  0  0  0  0  0  0  0
    0.6775    2.1528   -1.3636 C   0  0  0  0  0  0  0  0  0  0  0  0
    0.5193    3.4014   -0.5047 C   0  0  0  0  0  0  0  0  0  0  0  0
   -0.0044    4.5665   -1.0919 C   0  0  0  0  0  0  0  0  0  0  0  0
   -0.1912    5.7280   -0.3398 C   0  0  0  0  0  0  0  0  0  0  0  0
    0.1385    5.7430    1.0123 C   0  0  0  0  0  0  0  0  0  0  0  0
    0.6540    4.5971    1.6127 C   0  0  0  0  0  0  0  0  0  0  0  0
    0.8409    3.4338    0.8618 C   0  0  0  0  0  0  0  0  0  0  0  0
   -0.6360    1.3702   -1.4589 C   0  0  0  0  0  0  0  0  0  0  0  0
   -0.7537    0.3953   -0.2923 C   0  0  0  0  0  0  0  0  0  0  0  0
   -2.0047   -0.2878   -0.4428 O   0  0  0  0  0  0  0  0  0  0  0  0
   -2.3481   -1.0493    0.7112 C   0  0  0  0  0  0  0  0  0  0  0  0
   -3.7028   -1.7150    0.4865 C   0  0  0  0  0  0  0  0  0  0  0  0
   -4.8974   -0.7642    0.6008 C   0  0  0  0  0  0  0  0  0  0  0  0
   -4.9064    0.3723   -0.4136 C   0  0  0  0  0  0  0  0  0  0  0  0
   -6.1406    1.0770   -0.3203 O   0  0  0  0  0  0  0  0  0  0  0  0
    0.3229   -0.5504   -0.2932 O   0  0  0  0  0  0  0  0  0  0  0  0
    1.3811   -2.3047    0.1742 H   0  0  0  0  0  0  0  0  0  0  0  0
    1.4655   -4.5198    0.8090 H   0  0  0  0  0  0  0  0  0  0  0  0
    2.7662   -6.4870    1.5123 H   0  0  0  0  0  0  0  0  0  0  0  0
    5.2336   -6.3377    1.7405 H   0  0  0  0  0  0  0  0  0  0  0  0
    6.3891   -4.1949    1.2566 H   0  0  0  0  0  0  0  0  0  0  0  0
    5.1209   -2.2271    0.5554 H   0  0  0  0  0  0  0  0  0  0  0  0
    2.8065    1.6282   -1.0284 H   0  0  0  0  0  0  0  0  0  0  0  0
    0.9368    2.4914   -2.3768 H   0  0  0  0  0  0  0  0  0  0  0  0
   -0.2730    4.5775   -2.1465 H   0  0  0  0  0  0  0  0  0  0  0  0
   -0.5951    6.6208   -0.8105 H   0  0  0  0  0  0  0  0  0  0  0  0
   -0.0053    6.6472    1.5980 H   0  0  0  0  0  0  0  0  0  0  0  0
    0.9134    4.6083    2.6683 H   0  0  0  0  0  0  0  0  0  0  0  0
    1.2464    2.5585    1.3645 H   0  0  0  0  0  0  0  0  0  0  0  0
   -1.5128    2.0277   -1.5058 H   0  0  0  0  0  0  0  0  0  0  0  0
   -0.6402    0.7944   -2.3957 H   0  0  0  0  0  0  0  0  0  0  0  0
   -0.7609    0.9353    0.6633 H   0  0  0  0  0  0  0  0  0  0  0  0
   -2.3789   -0.4061    1.5980 H   0  0  0  0  0  0  0  0  0  0  0  0
   -1.5915   -1.8265    0.8650 H   0  0  0  0  0  0  0  0  0  0  0  0
   -3.8308   -2.5059    1.2351 H   0  0  0  0  0  0  0  0  0  0  0  0
   -3.7212   -2.1924   -0.5008 H   0  0  0  0  0  0  0  0  0  0  0  0
   -4.9422   -0.3424    1.6130 H   0  0  0  0  0  0  0  0  0  0  0  0
   -5.8197   -1.3491    0.4908 H   0  0  0  0  0  0  0  0  0  0  0  0
   -4.1096    1.0923   -0.2108 H   0  0  0  0  0  0  0  0  0  0  0  0
   -4.7949    0.0027   -1.4376 H   0  0  0  0  0  0  0  0  0  0  0  0
   -6.8444    0.4661   -0.5973 H   0  0  0  0  0  0  0  0  0  0  0  0
  1  2  2  0
  2  3  1  0
  3  4  1  0
  4  5  2  0
  5  6  1  0
  6  7  2  0
  7  8  1  0
  8  9  2  0
  2 10  1  0
 10 11  2  0
 11 12  1  0
 12 13  1  0
 13 14  2  0
 14 15  1  0
 15 16  2  0
 16 17  1  0
 17 18  2  0
 12 19  1  0
 19 20  1  0
 20 21  1  0
 21 22  1  0
 22 23  1  0
 23 24  1  0
 24 25  1  0
 25 26  1  0
 20 27  1  0
  9  4  1  0
 27 10  1  0
 18 13  1  0
  3 28  1  0
  5 29  1  0
  6 30  1  0
  7 31  1  0
  8 32  1  0
  9 33  1  0
 11 34  1  0
 12 35  1  0
 14 36  1  0
 15 37  1  0
 16 38  1  0
 17 39  1  0
 18 40  1  0
 19 41  1  0
 19 42  1  0
 20 43  1  0
 22 44  1  0
 22 45  1  0
 23 46  1  0
 23 47  1  0
 24 48  1  0
 24 49  1  0
 25 50  1  0
 25 51  1  0
 26 52  1  0
M  END
$$$$
