
     RDKit          3D

 53 56  0  0  0  0  0  0  0  0999 V2000
   -0.5175   -4.2558    0.0992 C   0  0  0  0  0  0  0  0  0  0  0  0
   -0.8509   -3.2682   -0.9897 C   0  0  0  0  0  0  0  0  0  0  0  0
   -0.2733   -3.2936   -2.0758 O   0  0  0  0  0  0  0  0  0  0  0  0
   -1.8974   -2.2568   -0.6967 C   0  0  0  0  0  0  0  0  0  0  0  0
   -1.5567   -0.9552   -0.5514 C   0  0  0  0  0  0  0  0  0  0  0  0
   -0.2774   -0.4016   -0.6027 N   0  0  0  0  0  0  0  0  0  0  0  0
    0.2737   -0.0103   -1.9263 C   0  0  0  0  0  0  0  0  0  0  0  0
    1.3716    1.0646   -1.7562 C   0  0  0  0  0  0  0  0  0  0  0  0
    2.4594    0.6414   -0.8457 N   0  0  0  0  0  0  0  0  0  0  0  0
    3.4445    1.7236   -0.6882 C   0  0  0  0  0  0  0  0  0  0  0  0
    4.6981    1.2934    0.0447 C   0  0  0  0  0  0  0  0  0  0  0  0
    5.1292    1.9821    1.1880 C   0  0  0  0  0  0  0  0  0  0  0  0
    6.2916    1.5903    1.8548 C   0  0  0  0  0  0  0  0  0  0  0  0
    7.0365    0.5100    1.3847 C   0  0  0  0  0  0  0  0  0  0  0  0
    6.6217   -0.1793    0.2470 C   0  0  0  0  0  0  0  0  0  0  0  0
    5.4606    0.2114   -0.4211 C   0  0  0  0  0  0  0  0  0  0  0  0
    1.8795    0.2331    0.4543 C   0  0  0  0  0  0  0  0  0  0  0  0
    0.8041   -0.8657    0.2968 C   0  0  0  0  0  0  0  0  0  0  0  0
   -2.5659   -0.0590   -0.3021 N   0  0  0  0  0  0  0  0  0  0  0  0
   -3.8521   -0.4358   -0.0346 C   0  0  0  0  0  0  0  0  0  0  0  0
   -4.8488    0.5880    0.4090 C   0  0  0  0  0  0  0  0  0  0  0  0
   -4.6831    1.9426    0.0925 C   0  0  0  0  0  0  0  0  0  0  0  0
   -5.6234    2.8820    0.5241 C   0  0  0  0  0  0  0  0  0  0  0  0
   -6.7308    2.4738    1.2668 C   0  0  0  0  0  0  0  0  0  0  0  0
   -6.9066    1.1255    1.5741 C   0  0  0  0  0  0  0  0  0  0  0  0
   -5.9704    0.1833    1.1438 C   0  0  0  0  0  0  0  0  0  0  0  0
   -4.2399   -1.6714   -0.1378 N   0  0  0  0  0  0  0  0  0  0  0  0
   -3.3521   -2.6382   -0.5780 C   0  0  0  0  0  0  0  0  0  0  0  0
   -3.9406   -4.1892   -0.9332 S   0  0  0  0  0  0  0  0  0  0  0  0
   -0.7855   -5.2635   -0.2274 H   0  0  0  0  0  0  0  0  0  0  0  0
    0.5544   -4.2072    0.3095 H   0  0  0  0  0  0  0  0  0  0  0  0
   -1.0556   -4.0241    1.0228 H   0  0  0  0  0  0  0  0  0  0  0  0
   -0.5228    0.3989   -2.5595 H   0  0  0  0  0  0  0  0  0  0  0  0
    0.6880   -0.8875   -2.4370 H   0  0  0  0  0  0  0  0  0  0  0  0
    1.7882    1.2849   -2.7465 H   0  0  0  0  0  0  0  0  0  0  0  0
    0.9061    1.9866   -1.3819 H   0  0  0  0  0  0  0  0  0  0  0  0
    3.7693    2.0753   -1.6767 H   0  0  0  0  0  0  0  0  0  0  0  0
    2.9887    2.5883   -0.1871 H   0  0  0  0  0  0  0  0  0  0  0  0
    4.5623    2.8286    1.5677 H   0  0  0  0  0  0  0  0  0  0  0  0
    6.6177    2.1286    2.7409 H   0  0  0  0  0  0  0  0  0  0  0  0
    7.9412    0.2056    1.9039 H   0  0  0  0  0  0  0  0  0  0  0  0
    7.2008   -1.0219   -0.1208 H   0  0  0  0  0  0  0  0  0  0  0  0
    5.1414   -0.3354   -1.3062 H   0  0  0  0  0  0  0  0  0  0  0  0
    2.6614   -0.1642    1.1114 H   0  0  0  0  0  0  0  0  0  0  0  0
    1.4319    1.1000    0.9588 H   0  0  0  0  0  0  0  0  0  0  0  0
    0.3917   -1.1007    1.2853 H   0  0  0  0  0  0  0  0  0  0  0  0
    1.2693   -1.7750   -0.1007 H   0  0  0  0  0  0  0  0  0  0  0  0
   -2.2244    0.8590   -0.0510 H   0  0  0  0  0  0  0  0  0  0  0  0
   -3.8492    2.2832   -0.5127 H   0  0  0  0  0  0  0  0  0  0  0  0
   -5.4991    3.9322    0.2718 H   0  0  0  0  0  0  0  0  0  0  0  0
   -7.4642    3.2056    1.5972 H   0  0  0  0  0  0  0  0  0  0  0  0
   -7.7748    0.8045    2.1441 H   0  0  0  0  0  0  0  0  0  0  0  0
   -6.1206   -0.8669    1.3857 H   0  0  0  0  0  0  0  0  0  0  0  0
  1  2  1  0
  2  3  2  0
  2  4  1  0
  4  5  2  0
  5  6  1  0
  6  7  1  0
  7  8  1  0
  8  9  1  0
  9 10  1  0
 10 11  1  0
 11 12  2  0
 12 13  1  0
 13 14  2  0
 14 15  1  0
 15 16  2  0
  9 17  1  0
 17 18  1  0
  5 19  1  0
 19 20  1  0
 20 21  1  0
 21 22  2  0
 22 23  1  0
 23 24  2  0
 24 25  1  0
 25 26  2  0
 20 27  2  0
 27 28  1  0
 28 29  2  0
 28  4  1  0
 18  6  1  0
 26 21  1  0
 16 11  1  0
  1 30  1  0
  1 31  1  0
  1 32  1  0
  7 33  1  0
  7 34  1  0
  8 35  1  0
  8 36  1  0
 10 37  1  0
 10 38  1  0
 12 39  1  0
 13 40  1  0
 14 41  1  0
 15 42  1  0
 16 43  1  0
 17 44  1  0
 17 45  1  0
 18 46  1  0
 18 47  1  0
 19 48  1  0
 22 49  1  0
 23 50  1  0
 24 51  1  0
 25 52  1  0
 26 53  1  0
M  END
$$$$
