
     RDKit          3D

 49 52  0  0  0  0  0  0  0  0999 V2000
    0.2081   -0.5133    4.4299 O   0  0  0  0  0  0  0  0  0  0  0  0
    0.9281   -0.6299    3.4412 C   0  0  0  0  0  0  0  0  0  0  0  0
    2.4472   -0.7720    3.5863 C   0  0  0  0  0  0  0  0  0  0  0  0
    3.0660   -1.4141    2.4233 N   0  0  0  0  0  0  0  0  0  0  0  0
    3.2425   -0.6296    1.2980 N   0  0  0  0  0  0  0  0  0  0  0  0
    3.7724   -1.1818    0.2481 C   0  0  0  0  0  0  0  0  0  0  0  0
    3.9602   -0.3572   -0.9794 C   0  0  0  0  0  0  0  0  0  0  0  0
    3.8081   -0.8985   -2.2645 C   0  0  0  0  0  0  0  0  0  0  0  0
    3.9727   -0.0839   -3.3880 C   0  0  0  0  0  0  0  0  0  0  0  0
    4.2784    1.2629   -3.2246 C   0  0  0  0  0  0  0  0  0  0  0  0
    4.4318    2.0391   -4.3046 F   0  0  0  0  0  0  0  0  0  0  0  0
    4.4183    1.8164   -1.9575 C   0  0  0  0  0  0  0  0  0  0  0  0
    4.2545    1.0073   -0.8315 C   0  0  0  0  0  0  0  0  0  0  0  0
    4.2151   -2.5911    0.1897 C   0  0  0  0  0  0  0  0  0  0  0  0
    3.9955   -3.3384    1.2718 C   0  0  0  0  0  0  0  0  0  0  0  0
    3.3581   -2.7702    2.4757 C   0  0  0  0  0  0  0  0  0  0  0  0
    3.1415   -3.5030    3.4353 O   0  0  0  0  0  0  0  0  0  0  0  0
    0.5242   -0.4940    2.1240 N   0  0  0  0  0  0  0  0  0  0  0  0
   -0.7720   -0.3113    1.6177 C   0  0  0  0  0  0  0  0  0  0  0  0
   -1.9241   -0.3276    2.4046 C   0  0  0  0  0  0  0  0  0  0  0  0
   -3.1830   -0.1425    1.8208 C   0  0  0  0  0  0  0  0  0  0  0  0
   -3.3000    0.0737    0.4444 C   0  0  0  0  0  0  0  0  0  0  0  0
   -4.6577    0.2691   -0.1326 C   0  0  0  0  0  0  0  0  0  0  0  0
   -5.6280   -0.2736    0.3842 O   0  0  0  0  0  0  0  0  0  0  0  0
   -4.7313    1.1015   -1.2350 N   0  0  0  0  0  0  0  0  0  0  0  0
   -5.9796    1.4352   -1.8457 C   0  0  0  0  0  0  0  0  0  0  0  0
   -6.6063    2.7811   -1.6100 C   0  0  0  0  0  0  0  0  0  0  0  0
   -6.0446    2.4438   -2.9599 C   0  0  0  0  0  0  0  0  0  0  0  0
   -2.1503    0.0729   -0.3523 C   0  0  0  0  0  0  0  0  0  0  0  0
   -0.8947   -0.1180    0.2353 C   0  0  0  0  0  0  0  0  0  0  0  0
    2.6536   -1.3560    4.4889 H   0  0  0  0  0  0  0  0  0  0  0  0
    2.8820    0.2265    3.7040 H   0  0  0  0  0  0  0  0  0  0  0  0
    3.5389   -1.9405   -2.4141 H   0  0  0  0  0  0  0  0  0  0  0  0
    3.8571   -0.4875   -4.3897 H   0  0  0  0  0  0  0  0  0  0  0  0
    4.6517    2.8718   -1.8537 H   0  0  0  0  0  0  0  0  0  0  0  0
    4.3638    1.4453    0.1590 H   0  0  0  0  0  0  0  0  0  0  0  0
    4.7139   -2.9898   -0.6826 H   0  0  0  0  0  0  0  0  0  0  0  0
    4.2844   -4.3804    1.3285 H   0  0  0  0  0  0  0  0  0  0  0  0
    1.2968   -0.5022    1.4581 H   0  0  0  0  0  0  0  0  0  0  0  0
   -1.8804   -0.4928    3.4772 H   0  0  0  0  0  0  0  0  0  0  0  0
   -4.0722   -0.1665    2.4487 H   0  0  0  0  0  0  0  0  0  0  0  0
   -3.9185    1.6460   -1.4912 H   0  0  0  0  0  0  0  0  0  0  0  0
   -6.6581    0.5867   -1.9212 H   0  0  0  0  0  0  0  0  0  0  0  0
   -7.6838    2.8162   -1.4957 H   0  0  0  0  0  0  0  0  0  0  0  0
   -6.0736    3.4962   -0.9946 H   0  0  0  0  0  0  0  0  0  0  0  0
   -6.7440    2.2568   -3.7669 H   0  0  0  0  0  0  0  0  0  0  0  0
   -5.1356    2.9444   -3.2694 H   0  0  0  0  0  0  0  0  0  0  0  0
   -2.2136    0.1894   -1.4303 H   0  0  0  0  0  0  0  0  0  0  0  0
   -0.0135   -0.1165   -0.4019 H   0  0  0  0  0  0  0  0  0  0  0  0
  1  2  2  0
  2  3  1  0
  3  4  1  0
  4  5  1  0
  5  6  2  0
  6  7  1  0
  7  8  2  0
  8  9  1  0
  9 10  2  0
 10 11  1  0
 10 12  1  0
 12 13  2  0
  6 14  1  0
 14 15  2  0
 15 16  1  0
 16 17  2  0
  2 18  1  0
 18 19  1  0
 19 20  2  0
 20 21  1  0
 21 22  2  0
 22 23  1  0
 23 24  2  0
 23 25  1  0
 25 26  1  0
 26 27  1  0
 27 28  1  0
 22 29  1  0
 29 30  2  0
 16  4  1  0
 30 19  1  0
 13  7  1  0
 28 26  1  0
  3 31  1  0
  3 32  1  0
  8 33  1  0
  9 34  1  0
 12 35  1  0
 13 36  1  0
 14 37  1  0
 15 38  1  0
 18 39  1  0
 20 40  1  0
 21 41  1  0
 25 42  1  0
 26 43  1  0
 27 44  1  0
 27 45  1  0
 28 46  1  0
 28 47  1  0
 29 48  1  0
 30 49  1  0
M  END
$$$$
