
     RDKit          3D

 45 47  0  0  0  0  0  0  0  0999 V2000
    7.2050   -0.4371    1.4696 C   0  0  0  0  0  0  0  0  0  0  0  0
    5.7997   -0.0044    1.1719 C   0  0  0  0  0  0  0  0  0  0  0  0
    4.9678    0.4549    2.1945 C   0  0  0  0  0  0  0  0  0  0  0  0
    3.6735    0.8897    1.9053 C   0  0  0  0  0  0  0  0  0  0  0  0
    3.1898    0.8890    0.5876 C   0  0  0  0  0  0  0  0  0  0  0  0
    1.8387    1.3834    0.3671 C   0  0  0  0  0  0  0  0  0  0  0  0
    1.5365    2.4401   -0.4663 C   0  0  0  0  0  0  0  0  0  0  0  0
   -0.1489    2.7379   -0.4429 S   0  0  0  0  0  0  0  0  0  0  0  0
   -0.3561    1.4637    0.7089 C   0  0  0  0  0  0  0  0  0  0  0  0
   -1.7035    1.0971    1.2652 C   0  0  0  0  0  0  0  0  0  0  0  0
   -2.3675    2.2492    1.8822 C   0  0  0  0  0  0  0  0  0  0  0  0
   -2.9058    3.1670    2.3487 N   0  0  0  0  0  0  0  0  0  0  0  0
   -2.5626    0.5534    0.1542 C   0  0  0  0  0  0  0  0  0  0  0  0
   -3.0037   -0.6668    0.1832 N   0  0  0  0  0  0  0  0  0  0  0  0
   -3.8118   -1.0594   -0.8966 C   0  0  0  0  0  0  0  0  0  0  0  0
   -3.2017   -1.7175   -1.9724 C   0  0  0  0  0  0  0  0  0  0  0  0
   -3.9474   -2.1183   -3.0806 C   0  0  0  0  0  0  0  0  0  0  0  0
   -5.3155   -1.8675   -3.1215 C   0  0  0  0  0  0  0  0  0  0  0  0
   -5.9401   -1.2291   -2.0483 C   0  0  0  0  0  0  0  0  0  0  0  0
   -5.2033   -0.8376   -0.9195 C   0  0  0  0  0  0  0  0  0  0  0  0
   -6.1059   -0.0246    0.3965 S   0  0  0  0  0  0  0  0  0  0  0  0
   -5.5792   -0.9870    1.8240 C   0  0  0  0  0  0  0  0  0  0  0  0
   -4.4882   -0.4526    2.4246 F   0  0  0  0  0  0  0  0  0  0  0  0
   -5.3177   -2.2813    1.5296 F   0  0  0  0  0  0  0  0  0  0  0  0
   -6.5643   -0.9950    2.7599 F   0  0  0  0  0  0  0  0  0  0  0  0
    0.7599    0.8493    1.0506 N   0  0  0  0  0  0  0  0  0  0  0  0
    4.0124    0.4100   -0.4516 C   0  0  0  0  0  0  0  0  0  0  0  0
    3.5560    0.3405   -1.8837 C   0  0  0  0  0  0  0  0  0  0  0  0
    5.3203   -0.0108   -0.1448 C   0  0  0  0  0  0  0  0  0  0  0  0
    7.5132   -1.2465    0.7995 H   0  0  0  0  0  0  0  0  0  0  0  0
    7.2908   -0.8141    2.4941 H   0  0  0  0  0  0  0  0  0  0  0  0
    7.8903    0.4071    1.3463 H   0  0  0  0  0  0  0  0  0  0  0  0
    5.3181    0.4778    3.2239 H   0  0  0  0  0  0  0  0  0  0  0  0
    3.0381    1.2390    2.7174 H   0  0  0  0  0  0  0  0  0  0  0  0
    2.2045    3.0384   -1.0695 H   0  0  0  0  0  0  0  0  0  0  0  0
   -1.5730    0.3103    2.0186 H   0  0  0  0  0  0  0  0  0  0  0  0
   -2.8137    1.2370   -0.6801 H   0  0  0  0  0  0  0  0  0  0  0  0
   -2.1336   -1.9196   -1.9419 H   0  0  0  0  0  0  0  0  0  0  0  0
   -3.4601   -2.6268   -3.9089 H   0  0  0  0  0  0  0  0  0  0  0  0
   -5.9002   -2.1752   -3.9852 H   0  0  0  0  0  0  0  0  0  0  0  0
   -7.0123   -1.0488   -2.0989 H   0  0  0  0  0  0  0  0  0  0  0  0
    4.1860   -0.3402   -2.4670 H   0  0  0  0  0  0  0  0  0  0  0  0
    2.5337   -0.0450   -1.9529 H   0  0  0  0  0  0  0  0  0  0  0  0
    3.6091    1.3302   -2.3473 H   0  0  0  0  0  0  0  0  0  0  0  0
    5.9729   -0.3611   -0.9435 H   0  0  0  0  0  0  0  0  0  0  0  0
  1  2  1  0
  2  3  2  0
  3  4  1  0
  4  5  2  0
  5  6  1  0
  6  7  2  0
  7  8  1  0
  8  9  1  0
  9 10  1  0
 10 11  1  0
 11 12  3  0
 10 13  1  0
 13 14  2  3
 14 15  1  0
 15 16  2  0
 16 17  1  0
 17 18  2  0
 18 19  1  0
 19 20  2  0
 20 21  1  0
 21 22  1  0
 22 23  1  0
 22 24  1  0
 22 25  1  0
  9 26  2  0
  5 27  1  0
 27 28  1  0
 27 29  2  0
 29  2  1  0
 26  6  1  0
 20 15  1  0
  1 30  1  0
  1 31  1  0
  1 32  1  0
  3 33  1  0
  4 34  1  0
  7 35  1  0
 10 36  1  0
 13 37  1  0
 16 38  1  0
 17 39  1  0
 18 40  1  0
 19 41  1  0
 28 42  1  0
 28 43  1  0
 28 44  1  0
 29 45  1  0
M  END
$$$$
