
     RDKit          3D

 47 50  0  0  0  0  0  0  0  0999 V2000
   -3.3873   -1.8865    0.5142 O   0  0  0  0  0  0  0  0  0  0  0  0
   -3.4676   -0.6634    0.3650 C   0  0  0  0  0  0  0  0  0  0  0  0
   -4.6811    0.1424    0.9132 C   0  0  0  0  0  0  0  0  0  0  0  0
   -4.5427    0.7793    2.3240 C   0  0  0  0  0  0  0  0  0  0  0  0
   -6.0288    0.4516    2.5536 C   0  0  0  0  0  0  0  0  0  0  0  0
   -5.8731   -0.6653    1.5066 C   0  0  0  0  0  0  0  0  0  0  0  0
   -2.4972    0.0825   -0.2960 N   0  0  0  0  0  0  0  0  0  0  0  0
   -2.5164    1.5439   -0.4761 C   0  0  0  0  0  0  0  0  0  0  0  0
   -1.1839    1.9475   -1.1179 C   0  0  0  0  0  0  0  0  0  0  0  0
   -0.6031    0.6200   -1.4824 C   0  0  0  0  0  0  0  0  0  0  0  0
    0.5600    0.3816   -2.1995 C   0  0  0  0  0  0  0  0  0  0  0  0
    0.9498   -0.9489   -2.3867 C   0  0  0  0  0  0  0  0  0  0  0  0
    2.4314   -1.2863   -3.3093 S   0  0  0  0  0  6  0  0  0  0  0  0
    2.3827   -0.4729   -4.5032 O   0  0  0  0  0  0  0  0  0  0  0  0
    2.6140   -2.7200   -3.3634 O   0  0  0  0  0  0  0  0  0  0  0  0
    3.6296   -0.6647   -2.3328 N   0  0  0  0  0  0  0  0  0  0  0  0
    3.8627   -1.2842   -1.0214 C   0  0  0  0  0  0  0  0  0  0  0  0
    4.6420   -0.3464   -0.1182 C   0  0  0  0  0  0  0  0  0  0  0  0
    5.4782   -0.8519    0.8735 C   0  0  0  0  0  0  0  0  0  0  0  0
    6.1719    0.0420    1.6851 C   0  0  0  0  0  0  0  0  0  0  0  0
    6.0061    1.4075    1.4929 C   0  0  0  0  0  0  0  0  0  0  0  0
    5.1423    1.8306    0.4940 C   0  0  0  0  0  0  0  0  0  0  0  0
    4.4525    0.9911   -0.3100 N   0  0  0  0  0  0  0  0  0  0  0  0
    0.1855   -2.0099   -1.8741 C   0  0  0  0  0  0  0  0  0  0  0  0
   -0.9827   -1.7471   -1.1503 C   0  0  0  0  0  0  0  0  0  0  0  0
   -1.3669   -0.4289   -0.9616 C   0  0  0  0  0  0  0  0  0  0  0  0
   -5.0566    0.8635    0.1732 H   0  0  0  0  0  0  0  0  0  0  0  0
   -3.8595    0.2454    2.9952 H   0  0  0  0  0  0  0  0  0  0  0  0
   -4.2960    1.8444    2.3418 H   0  0  0  0  0  0  0  0  0  0  0  0
   -6.2941    0.1256    3.5624 H   0  0  0  0  0  0  0  0  0  0  0  0
   -6.7111    1.2521    2.2441 H   0  0  0  0  0  0  0  0  0  0  0  0
   -6.7275   -0.8023    0.8389 H   0  0  0  0  0  0  0  0  0  0  0  0
   -5.6031   -1.6352    1.9392 H   0  0  0  0  0  0  0  0  0  0  0  0
   -3.3589    1.7978   -1.1308 H   0  0  0  0  0  0  0  0  0  0  0  0
   -2.6668    2.0422    0.4870 H   0  0  0  0  0  0  0  0  0  0  0  0
   -1.3348    2.5930   -1.9858 H   0  0  0  0  0  0  0  0  0  0  0  0
   -0.5407    2.4510   -0.3911 H   0  0  0  0  0  0  0  0  0  0  0  0
    1.1472    1.2017   -2.6022 H   0  0  0  0  0  0  0  0  0  0  0  0
    3.6917    0.3564   -2.3122 H   0  0  0  0  0  0  0  0  0  0  0  0
    2.9198   -1.5138   -0.5133 H   0  0  0  0  0  0  0  0  0  0  0  0
    4.4229   -2.2152   -1.1707 H   0  0  0  0  0  0  0  0  0  0  0  0
    5.6015   -1.9212    1.0116 H   0  0  0  0  0  0  0  0  0  0  0  0
    6.8455   -0.3260    2.4556 H   0  0  0  0  0  0  0  0  0  0  0  0
    6.5395    2.1260    2.1054 H   0  0  0  0  0  0  0  0  0  0  0  0
    4.9820    2.8883    0.3029 H   0  0  0  0  0  0  0  0  0  0  0  0
    0.4880   -3.0419   -2.0369 H   0  0  0  0  0  0  0  0  0  0  0  0
   -1.5668   -2.5756   -0.7637 H   0  0  0  0  0  0  0  0  0  0  0  0
  1  2  2  0
  2  3  1  0
  3  4  1  0
  4  5  1  0
  5  6  1  0
  2  7  1  0
  7  8  1  0
  8  9  1  0
  9 10  1  0
 10 11  2  0
 11 12  1  0
 12 13  1  0
 13 14  2  0
 13 15  2  0
 13 16  1  0
 16 17  1  0
 17 18  1  0
 18 19  2  0
 19 20  1  0
 20 21  2  0
 21 22  1  0
 22 23  2  0
 12 24  2  0
 24 25  1  0
 25 26  2  0
  6  3  1  0
 26  7  1  0
 26 10  1  0
 23 18  1  0
  3 27  1  0
  4 28  1  0
  4 29  1  0
  5 30  1  0
  5 31  1  0
  6 32  1  0
  6 33  1  0
  8 34  1  0
  8 35  1  0
  9 36  1  0
  9 37  1  0
 11 38  1  0
 16 39  1  0
 17 40  1  0
 17 41  1  0
 19 42  1  0
 20 43  1  0
 21 44  1  0
 22 45  1  0
 24 46  1  0
 25 47  1  0
M  END
$$$$
