
     RDKit          3D

 61 63  0  0  0  0  0  0  0  0999 V2000
   -1.8218    3.9169    3.7302 C   0  0  0  0  0  0  0  0  0  0  0  0
   -0.8967    2.7944    3.2883 C   0  0  0  0  0  0  0  0  0  0  0  0
   -1.6715    1.6716    2.5972 C   0  0  0  0  0  0  0  0  0  0  0  0
   -0.7740    0.4997    2.2002 C   0  0  0  0  0  0  0  0  0  0  0  0
    0.2159    0.8635    1.2054 N   0  0  0  0  0  0  0  0  0  0  0  0
   -0.0963    0.9387   -0.1344 C   0  0  0  0  0  0  0  0  0  0  0  0
   -1.2134    0.6862   -0.5827 O   0  0  0  0  0  0  0  0  0  0  0  0
    1.0626    1.3595   -1.0427 C   0  0  0  0  0  0  0  0  0  0  0  0
    1.0993    2.8949   -1.1074 C   0  0  0  0  0  0  0  0  0  0  0  0
    2.4606    3.4259   -1.4939 C   0  0  0  0  0  0  0  0  0  0  0  0
    3.3197    3.9601   -0.5207 C   0  0  0  0  0  0  0  0  0  0  0  0
    4.5844    4.4342   -0.8769 C   0  0  0  0  0  0  0  0  0  0  0  0
    5.0049    4.3714   -2.2061 C   0  0  0  0  0  0  0  0  0  0  0  0
    4.1592    3.8423   -3.1802 C   0  0  0  0  0  0  0  0  0  0  0  0
    2.8929    3.3724   -2.8278 C   0  0  0  0  0  0  0  0  0  0  0  0
    0.8219    0.7953   -2.3964 N   0  0  0  0  0  0  0  0  0  0  0  0
    1.4849   -0.7033   -2.7651 S   0  0  0  0  0  6  0  0  0  0  0  0
    2.8797   -0.6793   -2.3865 O   0  0  0  0  0  0  0  0  0  0  0  0
    1.0663   -1.0330   -4.1076 O   0  0  0  0  0  0  0  0  0  0  0  0
    0.6476   -1.8123   -1.6607 C   0  0  0  0  0  0  0  0  0  0  0  0
    1.2947   -2.2888   -0.5211 C   0  0  0  0  0  0  0  0  0  0  0  0
    0.6175   -3.1500    0.3486 C   0  0  0  0  0  0  0  0  0  0  0  0
   -0.7026   -3.5551    0.0844 C   0  0  0  0  0  0  0  0  0  0  0  0
   -1.3174   -3.0882   -1.0777 C   0  0  0  0  0  0  0  0  0  0  0  0
   -0.6506   -2.2240   -1.9577 C   0  0  0  0  0  0  0  0  0  0  0  0
   -2.6917   -3.5120   -1.3862 C   0  0  0  0  0  0  0  0  0  0  0  0
   -3.2424   -3.0689   -2.3923 O   0  0  0  0  0  0  0  0  0  0  0  0
   -3.2836   -4.4001   -0.5017 N   0  0  0  0  0  0  0  0  0  0  0  0
   -4.6391   -4.8354   -0.7881 C   0  0  0  0  0  0  0  0  0  0  0  0
   -2.7213   -4.8287    0.6938 C   0  0  0  0  0  0  0  0  0  0  0  0
   -3.3502   -5.5418    1.4797 O   0  0  0  0  0  0  0  0  0  0  0  0
   -1.4191   -4.4113    0.9608 N   0  0  0  0  0  0  0  0  0  0  0  0
   -0.7918   -4.8722    2.1942 C   0  0  0  0  0  0  0  0  0  0  0  0
   -1.2471    4.7138    4.2128 H   0  0  0  0  0  0  0  0  0  0  0  0
   -2.3495    4.3494    2.8739 H   0  0  0  0  0  0  0  0  0  0  0  0
   -2.5661    3.5544    4.4454 H   0  0  0  0  0  0  0  0  0  0  0  0
   -0.3693    2.3985    4.1635 H   0  0  0  0  0  0  0  0  0  0  0  0
   -0.1399    3.2055    2.6108 H   0  0  0  0  0  0  0  0  0  0  0  0
   -2.4490    1.2981    3.2752 H   0  0  0  0  0  0  0  0  0  0  0  0
   -2.1815    2.0707    1.7123 H   0  0  0  0  0  0  0  0  0  0  0  0
   -1.3897   -0.3115    1.7958 H   0  0  0  0  0  0  0  0  0  0  0  0
   -0.2348    0.1101    3.0701 H   0  0  0  0  0  0  0  0  0  0  0  0
    1.1286    1.1625    1.5275 H   0  0  0  0  0  0  0  0  0  0  0  0
    2.0009    0.9769   -0.6247 H   0  0  0  0  0  0  0  0  0  0  0  0
    0.8220    3.3263   -0.1361 H   0  0  0  0  0  0  0  0  0  0  0  0
    0.3519    3.2761   -1.8170 H   0  0  0  0  0  0  0  0  0  0  0  0
    3.0135    4.0172    0.5221 H   0  0  0  0  0  0  0  0  0  0  0  0
    5.2443    4.8497   -0.1191 H   0  0  0  0  0  0  0  0  0  0  0  0
    5.9915    4.7346   -2.4831 H   0  0  0  0  0  0  0  0  0  0  0  0
    4.4876    3.7869   -4.2161 H   0  0  0  0  0  0  0  0  0  0  0  0
    2.2498    2.9561   -3.6021 H   0  0  0  0  0  0  0  0  0  0  0  0
   -0.1524    0.8729   -2.7062 H   0  0  0  0  0  0  0  0  0  0  0  0
    2.3189   -1.9959   -0.2983 H   0  0  0  0  0  0  0  0  0  0  0  0
    1.1535   -3.4921    1.2297 H   0  0  0  0  0  0  0  0  0  0  0  0
   -1.1490   -1.8689   -2.8584 H   0  0  0  0  0  0  0  0  0  0  0  0
   -4.8959   -4.7040   -1.8439 H   0  0  0  0  0  0  0  0  0  0  0  0
   -5.3280   -4.2420   -0.1769 H   0  0  0  0  0  0  0  0  0  0  0  0
   -4.7598   -5.8926   -0.5284 H   0  0  0  0  0  0  0  0  0  0  0  0
   -0.5294   -4.0092    2.8127 H   0  0  0  0  0  0  0  0  0  0  0  0
    0.1022   -5.4539    1.9515 H   0  0  0  0  0  0  0  0  0  0  0  0
   -1.4520   -5.5121    2.7823 H   0  0  0  0  0  0  0  0  0  0  0  0
  1  2  1  0
  2  3  1  0
  3  4  1  0
  4  5  1  0
  5  6  1  0
  6  7  2  0
  6  8  1  0
  8  9  1  0
  9 10  1  0
 10 11  2  0
 11 12  1  0
 12 13  2  0
 13 14  1  0
 14 15  2  0
  8 16  1  0
 16 17  1  0
 17 18  2  0
 17 19  2  0
 17 20  1  0
 20 21  2  0
 21 22  1  0
 22 23  2  0
 23 24  1  0
 24 25  2  0
 24 26  1  0
 26 27  2  0
 26 28  1  0
 28 29  1  0
 28 30  1  0
 30 31  2  0
 30 32  1  0
 32 33  1  0
 15 10  1  0
 25 20  1  0
 32 23  1  0
  1 34  1  0
  1 35  1  0
  1 36  1  0
  2 37  1  0
  2 38  1  0
  3 39  1  0
  3 40  1  0
  4 41  1  0
  4 42  1  0
  5 43  1  0
  8 44  1  0
  9 45  1  0
  9 46  1  0
 11 47  1  0
 12 48  1  0
 13 49  1  0
 14 50  1  0
 15 51  1  0
 16 52  1  0
 21 53  1  0
 22 54  1  0
 25 55  1  0
 29 56  1  0
 29 57  1  0
 29 58  1  0
 33 59  1  0
 33 60  1  0
 33 61  1  0
M  END
$$$$
