
     RDKit          3D

 45 47  0  0  0  0  0  0  0  0999 V2000
   -5.6693   -1.6622    0.0193 C   0  0  0  0  0  0  0  0  0  0  0  0
   -4.3216   -1.1002   -0.0307 N   0  0  0  0  0  0  0  0  0  0  0  0
   -4.3079    0.3695    0.0802 C   0  0  0  0  0  0  0  0  0  0  0  0
   -4.4883    0.6476    1.5767 C   0  0  0  0  0  0  0  0  0  0  0  0
   -3.9414   -0.5959    2.2655 C   0  0  0  0  0  0  0  0  0  0  0  0
   -3.4891   -1.5052    1.1174 C   0  0  0  0  0  0  0  0  0  0  0  0
   -2.0160   -1.2390    0.7540 C   0  0  0  0  0  0  0  0  0  0  0  0
   -1.8429   -0.2124   -0.3780 C   0  0  0  0  0  0  0  0  0  0  0  0
   -0.5670    0.4540   -0.2680 O   0  0  0  0  0  0  0  0  0  0  0  0
    0.5229   -0.2412   -0.7019 C   0  0  0  0  0  0  0  0  0  0  0  0
    0.5042   -1.3778   -1.1513 O   0  0  0  0  0  0  0  0  0  0  0  0
    1.7584    0.6022   -0.5128 C   0  0  0  0  0  0  0  0  0  0  0  0
    2.9695   -0.0571   -1.1717 C   0  0  0  0  0  0  0  0  0  0  0  0
    4.1722    0.7817   -1.0838 N   0  0  0  0  0  0  0  0  0  0  0  0
    5.2795    0.2218   -1.8642 C   0  0  0  0  0  0  0  0  0  0  0  0
    6.4785    1.0124   -1.3675 C   0  0  0  0  0  0  0  0  0  0  0  0
    6.1217    1.4144    0.0587 C   0  0  0  0  0  0  0  0  0  0  0  0
    4.7029    0.9062    0.2761 C   0  0  0  0  0  0  0  0  0  0  0  0
   -2.9357    0.8690   -0.4087 C   0  0  0  0  0  0  0  0  0  0  0  0
   -6.2254   -1.4054    0.9267 H   0  0  0  0  0  0  0  0  0  0  0  0
   -6.2507   -1.3174   -0.8428 H   0  0  0  0  0  0  0  0  0  0  0  0
   -5.6219   -2.7545   -0.0504 H   0  0  0  0  0  0  0  0  0  0  0  0
   -5.0950    0.8566   -0.5071 H   0  0  0  0  0  0  0  0  0  0  0  0
   -5.5509    0.7640    1.8216 H   0  0  0  0  0  0  0  0  0  0  0  0
   -3.9762    1.5548    1.9130 H   0  0  0  0  0  0  0  0  0  0  0  0
   -4.7405   -1.0747    2.8442 H   0  0  0  0  0  0  0  0  0  0  0  0
   -3.1361   -0.3497    2.9650 H   0  0  0  0  0  0  0  0  0  0  0  0
   -3.6047   -2.5619    1.3854 H   0  0  0  0  0  0  0  0  0  0  0  0
   -1.4360   -0.9424    1.6365 H   0  0  0  0  0  0  0  0  0  0  0  0
   -1.5652   -2.1817    0.4160 H   0  0  0  0  0  0  0  0  0  0  0  0
   -1.8851   -0.7392   -1.3424 H   0  0  0  0  0  0  0  0  0  0  0  0
    1.5795    1.5841   -0.9661 H   0  0  0  0  0  0  0  0  0  0  0  0
    1.9167    0.7255    0.5638 H   0  0  0  0  0  0  0  0  0  0  0  0
    3.1487   -1.0478   -0.7329 H   0  0  0  0  0  0  0  0  0  0  0  0
    2.7340   -0.2235   -2.2315 H   0  0  0  0  0  0  0  0  0  0  0  0
    5.4240   -0.8459   -1.6542 H   0  0  0  0  0  0  0  0  0  0  0  0
    5.1320    0.3500   -2.9412 H   0  0  0  0  0  0  0  0  0  0  0  0
    6.6295    1.9106   -1.9781 H   0  0  0  0  0  0  0  0  0  0  0  0
    7.3988    0.4212   -1.4069 H   0  0  0  0  0  0  0  0  0  0  0  0
    6.8151    0.9790    0.7856 H   0  0  0  0  0  0  0  0  0  0  0  0
    6.1683    2.5047    0.1609 H   0  0  0  0  0  0  0  0  0  0  0  0
    4.1242    1.6057    0.8871 H   0  0  0  0  0  0  0  0  0  0  0  0
    4.7332   -0.0635    0.7891 H   0  0  0  0  0  0  0  0  0  0  0  0
   -3.0303    1.2053   -1.4504 H   0  0  0  0  0  0  0  0  0  0  0  0
   -2.6168    1.7582    0.1493 H   0  0  0  0  0  0  0  0  0  0  0  0
  1  2  1  0
  2  3  1  0
  3  4  1  0
  4  5  1  0
  5  6  1  0
  6  7  1  0
  7  8  1  0
  8  9  1  0
  9 10  1  0
 10 11  2  0
 10 12  1  0
 12 13  1  0
 13 14  1  0
 14 15  1  0
 15 16  1  0
 16 17  1  0
 17 18  1  0
  8 19  1  0
  6  2  1  0
 18 14  1  0
 19  3  1  0
  1 20  1  0
  1 21  1  0
  1 22  1  0
  3 23  1  0
  4 24  1  0
  4 25  1  0
  5 26  1  0
  5 27  1  0
  6 28  1  0
  7 29  1  0
  7 30  1  0
  8 31  1  0
 12 32  1  0
 12 33  1  0
 13 34  1  0
 13 35  1  0
 15 36  1  0
 15 37  1  0
 16 38  1  0
 16 39  1  0
 17 40  1  0
 17 41  1  0
 18 42  1  0
 18 43  1  0
 19 44  1  0
 19 45  1  0
M  END
$$$$
