
     RDKit          3D

 34 36  0  0  0  0  0  0  0  0999 V2000
    3.5337   -0.4974   -2.2874 C   0  0  0  0  0  0  0  0  0  0  0  0
    3.6442   -0.4919   -0.7920 C   0  0  0  0  0  0  0  0  0  0  0  0
    4.4129   -1.4405   -0.1483 C   0  0  0  0  0  0  0  0  0  0  0  0
    4.4529   -1.3595    1.2242 C   0  0  0  0  0  0  0  0  0  0  0  0
    3.7942   -0.4273    1.9335 N   0  0  0  0  0  0  0  0  0  0  0  0
    3.0637    0.4479    1.2250 C   0  0  0  0  0  0  0  0  0  0  0  0
    2.1942    1.7087    2.1190 S   0  0  0  0  0  0  0  0  0  0  0  0
    0.5137    1.3083    1.8354 C   0  0  0  0  0  0  0  0  0  0  0  0
   -0.4351    1.2054    2.8690 C   0  0  0  0  0  0  0  0  0  0  0  0
   -1.6616    0.9686    2.2904 C   0  0  0  0  0  0  0  0  0  0  0  0
   -2.8452    0.9399    2.9048 O   0  0  0  0  0  0  0  0  0  0  0  0
   -1.4783    0.8230    0.9103 N   0  0  0  0  0  0  0  0  0  0  0  0
   -2.4791    0.4257   -0.0347 C   0  0  0  0  0  0  0  0  0  0  0  0
   -3.4961   -0.4637    0.3491 C   0  0  0  0  0  0  0  0  0  0  0  0
   -4.4755   -0.8566   -0.5683 C   0  0  0  0  0  0  0  0  0  0  0  0
   -4.4398   -0.3670   -1.8715 C   0  0  0  0  0  0  0  0  0  0  0  0
   -5.7635   -0.8988   -3.1111 Br  0  0  0  0  0  0  0  0  0  0  0  0
   -3.4307    0.5066   -2.2683 C   0  0  0  0  0  0  0  0  0  0  0  0
   -2.4483    0.8989   -1.3533 C   0  0  0  0  0  0  0  0  0  0  0  0
   -0.1367    1.1069    0.6322 C   0  0  0  0  0  0  0  0  0  0  0  0
    0.3470    1.0921   -0.6121 O   0  0  0  0  0  0  0  0  0  0  0  0
    2.9637    0.4635   -0.1221 N   0  0  0  0  0  0  0  0  0  0  0  0
    2.8967    0.3229   -2.6337 H   0  0  0  0  0  0  0  0  0  0  0  0
    3.0934   -1.4388   -2.6303 H   0  0  0  0  0  0  0  0  0  0  0  0
    4.5224   -0.3755   -2.7405 H   0  0  0  0  0  0  0  0  0  0  0  0
    4.9564   -2.2072   -0.6847 H   0  0  0  0  0  0  0  0  0  0  0  0
    5.0345   -2.0643    1.8118 H   0  0  0  0  0  0  0  0  0  0  0  0
   -0.2708    1.3488    3.9291 H   0  0  0  0  0  0  0  0  0  0  0  0
   -3.5390    1.1645    2.2589 H   0  0  0  0  0  0  0  0  0  0  0  0
   -3.5173   -0.9085    1.3424 H   0  0  0  0  0  0  0  0  0  0  0  0
   -5.2494   -1.5550   -0.2599 H   0  0  0  0  0  0  0  0  0  0  0  0
   -3.3964    0.8910   -3.2845 H   0  0  0  0  0  0  0  0  0  0  0  0
   -1.6878    1.6002   -1.6880 H   0  0  0  0  0  0  0  0  0  0  0  0
    1.3271    1.1244   -0.5442 H   0  0  0  0  0  0  0  0  0  0  0  0
  1  2  1  0
  2  3  2  0
  3  4  1  0
  4  5  2  0
  5  6  1  0
  6  7  1  0
  7  8  1  0
  8  9  1  0
  9 10  2  0
 10 11  1  0
 10 12  1  0
 12 13  1  0
 13 14  2  0
 14 15  1  0
 15 16  2  0
 16 17  1  0
 16 18  1  0
 18 19  2  0
 12 20  1  0
 20 21  1  0
  6 22  2  0
 22  2  1  0
 20  8  2  0
 19 13  1  0
  1 23  1  0
  1 24  1  0
  1 25  1  0
  3 26  1  0
  4 27  1  0
  9 28  1  0
 11 29  1  0
 14 30  1  0
 15 31  1  0
 18 32  1  0
 19 33  1  0
 21 34  1  0
M  END
$$$$
