
     RDKit          3D

 52 54  0  0  0  0  0  0  0  0999 V2000
   -5.6274   -0.1007   -1.9771 C   0  0  0  0  0  0  0  0  0  0  0  0
   -4.5210    0.9327   -1.8345 C   0  0  0  0  0  0  0  0  0  0  0  0
   -3.9910    1.0616   -0.4035 C   0  0  0  0  0  0  0  0  0  0  0  0
   -3.2853   -0.2070    0.0894 C   0  0  0  0  0  0  0  0  0  0  0  0
   -2.5340   -0.0210    1.4262 C   0  0  0  0  0  0  0  0  0  0  0  0
   -3.4245    0.5058    2.5738 C   0  0  0  0  0  0  0  0  0  0  0  0
   -4.6142   -0.3754    2.9301 C   0  0  0  0  0  0  0  0  0  0  0  0
   -1.8156   -1.3266    1.8541 C   0  0  0  0  0  0  0  0  0  0  0  0
   -0.7271   -1.7128    0.9501 N   0  0  0  0  0  0  0  0  0  0  0  0
    0.4603   -1.0028    1.0100 C   0  0  0  0  0  0  0  0  0  0  0  0
    0.7025   -0.0774    1.7735 O   0  0  0  0  0  0  0  0  0  0  0  0
    1.4383   -1.5284    0.0173 C   0  0  0  0  0  0  0  0  0  0  0  0
    2.6424   -0.9523   -0.1201 C   0  0  0  0  0  0  0  0  0  0  0  0
    3.7332   -1.2651   -0.9938 C   0  0  0  0  0  0  0  0  0  0  0  0
    3.9665   -2.4416   -1.6681 C   0  0  0  0  0  0  0  0  0  0  0  0
    5.1074   -2.2500   -2.3885 N   0  0  0  0  0  0  0  0  0  0  0  0
    5.6489   -1.0376   -2.2269 N   0  0  0  0  0  0  0  0  0  0  0  0
    4.8389   -0.4218   -1.3496 C   0  0  0  0  0  0  0  0  0  0  0  0
    5.1378    0.9387   -0.9088 C   0  0  0  0  0  0  0  0  0  0  0  0
    5.2873    1.2357    0.4521 C   0  0  0  0  0  0  0  0  0  0  0  0
    5.5652    2.5420    0.8620 C   0  0  0  0  0  0  0  0  0  0  0  0
    5.7043    3.5562   -0.0848 C   0  0  0  0  0  0  0  0  0  0  0  0
    5.5732    3.2666   -1.4421 C   0  0  0  0  0  0  0  0  0  0  0  0
    5.2953    1.9610   -1.8535 C   0  0  0  0  0  0  0  0  0  0  0  0
    0.7487   -2.8498   -0.8280 S   0  0  0  0  0  0  0  0  0  0  0  0
   -0.7678   -2.7630    0.0577 C   0  0  0  0  0  0  0  0  0  0  0  0
   -2.0044   -3.8481   -0.2176 S   0  0  0  0  0  0  0  0  0  0  0  0
   -6.4428    0.1031   -1.2759 H   0  0  0  0  0  0  0  0  0  0  0  0
   -6.0380   -0.0757   -2.9918 H   0  0  0  0  0  0  0  0  0  0  0  0
   -5.2584   -1.1138   -1.7924 H   0  0  0  0  0  0  0  0  0  0  0  0
   -3.6991    0.6869   -2.5168 H   0  0  0  0  0  0  0  0  0  0  0  0
   -4.9112    1.9080   -2.1501 H   0  0  0  0  0  0  0  0  0  0  0  0
   -4.8242    1.3157    0.2612 H   0  0  0  0  0  0  0  0  0  0  0  0
   -3.2858    1.9013   -0.3737 H   0  0  0  0  0  0  0  0  0  0  0  0
   -4.0109   -1.0222    0.1842 H   0  0  0  0  0  0  0  0  0  0  0  0
   -2.5663   -0.5128   -0.6797 H   0  0  0  0  0  0  0  0  0  0  0  0
   -1.7680    0.7477    1.2572 H   0  0  0  0  0  0  0  0  0  0  0  0
   -2.8068    0.6347    3.4718 H   0  0  0  0  0  0  0  0  0  0  0  0
   -3.7912    1.5079    2.3235 H   0  0  0  0  0  0  0  0  0  0  0  0
   -5.2957   -0.4974    2.0835 H   0  0  0  0  0  0  0  0  0  0  0  0
   -4.2950   -1.3658    3.2655 H   0  0  0  0  0  0  0  0  0  0  0  0
   -5.1822    0.0819    3.7473 H   0  0  0  0  0  0  0  0  0  0  0  0
   -1.3694   -1.1807    2.8460 H   0  0  0  0  0  0  0  0  0  0  0  0
   -2.5356   -2.1434    1.9518 H   0  0  0  0  0  0  0  0  0  0  0  0
    2.8169   -0.0858    0.5185 H   0  0  0  0  0  0  0  0  0  0  0  0
    3.4481   -3.3869   -1.7150 H   0  0  0  0  0  0  0  0  0  0  0  0
    5.5712   -2.9031   -3.0115 H   0  0  0  0  0  0  0  0  0  0  0  0
    5.2035    0.4515    1.2004 H   0  0  0  0  0  0  0  0  0  0  0  0
    5.6794    2.7664    1.9195 H   0  0  0  0  0  0  0  0  0  0  0  0
    5.9255    4.5712    0.2347 H   0  0  0  0  0  0  0  0  0  0  0  0
    5.6930    4.0538   -2.1817 H   0  0  0  0  0  0  0  0  0  0  0  0
    5.2052    1.7387   -2.9149 H   0  0  0  0  0  0  0  0  0  0  0  0
  1  2  1  0
  2  3  1  0
  3  4  1  0
  4  5  1  0
  5  6  1  0
  6  7  1  0
  5  8  1  0
  8  9  1  0
  9 10  1  0
 10 11  2  0
 10 12  1  0
 12 13  2  3
 13 14  1  0
 14 15  2  0
 15 16  1  0
 16 17  1  0
 17 18  2  0
 18 19  1  0
 19 20  2  0
 20 21  1  0
 21 22  2  0
 22 23  1  0
 23 24  2  0
 12 25  1  0
 25 26  1  0
 26 27  2  0
 26  9  1  0
 18 14  1  0
 24 19  1  0
  1 28  1  0
  1 29  1  0
  1 30  1  0
  2 31  1  0
  2 32  1  0
  3 33  1  0
  3 34  1  0
  4 35  1  0
  4 36  1  0
  5 37  1  0
  6 38  1  0
  6 39  1  0
  7 40  1  0
  7 41  1  0
  7 42  1  0
  8 43  1  0
  8 44  1  0
 13 45  1  0
 15 46  1  0
 16 47  1  0
 20 48  1  0
 21 49  1  0
 22 50  1  0
 23 51  1  0
 24 52  1  0
M  END
$$$$
