
     RDKit          3D

 68 71  0  0  0  0  0  0  0  0999 V2000
    8.2467   -1.7617   -4.8276 C   0  0  0  0  0  0  0  0  0  0  0  0
    7.7179   -2.6941   -3.8929 O   0  0  0  0  0  0  0  0  0  0  0  0
    6.4817   -2.4193   -3.3776 C   0  0  0  0  0  0  0  0  0  0  0  0
    5.6718   -1.3361   -3.7180 C   0  0  0  0  0  0  0  0  0  0  0  0
    4.4194   -1.1742   -3.1126 C   0  0  0  0  0  0  0  0  0  0  0  0
    3.9690   -2.0896   -2.1551 C   0  0  0  0  0  0  0  0  0  0  0  0
    2.6539   -1.9542   -1.5171 C   0  0  0  0  0  0  0  0  0  0  0  0
    2.2569   -0.9292   -0.7354 C   0  0  0  0  0  0  0  0  0  0  0  0
    3.1005    0.1744   -0.4319 C   0  0  0  0  0  0  0  0  0  0  0  0
    3.7483    1.1006   -0.1659 N   0  0  0  0  0  0  0  0  0  0  0  0
    0.8639   -0.9984   -0.1667 C   0  0  0  0  0  0  0  0  0  0  0  0
    0.1203   -1.9287   -0.4683 O   0  0  0  0  0  0  0  0  0  0  0  0
    0.5277    0.0376    0.6736 N   0  0  0  0  0  0  0  0  0  0  0  0
   -0.6797    0.2459    1.3769 C   0  0  0  0  0  0  0  0  0  0  0  0
   -1.7715   -0.6173    1.3557 C   0  0  0  0  0  0  0  0  0  0  0  0
   -2.9107   -0.2905    2.0996 C   0  0  0  0  0  0  0  0  0  0  0  0
   -4.3011   -1.3952    2.0608 S   0  0  0  0  0  6  0  0  0  0  0  0
   -3.8198   -2.7026    2.4499 O   0  0  0  0  0  0  0  0  0  0  0  0
   -5.4052   -0.7651    2.7559 O   0  0  0  0  0  0  0  0  0  0  0  0
   -4.7048   -1.4299    0.4031 N   0  0  0  0  0  0  0  0  0  0  0  0
   -5.1810   -0.1499   -0.1896 C   0  0  0  0  0  0  0  0  0  0  0  0
   -6.6648   -0.2078   -0.5269 C   0  0  0  0  0  0  0  0  0  0  0  0
   -6.9695   -1.3110   -1.5378 C   0  0  0  0  0  0  0  0  0  0  0  0
   -6.0073   -2.4913   -1.4174 C   0  0  0  0  0  0  0  0  0  0  0  0
   -5.4763   -2.6377    0.0037 C   0  0  0  0  0  0  0  0  0  0  0  0
   -2.9697    0.8782    2.8645 C   0  0  0  0  0  0  0  0  0  0  0  0
   -1.8739    1.7408    2.8852 C   0  0  0  0  0  0  0  0  0  0  0  0
   -0.7217    1.4368    2.1473 C   0  0  0  0  0  0  0  0  0  0  0  0
    0.4188    2.2779    2.1361 N   0  0  0  0  0  0  0  0  0  0  0  0
    0.1909    3.5836    1.4836 C   0  0  0  0  0  0  0  0  0  0  0  0
    0.4513    4.7512    2.4306 C   0  0  0  0  0  0  0  0  0  0  0  0
    1.8518    4.6874    3.0397 C   0  0  0  0  0  0  0  0  0  0  0  0
    2.3023    3.2578    3.3480 C   0  0  0  0  0  0  0  0  0  0  0  0
    1.1199    2.2985    3.4324 C   0  0  0  0  0  0  0  0  0  0  0  0
    4.7772   -3.1801   -1.8244 C   0  0  0  0  0  0  0  0  0  0  0  0
    6.0262   -3.3386   -2.4309 C   0  0  0  0  0  0  0  0  0  0  0  0
    9.2385   -2.1150   -5.1259 H   0  0  0  0  0  0  0  0  0  0  0  0
    8.3672   -0.7722   -4.3744 H   0  0  0  0  0  0  0  0  0  0  0  0
    7.6267   -1.7117   -5.7289 H   0  0  0  0  0  0  0  0  0  0  0  0
    5.9798   -0.6011   -4.4533 H   0  0  0  0  0  0  0  0  0  0  0  0
    3.8030   -0.3273   -3.4067 H   0  0  0  0  0  0  0  0  0  0  0  0
    1.9865   -2.7957   -1.7011 H   0  0  0  0  0  0  0  0  0  0  0  0
    1.1822    0.7968    0.8663 H   0  0  0  0  0  0  0  0  0  0  0  0
   -1.7631   -1.5390    0.7823 H   0  0  0  0  0  0  0  0  0  0  0  0
   -4.9979    0.6938    0.4833 H   0  0  0  0  0  0  0  0  0  0  0  0
   -4.5893    0.0432   -1.0928 H   0  0  0  0  0  0  0  0  0  0  0  0
   -7.2397   -0.3903    0.3902 H   0  0  0  0  0  0  0  0  0  0  0  0
   -7.0033    0.7569   -0.9217 H   0  0  0  0  0  0  0  0  0  0  0  0
   -8.0027   -1.6492   -1.3934 H   0  0  0  0  0  0  0  0  0  0  0  0
   -6.9148   -0.9125   -2.5582 H   0  0  0  0  0  0  0  0  0  0  0  0
   -6.5094   -3.4125   -1.7347 H   0  0  0  0  0  0  0  0  0  0  0  0
   -5.1650   -2.3401   -2.1052 H   0  0  0  0  0  0  0  0  0  0  0  0
   -4.8097   -3.5075    0.0408 H   0  0  0  0  0  0  0  0  0  0  0  0
   -6.3069   -2.8079    0.6999 H   0  0  0  0  0  0  0  0  0  0  0  0
   -3.8576    1.1203    3.4444 H   0  0  0  0  0  0  0  0  0  0  0  0
   -1.9227    2.6484    3.4802 H   0  0  0  0  0  0  0  0  0  0  0  0
    0.8780    3.6502    0.6312 H   0  0  0  0  0  0  0  0  0  0  0  0
   -0.8204    3.6692    1.0662 H   0  0  0  0  0  0  0  0  0  0  0  0
    0.3226    5.7023    1.9008 H   0  0  0  0  0  0  0  0  0  0  0  0
   -0.2925    4.7400    3.2374 H   0  0  0  0  0  0  0  0  0  0  0  0
    1.8702    5.2909    3.9547 H   0  0  0  0  0  0  0  0  0  0  0  0
    2.5761    5.1480    2.3569 H   0  0  0  0  0  0  0  0  0  0  0  0
    2.8740    3.2417    4.2832 H   0  0  0  0  0  0  0  0  0  0  0  0
    2.9849    2.9210    2.5574 H   0  0  0  0  0  0  0  0  0  0  0  0
    0.4549    2.6016    4.2506 H   0  0  0  0  0  0  0  0  0  0  0  0
    1.4922    1.2924    3.6629 H   0  0  0  0  0  0  0  0  0  0  0  0
    4.4490   -3.9146   -1.0926 H   0  0  0  0  0  0  0  0  0  0  0  0
    6.6500   -4.1883   -2.1632 H   0  0  0  0  0  0  0  0  0  0  0  0
  1  2  1  0
  2  3  1  0
  3  4  2  0
  4  5  1  0
  5  6  2  0
  6  7  1  0
  7  8  2  3
  8  9  1  0
  9 10  3  0
  8 11  1  0
 11 12  2  0
 11 13  1  0
 13 14  1  0
 14 15  2  0
 15 16  1  0
 16 17  1  0
 17 18  2  0
 17 19  2  0
 17 20  1  0
 20 21  1  0
 21 22  1  0
 22 23  1  0
 23 24  1  0
 24 25  1  0
 16 26  2  0
 26 27  1  0
 27 28  2  0
 28 29  1  0
 29 30  1  0
 30 31  1  0
 31 32  1  0
 32 33  1  0
 33 34  1  0
  6 35  1  0
 35 36  2  0
 36  3  1  0
 28 14  1  0
 34 29  1  0
 25 20  1  0
  1 37  1  0
  1 38  1  0
  1 39  1  0
  4 40  1  0
  5 41  1  0
  7 42  1  0
 13 43  1  0
 15 44  1  0
 21 45  1  0
 21 46  1  0
 22 47  1  0
 22 48  1  0
 23 49  1  0
 23 50  1  0
 24 51  1  0
 24 52  1  0
 25 53  1  0
 25 54  1  0
 26 55  1  0
 27 56  1  0
 30 57  1  0
 30 58  1  0
 31 59  1  0
 31 60  1  0
 32 61  1  0
 32 62  1  0
 33 63  1  0
 33 64  1  0
 34 65  1  0
 34 66  1  0
 35 67  1  0
 36 68  1  0
M  END
$$$$
