
     RDKit          3D

 32 34  0  0  0  0  0  0  0  0999 V2000
    0.2037   -3.2021    0.8862 N   0  0  0  0  0  0  0  0  0  0  0  0
    0.7873   -1.9406    0.6524 C   0  0  0  0  0  0  0  0  0  0  0  0
    2.0684   -1.8832    0.0890 C   0  0  0  0  0  0  0  0  0  0  0  0
    2.6326   -0.6596   -0.2741 C   0  0  0  0  0  0  0  0  0  0  0  0
    1.9201    0.5265   -0.0823 C   0  0  0  0  0  0  0  0  0  0  0  0
    0.6202    0.4869    0.4121 C   0  0  0  0  0  0  0  0  0  0  0  0
    0.0422   -0.7466    0.7458 C   0  0  0  0  0  0  0  0  0  0  0  0
   -1.3483   -0.7813    1.2668 C   0  0  0  0  0  0  0  0  0  0  0  0
   -1.6035   -1.4737    2.2504 O   0  0  0  0  0  0  0  0  0  0  0  0
   -2.4341    0.0003    0.6200 C   0  0  0  0  0  0  0  0  0  0  0  0
   -3.5029    0.4386    1.4129 C   0  0  0  0  0  0  0  0  0  0  0  0
   -4.5472    1.1686    0.8431 C   0  0  0  0  0  0  0  0  0  0  0  0
   -4.5323    1.4539   -0.5221 C   0  0  0  0  0  0  0  0  0  0  0  0
   -3.4769    0.9998   -1.3129 C   0  0  0  0  0  0  0  0  0  0  0  0
   -3.4697    1.3744   -3.1664 Br  0  0  0  0  0  0  0  0  0  0  0  0
   -2.4287    0.2690   -0.7536 C   0  0  0  0  0  0  0  0  0  0  0  0
    2.4280    1.7651   -0.3780 O   0  0  0  0  0  0  0  0  0  0  0  0
    3.8480    1.7170   -0.5637 C   0  0  0  0  0  0  0  0  0  0  0  0
    4.2332    0.5403   -1.4449 C   0  0  0  0  0  0  0  0  0  0  0  0
    3.8946   -0.6983   -0.8102 O   0  0  0  0  0  0  0  0  0  0  0  0
    0.8724   -3.9178    1.1534 H   0  0  0  0  0  0  0  0  0  0  0  0
   -0.5595   -3.1344    1.5700 H   0  0  0  0  0  0  0  0  0  0  0  0
    2.6339   -2.7959   -0.0785 H   0  0  0  0  0  0  0  0  0  0  0  0
    0.0753    1.4173    0.5458 H   0  0  0  0  0  0  0  0  0  0  0  0
   -3.5231    0.2110    2.4775 H   0  0  0  0  0  0  0  0  0  0  0  0
   -5.3730    1.5095    1.4630 H   0  0  0  0  0  0  0  0  0  0  0  0
   -5.3499    2.0211   -0.9601 H   0  0  0  0  0  0  0  0  0  0  0  0
   -1.6294   -0.0996   -1.3908 H   0  0  0  0  0  0  0  0  0  0  0  0
    4.3263    1.6549    0.4217 H   0  0  0  0  0  0  0  0  0  0  0  0
    4.1530    2.6576   -1.0328 H   0  0  0  0  0  0  0  0  0  0  0  0
    5.3131    0.5376   -1.6227 H   0  0  0  0  0  0  0  0  0  0  0  0
    3.7263    0.5835   -2.4169 H   0  0  0  0  0  0  0  0  0  0  0  0
  1  2  1  0
  2  3  2  0
  3  4  1  0
  4  5  2  0
  5  6  1  0
  6  7  2  0
  7  8  1  0
  8  9  2  0
  8 10  1  0
 10 11  2  0
 11 12  1  0
 12 13  2  0
 13 14  1  0
 14 15  1  0
 14 16  2  0
  5 17  1  0
 17 18  1  0
 18 19  1  0
 19 20  1  0
  7  2  1  0
 16 10  1  0
 20  4  1  0
  1 21  1  0
  1 22  1  0
  3 23  1  0
  6 24  1  0
 11 25  1  0
 12 26  1  0
 13 27  1  0
 16 28  1  0
 18 29  1  0
 18 30  1  0
 19 31  1  0
 19 32  1  0
M  END
$$$$
