
     RDKit          3D

 48 50  0  0  0  0  0  0  0  0999 V2000
    5.1003    0.1075    4.3747 C   0  0  0  0  0  0  0  0  0  0  0  0
    4.1179   -0.2890    3.3032 C   0  0  0  0  0  0  0  0  0  0  0  0
    4.2120   -1.5680    2.7411 C   0  0  0  0  0  0  0  0  0  0  0  0
    3.3350   -1.9910    1.7414 C   0  0  0  0  0  0  0  0  0  0  0  0
    2.3474   -1.0967    1.3103 C   0  0  0  0  0  0  0  0  0  0  0  0
    1.1446   -1.3239    0.1025 S   0  0  0  0  0  0  0  0  0  0  0  0
    0.5348    0.2484    0.3931 C   0  0  0  0  0  0  0  0  0  0  0  0
   -0.5307    0.7252   -0.3742 N   0  0  0  0  0  0  0  0  0  0  0  0
   -1.2470   -0.0506   -1.3956 C   0  0  0  0  0  0  0  0  0  0  0  0
   -2.3551   -0.9168   -0.7831 C   0  0  0  0  0  0  0  0  0  0  0  0
   -3.1512   -1.6852   -1.8458 C   0  0  0  0  0  0  0  0  0  0  0  0
   -2.3258   -2.5755   -2.6795 N   0  0  0  0  0  0  0  0  0  0  0  0
   -1.8323   -3.7291   -1.9216 C   0  0  0  0  0  0  0  0  0  0  0  0
   -3.1030   -3.0496   -3.8300 C   0  0  0  0  0  0  0  0  0  0  0  0
   -1.1242    1.8995    0.1176 C   0  0  0  0  0  0  0  0  0  0  0  0
   -1.4063    2.0459    1.3080 O   0  0  0  0  0  0  0  0  0  0  0  0
   -1.5003    2.9176   -0.8614 C   0  0  0  0  0  0  0  0  0  0  0  0
   -2.5656    3.7987   -0.7747 C   0  0  0  0  0  0  0  0  0  0  0  0
   -2.6314    4.6901   -1.8861 C   0  0  0  0  0  0  0  0  0  0  0  0
   -1.5932    4.4707   -2.7537 C   0  0  0  0  0  0  0  0  0  0  0  0
   -1.3414    5.4651   -4.3658 Br  0  0  0  0  0  0  0  0  0  0  0  0
   -0.5409    3.2437   -2.2486 S   0  0  0  0  0  0  0  0  0  0  0  0
    1.1891    0.9359    1.2987 N   0  0  0  0  0  0  0  0  0  0  0  0
    2.2186    0.1833    1.8462 C   0  0  0  0  0  0  0  0  0  0  0  0
    3.1134    0.6127    2.8628 C   0  0  0  0  0  0  0  0  0  0  0  0
    3.0052    1.9903    3.4619 C   0  0  0  0  0  0  0  0  0  0  0  0
    5.8012   -0.7045    4.5966 H   0  0  0  0  0  0  0  0  0  0  0  0
    4.5748    0.3505    5.3038 H   0  0  0  0  0  0  0  0  0  0  0  0
    5.6896    0.9709    4.0489 H   0  0  0  0  0  0  0  0  0  0  0  0
    4.9827   -2.2587    3.0802 H   0  0  0  0  0  0  0  0  0  0  0  0
    3.4207   -2.9837    1.3108 H   0  0  0  0  0  0  0  0  0  0  0  0
   -1.7210    0.6312   -2.1075 H   0  0  0  0  0  0  0  0  0  0  0  0
   -0.5306   -0.6400   -1.9771 H   0  0  0  0  0  0  0  0  0  0  0  0
   -3.0543   -0.2712   -0.2348 H   0  0  0  0  0  0  0  0  0  0  0  0
   -1.9437   -1.6048   -0.0372 H   0  0  0  0  0  0  0  0  0  0  0  0
   -3.6367   -0.9373   -2.4875 H   0  0  0  0  0  0  0  0  0  0  0  0
   -3.9590   -2.2470   -1.3586 H   0  0  0  0  0  0  0  0  0  0  0  0
   -1.1759   -3.4205   -1.1035 H   0  0  0  0  0  0  0  0  0  0  0  0
   -1.2266   -4.3821   -2.5649 H   0  0  0  0  0  0  0  0  0  0  0  0
   -2.6537   -4.3228   -1.5037 H   0  0  0  0  0  0  0  0  0  0  0  0
   -2.4842   -3.6837   -4.4768 H   0  0  0  0  0  0  0  0  0  0  0  0
   -3.4386   -2.2063   -4.4445 H   0  0  0  0  0  0  0  0  0  0  0  0
   -3.9810   -3.6268   -3.5201 H   0  0  0  0  0  0  0  0  0  0  0  0
   -3.2671    3.7944    0.0524 H   0  0  0  0  0  0  0  0  0  0  0  0
   -3.3959    5.4460   -2.0232 H   0  0  0  0  0  0  0  0  0  0  0  0
    2.1731    2.5558    3.0302 H   0  0  0  0  0  0  0  0  0  0  0  0
    3.9234    2.5587    3.2745 H   0  0  0  0  0  0  0  0  0  0  0  0
    2.8324    1.9227    4.5409 H   0  0  0  0  0  0  0  0  0  0  0  0
  1  2  1  0
  2  3  2  0
  3  4  1  0
  4  5  2  0
  5  6  1  0
  6  7  1  0
  7  8  1  0
  8  9  1  0
  9 10  1  0
 10 11  1  0
 11 12  1  0
 12 13  1  0
 12 14  1  0
  8 15  1  0
 15 16  2  0
 15 17  1  0
 17 18  2  0
 18 19  1  0
 19 20  2  0
 20 21  1  0
 20 22  1  0
  7 23  2  0
 23 24  1  0
 24 25  2  0
 25 26  1  0
 25  2  1  0
 24  5  1  0
 22 17  1  0
  1 27  1  0
  1 28  1  0
  1 29  1  0
  3 30  1  0
  4 31  1  0
  9 32  1  0
  9 33  1  0
 10 34  1  0
 10 35  1  0
 11 36  1  0
 11 37  1  0
 13 38  1  0
 13 39  1  0
 13 40  1  0
 14 41  1  0
 14 42  1  0
 14 43  1  0
 18 44  1  0
 19 45  1  0
 26 46  1  0
 26 47  1  0
 26 48  1  0
M  END
$$$$
