
     RDKit          3D

 43 45  0  0  0  0  0  0  0  0999 V2000
    3.9788   -2.2189    1.3569 C   0  0  0  0  0  0  0  0  0  0  0  0
    3.1532   -1.1889    1.9805 N   0  0  0  0  0  0  0  0  0  0  0  0
    2.1899   -1.7932    2.9239 C   0  0  0  0  0  0  0  0  0  0  0  0
    0.9912   -0.8817    3.2361 C   0  0  0  0  0  0  0  0  0  0  0  0
    0.2425   -0.5398    2.0279 N   0  0  0  0  0  0  0  0  0  0  0  0
   -1.1109   -0.2586    2.1349 C   0  0  0  0  0  0  0  0  0  0  0  0
   -1.7381   -0.2255    3.1881 O   0  0  0  0  0  0  0  0  0  0  0  0
   -1.8831    0.0461    0.8634 C   0  0  0  0  0  0  0  0  0  0  0  0
   -2.5806    1.3922    0.8636 C   0  0  0  0  0  0  0  0  0  0  0  0
   -1.8876    2.3480   -0.0623 C   0  0  0  0  0  0  0  0  0  0  0  0
   -2.2929    2.7717   -1.3130 C   0  0  0  0  0  0  0  0  0  0  0  0
   -1.3779    3.6932   -1.8970 C   0  0  0  0  0  0  0  0  0  0  0  0
   -0.3155    3.9618   -1.0645 C   0  0  0  0  0  0  0  0  0  0  0  0
   -0.4276    3.1119    0.4130 S   0  0  0  0  0  0  0  0  0  0  0  0
   -1.8761   -0.8630   -0.0686 N   0  0  0  0  0  0  0  0  0  0  0  0
   -2.5754   -0.6224   -1.2197 C   0  0  0  0  0  0  0  0  0  0  0  0
   -3.7654   -0.3317   -1.2556 O   0  0  0  0  0  0  0  0  0  0  0  0
   -1.7482   -0.7719   -2.4024 C   0  0  0  0  0  0  0  0  0  0  0  0
   -2.0696   -0.6454   -3.7431 C   0  0  0  0  0  0  0  0  0  0  0  0
   -0.8826   -0.8820   -4.4762 C   0  0  0  0  0  0  0  0  0  0  0  0
    0.0946   -1.1396   -3.5457 C   0  0  0  0  0  0  0  0  0  0  0  0
   -0.4133   -1.0731   -2.2891 O   0  0  0  0  0  0  0  0  0  0  0  0
    0.9926   -0.5788    0.7686 C   0  0  0  0  0  0  0  0  0  0  0  0
    2.4973   -0.3240    0.9789 C   0  0  0  0  0  0  0  0  0  0  0  0
    4.7675   -1.7613    0.7498 H   0  0  0  0  0  0  0  0  0  0  0  0
    3.3926   -2.8865    0.7157 H   0  0  0  0  0  0  0  0  0  0  0  0
    4.4816   -2.8234    2.1200 H   0  0  0  0  0  0  0  0  0  0  0  0
    1.7977   -2.7344    2.5158 H   0  0  0  0  0  0  0  0  0  0  0  0
    2.7119   -2.0352    3.8564 H   0  0  0  0  0  0  0  0  0  0  0  0
    0.3285   -1.3696    3.9590 H   0  0  0  0  0  0  0  0  0  0  0  0
    1.3323    0.0595    3.6842 H   0  0  0  0  0  0  0  0  0  0  0  0
   -2.5951    1.8088    1.8774 H   0  0  0  0  0  0  0  0  0  0  0  0
   -3.6293    1.2646    0.5806 H   0  0  0  0  0  0  0  0  0  0  0  0
   -3.2062    2.4349   -1.7915 H   0  0  0  0  0  0  0  0  0  0  0  0
   -1.4987    4.1443   -2.8742 H   0  0  0  0  0  0  0  0  0  0  0  0
    0.5169    4.6277   -1.2468 H   0  0  0  0  0  0  0  0  0  0  0  0
   -3.0508   -0.4087   -4.1321 H   0  0  0  0  0  0  0  0  0  0  0  0
   -0.7548   -0.8685   -5.5496 H   0  0  0  0  0  0  0  0  0  0  0  0
    1.1478   -1.3747   -3.6123 H   0  0  0  0  0  0  0  0  0  0  0  0
    0.5943    0.1627    0.0723 H   0  0  0  0  0  0  0  0  0  0  0  0
    0.8401   -1.5719    0.3303 H   0  0  0  0  0  0  0  0  0  0  0  0
    3.0140   -0.3629    0.0120 H   0  0  0  0  0  0  0  0  0  0  0  0
    2.6145    0.7083    1.3342 H   0  0  0  0  0  0  0  0  0  0  0  0
  1  2  1  0
  2  3  1  0
  3  4  1  0
  4  5  1  0
  5  6  1  0
  6  7  2  0
  6  8  1  0
  8  9  1  0
  9 10  1  0
 10 11  2  0
 11 12  1  0
 12 13  2  0
 13 14  1  0
  8 15  2  3
 15 16  1  0
 16 17  2  0
 16 18  1  0
 18 19  2  0
 19 20  1  0
 20 21  2  0
 21 22  1  0
  5 23  1  0
 23 24  1  0
 24  2  1  0
 14 10  1  0
 22 18  1  0
  1 25  1  0
  1 26  1  0
  1 27  1  0
  3 28  1  0
  3 29  1  0
  4 30  1  0
  4 31  1  0
  9 32  1  0
  9 33  1  0
 11 34  1  0
 12 35  1  0
 13 36  1  0
 19 37  1  0
 20 38  1  0
 21 39  1  0
 23 40  1  0
 23 41  1  0
 24 42  1  0
 24 43  1  0
M  END
$$$$
