
     RDKit          3D

 51 54  0  0  0  0  0  0  0  0999 V2000
    1.3227    3.0995    0.7538 O   0  0  0  0  0  0  0  0  0  0  0  0
    1.4428    1.8742    0.7006 C   0  0  0  0  0  0  0  0  0  0  0  0
    2.7110    1.2612    0.3370 C   0  0  0  0  0  0  0  0  0  0  0  0
    3.5481    1.6414   -0.6962 C   0  0  0  0  0  0  0  0  0  0  0  0
    4.7432    0.8637   -0.7493 C   0  0  0  0  0  0  0  0  0  0  0  0
    4.7838   -0.0592    0.2767 C   0  0  0  0  0  0  0  0  0  0  0  0
    3.4245    0.0312    1.2941 S   0  0  0  0  0  0  0  0  0  0  0  0
    5.9120   -1.0092    0.5376 C   0  0  0  0  0  0  0  0  0  0  0  0
    6.8421   -1.0919   -0.6839 C   0  0  0  0  0  0  0  0  0  0  0  0
    7.1303    0.2942   -1.2792 C   0  0  0  0  0  0  0  0  0  0  0  0
    5.8417    0.9780   -1.7625 C   0  0  0  0  0  0  0  0  0  0  0  0
    0.3360    1.0549    0.9533 N   0  0  0  0  0  0  0  0  0  0  0  0
    0.2244   -0.3463    0.5234 C   0  0  0  0  0  0  0  0  0  0  0  0
   -1.2055   -0.7228    0.1050 C   0  0  0  0  0  0  0  0  0  0  0  0
   -2.1514   -0.4553    1.2070 N   0  0  0  0  0  0  0  0  0  0  0  0
   -3.6280   -1.2470    1.2752 S   0  0  0  0  0  6  0  0  0  0  0  0
   -3.3736   -2.6098    0.8667 O   0  0  0  0  0  0  0  0  0  0  0  0
   -4.2599   -0.9172    2.5320 O   0  0  0  0  0  0  0  0  0  0  0  0
   -4.6423   -0.5153   -0.0043 C   0  0  0  0  0  0  0  0  0  0  0  0
   -4.3575    0.7802   -0.4608 C   0  0  0  0  0  0  0  0  0  0  0  0
   -5.1099    1.3491   -1.4883 C   0  0  0  0  0  0  0  0  0  0  0  0
   -6.1503    0.6316   -2.0667 C   0  0  0  0  0  0  0  0  0  0  0  0
   -6.4484   -0.6520   -1.6093 C   0  0  0  0  0  0  0  0  0  0  0  0
   -5.7117   -1.2450   -0.5632 C   0  0  0  0  0  0  0  0  0  0  0  0
   -6.1057   -2.6318   -0.1022 C   0  0  0  0  0  0  0  0  0  0  0  0
   -5.3497   -3.6092   -0.6659 F   0  0  0  0  0  0  0  0  0  0  0  0
   -6.0593   -2.8024    1.2427 F   0  0  0  0  0  0  0  0  0  0  0  0
   -7.3931   -2.9384   -0.4475 F   0  0  0  0  0  0  0  0  0  0  0  0
   -1.8864    0.7198    2.0685 C   0  0  0  0  0  0  0  0  0  0  0  0
   -0.8919    1.6954    1.4253 C   0  0  0  0  0  0  0  0  0  0  0  0
    3.3018    2.4406   -1.3855 H   0  0  0  0  0  0  0  0  0  0  0  0
    5.5354   -2.0103    0.7763 H   0  0  0  0  0  0  0  0  0  0  0  0
    6.4831   -0.6535    1.4040 H   0  0  0  0  0  0  0  0  0  0  0  0
    7.7801   -1.5799   -0.3968 H   0  0  0  0  0  0  0  0  0  0  0  0
    6.3787   -1.7213   -1.4545 H   0  0  0  0  0  0  0  0  0  0  0  0
    7.8322    0.2044   -2.1158 H   0  0  0  0  0  0  0  0  0  0  0  0
    7.6157    0.9171   -0.5174 H   0  0  0  0  0  0  0  0  0  0  0  0
    6.0458    2.0310   -1.9891 H   0  0  0  0  0  0  0  0  0  0  0  0
    5.5059    0.5009   -2.6916 H   0  0  0  0  0  0  0  0  0  0  0  0
    0.5271   -0.9644    1.3766 H   0  0  0  0  0  0  0  0  0  0  0  0
    0.9046   -0.5421   -0.3111 H   0  0  0  0  0  0  0  0  0  0  0  0
   -1.2175   -1.7826   -0.1665 H   0  0  0  0  0  0  0  0  0  0  0  0
   -1.5016   -0.1403   -0.7741 H   0  0  0  0  0  0  0  0  0  0  0  0
   -3.5577    1.3701   -0.0296 H   0  0  0  0  0  0  0  0  0  0  0  0
   -4.8841    2.3543   -1.8379 H   0  0  0  0  0  0  0  0  0  0  0  0
   -6.7367    1.0728   -2.8701 H   0  0  0  0  0  0  0  0  0  0  0  0
   -7.2750   -1.1931   -2.0714 H   0  0  0  0  0  0  0  0  0  0  0  0
   -1.4738    0.3500    3.0145 H   0  0  0  0  0  0  0  0  0  0  0  0
   -2.8124    1.2587    2.2927 H   0  0  0  0  0  0  0  0  0  0  0  0
   -1.3502    2.1762    0.5525 H   0  0  0  0  0  0  0  0  0  0  0  0
   -0.6399    2.4892    2.1378 H   0  0  0  0  0  0  0  0  0  0  0  0
  1  2  2  0
  2  3  1  0
  3  4  2  0
  4  5  1  0
  5  6  2  0
  6  7  1  0
  6  8  1  0
  8  9  1  0
  9 10  1  0
 10 11  1  0
  2 12  1  0
 12 13  1  0
 13 14  1  0
 14 15  1  0
 15 16  1  0
 16 17  2  0
 16 18  2  0
 16 19  1  0
 19 20  2  0
 20 21  1  0
 21 22  2  0
 22 23  1  0
 23 24  2  0
 24 25  1  0
 25 26  1  0
 25 27  1  0
 25 28  1  0
 15 29  1  0
 29 30  1  0
  7  3  1  0
 30 12  1  0
 11  5  1  0
 24 19  1  0
  4 31  1  0
  8 32  1  0
  8 33  1  0
  9 34  1  0
  9 35  1  0
 10 36  1  0
 10 37  1  0
 11 38  1  0
 11 39  1  0
 13 40  1  0
 13 41  1  0
 14 42  1  0
 14 43  1  0
 20 44  1  0
 21 45  1  0
 22 46  1  0
 23 47  1  0
 29 48  1  0
 29 49  1  0
 30 50  1  0
 30 51  1  0
M  END
$$$$
