
     RDKit          3D

 59 63  0  0  0  0  0  0  0  0999 V2000
   -3.8037    3.6385   -0.3924 C   0  0  0  0  0  0  0  0  0  0  0  0
   -3.6256    2.6195    0.7241 C   0  0  0  0  0  0  0  0  0  0  0  0
   -2.5408    1.5814    0.3669 C   0  0  0  0  0  0  0  0  0  0  0  0
   -2.3195    0.6478    1.5082 N   0  0  0  0  0  0  0  0  0  0  0  0
   -1.7645   -0.5586    1.0328 C   0  0  0  0  0  0  0  0  0  0  0  0
   -2.5988   -1.5467    0.6385 N   0  0  0  0  0  0  0  0  0  0  0  0
   -2.0609   -2.6800    0.1492 C   0  0  0  0  0  0  0  0  0  0  0  0
   -2.8948   -3.7135   -0.2602 C   0  0  0  0  0  0  0  0  0  0  0  0
   -2.3784   -4.9026   -0.7781 C   0  0  0  0  0  0  0  0  0  0  0  0
   -1.0030   -5.0606   -0.8891 C   0  0  0  0  0  0  0  0  0  0  0  0
   -0.1570   -4.0283   -0.4808 C   0  0  0  0  0  0  0  0  0  0  0  0
   -0.6635   -2.8413    0.0357 C   0  0  0  0  0  0  0  0  0  0  0  0
    0.1793   -1.8657    0.4177 N   0  0  0  0  0  0  0  0  0  0  0  0
   -0.3749   -0.7297    0.9426 C   0  0  0  0  0  0  0  0  0  0  0  0
    0.5765    0.3577    1.3925 C   0  0  0  0  0  0  0  0  0  0  0  0
    1.6814   -0.1607    2.2127 C   0  0  0  0  0  0  0  0  0  0  0  0
    2.5458   -0.5573    2.8809 N   0  0  0  0  0  0  0  0  0  0  0  0
    1.1385    1.1253    0.2041 C   0  0  0  0  0  0  0  0  0  0  0  0
    1.1268    2.3570    0.1716 O   0  0  0  0  0  0  0  0  0  0  0  0
    1.6588    0.3679   -0.8253 N   0  0  0  0  0  0  0  0  0  0  0  0
    2.3455    0.9533   -1.9523 C   0  0  0  0  0  0  0  0  0  0  0  0
    3.8342    0.9638   -1.7198 C   0  0  0  0  0  0  0  0  0  0  0  0
    4.4368    2.0537   -1.0490 C   0  0  0  0  0  0  0  0  0  0  0  0
    5.8119    2.0737   -0.7956 C   0  0  0  0  0  0  0  0  0  0  0  0
    6.5549    0.9920   -1.2116 C   0  0  0  0  0  0  0  0  0  0  0  0
    5.9779   -0.0769   -1.8550 C   0  0  0  0  0  0  0  0  0  0  0  0
    4.6257   -0.1243   -2.1224 C   0  0  0  0  0  0  0  0  0  0  0  0
    6.8835   -1.0400   -2.1745 O   0  0  0  0  0  0  0  0  0  0  0  0
    8.0916   -0.4658   -1.6329 C   0  0  0  0  0  0  0  0  0  0  0  0
    7.8959    0.8370   -1.0471 O   0  0  0  0  0  0  0  0  0  0  0  0
   -3.5579    0.4268    2.3055 C   0  0  0  0  0  0  0  0  0  0  0  0
   -4.8295    0.6669    1.4654 C   0  0  0  0  0  0  0  0  0  0  0  0
   -6.0860    0.4092    2.2853 C   0  0  0  0  0  0  0  0  0  0  0  0
   -4.9103    2.0171    0.9674 O   0  0  0  0  0  0  0  0  0  0  0  0
   -2.8731    4.1779   -0.5924 H   0  0  0  0  0  0  0  0  0  0  0  0
   -4.5794    4.3654   -0.1281 H   0  0  0  0  0  0  0  0  0  0  0  0
   -4.1314    3.1503   -1.3165 H   0  0  0  0  0  0  0  0  0  0  0  0
   -3.3392    3.1510    1.6403 H   0  0  0  0  0  0  0  0  0  0  0  0
   -1.6027    2.0974    0.1394 H   0  0  0  0  0  0  0  0  0  0  0  0
   -2.8548    1.0324   -0.5321 H   0  0  0  0  0  0  0  0  0  0  0  0
   -3.9717   -3.5884   -0.1730 H   0  0  0  0  0  0  0  0  0  0  0  0
   -3.0503   -5.6987   -1.0901 H   0  0  0  0  0  0  0  0  0  0  0  0
   -0.5860   -5.9824   -1.2880 H   0  0  0  0  0  0  0  0  0  0  0  0
    0.9205   -4.1546   -0.5616 H   0  0  0  0  0  0  0  0  0  0  0  0
    0.0456    1.0871    2.0161 H   0  0  0  0  0  0  0  0  0  0  0  0
    1.7127   -0.6420   -0.7080 H   0  0  0  0  0  0  0  0  0  0  0  0
    2.1012    0.3527   -2.8362 H   0  0  0  0  0  0  0  0  0  0  0  0
    1.9797    1.9697   -2.1397 H   0  0  0  0  0  0  0  0  0  0  0  0
    3.8233    2.8896   -0.7140 H   0  0  0  0  0  0  0  0  0  0  0  0
    6.2761    2.9072   -0.2818 H   0  0  0  0  0  0  0  0  0  0  0  0
    4.1990   -0.9850   -2.6249 H   0  0  0  0  0  0  0  0  0  0  0  0
    8.4870   -1.1401   -0.8640 H   0  0  0  0  0  0  0  0  0  0  0  0
    8.8301   -0.3810   -2.4387 H   0  0  0  0  0  0  0  0  0  0  0  0
   -3.5314    1.1556    3.1265 H   0  0  0  0  0  0  0  0  0  0  0  0
   -3.5707   -0.5628    2.7805 H   0  0  0  0  0  0  0  0  0  0  0  0
   -4.8430    0.0016    0.5939 H   0  0  0  0  0  0  0  0  0  0  0  0
   -6.1146   -0.6197    2.6568 H   0  0  0  0  0  0  0  0  0  0  0  0
   -6.1413    1.0922    3.1396 H   0  0  0  0  0  0  0  0  0  0  0  0
   -6.9816    0.5880    1.6811 H   0  0  0  0  0  0  0  0  0  0  0  0
  1  2  1  0
  2  3  1  0
  3  4  1  0
  4  5  1  0
  5  6  2  0
  6  7  1  0
  7  8  2  0
  8  9  1  0
  9 10  2  0
 10 11  1  0
 11 12  2  0
 12 13  1  0
 13 14  2  0
 14 15  1  0
 15 16  1  0
 16 17  3  0
 15 18  1  0
 18 19  2  0
 18 20  1  0
 20 21  1  0
 21 22  1  0
 22 23  2  0
 23 24  1  0
 24 25  2  0
 25 26  1  0
 26 27  2  0
 26 28  1  0
 28 29  1  0
 29 30  1  0
  4 31  1  0
 31 32  1  0
 32 33  1  0
 32 34  1  0
 34  2  1  0
 14  5  1  0
 27 22  1  0
 12  7  1  0
 30 25  1  0
  1 35  1  0
  1 36  1  0
  1 37  1  0
  2 38  1  0
  3 39  1  0
  3 40  1  0
  8 41  1  0
  9 42  1  0
 10 43  1  0
 11 44  1  0
 15 45  1  0
 20 46  1  0
 21 47  1  0
 21 48  1  0
 23 49  1  0
 24 50  1  0
 27 51  1  0
 29 52  1  0
 29 53  1  0
 31 54  1  0
 31 55  1  0
 32 56  1  0
 33 57  1  0
 33 58  1  0
 33 59  1  0
M  END
$$$$
