
     RDKit          3D

 29 31  0  0  0  0  0  0  0  0999 V2000
   -1.9400   -0.6161    0.6191 O   0  0  0  0  0  0  0  0  0  0  0  0
   -2.4924    0.1079   -0.1902 C   0  0  0  0  0  0  0  0  0  0  0  0
   -3.5710    0.8852    0.1365 N   0  0  0  0  0  0  0  0  0  0  0  0
   -4.2089    1.5629   -0.8521 C   0  0  0  0  0  0  0  0  0  0  0  0
   -5.5573    2.4909   -0.6107 S   0  0  0  0  0  0  0  0  0  0  0  0
   -3.3916    1.2910   -2.3685 S   0  0  0  0  0  0  0  0  0  0  0  0
   -2.1770    0.2647   -1.6436 C   0  0  0  0  0  0  0  0  0  0  0  0
   -1.1848   -0.2436   -2.3876 C   0  0  0  0  0  0  0  0  0  0  0  0
   -0.1086   -1.0407   -1.9144 C   0  0  0  0  0  0  0  0  0  0  0  0
    0.6987   -1.9019   -2.6480 C   0  0  0  0  0  0  0  0  0  0  0  0
    1.6619   -2.4496   -1.7684 C   0  0  0  0  0  0  0  0  0  0  0  0
    1.4196   -1.8983   -0.5309 C   0  0  0  0  0  0  0  0  0  0  0  0
    2.2816   -2.2024    0.9518 S   0  0  0  0  0  0  0  0  0  0  0  0
    1.3293   -1.2244    2.1496 C   0  0  0  0  0  0  0  0  0  0  0  0
    1.7420    0.2023    2.1583 C   0  0  0  0  0  0  0  0  0  0  0  0
    1.3075    1.3219    1.4777 C   0  0  0  0  0  0  0  0  0  0  0  0
    2.0979    2.4028    1.9345 C   0  0  0  0  0  0  0  0  0  0  0  0
    2.9588    1.8785    2.8692 C   0  0  0  0  0  0  0  0  0  0  0  0
    2.7475    0.5458    3.0170 O   0  0  0  0  0  0  0  0  0  0  0  0
    0.3653   -1.0431   -0.6274 O   0  0  0  0  0  0  0  0  0  0  0  0
   -3.9208    0.8769    1.0827 H   0  0  0  0  0  0  0  0  0  0  0  0
   -1.1742   -0.0338   -3.4552 H   0  0  0  0  0  0  0  0  0  0  0  0
    0.5982   -2.1126   -3.7042 H   0  0  0  0  0  0  0  0  0  0  0  0
    2.4411   -3.1605   -2.0051 H   0  0  0  0  0  0  0  0  0  0  0  0
    0.2559   -1.3240    1.9655 H   0  0  0  0  0  0  0  0  0  0  0  0
    1.5122   -1.6566    3.1398 H   0  0  0  0  0  0  0  0  0  0  0  0
    0.5195    1.3432    0.7385 H   0  0  0  0  0  0  0  0  0  0  0  0
    2.0488    3.4359    1.6219 H   0  0  0  0  0  0  0  0  0  0  0  0
    3.7405    2.2976    3.4870 H   0  0  0  0  0  0  0  0  0  0  0  0
  1  2  2  0
  2  3  1  0
  3  4  1  0
  4  5  2  0
  4  6  1  0
  6  7  1  0
  7  8  2  3
  8  9  1  0
  9 10  2  0
 10 11  1  0
 11 12  2  0
 12 13  1  0
 13 14  1  0
 14 15  1  0
 15 16  2  0
 16 17  1  0
 17 18  2  0
 18 19  1  0
 12 20  1  0
  7  2  1  0
 20  9  1  0
 19 15  1  0
  3 21  1  0
  8 22  1  0
 10 23  1  0
 11 24  1  0
 14 25  1  0
 14 26  1  0
 16 27  1  0
 17 28  1  0
 18 29  1  0
M  END
$$$$
