
     RDKit          3D

 56 60  0  0  0  0  0  0  0  0999 V2000
    2.4912   -1.6406   -3.8643 C   0  0  0  0  0  0  0  0  0  0  0  0
    2.3879   -0.9242   -2.5391 C   0  0  0  0  0  0  0  0  0  0  0  0
    1.1284   -0.6133   -1.9579 C   0  0  0  0  0  0  0  0  0  0  0  0
   -0.0746   -0.9405   -2.6089 C   0  0  0  0  0  0  0  0  0  0  0  0
   -1.3016   -0.6239   -2.0481 C   0  0  0  0  0  0  0  0  0  0  0  0
   -1.3609    0.0095   -0.8638 N   0  0  0  0  0  4  0  0  0  0  0  0
   -2.6823    0.3564   -0.2793 C   0  0  0  0  0  0  0  0  0  0  0  0
   -3.1546   -0.7966    0.6205 C   0  0  0  0  0  0  0  0  0  0  0  0
   -4.4458   -0.6396    1.2951 N   0  0  0  0  0  0  0  0  0  0  0  0
   -5.5916   -0.5744    0.3799 C   0  0  0  0  0  0  0  0  0  0  0  0
   -6.9137   -0.6374    1.1462 C   0  0  0  0  0  0  0  0  0  0  0  0
   -6.9922    0.4522    2.2094 C   0  0  0  0  0  0  0  0  0  0  0  0
   -5.7608    0.4098    3.1070 C   0  0  0  0  0  0  0  0  0  0  0  0
   -4.4709    0.4433    2.2859 C   0  0  0  0  0  0  0  0  0  0  0  0
   -0.2284    0.3371   -0.2036 C   0  0  0  0  0  0  0  0  0  0  0  0
    1.0522    0.0370   -0.7027 C   0  0  0  0  0  0  0  0  0  0  0  0
    2.2444    0.3737    0.0168 C   0  0  0  0  0  0  0  0  0  0  0  0
    2.1631    0.9852    1.3977 C   0  0  0  0  0  0  0  0  0  0  0  0
    3.5046    0.1472   -0.6066 C   0  0  0  0  0  0  0  0  0  0  0  0
    3.5357   -0.5069   -1.8375 C   0  0  0  0  0  0  0  0  0  0  0  0
    4.8646   -0.6466   -2.1820 N   0  0  0  0  0  0  0  0  0  0  0  0
    5.6906   -0.0634   -1.2588 C   0  0  0  0  0  0  0  0  0  0  0  0
    7.0886    0.0388   -1.2492 C   0  0  0  0  0  0  0  0  0  0  0  0
    7.6859    0.7130   -0.1823 C   0  0  0  0  0  0  0  0  0  0  0  0
    6.8994    1.2614    0.8197 C   0  0  0  0  0  0  0  0  0  0  0  0
    7.4554    1.9371    1.8676 O   0  0  0  0  0  0  0  0  0  0  0  0
    5.5076    1.1507    0.7990 C   0  0  0  0  0  0  0  0  0  0  0  0
    4.8745    0.4598   -0.2589 C   0  0  0  0  0  0  0  0  0  0  0  0
    2.0455   -1.0326   -4.6583 H   0  0  0  0  0  0  0  0  0  0  0  0
    1.9820   -2.6086   -3.8130 H   0  0  0  0  0  0  0  0  0  0  0  0
    3.5272   -1.8409   -4.1502 H   0  0  0  0  0  0  0  0  0  0  0  0
   -0.0766   -1.4459   -3.5726 H   0  0  0  0  0  0  0  0  0  0  0  0
   -2.2371   -0.8719   -2.5418 H   0  0  0  0  0  0  0  0  0  0  0  0
   -2.5630    1.2931    0.2755 H   0  0  0  0  0  0  0  0  0  0  0  0
   -3.3725    0.5416   -1.1093 H   0  0  0  0  0  0  0  0  0  0  0  0
   -2.3880   -0.9897    1.3824 H   0  0  0  0  0  0  0  0  0  0  0  0
   -3.1850   -1.7197    0.0267 H   0  0  0  0  0  0  0  0  0  0  0  0
   -5.5615    0.3447   -0.2183 H   0  0  0  0  0  0  0  0  0  0  0  0
   -5.5608   -1.4196   -0.3181 H   0  0  0  0  0  0  0  0  0  0  0  0
   -7.0154   -1.6208    1.6228 H   0  0  0  0  0  0  0  0  0  0  0  0
   -7.7516   -0.5331    0.4476 H   0  0  0  0  0  0  0  0  0  0  0  0
   -7.0586    1.4337    1.7242 H   0  0  0  0  0  0  0  0  0  0  0  0
   -7.8998    0.3270    2.8099 H   0  0  0  0  0  0  0  0  0  0  0  0
   -5.7798    1.2578    3.8008 H   0  0  0  0  0  0  0  0  0  0  0  0
   -5.7844   -0.5026    3.7165 H   0  0  0  0  0  0  0  0  0  0  0  0
   -4.3758    1.4211    1.7977 H   0  0  0  0  0  0  0  0  0  0  0  0
   -3.6245    0.3387    2.9753 H   0  0  0  0  0  0  0  0  0  0  0  0
   -0.3773    0.8573    0.7364 H   0  0  0  0  0  0  0  0  0  0  0  0
    3.0457    0.7426    1.9923 H   0  0  0  0  0  0  0  0  0  0  0  0
    2.0601    2.0716    1.3241 H   0  0  0  0  0  0  0  0  0  0  0  0
    1.3281    0.5770    1.9747 H   0  0  0  0  0  0  0  0  0  0  0  0
    5.1990   -1.0961   -3.0214 H   0  0  0  0  0  0  0  0  0  0  0  0
    7.6951   -0.3854   -2.0438 H   0  0  0  0  0  0  0  0  0  0  0  0
    8.7681    0.8040   -0.1579 H   0  0  0  0  0  0  0  0  0  0  0  0
    8.4218    1.9362    1.7637 H   0  0  0  0  0  0  0  0  0  0  0  0
    4.9424    1.6153    1.5985 H   0  0  0  0  0  0  0  0  0  0  0  0
  1  2  1  0
  2  3  2  0
  3  4  1  0
  4  5  2  0
  5  6  1  0
  6  7  1  0
  7  8  1  0
  8  9  1  0
  9 10  1  0
 10 11  1  0
 11 12  1  0
 12 13  1  0
 13 14  1  0
  6 15  2  0
 15 16  1  0
 16 17  2  0
 17 18  1  0
 17 19  1  0
 19 20  2  0
 20 21  1  0
 21 22  1  0
 22 23  2  0
 23 24  1  0
 24 25  2  0
 25 26  1  0
 25 27  1  0
 27 28  2  0
 20  2  1  0
 28 22  1  0
 16  3  1  0
 28 19  1  0
 14  9  1  0
  1 29  1  0
  1 30  1  0
  1 31  1  0
  4 32  1  0
  5 33  1  0
  7 34  1  0
  7 35  1  0
  8 36  1  0
  8 37  1  0
 10 38  1  0
 10 39  1  0
 11 40  1  0
 11 41  1  0
 12 42  1  0
 12 43  1  0
 13 44  1  0
 13 45  1  0
 14 46  1  0
 14 47  1  0
 15 48  1  0
 18 49  1  0
 18 50  1  0
 18 51  1  0
 21 52  1  0
 23 53  1  0
 24 54  1  0
 26 55  1  0
 27 56  1  0
M  CHG  1   6   1
M  END
$$$$
