
     RDKit          3D

 57 60  0  0  0  0  0  0  0  0999 V2000
   -4.0321    1.4612   -3.2493 C   0  0  0  0  0  0  0  0  0  0  0  0
   -3.8471    1.2457   -1.8566 O   0  0  0  0  0  0  0  0  0  0  0  0
   -2.7302    0.5710   -1.4539 C   0  0  0  0  0  0  0  0  0  0  0  0
   -1.9089   -0.1609   -2.3220 C   0  0  0  0  0  0  0  0  0  0  0  0
   -0.7925   -0.8501   -1.8369 C   0  0  0  0  0  0  0  0  0  0  0  0
   -0.4835   -0.8074   -0.4752 C   0  0  0  0  0  0  0  0  0  0  0  0
    0.6704   -1.5643    0.0584 C   0  0  0  0  0  0  0  0  0  0  0  0
    0.4666   -2.3221    1.0029 O   0  0  0  0  0  0  0  0  0  0  0  0
    1.9136   -1.4048   -0.5535 N   0  0  0  0  0  0  0  0  0  0  0  0
    2.3533   -0.1104   -1.1067 C   0  0  0  0  0  0  0  0  0  0  0  0
    3.1230    0.7065   -0.0410 C   0  0  0  0  0  0  0  0  0  0  0  0
    4.2512   -0.0861    0.5151 N   0  0  0  0  0  0  0  0  0  0  0  0
    5.4876    0.0475   -0.1224 C   0  0  0  0  0  0  0  0  0  0  0  0
    6.0195    1.3263   -0.3687 C   0  0  0  0  0  0  0  0  0  0  0  0
    7.2566    1.5116   -0.9969 C   0  0  0  0  0  0  0  0  0  0  0  0
    8.0081    0.4114   -1.3874 C   0  0  0  0  0  0  0  0  0  0  0  0
    7.5245   -0.8666   -1.1360 C   0  0  0  0  0  0  0  0  0  0  0  0
    6.2855   -1.0417   -0.5045 C   0  0  0  0  0  0  0  0  0  0  0  0
    3.8112   -1.4010    1.0477 C   0  0  0  0  0  0  0  0  0  0  0  0
    3.0271   -2.1978   -0.0166 C   0  0  0  0  0  0  0  0  0  0  0  0
   -1.3014   -0.1053    0.4088 C   0  0  0  0  0  0  0  0  0  0  0  0
   -2.4182    0.5843   -0.0851 C   0  0  0  0  0  0  0  0  0  0  0  0
   -3.4127    1.5051    1.0649 S   0  0  0  0  0  6  0  0  0  0  0  0
   -3.5727    2.8501    0.5540 O   0  0  0  0  0  0  0  0  0  0  0  0
   -2.8705    1.2966    2.3941 O   0  0  0  0  0  0  0  0  0  0  0  0
   -4.9098    0.7114    1.0199 N   0  0  0  0  0  0  0  0  0  0  0  0
   -4.9508   -0.7072    1.4619 C   0  0  0  0  0  0  0  0  0  0  0  0
   -6.0738   -0.7768    2.4884 C   0  0  0  0  0  0  0  0  0  0  0  0
   -7.0026    0.3415    2.0611 C   0  0  0  0  0  0  0  0  0  0  0  0
   -6.0246    1.4391    1.6734 C   0  0  0  0  0  0  0  0  0  0  0  0
   -3.1607    1.9507   -3.6969 H   0  0  0  0  0  0  0  0  0  0  0  0
   -4.2650    0.5222   -3.7614 H   0  0  0  0  0  0  0  0  0  0  0  0
   -4.8899    2.1291   -3.3730 H   0  0  0  0  0  0  0  0  0  0  0  0
   -2.1213   -0.2296   -3.3848 H   0  0  0  0  0  0  0  0  0  0  0  0
   -0.1765   -1.4305   -2.5205 H   0  0  0  0  0  0  0  0  0  0  0  0
    3.0017   -0.3265   -1.9638 H   0  0  0  0  0  0  0  0  0  0  0  0
    1.5095    0.4824   -1.4649 H   0  0  0  0  0  0  0  0  0  0  0  0
    2.4434    0.9490    0.7860 H   0  0  0  0  0  0  0  0  0  0  0  0
    3.4348    1.6623   -0.4730 H   0  0  0  0  0  0  0  0  0  0  0  0
    5.4853    2.2120   -0.0335 H   0  0  0  0  0  0  0  0  0  0  0  0
    7.6329    2.5172   -1.1638 H   0  0  0  0  0  0  0  0  0  0  0  0
    8.9709    0.5485   -1.8712 H   0  0  0  0  0  0  0  0  0  0  0  0
    8.1103   -1.7353   -1.4250 H   0  0  0  0  0  0  0  0  0  0  0  0
    5.9633   -2.0633   -0.3344 H   0  0  0  0  0  0  0  0  0  0  0  0
    3.1510   -1.2062    1.9028 H   0  0  0  0  0  0  0  0  0  0  0  0
    4.6485   -1.9848    1.4454 H   0  0  0  0  0  0  0  0  0  0  0  0
    3.6714   -2.4557   -0.8642 H   0  0  0  0  0  0  0  0  0  0  0  0
    2.6594   -3.1361    0.4121 H   0  0  0  0  0  0  0  0  0  0  0  0
   -1.0645   -0.1013    1.4714 H   0  0  0  0  0  0  0  0  0  0  0  0
   -5.1825   -1.3274    0.5891 H   0  0  0  0  0  0  0  0  0  0  0  0
   -4.0092   -1.0592    1.8914 H   0  0  0  0  0  0  0  0  0  0  0  0
   -6.5635   -1.7544    2.5061 H   0  0  0  0  0  0  0  0  0  0  0  0
   -5.6786   -0.5741    3.4912 H   0  0  0  0  0  0  0  0  0  0  0  0
   -7.5943    0.0314    1.1915 H   0  0  0  0  0  0  0  0  0  0  0  0
   -7.6884    0.6518    2.8541 H   0  0  0  0  0  0  0  0  0  0  0  0
   -5.6762    1.9659    2.5689 H   0  0  0  0  0  0  0  0  0  0  0  0
   -6.4786    2.1553    0.9832 H   0  0  0  0  0  0  0  0  0  0  0  0
  1  2  1  0
  2  3  1  0
  3  4  2  0
  4  5  1  0
  5  6  2  0
  6  7  1  0
  7  8  2  0
  7  9  1  0
  9 10  1  0
 10 11  1  0
 11 12  1  0
 12 13  1  0
 13 14  2  0
 14 15  1  0
 15 16  2  0
 16 17  1  0
 17 18  2  0
 12 19  1  0
 19 20  1  0
  6 21  1  0
 21 22  2  0
 22 23  1  0
 23 24  2  0
 23 25  2  0
 23 26  1  0
 26 27  1  0
 27 28  1  0
 28 29  1  0
 29 30  1  0
 22  3  1  0
 30 26  1  0
 20  9  1  0
 18 13  1  0
  1 31  1  0
  1 32  1  0
  1 33  1  0
  4 34  1  0
  5 35  1  0
 10 36  1  0
 10 37  1  0
 11 38  1  0
 11 39  1  0
 14 40  1  0
 15 41  1  0
 16 42  1  0
 17 43  1  0
 18 44  1  0
 19 45  1  0
 19 46  1  0
 20 47  1  0
 20 48  1  0
 21 49  1  0
 27 50  1  0
 27 51  1  0
 28 52  1  0
 28 53  1  0
 29 54  1  0
 29 55  1  0
 30 56  1  0
 30 57  1  0
M  END
$$$$
