
     RDKit          3D

 50 52  0  0  0  0  0  0  0  0999 V2000
   -7.0327    1.4718   -0.3748 C   0  0  0  0  0  0  0  0  0  0  0  0
   -6.0066    0.3446   -0.2913 C   0  0  0  0  0  0  0  0  0  0  0  0
   -5.8634   -0.1594    1.1497 C   0  0  0  0  0  0  0  0  0  0  0  0
   -4.7942   -1.2429    1.2580 C   0  0  0  0  0  0  0  0  0  0  0  0
   -3.5193   -0.8114    0.6877 N   0  0  0  0  0  0  0  0  0  0  0  0
   -2.3780   -1.4614    1.1662 C   0  0  0  0  0  0  0  0  0  0  0  0
   -2.3943   -2.3580    2.0054 O   0  0  0  0  0  0  0  0  0  0  0  0
   -1.0506   -1.0311    0.6761 C   0  0  0  0  0  0  0  0  0  0  0  0
   -0.6708    0.3149    0.7400 C   0  0  0  0  0  0  0  0  0  0  0  0
    0.6040    0.7020    0.3161 C   0  0  0  0  0  0  0  0  0  0  0  0
    1.5175   -0.2598   -0.1457 C   0  0  0  0  0  0  0  0  0  0  0  0
    3.0719    0.3130   -0.8080 S   0  0  0  0  0  6  0  0  0  0  0  0
    2.8619    1.7184   -1.1164 O   0  0  0  0  0  0  0  0  0  0  0  0
    3.4301   -0.6060   -1.8674 O   0  0  0  0  0  0  0  0  0  0  0  0
    4.2081    0.2047    0.5738 C   0  0  0  0  0  0  0  0  0  0  0  0
    5.5612    0.6835    0.1280 C   0  0  0  0  0  0  0  0  0  0  0  0
    5.9031    2.0430    0.1618 C   0  0  0  0  0  0  0  0  0  0  0  0
    7.1614    2.4655   -0.2754 C   0  0  0  0  0  0  0  0  0  0  0  0
    8.0885    1.5379   -0.7511 C   0  0  0  0  0  0  0  0  0  0  0  0
    7.7574    0.1854   -0.7913 C   0  0  0  0  0  0  0  0  0  0  0  0
    6.5030   -0.2287   -0.3553 C   0  0  0  0  0  0  0  0  0  0  0  0
    6.2042   -1.5340   -0.3916 F   0  0  0  0  0  0  0  0  0  0  0  0
    1.1282   -1.6026   -0.1884 C   0  0  0  0  0  0  0  0  0  0  0  0
    2.0370   -2.6581   -0.5876 N   0  0  0  0  0  4  0  0  0  0  0  0
    1.6782   -3.3900   -1.5173 O   0  0  0  0  0  0  0  0  0  0  0  0
    3.0595   -2.7861    0.0963 O   0  0  0  0  0  1  0  0  0  0  0  0
   -0.1491   -2.0001    0.2315 C   0  0  0  0  0  0  0  0  0  0  0  0
   -3.5961   -0.2954   -0.6825 C   0  0  0  0  0  0  0  0  0  0  0  0
   -4.6416    0.8077   -0.8149 C   0  0  0  0  0  0  0  0  0  0  0  0
   -7.1498    1.8137   -1.4085 H   0  0  0  0  0  0  0  0  0  0  0  0
   -8.0117    1.1319   -0.0209 H   0  0  0  0  0  0  0  0  0  0  0  0
   -6.7324    2.3313    0.2342 H   0  0  0  0  0  0  0  0  0  0  0  0
   -6.3599   -0.4845   -0.9187 H   0  0  0  0  0  0  0  0  0  0  0  0
   -6.8206   -0.5535    1.5105 H   0  0  0  0  0  0  0  0  0  0  0  0
   -5.5926    0.6777    1.8065 H   0  0  0  0  0  0  0  0  0  0  0  0
   -5.1065   -2.1502    0.7264 H   0  0  0  0  0  0  0  0  0  0  0  0
   -4.6596   -1.5114    2.3120 H   0  0  0  0  0  0  0  0  0  0  0  0
   -1.3675    1.0626    1.1158 H   0  0  0  0  0  0  0  0  0  0  0  0
    0.8652    1.7599    0.3387 H   0  0  0  0  0  0  0  0  0  0  0  0
    3.8204    0.8381    1.3785 H   0  0  0  0  0  0  0  0  0  0  0  0
    4.2531   -0.8213    0.9393 H   0  0  0  0  0  0  0  0  0  0  0  0
    5.1903    2.7867    0.5136 H   0  0  0  0  0  0  0  0  0  0  0  0
    7.4165    3.5227   -0.2527 H   0  0  0  0  0  0  0  0  0  0  0  0
    9.0650    1.8697   -1.0949 H   0  0  0  0  0  0  0  0  0  0  0  0
    8.4652   -0.5494   -1.1619 H   0  0  0  0  0  0  0  0  0  0  0  0
   -0.4420   -3.0497    0.2250 H   0  0  0  0  0  0  0  0  0  0  0  0
   -2.6296    0.0782   -1.0267 H   0  0  0  0  0  0  0  0  0  0  0  0
   -3.8506   -1.1429   -1.3314 H   0  0  0  0  0  0  0  0  0  0  0  0
   -4.3083    1.6884   -0.2508 H   0  0  0  0  0  0  0  0  0  0  0  0
   -4.7228    1.1097   -1.8656 H   0  0  0  0  0  0  0  0  0  0  0  0
  1  2  1  0
  2  3  1  0
  3  4  1  0
  4  5  1  0
  5  6  1  0
  6  7  2  0
  6  8  1  0
  8  9  2  0
  9 10  1  0
 10 11  2  0
 11 12  1  0
 12 13  2  0
 12 14  2  0
 12 15  1  0
 15 16  1  0
 16 17  2  0
 17 18  1  0
 18 19  2  0
 19 20  1  0
 20 21  2  0
 21 22  1  0
 11 23  1  0
 23 24  1  0
 24 25  2  0
 24 26  1  0
 23 27  2  0
  5 28  1  0
 28 29  1  0
 29  2  1  0
 27  8  1  0
 21 16  1  0
  1 30  1  0
  1 31  1  0
  1 32  1  0
  2 33  1  0
  3 34  1  0
  3 35  1  0
  4 36  1  0
  4 37  1  0
  9 38  1  0
 10 39  1  0
 15 40  1  0
 15 41  1  0
 17 42  1  0
 18 43  1  0
 19 44  1  0
 20 45  1  0
 27 46  1  0
 28 47  1  0
 28 48  1  0
 29 49  1  0
 29 50  1  0
M  CHG  2  24   1  26  -1
M  END
$$$$
