
     RDKit          3D

 32 32  0  0  0  0  0  0  0  0999 V2000
    5.6129   -1.9135   -0.2792 C   0  0  0  0  0  0  0  0  0  0  0  0
    5.4109   -0.5549    0.3701 C   0  0  0  0  0  0  0  0  0  0  0  0
    4.4979    0.5787   -0.7172 S   0  0  0  0  0  0  0  0  0  0  0  0
    2.8501    0.0389   -0.4956 C   0  0  0  0  0  0  0  0  0  0  0  0
    2.5055   -0.9027    0.3542 N   0  0  0  0  0  0  0  0  0  0  0  0
    1.1480   -1.1483    0.3348 N   0  0  0  0  0  0  0  0  0  0  0  0
    0.5048   -0.3513   -0.4865 C   0  0  0  0  0  0  0  0  0  0  0  0
   -0.8360   -0.4402   -0.7089 N   0  0  0  0  0  0  0  0  0  0  0  0
   -1.7585    0.4669    0.0881 C   0  0  0  0  0  0  0  0  0  0  0  0
   -2.9666    0.1758   -0.7184 N   0  0  0  0  0  0  0  0  0  0  0  0
   -4.2129    0.6413   -0.4089 C   0  0  0  0  0  0  0  0  0  0  0  0
   -5.2597    0.3768   -1.4566 C   0  0  0  0  0  0  0  0  0  0  0  0
   -4.4622    1.2279    0.6329 O   0  0  0  0  0  0  0  0  0  0  0  0
   -1.8258    0.0671    1.5963 C   0  0  0  0  0  0  0  0  0  0  0  0
   -0.6103    0.1481    2.1890 F   0  0  0  0  0  0  0  0  0  0  0  0
   -2.6642    0.8003    2.3484 F   0  0  0  0  0  0  0  0  0  0  0  0
   -2.2150   -1.2339    1.7041 F   0  0  0  0  0  0  0  0  0  0  0  0
   -1.3766    1.9742    0.1131 C   0  0  0  0  0  0  0  0  0  0  0  0
   -1.2630    2.4501   -1.1579 F   0  0  0  0  0  0  0  0  0  0  0  0
   -0.1884    2.2010    0.7191 F   0  0  0  0  0  0  0  0  0  0  0  0
   -2.2827    2.7588    0.7301 F   0  0  0  0  0  0  0  0  0  0  0  0
    1.5382    0.6962   -1.3797 S   0  0  0  0  0  0  0  0  0  0  0  0
    6.1606   -1.8278   -1.2239 H   0  0  0  0  0  0  0  0  0  0  0  0
    6.1997   -2.5574    0.3844 H   0  0  0  0  0  0  0  0  0  0  0  0
    4.6633   -2.4215   -0.4742 H   0  0  0  0  0  0  0  0  0  0  0  0
    4.9091   -0.6527    1.3381 H   0  0  0  0  0  0  0  0  0  0  0  0
    6.3903   -0.1047    0.5635 H   0  0  0  0  0  0  0  0  0  0  0  0
   -1.1313   -1.3862   -0.4498 H   0  0  0  0  0  0  0  0  0  0  0  0
   -2.7669   -0.0452   -1.6848 H   0  0  0  0  0  0  0  0  0  0  0  0
   -5.5177    1.3175   -1.9497 H   0  0  0  0  0  0  0  0  0  0  0  0
   -4.9063   -0.3342   -2.2086 H   0  0  0  0  0  0  0  0  0  0  0  0
   -6.1471   -0.0452   -0.9767 H   0  0  0  0  0  0  0  0  0  0  0  0
  1  2  1  0
  2  3  1  0
  3  4  1  0
  4  5  2  0
  5  6  1  0
  6  7  2  0
  7  8  1  0
  8  9  1  0
  9 10  1  0
 10 11  1  0
 11 12  1  0
 11 13  2  0
  9 14  1  0
 14 15  1  0
 14 16  1  0
 14 17  1  0
  9 18  1  0
 18 19  1  0
 18 20  1  0
 18 21  1  0
  7 22  1  0
 22  4  1  0
  1 23  1  0
  1 24  1  0
  1 25  1  0
  2 26  1  0
  2 27  1  0
  8 28  1  0
 10 29  1  0
 12 30  1  0
 12 31  1  0
 12 32  1  0
M  END
$$$$
