
     RDKit          3D

 45 47  0  0  0  0  0  0  0  0999 V2000
   -0.2244    2.6536    0.0507 C   0  0  0  0  0  0  0  0  0  0  0  0
    0.2810    1.3181    0.4552 C   0  0  0  0  0  0  0  0  0  0  0  0
    1.5551    0.9838    0.5029 N   0  0  0  0  0  0  0  0  0  0  0  0
    1.5452   -0.2781    1.0634 C   0  0  0  0  0  0  0  0  0  0  0  0
    2.7955   -1.0326    1.3121 C   0  0  0  0  0  0  0  0  0  0  0  0
    2.8123   -2.1633    1.7871 O   0  0  0  0  0  0  0  0  0  0  0  0
    3.9066   -0.2964    0.9350 N   0  0  0  0  0  0  0  0  0  0  0  0
    5.2706   -0.6478    1.0072 C   0  0  0  0  0  0  0  0  0  0  0  0
    5.7188   -1.8733    1.5087 C   0  0  0  0  0  0  0  0  0  0  0  0
    7.0874   -2.1641    1.5549 C   0  0  0  0  0  0  0  0  0  0  0  0
    8.0161   -1.2316    1.1001 C   0  0  0  0  0  0  0  0  0  0  0  0
    9.6955   -1.5978    1.1606 Cl  0  0  0  0  0  0  0  0  0  0  0  0
    7.5937   -0.0060    0.5974 C   0  0  0  0  0  0  0  0  0  0  0  0
    6.2277    0.2814    0.5526 C   0  0  0  0  0  0  0  0  0  0  0  0
    5.7443    1.8196   -0.0818 Cl  0  0  0  0  0  0  0  0  0  0  0  0
    0.3177   -0.7282    1.3498 N   0  0  0  0  0  0  0  0  0  0  0  0
   -0.4936    0.2697    0.9384 N   0  0  0  0  0  0  0  0  0  0  0  0
   -1.9043    0.1059    0.9408 C   0  0  0  0  0  0  0  0  0  0  0  0
   -2.6499    0.6274   -0.1302 C   0  0  0  0  0  0  0  0  0  0  0  0
   -4.0321    0.4284   -0.1982 C   0  0  0  0  0  0  0  0  0  0  0  0
   -4.6842    0.9932   -1.2627 O   0  0  0  0  0  0  0  0  0  0  0  0
   -5.0481    0.0272   -2.2670 C   0  0  0  0  0  0  0  0  0  0  0  0
   -3.9838    0.0142   -3.3616 C   0  0  0  0  0  0  0  0  0  0  0  0
   -6.3912    0.4604   -2.8465 C   0  0  0  0  0  0  0  0  0  0  0  0
   -4.6954   -0.2464    0.8277 C   0  0  0  0  0  0  0  0  0  0  0  0
   -6.4098   -0.4301    0.8433 Cl  0  0  0  0  0  0  0  0  0  0  0  0
   -3.9640   -0.7689    1.8936 C   0  0  0  0  0  0  0  0  0  0  0  0
   -2.5725   -0.6038    1.9548 C   0  0  0  0  0  0  0  0  0  0  0  0
   -1.8153   -1.1888    3.3973 Cl  0  0  0  0  0  0  0  0  0  0  0  0
   -0.4759    2.6663   -1.0135 H   0  0  0  0  0  0  0  0  0  0  0  0
    0.5506    3.4099    0.2147 H   0  0  0  0  0  0  0  0  0  0  0  0
   -1.0989    2.9545    0.6347 H   0  0  0  0  0  0  0  0  0  0  0  0
    3.6944    0.6260    0.5543 H   0  0  0  0  0  0  0  0  0  0  0  0
    5.0309   -2.6300    1.8749 H   0  0  0  0  0  0  0  0  0  0  0  0
    7.4161   -3.1232    1.9489 H   0  0  0  0  0  0  0  0  0  0  0  0
    8.3204    0.7198    0.2435 H   0  0  0  0  0  0  0  0  0  0  0  0
   -2.1775    1.1433   -0.9612 H   0  0  0  0  0  0  0  0  0  0  0  0
   -5.1534   -0.9831   -1.8508 H   0  0  0  0  0  0  0  0  0  0  0  0
   -3.8166    1.0213   -3.7592 H   0  0  0  0  0  0  0  0  0  0  0  0
   -3.0237   -0.3322   -2.9657 H   0  0  0  0  0  0  0  0  0  0  0  0
   -4.2702   -0.6470   -4.1853 H   0  0  0  0  0  0  0  0  0  0  0  0
   -6.7266   -0.2269   -3.6292 H   0  0  0  0  0  0  0  0  0  0  0  0
   -7.1561    0.4948   -2.0640 H   0  0  0  0  0  0  0  0  0  0  0  0
   -6.3299    1.4698   -3.2685 H   0  0  0  0  0  0  0  0  0  0  0  0
   -4.4827   -1.2888    2.6970 H   0  0  0  0  0  0  0  0  0  0  0  0
  1  2  1  0
  2  3  2  0
  3  4  1  0
  4  5  1  0
  5  6  2  0
  5  7  1  0
  7  8  1  0
  8  9  2  0
  9 10  1  0
 10 11  2  0
 11 12  1  0
 11 13  1  0
 13 14  2  0
 14 15  1  0
  4 16  2  0
 16 17  1  0
 17 18  1  0
 18 19  2  0
 19 20  1  0
 20 21  1  0
 21 22  1  0
 22 23  1  0
 22 24  1  0
 20 25  2  0
 25 26  1  0
 25 27  1  0
 27 28  2  0
 28 29  1  0
 17  2  1  0
 28 18  1  0
 14  8  1  0
  1 30  1  0
  1 31  1  0
  1 32  1  0
  7 33  1  0
  9 34  1  0
 10 35  1  0
 13 36  1  0
 19 37  1  0
 22 38  1  0
 23 39  1  0
 23 40  1  0
 23 41  1  0
 24 42  1  0
 24 43  1  0
 24 44  1  0
 27 45  1  0
M  END
$$$$
