
     RDKit          3D

 39 40  0  0  0  0  0  0  0  0999 V2000
    7.4168    1.8880   -0.2006 C   0  0  0  0  0  0  0  0  0  0  0  0
    6.0357    1.6866   -0.5029 O   0  0  0  0  0  0  0  0  0  0  0  0
    5.4073    0.8353    0.3426 C   0  0  0  0  0  0  0  0  0  0  0  0
    5.9274    0.2523    1.2814 O   0  0  0  0  0  0  0  0  0  0  0  0
    4.1048    0.7213   -0.0271 N   0  0  0  0  0  0  0  0  0  0  0  0
    3.2286   -0.2344    0.5935 C   0  0  0  0  0  0  0  0  0  0  0  0
    1.8027   -0.0164    0.1615 C   0  0  0  0  0  0  0  0  0  0  0  0
    1.2641   -0.7431   -0.9116 C   0  0  0  0  0  0  0  0  0  0  0  0
   -0.0487   -0.5189   -1.3286 C   0  0  0  0  0  0  0  0  0  0  0  0
   -0.8258    0.4386   -0.6717 C   0  0  0  0  0  0  0  0  0  0  0  0
   -2.4914    0.7137   -1.2170 S   0  0  0  0  0  6  0  0  0  0  0  0
   -3.0705    1.7804   -0.4277 O   0  0  0  0  0  0  0  0  0  0  0  0
   -2.4680    0.7816   -2.6624 O   0  0  0  0  0  0  0  0  0  0  0  0
   -3.2779   -0.7334   -0.7674 N   0  0  0  0  0  0  0  0  0  0  0  0
   -4.6603   -0.8699   -1.3418 C   0  0  0  0  0  0  0  0  0  0  0  0
   -5.7284   -0.6342   -0.2704 C   0  0  0  0  0  0  0  0  0  0  0  0
   -5.6619   -1.5809    0.8062 O   0  0  0  0  0  0  0  0  0  0  0  0
   -4.3357   -2.0691    1.0494 C   0  0  0  0  0  0  0  0  0  0  0  0
   -3.2489   -1.0481    0.7002 C   0  0  0  0  0  0  0  0  0  0  0  0
   -0.3002    1.1847    0.3847 C   0  0  0  0  0  0  0  0  0  0  0  0
    1.0134    0.9556    0.7973 C   0  0  0  0  0  0  0  0  0  0  0  0
    7.5317    2.3369    0.7911 H   0  0  0  0  0  0  0  0  0  0  0  0
    7.9675    0.9439   -0.2656 H   0  0  0  0  0  0  0  0  0  0  0  0
    7.8281    2.5795   -0.9416 H   0  0  0  0  0  0  0  0  0  0  0  0
    3.8476    1.1615   -0.8993 H   0  0  0  0  0  0  0  0  0  0  0  0
    3.5694   -1.2402    0.3208 H   0  0  0  0  0  0  0  0  0  0  0  0
    3.3174   -0.1563    1.6840 H   0  0  0  0  0  0  0  0  0  0  0  0
    1.8678   -1.4836   -1.4341 H   0  0  0  0  0  0  0  0  0  0  0  0
   -0.4594   -1.0834   -2.1633 H   0  0  0  0  0  0  0  0  0  0  0  0
   -4.8159   -0.1824   -2.1789 H   0  0  0  0  0  0  0  0  0  0  0  0
   -4.7424   -1.8872   -1.7426 H   0  0  0  0  0  0  0  0  0  0  0  0
   -5.6365    0.3707    0.1576 H   0  0  0  0  0  0  0  0  0  0  0  0
   -6.7277   -0.7122   -0.7103 H   0  0  0  0  0  0  0  0  0  0  0  0
   -4.2040   -2.9902    0.4696 H   0  0  0  0  0  0  0  0  0  0  0  0
   -4.2752   -2.3376    2.1089 H   0  0  0  0  0  0  0  0  0  0  0  0
   -2.2686   -1.4634    0.9533 H   0  0  0  0  0  0  0  0  0  0  0  0
   -3.4129   -0.1367    1.2855 H   0  0  0  0  0  0  0  0  0  0  0  0
   -0.8967    1.9456    0.8832 H   0  0  0  0  0  0  0  0  0  0  0  0
    1.4268    1.5453    1.6141 H   0  0  0  0  0  0  0  0  0  0  0  0
  1  2  1  0
  2  3  1  0
  3  4  2  0
  3  5  1  0
  5  6  1  0
  6  7  1  0
  7  8  2  0
  8  9  1  0
  9 10  2  0
 10 11  1  0
 11 12  2  0
 11 13  2  0
 11 14  1  0
 14 15  1  0
 15 16  1  0
 16 17  1  0
 17 18  1  0
 18 19  1  0
 10 20  1  0
 20 21  2  0
 21  7  1  0
 19 14  1  0
  1 22  1  0
  1 23  1  0
  1 24  1  0
  5 25  1  0
  6 26  1  0
  6 27  1  0
  8 28  1  0
  9 29  1  0
 15 30  1  0
 15 31  1  0
 16 32  1  0
 16 33  1  0
 18 34  1  0
 18 35  1  0
 19 36  1  0
 19 37  1  0
 20 38  1  0
 21 39  1  0
M  END
$$$$
