
     RDKit          3D

 40 41  0  0  0  0  0  0  0  0999 V2000
    6.8307    0.6205   -0.1918 C   0  0  0  0  0  0  0  0  0  0  0  0
    5.5309   -0.1375    0.0104 C   0  0  0  0  0  0  0  0  0  0  0  0
    4.5439    0.7924    0.4534 O   0  0  0  0  0  0  0  0  0  0  0  0
    3.2955    0.2999    0.7167 C   0  0  0  0  0  0  0  0  0  0  0  0
    2.3841    1.2509    1.1895 C   0  0  0  0  0  0  0  0  0  0  0  0
    1.0722    0.8890    1.4983 C   0  0  0  0  0  0  0  0  0  0  0  0
    0.6720   -0.4370    1.3254 C   0  0  0  0  0  0  0  0  0  0  0  0
   -1.0017   -0.8893    1.7117 S   0  0  0  0  0  6  0  0  0  0  0  0
   -1.2132   -2.2621    1.3018 O   0  0  0  0  0  0  0  0  0  0  0  0
   -1.2470   -0.4642    3.0732 O   0  0  0  0  0  0  0  0  0  0  0  0
   -1.9148    0.1059    0.6536 N   0  0  0  0  0  0  0  0  0  0  0  0
   -1.7419   -0.1638   -0.7962 C   0  0  0  0  0  0  0  0  0  0  0  0
   -2.8408   -1.0252   -1.4088 C   0  0  0  0  0  0  0  0  0  0  0  0
   -4.0187   -0.1988   -1.9192 C   0  0  0  0  0  0  0  0  0  0  0  0
   -4.8857    0.4148   -0.8273 C   0  0  0  0  0  0  0  0  0  0  0  0
   -4.1225    1.2389    0.2073 C   0  0  0  0  0  0  0  0  0  0  0  0
   -3.2878    0.3754    1.1489 C   0  0  0  0  0  0  0  0  0  0  0  0
    1.5712   -1.3983    0.8589 C   0  0  0  0  0  0  0  0  0  0  0  0
    2.8845   -1.0257    0.5534 C   0  0  0  0  0  0  0  0  0  0  0  0
    7.1482    1.0971    0.7416 H   0  0  0  0  0  0  0  0  0  0  0  0
    7.6240   -0.0502   -0.5336 H   0  0  0  0  0  0  0  0  0  0  0  0
    6.7005    1.4193   -0.9294 H   0  0  0  0  0  0  0  0  0  0  0  0
    5.6853   -0.9176    0.7647 H   0  0  0  0  0  0  0  0  0  0  0  0
    5.2279   -0.5880   -0.9418 H   0  0  0  0  0  0  0  0  0  0  0  0
    2.7038    2.2822    1.3217 H   0  0  0  0  0  0  0  0  0  0  0  0
    0.3739    1.6346    1.8710 H   0  0  0  0  0  0  0  0  0  0  0  0
   -0.7827   -0.6649   -0.9667 H   0  0  0  0  0  0  0  0  0  0  0  0
   -1.6516    0.7972   -1.3165 H   0  0  0  0  0  0  0  0  0  0  0  0
   -3.1822   -1.8039   -0.7177 H   0  0  0  0  0  0  0  0  0  0  0  0
   -2.4137   -1.5441   -2.2766 H   0  0  0  0  0  0  0  0  0  0  0  0
   -3.6510    0.5954   -2.5809 H   0  0  0  0  0  0  0  0  0  0  0  0
   -4.6550   -0.8419   -2.5399 H   0  0  0  0  0  0  0  0  0  0  0  0
   -5.4494   -0.3791   -0.3215 H   0  0  0  0  0  0  0  0  0  0  0  0
   -5.6324    1.0600   -1.3069 H   0  0  0  0  0  0  0  0  0  0  0  0
   -4.8721    1.7640    0.8134 H   0  0  0  0  0  0  0  0  0  0  0  0
   -3.5162    2.0128   -0.2773 H   0  0  0  0  0  0  0  0  0  0  0  0
   -3.1885    0.9334    2.0884 H   0  0  0  0  0  0  0  0  0  0  0  0
   -3.8029   -0.5648    1.3773 H   0  0  0  0  0  0  0  0  0  0  0  0
    1.2622   -2.4337    0.7321 H   0  0  0  0  0  0  0  0  0  0  0  0
    3.5607   -1.7939    0.1924 H   0  0  0  0  0  0  0  0  0  0  0  0
  1  2  1  0
  2  3  1  0
  3  4  1  0
  4  5  2  0
  5  6  1  0
  6  7  2  0
  7  8  1  0
  8  9  2  0
  8 10  2  0
  8 11  1  0
 11 12  1  0
 12 13  1  0
 13 14  1  0
 14 15  1  0
 15 16  1  0
 16 17  1  0
  7 18  1  0
 18 19  2  0
 19  4  1  0
 17 11  1  0
  1 20  1  0
  1 21  1  0
  1 22  1  0
  2 23  1  0
  2 24  1  0
  5 25  1  0
  6 26  1  0
 12 27  1  0
 12 28  1  0
 13 29  1  0
 13 30  1  0
 14 31  1  0
 14 32  1  0
 15 33  1  0
 15 34  1  0
 16 35  1  0
 16 36  1  0
 17 37  1  0
 17 38  1  0
 18 39  1  0
 19 40  1  0
M  END
$$$$
