
     RDKit          3D

 57 60  0  0  0  0  0  0  0  0999 V2000
    7.7522   -2.4751    0.3902 C   0  0  0  0  0  0  0  0  0  0  0  0
    6.4866   -2.3531    1.0287 O   0  0  0  0  0  0  0  0  0  0  0  0
    5.5286   -1.6300    0.3723 C   0  0  0  0  0  0  0  0  0  0  0  0
    5.6780   -1.0067   -0.8610 C   0  0  0  0  0  0  0  0  0  0  0  0
    4.6076   -0.2998   -1.4151 C   0  0  0  0  0  0  0  0  0  0  0  0
    3.3726   -0.2019   -0.7483 C   0  0  0  0  0  0  0  0  0  0  0  0
    2.3048    0.5869   -1.4523 C   0  0  0  0  0  0  0  0  0  0  0  0
    2.5195    1.0691   -2.5612 O   0  0  0  0  0  0  0  0  0  0  0  0
    1.1008    0.7399   -0.8120 N   0  0  0  0  0  0  0  0  0  0  0  0
   -0.0271    1.4157   -1.4142 C   0  0  0  0  0  0  0  0  0  0  0  0
   -0.7342    0.5460   -2.4816 C   0  0  0  0  0  0  0  0  0  0  0  0
   -1.7477   -0.5015   -1.9202 C   0  0  0  0  0  0  0  0  0  0  0  0
   -1.0319   -1.6016   -1.1104 C   0  0  0  0  0  0  0  0  0  0  0  0
   -2.4481   -1.1842   -3.1130 C   0  0  0  0  0  0  0  0  0  0  0  0
   -2.8311    0.1919   -1.0364 C   0  0  0  0  0  0  0  0  0  0  0  0
   -2.2350    1.2358   -0.1508 C   0  0  0  0  0  0  0  0  0  0  0  0
   -0.9729    1.7773   -0.3226 C   0  0  0  0  0  0  0  0  0  0  0  0
   -0.8114    2.6564    0.7520 C   0  0  0  0  0  0  0  0  0  0  0  0
   -1.8693    2.6689    1.5580 N   0  0  0  0  0  0  0  0  0  0  0  0
   -2.7877    1.8425    0.9721 N   0  0  0  0  0  0  0  0  0  0  0  0
   -4.0874    1.7338    1.5605 C   0  0  0  0  0  0  0  0  0  0  0  0
   -5.1664    1.1210    0.9140 C   0  0  0  0  0  0  0  0  0  0  0  0
   -6.4172    1.0427    1.5393 C   0  0  0  0  0  0  0  0  0  0  0  0
   -6.6065    1.5808    2.8096 C   0  0  0  0  0  0  0  0  0  0  0  0
   -5.5478    2.2084    3.4573 C   0  0  0  0  0  0  0  0  0  0  0  0
   -4.2986    2.2893    2.8365 C   0  0  0  0  0  0  0  0  0  0  0  0
    3.2192   -0.8326    0.5035 C   0  0  0  0  0  0  0  0  0  0  0  0
    2.0025   -0.7285    1.1304 O   0  0  0  0  0  0  0  0  0  0  0  0
    1.8652   -1.2959    2.4292 C   0  0  0  0  0  0  0  0  0  0  0  0
    4.3039   -1.5403    1.0449 C   0  0  0  0  0  0  0  0  0  0  0  0
    8.2258   -1.4961    0.2626 H   0  0  0  0  0  0  0  0  0  0  0  0
    8.3973   -3.0750    1.0393 H   0  0  0  0  0  0  0  0  0  0  0  0
    7.6622   -2.9996   -0.5667 H   0  0  0  0  0  0  0  0  0  0  0  0
    6.6065   -1.0475   -1.4208 H   0  0  0  0  0  0  0  0  0  0  0  0
    4.7442    0.1817   -2.3829 H   0  0  0  0  0  0  0  0  0  0  0  0
    0.9735    0.2711    0.0791 H   0  0  0  0  0  0  0  0  0  0  0  0
    0.3489    2.3254   -1.8986 H   0  0  0  0  0  0  0  0  0  0  0  0
    0.0059    0.0470   -3.1199 H   0  0  0  0  0  0  0  0  0  0  0  0
   -1.2923    1.2273   -3.1405 H   0  0  0  0  0  0  0  0  0  0  0  0
   -0.6469   -1.2335   -0.1559 H   0  0  0  0  0  0  0  0  0  0  0  0
   -0.1941   -2.0253   -1.6751 H   0  0  0  0  0  0  0  0  0  0  0  0
   -1.7189   -2.4229   -0.8744 H   0  0  0  0  0  0  0  0  0  0  0  0
   -1.7258   -1.7130   -3.7451 H   0  0  0  0  0  0  0  0  0  0  0  0
   -2.9666   -0.4518   -3.7419 H   0  0  0  0  0  0  0  0  0  0  0  0
   -3.1917   -1.9131   -2.7714 H   0  0  0  0  0  0  0  0  0  0  0  0
   -3.5640    0.6822   -1.6895 H   0  0  0  0  0  0  0  0  0  0  0  0
   -3.3508   -0.5714   -0.4465 H   0  0  0  0  0  0  0  0  0  0  0  0
    0.0450    3.2722    0.9972 H   0  0  0  0  0  0  0  0  0  0  0  0
   -5.0991    0.7232   -0.0890 H   0  0  0  0  0  0  0  0  0  0  0  0
   -7.2499    0.5683    1.0253 H   0  0  0  0  0  0  0  0  0  0  0  0
   -7.5797    1.5198    3.2893 H   0  0  0  0  0  0  0  0  0  0  0  0
   -5.6894    2.6389    4.4453 H   0  0  0  0  0  0  0  0  0  0  0  0
   -3.4897    2.7866    3.3700 H   0  0  0  0  0  0  0  0  0  0  0  0
    0.8518   -1.0786    2.7802 H   0  0  0  0  0  0  0  0  0  0  0  0
    1.9790   -2.3842    2.3962 H   0  0  0  0  0  0  0  0  0  0  0  0
    2.5668   -0.8411    3.1360 H   0  0  0  0  0  0  0  0  0  0  0  0
    4.2310   -2.0458    2.0032 H   0  0  0  0  0  0  0  0  0  0  0  0
  1  2  1  0
  2  3  1  0
  3  4  2  0
  4  5  1  0
  5  6  2  0
  6  7  1  0
  7  8  2  0
  7  9  1  0
  9 10  1  0
 10 11  1  0
 11 12  1  0
 12 13  1  0
 12 14  1  0
 12 15  1  0
 15 16  1  0
 16 17  2  0
 17 18  1  0
 18 19  2  0
 19 20  1  0
 20 21  1  0
 21 22  2  0
 22 23  1  0
 23 24  2  0
 24 25  1  0
 25 26  2  0
  6 27  1  0
 27 28  1  0
 28 29  1  0
 27 30  2  0
 30  3  1  0
 17 10  1  0
 26 21  1  0
 20 16  1  0
  1 31  1  0
  1 32  1  0
  1 33  1  0
  4 34  1  0
  5 35  1  0
  9 36  1  0
 10 37  1  0
 11 38  1  0
 11 39  1  0
 13 40  1  0
 13 41  1  0
 13 42  1  0
 14 43  1  0
 14 44  1  0
 14 45  1  0
 15 46  1  0
 15 47  1  0
 18 48  1  0
 22 49  1  0
 23 50  1  0
 24 51  1  0
 25 52  1  0
 26 53  1  0
 29 54  1  0
 29 55  1  0
 29 56  1  0
 30 57  1  0
M  END
$$$$
