
     RDKit          3D

 62 65  0  0  0  0  0  0  0  0999 V2000
   -1.1916   -2.1468    2.4532 C   0  0  0  0  0  0  0  0  0  0  0  0
   -1.2558   -0.7069    2.0256 C   0  0  0  0  0  0  0  0  0  0  0  0
   -2.4609   -0.0320    2.3319 C   0  0  0  0  0  0  0  0  0  0  0  0
   -2.6570    1.3122    2.0171 C   0  0  0  0  0  0  0  0  0  0  0  0
   -3.8424    1.9107    2.3328 O   0  0  0  0  0  0  0  0  0  0  0  0
   -1.6573    2.0476    1.3924 C   0  0  0  0  0  0  0  0  0  0  0  0
   -1.7862    3.5168    1.0250 C   0  0  0  0  0  0  0  0  0  0  0  0
   -1.9595    4.4129    2.2537 C   0  0  0  0  0  0  0  0  0  0  0  0
   -2.8918    3.7612   -0.0052 C   0  0  0  0  0  0  0  0  0  0  0  0
   -0.4604    1.3761    1.0859 C   0  0  0  0  0  0  0  0  0  0  0  0
   -0.2284   -0.0073    1.3545 C   0  0  0  0  0  0  0  0  0  0  0  0
    1.1566   -0.5443    0.8819 C   0  0  0  0  0  0  0  0  0  0  0  0
    1.4275   -0.2217   -0.6199 C   0  0  0  0  0  0  0  0  0  0  0  0
    0.3658   -0.4617   -1.5377 C   0  0  0  0  0  0  0  0  0  0  0  0
    0.4674   -0.2260   -2.9211 C   0  0  0  0  0  0  0  0  0  0  0  0
   -0.7080   -0.5150   -3.8408 C   0  0  0  0  0  0  0  0  0  0  0  0
   -1.7636    0.5863   -3.7223 C   0  0  0  0  0  0  0  0  0  0  0  0
   -1.3344   -1.8947   -3.6024 C   0  0  0  0  0  0  0  0  0  0  0  0
    1.6751    0.2888   -3.3877 C   0  0  0  0  0  0  0  0  0  0  0  0
    1.8852    0.6212   -4.6957 O   0  0  0  0  0  0  0  0  0  0  0  0
    2.7504    0.4988   -2.5275 C   0  0  0  0  0  0  0  0  0  0  0  0
    2.6540    0.2427   -1.1463 C   0  0  0  0  0  0  0  0  0  0  0  0
    3.8836    0.5066   -0.3205 C   0  0  0  0  0  0  0  0  0  0  0  0
    2.0670    0.1743    1.7695 O   0  0  0  0  0  0  0  0  0  0  0  0
    2.7122   -0.6441    2.6451 C   0  0  0  0  0  0  0  0  0  0  0  0
    3.4378   -0.3081    3.5587 O   0  0  0  0  0  0  0  0  0  0  0  0
    2.4239   -2.0025    2.2250 C   0  0  0  0  0  0  0  0  0  0  0  0
    2.9681   -3.1767    2.7199 C   0  0  0  0  0  0  0  0  0  0  0  0
    2.6056   -4.3700    2.0972 C   0  0  0  0  0  0  0  0  0  0  0  0
    1.7320   -4.3568    0.9992 C   0  0  0  0  0  0  0  0  0  0  0  0
    1.2008   -3.1527    0.5217 C   0  0  0  0  0  0  0  0  0  0  0  0
    1.5380   -1.9667    1.1662 C   0  0  0  0  0  0  0  0  0  0  0  0
   -2.0440   -2.4169    3.0893 H   0  0  0  0  0  0  0  0  0  0  0  0
   -1.2347   -2.8049    1.5817 H   0  0  0  0  0  0  0  0  0  0  0  0
   -0.3047   -2.3373    3.0608 H   0  0  0  0  0  0  0  0  0  0  0  0
   -3.2590   -0.5769    2.8320 H   0  0  0  0  0  0  0  0  0  0  0  0
   -4.3896    1.2880    2.8361 H   0  0  0  0  0  0  0  0  0  0  0  0
   -0.8482    3.8308    0.5471 H   0  0  0  0  0  0  0  0  0  0  0  0
   -1.9215    5.4687    1.9651 H   0  0  0  0  0  0  0  0  0  0  0  0
   -2.9153    4.2472    2.7597 H   0  0  0  0  0  0  0  0  0  0  0  0
   -1.1608    4.2364    2.9819 H   0  0  0  0  0  0  0  0  0  0  0  0
   -2.7663    3.1097   -0.8785 H   0  0  0  0  0  0  0  0  0  0  0  0
   -2.8648    4.7991   -0.3552 H   0  0  0  0  0  0  0  0  0  0  0  0
   -3.8901    3.5808    0.4065 H   0  0  0  0  0  0  0  0  0  0  0  0
    0.3365    1.9505    0.6083 H   0  0  0  0  0  0  0  0  0  0  0  0
   -0.5811   -0.8363   -1.1488 H   0  0  0  0  0  0  0  0  0  0  0  0
   -0.3556   -0.5323   -4.8790 H   0  0  0  0  0  0  0  0  0  0  0  0
   -1.3326    1.5691   -3.9435 H   0  0  0  0  0  0  0  0  0  0  0  0
   -2.5831    0.4138   -4.4280 H   0  0  0  0  0  0  0  0  0  0  0  0
   -2.1918    0.6307   -2.7142 H   0  0  0  0  0  0  0  0  0  0  0  0
   -1.8376   -1.9620   -2.6321 H   0  0  0  0  0  0  0  0  0  0  0  0
   -2.0830   -2.1108   -4.3728 H   0  0  0  0  0  0  0  0  0  0  0  0
   -0.5739   -2.6826   -3.6450 H   0  0  0  0  0  0  0  0  0  0  0  0
    1.0443    0.9286   -5.0663 H   0  0  0  0  0  0  0  0  0  0  0  0
    3.6785    0.8820   -2.9493 H   0  0  0  0  0  0  0  0  0  0  0  0
    4.7448    0.7560   -0.9508 H   0  0  0  0  0  0  0  0  0  0  0  0
    3.7234    1.3575    0.3473 H   0  0  0  0  0  0  0  0  0  0  0  0
    4.1680   -0.3835    0.2453 H   0  0  0  0  0  0  0  0  0  0  0  0
    3.6662   -3.1609    3.5508 H   0  0  0  0  0  0  0  0  0  0  0  0
    3.0149   -5.3136    2.4508 H   0  0  0  0  0  0  0  0  0  0  0  0
    1.4714   -5.2931    0.5091 H   0  0  0  0  0  0  0  0  0  0  0  0
    0.5358   -3.1597   -0.3377 H   0  0  0  0  0  0  0  0  0  0  0  0
  1  2  1  0
  2  3  2  0
  3  4  1  0
  4  5  1  0
  4  6  2  0
  6  7  1  0
  7  8  1  0
  7  9  1  0
  6 10  1  0
 10 11  2  0
 11 12  1  0
 12 13  1  0
 13 14  2  0
 14 15  1  0
 15 16  1  0
 16 17  1  0
 16 18  1  0
 15 19  2  0
 19 20  1  0
 19 21  1  0
 21 22  2  0
 22 23  1  0
 12 24  1  0
 24 25  1  0
 25 26  2  0
 25 27  1  0
 27 28  2  0
 28 29  1  0
 29 30  2  0
 30 31  1  0
 31 32  2  0
 11  2  1  0
 32 12  1  0
 22 13  1  0
 32 27  1  0
  1 33  1  0
  1 34  1  0
  1 35  1  0
  3 36  1  0
  5 37  1  0
  7 38  1  0
  8 39  1  0
  8 40  1  0
  8 41  1  0
  9 42  1  0
  9 43  1  0
  9 44  1  0
 10 45  1  0
 14 46  1  0
 16 47  1  0
 17 48  1  0
 17 49  1  0
 17 50  1  0
 18 51  1  0
 18 52  1  0
 18 53  1  0
 20 54  1  0
 21 55  1  0
 23 56  1  0
 23 57  1  0
 23 58  1  0
 28 59  1  0
 29 60  1  0
 30 61  1  0
 31 62  1  0
M  END
$$$$
