
     RDKit          3D

 55 57  0  0  0  0  0  0  0  0999 V2000
   -9.0880   -1.4718    0.7281 C   0  0  0  0  0  0  0  0  0  0  0  0
   -8.3575   -0.6349   -0.1573 O   0  0  0  0  0  0  0  0  0  0  0  0
   -6.9871   -0.6788   -0.0881 C   0  0  0  0  0  0  0  0  0  0  0  0
   -6.2651   -1.4415    0.8374 C   0  0  0  0  0  0  0  0  0  0  0  0
   -4.8676   -1.4182    0.8359 C   0  0  0  0  0  0  0  0  0  0  0  0
   -4.1787   -0.6347   -0.0924 C   0  0  0  0  0  0  0  0  0  0  0  0
   -2.7135   -0.5933   -0.0951 C   0  0  0  0  0  0  0  0  0  0  0  0
   -1.9656    0.1304    0.7518 C   0  0  0  0  0  0  0  0  0  0  0  0
   -2.5028    1.1542    2.0253 S   0  0  0  0  0  0  0  0  0  0  0  0
   -0.8678    1.6594    2.4347 C   0  0  0  0  0  0  0  0  0  0  0  0
   -0.5580    2.7112    3.6944 S   0  0  0  0  0  0  0  0  0  0  0  0
    0.0364    1.0543    1.5824 N   0  0  0  0  0  0  0  0  0  0  0  0
    1.4824    1.2764    1.6108 C   0  0  0  0  0  0  0  0  0  0  0  0
    2.2059    0.2406    2.4842 C   0  0  0  0  0  0  0  0  0  0  0  0
    3.6506    0.6414    2.7728 C   0  0  0  0  0  0  0  0  0  0  0  0
    4.4586    0.7777    1.4957 C   0  0  0  0  0  0  0  0  0  0  0  0
    4.4881    1.8536    0.9061 O   0  0  0  0  0  0  0  0  0  0  0  0
    5.0599   -0.4028    1.1031 N   0  0  0  0  0  0  0  0  0  0  0  0
    5.8293   -0.6259   -0.0611 C   0  0  0  0  0  0  0  0  0  0  0  0
    6.4269   -1.8880   -0.1991 C   0  0  0  0  0  0  0  0  0  0  0  0
    7.2123   -2.1922   -1.3161 C   0  0  0  0  0  0  0  0  0  0  0  0
    7.4042   -1.2372   -2.3133 C   0  0  0  0  0  0  0  0  0  0  0  0
    6.8025    0.0220   -2.1949 C   0  0  0  0  0  0  0  0  0  0  0  0
    6.9518    1.0544   -3.2494 C   0  0  0  0  0  0  0  0  0  0  0  0
    6.3483    2.1098   -3.3151 O   0  0  0  0  0  0  0  0  0  0  0  0
    7.8572    0.7106   -4.1900 O   0  0  0  0  0  0  0  0  0  0  0  0
    6.0168    0.3237   -1.0693 C   0  0  0  0  0  0  0  0  0  0  0  0
   -0.4814    0.1563    0.6636 C   0  0  0  0  0  0  0  0  0  0  0  0
    0.1646   -0.5427   -0.1080 O   0  0  0  0  0  0  0  0  0  0  0  0
   -4.8943    0.1281   -1.0234 C   0  0  0  0  0  0  0  0  0  0  0  0
   -6.2948    0.1199   -1.0221 C   0  0  0  0  0  0  0  0  0  0  0  0
   -7.0729    0.8436   -1.8958 O   0  0  0  0  0  0  0  0  0  0  0  0
   -6.4260    1.8110   -2.7063 C   0  0  0  0  0  0  0  0  0  0  0  0
  -10.1525   -1.3369    0.5128 H   0  0  0  0  0  0  0  0  0  0  0  0
   -8.9210   -1.1833    1.7721 H   0  0  0  0  0  0  0  0  0  0  0  0
   -8.8472   -2.5283    0.5644 H   0  0  0  0  0  0  0  0  0  0  0  0
   -6.7596   -2.0606    1.5781 H   0  0  0  0  0  0  0  0  0  0  0  0
   -4.3255   -2.0151    1.5666 H   0  0  0  0  0  0  0  0  0  0  0  0
   -2.2390   -1.1870   -0.8773 H   0  0  0  0  0  0  0  0  0  0  0  0
    1.6882    2.2908    1.9686 H   0  0  0  0  0  0  0  0  0  0  0  0
    1.8565    1.2168    0.5812 H   0  0  0  0  0  0  0  0  0  0  0  0
    1.6813    0.1249    3.4417 H   0  0  0  0  0  0  0  0  0  0  0  0
    2.1755   -0.7410    1.9923 H   0  0  0  0  0  0  0  0  0  0  0  0
    3.6883    1.6004    3.3047 H   0  0  0  0  0  0  0  0  0  0  0  0
    4.1211   -0.0975    3.4340 H   0  0  0  0  0  0  0  0  0  0  0  0
    4.9741   -1.1916    1.7324 H   0  0  0  0  0  0  0  0  0  0  0  0
    6.2944   -2.6544    0.5625 H   0  0  0  0  0  0  0  0  0  0  0  0
    7.6718   -3.1743   -1.4131 H   0  0  0  0  0  0  0  0  0  0  0  0
    8.0133   -1.4849   -3.1812 H   0  0  0  0  0  0  0  0  0  0  0  0
    7.8344    1.4624   -4.8175 H   0  0  0  0  0  0  0  0  0  0  0  0
    5.5569    1.3070   -1.0151 H   0  0  0  0  0  0  0  0  0  0  0  0
   -4.3400    0.7231   -1.7424 H   0  0  0  0  0  0  0  0  0  0  0  0
   -5.8688    2.5315   -2.1018 H   0  0  0  0  0  0  0  0  0  0  0  0
   -7.1995    2.3612   -3.2466 H   0  0  0  0  0  0  0  0  0  0  0  0
   -5.7772    1.3324   -3.4457 H   0  0  0  0  0  0  0  0  0  0  0  0
  1  2  1  0
  2  3  1  0
  3  4  2  0
  4  5  1  0
  5  6  2  0
  6  7  1  0
  7  8  2  3
  8  9  1  0
  9 10  1  0
 10 11  2  0
 10 12  1  0
 12 13  1  0
 13 14  1  0
 14 15  1  0
 15 16  1  0
 16 17  2  0
 16 18  1  0
 18 19  1  0
 19 20  2  0
 20 21  1  0
 21 22  2  0
 22 23  1  0
 23 24  1  0
 24 25  2  0
 24 26  1  0
 23 27  2  0
 12 28  1  0
 28 29  2  0
  6 30  1  0
 30 31  2  0
 31 32  1  0
 32 33  1  0
 31  3  1  0
 28  8  1  0
 27 19  1  0
  1 34  1  0
  1 35  1  0
  1 36  1  0
  4 37  1  0
  5 38  1  0
  7 39  1  0
 13 40  1  0
 13 41  1  0
 14 42  1  0
 14 43  1  0
 15 44  1  0
 15 45  1  0
 18 46  1  0
 20 47  1  0
 21 48  1  0
 22 49  1  0
 26 50  1  0
 27 51  1  0
 30 52  1  0
 33 53  1  0
 33 54  1  0
 33 55  1  0
M  END
$$$$
