
     RDKit          3D

 48 51  0  0  0  0  0  0  0  0999 V2000
    4.9136   -3.3911    0.2884 C   0  0  0  0  0  0  0  0  0  0  0  0
    3.9585   -2.2391    0.2128 C   0  0  0  0  0  0  0  0  0  0  0  0
    2.6019   -2.4349    0.4780 C   0  0  0  0  0  0  0  0  0  0  0  0
    1.7058   -1.3623    0.3936 C   0  0  0  0  0  0  0  0  0  0  0  0
    2.1207   -0.0905    0.0421 C   0  0  0  0  0  0  0  0  0  0  0  0
    1.2175    0.9014   -0.0323 N   0  0  0  0  0  0  0  0  0  0  0  0
    1.6251    2.1462   -0.3547 C   0  0  0  0  0  0  0  0  0  0  0  0
    0.3548    3.4111   -0.4105 S   0  0  0  0  0  0  0  0  0  0  0  0
   -1.1302    2.3779   -0.5961 C   0  0  0  0  0  0  0  0  0  0  0  0
   -1.5724    1.7362    0.7064 C   0  0  0  0  0  0  0  0  0  0  0  0
   -1.2693    2.2241    1.8045 O   0  0  0  0  0  0  0  0  0  0  0  0
   -2.3414    0.5795    0.6517 N   0  0  0  0  0  0  0  0  0  0  0  0
   -2.9404   -0.1057   -0.4243 C   0  0  0  0  0  0  0  0  0  0  0  0
   -3.1558    0.2763   -1.7397 C   0  0  0  0  0  0  0  0  0  0  0  0
   -3.7808   -0.6261   -2.6134 C   0  0  0  0  0  0  0  0  0  0  0  0
   -4.1990   -1.8869   -2.1665 C   0  0  0  0  0  0  0  0  0  0  0  0
   -4.0051   -2.2613   -0.8369 C   0  0  0  0  0  0  0  0  0  0  0  0
   -3.3863   -1.3601    0.0168 C   0  0  0  0  0  0  0  0  0  0  0  0
   -3.0424   -1.5887    1.4559 C   0  0  0  0  0  0  0  0  0  0  0  0
   -2.6503   -0.1673    1.8941 C   0  0  0  0  0  0  0  0  0  0  0  0
   -3.7872    0.5034    2.6639 C   0  0  0  0  0  0  0  0  0  0  0  0
    2.9573    2.4517   -0.6330 C   0  0  0  0  0  0  0  0  0  0  0  0
    3.4155    3.8354   -0.9976 C   0  0  0  0  0  0  0  0  0  0  0  0
    3.8887    1.4080   -0.5657 C   0  0  0  0  0  0  0  0  0  0  0  0
    3.4837    0.1117   -0.2233 C   0  0  0  0  0  0  0  0  0  0  0  0
    4.3944   -0.9586   -0.1409 C   0  0  0  0  0  0  0  0  0  0  0  0
    4.7113   -4.0983   -0.5166 H   0  0  0  0  0  0  0  0  0  0  0  0
    4.8078   -3.9066    1.2507 H   0  0  0  0  0  0  0  0  0  0  0  0
    5.9601   -3.0611    0.2027 H   0  0  0  0  0  0  0  0  0  0  0  0
    2.2286   -3.4230    0.7474 H   0  0  0  0  0  0  0  0  0  0  0  0
    0.6514   -1.5270    0.6030 H   0  0  0  0  0  0  0  0  0  0  0  0
   -0.9054    1.6328   -1.3562 H   0  0  0  0  0  0  0  0  0  0  0  0
   -1.9426    3.0205   -0.9472 H   0  0  0  0  0  0  0  0  0  0  0  0
   -2.8897    1.2460   -2.1239 H   0  0  0  0  0  0  0  0  0  0  0  0
   -3.9485   -0.3412   -3.6509 H   0  0  0  0  0  0  0  0  0  0  0  0
   -4.6763   -2.5782   -2.8599 H   0  0  0  0  0  0  0  0  0  0  0  0
   -4.3248   -3.2371   -0.4841 H   0  0  0  0  0  0  0  0  0  0  0  0
   -3.8781   -2.0075    2.0324 H   0  0  0  0  0  0  0  0  0  0  0  0
   -2.1820   -2.2598    1.5199 H   0  0  0  0  0  0  0  0  0  0  0  0
   -1.7580   -0.1954    2.5348 H   0  0  0  0  0  0  0  0  0  0  0  0
   -3.5145    1.5182    2.9663 H   0  0  0  0  0  0  0  0  0  0  0  0
   -4.0307   -0.0651    3.5732 H   0  0  0  0  0  0  0  0  0  0  0  0
   -4.6908    0.5780    2.0520 H   0  0  0  0  0  0  0  0  0  0  0  0
    4.4848    3.8537   -1.2312 H   0  0  0  0  0  0  0  0  0  0  0  0
    3.2431    4.5309   -0.1689 H   0  0  0  0  0  0  0  0  0  0  0  0
    2.8880    4.1820   -1.8849 H   0  0  0  0  0  0  0  0  0  0  0  0
    4.9389    1.6110   -0.7769 H   0  0  0  0  0  0  0  0  0  0  0  0
    5.4505   -0.7857   -0.3549 H   0  0  0  0  0  0  0  0  0  0  0  0
  1  2  1  0
  2  3  2  0
  3  4  1  0
  4  5  2  0
  5  6  1  0
  6  7  2  0
  7  8  1  0
  8  9  1  0
  9 10  1  0
 10 11  2  0
 10 12  1  0
 12 13  1  0
 13 14  2  0
 14 15  1  0
 15 16  2  0
 16 17  1  0
 17 18  2  0
 18 19  1  0
 19 20  1  0
 20 21  1  0
  7 22  1  0
 22 23  1  0
 22 24  2  0
 24 25  1  0
 25 26  2  0
 26  2  1  0
 25  5  1  0
 20 12  1  0
 18 13  1  0
  1 27  1  0
  1 28  1  0
  1 29  1  0
  3 30  1  0
  4 31  1  0
  9 32  1  0
  9 33  1  0
 14 34  1  0
 15 35  1  0
 16 36  1  0
 17 37  1  0
 19 38  1  0
 19 39  1  0
 20 40  1  0
 21 41  1  0
 21 42  1  0
 21 43  1  0
 23 44  1  0
 23 45  1  0
 23 46  1  0
 24 47  1  0
 26 48  1  0
M  END
$$$$
