
     RDKit          3D

 41 43  0  0  0  0  0  0  0  0999 V2000
   -3.8781   -0.4243    1.6234 C   0  0  0  0  0  0  0  0  0  0  0  0
   -2.6138   -0.4252    2.4693 C   0  0  0  0  0  0  0  0  0  0  0  0
   -1.6653   -1.5516    2.0505 C   0  0  0  0  0  0  0  0  0  0  0  0
   -0.4015   -1.6514    2.9095 C   0  0  0  0  0  0  0  0  0  0  0  0
    0.6810   -0.1921    2.8156 S   0  0  0  0  0  0  0  0  0  0  0  0
    1.1626   -0.3004    1.1519 C   0  0  0  0  0  0  0  0  0  0  0  0
    1.8068   -1.3500    0.7442 N   0  0  0  0  0  0  0  0  0  0  0  0
    1.9288   -1.1745   -0.6158 C   0  0  0  0  0  0  0  0  0  0  0  0
    2.5689   -2.0630   -1.3900 C   0  0  0  0  0  0  0  0  0  0  0  0
    2.7832   -2.0668   -2.8033 C   0  0  0  0  0  0  0  0  0  0  0  0
    1.8382   -1.7390   -3.8205 C   0  0  0  0  0  0  0  0  0  0  0  0
    2.3624   -1.8753   -5.0882 C   0  0  0  0  0  0  0  0  0  0  0  0
    3.9799   -2.4260   -5.0586 S   0  0  0  0  0  0  0  0  0  0  0  0
    3.9826   -2.4816   -3.3473 C   0  0  0  0  0  0  0  0  0  0  0  0
    1.2744    0.1167   -1.0020 C   0  0  0  0  0  0  0  0  0  0  0  0
    1.2073    0.5901   -2.1216 O   0  0  0  0  0  0  0  0  0  0  0  0
    0.8301    0.6233    0.2012 N   0  0  0  0  0  0  0  0  0  0  0  0
    0.1664    1.8749    0.3266 C   0  0  0  0  0  0  0  0  0  0  0  0
    0.3176    2.6928    1.4552 C   0  0  0  0  0  0  0  0  0  0  0  0
   -0.3509    3.9183    1.5598 C   0  0  0  0  0  0  0  0  0  0  0  0
   -1.1759    4.3559    0.5299 C   0  0  0  0  0  0  0  0  0  0  0  0
   -1.3227    3.5738   -0.6095 C   0  0  0  0  0  0  0  0  0  0  0  0
   -0.6527    2.3499   -0.7115 C   0  0  0  0  0  0  0  0  0  0  0  0
   -3.6407   -0.2755    0.5651 H   0  0  0  0  0  0  0  0  0  0  0  0
   -4.5443    0.3847    1.9389 H   0  0  0  0  0  0  0  0  0  0  0  0
   -4.4200   -1.3699    1.7254 H   0  0  0  0  0  0  0  0  0  0  0  0
   -2.8870   -0.5434    3.5242 H   0  0  0  0  0  0  0  0  0  0  0  0
   -2.1280    0.5505    2.3665 H   0  0  0  0  0  0  0  0  0  0  0  0
   -1.4004   -1.4422    0.9920 H   0  0  0  0  0  0  0  0  0  0  0  0
   -2.2002   -2.5068    2.1315 H   0  0  0  0  0  0  0  0  0  0  0  0
    0.1713   -2.5396    2.6221 H   0  0  0  0  0  0  0  0  0  0  0  0
   -0.6836   -1.7843    3.9596 H   0  0  0  0  0  0  0  0  0  0  0  0
    3.0129   -2.9053   -0.8588 H   0  0  0  0  0  0  0  0  0  0  0  0
    0.8204   -1.4111   -3.6477 H   0  0  0  0  0  0  0  0  0  0  0  0
    1.8700   -1.6805   -6.0308 H   0  0  0  0  0  0  0  0  0  0  0  0
    4.8749   -2.8077   -2.8300 H   0  0  0  0  0  0  0  0  0  0  0  0
    0.9971    2.4324    2.2611 H   0  0  0  0  0  0  0  0  0  0  0  0
   -0.2122    4.5361    2.4440 H   0  0  0  0  0  0  0  0  0  0  0  0
   -1.6921    5.3090    0.6093 H   0  0  0  0  0  0  0  0  0  0  0  0
   -1.9572    3.9122   -1.4250 H   0  0  0  0  0  0  0  0  0  0  0  0
   -0.8103    1.7668   -1.6164 H   0  0  0  0  0  0  0  0  0  0  0  0
  1  2  1  0
  2  3  1  0
  3  4  1  0
  4  5  1  0
  5  6  1  0
  6  7  2  0
  7  8  1  0
  8  9  2  3
  9 10  1  0
 10 11  1  0
 11 12  2  0
 12 13  1  0
 13 14  1  0
  8 15  1  0
 15 16  2  0
 15 17  1  0
 17 18  1  0
 18 19  2  0
 19 20  1  0
 20 21  2  0
 21 22  1  0
 22 23  2  0
 17  6  1  0
 23 18  1  0
 14 10  2  0
  1 24  1  0
  1 25  1  0
  1 26  1  0
  2 27  1  0
  2 28  1  0
  3 29  1  0
  3 30  1  0
  4 31  1  0
  4 32  1  0
  9 33  1  0
 11 34  1  0
 12 35  1  0
 14 36  1  0
 19 37  1  0
 20 38  1  0
 21 39  1  0
 22 40  1  0
 23 41  1  0
M  END
$$$$
