
     RDKit          3D

 67 72  0  0  0  0  0  0  0  0999 V2000
   -2.8828   -1.0596    4.1414 O   0  0  0  0  0  0  0  0  0  0  0  0
   -2.3706   -0.5807    3.1183 C   0  0  0  0  0  0  0  0  0  0  0  0
   -1.0046    0.0879    3.2593 C   0  0  0  0  0  0  0  0  0  0  0  0
   -1.0265    1.5867    2.9487 C   0  0  0  0  0  0  0  0  0  0  0  0
    0.3932    2.1344    2.9994 C   0  0  0  0  0  0  0  0  0  0  0  0
    1.3422    1.4319    2.0207 C   0  0  0  0  0  0  0  0  0  0  0  0
    0.8352    0.1245    1.5869 N   0  0  0  0  0  0  0  0  0  0  0  0
    1.6568   -0.6099    0.7097 C   0  0  0  0  0  0  0  0  0  0  0  0
    1.2680   -1.8795    0.3738 N   0  0  0  0  0  0  0  0  0  0  0  0
    2.0140   -2.6126   -0.4767 C   0  0  0  0  0  0  0  0  0  0  0  0
    3.1492   -2.2614   -1.1012 N   0  0  0  0  0  0  0  0  0  0  0  0
    3.5104   -1.0139   -0.7630 C   0  0  0  0  0  0  0  0  0  0  0  0
    2.8565   -0.1465    0.1003 C   0  0  0  0  0  0  0  0  0  0  0  0
    3.5662    1.0427    0.1992 N   0  0  0  0  0  0  0  0  0  0  0  0
    4.6215    0.8999   -0.5784 C   0  0  0  0  0  0  0  0  0  0  0  0
    4.6094   -0.3266   -1.1978 N   0  0  0  0  0  0  0  0  0  0  0  0
    5.5891   -0.7980   -2.1499 C   0  0  0  0  0  0  0  0  0  0  0  0
    6.9832   -0.9263   -1.5464 C   0  0  0  0  0  0  0  0  0  0  0  0
    7.7054    0.4148   -1.3877 C   0  0  0  0  0  0  0  0  0  0  0  0
    7.0779    1.3847   -0.3803 C   0  0  0  0  0  0  0  0  0  0  0  0
    5.6993    1.9068   -0.7862 C   0  0  0  0  0  0  0  0  0  0  0  0
    0.1211   -0.6956    2.5755 C   0  0  0  0  0  0  0  0  0  0  0  0
   -3.0322   -0.6240    1.9022 N   0  0  0  0  0  0  0  0  0  0  0  0
   -4.3114   -1.3443    1.8486 C   0  0  0  0  0  0  0  0  0  0  0  0
   -5.2878   -0.7572    0.8111 C   0  0  0  0  0  0  0  0  0  0  0  0
   -4.6337   -0.6309   -0.5155 N   0  0  0  0  0  0  0  0  0  0  0  0
   -5.5424   -0.3264   -1.5510 C   0  0  0  0  0  0  0  0  0  0  0  0
   -6.5474   -1.2628   -1.8575 C   0  0  0  0  0  0  0  0  0  0  0  0
   -7.4835   -1.0384   -2.8756 C   0  0  0  0  0  0  0  0  0  0  0  0
   -7.4360    0.1314   -3.6266 C   0  0  0  0  0  0  0  0  0  0  0  0
   -6.4452    1.0701   -3.3614 C   0  0  0  0  0  0  0  0  0  0  0  0
   -5.5146    0.8386   -2.3435 C   0  0  0  0  0  0  0  0  0  0  0  0
   -4.5982    1.7984   -2.1312 F   0  0  0  0  0  0  0  0  0  0  0  0
   -3.3866    0.1657   -0.4452 C   0  0  0  0  0  0  0  0  0  0  0  0
   -2.4077   -0.4412    0.5807 C   0  0  0  0  0  0  0  0  0  0  0  0
   -0.7861    0.0147    4.3379 H   0  0  0  0  0  0  0  0  0  0  0  0
   -1.4741    1.8093    1.9745 H   0  0  0  0  0  0  0  0  0  0  0  0
   -1.6540    2.1043    3.6856 H   0  0  0  0  0  0  0  0  0  0  0  0
    0.3858    3.2142    2.7992 H   0  0  0  0  0  0  0  0  0  0  0  0
    0.7858    2.0198    4.0197 H   0  0  0  0  0  0  0  0  0  0  0  0
    1.4503    2.0853    1.1459 H   0  0  0  0  0  0  0  0  0  0  0  0
    2.3229    1.3336    2.5039 H   0  0  0  0  0  0  0  0  0  0  0  0
    1.6526   -3.6176   -0.6684 H   0  0  0  0  0  0  0  0  0  0  0  0
    5.5861   -0.0981   -2.9955 H   0  0  0  0  0  0  0  0  0  0  0  0
    5.2544   -1.7716   -2.5319 H   0  0  0  0  0  0  0  0  0  0  0  0
    6.9414   -1.4442   -0.5801 H   0  0  0  0  0  0  0  0  0  0  0  0
    7.5858   -1.5506   -2.2177 H   0  0  0  0  0  0  0  0  0  0  0  0
    7.7881    0.9077   -2.3670 H   0  0  0  0  0  0  0  0  0  0  0  0
    8.7322    0.2067   -1.0596 H   0  0  0  0  0  0  0  0  0  0  0  0
    7.7468    2.2485   -0.3001 H   0  0  0  0  0  0  0  0  0  0  0  0
    7.0409    0.9228    0.6124 H   0  0  0  0  0  0  0  0  0  0  0  0
    5.7001    2.2481   -1.8291 H   0  0  0  0  0  0  0  0  0  0  0  0
    5.4693    2.7848   -0.1705 H   0  0  0  0  0  0  0  0  0  0  0  0
   -0.2959   -1.6066    2.1329 H   0  0  0  0  0  0  0  0  0  0  0  0
    0.8409   -1.0289    3.3366 H   0  0  0  0  0  0  0  0  0  0  0  0
   -4.7990   -1.3470    2.8301 H   0  0  0  0  0  0  0  0  0  0  0  0
   -4.0780   -2.3869    1.5952 H   0  0  0  0  0  0  0  0  0  0  0  0
   -6.1648   -1.4122    0.7749 H   0  0  0  0  0  0  0  0  0  0  0  0
   -5.6262    0.2332    1.1447 H   0  0  0  0  0  0  0  0  0  0  0  0
   -6.5933   -2.2019   -1.3104 H   0  0  0  0  0  0  0  0  0  0  0  0
   -8.2449   -1.7872   -3.0799 H   0  0  0  0  0  0  0  0  0  0  0  0
   -8.1640    0.3075   -4.4125 H   0  0  0  0  0  0  0  0  0  0  0  0
   -6.3836    1.9904   -3.9358 H   0  0  0  0  0  0  0  0  0  0  0  0
   -3.6181    1.1937   -0.1383 H   0  0  0  0  0  0  0  0  0  0  0  0
   -2.8865    0.1874   -1.4208 H   0  0  0  0  0  0  0  0  0  0  0  0
   -1.5255    0.1907    0.6383 H   0  0  0  0  0  0  0  0  0  0  0  0
   -2.0770   -1.4325    0.2446 H   0  0  0  0  0  0  0  0  0  0  0  0
  1  2  2  0
  2  3  1  0
  3  4  1  0
  4  5  1  0
  5  6  1  0
  6  7  1  0
  7  8  1  0
  8  9  2  0
  9 10  1  0
 10 11  2  0
 11 12  1  0
 12 13  2  0
 13 14  1  0
 14 15  2  0
 15 16  1  0
 16 17  1  0
 17 18  1  0
 18 19  1  0
 19 20  1  0
 20 21  1  0
  7 22  1  0
  2 23  1  0
 23 24  1  0
 24 25  1  0
 25 26  1  0
 26 27  1  0
 27 28  2  0
 28 29  1  0
 29 30  2  0
 30 31  1  0
 31 32  2  0
 32 33  1  0
 26 34  1  0
 34 35  1  0
 22  3  1  0
 35 23  1  0
 13  8  1  0
 21 15  1  0
 32 27  1  0
 16 12  1  0
  3 36  1  0
  4 37  1  0
  4 38  1  0
  5 39  1  0
  5 40  1  0
  6 41  1  0
  6 42  1  0
 10 43  1  0
 17 44  1  0
 17 45  1  0
 18 46  1  0
 18 47  1  0
 19 48  1  0
 19 49  1  0
 20 50  1  0
 20 51  1  0
 21 52  1  0
 21 53  1  0
 22 54  1  0
 22 55  1  0
 24 56  1  0
 24 57  1  0
 25 58  1  0
 25 59  1  0
 28 60  1  0
 29 61  1  0
 30 62  1  0
 31 63  1  0
 34 64  1  0
 34 65  1  0
 35 66  1  0
 35 67  1  0
M  END
$$$$
