
     RDKit          3D

 52 55  0  0  0  0  0  0  0  0999 V2000
   -3.4512   -3.2707   -0.0370 C   0  0  0  0  0  0  0  0  0  0  0  0
   -1.9999   -3.3316    0.3718 C   0  0  0  0  0  0  0  0  0  0  0  0
   -1.5258   -4.3640    0.8292 O   0  0  0  0  0  0  0  0  0  0  0  0
   -1.3708   -2.1222    0.1504 N   0  0  0  0  0  0  0  0  0  0  0  0
   -0.0411   -1.7988    0.3628 C   0  0  0  0  0  0  0  0  0  0  0  0
    1.0668   -2.9467    0.9288 S   0  0  0  0  0  0  0  0  0  0  0  0
    2.3549   -1.8532    0.8318 C   0  0  0  0  0  0  0  0  0  0  0  0
    1.9634   -0.6075    0.3793 C   0  0  0  0  0  0  0  0  0  0  0  0
    0.5327   -0.5499    0.1258 C   0  0  0  0  0  0  0  0  0  0  0  0
   -0.1993    0.7130   -0.3369 C   0  0  0  0  0  0  0  0  0  0  0  0
   -0.6015    1.4044    0.9711 C   0  0  0  0  0  0  0  0  0  0  0  0
   -1.6546    0.9469    1.7846 C   0  0  0  0  0  0  0  0  0  0  0  0
   -1.9910    1.6102    2.9685 C   0  0  0  0  0  0  0  0  0  0  0  0
   -1.2827    2.7442    3.3530 C   0  0  0  0  0  0  0  0  0  0  0  0
   -1.6992    3.5626    4.8075 Cl  0  0  0  0  0  0  0  0  0  0  0  0
   -0.2415    3.2225    2.5636 C   0  0  0  0  0  0  0  0  0  0  0  0
    0.0954    2.5583    1.3809 C   0  0  0  0  0  0  0  0  0  0  0  0
   -1.3258    0.3952   -1.2608 N   0  0  0  0  0  0  0  0  0  0  0  0
   -0.7852   -0.1806   -2.5333 C   0  0  0  0  0  0  0  0  0  0  0  0
   -1.7120    0.0612   -3.7337 C   0  0  0  0  0  0  0  0  0  0  0  0
   -1.8478    1.4535   -4.0418 O   0  0  0  0  0  0  0  0  0  0  0  0
   -1.7392    2.2978   -2.8902 C   0  0  0  0  0  0  0  0  0  0  0  0
   -2.1484    1.5913   -1.5888 C   0  0  0  0  0  0  0  0  0  0  0  0
    2.9580    0.5121    0.2390 C   0  0  0  0  0  0  0  0  0  0  0  0
    4.4074    0.0026    0.2334 C   0  0  0  0  0  0  0  0  0  0  0  0
    4.6478   -1.0217    1.3493 C   0  0  0  0  0  0  0  0  0  0  0  0
    3.7538   -2.2580    1.1809 C   0  0  0  0  0  0  0  0  0  0  0  0
   -3.9501   -4.2051    0.2354 H   0  0  0  0  0  0  0  0  0  0  0  0
   -3.9523   -2.4460    0.4779 H   0  0  0  0  0  0  0  0  0  0  0  0
   -3.5242   -3.1326   -1.1194 H   0  0  0  0  0  0  0  0  0  0  0  0
   -1.9092   -1.3697   -0.2740 H   0  0  0  0  0  0  0  0  0  0  0  0
    0.5029    1.3691   -0.8674 H   0  0  0  0  0  0  0  0  0  0  0  0
   -2.2271    0.0671    1.5074 H   0  0  0  0  0  0  0  0  0  0  0  0
   -2.8039    1.2336    3.5838 H   0  0  0  0  0  0  0  0  0  0  0  0
    0.3124    4.1085    2.8625 H   0  0  0  0  0  0  0  0  0  0  0  0
    0.9132    2.9510    0.7799 H   0  0  0  0  0  0  0  0  0  0  0  0
    0.1888    0.2660   -2.7744 H   0  0  0  0  0  0  0  0  0  0  0  0
   -0.6387   -1.2589   -2.4173 H   0  0  0  0  0  0  0  0  0  0  0  0
   -1.3114   -0.4334   -4.6244 H   0  0  0  0  0  0  0  0  0  0  0  0
   -2.7096   -0.3554   -3.5516 H   0  0  0  0  0  0  0  0  0  0  0  0
   -2.3812    3.1676   -3.0628 H   0  0  0  0  0  0  0  0  0  0  0  0
   -0.7076    2.6628   -2.8273 H   0  0  0  0  0  0  0  0  0  0  0  0
   -3.1794    1.2325   -1.7057 H   0  0  0  0  0  0  0  0  0  0  0  0
   -2.1845    2.3223   -0.7761 H   0  0  0  0  0  0  0  0  0  0  0  0
    2.8261    1.2019    1.0809 H   0  0  0  0  0  0  0  0  0  0  0  0
    2.7765    1.0745   -0.6831 H   0  0  0  0  0  0  0  0  0  0  0  0
    4.6310   -0.4615   -0.7358 H   0  0  0  0  0  0  0  0  0  0  0  0
    5.0925    0.8500    0.3488 H   0  0  0  0  0  0  0  0  0  0  0  0
    5.6996   -1.3292    1.3572 H   0  0  0  0  0  0  0  0  0  0  0  0
    4.4447   -0.5498    2.3193 H   0  0  0  0  0  0  0  0  0  0  0  0
    4.1525   -2.8856    0.3741 H   0  0  0  0  0  0  0  0  0  0  0  0
    3.7757   -2.8504    2.1027 H   0  0  0  0  0  0  0  0  0  0  0  0
  1  2  1  0
  2  3  2  0
  2  4  1  0
  4  5  1  0
  5  6  1  0
  6  7  1  0
  7  8  2  0
  8  9  1  0
  9 10  1  0
 10 11  1  0
 11 12  2  0
 12 13  1  0
 13 14  2  0
 14 15  1  0
 14 16  1  0
 16 17  2  0
 10 18  1  0
 18 19  1  0
 19 20  1  0
 20 21  1  0
 21 22  1  0
 22 23  1  0
  8 24  1  0
 24 25  1  0
 25 26  1  0
 26 27  1  0
  9  5  2  0
 17 11  1  0
 23 18  1  0
 27  7  1  0
  1 28  1  0
  1 29  1  0
  1 30  1  0
  4 31  1  0
 10 32  1  0
 12 33  1  0
 13 34  1  0
 16 35  1  0
 17 36  1  0
 19 37  1  0
 19 38  1  0
 20 39  1  0
 20 40  1  0
 22 41  1  0
 22 42  1  0
 23 43  1  0
 23 44  1  0
 24 45  1  0
 24 46  1  0
 25 47  1  0
 25 48  1  0
 26 49  1  0
 26 50  1  0
 27 51  1  0
 27 52  1  0
M  END
$$$$
