
     RDKit          3D

 50 52  0  0  0  0  0  0  0  0999 V2000
    2.5567   -0.3466   -3.4474 C   0  0  0  0  0  0  0  0  0  0  0  0
    2.5236    0.3385   -2.2013 O   0  0  0  0  0  0  0  0  0  0  0  0
    3.7156    0.4681   -1.5259 C   0  0  0  0  0  0  0  0  0  0  0  0
    4.9586    0.0506   -2.0114 C   0  0  0  0  0  0  0  0  0  0  0  0
    6.1050    0.2100   -1.2309 C   0  0  0  0  0  0  0  0  0  0  0  0
    6.0142    0.7826    0.0353 C   0  0  0  0  0  0  0  0  0  0  0  0
    4.7770    1.2050    0.5283 C   0  0  0  0  0  0  0  0  0  0  0  0
    3.6247    1.0589   -0.2458 C   0  0  0  0  0  0  0  0  0  0  0  0
    2.3396    1.4572    0.1827 N   0  0  0  0  0  0  0  0  0  0  0  0
    1.9584    1.9586    1.4106 C   0  0  0  0  0  0  0  0  0  0  0  0
    2.7079    2.2601    2.3364 O   0  0  0  0  0  0  0  0  0  0  0  0
    0.4428    2.1431    1.5446 C   0  0  0  0  0  0  0  0  0  0  0  0
   -0.2933    0.9317    1.3527 O   0  0  0  0  0  0  0  0  0  0  0  0
   -0.6541    0.6744    0.0754 C   0  0  0  0  0  0  0  0  0  0  0  0
   -0.3858    1.3545   -0.9016 O   0  0  0  0  0  0  0  0  0  0  0  0
   -1.2663   -0.6600   -0.0055 C   0  0  0  0  0  0  0  0  0  0  0  0
   -0.4765   -1.6061   -0.6893 C   0  0  0  0  0  0  0  0  0  0  0  0
   -0.8992   -2.9297   -0.7619 C   0  0  0  0  0  0  0  0  0  0  0  0
   -0.0894   -3.9189   -1.4800 N   0  0  0  0  0  4  0  0  0  0  0  0
   -0.4425   -5.1052   -1.4207 O   0  0  0  0  0  0  0  0  0  0  0  0
    0.8943   -3.5072   -2.1111 O   0  0  0  0  0  1  0  0  0  0  0  0
   -2.0887   -3.3134   -0.1478 C   0  0  0  0  0  0  0  0  0  0  0  0
   -2.8672   -2.3528    0.5154 C   0  0  0  0  0  0  0  0  0  0  0  0
   -2.5077   -0.9887    0.5872 C   0  0  0  0  0  0  0  0  0  0  0  0
   -3.3452   -0.0805    1.2102 N   0  0  0  0  0  0  0  0  0  0  0  0
   -3.4748    1.3183    0.7731 C   0  0  0  0  0  0  0  0  0  0  0  0
   -4.8815    1.7267    1.2105 C   0  0  0  0  0  0  0  0  0  0  0  0
   -5.1225    0.8591    2.4338 C   0  0  0  0  0  0  0  0  0  0  0  0
   -4.5137   -0.4717    2.0071 C   0  0  0  0  0  0  0  0  0  0  0  0
    1.5303   -0.4116   -3.8183 H   0  0  0  0  0  0  0  0  0  0  0  0
    2.9328   -1.3686   -3.3304 H   0  0  0  0  0  0  0  0  0  0  0  0
    3.1434    0.2103   -4.1851 H   0  0  0  0  0  0  0  0  0  0  0  0
    5.0695   -0.4030   -2.9902 H   0  0  0  0  0  0  0  0  0  0  0  0
    7.0710   -0.1160   -1.6107 H   0  0  0  0  0  0  0  0  0  0  0  0
    6.9062    0.9038    0.6447 H   0  0  0  0  0  0  0  0  0  0  0  0
    4.7470    1.6491    1.5179 H   0  0  0  0  0  0  0  0  0  0  0  0
    1.6191    1.3414   -0.5308 H   0  0  0  0  0  0  0  0  0  0  0  0
    0.2352    2.4809    2.5662 H   0  0  0  0  0  0  0  0  0  0  0  0
    0.1086    2.9422    0.8727 H   0  0  0  0  0  0  0  0  0  0  0  0
    0.4665   -1.2947   -1.1356 H   0  0  0  0  0  0  0  0  0  0  0  0
   -2.4367   -4.3443   -0.1791 H   0  0  0  0  0  0  0  0  0  0  0  0
   -3.7949   -2.7032    0.9620 H   0  0  0  0  0  0  0  0  0  0  0  0
   -2.7399    1.9412    1.2932 H   0  0  0  0  0  0  0  0  0  0  0  0
   -3.3647    1.4400   -0.3093 H   0  0  0  0  0  0  0  0  0  0  0  0
   -4.9595    2.7970    1.4232 H   0  0  0  0  0  0  0  0  0  0  0  0
   -5.6085    1.4785    0.4269 H   0  0  0  0  0  0  0  0  0  0  0  0
   -6.1808    0.7725    2.6926 H   0  0  0  0  0  0  0  0  0  0  0  0
   -4.5832    1.2656    3.2984 H   0  0  0  0  0  0  0  0  0  0  0  0
   -5.2373   -1.0216    1.3930 H   0  0  0  0  0  0  0  0  0  0  0  0
   -4.2338   -1.0762    2.8760 H   0  0  0  0  0  0  0  0  0  0  0  0
  1  2  1  0
  2  3  1  0
  3  4  2  0
  4  5  1  0
  5  6  2  0
  6  7  1  0
  7  8  2  0
  8  9  1  0
  9 10  1  0
 10 11  2  0
 10 12  1  0
 12 13  1  0
 13 14  1  0
 14 15  2  0
 14 16  1  0
 16 17  2  0
 17 18  1  0
 18 19  1  0
 19 20  2  0
 19 21  1  0
 18 22  2  0
 22 23  1  0
 23 24  2  0
 24 25  1  0
 25 26  1  0
 26 27  1  0
 27 28  1  0
 28 29  1  0
  8  3  1  0
 24 16  1  0
 29 25  1  0
  1 30  1  0
  1 31  1  0
  1 32  1  0
  4 33  1  0
  5 34  1  0
  6 35  1  0
  7 36  1  0
  9 37  1  0
 12 38  1  0
 12 39  1  0
 17 40  1  0
 22 41  1  0
 23 42  1  0
 26 43  1  0
 26 44  1  0
 27 45  1  0
 27 46  1  0
 28 47  1  0
 28 48  1  0
 29 49  1  0
 29 50  1  0
M  CHG  2  19   1  21  -1
M  END
$$$$
