
     RDKit          3D

 41 42  0  0  0  0  0  0  0  0999 V2000
   -3.1970   -1.3828   -2.4188 C   0  0  0  0  0  0  0  0  0  0  0  0
   -3.2669    0.0345   -2.2533 O   0  0  0  0  0  0  0  0  0  0  0  0
   -2.8043    0.4047   -1.0177 C   0  0  0  0  0  0  0  0  0  0  0  0
   -3.5632    0.1127    0.1197 C   0  0  0  0  0  0  0  0  0  0  0  0
   -3.1207    0.5203    1.3766 C   0  0  0  0  0  0  0  0  0  0  0  0
   -1.9312    1.2347    1.4942 C   0  0  0  0  0  0  0  0  0  0  0  0
   -1.1863    1.5461    0.3546 C   0  0  0  0  0  0  0  0  0  0  0  0
   -1.6117    1.1344   -0.9212 C   0  0  0  0  0  0  0  0  0  0  0  0
   -0.7891    1.4779   -2.1395 C   0  0  0  0  0  0  0  0  0  0  0  0
    0.5445    0.9233   -2.0524 N   0  0  0  0  0  0  0  0  0  0  0  0
    0.8312   -0.3527   -2.4898 C   0  0  0  0  0  0  0  0  0  0  0  0
    0.0838   -1.0318   -3.1881 O   0  0  0  0  0  0  0  0  0  0  0  0
    2.2125   -0.8507   -2.0545 C   0  0  0  0  0  0  0  0  0  0  0  0
    2.6669   -0.3156   -0.8180 O   0  0  0  0  0  0  0  0  0  0  0  0
    2.0398   -0.7096    0.3401 C   0  0  0  0  0  0  0  0  0  0  0  0
    1.1289   -1.7669    0.4326 C   0  0  0  0  0  0  0  0  0  0  0  0
    0.5376   -2.0809    1.6577 C   0  0  0  0  0  0  0  0  0  0  0  0
    0.8547   -1.3464    2.7961 C   0  0  0  0  0  0  0  0  0  0  0  0
    1.7637   -0.2904    2.7162 C   0  0  0  0  0  0  0  0  0  0  0  0
    2.3616    0.0347    1.4938 C   0  0  0  0  0  0  0  0  0  0  0  0
    3.2394    1.0758    1.3129 O   0  0  0  0  0  0  0  0  0  0  0  0
    3.7399    1.7153    2.4791 C   0  0  0  0  0  0  0  0  0  0  0  0
   -2.2688   -1.8030   -2.0152 H   0  0  0  0  0  0  0  0  0  0  0  0
   -4.0630   -1.8623   -1.9510 H   0  0  0  0  0  0  0  0  0  0  0  0
   -3.2292   -1.5968   -3.4912 H   0  0  0  0  0  0  0  0  0  0  0  0
   -4.5045   -0.4208    0.0267 H   0  0  0  0  0  0  0  0  0  0  0  0
   -3.7077    0.2892    2.2611 H   0  0  0  0  0  0  0  0  0  0  0  0
   -1.5827    1.5544    2.4726 H   0  0  0  0  0  0  0  0  0  0  0  0
   -0.2635    2.1105    0.4696 H   0  0  0  0  0  0  0  0  0  0  0  0
   -1.2574    1.1367   -3.0678 H   0  0  0  0  0  0  0  0  0  0  0  0
   -0.6869    2.5668   -2.2061 H   0  0  0  0  0  0  0  0  0  0  0  0
    1.1635    1.2938   -1.3389 H   0  0  0  0  0  0  0  0  0  0  0  0
    2.9196   -0.5224   -2.8249 H   0  0  0  0  0  0  0  0  0  0  0  0
    2.2422   -1.9457   -2.0485 H   0  0  0  0  0  0  0  0  0  0  0  0
    0.8483   -2.3674   -0.4264 H   0  0  0  0  0  0  0  0  0  0  0  0
   -0.1763   -2.8986    1.7196 H   0  0  0  0  0  0  0  0  0  0  0  0
    0.3886   -1.5923    3.7469 H   0  0  0  0  0  0  0  0  0  0  0  0
    1.9753    0.2654    3.6231 H   0  0  0  0  0  0  0  0  0  0  0  0
    2.9469    2.2679    2.9931 H   0  0  0  0  0  0  0  0  0  0  0  0
    4.2239    0.9986    3.1510 H   0  0  0  0  0  0  0  0  0  0  0  0
    4.4976    2.4392    2.1640 H   0  0  0  0  0  0  0  0  0  0  0  0
  1  2  1  0
  2  3  1  0
  3  4  2  0
  4  5  1  0
  5  6  2  0
  6  7  1  0
  7  8  2  0
  8  9  1  0
  9 10  1  0
 10 11  1  0
 11 12  2  0
 11 13  1  0
 13 14  1  0
 14 15  1  0
 15 16  2  0
 16 17  1  0
 17 18  2  0
 18 19  1  0
 19 20  2  0
 20 21  1  0
 21 22  1  0
  8  3  1  0
 20 15  1  0
  1 23  1  0
  1 24  1  0
  1 25  1  0
  4 26  1  0
  5 27  1  0
  6 28  1  0
  7 29  1  0
  9 30  1  0
  9 31  1  0
 10 32  1  0
 13 33  1  0
 13 34  1  0
 16 35  1  0
 17 36  1  0
 18 37  1  0
 19 38  1  0
 22 39  1  0
 22 40  1  0
 22 41  1  0
M  END
$$$$
