
     RDKit          3D

 53 56  0  0  0  0  0  0  0  0999 V2000
    6.1963   -1.7505    2.7858 C   0  0  0  0  0  0  0  0  0  0  0  0
    5.3937   -1.4177    1.5641 C   0  0  0  0  0  0  0  0  0  0  0  0
    4.0411   -1.1600    1.6673 C   0  0  0  0  0  0  0  0  0  0  0  0
    3.3440   -0.8498    0.5006 C   0  0  0  0  0  0  0  0  0  0  0  0
    1.9111   -0.5162    0.6653 C   0  0  0  0  0  0  0  0  0  0  0  0
    1.1754   -1.3582    1.1598 O   0  0  0  0  0  0  0  0  0  0  0  0
    1.5830    0.7629    0.2589 N   0  0  0  0  0  0  0  0  0  0  0  0
    0.3169    1.3798    0.3121 C   0  0  0  0  0  0  0  0  0  0  0  0
    0.2120    2.6614   -0.2359 C   0  0  0  0  0  0  0  0  0  0  0  0
   -1.0096    3.3407   -0.2408 C   0  0  0  0  0  0  0  0  0  0  0  0
   -2.1628    2.7560    0.3014 C   0  0  0  0  0  0  0  0  0  0  0  0
   -3.4432    3.5436    0.2763 C   0  0  0  0  0  0  0  0  0  0  0  0
   -2.0473    1.4746    0.8730 C   0  0  0  0  0  0  0  0  0  0  0  0
   -3.4421    0.6634    1.6406 S   0  0  0  0  0  6  0  0  0  0  0  0
   -4.1802    1.6530    2.3963 O   0  0  0  0  0  0  0  0  0  0  0  0
   -2.9930   -0.5550    2.2802 O   0  0  0  0  0  0  0  0  0  0  0  0
   -4.3925    0.1980    0.2982 N   0  0  0  0  0  0  0  0  0  0  0  0
   -3.7116   -0.7258   -0.6709 C   0  0  0  0  0  0  0  0  0  0  0  0
   -4.7467   -1.4286   -1.5552 C   0  0  0  0  0  0  0  0  0  0  0  0
   -5.6460   -2.2661   -0.8159 O   0  0  0  0  0  0  0  0  0  0  0  0
   -5.8534   -1.8204    0.5326 C   0  0  0  0  0  0  0  0  0  0  0  0
   -5.7594   -0.2994    0.6772 C   0  0  0  0  0  0  0  0  0  0  0  0
   -0.8157    0.7938    0.8755 C   0  0  0  0  0  0  0  0  0  0  0  0
    3.9844   -0.8449   -0.7584 C   0  0  0  0  0  0  0  0  0  0  0  0
    3.3392   -0.6155   -2.0016 C   0  0  0  0  0  0  0  0  0  0  0  0
    4.0577   -0.6185   -3.1955 C   0  0  0  0  0  0  0  0  0  0  0  0
    5.4237   -0.8576   -3.1685 C   0  0  0  0  0  0  0  0  0  0  0  0
    6.0591   -1.1039   -1.9492 C   0  0  0  0  0  0  0  0  0  0  0  0
    5.3666   -1.1110   -0.7457 C   0  0  0  0  0  0  0  0  0  0  0  0
    6.0496   -1.3754    0.3818 N   0  0  0  0  0  0  0  0  0  0  0  0
    7.2435   -1.9353    2.5256 H   0  0  0  0  0  0  0  0  0  0  0  0
    6.1633   -0.9198    3.4976 H   0  0  0  0  0  0  0  0  0  0  0  0
    5.8005   -2.6514    3.2648 H   0  0  0  0  0  0  0  0  0  0  0  0
    3.5347   -1.1909    2.6275 H   0  0  0  0  0  0  0  0  0  0  0  0
    2.3368    1.3260   -0.1188 H   0  0  0  0  0  0  0  0  0  0  0  0
    1.0779    3.1537   -0.6724 H   0  0  0  0  0  0  0  0  0  0  0  0
   -1.0520    4.3386   -0.6746 H   0  0  0  0  0  0  0  0  0  0  0  0
   -3.6580    3.9528    1.2678 H   0  0  0  0  0  0  0  0  0  0  0  0
   -3.3739    4.3864   -0.4207 H   0  0  0  0  0  0  0  0  0  0  0  0
   -4.2815    2.9311   -0.0663 H   0  0  0  0  0  0  0  0  0  0  0  0
   -3.1302   -1.4809   -0.1308 H   0  0  0  0  0  0  0  0  0  0  0  0
   -3.0377   -0.1396   -1.3034 H   0  0  0  0  0  0  0  0  0  0  0  0
   -4.2451   -2.0601   -2.2953 H   0  0  0  0  0  0  0  0  0  0  0  0
   -5.3473   -0.6943   -2.1046 H   0  0  0  0  0  0  0  0  0  0  0  0
   -5.1176   -2.3212    1.1721 H   0  0  0  0  0  0  0  0  0  0  0  0
   -6.8447   -2.1678    0.8404 H   0  0  0  0  0  0  0  0  0  0  0  0
   -6.0241   -0.0066    1.6979 H   0  0  0  0  0  0  0  0  0  0  0  0
   -6.4752    0.1906    0.0063 H   0  0  0  0  0  0  0  0  0  0  0  0
   -0.7617   -0.1905    1.3323 H   0  0  0  0  0  0  0  0  0  0  0  0
    2.2640   -0.4545   -2.0519 H   0  0  0  0  0  0  0  0  0  0  0  0
    3.5506   -0.4456   -4.1416 H   0  0  0  0  0  0  0  0  0  0  0  0
    5.9987   -0.8678   -4.0910 H   0  0  0  0  0  0  0  0  0  0  0  0
    7.1284   -1.3056   -1.9377 H   0  0  0  0  0  0  0  0  0  0  0  0
  1  2  1  0
  2  3  2  0
  3  4  1  0
  4  5  1  0
  5  6  2  0
  5  7  1  0
  7  8  1  0
  8  9  2  0
  9 10  1  0
 10 11  2  0
 11 12  1  0
 11 13  1  0
 13 14  1  0
 14 15  2  0
 14 16  2  0
 14 17  1  0
 17 18  1  0
 18 19  1  0
 19 20  1  0
 20 21  1  0
 21 22  1  0
 13 23  2  0
  4 24  2  0
 24 25  1  0
 25 26  2  0
 26 27  1  0
 27 28  2  0
 28 29  1  0
 29 30  2  0
 30  2  1  0
 23  8  1  0
 29 24  1  0
 22 17  1  0
  1 31  1  0
  1 32  1  0
  1 33  1  0
  3 34  1  0
  7 35  1  0
  9 36  1  0
 10 37  1  0
 12 38  1  0
 12 39  1  0
 12 40  1  0
 18 41  1  0
 18 42  1  0
 19 43  1  0
 19 44  1  0
 21 45  1  0
 21 46  1  0
 22 47  1  0
 22 48  1  0
 23 49  1  0
 25 50  1  0
 26 51  1  0
 27 52  1  0
 28 53  1  0
M  END
$$$$
