
     RDKit          3D

 63 65  0  0  0  0  0  0  0  0999 V2000
    1.2919   -0.8348    2.5430 C   0  0  0  0  0  0  0  0  0  0  0  0
   -0.0737   -0.3747    2.0399 C   0  0  0  0  0  0  0  0  0  0  0  0
   -0.4050   -0.6263    0.6327 N   0  0  0  0  0  0  0  0  0  0  0  0
    0.3361    0.1948   -0.3413 C   0  0  0  0  0  0  0  0  0  0  0  0
    1.7928   -0.2319   -0.5908 C   0  0  0  0  0  0  0  0  0  0  0  0
    2.0888   -1.3947   -0.8590 O   0  0  0  0  0  0  0  0  0  0  0  0
    2.6847    0.8288   -0.5052 N   0  0  0  0  0  0  0  0  0  0  0  0
    4.0784    0.7920   -0.7172 C   0  0  0  0  0  0  0  0  0  0  0  0
    4.7930   -0.3581   -1.0448 C   0  0  0  0  0  0  0  0  0  0  0  0
    6.1776   -0.3003   -1.2520 C   0  0  0  0  0  0  0  0  0  0  0  0
    6.8744    0.9074   -1.1445 C   0  0  0  0  0  0  0  0  0  0  0  0
    8.2637    0.8743   -1.3785 N   0  0  0  0  0  0  0  0  0  0  0  0
    9.1300    1.9516   -1.4406 C   0  0  0  0  0  0  0  0  0  0  0  0
   10.5568    1.5243   -1.6831 C   0  0  0  0  0  0  0  0  0  0  0  0
    8.8363    3.1382   -1.3585 O   0  0  0  0  0  0  0  0  0  0  0  0
    6.1620    2.0570   -0.8116 C   0  0  0  0  0  0  0  0  0  0  0  0
    4.7789    1.9986   -0.5921 C   0  0  0  0  0  0  0  0  0  0  0  0
   -0.4772   -2.0565    0.2660 C   0  0  0  0  0  0  0  0  0  0  0  0
   -1.7606   -2.7118    0.8036 C   0  0  0  0  0  0  0  0  0  0  0  0
   -1.7913   -3.9072    1.0832 O   0  0  0  0  0  0  0  0  0  0  0  0
   -2.8273   -1.8332    0.8351 N   0  0  0  0  0  0  0  0  0  0  0  0
   -4.1763   -2.0782    1.1714 C   0  0  0  0  0  0  0  0  0  0  0  0
   -4.6383   -3.3456    1.5407 C   0  0  0  0  0  0  0  0  0  0  0  0
   -5.9829   -3.5546    1.8676 C   0  0  0  0  0  0  0  0  0  0  0  0
   -6.8893   -2.5001    1.8305 C   0  0  0  0  0  0  0  0  0  0  0  0
   -6.4548   -1.2309    1.4574 C   0  0  0  0  0  0  0  0  0  0  0  0
   -5.1080   -1.0198    1.1106 C   0  0  0  0  0  0  0  0  0  0  0  0
   -4.6856    0.3396    0.6754 C   0  0  0  0  0  0  0  0  0  0  0  0
   -3.6184    0.8024    1.0706 O   0  0  0  0  0  0  0  0  0  0  0  0
   -5.5245    1.1441   -0.2504 C   0  0  0  0  0  0  0  0  0  0  0  0
   -5.5331    2.5358   -0.1061 C   0  0  0  0  0  0  0  0  0  0  0  0
   -6.3069    3.3204   -0.9636 C   0  0  0  0  0  0  0  0  0  0  0  0
   -7.0630    2.7179   -1.9693 C   0  0  0  0  0  0  0  0  0  0  0  0
   -7.0357    1.3319   -2.1322 C   0  0  0  0  0  0  0  0  0  0  0  0
   -6.2671    0.5425   -1.2747 C   0  0  0  0  0  0  0  0  0  0  0  0
    2.1109   -0.3023    2.0559 H   0  0  0  0  0  0  0  0  0  0  0  0
    1.3702   -0.6333    3.6183 H   0  0  0  0  0  0  0  0  0  0  0  0
    1.4419   -1.9097    2.4058 H   0  0  0  0  0  0  0  0  0  0  0  0
   -0.8371   -0.8477    2.6714 H   0  0  0  0  0  0  0  0  0  0  0  0
   -0.1749    0.7006    2.2426 H   0  0  0  0  0  0  0  0  0  0  0  0
   -0.1734    0.1544   -1.3132 H   0  0  0  0  0  0  0  0  0  0  0  0
    0.2881    1.2459   -0.0327 H   0  0  0  0  0  0  0  0  0  0  0  0
    2.3062    1.7328   -0.2541 H   0  0  0  0  0  0  0  0  0  0  0  0
    4.3095   -1.3243   -1.1453 H   0  0  0  0  0  0  0  0  0  0  0  0
    6.6938   -1.2211   -1.5158 H   0  0  0  0  0  0  0  0  0  0  0  0
    8.6595   -0.0381   -1.5653 H   0  0  0  0  0  0  0  0  0  0  0  0
   11.2357    2.2953   -1.3090 H   0  0  0  0  0  0  0  0  0  0  0  0
   10.7779    0.5910   -1.1578 H   0  0  0  0  0  0  0  0  0  0  0  0
   10.7154    1.3868   -2.7571 H   0  0  0  0  0  0  0  0  0  0  0  0
    6.6542    3.0189   -0.6999 H   0  0  0  0  0  0  0  0  0  0  0  0
    4.2636    2.9195   -0.3298 H   0  0  0  0  0  0  0  0  0  0  0  0
    0.3854   -2.6283    0.6200 H   0  0  0  0  0  0  0  0  0  0  0  0
   -0.5341   -2.1693   -0.8246 H   0  0  0  0  0  0  0  0  0  0  0  0
   -2.5602   -0.8541    0.6910 H   0  0  0  0  0  0  0  0  0  0  0  0
   -3.9727   -4.2011    1.5903 H   0  0  0  0  0  0  0  0  0  0  0  0
   -6.3150   -4.5496    2.1491 H   0  0  0  0  0  0  0  0  0  0  0  0
   -7.9316   -2.6700    2.0935 H   0  0  0  0  0  0  0  0  0  0  0  0
   -7.1727   -0.4130    1.4373 H   0  0  0  0  0  0  0  0  0  0  0  0
   -4.9368    3.0080    0.6729 H   0  0  0  0  0  0  0  0  0  0  0  0
   -6.3196    4.4015   -0.8489 H   0  0  0  0  0  0  0  0  0  0  0  0
   -7.6609    3.3293   -2.6423 H   0  0  0  0  0  0  0  0  0  0  0  0
   -7.6066    0.8690   -2.9364 H   0  0  0  0  0  0  0  0  0  0  0  0
   -6.2430   -0.5343   -1.4286 H   0  0  0  0  0  0  0  0  0  0  0  0
  1  2  1  0
  2  3  1  0
  3  4  1  0
  4  5  1  0
  5  6  2  0
  5  7  1  0
  7  8  1  0
  8  9  2  0
  9 10  1  0
 10 11  2  0
 11 12  1  0
 12 13  1  0
 13 14  1  0
 13 15  2  0
 11 16  1  0
 16 17  2  0
  3 18  1  0
 18 19  1  0
 19 20  2  0
 19 21  1  0
 21 22  1  0
 22 23  2  0
 23 24  1  0
 24 25  2  0
 25 26  1  0
 26 27  2  0
 27 28  1  0
 28 29  2  0
 28 30  1  0
 30 31  2  0
 31 32  1  0
 32 33  2  0
 33 34  1  0
 34 35  2  0
 17  8  1  0
 27 22  1  0
 35 30  1  0
  1 36  1  0
  1 37  1  0
  1 38  1  0
  2 39  1  0
  2 40  1  0
  4 41  1  0
  4 42  1  0
  7 43  1  0
  9 44  1  0
 10 45  1  0
 12 46  1  0
 14 47  1  0
 14 48  1  0
 14 49  1  0
 16 50  1  0
 17 51  1  0
 18 52  1  0
 18 53  1  0
 21 54  1  0
 23 55  1  0
 24 56  1  0
 25 57  1  0
 26 58  1  0
 31 59  1  0
 32 60  1  0
 33 61  1  0
 34 62  1  0
 35 63  1  0
M  END
$$$$
