
     RDKit          3D

 39 41  0  0  0  0  0  0  0  0999 V2000
   -7.4286   -0.1470   -0.8554 C   0  0  0  0  0  0  0  0  0  0  0  0
   -6.6507    0.8600   -0.2225 O   0  0  0  0  0  0  0  0  0  0  0  0
   -5.2918    0.7311   -0.2984 C   0  0  0  0  0  0  0  0  0  0  0  0
   -4.5976   -0.2327   -1.0280 C   0  0  0  0  0  0  0  0  0  0  0  0
   -3.1969   -0.2525   -1.0160 C   0  0  0  0  0  0  0  0  0  0  0  0
   -2.4745    0.6932   -0.2751 C   0  0  0  0  0  0  0  0  0  0  0  0
   -1.0439    0.6526   -0.2492 N   0  0  0  0  0  0  0  0  0  0  0  0
   -0.1813    1.7494   -0.1411 C   0  0  0  0  0  0  0  0  0  0  0  0
   -0.6191    3.0021   -0.0337 O   0  0  0  0  0  0  0  0  0  0  0  0
    1.1174    1.2961   -0.2466 C   0  0  0  0  0  0  0  0  0  0  0  0
    1.0677   -0.1002   -0.3896 C   0  0  0  0  0  0  0  0  0  0  0  0
    2.1032   -0.9627   -0.5098 N   0  0  0  0  0  0  0  0  0  0  0  0
    3.4029   -0.6171   -0.1207 N   0  0  0  0  0  0  0  0  0  0  0  0
    4.2139   -1.6091    0.4072 C   0  0  0  0  0  0  0  0  0  0  0  0
    3.7819   -2.7181    0.7194 O   0  0  0  0  0  0  0  0  0  0  0  0
    5.6023   -1.2208    0.5368 C   0  0  0  0  0  0  0  0  0  0  0  0
    6.6985   -1.9129    1.0190 C   0  0  0  0  0  0  0  0  0  0  0  0
    7.8088   -1.0419    0.9162 C   0  0  0  0  0  0  0  0  0  0  0  0
    7.3294    0.1261    0.3712 C   0  0  0  0  0  0  0  0  0  0  0  0
    5.9956    0.0312    0.1362 O   0  0  0  0  0  0  0  0  0  0  0  0
   -0.2504   -0.4974   -0.3401 C   0  0  0  0  0  0  0  0  0  0  0  0
   -0.7243   -1.7476   -0.3115 O   0  0  0  0  0  0  0  0  0  0  0  0
   -3.1743    1.6690    0.4416 C   0  0  0  0  0  0  0  0  0  0  0  0
   -4.5731    1.6826    0.4291 C   0  0  0  0  0  0  0  0  0  0  0  0
   -8.4837    0.0771   -0.6642 H   0  0  0  0  0  0  0  0  0  0  0  0
   -7.2153   -1.1338   -0.4303 H   0  0  0  0  0  0  0  0  0  0  0  0
   -7.2776   -0.1399   -1.9404 H   0  0  0  0  0  0  0  0  0  0  0  0
   -5.1133   -0.9734   -1.6312 H   0  0  0  0  0  0  0  0  0  0  0  0
   -2.6917   -0.9860   -1.6423 H   0  0  0  0  0  0  0  0  0  0  0  0
    0.1621    3.5787    0.0424 H   0  0  0  0  0  0  0  0  0  0  0  0
    2.0030    1.9148   -0.2258 H   0  0  0  0  0  0  0  0  0  0  0  0
    1.8974   -1.9607   -0.3623 H   0  0  0  0  0  0  0  0  0  0  0  0
    3.8293    0.1800   -0.5800 H   0  0  0  0  0  0  0  0  0  0  0  0
    6.6818   -2.9249    1.4011 H   0  0  0  0  0  0  0  0  0  0  0  0
    8.8315   -1.2395    1.2019 H   0  0  0  0  0  0  0  0  0  0  0  0
    7.7863    1.0701    0.1040 H   0  0  0  0  0  0  0  0  0  0  0  0
   -1.5568   -1.7429    0.1948 H   0  0  0  0  0  0  0  0  0  0  0  0
   -2.6609    2.4114    1.0472 H   0  0  0  0  0  0  0  0  0  0  0  0
   -5.1071    2.4355    1.0030 H   0  0  0  0  0  0  0  0  0  0  0  0
  1  2  1  0
  2  3  1  0
  3  4  2  0
  4  5  1  0
  5  6  2  0
  6  7  1  0
  7  8  1  0
  8  9  1  0
  8 10  2  0
 10 11  1  0
 11 12  1  0
 12 13  1  0
 13 14  1  0
 14 15  2  0
 14 16  1  0
 16 17  2  0
 17 18  1  0
 18 19  2  0
 19 20  1  0
 11 21  2  0
 21 22  1  0
  6 23  1  0
 23 24  2  0
 24  3  1  0
 21  7  1  0
 20 16  1  0
  1 25  1  0
  1 26  1  0
  1 27  1  0
  4 28  1  0
  5 29  1  0
  9 30  1  0
 10 31  1  0
 12 32  1  0
 13 33  1  0
 17 34  1  0
 18 35  1  0
 19 36  1  0
 22 37  1  0
 23 38  1  0
 24 39  1  0
M  END
$$$$
