
     RDKit          3D

 48 50  0  0  0  0  0  0  0  0999 V2000
   -0.8417    4.9713   -1.9030 C   0  0  0  0  0  0  0  0  0  0  0  0
   -1.8916    3.9356   -1.5507 C   0  0  0  0  0  0  0  0  0  0  0  0
   -1.2161    2.7330   -1.1589 O   0  0  0  0  0  0  0  0  0  0  0  0
   -2.0467    1.7029   -0.8114 C   0  0  0  0  0  0  0  0  0  0  0  0
   -3.2688    1.7930   -0.8273 O   0  0  0  0  0  0  0  0  0  0  0  0
   -1.3275    0.4774   -0.4199 C   0  0  0  0  0  0  0  0  0  0  0  0
    0.0561    0.3169   -0.4636 C   0  0  0  0  0  0  0  0  0  0  0  0
    0.9868    1.2736   -0.8500 N   0  0  0  0  0  0  0  0  0  0  0  0
    2.3559    1.3080   -0.9601 C   0  0  0  0  0  0  0  0  0  0  0  0
    2.9475    2.7853   -1.4864 S   0  0  0  0  0  0  0  0  0  0  0  0
    3.0478    0.1774   -0.6349 N   0  0  0  0  0  0  0  0  0  0  0  0
    4.4153   -0.1850   -0.6290 C   0  0  0  0  0  0  0  0  0  0  0  0
    5.4815    0.6179   -1.0307 C   0  0  0  0  0  0  0  0  0  0  0  0
    6.7987    0.1415   -0.9783 C   0  0  0  0  0  0  0  0  0  0  0  0
    7.0668   -1.1461   -0.5248 C   0  0  0  0  0  0  0  0  0  0  0  0
    6.0165   -1.9619   -0.1229 C   0  0  0  0  0  0  0  0  0  0  0  0
    4.7037   -1.4839   -0.1762 C   0  0  0  0  0  0  0  0  0  0  0  0
    0.5343   -1.2357    0.0155 S   0  0  0  0  0  0  0  0  0  0  0  0
   -1.0595   -1.7518    0.2910 C   0  0  0  0  0  0  0  0  0  0  0  0
   -1.9749   -0.7404    0.0600 C   0  0  0  0  0  0  0  0  0  0  0  0
   -3.4664   -0.9224    0.2400 C   0  0  0  0  0  0  0  0  0  0  0  0
   -3.8897   -2.1229    1.1202 C   0  0  0  0  0  0  0  0  0  0  0  0
   -5.3995   -2.3629    0.9471 C   0  0  0  0  0  0  0  0  0  0  0  0
   -3.6060   -1.8621    2.6092 C   0  0  0  0  0  0  0  0  0  0  0  0
   -3.0390   -3.6666    0.5704 S   0  0  0  0  0  0  0  0  0  0  0  0
   -1.3061   -3.1507    0.7638 C   0  0  0  0  0  0  0  0  0  0  0  0
   -0.2033    4.6116   -2.7166 H   0  0  0  0  0  0  0  0  0  0  0  0
   -1.3084    5.9116   -2.2094 H   0  0  0  0  0  0  0  0  0  0  0  0
   -0.1881    5.1637   -1.0458 H   0  0  0  0  0  0  0  0  0  0  0  0
   -2.5080    4.3002   -0.7215 H   0  0  0  0  0  0  0  0  0  0  0  0
   -2.5233    3.7369   -2.4236 H   0  0  0  0  0  0  0  0  0  0  0  0
    0.5746    2.1679   -1.1149 H   0  0  0  0  0  0  0  0  0  0  0  0
    2.4374   -0.5648   -0.3216 H   0  0  0  0  0  0  0  0  0  0  0  0
    5.3477    1.6253   -1.3988 H   0  0  0  0  0  0  0  0  0  0  0  0
    7.6150    0.7857   -1.2965 H   0  0  0  0  0  0  0  0  0  0  0  0
    8.0900   -1.5100   -0.4864 H   0  0  0  0  0  0  0  0  0  0  0  0
    6.2146   -2.9697    0.2325 H   0  0  0  0  0  0  0  0  0  0  0  0
    3.9064   -2.1491    0.1466 H   0  0  0  0  0  0  0  0  0  0  0  0
   -3.9066   -1.0193   -0.7621 H   0  0  0  0  0  0  0  0  0  0  0  0
   -3.8904   -0.0139    0.6850 H   0  0  0  0  0  0  0  0  0  0  0  0
   -5.9694   -1.4757    1.2483 H   0  0  0  0  0  0  0  0  0  0  0  0
   -5.7527   -3.1987    1.5629 H   0  0  0  0  0  0  0  0  0  0  0  0
   -5.6623   -2.5760   -0.0960 H   0  0  0  0  0  0  0  0  0  0  0  0
   -4.1754   -0.9939    2.9623 H   0  0  0  0  0  0  0  0  0  0  0  0
   -3.9017   -2.7155    3.2309 H   0  0  0  0  0  0  0  0  0  0  0  0
   -2.5516   -1.6499    2.8110 H   0  0  0  0  0  0  0  0  0  0  0  0
   -0.6937   -3.8614    0.1982 H   0  0  0  0  0  0  0  0  0  0  0  0
   -1.0282   -3.2464    1.8190 H   0  0  0  0  0  0  0  0  0  0  0  0
  1  2  1  0
  2  3  1  0
  3  4  1  0
  4  5  2  0
  4  6  1  0
  6  7  2  0
  7  8  1  0
  8  9  1  0
  9 10  2  0
  9 11  1  0
 11 12  1  0
 12 13  2  0
 13 14  1  0
 14 15  2  0
 15 16  1  0
 16 17  2  0
  7 18  1  0
 18 19  1  0
 19 20  2  0
 20 21  1  0
 21 22  1  0
 22 23  1  0
 22 24  1  0
 22 25  1  0
 25 26  1  0
 20  6  1  0
 17 12  1  0
 26 19  1  0
  1 27  1  0
  1 28  1  0
  1 29  1  0
  2 30  1  0
  2 31  1  0
  8 32  1  0
 11 33  1  0
 13 34  1  0
 14 35  1  0
 15 36  1  0
 16 37  1  0
 17 38  1  0
 21 39  1  0
 21 40  1  0
 23 41  1  0
 23 42  1  0
 23 43  1  0
 24 44  1  0
 24 45  1  0
 24 46  1  0
 26 47  1  0
 26 48  1  0
M  END
$$$$
