
     RDKit          3D

 49 52  0  0  0  0  0  0  0  0999 V2000
   -3.9685   -5.2262   -0.9560 C   0  0  0  0  0  0  0  0  0  0  0  0
   -3.3494   -4.4307    0.0467 O   0  0  0  0  0  0  0  0  0  0  0  0
   -2.7463   -3.2756   -0.3693 C   0  0  0  0  0  0  0  0  0  0  0  0
   -2.1430   -2.5326    0.6465 C   0  0  0  0  0  0  0  0  0  0  0  0
   -1.4925   -1.3284    0.3623 C   0  0  0  0  0  0  0  0  0  0  0  0
   -1.4279   -0.8437   -0.9523 C   0  0  0  0  0  0  0  0  0  0  0  0
   -0.7408    0.4835   -1.2861 C   0  0  0  0  0  0  0  0  0  0  0  0
    0.6311    0.5021   -0.7330 N   0  0  0  0  0  0  0  0  0  0  0  0
    0.8480    1.2402    0.2998 C   0  0  0  0  0  0  0  0  0  0  0  0
    2.0255    1.3359    0.9997 N   0  0  0  0  0  0  0  0  0  0  0  0
    3.2605    0.6979    0.7567 C   0  0  0  0  0  0  0  0  0  0  0  0
    3.5799    0.0286   -0.4275 C   0  0  0  0  0  0  0  0  0  0  0  0
    4.8390   -0.5565   -0.6165 C   0  0  0  0  0  0  0  0  0  0  0  0
    5.8164   -0.4825    0.3781 C   0  0  0  0  0  0  0  0  0  0  0  0
    7.1734   -1.0811    0.1596 C   0  0  0  0  0  0  0  0  0  0  0  0
    5.5248    0.2134    1.5521 C   0  0  0  0  0  0  0  0  0  0  0  0
    4.2650    0.7950    1.7354 C   0  0  0  0  0  0  0  0  0  0  0  0
   -0.1235    2.0439    0.8139 N   0  0  0  0  0  0  0  0  0  0  0  0
   -1.2994    2.3346    0.2025 C   0  0  0  0  0  0  0  0  0  0  0  0
   -2.0550    3.2854    0.6650 N   0  0  0  0  0  0  0  0  0  0  0  0
   -3.2057    3.5744   -0.0234 C   0  0  0  0  0  0  0  0  0  0  0  0
   -4.0626    4.6510    0.5785 C   0  0  0  0  0  0  0  0  0  0  0  0
   -3.5567    2.9665   -1.1622 C   0  0  0  0  0  0  0  0  0  0  0  0
   -2.6815    1.9124   -1.6994 C   0  0  0  0  0  0  0  0  0  0  0  0
   -2.9678    1.3879   -2.7722 O   0  0  0  0  0  0  0  0  0  0  0  0
   -1.5850    1.6130   -0.9262 N   0  0  0  0  0  0  0  0  0  0  0  0
   -2.0413   -1.5966   -1.9663 C   0  0  0  0  0  0  0  0  0  0  0  0
   -2.6941   -2.8016   -1.6787 C   0  0  0  0  0  0  0  0  0  0  0  0
   -4.3936   -6.1083   -0.4674 H   0  0  0  0  0  0  0  0  0  0  0  0
   -4.7895   -4.6852   -1.4382 H   0  0  0  0  0  0  0  0  0  0  0  0
   -3.2367   -5.5743   -1.6925 H   0  0  0  0  0  0  0  0  0  0  0  0
   -2.1783   -2.8954    1.6707 H   0  0  0  0  0  0  0  0  0  0  0  0
   -1.0317   -0.7782    1.1776 H   0  0  0  0  0  0  0  0  0  0  0  0
   -0.6125    0.5273   -2.3758 H   0  0  0  0  0  0  0  0  0  0  0  0
    1.9528    1.6783    1.9466 H   0  0  0  0  0  0  0  0  0  0  0  0
    2.8632   -0.0521   -1.2390 H   0  0  0  0  0  0  0  0  0  0  0  0
    5.0445   -1.0690   -1.5538 H   0  0  0  0  0  0  0  0  0  0  0  0
    7.8337   -0.3488   -0.3152 H   0  0  0  0  0  0  0  0  0  0  0  0
    7.6189   -1.3962    1.1091 H   0  0  0  0  0  0  0  0  0  0  0  0
    7.1107   -1.9682   -0.4794 H   0  0  0  0  0  0  0  0  0  0  0  0
    6.2750    0.3102    2.3335 H   0  0  0  0  0  0  0  0  0  0  0  0
    4.0806    1.3294    2.6640 H   0  0  0  0  0  0  0  0  0  0  0  0
    0.1195    2.7076    1.5322 H   0  0  0  0  0  0  0  0  0  0  0  0
   -3.4995    5.5874    0.6519 H   0  0  0  0  0  0  0  0  0  0  0  0
   -4.9608    4.8463   -0.0169 H   0  0  0  0  0  0  0  0  0  0  0  0
   -4.3843    4.3609    1.5842 H   0  0  0  0  0  0  0  0  0  0  0  0
   -4.4549    3.1965   -1.7183 H   0  0  0  0  0  0  0  0  0  0  0  0
   -2.0266   -1.2401   -2.9954 H   0  0  0  0  0  0  0  0  0  0  0  0
   -3.1532   -3.3380   -2.5020 H   0  0  0  0  0  0  0  0  0  0  0  0
  1  2  1  0
  2  3  1  0
  3  4  2  0
  4  5  1  0
  5  6  2  0
  6  7  1  0
  7  8  1  0
  8  9  2  0
  9 10  1  0
 10 11  1  0
 11 12  2  0
 12 13  1  0
 13 14  2  0
 14 15  1  0
 14 16  1  0
 16 17  2  0
  9 18  1  0
 18 19  1  0
 19 20  2  0
 20 21  1  0
 21 22  1  0
 21 23  2  0
 23 24  1  0
 24 25  2  0
 24 26  1  0
  6 27  1  0
 27 28  2  0
 28  3  1  0
 26  7  1  0
 17 11  1  0
 26 19  1  0
  1 29  1  0
  1 30  1  0
  1 31  1  0
  4 32  1  0
  5 33  1  0
  7 34  1  0
 10 35  1  0
 12 36  1  0
 13 37  1  0
 15 38  1  0
 15 39  1  0
 15 40  1  0
 16 41  1  0
 17 42  1  0
 18 43  1  0
 22 44  1  0
 22 45  1  0
 22 46  1  0
 23 47  1  0
 27 48  1  0
 28 49  1  0
M  END
$$$$
