
     RDKit          3D

 52 55  0  0  0  0  0  0  0  0999 V2000
    7.8666   -1.8242   -0.6445 C   0  0  0  0  0  0  0  0  0  0  0  0
    7.2724   -0.5407   -0.4942 O   0  0  0  0  0  0  0  0  0  0  0  0
    5.9295   -0.5093   -0.2421 C   0  0  0  0  0  0  0  0  0  0  0  0
    5.0866   -1.6133   -0.1330 C   0  0  0  0  0  0  0  0  0  0  0  0
    3.7195   -1.4400    0.1286 C   0  0  0  0  0  0  0  0  0  0  0  0
    3.1800   -0.1628    0.2824 C   0  0  0  0  0  0  0  0  0  0  0  0
    1.8203    0.0955    0.5471 N   0  0  0  0  0  0  0  0  0  0  0  0
    0.7829   -0.8244    0.6299 C   0  0  0  0  0  0  0  0  0  0  0  0
    0.8712   -2.0352    0.4521 O   0  0  0  0  0  0  0  0  0  0  0  0
   -0.5689   -0.1526    0.9473 C   0  0  0  0  0  0  0  0  0  0  0  0
   -1.6184   -1.0838    1.2609 O   0  0  0  0  0  0  0  0  0  0  0  0
   -2.3534   -1.5248    0.1121 C   0  0  0  0  0  0  0  0  0  0  0  0
   -3.3547   -2.4609    0.4818 O   0  0  0  0  0  0  0  0  0  0  0  0
   -4.5492   -1.7023    0.6782 C   0  0  0  0  0  0  0  0  0  0  0  0
   -4.8263   -1.5660    2.1712 C   0  0  0  0  0  0  0  0  0  0  0  0
   -5.6942   -2.4196   -0.0259 C   0  0  0  0  0  0  0  0  0  0  0  0
   -4.4139   -0.3910    0.1170 O   0  0  0  0  0  0  0  0  0  0  0  0
   -3.1331   -0.3766   -0.5308 C   0  0  0  0  0  0  0  0  0  0  0  0
   -2.4364    0.9413   -0.2485 C   0  0  0  0  0  0  0  0  0  0  0  0
   -2.5676    1.9605   -1.2423 O   0  0  0  0  0  0  0  0  0  0  0  0
   -1.4054    2.7937   -1.0220 C   0  0  0  0  0  0  0  0  0  0  0  0
   -0.7754    3.1167   -2.3708 C   0  0  0  0  0  0  0  0  0  0  0  0
   -1.8153    4.0609   -0.2818 C   0  0  0  0  0  0  0  0  0  0  0  0
   -0.4460    2.0700   -0.2065 O   0  0  0  0  0  0  0  0  0  0  0  0
   -0.9495    0.7331   -0.2350 C   0  0  0  0  0  0  0  0  0  0  0  0
    4.0303    0.9427    0.1755 C   0  0  0  0  0  0  0  0  0  0  0  0
    5.3927    0.7685   -0.0862 C   0  0  0  0  0  0  0  0  0  0  0  0
    7.4456   -2.3559   -1.5042 H   0  0  0  0  0  0  0  0  0  0  0  0
    7.7694   -2.4141    0.2729 H   0  0  0  0  0  0  0  0  0  0  0  0
    8.9344   -1.6779   -0.8342 H   0  0  0  0  0  0  0  0  0  0  0  0
    5.4538   -2.6284   -0.2434 H   0  0  0  0  0  0  0  0  0  0  0  0
    3.1068   -2.3324    0.2112 H   0  0  0  0  0  0  0  0  0  0  0  0
    1.5686    1.0762    0.6406 H   0  0  0  0  0  0  0  0  0  0  0  0
   -0.4146    0.4519    1.8496 H   0  0  0  0  0  0  0  0  0  0  0  0
   -1.6646   -2.0036   -0.5922 H   0  0  0  0  0  0  0  0  0  0  0  0
   -4.9091   -2.5465    2.6514 H   0  0  0  0  0  0  0  0  0  0  0  0
   -5.7431   -0.9959    2.3548 H   0  0  0  0  0  0  0  0  0  0  0  0
   -4.0112   -1.0294    2.6694 H   0  0  0  0  0  0  0  0  0  0  0  0
   -6.6338   -1.8663    0.0749 H   0  0  0  0  0  0  0  0  0  0  0  0
   -5.4860   -2.5103   -1.0983 H   0  0  0  0  0  0  0  0  0  0  0  0
   -5.8291   -3.4339    0.3640 H   0  0  0  0  0  0  0  0  0  0  0  0
   -3.3094   -0.5509   -1.5978 H   0  0  0  0  0  0  0  0  0  0  0  0
   -2.7965    1.3741    0.6958 H   0  0  0  0  0  0  0  0  0  0  0  0
   -1.4773    3.6520   -3.0188 H   0  0  0  0  0  0  0  0  0  0  0  0
   -0.4910    2.1967   -2.8939 H   0  0  0  0  0  0  0  0  0  0  0  0
    0.1338    3.7149   -2.2513 H   0  0  0  0  0  0  0  0  0  0  0  0
   -0.9515    4.7065   -0.0923 H   0  0  0  0  0  0  0  0  0  0  0  0
   -2.2535    3.8159    0.6922 H   0  0  0  0  0  0  0  0  0  0  0  0
   -2.5690    4.6221   -0.8439 H   0  0  0  0  0  0  0  0  0  0  0  0
   -0.6100    0.2880   -1.1823 H   0  0  0  0  0  0  0  0  0  0  0  0
    3.6515    1.9547    0.2911 H   0  0  0  0  0  0  0  0  0  0  0  0
    6.0414    1.6373   -0.1682 H   0  0  0  0  0  0  0  0  0  0  0  0
  1  2  1  0
  2  3  1  0
  3  4  2  0
  4  5  1  0
  5  6  2  0
  6  7  1  0
  7  8  1  0
  8  9  2  0
  8 10  1  0
 10 11  1  0
 11 12  1  0
 12 13  1  0
 13 14  1  0
 14 15  1  0
 14 16  1  0
 14 17  1  0
 17 18  1  0
 18 19  1  0
 19 20  1  0
 20 21  1  0
 21 22  1  0
 21 23  1  0
 21 24  1  0
 24 25  1  0
  6 26  1  0
 26 27  2  0
 27  3  1  0
 25 10  1  0
 18 12  1  0
 25 19  1  0
  1 28  1  0
  1 29  1  0
  1 30  1  0
  4 31  1  0
  5 32  1  0
  7 33  1  0
 10 34  1  0
 12 35  1  0
 15 36  1  0
 15 37  1  0
 15 38  1  0
 16 39  1  0
 16 40  1  0
 16 41  1  0
 18 42  1  0
 19 43  1  0
 22 44  1  0
 22 45  1  0
 22 46  1  0
 23 47  1  0
 23 48  1  0
 23 49  1  0
 25 50  1  0
 26 51  1  0
 27 52  1  0
M  END
$$$$
