
     RDKit          3D

 46 48  0  0  0  0  0  0  0  0999 V2000
   -2.5146    5.7404   -0.7438 C   0  0  0  0  0  0  0  0  0  0  0  0
   -2.9410    4.2873   -0.6513 C   0  0  0  0  0  0  0  0  0  0  0  0
   -1.9105    3.5080   -0.0283 O   0  0  0  0  0  0  0  0  0  0  0  0
   -0.9637    3.0336   -0.8649 C   0  0  0  0  0  0  0  0  0  0  0  0
   -0.8732    3.1850   -2.0676 O   0  0  0  0  0  0  0  0  0  0  0  0
    0.0414    2.2577   -0.0576 C   0  0  0  0  0  0  0  0  0  0  0  0
    1.3047    2.5714   -0.0018 N   0  0  0  0  0  0  0  0  0  0  0  0
    1.8863    1.6399    0.8203 N   0  0  0  0  0  0  0  0  0  0  0  0
    0.8738    0.9062    1.5795 C   0  0  0  0  0  0  0  0  0  0  0  0
    1.1677   -0.5184    2.0553 C   0  0  0  0  0  0  0  0  0  0  0  0
    0.3955   -1.0757    2.8419 O   0  0  0  0  0  0  0  0  0  0  0  0
    2.3917   -1.2524    1.6295 C   0  0  0  0  0  0  0  0  0  0  0  0
    2.9624   -2.1516    2.5421 C   0  0  0  0  0  0  0  0  0  0  0  0
    4.1042   -2.8782    2.1993 C   0  0  0  0  0  0  0  0  0  0  0  0
    4.6764   -2.7195    0.9390 C   0  0  0  0  0  0  0  0  0  0  0  0
    4.1038   -1.8415    0.0199 C   0  0  0  0  0  0  0  0  0  0  0  0
    2.9608   -1.1129    0.3607 C   0  0  0  0  0  0  0  0  0  0  0  0
   -0.4004    1.0557    0.7308 C   0  0  0  0  0  0  0  0  0  0  0  0
   -0.7855   -0.1238   -0.1419 C   0  0  0  0  0  0  0  0  0  0  0  0
   -1.7071   -1.0606    0.3511 C   0  0  0  0  0  0  0  0  0  0  0  0
   -2.0807   -2.1774   -0.4058 C   0  0  0  0  0  0  0  0  0  0  0  0
   -1.5391   -2.3782   -1.6730 C   0  0  0  0  0  0  0  0  0  0  0  0
   -1.8156   -3.4209   -2.5127 O   0  0  0  0  0  0  0  0  0  0  0  0
   -2.7170   -4.4099   -2.0321 C   0  0  0  0  0  0  0  0  0  0  0  0
   -0.6214   -1.4533   -2.1711 C   0  0  0  0  0  0  0  0  0  0  0  0
   -0.2428   -0.3397   -1.4158 C   0  0  0  0  0  0  0  0  0  0  0  0
   -3.3159    6.3537   -1.1656 H   0  0  0  0  0  0  0  0  0  0  0  0
   -1.6239    5.8494   -1.3707 H   0  0  0  0  0  0  0  0  0  0  0  0
   -2.2564    6.1289    0.2468 H   0  0  0  0  0  0  0  0  0  0  0  0
   -3.2062    3.8843   -1.6357 H   0  0  0  0  0  0  0  0  0  0  0  0
   -3.8314    4.2044   -0.0195 H   0  0  0  0  0  0  0  0  0  0  0  0
    2.7600    1.9389    1.2566 H   0  0  0  0  0  0  0  0  0  0  0  0
    0.7607    1.4997    2.4989 H   0  0  0  0  0  0  0  0  0  0  0  0
    2.5171   -2.2919    3.5253 H   0  0  0  0  0  0  0  0  0  0  0  0
    4.5415   -3.5719    2.9130 H   0  0  0  0  0  0  0  0  0  0  0  0
    5.5630   -3.2877    0.6684 H   0  0  0  0  0  0  0  0  0  0  0  0
    4.5418   -1.7290   -0.9692 H   0  0  0  0  0  0  0  0  0  0  0  0
    2.5270   -0.4587   -0.3891 H   0  0  0  0  0  0  0  0  0  0  0  0
   -1.2482    1.3367    1.3670 H   0  0  0  0  0  0  0  0  0  0  0  0
   -2.1331   -0.9420    1.3469 H   0  0  0  0  0  0  0  0  0  0  0  0
   -2.7911   -2.8717    0.0301 H   0  0  0  0  0  0  0  0  0  0  0  0
   -3.7095   -3.9843   -1.8509 H   0  0  0  0  0  0  0  0  0  0  0  0
   -2.3255   -4.8987   -1.1336 H   0  0  0  0  0  0  0  0  0  0  0  0
   -2.8196   -5.1743   -2.8084 H   0  0  0  0  0  0  0  0  0  0  0  0
   -0.1917   -1.6024   -3.1591 H   0  0  0  0  0  0  0  0  0  0  0  0
    0.4856    0.3452   -1.8477 H   0  0  0  0  0  0  0  0  0  0  0  0
  1  2  1  0
  2  3  1  0
  3  4  1  0
  4  5  2  0
  4  6  1  0
  6  7  2  0
  7  8  1  0
  8  9  1  0
  9 10  1  0
 10 11  2  0
 10 12  1  0
 12 13  2  0
 13 14  1  0
 14 15  2  0
 15 16  1  0
 16 17  2  0
  9 18  1  0
 18 19  1  0
 19 20  2  0
 20 21  1  0
 21 22  2  0
 22 23  1  0
 23 24  1  0
 22 25  1  0
 25 26  2  0
 18  6  1  0
 26 19  1  0
 17 12  1  0
  1 27  1  0
  1 28  1  0
  1 29  1  0
  2 30  1  0
  2 31  1  0
  8 32  1  0
  9 33  1  0
 13 34  1  0
 14 35  1  0
 15 36  1  0
 16 37  1  0
 17 38  1  0
 18 39  1  0
 20 40  1  0
 21 41  1  0
 24 42  1  0
 24 43  1  0
 24 44  1  0
 25 45  1  0
 26 46  1  0
M  END
$$$$
