
     RDKit          3D

 43 45  0  0  0  0  0  0  0  0999 V2000
   -4.4494    1.9457    1.7689 C   0  0  0  0  0  0  0  0  0  0  0  0
   -4.7757    0.6032    1.1815 C   0  0  0  0  0  0  0  0  0  0  0  0
   -6.1148    0.2520    0.9661 C   0  0  0  0  0  0  0  0  0  0  0  0
   -6.4448   -0.9912    0.4260 C   0  0  0  0  0  0  0  0  0  0  0  0
   -5.4411   -1.9037    0.1015 C   0  0  0  0  0  0  0  0  0  0  0  0
   -4.0940   -1.5790    0.3029 C   0  0  0  0  0  0  0  0  0  0  0  0
   -3.0243   -2.5738   -0.0478 C   0  0  0  0  0  0  0  0  0  0  0  0
   -3.7744   -0.3048    0.8025 C   0  0  0  0  0  0  0  0  0  0  0  0
   -2.4538    0.0257    0.9811 O   0  0  0  0  0  0  0  0  0  0  0  0
   -1.9417    0.6775   -0.1878 C   0  0  0  0  0  0  0  0  0  0  0  0
   -0.4692    0.5389   -0.1334 C   0  0  0  0  0  0  0  0  0  0  0  0
    0.4953    0.8709    0.7845 C   0  0  0  0  0  0  0  0  0  0  0  0
    1.7234    0.4473    0.2027 C   0  0  0  0  0  0  0  0  0  0  0  0
    3.0472    0.5493    0.8426 C   0  0  0  0  0  0  0  0  0  0  0  0
    3.1104    0.7852    2.0521 O   0  0  0  0  0  0  0  0  0  0  0  0
    4.2289    0.3815    0.1044 N   0  0  0  0  0  0  0  0  0  0  0  0
    4.3046    0.1373   -1.3380 C   0  0  0  0  0  0  0  0  0  0  0  0
    5.6620    0.5348   -1.9143 C   0  0  0  0  0  0  0  0  0  0  0  0
    6.7478   -0.0936   -1.2053 N   0  0  0  0  0  0  0  0  0  0  0  0
    6.7625   -0.1390    0.1634 C   0  0  0  0  0  0  0  0  0  0  0  0
    7.8082   -0.3960    0.7562 O   0  0  0  0  0  0  0  0  0  0  0  0
    5.4412    0.1346    0.8972 C   0  0  0  0  0  0  0  0  0  0  0  0
    1.4892   -0.1138   -0.9964 N   0  0  0  0  0  0  0  0  0  0  0  0
    0.1271   -0.0472   -1.2033 O   0  0  0  0  0  0  0  0  0  0  0  0
   -3.5715    1.8898    2.4211 H   0  0  0  0  0  0  0  0  0  0  0  0
   -4.2583    2.6696    0.9716 H   0  0  0  0  0  0  0  0  0  0  0  0
   -5.2768    2.3167    2.3831 H   0  0  0  0  0  0  0  0  0  0  0  0
   -6.9134    0.9437    1.2267 H   0  0  0  0  0  0  0  0  0  0  0  0
   -7.4882   -1.2540    0.2688 H   0  0  0  0  0  0  0  0  0  0  0  0
   -5.7185   -2.8739   -0.3042 H   0  0  0  0  0  0  0  0  0  0  0  0
   -2.5556   -2.3045   -0.9993 H   0  0  0  0  0  0  0  0  0  0  0  0
   -3.4376   -3.5835   -0.1433 H   0  0  0  0  0  0  0  0  0  0  0  0
   -2.2591   -2.6123    0.7345 H   0  0  0  0  0  0  0  0  0  0  0  0
   -2.3314    0.2335   -1.1130 H   0  0  0  0  0  0  0  0  0  0  0  0
   -2.2106    1.7392   -0.1631 H   0  0  0  0  0  0  0  0  0  0  0  0
    0.3504    1.3364    1.7487 H   0  0  0  0  0  0  0  0  0  0  0  0
    4.1197   -0.9313   -1.4973 H   0  0  0  0  0  0  0  0  0  0  0  0
    3.5404    0.7186   -1.8590 H   0  0  0  0  0  0  0  0  0  0  0  0
    5.7342    0.2506   -2.9689 H   0  0  0  0  0  0  0  0  0  0  0  0
    5.8054    1.6181   -1.8327 H   0  0  0  0  0  0  0  0  0  0  0  0
    7.6625   -0.1706   -1.6348 H   0  0  0  0  0  0  0  0  0  0  0  0
    5.6013    1.0073    1.5416 H   0  0  0  0  0  0  0  0  0  0  0  0
    5.2426   -0.7354    1.5353 H   0  0  0  0  0  0  0  0  0  0  0  0
  1  2  1  0
  2  3  2  0
  3  4  1  0
  4  5  2  0
  5  6  1  0
  6  7  1  0
  6  8  2  0
  8  9  1  0
  9 10  1  0
 10 11  1  0
 11 12  2  0
 12 13  1  0
 13 14  1  0
 14 15  2  0
 14 16  1  0
 16 17  1  0
 17 18  1  0
 18 19  1  0
 19 20  1  0
 20 21  2  0
 20 22  1  0
 13 23  2  0
 23 24  1  0
  8  2  1  0
 24 11  1  0
 22 16  1  0
  1 25  1  0
  1 26  1  0
  1 27  1  0
  3 28  1  0
  4 29  1  0
  5 30  1  0
  7 31  1  0
  7 32  1  0
  7 33  1  0
 10 34  1  0
 10 35  1  0
 12 36  1  0
 17 37  1  0
 17 38  1  0
 18 39  1  0
 18 40  1  0
 19 41  1  0
 22 42  1  0
 22 43  1  0
M  END
$$$$
