
     RDKit          3D

 54 57  0  0  0  0  0  0  0  0999 V2000
   -4.7754   -4.9255   -1.2609 C   0  0  0  0  0  0  0  0  0  0  0  0
   -3.9576   -3.9464   -1.8888 O   0  0  0  0  0  0  0  0  0  0  0  0
   -3.8290   -2.7454   -1.2478 C   0  0  0  0  0  0  0  0  0  0  0  0
   -3.0123   -1.8198   -1.9007 C   0  0  0  0  0  0  0  0  0  0  0  0
   -2.7937   -0.5512   -1.3562 C   0  0  0  0  0  0  0  0  0  0  0  0
   -3.3925   -0.1886   -0.1448 C   0  0  0  0  0  0  0  0  0  0  0  0
   -3.1512    1.1382    0.4357 C   0  0  0  0  0  0  0  0  0  0  0  0
   -4.4786    2.2062    0.6007 S   0  0  0  0  0  0  0  0  0  0  0  0
   -3.5091    3.4578    1.2649 C   0  0  0  0  0  0  0  0  0  0  0  0
   -3.9450    4.7328    1.6787 C   0  0  0  0  0  0  0  0  0  0  0  0
   -3.0149    5.6303    2.2063 C   0  0  0  0  0  0  0  0  0  0  0  0
   -1.6807    5.2717    2.3239 C   0  0  0  0  0  0  0  0  0  0  0  0
   -1.2534    4.0064    1.9108 C   0  0  0  0  0  0  0  0  0  0  0  0
   -2.1714    3.0710    1.3640 C   0  0  0  0  0  0  0  0  0  0  0  0
   -1.9724    1.7236    0.8733 C   0  0  0  0  0  0  0  0  0  0  0  0
   -0.6967    1.0155    0.8280 C   0  0  0  0  0  0  0  0  0  0  0  0
    0.3081    1.4416   -0.0478 C   0  0  0  0  0  0  0  0  0  0  0  0
    1.5359    0.7714   -0.0978 C   0  0  0  0  0  0  0  0  0  0  0  0
    1.7682   -0.3278    0.7297 C   0  0  0  0  0  0  0  0  0  0  0  0
    2.9165   -1.0683    0.7814 O   0  0  0  0  0  0  0  0  0  0  0  0
    3.9644   -0.7126   -0.1263 C   0  0  0  0  0  0  0  0  0  0  0  0
    5.1339   -1.6898    0.0904 C   0  0  0  0  0  0  0  0  0  0  0  0
    6.3357   -1.5169   -0.7424 N   0  0  0  0  0  0  0  0  0  0  0  0
    6.0698   -1.7253   -2.1626 C   0  0  0  0  0  0  0  0  0  0  0  0
    7.0001   -0.2377   -0.5126 C   0  0  0  0  0  0  0  0  0  0  0  0
    0.7653   -0.7473    1.6077 C   0  0  0  0  0  0  0  0  0  0  0  0
   -0.4616   -0.0815    1.6607 C   0  0  0  0  0  0  0  0  0  0  0  0
   -4.2101   -1.1206    0.5084 C   0  0  0  0  0  0  0  0  0  0  0  0
   -4.4283   -2.3909   -0.0394 C   0  0  0  0  0  0  0  0  0  0  0  0
   -4.7723   -5.8188   -1.8929 H   0  0  0  0  0  0  0  0  0  0  0  0
   -5.8113   -4.5803   -1.1777 H   0  0  0  0  0  0  0  0  0  0  0  0
   -4.3724   -5.2084   -0.2829 H   0  0  0  0  0  0  0  0  0  0  0  0
   -2.5400   -2.0885   -2.8423 H   0  0  0  0  0  0  0  0  0  0  0  0
   -2.1538    0.1495   -1.8866 H   0  0  0  0  0  0  0  0  0  0  0  0
   -4.9907    5.0142    1.5909 H   0  0  0  0  0  0  0  0  0  0  0  0
   -3.3425    6.6155    2.5295 H   0  0  0  0  0  0  0  0  0  0  0  0
   -0.9626    5.9737    2.7404 H   0  0  0  0  0  0  0  0  0  0  0  0
   -0.2047    3.7377    2.0159 H   0  0  0  0  0  0  0  0  0  0  0  0
    0.1397    2.2947   -0.7015 H   0  0  0  0  0  0  0  0  0  0  0  0
    2.2848    1.1343   -0.7933 H   0  0  0  0  0  0  0  0  0  0  0  0
    4.2931    0.3119    0.0806 H   0  0  0  0  0  0  0  0  0  0  0  0
    3.5989   -0.7926   -1.1561 H   0  0  0  0  0  0  0  0  0  0  0  0
    5.4293   -1.6507    1.1479 H   0  0  0  0  0  0  0  0  0  0  0  0
    4.7601   -2.7149   -0.0380 H   0  0  0  0  0  0  0  0  0  0  0  0
    5.4282   -0.9470   -2.5895 H   0  0  0  0  0  0  0  0  0  0  0  0
    7.0088   -1.7359   -2.7275 H   0  0  0  0  0  0  0  0  0  0  0  0
    5.5939   -2.6978   -2.3298 H   0  0  0  0  0  0  0  0  0  0  0  0
    7.9632   -0.2104   -1.0347 H   0  0  0  0  0  0  0  0  0  0  0  0
    7.2182   -0.0993    0.5521 H   0  0  0  0  0  0  0  0  0  0  0  0
    6.4048    0.6142   -0.8584 H   0  0  0  0  0  0  0  0  0  0  0  0
    0.9397   -1.6029    2.2556 H   0  0  0  0  0  0  0  0  0  0  0  0
   -1.2263   -0.4265    2.3521 H   0  0  0  0  0  0  0  0  0  0  0  0
   -4.6811   -0.8665    1.4557 H   0  0  0  0  0  0  0  0  0  0  0  0
   -5.0693   -3.0760    0.5048 H   0  0  0  0  0  0  0  0  0  0  0  0
  1  2  1  0
  2  3  1  0
  3  4  2  0
  4  5  1  0
  5  6  2  0
  6  7  1  0
  7  8  1  0
  8  9  1  0
  9 10  2  0
 10 11  1  0
 11 12  2  0
 12 13  1  0
 13 14  2  0
 14 15  1  0
 15 16  1  0
 16 17  2  0
 17 18  1  0
 18 19  2  0
 19 20  1  0
 20 21  1  0
 21 22  1  0
 22 23  1  0
 23 24  1  0
 23 25  1  0
 19 26  1  0
 26 27  2  0
  6 28  1  0
 28 29  2  0
 29  3  1  0
 15  7  2  0
 27 16  1  0
 14  9  1  0
  1 30  1  0
  1 31  1  0
  1 32  1  0
  4 33  1  0
  5 34  1  0
 10 35  1  0
 11 36  1  0
 12 37  1  0
 13 38  1  0
 17 39  1  0
 18 40  1  0
 21 41  1  0
 21 42  1  0
 22 43  1  0
 22 44  1  0
 24 45  1  0
 24 46  1  0
 24 47  1  0
 25 48  1  0
 25 49  1  0
 25 50  1  0
 26 51  1  0
 27 52  1  0
 28 53  1  0
 29 54  1  0
M  END
$$$$
