
     RDKit          3D

 55 58  0  0  0  0  0  0  0  0999 V2000
    7.5864    1.1320    0.7383 C   0  0  0  0  0  0  0  0  0  0  0  0
    6.2253    1.2753    0.3512 O   0  0  0  0  0  0  0  0  0  0  0  0
    5.2906    0.5582    1.0505 C   0  0  0  0  0  0  0  0  0  0  0  0
    5.5826   -0.3083    2.1099 C   0  0  0  0  0  0  0  0  0  0  0  0
    4.5622   -1.0148    2.7525 C   0  0  0  0  0  0  0  0  0  0  0  0
    3.2421   -0.8669    2.3404 C   0  0  0  0  0  0  0  0  0  0  0  0
    2.9392   -0.0053    1.2888 C   0  0  0  0  0  0  0  0  0  0  0  0
    3.9544    0.7241    0.6422 C   0  0  0  0  0  0  0  0  0  0  0  0
    3.5774    1.6301   -0.5064 C   0  0  0  0  0  0  0  0  0  0  0  0
    3.4187    0.8619   -1.7356 N   0  0  0  0  0  0  0  0  0  0  0  0
    2.3730    1.4166   -2.9072 S   0  0  0  0  0  6  0  0  0  0  0  0
    2.6480    0.6631   -4.1096 O   0  0  0  0  0  0  0  0  0  0  0  0
    2.4005    2.8625   -2.8873 O   0  0  0  0  0  0  0  0  0  0  0  0
    0.8065    0.8651   -2.2786 C   0  0  0  0  0  0  0  0  0  0  0  0
    0.5565   -0.5147   -2.1913 C   0  0  0  0  0  0  0  0  0  0  0  0
   -0.6619   -0.9777   -1.6823 C   0  0  0  0  0  0  0  0  0  0  0  0
   -1.6077   -0.0521   -1.2671 C   0  0  0  0  0  0  0  0  0  0  0  0
   -1.3514    1.3184   -1.3737 C   0  0  0  0  0  0  0  0  0  0  0  0
   -0.1527    1.7995   -1.8811 C   0  0  0  0  0  0  0  0  0  0  0  0
   -2.5394    2.1242   -0.9572 C   0  0  0  0  0  0  0  0  0  0  0  0
   -3.4318    1.0530   -0.2934 C   0  0  0  0  0  0  0  0  0  0  0  0
   -3.4016    1.2026    1.2311 C   0  0  0  0  0  0  0  0  0  0  0  0
   -2.8927   -0.2666   -0.7165 N   0  0  0  0  0  0  0  0  0  0  0  0
   -3.5027   -1.5124   -0.5659 C   0  0  0  0  0  0  0  0  0  0  0  0
   -2.9363   -2.5719   -0.8695 O   0  0  0  0  0  0  0  0  0  0  0  0
   -4.9580   -1.5400   -0.0052 C   0  0  0  0  0  0  0  0  0  0  0  0
   -5.1819   -2.3163    1.3244 C   0  0  0  0  0  0  0  0  0  0  0  0
   -6.5343   -2.7817    0.7546 C   0  0  0  0  0  0  0  0  0  0  0  0
   -5.9414   -2.5619   -0.6492 C   0  0  0  0  0  0  0  0  0  0  0  0
    7.9288    0.1009    0.6023 H   0  0  0  0  0  0  0  0  0  0  0  0
    7.7416    1.4701    1.7680 H   0  0  0  0  0  0  0  0  0  0  0  0
    8.1882    1.7707    0.0847 H   0  0  0  0  0  0  0  0  0  0  0  0
    6.5977   -0.4633    2.4601 H   0  0  0  0  0  0  0  0  0  0  0  0
    4.8018   -1.6880    3.5719 H   0  0  0  0  0  0  0  0  0  0  0  0
    2.4500   -1.4253    2.8326 H   0  0  0  0  0  0  0  0  0  0  0  0
    1.9044    0.0932    0.9655 H   0  0  0  0  0  0  0  0  0  0  0  0
    4.3310    2.4095   -0.6601 H   0  0  0  0  0  0  0  0  0  0  0  0
    2.6485    2.1486   -0.2412 H   0  0  0  0  0  0  0  0  0  0  0  0
    4.2247    0.3454   -2.0811 H   0  0  0  0  0  0  0  0  0  0  0  0
    1.3085   -1.2308   -2.5172 H   0  0  0  0  0  0  0  0  0  0  0  0
   -0.8350   -2.0468   -1.6200 H   0  0  0  0  0  0  0  0  0  0  0  0
    0.0264    2.8670   -1.9717 H   0  0  0  0  0  0  0  0  0  0  0  0
   -2.2730    2.9424   -0.2815 H   0  0  0  0  0  0  0  0  0  0  0  0
   -3.0299    2.5323   -1.8480 H   0  0  0  0  0  0  0  0  0  0  0  0
   -4.4613    1.1631   -0.6502 H   0  0  0  0  0  0  0  0  0  0  0  0
   -3.7760    2.1877    1.5285 H   0  0  0  0  0  0  0  0  0  0  0  0
   -4.0212    0.4493    1.7239 H   0  0  0  0  0  0  0  0  0  0  0  0
   -2.3841    1.0927    1.6226 H   0  0  0  0  0  0  0  0  0  0  0  0
   -5.4381   -0.5558    0.0329 H   0  0  0  0  0  0  0  0  0  0  0  0
   -4.4709   -3.1324    1.4971 H   0  0  0  0  0  0  0  0  0  0  0  0
   -5.2423   -1.7043    2.2281 H   0  0  0  0  0  0  0  0  0  0  0  0
   -7.3668   -2.1092    0.9915 H   0  0  0  0  0  0  0  0  0  0  0  0
   -6.8244   -3.8074    0.9941 H   0  0  0  0  0  0  0  0  0  0  0  0
   -6.6325   -2.1499   -1.3894 H   0  0  0  0  0  0  0  0  0  0  0  0
   -5.4660   -3.4552   -1.0697 H   0  0  0  0  0  0  0  0  0  0  0  0
  1  2  1  0
  2  3  1  0
  3  4  2  0
  4  5  1  0
  5  6  2  0
  6  7  1  0
  7  8  2  0
  8  9  1  0
  9 10  1  0
 10 11  1  0
 11 12  2  0
 11 13  2  0
 11 14  1  0
 14 15  2  0
 15 16  1  0
 16 17  2  0
 17 18  1  0
 18 19  2  0
 18 20  1  0
 20 21  1  0
 21 22  1  0
 21 23  1  0
 23 24  1  0
 24 25  2  0
 24 26  1  0
 26 27  1  0
 27 28  1  0
 28 29  1  0
  8  3  1  0
 19 14  1  0
 29 26  1  0
 23 17  1  0
  1 30  1  0
  1 31  1  0
  1 32  1  0
  4 33  1  0
  5 34  1  0
  6 35  1  0
  7 36  1  0
  9 37  1  0
  9 38  1  0
 10 39  1  0
 15 40  1  0
 16 41  1  0
 19 42  1  0
 20 43  1  0
 20 44  1  0
 21 45  1  0
 22 46  1  0
 22 47  1  0
 22 48  1  0
 26 49  1  0
 27 50  1  0
 27 51  1  0
 28 52  1  0
 28 53  1  0
 29 54  1  0
 29 55  1  0
M  END
$$$$
