
     RDKit          3D

 63 67  0  0  0  0  0  0  0  0999 V2000
   -0.1484   -5.5698    3.1504 Cl  0  0  0  0  0  0  0  0  0  0  0  0
   -0.9429   -4.0881    2.7915 C   0  0  0  0  0  0  0  0  0  0  0  0
   -1.5598   -3.9132    1.5567 C   0  0  0  0  0  0  0  0  0  0  0  0
   -2.1846   -2.6988    1.2552 C   0  0  0  0  0  0  0  0  0  0  0  0
   -2.2084   -1.6471    2.1916 C   0  0  0  0  0  0  0  0  0  0  0  0
   -2.8475   -0.3211    1.7946 C   0  0  0  0  0  0  0  0  0  0  0  0
   -3.4026    0.5168    2.9392 C   0  0  0  0  0  0  0  0  0  0  0  0
   -2.6999    1.5936    3.5095 C   0  0  0  0  0  0  0  0  0  0  0  0
   -3.2463    2.3211    4.5719 C   0  0  0  0  0  0  0  0  0  0  0  0
   -4.4968    1.9791    5.0805 C   0  0  0  0  0  0  0  0  0  0  0  0
   -5.1642    2.8776    6.3837 Cl  0  0  0  0  0  0  0  0  0  0  0  0
   -5.2060    0.9125    4.5377 C   0  0  0  0  0  0  0  0  0  0  0  0
   -4.6623    0.1840    3.4756 C   0  0  0  0  0  0  0  0  0  0  0  0
   -1.8973    0.4681    0.9818 N   0  0  0  0  0  0  0  0  0  0  0  0
   -2.2606    1.4351    0.0470 C   0  0  0  0  0  0  0  0  0  0  0  0
   -1.1068    1.8907   -0.5241 C   0  0  0  0  0  0  0  0  0  0  0  0
   -0.0683    1.1862    0.0642 N   0  0  0  0  0  4  0  0  0  0  0  0
    1.3580    1.3098   -0.2885 C   0  0  0  0  0  0  0  0  0  0  0  0
    1.7791    0.5158   -1.5540 C   0  0  0  0  0  0  0  0  0  0  0  0
    1.0389    1.0180   -2.6693 O   0  0  0  0  0  0  0  0  0  0  0  0
    1.6467    0.8087   -3.9460 C   0  0  0  0  0  0  0  0  0  0  0  0
    2.7746    1.7797   -4.2015 C   0  0  0  0  0  0  0  0  0  0  0  0
    4.0581    1.2720   -4.4728 C   0  0  0  0  0  0  0  0  0  0  0  0
    5.1273    2.1349   -4.7258 C   0  0  0  0  0  0  0  0  0  0  0  0
    4.9234    3.5124   -4.7156 C   0  0  0  0  0  0  0  0  0  0  0  0
    6.2411    4.5727   -5.0263 Cl  0  0  0  0  0  0  0  0  0  0  0  0
    3.6611    4.0369   -4.4552 C   0  0  0  0  0  0  0  0  0  0  0  0
    2.5906    3.1743   -4.2004 C   0  0  0  0  0  0  0  0  0  0  0  0
    1.0497    3.8913   -3.8818 Cl  0  0  0  0  0  0  0  0  0  0  0  0
    1.6725   -0.9925   -1.3455 C   0  0  0  0  0  0  0  0  0  0  0  0
    2.7977   -1.6380   -0.7859 C   0  0  0  0  0  0  0  0  0  0  0  0
    2.7992   -3.0129   -0.5387 C   0  0  0  0  0  0  0  0  0  0  0  0
    1.6782   -3.7703   -0.8515 C   0  0  0  0  0  0  0  0  0  0  0  0
    1.6675   -5.4593   -0.5384 Cl  0  0  0  0  0  0  0  0  0  0  0  0
    0.5580   -3.1640   -1.4073 C   0  0  0  0  0  0  0  0  0  0  0  0
    0.5472   -1.7843   -1.6461 C   0  0  0  0  0  0  0  0  0  0  0  0
   -0.9217   -1.1483   -2.2947 Cl  0  0  0  0  0  0  0  0  0  0  0  0
   -0.5616    0.3333    0.9735 C   0  0  0  0  0  0  0  0  0  0  0  0
   -1.5866   -1.8499    3.4375 C   0  0  0  0  0  0  0  0  0  0  0  0
   -0.9578   -3.0645    3.7334 C   0  0  0  0  0  0  0  0  0  0  0  0
   -1.5568   -4.7201    0.8259 H   0  0  0  0  0  0  0  0  0  0  0  0
   -2.6537   -2.5845    0.2785 H   0  0  0  0  0  0  0  0  0  0  0  0
   -3.6934   -0.5458    1.1270 H   0  0  0  0  0  0  0  0  0  0  0  0
   -1.7192    1.8858    3.1410 H   0  0  0  0  0  0  0  0  0  0  0  0
   -2.6932    3.1533    5.0019 H   0  0  0  0  0  0  0  0  0  0  0  0
   -6.1810    0.6426    4.9370 H   0  0  0  0  0  0  0  0  0  0  0  0
   -5.2359   -0.6523    3.0757 H   0  0  0  0  0  0  0  0  0  0  0  0
   -3.3027    1.6703   -0.0939 H   0  0  0  0  0  0  0  0  0  0  0  0
   -0.8857    2.6120   -1.2930 H   0  0  0  0  0  0  0  0  0  0  0  0
    1.9469    0.9949    0.5814 H   0  0  0  0  0  0  0  0  0  0  0  0
    1.5499    2.3783   -0.4479 H   0  0  0  0  0  0  0  0  0  0  0  0
    2.8374    0.7593   -1.7169 H   0  0  0  0  0  0  0  0  0  0  0  0
    0.8759    0.9586   -4.7112 H   0  0  0  0  0  0  0  0  0  0  0  0
    1.9761   -0.2335   -4.0398 H   0  0  0  0  0  0  0  0  0  0  0  0
    4.2381    0.1976   -4.5008 H   0  0  0  0  0  0  0  0  0  0  0  0
    6.1129    1.7265   -4.9400 H   0  0  0  0  0  0  0  0  0  0  0  0
    3.5110    5.1144   -4.4584 H   0  0  0  0  0  0  0  0  0  0  0  0
    3.7001   -1.0763   -0.5417 H   0  0  0  0  0  0  0  0  0  0  0  0
    3.6798   -3.4875   -0.1094 H   0  0  0  0  0  0  0  0  0  0  0  0
   -0.3106   -3.7711   -1.6550 H   0  0  0  0  0  0  0  0  0  0  0  0
    0.0309   -0.3429    1.5796 H   0  0  0  0  0  0  0  0  0  0  0  0
   -1.5813   -1.0749    4.2037 H   0  0  0  0  0  0  0  0  0  0  0  0
   -0.4841   -3.2072    4.7034 H   0  0  0  0  0  0  0  0  0  0  0  0
  1  2  1  0
  2  3  2  0
  3  4  1  0
  4  5  2  0
  5  6  1  0
  6  7  1  0
  7  8  2  0
  8  9  1  0
  9 10  2  0
 10 11  1  0
 10 12  1  0
 12 13  2  0
  6 14  1  0
 14 15  1  0
 15 16  2  0
 16 17  1  0
 17 18  1  0
 18 19  1  0
 19 20  1  0
 20 21  1  0
 21 22  1  0
 22 23  2  0
 23 24  1  0
 24 25  2  0
 25 26  1  0
 25 27  1  0
 27 28  2  0
 28 29  1  0
 19 30  1  0
 30 31  2  0
 31 32  1  0
 32 33  2  0
 33 34  1  0
 33 35  1  0
 35 36  2  0
 36 37  1  0
 17 38  2  0
  5 39  1  0
 39 40  2  0
 40  2  1  0
 13  7  1  0
 38 14  1  0
 28 22  1  0
 36 30  1  0
  3 41  1  0
  4 42  1  0
  6 43  1  0
  8 44  1  0
  9 45  1  0
 12 46  1  0
 13 47  1  0
 15 48  1  0
 16 49  1  0
 18 50  1  0
 18 51  1  0
 19 52  1  0
 21 53  1  0
 21 54  1  0
 23 55  1  0
 24 56  1  0
 27 57  1  0
 31 58  1  0
 32 59  1  0
 35 60  1  0
 38 61  1  0
 39 62  1  0
 40 63  1  0
M  CHG  1  17   1
M  END
$$$$
