
     RDKit          3D

 53 56  0  0  0  0  0  0  0  0999 V2000
    6.4204    3.6944    3.3196 C   0  0  0  0  0  0  0  0  0  0  0  0
    5.5266    2.6226    3.0487 O   0  0  0  0  0  0  0  0  0  0  0  0
    5.2756    2.3444    1.7329 C   0  0  0  0  0  0  0  0  0  0  0  0
    5.8674    2.9713    0.6355 C   0  0  0  0  0  0  0  0  0  0  0  0
    5.5173    2.5899   -0.6624 C   0  0  0  0  0  0  0  0  0  0  0  0
    4.5632    1.5903   -0.8667 C   0  0  0  0  0  0  0  0  0  0  0  0
    4.2941    1.2052   -2.1556 O   0  0  0  0  0  0  0  0  0  0  0  0
    3.3272    2.0823   -2.7392 C   0  0  0  0  0  0  0  0  0  0  0  0
    3.9761    0.9331    0.2229 C   0  0  0  0  0  0  0  0  0  0  0  0
    2.9986   -0.1267    0.0369 C   0  0  0  0  0  0  0  0  0  0  0  0
    3.1263   -1.3835    0.5992 C   0  0  0  0  0  0  0  0  0  0  0  0
    1.7881   -2.3570    0.1425 S   0  0  0  0  0  0  0  0  0  0  0  0
    1.1514   -1.0340   -0.7282 C   0  0  0  0  0  0  0  0  0  0  0  0
   -0.0371   -1.2934   -1.3453 N   0  0  0  0  0  0  0  0  0  0  0  0
   -0.7665   -0.3192   -1.9906 C   0  0  0  0  0  0  0  0  0  0  0  0
   -0.4841    0.8693   -2.1196 O   0  0  0  0  0  0  0  0  0  0  0  0
   -2.0577   -0.8500   -2.5664 C   0  0  0  0  0  0  0  0  0  0  0  0
   -3.0143   -1.1121   -1.5081 N   0  0  0  0  0  0  0  0  0  0  0  0
   -3.8945   -0.2010   -0.9680 C   0  0  0  0  0  0  0  0  0  0  0  0
   -3.9173    1.0878   -1.2925 O   0  0  0  0  0  0  0  0  0  0  0  0
   -4.6985   -0.8899   -0.0852 C   0  0  0  0  0  0  0  0  0  0  0  0
   -4.2354   -2.2390   -0.0306 C   0  0  0  0  0  0  0  0  0  0  0  0
   -3.1641   -2.3356   -0.8928 C   0  0  0  0  0  0  0  0  0  0  0  0
   -2.3387   -3.3412   -1.1684 O   0  0  0  0  0  0  0  0  0  0  0  0
   -4.8315   -3.2616    0.8791 C   0  0  0  0  0  0  0  0  0  0  0  0
   -6.1924   -2.8056    1.4316 C   0  0  0  0  0  0  0  0  0  0  0  0
   -6.1676   -1.3378    1.8872 C   0  0  0  0  0  0  0  0  0  0  0  0
   -5.8452   -0.3845    0.7250 C   0  0  0  0  0  0  0  0  0  0  0  0
    1.8553    0.0658   -0.7190 N   0  0  0  0  0  0  0  0  0  0  0  0
    4.3390    1.3269    1.5211 C   0  0  0  0  0  0  0  0  0  0  0  0
    6.0438    4.6383    2.9103 H   0  0  0  0  0  0  0  0  0  0  0  0
    6.4871    3.8062    4.4066 H   0  0  0  0  0  0  0  0  0  0  0  0
    7.4254    3.4730    2.9445 H   0  0  0  0  0  0  0  0  0  0  0  0
    6.6070    3.7554    0.7530 H   0  0  0  0  0  0  0  0  0  0  0  0
    5.9925    3.0676   -1.5141 H   0  0  0  0  0  0  0  0  0  0  0  0
    3.8138    3.0050   -3.0757 H   0  0  0  0  0  0  0  0  0  0  0  0
    2.5050    2.3222   -2.0541 H   0  0  0  0  0  0  0  0  0  0  0  0
    2.9076    1.5797   -3.6154 H   0  0  0  0  0  0  0  0  0  0  0  0
    3.9202   -1.7697    1.2229 H   0  0  0  0  0  0  0  0  0  0  0  0
   -0.4417   -2.2121   -1.1977 H   0  0  0  0  0  0  0  0  0  0  0  0
   -2.4913   -0.1191   -3.2564 H   0  0  0  0  0  0  0  0  0  0  0  0
   -1.8786   -1.7682   -3.1363 H   0  0  0  0  0  0  0  0  0  0  0  0
   -3.0460    1.3671   -1.6315 H   0  0  0  0  0  0  0  0  0  0  0  0
   -2.6724   -4.1137   -0.6726 H   0  0  0  0  0  0  0  0  0  0  0  0
   -4.9519   -4.2154    0.3538 H   0  0  0  0  0  0  0  0  0  0  0  0
   -4.1404   -3.4337    1.7134 H   0  0  0  0  0  0  0  0  0  0  0  0
   -6.9603   -2.9253    0.6565 H   0  0  0  0  0  0  0  0  0  0  0  0
   -6.4790   -3.4513    2.2692 H   0  0  0  0  0  0  0  0  0  0  0  0
   -7.1351   -1.0656    2.3237 H   0  0  0  0  0  0  0  0  0  0  0  0
   -5.4144   -1.2214    2.6774 H   0  0  0  0  0  0  0  0  0  0  0  0
   -6.7231   -0.2966    0.0734 H   0  0  0  0  0  0  0  0  0  0  0  0
   -5.6286    0.6143    1.1202 H   0  0  0  0  0  0  0  0  0  0  0  0
    3.8786    0.8520    2.3851 H   0  0  0  0  0  0  0  0  0  0  0  0
  1  2  1  0
  2  3  1  0
  3  4  2  0
  4  5  1  0
  5  6  2  0
  6  7  1  0
  7  8  1  0
  6  9  1  0
  9 10  1  0
 10 11  2  0
 11 12  1  0
 12 13  1  0
 13 14  1  0
 14 15  1  0
 15 16  2  0
 15 17  1  0
 17 18  1  0
 18 19  1  0
 19 20  1  0
 19 21  2  0
 21 22  1  0
 22 23  2  0
 23 24  1  0
 22 25  1  0
 25 26  1  0
 26 27  1  0
 27 28  1  0
 13 29  2  0
  9 30  2  0
 30  3  1  0
 29 10  1  0
 23 18  1  0
 28 21  1  0
  1 31  1  0
  1 32  1  0
  1 33  1  0
  4 34  1  0
  5 35  1  0
  8 36  1  0
  8 37  1  0
  8 38  1  0
 11 39  1  0
 14 40  1  0
 17 41  1  0
 17 42  1  0
 20 43  1  0
 24 44  1  0
 25 45  1  0
 25 46  1  0
 26 47  1  0
 26 48  1  0
 27 49  1  0
 27 50  1  0
 28 51  1  0
 28 52  1  0
 30 53  1  0
M  END
$$$$
