
     RDKit          3D

 53 56  0  0  0  0  0  0  0  0999 V2000
   -8.4938    1.1215    0.0810 C   0  0  0  0  0  0  0  0  0  0  0  0
   -7.7023    0.0312    0.5364 O   0  0  0  0  0  0  0  0  0  0  0  0
   -6.8869   -0.5004   -0.5085 C   0  0  0  0  0  0  0  0  0  0  0  0
   -6.0378   -1.6354    0.0703 C   0  0  0  0  0  0  0  0  0  0  0  0
   -5.2056   -2.3440   -0.9993 C   0  0  0  0  0  0  0  0  0  0  0  0
   -3.9648   -1.4697   -1.1361 C   0  0  0  0  0  0  0  0  0  0  0  0
   -3.8033   -0.8540    0.1736 N   0  0  0  0  0  0  0  0  0  0  0  0
   -2.7218   -0.1285    0.6610 C   0  0  0  0  0  0  0  0  0  0  0  0
   -2.7094    0.2531    1.8344 O   0  0  0  0  0  0  0  0  0  0  0  0
   -1.5838    0.1947   -0.2187 C   0  0  0  0  0  0  0  0  0  0  0  0
   -0.3867    0.8451    0.1935 C   0  0  0  0  0  0  0  0  0  0  0  0
    0.3759    0.9514   -0.9424 C   0  0  0  0  0  0  0  0  0  0  0  0
    1.7107    1.5068   -1.2629 C   0  0  0  0  0  0  0  0  0  0  0  0
    2.4357    1.6637   -0.0354 O   0  0  0  0  0  0  0  0  0  0  0  0
    3.5653    0.8821    0.0327 C   0  0  0  0  0  0  0  0  0  0  0  0
    3.4583   -0.5077   -0.0255 C   0  0  0  0  0  0  0  0  0  0  0  0
    4.5993   -1.3001    0.0832 C   0  0  0  0  0  0  0  0  0  0  0  0
    5.8546   -0.7115    0.2686 C   0  0  0  0  0  0  0  0  0  0  0  0
    7.0243   -1.4254    0.3848 O   0  0  0  0  0  0  0  0  0  0  0  0
    6.9512   -2.8394    0.2557 C   0  0  0  0  0  0  0  0  0  0  0  0
    5.9736    0.7010    0.3595 C   0  0  0  0  0  0  0  0  0  0  0  0
    7.2167    1.3444    0.5632 C   0  0  0  0  0  0  0  0  0  0  0  0
    7.3195    2.7333    0.6577 C   0  0  0  0  0  0  0  0  0  0  0  0
    6.1790    3.5173    0.5502 C   0  0  0  0  0  0  0  0  0  0  0  0
    4.9393    2.9106    0.3475 C   0  0  0  0  0  0  0  0  0  0  0  0
    4.8117    1.5076    0.2475 C   0  0  0  0  0  0  0  0  0  0  0  0
   -0.3110    0.4081   -1.9811 O   0  0  0  0  0  0  0  0  0  0  0  0
   -1.5324   -0.0562   -1.5385 N   0  0  0  0  0  0  0  0  0  0  0  0
   -4.9613   -1.1065    1.0205 C   0  0  0  0  0  0  0  0  0  0  0  0
   -9.0953    1.4805    0.9202 H   0  0  0  0  0  0  0  0  0  0  0  0
   -7.8533    1.9387   -0.2662 H   0  0  0  0  0  0  0  0  0  0  0  0
   -9.1632    0.7965   -0.7197 H   0  0  0  0  0  0  0  0  0  0  0  0
   -6.2605    0.2967   -0.9278 H   0  0  0  0  0  0  0  0  0  0  0  0
   -7.5354   -0.8898   -1.3011 H   0  0  0  0  0  0  0  0  0  0  0  0
   -6.6973   -2.3345    0.5986 H   0  0  0  0  0  0  0  0  0  0  0  0
   -5.7274   -2.4847   -1.9500 H   0  0  0  0  0  0  0  0  0  0  0  0
   -4.9114   -3.3337   -0.6283 H   0  0  0  0  0  0  0  0  0  0  0  0
   -4.1215   -0.6775   -1.8748 H   0  0  0  0  0  0  0  0  0  0  0  0
   -3.0869   -2.0644   -1.4035 H   0  0  0  0  0  0  0  0  0  0  0  0
   -0.1311    1.1830    1.1879 H   0  0  0  0  0  0  0  0  0  0  0  0
    2.2353    0.8889   -2.0015 H   0  0  0  0  0  0  0  0  0  0  0  0
    1.5904    2.5052   -1.6985 H   0  0  0  0  0  0  0  0  0  0  0  0
    2.4886   -0.9865   -0.1381 H   0  0  0  0  0  0  0  0  0  0  0  0
    4.4712   -2.3761    0.0298 H   0  0  0  0  0  0  0  0  0  0  0  0
    6.5693   -3.1297   -0.7300 H   0  0  0  0  0  0  0  0  0  0  0  0
    6.3465   -3.2793    1.0572 H   0  0  0  0  0  0  0  0  0  0  0  0
    7.9675   -3.2356    0.3461 H   0  0  0  0  0  0  0  0  0  0  0  0
    8.1263    0.7528    0.6565 H   0  0  0  0  0  0  0  0  0  0  0  0
    8.2893    3.1958    0.8194 H   0  0  0  0  0  0  0  0  0  0  0  0
    6.2492    4.5990    0.6262 H   0  0  0  0  0  0  0  0  0  0  0  0
    4.0575    3.5460    0.2722 H   0  0  0  0  0  0  0  0  0  0  0  0
   -4.6713   -1.8794    1.7440 H   0  0  0  0  0  0  0  0  0  0  0  0
   -5.2508   -0.2053    1.5692 H   0  0  0  0  0  0  0  0  0  0  0  0
  1  2  1  0
  2  3  1  0
  3  4  1  0
  4  5  1  0
  5  6  1  0
  6  7  1  0
  7  8  1  0
  8  9  2  0
  8 10  1  0
 10 11  1  0
 11 12  2  0
 12 13  1  0
 13 14  1  0
 14 15  1  0
 15 16  2  0
 16 17  1  0
 17 18  2  0
 18 19  1  0
 19 20  1  0
 18 21  1  0
 21 22  2  0
 22 23  1  0
 23 24  2  0
 24 25  1  0
 25 26  2  0
 12 27  1  0
 27 28  1  0
  7 29  1  0
 29  4  1  0
 28 10  2  0
 26 15  1  0
 26 21  1  0
  1 30  1  0
  1 31  1  0
  1 32  1  0
  3 33  1  0
  3 34  1  0
  4 35  1  0
  5 36  1  0
  5 37  1  0
  6 38  1  0
  6 39  1  0
 11 40  1  0
 13 41  1  0
 13 42  1  0
 16 43  1  0
 17 44  1  0
 20 45  1  0
 20 46  1  0
 20 47  1  0
 22 48  1  0
 23 49  1  0
 24 50  1  0
 25 51  1  0
 29 52  1  0
 29 53  1  0
M  END
$$$$
