
     RDKit          3D

 41 42  0  0  0  0  0  0  0  0999 V2000
    2.1920    2.0270   -0.6865 C   0  0  0  0  0  0  0  0  0  0  0  0
    2.2445    0.5222   -0.8757 C   0  0  0  0  0  0  0  0  0  0  0  0
    1.3325   -0.1772   -1.4925 N   0  0  0  0  0  0  0  0  0  0  0  0
    0.1781    0.4491   -1.8844 N   0  0  0  0  0  0  0  0  0  0  0  0
   -0.7442    0.8766   -0.9233 C   0  0  0  0  0  0  0  0  0  0  0  0
   -0.5221    0.9800    0.2815 O   0  0  0  0  0  0  0  0  0  0  0  0
   -2.0901    1.2356   -1.5248 C   0  0  0  0  0  0  0  0  0  0  0  0
   -2.8830   -0.2230   -2.2768 S   0  0  0  0  0  0  0  0  0  0  0  0
   -3.1390   -1.2631   -0.7949 C   0  0  0  0  0  0  0  0  0  0  0  0
   -4.1521   -0.7062    0.1753 C   0  0  0  0  0  0  0  0  0  0  0  0
   -3.6869   -0.0910    1.3538 C   0  0  0  0  0  0  0  0  0  0  0  0
   -4.5738    0.4524    2.2850 C   0  0  0  0  0  0  0  0  0  0  0  0
   -5.9444    0.3869    2.0603 C   0  0  0  0  0  0  0  0  0  0  0  0
   -6.4279   -0.2263    0.9060 C   0  0  0  0  0  0  0  0  0  0  0  0
   -5.5412   -0.7720   -0.0305 C   0  0  0  0  0  0  0  0  0  0  0  0
   -6.3126   -1.6089   -1.5531 Br  0  0  0  0  0  0  0  0  0  0  0  0
    3.4434   -0.2004   -0.3415 C   0  0  0  0  0  0  0  0  0  0  0  0
    3.8082   -1.4315   -0.9083 C   0  0  0  0  0  0  0  0  0  0  0  0
    4.9149   -2.1371   -0.4296 C   0  0  0  0  0  0  0  0  0  0  0  0
    5.6660   -1.6227    0.6260 C   0  0  0  0  0  0  0  0  0  0  0  0
    5.2973   -0.3991    1.2009 C   0  0  0  0  0  0  0  0  0  0  0  0
    6.0827    0.1419    2.3175 N   0  0  0  0  0  4  0  0  0  0  0  0
    5.7844    1.2690    2.7372 O   0  0  0  0  0  0  0  0  0  0  0  0
    6.9997   -0.5575    2.7702 O   0  0  0  0  0  1  0  0  0  0  0  0
    4.1873    0.3157    0.7255 C   0  0  0  0  0  0  0  0  0  0  0  0
    3.1979    2.4553   -0.7306 H   0  0  0  0  0  0  0  0  0  0  0  0
    1.6125    2.5047   -1.4808 H   0  0  0  0  0  0  0  0  0  0  0  0
    1.7464    2.2645    0.2827 H   0  0  0  0  0  0  0  0  0  0  0  0
   -0.2647   -0.0116   -2.6798 H   0  0  0  0  0  0  0  0  0  0  0  0
   -2.7362    1.6842   -0.7660 H   0  0  0  0  0  0  0  0  0  0  0  0
   -1.9328    1.9894   -2.3034 H   0  0  0  0  0  0  0  0  0  0  0  0
   -2.1739   -1.4262   -0.3021 H   0  0  0  0  0  0  0  0  0  0  0  0
   -3.4542   -2.2589   -1.1256 H   0  0  0  0  0  0  0  0  0  0  0  0
   -2.6182   -0.0268    1.5580 H   0  0  0  0  0  0  0  0  0  0  0  0
   -4.1903    0.9259    3.1858 H   0  0  0  0  0  0  0  0  0  0  0  0
   -6.6367    0.8085    2.7843 H   0  0  0  0  0  0  0  0  0  0  0  0
   -7.5022   -0.2772    0.7450 H   0  0  0  0  0  0  0  0  0  0  0  0
    3.2300   -1.8495   -1.7311 H   0  0  0  0  0  0  0  0  0  0  0  0
    5.1865   -3.0895   -0.8802 H   0  0  0  0  0  0  0  0  0  0  0  0
    6.5248   -2.1841    0.9894 H   0  0  0  0  0  0  0  0  0  0  0  0
    3.8975    1.2510    1.1979 H   0  0  0  0  0  0  0  0  0  0  0  0
  1  2  1  0
  2  3  2  3
  3  4  1  0
  4  5  1  0
  5  6  2  0
  5  7  1  0
  7  8  1  0
  8  9  1  0
  9 10  1  0
 10 11  2  0
 11 12  1  0
 12 13  2  0
 13 14  1  0
 14 15  2  0
 15 16  1  0
  2 17  1  0
 17 18  2  0
 18 19  1  0
 19 20  2  0
 20 21  1  0
 21 22  1  0
 22 23  2  0
 22 24  1  0
 21 25  2  0
 15 10  1  0
 25 17  1  0
  1 26  1  0
  1 27  1  0
  1 28  1  0
  4 29  1  0
  7 30  1  0
  7 31  1  0
  9 32  1  0
  9 33  1  0
 11 34  1  0
 12 35  1  0
 13 36  1  0
 14 37  1  0
 18 38  1  0
 19 39  1  0
 20 40  1  0
 25 41  1  0
M  CHG  2  22   1  24  -1
M  END
$$$$
