
     RDKit          3D

 50 52  0  0  0  0  0  0  0  0999 V2000
   -4.8314    3.0039   -1.2531 O   0  0  0  0  0  0  0  0  0  0  0  0
   -4.2424    2.0208   -1.6940 C   0  0  0  0  0  0  0  0  0  0  0  0
   -2.8589    2.1147   -2.3385 C   0  0  0  0  0  0  0  0  0  0  0  0
   -1.7933    1.9126   -1.4084 O   0  0  0  0  0  0  0  0  0  0  0  0
   -1.5774    0.6255   -1.0486 C   0  0  0  0  0  0  0  0  0  0  0  0
   -2.2110   -0.3398   -1.4479 O   0  0  0  0  0  0  0  0  0  0  0  0
   -0.4444    0.5270   -0.0888 C   0  0  0  0  0  0  0  0  0  0  0  0
    0.2016    1.6596    0.4298 C   0  0  0  0  0  0  0  0  0  0  0  0
    1.2592    1.5148    1.3327 C   0  0  0  0  0  0  0  0  0  0  0  0
    1.6807    0.2346    1.7056 C   0  0  0  0  0  0  0  0  0  0  0  0
    3.0043    0.0499    2.8881 S   0  0  0  0  0  6  0  0  0  0  0  0
    3.0646    1.2743    3.6579 O   0  0  0  0  0  0  0  0  0  0  0  0
    2.8231   -1.2317    3.5364 O   0  0  0  0  0  0  0  0  0  0  0  0
    4.3933   -0.0363    1.9060 N   0  0  0  0  0  0  0  0  0  0  0  0
    4.5458   -1.2539    1.0739 C   0  0  0  0  0  0  0  0  0  0  0  0
    6.0033   -1.3927    0.6410 C   0  0  0  0  0  0  0  0  0  0  0  0
    6.4880   -0.1415   -0.0861 C   0  0  0  0  0  0  0  0  0  0  0  0
    6.2439    1.1035    0.7621 C   0  0  0  0  0  0  0  0  0  0  0  0
    4.7827    1.2040    1.1933 C   0  0  0  0  0  0  0  0  0  0  0  0
    1.0283   -0.9003    1.2152 C   0  0  0  0  0  0  0  0  0  0  0  0
   -0.0283   -0.7517    0.3133 C   0  0  0  0  0  0  0  0  0  0  0  0
   -4.7567    0.7459   -1.6454 N   0  0  0  0  0  0  0  0  0  0  0  0
   -5.9990    0.4856   -0.9593 C   0  0  0  0  0  0  0  0  0  0  0  0
   -6.3524   -0.9427   -1.1295 C   0  0  0  0  0  0  0  0  0  0  0  0
   -6.0445   -2.0850   -0.4184 C   0  0  0  0  0  0  0  0  0  0  0  0
   -6.6797   -3.1573   -1.0898 C   0  0  0  0  0  0  0  0  0  0  0  0
   -7.3325   -2.6028   -2.1653 C   0  0  0  0  0  0  0  0  0  0  0  0
   -7.1391   -1.2596   -2.1987 O   0  0  0  0  0  0  0  0  0  0  0  0
   -2.7502    3.1225   -2.7542 H   0  0  0  0  0  0  0  0  0  0  0  0
   -2.7796    1.4202   -3.1841 H   0  0  0  0  0  0  0  0  0  0  0  0
   -0.1160    2.6624    0.1511 H   0  0  0  0  0  0  0  0  0  0  0  0
    1.7397    2.4003    1.7453 H   0  0  0  0  0  0  0  0  0  0  0  0
    3.8969   -1.1907    0.1932 H   0  0  0  0  0  0  0  0  0  0  0  0
    4.2692   -2.1474    1.6420 H   0  0  0  0  0  0  0  0  0  0  0  0
    6.1154   -2.2667   -0.0102 H   0  0  0  0  0  0  0  0  0  0  0  0
    6.6326   -1.5639    1.5234 H   0  0  0  0  0  0  0  0  0  0  0  0
    7.5554   -0.2333   -0.3151 H   0  0  0  0  0  0  0  0  0  0  0  0
    5.9596   -0.0442   -1.0423 H   0  0  0  0  0  0  0  0  0  0  0  0
    6.8863    1.0662    1.6509 H   0  0  0  0  0  0  0  0  0  0  0  0
    6.5264    1.9984    0.1967 H   0  0  0  0  0  0  0  0  0  0  0  0
    4.6764    2.0751    1.8473 H   0  0  0  0  0  0  0  0  0  0  0  0
    4.1418    1.3507    0.3168 H   0  0  0  0  0  0  0  0  0  0  0  0
    1.3288   -1.8967    1.5340 H   0  0  0  0  0  0  0  0  0  0  0  0
   -0.5322   -1.6388   -0.0682 H   0  0  0  0  0  0  0  0  0  0  0  0
   -4.0944   -0.0237   -1.7432 H   0  0  0  0  0  0  0  0  0  0  0  0
   -6.7759    1.1435   -1.3633 H   0  0  0  0  0  0  0  0  0  0  0  0
   -5.8650    0.7300    0.1001 H   0  0  0  0  0  0  0  0  0  0  0  0
   -5.4342   -2.1346    0.4727 H   0  0  0  0  0  0  0  0  0  0  0  0
   -6.6640   -4.2050   -0.8249 H   0  0  0  0  0  0  0  0  0  0  0  0
   -7.9448   -3.0057   -2.9600 H   0  0  0  0  0  0  0  0  0  0  0  0
  1  2  2  0
  2  3  1  0
  3  4  1  0
  4  5  1  0
  5  6  2  0
  5  7  1  0
  7  8  2  0
  8  9  1  0
  9 10  2  0
 10 11  1  0
 11 12  2  0
 11 13  2  0
 11 14  1  0
 14 15  1  0
 15 16  1  0
 16 17  1  0
 17 18  1  0
 18 19  1  0
 10 20  1  0
 20 21  2  0
  2 22  1  0
 22 23  1  0
 23 24  1  0
 24 25  2  0
 25 26  1  0
 26 27  2  0
 27 28  1  0
 21  7  1  0
 28 24  1  0
 19 14  1  0
  3 29  1  0
  3 30  1  0
  8 31  1  0
  9 32  1  0
 15 33  1  0
 15 34  1  0
 16 35  1  0
 16 36  1  0
 17 37  1  0
 17 38  1  0
 18 39  1  0
 18 40  1  0
 19 41  1  0
 19 42  1  0
 20 43  1  0
 21 44  1  0
 22 45  1  0
 23 46  1  0
 23 47  1  0
 25 48  1  0
 26 49  1  0
 27 50  1  0
M  END
$$$$
