
     RDKit          3D

 46 48  0  0  0  0  0  0  0  0999 V2000
    7.2284    3.1205    0.1163 C   0  0  0  0  0  0  0  0  0  0  0  0
    5.8703    2.6431   -0.2978 C   0  0  0  0  0  0  0  0  0  0  0  0
    4.8717    3.3473   -0.3405 O   0  0  0  0  0  0  0  0  0  0  0  0
    5.9180    1.3191   -0.6138 O   0  0  0  0  0  0  0  0  0  0  0  0
    4.6735    0.7385   -1.0332 C   0  0  0  0  0  0  0  0  0  0  0  0
    3.8882    0.2515    0.1791 C   0  0  0  0  0  0  0  0  0  0  0  0
    2.5549   -0.3637   -0.2379 C   0  0  0  0  0  0  0  0  0  0  0  0
    1.8504   -0.8554    0.9463 N   0  0  0  0  0  0  0  0  0  0  0  0
    0.6176   -1.5267    0.8354 C   0  0  0  0  0  0  0  0  0  0  0  0
   -0.1980   -1.3796   -0.3264 C   0  0  0  0  0  0  0  0  0  0  0  0
   -1.4802   -1.9608   -0.4931 C   0  0  0  0  0  0  0  0  0  0  0  0
   -2.4328   -1.7618   -1.9652 S   0  0  0  0  0  0  0  0  0  0  0  0
   -3.6276   -0.5597   -1.4100 C   0  0  0  0  0  0  0  0  0  0  0  0
   -4.9205   -0.9645   -1.0702 C   0  0  0  0  0  0  0  0  0  0  0  0
   -5.8600   -0.0277   -0.6317 C   0  0  0  0  0  0  0  0  0  0  0  0
   -5.5223    1.3274   -0.5418 C   0  0  0  0  0  0  0  0  0  0  0  0
   -6.5242    2.3245   -0.0383 C   0  0  0  0  0  0  0  0  0  0  0  0
   -4.2242    1.7286   -0.8775 C   0  0  0  0  0  0  0  0  0  0  0  0
   -3.2846    0.7918   -1.3163 C   0  0  0  0  0  0  0  0  0  0  0  0
   -1.9501   -2.7311    0.5948 C   0  0  0  0  0  0  0  0  0  0  0  0
   -3.0843   -3.4296    0.7463 N   0  0  0  0  0  0  0  0  0  0  0  0
   -3.0284   -3.9879    2.0069 O   0  0  0  0  0  0  0  0  0  0  0  0
   -1.8549   -3.6619    2.6565 N   0  0  0  0  0  0  0  0  0  0  0  0
   -1.1672   -2.8751    1.8167 C   0  0  0  0  0  0  0  0  0  0  0  0
    0.0883   -2.2503    1.9365 C   0  0  0  0  0  0  0  0  0  0  0  0
    0.8007   -2.4103    3.1725 N   0  0  0  0  0  4  0  0  0  0  0  0
    0.2200   -2.1004    4.2204 O   0  0  0  0  0  0  0  0  0  0  0  0
    1.9718   -2.8139    3.0929 O   0  0  0  0  0  1  0  0  0  0  0  0
    7.9316    3.0017   -0.7123 H   0  0  0  0  0  0  0  0  0  0  0  0
    7.1751    4.1809    0.3799 H   0  0  0  0  0  0  0  0  0  0  0  0
    7.5666    2.5608    0.9921 H   0  0  0  0  0  0  0  0  0  0  0  0
    4.0939    1.4439   -1.6402 H   0  0  0  0  0  0  0  0  0  0  0  0
    4.9224   -0.1081   -1.6825 H   0  0  0  0  0  0  0  0  0  0  0  0
    3.7160    1.0808    0.8758 H   0  0  0  0  0  0  0  0  0  0  0  0
    4.4932   -0.4761    0.7348 H   0  0  0  0  0  0  0  0  0  0  0  0
    1.9585    0.4049   -0.7422 H   0  0  0  0  0  0  0  0  0  0  0  0
    2.7294   -1.1901   -0.9371 H   0  0  0  0  0  0  0  0  0  0  0  0
    2.4863   -1.3213    1.6041 H   0  0  0  0  0  0  0  0  0  0  0  0
    0.1665   -0.7791   -1.1593 H   0  0  0  0  0  0  0  0  0  0  0  0
   -5.2054   -2.0126   -1.1333 H   0  0  0  0  0  0  0  0  0  0  0  0
   -6.8585   -0.3650   -0.3601 H   0  0  0  0  0  0  0  0  0  0  0  0
   -7.5296    2.0771   -0.3959 H   0  0  0  0  0  0  0  0  0  0  0  0
   -6.2908    3.3329   -0.3961 H   0  0  0  0  0  0  0  0  0  0  0  0
   -6.5270    2.3317    1.0563 H   0  0  0  0  0  0  0  0  0  0  0  0
   -3.9364    2.7752   -0.8024 H   0  0  0  0  0  0  0  0  0  0  0  0
   -2.2864    1.1303   -1.5822 H   0  0  0  0  0  0  0  0  0  0  0  0
  1  2  1  0
  2  3  2  0
  2  4  1  0
  4  5  1  0
  5  6  1  0
  6  7  1  0
  7  8  1  0
  8  9  1  0
  9 10  1  0
 10 11  2  0
 11 12  1  0
 12 13  1  0
 13 14  2  0
 14 15  1  0
 15 16  2  0
 16 17  1  0
 16 18  1  0
 18 19  2  0
 11 20  1  0
 20 21  2  0
 21 22  1  0
 22 23  1  0
 23 24  2  0
 24 25  1  0
 25 26  1  0
 26 27  2  0
 26 28  1  0
 25  9  2  0
 19 13  1  0
 24 20  1  0
  1 29  1  0
  1 30  1  0
  1 31  1  0
  5 32  1  0
  5 33  1  0
  6 34  1  0
  6 35  1  0
  7 36  1  0
  7 37  1  0
  8 38  1  0
 10 39  1  0
 14 40  1  0
 15 41  1  0
 17 42  1  0
 17 43  1  0
 17 44  1  0
 18 45  1  0
 19 46  1  0
M  CHG  2  26   1  28  -1
M  END
$$$$
