
     RDKit          3D

 72 76  0  0  0  0  0  0  0  0999 V2000
    2.3152   -4.9140    0.7456 C   0  0  0  0  0  0  0  0  0  0  0  0
    1.2831   -3.9082    1.1623 C   0  0  0  0  0  0  0  0  0  0  0  0
    0.2774   -4.2579    2.0730 C   0  0  0  0  0  0  0  0  0  0  0  0
   -0.7056   -3.3331    2.4502 C   0  0  0  0  0  0  0  0  0  0  0  0
   -1.7995   -3.7320    3.3969 C   0  0  0  0  0  0  0  0  0  0  0  0
   -0.6953   -2.0547    1.8805 C   0  0  0  0  0  0  0  0  0  0  0  0
    0.2916   -1.7020    0.9548 C   0  0  0  0  0  0  0  0  0  0  0  0
    0.3257   -0.4012    0.3932 N   0  0  0  0  0  0  0  0  0  0  0  0
    0.4781    0.7439    1.1865 C   0  0  0  0  0  0  0  0  0  0  0  0
    0.1972    1.8642    0.7517 O   0  0  0  0  0  0  0  0  0  0  0  0
    1.0109    0.5466    2.5911 C   0  0  0  0  0  0  0  0  0  0  0  0
    1.7911    1.6893    3.0096 N   0  0  0  0  0  0  0  0  0  0  0  0
    1.3554    2.5321    3.9615 N   0  0  0  0  0  0  0  0  0  0  0  0
    2.3818    3.3374    4.1932 N   0  0  0  0  0  0  0  0  0  0  0  0
    3.4184    2.9085    3.3946 C   0  0  0  0  0  0  0  0  0  0  0  0
    4.7283    3.5477    3.3855 C   0  0  0  0  0  0  0  0  0  0  0  0
    5.7561    3.0703    2.5579 C   0  0  0  0  0  0  0  0  0  0  0  0
    7.0120    3.6832    2.5554 C   0  0  0  0  0  0  0  0  0  0  0  0
    7.2541    4.7803    3.3796 C   0  0  0  0  0  0  0  0  0  0  0  0
    6.2423    5.2668    4.2053 C   0  0  0  0  0  0  0  0  0  0  0  0
    4.9859    4.6541    4.2085 C   0  0  0  0  0  0  0  0  0  0  0  0
    3.0872    1.8301    2.6608 N   0  0  0  0  0  0  0  0  0  0  0  0
   -0.2170   -0.1853   -0.9711 C   0  0  0  0  0  0  0  0  0  0  0  0
   -1.7327    0.1504   -0.9325 C   0  0  0  0  0  0  0  0  0  0  0  0
   -2.4942   -0.2458   -0.0495 O   0  0  0  0  0  0  0  0  0  0  0  0
   -2.1793    0.8979   -2.0128 N   0  0  0  0  0  0  0  0  0  0  0  0
   -3.5903    1.1857   -2.2175 C   0  0  0  0  0  0  0  0  0  0  0  0
   -4.3061   -0.0271   -2.8389 C   0  0  0  0  0  0  0  0  0  0  0  0
   -5.5292    0.3475   -3.6796 C   0  0  0  0  0  0  0  0  0  0  0  0
   -6.1931    1.6241   -3.1825 C   0  0  0  0  0  0  0  0  0  0  0  0
   -5.2405    2.8193   -3.2284 C   0  0  0  0  0  0  0  0  0  0  0  0
   -3.7667    2.4357   -3.0795 C   0  0  0  0  0  0  0  0  0  0  0  0
    0.0585   -1.2864   -1.9928 C   0  0  0  0  0  0  0  0  0  0  0  0
   -0.7520   -2.4210   -2.0905 C   0  0  0  0  0  0  0  0  0  0  0  0
   -0.4472   -3.3938   -3.0387 C   0  0  0  0  0  0  0  0  0  0  0  0
    0.6533   -3.2185   -3.8664 C   0  0  0  0  0  0  0  0  0  0  0  0
    1.4100   -2.0715   -3.7114 C   0  0  0  0  0  0  0  0  0  0  0  0
    1.1387   -1.1093   -2.8020 N   0  0  0  0  0  0  0  0  0  0  0  0
    1.2783   -2.6269    0.6001 C   0  0  0  0  0  0  0  0  0  0  0  0
    3.2541   -4.4208    0.4729 H   0  0  0  0  0  0  0  0  0  0  0  0
    2.5384   -5.6061    1.5643 H   0  0  0  0  0  0  0  0  0  0  0  0
    1.9535   -5.4861   -0.1142 H   0  0  0  0  0  0  0  0  0  0  0  0
    0.2590   -5.2630    2.4922 H   0  0  0  0  0  0  0  0  0  0  0  0
   -2.6326   -4.1727    2.8405 H   0  0  0  0  0  0  0  0  0  0  0  0
   -1.4355   -4.4613    4.1282 H   0  0  0  0  0  0  0  0  0  0  0  0
   -2.1668   -2.8660    3.9579 H   0  0  0  0  0  0  0  0  0  0  0  0
   -1.4824   -1.3465    2.1356 H   0  0  0  0  0  0  0  0  0  0  0  0
    0.1718    0.4286    3.2837 H   0  0  0  0  0  0  0  0  0  0  0  0
    1.6736   -0.3201    2.6663 H   0  0  0  0  0  0  0  0  0  0  0  0
    5.5833    2.2151    1.9070 H   0  0  0  0  0  0  0  0  0  0  0  0
    7.7990    3.3022    1.9094 H   0  0  0  0  0  0  0  0  0  0  0  0
    8.2310    5.2569    3.3780 H   0  0  0  0  0  0  0  0  0  0  0  0
    6.4291    6.1232    4.8481 H   0  0  0  0  0  0  0  0  0  0  0  0
    4.2088    5.0495    4.8602 H   0  0  0  0  0  0  0  0  0  0  0  0
    0.2791    0.7181   -1.3559 H   0  0  0  0  0  0  0  0  0  0  0  0
   -1.5409    1.0575   -2.7854 H   0  0  0  0  0  0  0  0  0  0  0  0
   -4.0321    1.3808   -1.2311 H   0  0  0  0  0  0  0  0  0  0  0  0
   -4.6106   -0.7055   -2.0311 H   0  0  0  0  0  0  0  0  0  0  0  0
   -3.6186   -0.6072   -3.4689 H   0  0  0  0  0  0  0  0  0  0  0  0
   -6.2464   -0.4815   -3.6724 H   0  0  0  0  0  0  0  0  0  0  0  0
   -5.2226    0.4859   -4.7248 H   0  0  0  0  0  0  0  0  0  0  0  0
   -6.5350    1.4712   -2.1512 H   0  0  0  0  0  0  0  0  0  0  0  0
   -7.0868    1.8438   -3.7771 H   0  0  0  0  0  0  0  0  0  0  0  0
   -5.5223    3.5211   -2.4347 H   0  0  0  0  0  0  0  0  0  0  0  0
   -5.3680    3.3613   -4.1724 H   0  0  0  0  0  0  0  0  0  0  0  0
   -3.2106    3.2811   -2.6560 H   0  0  0  0  0  0  0  0  0  0  0  0
   -3.3349    2.2585   -4.0739 H   0  0  0  0  0  0  0  0  0  0  0  0
   -1.6039   -2.5632   -1.4303 H   0  0  0  0  0  0  0  0  0  0  0  0
   -1.0633   -4.2847   -3.1240 H   0  0  0  0  0  0  0  0  0  0  0  0
    0.9167   -3.9596   -4.6125 H   0  0  0  0  0  0  0  0  0  0  0  0
    2.2821   -1.8888   -4.3331 H   0  0  0  0  0  0  0  0  0  0  0  0
    2.0515   -2.3484   -0.1142 H   0  0  0  0  0  0  0  0  0  0  0  0
  1  2  1  0
  2  3  2  0
  3  4  1  0
  4  5  1  0
  4  6  2  0
  6  7  1  0
  7  8  1  0
  8  9  1  0
  9 10  2  0
  9 11  1  0
 11 12  1  0
 12 13  1  0
 13 14  2  0
 14 15  1  0
 15 16  1  0
 16 17  2  0
 17 18  1  0
 18 19  2  0
 19 20  1  0
 20 21  2  0
 15 22  2  0
  8 23  1  0
 23 24  1  0
 24 25  2  0
 24 26  1  0
 26 27  1  0
 27 28  1  0
 28 29  1  0
 29 30  1  0
 30 31  1  0
 31 32  1  0
 23 33  1  0
 33 34  2  0
 34 35  1  0
 35 36  2  0
 36 37  1  0
 37 38  2  0
  7 39  2  0
 39  2  1  0
 22 12  1  0
 32 27  1  0
 38 33  1  0
 21 16  1  0
  1 40  1  0
  1 41  1  0
  1 42  1  0
  3 43  1  0
  5 44  1  0
  5 45  1  0
  5 46  1  0
  6 47  1  0
 11 48  1  0
 11 49  1  0
 17 50  1  0
 18 51  1  0
 19 52  1  0
 20 53  1  0
 21 54  1  0
 23 55  1  0
 26 56  1  0
 27 57  1  0
 28 58  1  0
 28 59  1  0
 29 60  1  0
 29 61  1  0
 30 62  1  0
 30 63  1  0
 31 64  1  0
 31 65  1  0
 32 66  1  0
 32 67  1  0
 34 68  1  0
 35 69  1  0
 36 70  1  0
 37 71  1  0
 39 72  1  0
M  END
$$$$
