
     RDKit          3D

 49 51  0  0  0  0  0  0  0  0999 V2000
    9.2156   -0.9343    1.5896 N   0  0  0  0  0  0  0  0  0  0  0  0
    8.0706   -1.0661    1.4459 C   0  0  0  0  0  0  0  0  0  0  0  0
    6.6637   -1.2485    1.2547 C   0  0  0  0  0  0  0  0  0  0  0  0
    5.8656   -0.2986    1.8255 N   0  0  0  0  0  0  0  0  0  0  0  0
    4.5316   -0.4500    1.6264 C   0  0  0  0  0  0  0  0  0  0  0  0
    3.9791   -1.4896    0.8757 C   0  0  0  0  0  0  0  0  0  0  0  0
    2.5358   -1.6205    0.5852 C   0  0  0  0  0  0  0  0  0  0  0  0
    1.9748   -2.8623    0.2223 C   0  0  0  0  0  0  0  0  0  0  0  0
    0.6217   -2.9871   -0.1233 C   0  0  0  0  0  0  0  0  0  0  0  0
   -0.2038   -1.8668   -0.1169 C   0  0  0  0  0  0  0  0  0  0  0  0
    0.3133   -0.6387    0.2923 C   0  0  0  0  0  0  0  0  0  0  0  0
    1.6694   -0.5130    0.6086 C   0  0  0  0  0  0  0  0  0  0  0  0
   -0.4236    0.5101    0.2953 O   0  0  0  0  0  0  0  0  0  0  0  0
   -1.3710    0.5578    1.3773 C   0  0  0  0  0  0  0  0  0  0  0  0
   -1.5011    2.0215    1.8165 C   0  0  0  0  0  0  0  0  0  0  0  0
   -1.9505    2.8271    0.7226 O   0  0  0  0  0  0  0  0  0  0  0  0
   -3.2611    3.3724    0.8997 C   0  0  0  0  0  0  0  0  0  0  0  0
   -3.7556    3.9267   -0.4445 C   0  0  0  0  0  0  0  0  0  0  0  0
   -4.3668    2.9285   -1.2790 O   0  0  0  0  0  0  0  0  0  0  0  0
   -3.4543    1.9182   -1.7106 C   0  0  0  0  0  0  0  0  0  0  0  0
   -4.1468    0.9636   -2.6934 C   0  0  0  0  0  0  0  0  0  0  0  0
   -3.3067   -0.1417   -3.0446 O   0  0  0  0  0  0  0  0  0  0  0  0
   -3.1682   -1.1018   -1.9922 C   0  0  0  0  0  0  0  0  0  0  0  0
   -1.6985   -1.4801   -1.8288 C   0  0  0  0  0  0  0  0  0  0  0  0
   -1.5041   -2.0177   -0.5089 O   0  0  0  0  0  0  0  0  0  0  0  0
    4.7945   -2.4365    0.3380 N   0  0  0  0  0  0  0  0  0  0  0  0
    6.1375   -2.3041    0.5384 C   0  0  0  0  0  0  0  0  0  0  0  0
    6.9662   -3.2974   -0.0609 C   0  0  0  0  0  0  0  0  0  0  0  0
    7.6752   -4.0778   -0.5457 N   0  0  0  0  0  0  0  0  0  0  0  0
    3.9152    0.3053    2.1051 H   0  0  0  0  0  0  0  0  0  0  0  0
    2.5961   -3.7551    0.1931 H   0  0  0  0  0  0  0  0  0  0  0  0
    0.2239   -3.9551   -0.4080 H   0  0  0  0  0  0  0  0  0  0  0  0
    2.0367    0.4879    0.8300 H   0  0  0  0  0  0  0  0  0  0  0  0
   -1.0506   -0.0496    2.2315 H   0  0  0  0  0  0  0  0  0  0  0  0
   -2.3323    0.1880    1.0103 H   0  0  0  0  0  0  0  0  0  0  0  0
   -2.1555    2.1186    2.6873 H   0  0  0  0  0  0  0  0  0  0  0  0
   -0.5099    2.3978    2.0846 H   0  0  0  0  0  0  0  0  0  0  0  0
   -3.1900    4.1817    1.6370 H   0  0  0  0  0  0  0  0  0  0  0  0
   -3.9505    2.5999    1.2622 H   0  0  0  0  0  0  0  0  0  0  0  0
   -2.9480    4.4160   -1.0050 H   0  0  0  0  0  0  0  0  0  0  0  0
   -4.5363    4.6718   -0.2554 H   0  0  0  0  0  0  0  0  0  0  0  0
   -3.1359    1.3403   -0.8464 H   0  0  0  0  0  0  0  0  0  0  0  0
   -2.5636    2.3629   -2.1674 H   0  0  0  0  0  0  0  0  0  0  0  0
   -4.3842    1.5085   -3.6171 H   0  0  0  0  0  0  0  0  0  0  0  0
   -5.1009    0.6020   -2.2867 H   0  0  0  0  0  0  0  0  0  0  0  0
   -3.7355   -1.9847   -2.2731 H   0  0  0  0  0  0  0  0  0  0  0  0
   -3.5829   -0.7530   -1.0493 H   0  0  0  0  0  0  0  0  0  0  0  0
   -1.4393   -2.2582   -2.5659 H   0  0  0  0  0  0  0  0  0  0  0  0
   -1.0593   -0.6182   -2.0401 H   0  0  0  0  0  0  0  0  0  0  0  0
  1  2  3  0
  2  3  1  0
  3  4  2  0
  4  5  1  0
  5  6  2  0
  6  7  1  0
  7  8  2  0
  8  9  1  0
  9 10  2  0
 10 11  1  0
 11 12  2  0
 11 13  1  0
 13 14  1  0
 14 15  1  0
 15 16  1  0
 16 17  1  0
 17 18  1  0
 18 19  1  0
 19 20  1  0
 20 21  1  0
 21 22  1  0
 22 23  1  0
 23 24  1  0
 24 25  1  0
  6 26  1  0
 26 27  2  0
 27 28  1  0
 28 29  3  0
 27  3  1  0
 12  7  1  0
 25 10  1  0
  5 30  1  0
  8 31  1  0
  9 32  1  0
 12 33  1  0
 14 34  1  0
 14 35  1  0
 15 36  1  0
 15 37  1  0
 17 38  1  0
 17 39  1  0
 18 40  1  0
 18 41  1  0
 20 42  1  0
 20 43  1  0
 21 44  1  0
 21 45  1  0
 23 46  1  0
 23 47  1  0
 24 48  1  0
 24 49  1  0
M  END
$$$$
