
     RDKit          3D

 73 78  0  0  0  0  0  0  0  0999 V2000
    9.3113   -1.0422   -2.2534 C   0  0  0  0  0  0  0  0  0  0  0  0
    7.9761   -0.9709   -1.5722 C   0  0  0  0  0  0  0  0  0  0  0  0
    7.1388    0.1318   -1.7540 C   0  0  0  0  0  0  0  0  0  0  0  0
    5.9063    0.1989   -1.0971 C   0  0  0  0  0  0  0  0  0  0  0  0
    5.4738   -0.8297   -0.2444 C   0  0  0  0  0  0  0  0  0  0  0  0
    4.2482   -0.7611    0.4442 N   0  0  0  0  0  0  0  0  0  0  0  0
    4.3354    0.0151    1.7025 C   0  0  0  0  0  0  0  0  0  0  0  0
    3.6865    1.4043    1.5865 C   0  0  0  0  0  0  0  0  0  0  0  0
    2.3165    1.3875    1.0425 N   0  0  0  0  0  0  0  0  0  0  0  0
    1.6031    2.5687    1.1249 C   0  0  0  0  0  0  0  0  0  0  0  0
    2.1109    3.5594    1.6685 O   0  0  0  0  0  0  0  0  0  0  0  0
    0.2042    2.7202    0.5355 C   0  0  0  0  0  0  0  0  0  0  0  0
    0.1951    2.7112   -0.9932 C   0  0  0  0  0  0  0  0  0  0  0  0
   -1.2203    2.9499   -1.5003 C   0  0  0  0  0  0  0  0  0  0  0  0
   -2.2088    1.9411   -0.9166 C   0  0  0  0  0  0  0  0  0  0  0  0
   -2.1524    1.9463    0.5487 N   0  0  0  0  0  0  0  0  0  0  0  0
   -3.1601    1.2113    1.2153 C   0  0  0  0  0  0  0  0  0  0  0  0
   -3.0355    1.0303    2.5691 N   0  0  0  0  0  0  0  0  0  0  0  0
   -3.9967    0.3844    3.2593 C   0  0  0  0  0  0  0  0  0  0  0  0
   -5.1330   -0.1563    2.7920 N   0  0  0  0  0  0  0  0  0  0  0  0
   -5.2304    0.0159    1.4656 C   0  0  0  0  0  0  0  0  0  0  0  0
   -4.3279    0.6522    0.6234 C   0  0  0  0  0  0  0  0  0  0  0  0
   -4.7836    0.5851   -0.6843 N   0  0  0  0  0  0  0  0  0  0  0  0
   -5.9392   -0.0490   -0.6351 C   0  0  0  0  0  0  0  0  0  0  0  0
   -6.2538   -0.3961    0.6570 N   0  0  0  0  0  0  0  0  0  0  0  0
   -7.4551   -1.0826    1.0817 C   0  0  0  0  0  0  0  0  0  0  0  0
   -7.5922   -2.4767    0.4754 C   0  0  0  0  0  0  0  0  0  0  0  0
   -8.0333   -2.4722   -0.9912 C   0  0  0  0  0  0  0  0  0  0  0  0
   -7.0245   -1.8695   -1.9732 C   0  0  0  0  0  0  0  0  0  0  0  0
   -6.8109   -0.3671   -1.7998 C   0  0  0  0  0  0  0  0  0  0  0  0
   -0.8267    1.7902    1.1731 C   0  0  0  0  0  0  0  0  0  0  0  0
    1.9113    0.1143    0.4272 C   0  0  0  0  0  0  0  0  0  0  0  0
    3.0585   -0.5036   -0.3934 C   0  0  0  0  0  0  0  0  0  0  0  0
    6.3275   -1.9336   -0.0413 C   0  0  0  0  0  0  0  0  0  0  0  0
    5.9437   -3.0455    0.8976 C   0  0  0  0  0  0  0  0  0  0  0  0
    7.5708   -1.9886   -0.6999 C   0  0  0  0  0  0  0  0  0  0  0  0
    9.3334   -0.4034   -3.1438 H   0  0  0  0  0  0  0  0  0  0  0  0
    9.5204   -2.0648   -2.5835 H   0  0  0  0  0  0  0  0  0  0  0  0
   10.1012   -0.7205   -1.5690 H   0  0  0  0  0  0  0  0  0  0  0  0
    7.4393    0.9518   -2.4031 H   0  0  0  0  0  0  0  0  0  0  0  0
    5.2910    1.0824   -1.2482 H   0  0  0  0  0  0  0  0  0  0  0  0
    3.8063   -0.5598    2.4740 H   0  0  0  0  0  0  0  0  0  0  0  0
    5.3702    0.1169    2.0535 H   0  0  0  0  0  0  0  0  0  0  0  0
    4.2833    2.0390    0.9208 H   0  0  0  0  0  0  0  0  0  0  0  0
    3.6749    1.8844    2.5727 H   0  0  0  0  0  0  0  0  0  0  0  0
   -0.1072    3.7384    0.8228 H   0  0  0  0  0  0  0  0  0  0  0  0
    0.8584    3.4988   -1.3721 H   0  0  0  0  0  0  0  0  0  0  0  0
    0.5713    1.7747   -1.4111 H   0  0  0  0  0  0  0  0  0  0  0  0
   -1.2377    2.8931   -2.5947 H   0  0  0  0  0  0  0  0  0  0  0  0
   -1.5337    3.9670   -1.2295 H   0  0  0  0  0  0  0  0  0  0  0  0
   -3.1949    2.2559   -1.2717 H   0  0  0  0  0  0  0  0  0  0  0  0
   -1.9915    0.9379   -1.3030 H   0  0  0  0  0  0  0  0  0  0  0  0
   -3.8278    0.2930    4.3281 H   0  0  0  0  0  0  0  0  0  0  0  0
   -7.4331   -1.1617    2.1751 H   0  0  0  0  0  0  0  0  0  0  0  0
   -8.3079   -0.4432    0.8192 H   0  0  0  0  0  0  0  0  0  0  0  0
   -6.6541   -3.0355    0.5807 H   0  0  0  0  0  0  0  0  0  0  0  0
   -8.3530   -3.0221    1.0469 H   0  0  0  0  0  0  0  0  0  0  0  0
   -8.2188   -3.5100   -1.2940 H   0  0  0  0  0  0  0  0  0  0  0  0
   -8.9926   -1.9474   -1.0857 H   0  0  0  0  0  0  0  0  0  0  0  0
   -6.0704   -2.4087   -1.9015 H   0  0  0  0  0  0  0  0  0  0  0  0
   -7.4071   -2.0422   -2.9870 H   0  0  0  0  0  0  0  0  0  0  0  0
   -6.3291    0.0233   -2.7039 H   0  0  0  0  0  0  0  0  0  0  0  0
   -7.7696    0.1553   -1.7070 H   0  0  0  0  0  0  0  0  0  0  0  0
   -0.8648    2.0419    2.2414 H   0  0  0  0  0  0  0  0  0  0  0  0
   -0.5298    0.7400    1.1154 H   0  0  0  0  0  0  0  0  0  0  0  0
    1.0387    0.2313   -0.2093 H   0  0  0  0  0  0  0  0  0  0  0  0
    1.6269   -0.5578    1.2465 H   0  0  0  0  0  0  0  0  0  0  0  0
    3.2753    0.1758   -1.2264 H   0  0  0  0  0  0  0  0  0  0  0  0
    2.7253   -1.4546   -0.8266 H   0  0  0  0  0  0  0  0  0  0  0  0
    6.0270   -2.7056    1.9343 H   0  0  0  0  0  0  0  0  0  0  0  0
    4.9202   -3.3824    0.7066 H   0  0  0  0  0  0  0  0  0  0  0  0
    6.5953   -3.9166    0.7745 H   0  0  0  0  0  0  0  0  0  0  0  0
    8.2311   -2.8382   -0.5308 H   0  0  0  0  0  0  0  0  0  0  0  0
  1  2  1  0
  2  3  2  0
  3  4  1  0
  4  5  2  0
  5  6  1  0
  6  7  1  0
  7  8  1  0
  8  9  1  0
  9 10  1  0
 10 11  2  0
 10 12  1  0
 12 13  1  0
 13 14  1  0
 14 15  1  0
 15 16  1  0
 16 17  1  0
 17 18  2  0
 18 19  1  0
 19 20  2  0
 20 21  1  0
 21 22  2  0
 22 23  1  0
 23 24  2  0
 24 25  1  0
 25 26  1  0
 26 27  1  0
 27 28  1  0
 28 29  1  0
 29 30  1  0
 16 31  1  0
  9 32  1  0
 32 33  1  0
  5 34  1  0
 34 35  1  0
 34 36  2  0
 36  2  1  0
 33  6  1  0
 31 12  1  0
 22 17  1  0
 30 24  1  0
 25 21  1  0
  1 37  1  0
  1 38  1  0
  1 39  1  0
  3 40  1  0
  4 41  1  0
  7 42  1  0
  7 43  1  0
  8 44  1  0
  8 45  1  0
 12 46  1  0
 13 47  1  0
 13 48  1  0
 14 49  1  0
 14 50  1  0
 15 51  1  0
 15 52  1  0
 19 53  1  0
 26 54  1  0
 26 55  1  0
 27 56  1  0
 27 57  1  0
 28 58  1  0
 28 59  1  0
 29 60  1  0
 29 61  1  0
 30 62  1  0
 30 63  1  0
 31 64  1  0
 31 65  1  0
 32 66  1  0
 32 67  1  0
 33 68  1  0
 33 69  1  0
 35 70  1  0
 35 71  1  0
 35 72  1  0
 36 73  1  0
M  END
$$$$
