
     RDKit          3D

 65 69  0  0  0  0  0  0  0  0999 V2000
   -8.0109    4.3488    1.1322 C   0  0  0  0  0  0  0  0  0  0  0  0
   -6.6420    4.7218    1.2324 O   0  0  0  0  0  0  0  0  0  0  0  0
   -5.7136    3.7554    0.9514 C   0  0  0  0  0  0  0  0  0  0  0  0
   -4.3928    4.1744    1.0616 C   0  0  0  0  0  0  0  0  0  0  0  0
   -3.3356    3.2943    0.8082 C   0  0  0  0  0  0  0  0  0  0  0  0
   -3.5913    1.9521    0.4315 C   0  0  0  0  0  0  0  0  0  0  0  0
   -2.6873    0.8658    0.1263 C   0  0  0  0  0  0  0  0  0  0  0  0
   -1.2308    0.9363    0.1289 C   0  0  0  0  0  0  0  0  0  0  0  0
   -0.4930    0.3059    1.1363 C   0  0  0  0  0  0  0  0  0  0  0  0
    0.9046    0.3737    1.1384 C   0  0  0  0  0  0  0  0  0  0  0  0
    1.5732    1.0738    0.1338 C   0  0  0  0  0  0  0  0  0  0  0  0
    2.9280    1.2154    0.0156 O   0  0  0  0  0  0  0  0  0  0  0  0
    3.7409    0.5707    0.9984 C   0  0  0  0  0  0  0  0  0  0  0  0
    5.2304    0.8263    0.6898 C   0  0  0  0  0  0  0  0  0  0  0  0
    5.8760    0.0280   -0.3710 N   0  0  0  0  0  0  0  0  0  0  0  0
    5.9885   -1.3937   -0.0289 C   0  0  0  0  0  0  0  0  0  0  0  0
    6.8350   -2.1340   -1.0669 C   0  0  0  0  0  0  0  0  0  0  0  0
    6.2771   -1.9478   -2.4741 C   0  0  0  0  0  0  0  0  0  0  0  0
    6.0732   -0.4669   -2.7782 C   0  0  0  0  0  0  0  0  0  0  0  0
    5.2481    0.2157   -1.6845 C   0  0  0  0  0  0  0  0  0  0  0  0
    0.8328    1.7096   -0.8667 C   0  0  0  0  0  0  0  0  0  0  0  0
   -0.5626    1.6450   -0.8722 C   0  0  0  0  0  0  0  0  0  0  0  0
   -3.3560   -0.3054   -0.1886 C   0  0  0  0  0  0  0  0  0  0  0  0
   -2.8243   -1.6195   -0.5741 C   0  0  0  0  0  0  0  0  0  0  0  0
   -2.4355   -1.8210   -1.9087 C   0  0  0  0  0  0  0  0  0  0  0  0
   -1.9155   -3.0474   -2.3182 C   0  0  0  0  0  0  0  0  0  0  0  0
   -1.7777   -4.0814   -1.3971 C   0  0  0  0  0  0  0  0  0  0  0  0
   -2.1550   -3.8930   -0.0641 C   0  0  0  0  0  0  0  0  0  0  0  0
   -2.6792   -2.6660    0.3606 C   0  0  0  0  0  0  0  0  0  0  0  0
   -3.0579   -2.3904    1.6510 O   0  0  0  0  0  0  0  0  0  0  0  0
   -2.9805   -3.4451    2.5990 C   0  0  0  0  0  0  0  0  0  0  0  0
   -5.0514   -0.1004   -0.1328 S   0  0  0  0  0  0  0  0  0  0  0  0
   -4.9245    1.5517    0.3281 C   0  0  0  0  0  0  0  0  0  0  0  0
   -5.9950    2.4386    0.5815 C   0  0  0  0  0  0  0  0  0  0  0  0
   -8.6153    5.2202    1.4009 H   0  0  0  0  0  0  0  0  0  0  0  0
   -8.2551    3.5459    1.8349 H   0  0  0  0  0  0  0  0  0  0  0  0
   -8.2669    4.0688    0.1053 H   0  0  0  0  0  0  0  0  0  0  0  0
   -4.1753    5.2000    1.3512 H   0  0  0  0  0  0  0  0  0  0  0  0
   -2.3114    3.6461    0.9078 H   0  0  0  0  0  0  0  0  0  0  0  0
   -1.0037   -0.2447    1.9239 H   0  0  0  0  0  0  0  0  0  0  0  0
    1.4348   -0.1325    1.9372 H   0  0  0  0  0  0  0  0  0  0  0  0
    3.5227    1.0084    1.9802 H   0  0  0  0  0  0  0  0  0  0  0  0
    3.5327   -0.5036    1.0332 H   0  0  0  0  0  0  0  0  0  0  0  0
    5.3612    1.8870    0.4380 H   0  0  0  0  0  0  0  0  0  0  0  0
    5.8009    0.6690    1.6144 H   0  0  0  0  0  0  0  0  0  0  0  0
    6.4731   -1.5075    0.9482 H   0  0  0  0  0  0  0  0  0  0  0  0
    5.0027   -1.8693    0.0372 H   0  0  0  0  0  0  0  0  0  0  0  0
    7.8672   -1.7628   -1.0311 H   0  0  0  0  0  0  0  0  0  0  0  0
    6.8708   -3.2017   -0.8217 H   0  0  0  0  0  0  0  0  0  0  0  0
    5.3185   -2.4739   -2.5588 H   0  0  0  0  0  0  0  0  0  0  0  0
    6.9555   -2.3934   -3.2099 H   0  0  0  0  0  0  0  0  0  0  0  0
    7.0495    0.0266   -2.8644 H   0  0  0  0  0  0  0  0  0  0  0  0
    5.5715   -0.3540   -3.7460 H   0  0  0  0  0  0  0  0  0  0  0  0
    5.1833    1.2841   -1.9222 H   0  0  0  0  0  0  0  0  0  0  0  0
    4.2298   -0.1913   -1.7003 H   0  0  0  0  0  0  0  0  0  0  0  0
    1.3480    2.2589   -1.6510 H   0  0  0  0  0  0  0  0  0  0  0  0
   -1.1185    2.1437   -1.6622 H   0  0  0  0  0  0  0  0  0  0  0  0
   -2.5371   -1.0160   -2.6334 H   0  0  0  0  0  0  0  0  0  0  0  0
   -1.6183   -3.1932   -3.3535 H   0  0  0  0  0  0  0  0  0  0  0  0
   -1.3713   -5.0387   -1.7146 H   0  0  0  0  0  0  0  0  0  0  0  0
   -2.0226   -4.7256    0.6187 H   0  0  0  0  0  0  0  0  0  0  0  0
   -3.3627   -3.0671    3.5524 H   0  0  0  0  0  0  0  0  0  0  0  0
   -3.6069   -4.2930    2.3040 H   0  0  0  0  0  0  0  0  0  0  0  0
   -1.9425   -3.7534    2.7566 H   0  0  0  0  0  0  0  0  0  0  0  0
   -7.0100    2.0717    0.4850 H   0  0  0  0  0  0  0  0  0  0  0  0
  1  2  1  0
  2  3  1  0
  3  4  2  0
  4  5  1  0
  5  6  2  0
  6  7  1  0
  7  8  1  0
  8  9  2  0
  9 10  1  0
 10 11  2  0
 11 12  1  0
 12 13  1  0
 13 14  1  0
 14 15  1  0
 15 16  1  0
 16 17  1  0
 17 18  1  0
 18 19  1  0
 19 20  1  0
 11 21  1  0
 21 22  2  0
  7 23  2  0
 23 24  1  0
 24 25  2  0
 25 26  1  0
 26 27  2  0
 27 28  1  0
 28 29  2  0
 29 30  1  0
 30 31  1  0
 23 32  1  0
 32 33  1  0
 33 34  2  0
 34  3  1  0
 33  6  1  0
 22  8  1  0
 29 24  1  0
 20 15  1  0
  1 35  1  0
  1 36  1  0
  1 37  1  0
  4 38  1  0
  5 39  1  0
  9 40  1  0
 10 41  1  0
 13 42  1  0
 13 43  1  0
 14 44  1  0
 14 45  1  0
 16 46  1  0
 16 47  1  0
 17 48  1  0
 17 49  1  0
 18 50  1  0
 18 51  1  0
 19 52  1  0
 19 53  1  0
 20 54  1  0
 20 55  1  0
 21 56  1  0
 22 57  1  0
 25 58  1  0
 26 59  1  0
 27 60  1  0
 28 61  1  0
 31 62  1  0
 31 63  1  0
 31 64  1  0
 34 65  1  0
M  END
$$$$
