
     RDKit          3D

 49 51  0  0  0  0  0  0  0  0999 V2000
    6.0399    2.0477   -2.5179 C   0  0  0  0  0  0  0  0  0  0  0  0
    6.0163    1.7509   -1.1298 O   0  0  0  0  0  0  0  0  0  0  0  0
    4.8558    1.2374   -0.6050 C   0  0  0  0  0  0  0  0  0  0  0  0
    3.6957    0.9862   -1.3460 C   0  0  0  0  0  0  0  0  0  0  0  0
    2.5525    0.4519   -0.7317 C   0  0  0  0  0  0  0  0  0  0  0  0
    2.5576    0.1904    0.6467 C   0  0  0  0  0  0  0  0  0  0  0  0
    3.7258    0.4383    1.3875 C   0  0  0  0  0  0  0  0  0  0  0  0
    4.8717    0.9587    0.7750 C   0  0  0  0  0  0  0  0  0  0  0  0
    6.0477    1.2285    1.4310 O   0  0  0  0  0  0  0  0  0  0  0  0
    6.0955    0.9866    2.8294 C   0  0  0  0  0  0  0  0  0  0  0  0
    1.3473   -0.3802    1.3571 C   0  0  0  0  0  0  0  0  0  0  0  0
    0.1324   -0.4345    0.5295 N   0  0  0  0  0  0  0  0  0  0  0  0
   -1.1416   -0.6327    1.1135 C   0  0  0  0  0  0  0  0  0  0  0  0
   -1.3729   -1.0050    2.7381 S   0  0  0  0  0  0  0  0  0  0  0  0
   -2.1610   -0.3840    0.2020 N   0  0  0  0  0  0  0  0  0  0  0  0
   -3.5214   -0.7746    0.1984 C   0  0  0  0  0  0  0  0  0  0  0  0
   -3.9548   -1.9484    0.8236 C   0  0  0  0  0  0  0  0  0  0  0  0
   -5.2949   -2.3425    0.7694 C   0  0  0  0  0  0  0  0  0  0  0  0
   -6.2273   -1.5845    0.0617 C   0  0  0  0  0  0  0  0  0  0  0  0
   -7.6718   -1.9860    0.0319 C   0  0  0  0  0  0  0  0  0  0  0  0
   -5.8000   -0.4163   -0.5779 C   0  0  0  0  0  0  0  0  0  0  0  0
   -4.4540   -0.0059   -0.5291 C   0  0  0  0  0  0  0  0  0  0  0  0
   -4.0677    1.2593   -1.2476 C   0  0  0  0  0  0  0  0  0  0  0  0
    0.3862   -0.8025   -0.8705 C   0  0  0  0  0  0  0  0  0  0  0  0
    1.3053    0.2129   -1.5428 C   0  0  0  0  0  0  0  0  0  0  0  0
    7.0315    2.4429   -2.7587 H   0  0  0  0  0  0  0  0  0  0  0  0
    5.8882    1.1445   -3.1180 H   0  0  0  0  0  0  0  0  0  0  0  0
    5.3052    2.8195   -2.7697 H   0  0  0  0  0  0  0  0  0  0  0  0
    3.6548    1.1976   -2.4096 H   0  0  0  0  0  0  0  0  0  0  0  0
    3.7125    0.2167    2.4504 H   0  0  0  0  0  0  0  0  0  0  0  0
    7.0925    1.2661    3.1833 H   0  0  0  0  0  0  0  0  0  0  0  0
    5.9504   -0.0757    3.0516 H   0  0  0  0  0  0  0  0  0  0  0  0
    5.3680    1.6069    3.3634 H   0  0  0  0  0  0  0  0  0  0  0  0
    1.5763   -1.4042    1.6772 H   0  0  0  0  0  0  0  0  0  0  0  0
    1.1451    0.2352    2.2407 H   0  0  0  0  0  0  0  0  0  0  0  0
   -1.9227    0.3671   -0.4297 H   0  0  0  0  0  0  0  0  0  0  0  0
   -3.2595   -2.6030    1.3393 H   0  0  0  0  0  0  0  0  0  0  0  0
   -5.5979   -3.2545    1.2789 H   0  0  0  0  0  0  0  0  0  0  0  0
   -7.7779   -3.0731    0.1099 H   0  0  0  0  0  0  0  0  0  0  0  0
   -8.2073   -1.5182    0.8638 H   0  0  0  0  0  0  0  0  0  0  0  0
   -8.1423   -1.6812   -0.9089 H   0  0  0  0  0  0  0  0  0  0  0  0
   -6.5272    0.1846   -1.1216 H   0  0  0  0  0  0  0  0  0  0  0  0
   -3.6098    1.9688   -0.5508 H   0  0  0  0  0  0  0  0  0  0  0  0
   -4.9379    1.7553   -1.6908 H   0  0  0  0  0  0  0  0  0  0  0  0
   -3.3674    1.0355   -2.0588 H   0  0  0  0  0  0  0  0  0  0  0  0
    0.8501   -1.7979   -0.8589 H   0  0  0  0  0  0  0  0  0  0  0  0
   -0.5356   -0.9033   -1.4497 H   0  0  0  0  0  0  0  0  0  0  0  0
    0.7809    1.1698   -1.6551 H   0  0  0  0  0  0  0  0  0  0  0  0
    1.5674   -0.1512   -2.5429 H   0  0  0  0  0  0  0  0  0  0  0  0
  1  2  1  0
  2  3  1  0
  3  4  2  0
  4  5  1  0
  5  6  2  0
  6  7  1  0
  7  8  2  0
  8  9  1  0
  9 10  1  0
  6 11  1  0
 11 12  1  0
 12 13  1  0
 13 14  2  0
 13 15  1  0
 15 16  1  0
 16 17  2  0
 17 18  1  0
 18 19  2  0
 19 20  1  0
 19 21  1  0
 21 22  2  0
 22 23  1  0
 12 24  1  0
 24 25  1  0
  8  3  1  0
 22 16  1  0
 25  5  1  0
  1 26  1  0
  1 27  1  0
  1 28  1  0
  4 29  1  0
  7 30  1  0
 10 31  1  0
 10 32  1  0
 10 33  1  0
 11 34  1  0
 11 35  1  0
 15 36  1  0
 17 37  1  0
 18 38  1  0
 20 39  1  0
 20 40  1  0
 20 41  1  0
 21 42  1  0
 23 43  1  0
 23 44  1  0
 23 45  1  0
 24 46  1  0
 24 47  1  0
 25 48  1  0
 25 49  1  0
M  END
$$$$
