
     RDKit          3D

 30 31  0  0  0  0  0  0  0  0999 V2000
   -2.4129    2.7141   -1.6807 C   0  0  0  0  0  0  0  0  0  0  0  0
   -2.0796    1.6470   -0.7022 C   0  0  0  0  0  0  0  0  0  0  0  0
   -2.4379    1.7875    0.5818 N   0  0  0  0  0  0  0  0  0  0  0  0
   -2.0123    0.6513    1.1740 N   0  0  0  0  0  0  0  0  0  0  0  0
   -2.2863    0.4625    2.5817 C   0  0  0  0  0  0  0  0  0  0  0  0
   -1.3464   -0.1892    0.3178 C   0  0  0  0  0  0  0  0  0  0  0  0
   -0.6344   -1.6745    0.8823 S   0  0  0  0  0  0  0  0  0  0  0  0
    1.0960   -1.2401    0.6625 C   0  0  0  0  0  0  0  0  0  0  0  0
    1.6858   -0.3353    1.5592 C   0  0  0  0  0  0  0  0  0  0  0  0
    3.0354   -0.0023    1.4445 C   0  0  0  0  0  0  0  0  0  0  0  0
    3.8106   -0.5891    0.4497 C   0  0  0  0  0  0  0  0  0  0  0  0
    3.2340   -1.4975   -0.4399 C   0  0  0  0  0  0  0  0  0  0  0  0
    1.8673   -1.7993   -0.3783 C   0  0  0  0  0  0  0  0  0  0  0  0
    1.3609   -2.8064   -1.2223 N   0  0  0  0  0  0  0  0  0  0  0  0
   -1.4145    0.4145   -0.9227 C   0  0  0  0  0  0  0  0  0  0  0  0
   -0.9240   -0.0896   -2.1661 N   0  0  0  0  0  4  0  0  0  0  0  0
   -0.9625   -1.3148   -2.3427 O   0  0  0  0  0  0  0  0  0  0  0  0
   -0.5235    0.7435   -2.9885 O   0  0  0  0  0  1  0  0  0  0  0  0
   -3.0858    3.4604   -1.2453 H   0  0  0  0  0  0  0  0  0  0  0  0
   -1.5041    3.2299   -2.0064 H   0  0  0  0  0  0  0  0  0  0  0  0
   -2.9103    2.2913   -2.5594 H   0  0  0  0  0  0  0  0  0  0  0  0
   -2.9081    1.2856    2.9447 H   0  0  0  0  0  0  0  0  0  0  0  0
   -2.8224   -0.4808    2.7109 H   0  0  0  0  0  0  0  0  0  0  0  0
   -1.3374    0.4537    3.1227 H   0  0  0  0  0  0  0  0  0  0  0  0
    1.1053    0.1069    2.3640 H   0  0  0  0  0  0  0  0  0  0  0  0
    3.4860    0.6971    2.1442 H   0  0  0  0  0  0  0  0  0  0  0  0
    4.8694   -0.3549    0.3737 H   0  0  0  0  0  0  0  0  0  0  0  0
    3.8631   -1.9729   -1.1885 H   0  0  0  0  0  0  0  0  0  0  0  0
    1.8384   -2.8711   -2.1156 H   0  0  0  0  0  0  0  0  0  0  0  0
    0.3502   -2.7273   -1.3551 H   0  0  0  0  0  0  0  0  0  0  0  0
  1  2  1  0
  2  3  2  0
  3  4  1  0
  4  5  1  0
  4  6  1  0
  6  7  1  0
  7  8  1  0
  8  9  2  0
  9 10  1  0
 10 11  2  0
 11 12  1  0
 12 13  2  0
 13 14  1  0
  6 15  2  0
 15 16  1  0
 16 17  2  0
 16 18  1  0
 15  2  1  0
 13  8  1  0
  1 19  1  0
  1 20  1  0
  1 21  1  0
  5 22  1  0
  5 23  1  0
  5 24  1  0
  9 25  1  0
 10 26  1  0
 11 27  1  0
 12 28  1  0
 14 29  1  0
 14 30  1  0
M  CHG  2  16   1  18  -1
M  END
$$$$
