
     RDKit          3D

 29 31  0  0  0  0  0  0  0  0999 V2000
    2.6014    2.0144    1.1945 N   0  0  0  0  0  0  0  0  0  0  0  0
    2.2461    0.9245    0.3728 C   0  0  0  0  0  0  0  0  0  0  0  0
    0.9245    0.4020    0.5109 C   0  0  0  0  0  0  0  0  0  0  0  0
    0.4216   -0.7460   -0.1571 C   0  0  0  0  0  0  0  0  0  0  0  0
   -0.8860   -1.2279   -0.0095 N   0  0  0  0  0  0  0  0  0  0  0  0
   -2.1046   -0.5641    0.2312 C   0  0  0  0  0  0  0  0  0  0  0  0
   -2.2878    0.8107    0.0484 C   0  0  0  0  0  0  0  0  0  0  0  0
   -3.5157    1.4169    0.3339 C   0  0  0  0  0  0  0  0  0  0  0  0
   -4.5772    0.6549    0.8144 C   0  0  0  0  0  0  0  0  0  0  0  0
   -4.4123   -0.7134    1.0067 C   0  0  0  0  0  0  0  0  0  0  0  0
   -3.1848   -1.3154    0.7179 C   0  0  0  0  0  0  0  0  0  0  0  0
    1.3962   -1.4090   -0.9472 C   0  0  0  0  0  0  0  0  0  0  0  0
    1.2579   -2.5186   -1.6867 N   0  0  0  0  0  0  0  0  0  0  0  0
    2.4925   -2.7438   -2.2656 O   0  0  0  0  0  0  0  0  0  0  0  0
    3.4111   -1.7791   -1.9008 N   0  0  0  0  0  0  0  0  0  0  0  0
    2.7705   -0.9429   -1.0710 C   0  0  0  0  0  0  0  0  0  0  0  0
    3.1953    0.2089   -0.3886 C   0  0  0  0  0  0  0  0  0  0  0  0
    4.5642    0.6199   -0.5138 N   0  0  0  0  0  4  0  0  0  0  0  0
    4.7668    1.8162   -0.7741 O   0  0  0  0  0  0  0  0  0  0  0  0
    5.4454   -0.2269   -0.3204 O   0  0  0  0  0  1  0  0  0  0  0  0
    1.8287    2.6182    1.4660 H   0  0  0  0  0  0  0  0  0  0  0  0
    3.3958    2.5621    0.8534 H   0  0  0  0  0  0  0  0  0  0  0  0
    0.2535    0.9102    1.2060 H   0  0  0  0  0  0  0  0  0  0  0  0
   -1.0290   -2.1147   -0.4943 H   0  0  0  0  0  0  0  0  0  0  0  0
   -1.4928    1.4297   -0.3549 H   0  0  0  0  0  0  0  0  0  0  0  0
   -3.6431    2.4844    0.1739 H   0  0  0  0  0  0  0  0  0  0  0  0
   -5.5310    1.1261    1.0366 H   0  0  0  0  0  0  0  0  0  0  0  0
   -5.2355   -1.3136    1.3853 H   0  0  0  0  0  0  0  0  0  0  0  0
   -3.0717   -2.3834    0.8900 H   0  0  0  0  0  0  0  0  0  0  0  0
  1  2  1  0
  2  3  1  0
  3  4  2  0
  4  5  1  0
  5  6  1  0
  6  7  2  0
  7  8  1  0
  8  9  2  0
  9 10  1  0
 10 11  2  0
  4 12  1  0
 12 13  2  0
 13 14  1  0
 14 15  1  0
 15 16  2  0
 16 17  1  0
 17 18  1  0
 18 19  2  0
 18 20  1  0
 17  2  2  0
 11  6  1  0
 16 12  1  0
  1 21  1  0
  1 22  1  0
  3 23  1  0
  5 24  1  0
  7 25  1  0
  8 26  1  0
  9 27  1  0
 10 28  1  0
 11 29  1  0
M  CHG  2  18   1  20  -1
M  END
$$$$
