
     RDKit          3D

 48 50  0  0  0  0  0  0  0  0999 V2000
    4.6704   -4.6011    0.7546 C   0  0  0  0  0  0  0  0  0  0  0  0
    4.2677   -3.1933    0.4271 C   0  0  0  0  0  0  0  0  0  0  0  0
    5.2325   -2.2329    0.1146 C   0  0  0  0  0  0  0  0  0  0  0  0
    4.8919   -0.9105   -0.2389 C   0  0  0  0  0  0  0  0  0  0  0  0
    5.9920    0.0708   -0.5334 C   0  0  0  0  0  0  0  0  0  0  0  0
    3.5165   -0.5868   -0.2479 C   0  0  0  0  0  0  0  0  0  0  0  0
    2.7358    0.9104   -0.6032 S   0  0  0  0  0  0  0  0  0  0  0  0
    1.2048    0.2125   -0.3001 C   0  0  0  0  0  0  0  0  0  0  0  0
    0.0242    0.9383   -0.4924 N   0  0  0  0  0  0  0  0  0  0  0  0
   -1.2542    0.2033   -0.4498 C   0  0  0  0  0  0  0  0  0  0  0  0
   -1.7621    0.0286    0.9863 C   0  0  0  0  0  0  0  0  0  0  0  0
   -3.0548   -0.7931    1.0496 C   0  0  0  0  0  0  0  0  0  0  0  0
   -4.1609   -0.2216    0.2640 N   0  0  0  0  0  0  0  0  0  0  0  0
   -4.6755    1.0151    0.8579 C   0  0  0  0  0  0  0  0  0  0  0  0
   -5.2489   -1.1976    0.1439 C   0  0  0  0  0  0  0  0  0  0  0  0
    0.0359    2.3376   -0.3478 C   0  0  0  0  0  0  0  0  0  0  0  0
    0.8564    2.9389    0.3455 O   0  0  0  0  0  0  0  0  0  0  0  0
   -1.0279    3.0843   -1.0080 C   0  0  0  0  0  0  0  0  0  0  0  0
   -1.8283    4.0716   -0.4614 C   0  0  0  0  0  0  0  0  0  0  0  0
   -2.7347    4.6245   -1.4151 C   0  0  0  0  0  0  0  0  0  0  0  0
   -2.5493    4.0652   -2.6537 C   0  0  0  0  0  0  0  0  0  0  0  0
   -3.5668    4.5557   -4.1949 Br  0  0  0  0  0  0  0  0  0  0  0  0
   -1.3117    2.9097   -2.6926 S   0  0  0  0  0  0  0  0  0  0  0  0
    1.2236   -1.0700   -0.0154 N   0  0  0  0  0  0  0  0  0  0  0  0
    2.5287   -1.5280    0.0497 C   0  0  0  0  0  0  0  0  0  0  0  0
    2.9128   -2.8438    0.3779 C   0  0  0  0  0  0  0  0  0  0  0  0
    3.9722   -5.0489    1.4698 H   0  0  0  0  0  0  0  0  0  0  0  0
    5.6648   -4.6283    1.2124 H   0  0  0  0  0  0  0  0  0  0  0  0
    4.6840   -5.2077   -0.1560 H   0  0  0  0  0  0  0  0  0  0  0  0
    6.2859   -2.5127    0.1415 H   0  0  0  0  0  0  0  0  0  0  0  0
    6.4288    0.4271    0.4045 H   0  0  0  0  0  0  0  0  0  0  0  0
    5.6303    0.9335   -1.0994 H   0  0  0  0  0  0  0  0  0  0  0  0
    6.7772   -0.4032   -1.1321 H   0  0  0  0  0  0  0  0  0  0  0  0
   -2.0086    0.7314   -1.0356 H   0  0  0  0  0  0  0  0  0  0  0  0
   -1.1195   -0.7704   -0.9370 H   0  0  0  0  0  0  0  0  0  0  0  0
   -1.9016    1.0072    1.4599 H   0  0  0  0  0  0  0  0  0  0  0  0
   -1.0011   -0.4854    1.5867 H   0  0  0  0  0  0  0  0  0  0  0  0
   -3.3509   -0.9241    2.0984 H   0  0  0  0  0  0  0  0  0  0  0  0
   -2.8182   -1.7943    0.6652 H   0  0  0  0  0  0  0  0  0  0  0  0
   -3.9121    1.7992    0.8668 H   0  0  0  0  0  0  0  0  0  0  0  0
   -5.5063    1.4098    0.2615 H   0  0  0  0  0  0  0  0  0  0  0  0
   -5.0312    0.8646    1.8835 H   0  0  0  0  0  0  0  0  0  0  0  0
   -6.0579   -0.7981   -0.4782 H   0  0  0  0  0  0  0  0  0  0  0  0
   -4.8962   -2.1084   -0.3532 H   0  0  0  0  0  0  0  0  0  0  0  0
   -5.6661   -1.4746    1.1189 H   0  0  0  0  0  0  0  0  0  0  0  0
   -1.7677    4.3733    0.5783 H   0  0  0  0  0  0  0  0  0  0  0  0
   -3.4634    5.3958   -1.1974 H   0  0  0  0  0  0  0  0  0  0  0  0
    2.1395   -3.5741    0.5978 H   0  0  0  0  0  0  0  0  0  0  0  0
  1  2  1  0
  2  3  2  0
  3  4  1  0
  4  5  1  0
  4  6  2  0
  6  7  1  0
  7  8  1  0
  8  9  1  0
  9 10  1  0
 10 11  1  0
 11 12  1  0
 12 13  1  0
 13 14  1  0
 13 15  1  0
  9 16  1  0
 16 17  2  0
 16 18  1  0
 18 19  2  0
 19 20  1  0
 20 21  2  0
 21 22  1  0
 21 23  1  0
  8 24  2  0
 24 25  1  0
 25 26  2  0
 26  2  1  0
 25  6  1  0
 23 18  1  0
  1 27  1  0
  1 28  1  0
  1 29  1  0
  3 30  1  0
  5 31  1  0
  5 32  1  0
  5 33  1  0
 10 34  1  0
 10 35  1  0
 11 36  1  0
 11 37  1  0
 12 38  1  0
 12 39  1  0
 14 40  1  0
 14 41  1  0
 14 42  1  0
 15 43  1  0
 15 44  1  0
 15 45  1  0
 19 46  1  0
 20 47  1  0
 26 48  1  0
M  END
$$$$
