
     RDKit          3D

 46 49  0  0  0  0  0  0  0  0999 V2000
   -2.7099   -2.7539    1.3614 O   0  0  0  0  0  0  0  0  0  0  0  0
   -2.1608   -1.7974    0.8068 C   0  0  0  0  0  0  0  0  0  0  0  0
   -0.8567   -1.9610    0.4075 N   0  0  0  0  0  0  0  0  0  0  0  0
   -0.0937   -1.0634   -0.3508 C   0  0  0  0  0  0  0  0  0  0  0  0
    1.2709   -1.3293   -0.4930 C   0  0  0  0  0  0  0  0  0  0  0  0
    2.0702   -0.4687   -1.2509 C   0  0  0  0  0  0  0  0  0  0  0  0
    3.5039   -0.7861   -1.4045 C   0  0  0  0  0  0  0  0  0  0  0  0
    3.7842   -1.8562   -1.9377 O   0  0  0  0  0  0  0  0  0  0  0  0
    4.4505    0.1131   -0.9299 N   0  0  0  0  0  0  0  0  0  0  0  0
    5.8455   -0.0680   -1.3402 C   0  0  0  0  0  0  0  0  0  0  0  0
    6.8204    0.3524   -0.2386 C   0  0  0  0  0  0  0  0  0  0  0  0
    6.5429    1.6863    0.2145 O   0  0  0  0  0  0  0  0  0  0  0  0
    5.2196    1.7588    0.7607 C   0  0  0  0  0  0  0  0  0  0  0  0
    4.1624    1.4028   -0.2904 C   0  0  0  0  0  0  0  0  0  0  0  0
    1.5080    0.6238   -1.9148 C   0  0  0  0  0  0  0  0  0  0  0  0
    0.1411    0.8759   -1.7867 C   0  0  0  0  0  0  0  0  0  0  0  0
   -0.6646    0.0415   -0.9994 C   0  0  0  0  0  0  0  0  0  0  0  0
   -2.4143    0.3565   -0.9584 S   0  0  0  0  0  0  0  0  0  0  0  0
   -2.8027   -0.3904    0.6568 C   0  0  0  0  0  0  0  0  0  0  0  0
   -4.2409   -0.4224    0.9770 N   0  0  0  0  0  0  0  0  0  0  0  0
   -5.0895   -1.2225    0.0783 C   0  0  0  0  0  0  0  0  0  0  0  0
   -6.1301   -0.3831   -0.6837 C   0  0  0  0  0  0  0  0  0  0  0  0
   -6.9840    0.3888    0.1711 O   0  0  0  0  0  0  0  0  0  0  0  0
   -6.3554    0.7828    1.3976 C   0  0  0  0  0  0  0  0  0  0  0  0
   -4.8267    0.8873    1.2860 C   0  0  0  0  0  0  0  0  0  0  0  0
   -0.4551   -2.8526    0.6734 H   0  0  0  0  0  0  0  0  0  0  0  0
    1.7256   -2.1980   -0.0223 H   0  0  0  0  0  0  0  0  0  0  0  0
    6.0390   -1.1030   -1.6385 H   0  0  0  0  0  0  0  0  0  0  0  0
    5.9880    0.5683   -2.2221 H   0  0  0  0  0  0  0  0  0  0  0  0
    6.7685   -0.3327    0.6160 H   0  0  0  0  0  0  0  0  0  0  0  0
    7.8462    0.3351   -0.6197 H   0  0  0  0  0  0  0  0  0  0  0  0
    5.0597    2.7805    1.1190 H   0  0  0  0  0  0  0  0  0  0  0  0
    5.1536    1.0876    1.6254 H   0  0  0  0  0  0  0  0  0  0  0  0
    3.1750    1.3970    0.1781 H   0  0  0  0  0  0  0  0  0  0  0  0
    4.1663    2.1529   -1.0897 H   0  0  0  0  0  0  0  0  0  0  0  0
    2.1204    1.2603   -2.5487 H   0  0  0  0  0  0  0  0  0  0  0  0
   -0.2951    1.7165   -2.3235 H   0  0  0  0  0  0  0  0  0  0  0  0
   -2.3056    0.2198    1.4232 H   0  0  0  0  0  0  0  0  0  0  0  0
   -5.6289   -1.9394    0.7099 H   0  0  0  0  0  0  0  0  0  0  0  0
   -4.5083   -1.8172   -0.6353 H   0  0  0  0  0  0  0  0  0  0  0  0
   -6.7730   -1.0383   -1.2804 H   0  0  0  0  0  0  0  0  0  0  0  0
   -5.6393    0.3060   -1.3803 H   0  0  0  0  0  0  0  0  0  0  0  0
   -6.6406    0.0616    2.1728 H   0  0  0  0  0  0  0  0  0  0  0  0
   -6.7782    1.7508    1.6854 H   0  0  0  0  0  0  0  0  0  0  0  0
   -4.5885    1.6220    0.5082 H   0  0  0  0  0  0  0  0  0  0  0  0
   -4.4197    1.2554    2.2342 H   0  0  0  0  0  0  0  0  0  0  0  0
  1  2  2  0
  2  3  1  0
  3  4  1  0
  4  5  2  0
  5  6  1  0
  6  7  1  0
  7  8  2  0
  7  9  1  0
  9 10  1  0
 10 11  1  0
 11 12  1  0
 12 13  1  0
 13 14  1  0
  6 15  2  0
 15 16  1  0
 16 17  2  0
 17 18  1  0
 18 19  1  0
 19 20  1  0
 20 21  1  0
 21 22  1  0
 22 23  1  0
 23 24  1  0
 24 25  1  0
 19  2  1  0
 25 20  1  0
 17  4  1  0
 14  9  1  0
  3 26  1  0
  5 27  1  0
 10 28  1  0
 10 29  1  0
 11 30  1  0
 11 31  1  0
 13 32  1  0
 13 33  1  0
 14 34  1  0
 14 35  1  0
 15 36  1  0
 16 37  1  0
 19 38  1  0
 21 39  1  0
 21 40  1  0
 22 41  1  0
 22 42  1  0
 24 43  1  0
 24 44  1  0
 25 45  1  0
 25 46  1  0
M  END
$$$$
