
     RDKit          3D

 47 50  0  0  0  0  0  0  0  0999 V2000
   -1.0445    1.9769    0.8377 O   0  0  0  0  0  0  0  0  0  0  0  0
   -0.2796    1.9211   -0.1291 C   0  0  0  0  0  0  0  0  0  0  0  0
   -0.6801    2.5715   -1.4451 C   0  0  0  0  0  0  0  0  0  0  0  0
   -1.5582    1.3750   -2.4886 S   0  0  0  0  0  0  0  0  0  0  0  0
   -3.0843    1.3455   -1.6618 C   0  0  0  0  0  0  0  0  0  0  0  0
   -3.8061    2.4140   -1.3957 N   0  0  0  0  0  0  0  0  0  0  0  0
   -4.9438    1.9684   -0.7544 N   0  0  0  0  0  0  0  0  0  0  0  0
   -4.8371    0.6567   -0.6751 C   0  0  0  0  0  0  0  0  0  0  0  0
   -5.7463   -0.3242   -0.0961 C   0  0  0  0  0  0  0  0  0  0  0  0
   -6.9461    0.1044    0.4928 C   0  0  0  0  0  0  0  0  0  0  0  0
   -7.8368   -0.8142    1.0542 C   0  0  0  0  0  0  0  0  0  0  0  0
   -7.5387   -2.1747    1.0343 C   0  0  0  0  0  0  0  0  0  0  0  0
   -6.3518   -2.6175    0.4547 C   0  0  0  0  0  0  0  0  0  0  0  0
   -5.4608   -1.6984   -0.1070 C   0  0  0  0  0  0  0  0  0  0  0  0
   -3.6835    0.1880   -1.2482 O   0  0  0  0  0  0  0  0  0  0  0  0
    0.9593    1.2885   -0.0427 N   0  0  0  0  0  0  0  0  0  0  0  0
    1.7019    0.7839   -1.2093 C   0  0  0  0  0  0  0  0  0  0  0  0
    3.2083    0.6160   -0.9320 C   0  0  0  0  0  0  0  0  0  0  0  0
    3.4232   -0.1972    0.2801 N   0  0  0  0  0  0  0  0  0  0  0  0
    4.7287   -0.6461    0.5453 C   0  0  0  0  0  0  0  0  0  0  0  0
    5.8742   -0.1138   -0.0644 C   0  0  0  0  0  0  0  0  0  0  0  0
    7.1530   -0.6026    0.2309 C   0  0  0  0  0  0  0  0  0  0  0  0
    7.3126   -1.6444    1.1386 C   0  0  0  0  0  0  0  0  0  0  0  0
    6.1933   -2.2000    1.7471 C   0  0  0  0  0  0  0  0  0  0  0  0
    4.9195   -1.7060    1.4490 C   0  0  0  0  0  0  0  0  0  0  0  0
    2.7537    0.3827    1.4706 C   0  0  0  0  0  0  0  0  0  0  0  0
    1.2490    0.5719    1.2079 C   0  0  0  0  0  0  0  0  0  0  0  0
    0.1936    2.9652   -1.9695 H   0  0  0  0  0  0  0  0  0  0  0  0
   -1.3115    3.4406   -1.2296 H   0  0  0  0  0  0  0  0  0  0  0  0
   -7.1945    1.1647    0.5186 H   0  0  0  0  0  0  0  0  0  0  0  0
   -8.7615   -0.4654    1.5072 H   0  0  0  0  0  0  0  0  0  0  0  0
   -8.2311   -2.8897    1.4718 H   0  0  0  0  0  0  0  0  0  0  0  0
   -6.1174   -3.6791    0.4398 H   0  0  0  0  0  0  0  0  0  0  0  0
   -4.5398   -2.0694   -0.5520 H   0  0  0  0  0  0  0  0  0  0  0  0
    1.5769    1.4419   -2.0708 H   0  0  0  0  0  0  0  0  0  0  0  0
    1.2595   -0.1858   -1.4692 H   0  0  0  0  0  0  0  0  0  0  0  0
    3.6636    0.1348   -1.8061 H   0  0  0  0  0  0  0  0  0  0  0  0
    3.6584    1.6092   -0.8052 H   0  0  0  0  0  0  0  0  0  0  0  0
    5.8043    0.7062   -0.7717 H   0  0  0  0  0  0  0  0  0  0  0  0
    8.0232   -0.1653   -0.2514 H   0  0  0  0  0  0  0  0  0  0  0  0
    8.3043   -2.0254    1.3657 H   0  0  0  0  0  0  0  0  0  0  0  0
    6.3043   -3.0231    2.4476 H   0  0  0  0  0  0  0  0  0  0  0  0
    4.0584   -2.1790    1.9151 H   0  0  0  0  0  0  0  0  0  0  0  0
    3.2084    1.3549    1.7030 H   0  0  0  0  0  0  0  0  0  0  0  0
    2.8624   -0.2541    2.3557 H   0  0  0  0  0  0  0  0  0  0  0  0
    0.7570   -0.4063    1.1333 H   0  0  0  0  0  0  0  0  0  0  0  0
    0.8028    1.0999    2.0579 H   0  0  0  0  0  0  0  0  0  0  0  0
  1  2  2  0
  2  3  1  0
  3  4  1  0
  4  5  1  0
  5  6  2  0
  6  7  1  0
  7  8  2  0
  8  9  1  0
  9 10  2  0
 10 11  1  0
 11 12  2  0
 12 13  1  0
 13 14  2  0
  8 15  1  0
  2 16  1  0
 16 17  1  0
 17 18  1  0
 18 19  1  0
 19 20  1  0
 20 21  2  0
 21 22  1  0
 22 23  2  0
 23 24  1  0
 24 25  2  0
 19 26  1  0
 26 27  1  0
 15  5  1  0
 27 16  1  0
 14  9  1  0
 25 20  1  0
  3 28  1  0
  3 29  1  0
 10 30  1  0
 11 31  1  0
 12 32  1  0
 13 33  1  0
 14 34  1  0
 17 35  1  0
 17 36  1  0
 18 37  1  0
 18 38  1  0
 21 39  1  0
 22 40  1  0
 23 41  1  0
 24 42  1  0
 25 43  1  0
 26 44  1  0
 26 45  1  0
 27 46  1  0
 27 47  1  0
M  END
$$$$
