
     RDKit          3D

 37 38  0  0  0  0  0  0  0  0999 V2000
    3.9030    1.5794   -2.2645 C   0  0  0  0  0  0  0  0  0  0  0  0
    2.8918    1.4322   -1.2767 O   0  0  0  0  0  0  0  0  0  0  0  0
    2.7955    0.2192   -0.6454 C   0  0  0  0  0  0  0  0  0  0  0  0
    3.7130   -0.8259   -0.7890 C   0  0  0  0  0  0  0  0  0  0  0  0
    3.5369   -2.0230   -0.0910 C   0  0  0  0  0  0  0  0  0  0  0  0
    2.4320   -2.1922    0.7415 C   0  0  0  0  0  0  0  0  0  0  0  0
    1.4889   -1.1654    0.8809 C   0  0  0  0  0  0  0  0  0  0  0  0
    0.3373   -1.4272    1.7756 C   0  0  0  0  0  0  0  0  0  0  0  0
    0.4326   -2.1438    2.7621 O   0  0  0  0  0  0  0  0  0  0  0  0
   -0.7799   -0.8363    1.2674 O   0  0  0  0  0  0  0  0  0  0  0  0
   -1.8758   -1.0429    2.1223 N   0  0  0  0  0  0  0  0  0  0  0  0
   -2.9972   -0.6177    1.6123 C   0  0  0  0  0  0  0  0  0  0  0  0
   -4.1135   -0.6871    2.4101 N   0  0  0  0  0  0  0  0  0  0  0  0
   -3.1717   -0.0865    0.2322 C   0  0  0  0  0  0  0  0  0  0  0  0
   -3.8827    1.0969    0.0459 C   0  0  0  0  0  0  0  0  0  0  0  0
   -4.0767    1.5295   -1.2525 C   0  0  0  0  0  0  0  0  0  0  0  0
   -3.6277    0.8660   -2.3409 N   0  0  0  0  0  0  0  0  0  0  0  0
   -2.9432   -0.2782   -2.1237 C   0  0  0  0  0  0  0  0  0  0  0  0
   -2.6973   -0.7983   -0.8669 C   0  0  0  0  0  0  0  0  0  0  0  0
    1.6924    0.0520    0.2140 C   0  0  0  0  0  0  0  0  0  0  0  0
    0.7913    1.0816    0.3473 O   0  0  0  0  0  0  0  0  0  0  0  0
    1.2047    1.9706    1.3847 C   0  0  0  0  0  0  0  0  0  0  0  0
    3.7899    2.5719   -2.7120 H   0  0  0  0  0  0  0  0  0  0  0  0
    4.9003    1.5308   -1.8162 H   0  0  0  0  0  0  0  0  0  0  0  0
    3.7880    0.8407   -3.0651 H   0  0  0  0  0  0  0  0  0  0  0  0
    4.5849   -0.7366   -1.4291 H   0  0  0  0  0  0  0  0  0  0  0  0
    4.2624   -2.8269   -0.1978 H   0  0  0  0  0  0  0  0  0  0  0  0
    2.3030   -3.1303    1.2798 H   0  0  0  0  0  0  0  0  0  0  0  0
   -3.9455   -1.2747    3.2227 H   0  0  0  0  0  0  0  0  0  0  0  0
   -4.9753   -0.9298    1.9351 H   0  0  0  0  0  0  0  0  0  0  0  0
   -4.2649    1.6670    0.8849 H   0  0  0  0  0  0  0  0  0  0  0  0
   -4.6193    2.4473   -1.4637 H   0  0  0  0  0  0  0  0  0  0  0  0
   -2.5927   -0.7844   -3.0185 H   0  0  0  0  0  0  0  0  0  0  0  0
   -2.1606   -1.7325   -0.7505 H   0  0  0  0  0  0  0  0  0  0  0  0
    1.2850    1.4502    2.3456 H   0  0  0  0  0  0  0  0  0  0  0  0
    2.1524    2.4587    1.1375 H   0  0  0  0  0  0  0  0  0  0  0  0
    0.4388    2.7458    1.4833 H   0  0  0  0  0  0  0  0  0  0  0  0
  1  2  1  0
  2  3  1  0
  3  4  2  0
  4  5  1  0
  5  6  2  0
  6  7  1  0
  7  8  1  0
  8  9  2  0
  8 10  1  0
 10 11  1  0
 11 12  2  3
 12 13  1  0
 12 14  1  0
 14 15  2  0
 15 16  1  0
 16 17  2  0
 17 18  1  0
 18 19  2  0
  7 20  2  0
 20 21  1  0
 21 22  1  0
 20  3  1  0
 19 14  1  0
  1 23  1  0
  1 24  1  0
  1 25  1  0
  4 26  1  0
  5 27  1  0
  6 28  1  0
 13 29  1  0
 13 30  1  0
 15 31  1  0
 16 32  1  0
 18 33  1  0
 19 34  1  0
 22 35  1  0
 22 36  1  0
 22 37  1  0
M  END
$$$$
