
     RDKit          3D

 39 40  0  0  0  0  0  0  0  0999 V2000
    7.4063    1.8900   -0.2748 C   0  0  0  0  0  0  0  0  0  0  0  0
    6.0528    1.5699   -0.5979 O   0  0  0  0  0  0  0  0  0  0  0  0
    5.3694    0.9872    0.4161 C   0  0  0  0  0  0  0  0  0  0  0  0
    5.8213    0.7259    1.5203 O   0  0  0  0  0  0  0  0  0  0  0  0
    4.1005    0.7264    0.0062 N   0  0  0  0  0  0  0  0  0  0  0  0
    3.1843   -0.0186    0.8255 C   0  0  0  0  0  0  0  0  0  0  0  0
    1.8024   -0.0156    0.2274 C   0  0  0  0  0  0  0  0  0  0  0  0
    0.9600    1.0937    0.4039 C   0  0  0  0  0  0  0  0  0  0  0  0
   -0.3111    1.1160   -0.1709 C   0  0  0  0  0  0  0  0  0  0  0  0
   -0.7424    0.0233   -0.9270 C   0  0  0  0  0  0  0  0  0  0  0  0
   -2.3595    0.0676   -1.6554 S   0  0  0  0  0  6  0  0  0  0  0  0
   -2.5286    1.3734   -2.2558 O   0  0  0  0  0  0  0  0  0  0  0  0
   -2.5548   -1.1410   -2.4284 O   0  0  0  0  0  0  0  0  0  0  0  0
   -3.3881   -0.0284   -0.2962 N   0  0  0  0  0  0  0  0  0  0  0  0
   -3.2227   -1.2602    0.5458 C   0  0  0  0  0  0  0  0  0  0  0  0
   -4.4616   -1.4831    1.4190 C   0  0  0  0  0  0  0  0  0  0  0  0
   -5.6509   -1.7186    0.6536 O   0  0  0  0  0  0  0  0  0  0  0  0
   -5.6462   -1.0547   -0.6191 C   0  0  0  0  0  0  0  0  0  0  0  0
   -4.8318    0.2417   -0.6154 C   0  0  0  0  0  0  0  0  0  0  0  0
    0.0886   -1.0807   -1.1285 C   0  0  0  0  0  0  0  0  0  0  0  0
    1.3597   -1.0965   -0.5513 C   0  0  0  0  0  0  0  0  0  0  0  0
    7.4450    2.6017    0.5560 H   0  0  0  0  0  0  0  0  0  0  0  0
    7.8622    2.3576   -1.1518 H   0  0  0  0  0  0  0  0  0  0  0  0
    7.9686    0.9820   -0.0353 H   0  0  0  0  0  0  0  0  0  0  0  0
    3.9038    0.8837   -0.9720 H   0  0  0  0  0  0  0  0  0  0  0  0
    3.5660   -1.0418    0.9236 H   0  0  0  0  0  0  0  0  0  0  0  0
    3.1679    0.4103    1.8347 H   0  0  0  0  0  0  0  0  0  0  0  0
    1.2979    1.9496    0.9861 H   0  0  0  0  0  0  0  0  0  0  0  0
   -0.9563    1.9813   -0.0329 H   0  0  0  0  0  0  0  0  0  0  0  0
   -2.3466   -1.1330    1.1892 H   0  0  0  0  0  0  0  0  0  0  0  0
   -3.0735   -2.1376   -0.0929 H   0  0  0  0  0  0  0  0  0  0  0  0
   -4.3141   -2.3507    2.0698 H   0  0  0  0  0  0  0  0  0  0  0  0
   -4.6420   -0.6160    2.0652 H   0  0  0  0  0  0  0  0  0  0  0  0
   -6.6883   -0.8448   -0.8800 H   0  0  0  0  0  0  0  0  0  0  0  0
   -5.2571   -1.7578   -1.3642 H   0  0  0  0  0  0  0  0  0  0  0  0
   -4.9407    0.7519   -1.5774 H   0  0  0  0  0  0  0  0  0  0  0  0
   -5.2085    0.9254    0.1547 H   0  0  0  0  0  0  0  0  0  0  0  0
   -0.2392   -1.9236   -1.7332 H   0  0  0  0  0  0  0  0  0  0  0  0
    2.0072   -1.9560   -0.7166 H   0  0  0  0  0  0  0  0  0  0  0  0
  1  2  1  0
  2  3  1  0
  3  4  2  0
  3  5  1  0
  5  6  1  0
  6  7  1  0
  7  8  2  0
  8  9  1  0
  9 10  2  0
 10 11  1  0
 11 12  2  0
 11 13  2  0
 11 14  1  0
 14 15  1  0
 15 16  1  0
 16 17  1  0
 17 18  1  0
 18 19  1  0
 10 20  1  0
 20 21  2  0
 21  7  1  0
 19 14  1  0
  1 22  1  0
  1 23  1  0
  1 24  1  0
  5 25  1  0
  6 26  1  0
  6 27  1  0
  8 28  1  0
  9 29  1  0
 15 30  1  0
 15 31  1  0
 16 32  1  0
 16 33  1  0
 18 34  1  0
 18 35  1  0
 19 36  1  0
 19 37  1  0
 20 38  1  0
 21 39  1  0
M  END
$$$$
