
     RDKit          3D

 55 58  0  0  0  0  0  0  0  0999 V2000
    6.0366   -3.2493    0.1992 N   0  0  0  0  0  0  0  0  0  0  0  0
    5.2399   -3.0065    1.2859 C   0  0  0  0  0  0  0  0  0  0  0  0
    5.4787   -3.5295    2.3717 O   0  0  0  0  0  0  0  0  0  0  0  0
    4.1185   -2.0823    1.0437 C   0  0  0  0  0  0  0  0  0  0  0  0
    3.9890   -1.4964   -0.1588 N   0  0  0  0  0  0  0  0  0  0  0  0
    2.6855   -0.4816   -0.1297 S   0  0  0  0  0  0  0  0  0  0  0  0
    2.1985   -0.8286    1.4698 C   0  0  0  0  0  0  0  0  0  0  0  0
    1.0696   -0.1617    2.0968 C   0  0  0  0  0  0  0  0  0  0  0  0
    1.1723    0.2764    3.2452 O   0  0  0  0  0  0  0  0  0  0  0  0
   -0.1117    0.0464    1.3505 N   0  0  0  0  0  0  0  0  0  0  0  0
   -0.6114   -0.9007    0.3840 C   0  0  0  0  0  0  0  0  0  0  0  0
   -1.4213   -0.5060   -0.6898 C   0  0  0  0  0  0  0  0  0  0  0  0
   -1.8778   -1.4325   -1.6337 C   0  0  0  0  0  0  0  0  0  0  0  0
   -1.5493   -2.7774   -1.5105 C   0  0  0  0  0  0  0  0  0  0  0  0
   -0.7750   -3.1977   -0.4357 C   0  0  0  0  0  0  0  0  0  0  0  0
   -0.3170   -2.2695    0.5051 C   0  0  0  0  0  0  0  0  0  0  0  0
   -0.9403    1.2084    1.7680 C   0  0  0  0  0  0  0  0  0  0  0  0
   -0.8623    2.4336    0.8209 C   0  0  0  0  0  0  0  0  0  0  0  0
   -1.5986    3.4150    0.9148 O   0  0  0  0  0  0  0  0  0  0  0  0
    0.1891    2.4010   -0.0846 N   0  0  0  0  0  0  0  0  0  0  0  0
    0.3017    3.3776   -1.1442 C   0  0  0  0  0  0  0  0  0  0  0  0
   -0.3741    2.8666   -2.3921 C   0  0  0  0  0  0  0  0  0  0  0  0
   -1.7431    3.1031   -2.5996 C   0  0  0  0  0  0  0  0  0  0  0  0
   -2.3870    2.5842   -3.7232 C   0  0  0  0  0  0  0  0  0  0  0  0
   -1.6654    1.8246   -4.6355 C   0  0  0  0  0  0  0  0  0  0  0  0
   -2.2852    1.3197   -5.7102 F   0  0  0  0  0  0  0  0  0  0  0  0
   -0.3117    1.5731   -4.4459 C   0  0  0  0  0  0  0  0  0  0  0  0
    0.3354    2.0908   -3.3229 C   0  0  0  0  0  0  0  0  0  0  0  0
   -2.3424    0.8051    2.1128 C   0  0  0  0  0  0  0  0  0  0  0  0
   -2.8862    0.2187    3.2407 C   0  0  0  0  0  0  0  0  0  0  0  0
   -4.2696    0.0628    2.9874 C   0  0  0  0  0  0  0  0  0  0  0  0
   -4.4857    0.5607    1.7249 C   0  0  0  0  0  0  0  0  0  0  0  0
   -3.3247    1.0097    1.1856 O   0  0  0  0  0  0  0  0  0  0  0  0
    3.1121   -1.7104    2.0135 C   0  0  0  0  0  0  0  0  0  0  0  0
    3.0471   -2.1727    3.2879 N   0  0  0  0  0  0  0  0  0  0  0  0
    6.8441   -3.8448    0.3001 H   0  0  0  0  0  0  0  0  0  0  0  0
    5.8467   -2.7758   -0.6758 H   0  0  0  0  0  0  0  0  0  0  0  0
   -1.7177    0.5265   -0.8414 H   0  0  0  0  0  0  0  0  0  0  0  0
   -2.4957   -1.0962   -2.4634 H   0  0  0  0  0  0  0  0  0  0  0  0
   -1.9087   -3.4969   -2.2415 H   0  0  0  0  0  0  0  0  0  0  0  0
   -0.5342   -4.2516   -0.3182 H   0  0  0  0  0  0  0  0  0  0  0  0
    0.2414   -2.6582    1.3535 H   0  0  0  0  0  0  0  0  0  0  0  0
   -0.5205    1.6183    2.6967 H   0  0  0  0  0  0  0  0  0  0  0  0
    0.6222    1.5022   -0.2479 H   0  0  0  0  0  0  0  0  0  0  0  0
    1.3692    3.5384   -1.3305 H   0  0  0  0  0  0  0  0  0  0  0  0
   -0.1257    4.3384   -0.8372 H   0  0  0  0  0  0  0  0  0  0  0  0
   -2.3146    3.6820   -1.8743 H   0  0  0  0  0  0  0  0  0  0  0  0
   -3.4449    2.7628   -3.8866 H   0  0  0  0  0  0  0  0  0  0  0  0
    0.2286    0.9726   -5.1708 H   0  0  0  0  0  0  0  0  0  0  0  0
    1.3929    1.8818   -3.1769 H   0  0  0  0  0  0  0  0  0  0  0  0
   -2.3438   -0.0618    4.1335 H   0  0  0  0  0  0  0  0  0  0  0  0
   -5.0181   -0.3594    3.6428 H   0  0  0  0  0  0  0  0  0  0  0  0
   -5.3612    0.6626    1.0990 H   0  0  0  0  0  0  0  0  0  0  0  0
    3.8480   -2.6832    3.6723 H   0  0  0  0  0  0  0  0  0  0  0  0
    2.5575   -1.6327    4.0034 H   0  0  0  0  0  0  0  0  0  0  0  0
  1  2  1  0
  2  3  2  0
  2  4  1  0
  4  5  2  0
  5  6  1  0
  6  7  1  0
  7  8  1  0
  8  9  2  0
  8 10  1  0
 10 11  1  0
 11 12  2  0
 12 13  1  0
 13 14  2  0
 14 15  1  0
 15 16  2  0
 10 17  1  0
 17 18  1  0
 18 19  2  0
 18 20  1  0
 20 21  1  0
 21 22  1  0
 22 23  2  0
 23 24  1  0
 24 25  2  0
 25 26  1  0
 25 27  1  0
 27 28  2  0
 17 29  1  0
 29 30  2  0
 30 31  1  0
 31 32  2  0
 32 33  1  0
  7 34  2  0
 34 35  1  0
 34  4  1  0
 16 11  1  0
 28 22  1  0
 33 29  1  0
  1 36  1  0
  1 37  1  0
 12 38  1  0
 13 39  1  0
 14 40  1  0
 15 41  1  0
 16 42  1  0
 17 43  1  0
 20 44  1  0
 21 45  1  0
 21 46  1  0
 23 47  1  0
 24 48  1  0
 27 49  1  0
 28 50  1  0
 30 51  1  0
 31 52  1  0
 32 53  1  0
 35 54  1  0
 35 55  1  0
M  END
$$$$
