
     RDKit          3D

 49 51  0  0  0  0  0  0  0  0999 V2000
    4.9450    1.8637    2.5260 C   0  0  0  0  0  0  0  0  0  0  0  0
    4.9755    0.7781    1.6115 O   0  0  0  0  0  0  0  0  0  0  0  0
    3.9306    0.6578    0.7280 C   0  0  0  0  0  0  0  0  0  0  0  0
    2.8374    1.5299    0.6738 C   0  0  0  0  0  0  0  0  0  0  0  0
    1.8136    1.3204   -0.2563 C   0  0  0  0  0  0  0  0  0  0  0  0
    1.8819    0.2464   -1.1531 C   0  0  0  0  0  0  0  0  0  0  0  0
    2.9822   -0.6198   -1.1093 C   0  0  0  0  0  0  0  0  0  0  0  0
    4.0020   -0.4283   -0.1691 C   0  0  0  0  0  0  0  0  0  0  0  0
    5.1097   -1.2327   -0.0530 O   0  0  0  0  0  0  0  0  0  0  0  0
    5.2010   -2.3593   -0.9124 C   0  0  0  0  0  0  0  0  0  0  0  0
    0.8146    0.0986   -2.2110 C   0  0  0  0  0  0  0  0  0  0  0  0
   -0.5352    0.5108   -1.7856 N   0  0  0  0  0  0  0  0  0  0  0  0
   -1.6386    0.2553   -2.5884 C   0  0  0  0  0  0  0  0  0  0  0  0
   -1.5723   -0.0502   -4.2415 S   0  0  0  0  0  0  0  0  0  0  0  0
   -2.8873    0.3594   -2.0469 N   0  0  0  0  0  0  0  0  0  0  0  0
   -3.3900   -0.0543   -0.7927 C   0  0  0  0  0  0  0  0  0  0  0  0
   -4.5509    0.6120   -0.3708 C   0  0  0  0  0  0  0  0  0  0  0  0
   -5.1362    0.3340    0.8654 C   0  0  0  0  0  0  0  0  0  0  0  0
   -4.5758   -0.6272    1.7045 C   0  0  0  0  0  0  0  0  0  0  0  0
   -5.2073   -0.9492    3.0261 C   0  0  0  0  0  0  0  0  0  0  0  0
   -3.4577   -1.3419    1.2584 C   0  0  0  0  0  0  0  0  0  0  0  0
   -2.8683   -1.0908    0.0015 C   0  0  0  0  0  0  0  0  0  0  0  0
   -1.7483   -2.0035   -0.4176 C   0  0  0  0  0  0  0  0  0  0  0  0
   -0.6342    1.3948   -0.6066 C   0  0  0  0  0  0  0  0  0  0  0  0
    0.6216    2.2323   -0.3521 C   0  0  0  0  0  0  0  0  0  0  0  0
    4.0795    1.7946    3.1931 H   0  0  0  0  0  0  0  0  0  0  0  0
    5.8457    1.8051    3.1448 H   0  0  0  0  0  0  0  0  0  0  0  0
    4.9655    2.8241    2.0006 H   0  0  0  0  0  0  0  0  0  0  0  0
    2.7577    2.3764    1.3473 H   0  0  0  0  0  0  0  0  0  0  0  0
    3.0247   -1.4337   -1.8256 H   0  0  0  0  0  0  0  0  0  0  0  0
    4.3650   -3.0482   -0.7528 H   0  0  0  0  0  0  0  0  0  0  0  0
    5.2669   -2.0511   -1.9609 H   0  0  0  0  0  0  0  0  0  0  0  0
    6.1232   -2.8943   -0.6657 H   0  0  0  0  0  0  0  0  0  0  0  0
    1.1039    0.7166   -3.0699 H   0  0  0  0  0  0  0  0  0  0  0  0
    0.7571   -0.9455   -2.5411 H   0  0  0  0  0  0  0  0  0  0  0  0
   -3.6035    0.5748   -2.7326 H   0  0  0  0  0  0  0  0  0  0  0  0
   -4.9944    1.3886   -0.9902 H   0  0  0  0  0  0  0  0  0  0  0  0
   -6.0257    0.8809    1.1694 H   0  0  0  0  0  0  0  0  0  0  0  0
   -4.4528   -1.2758    3.7495 H   0  0  0  0  0  0  0  0  0  0  0  0
   -5.9484   -1.7450    2.9032 H   0  0  0  0  0  0  0  0  0  0  0  0
   -5.7012   -0.0677    3.4484 H   0  0  0  0  0  0  0  0  0  0  0  0
   -3.0497   -2.1306    1.8900 H   0  0  0  0  0  0  0  0  0  0  0  0
   -0.7813   -1.6076   -0.0990 H   0  0  0  0  0  0  0  0  0  0  0  0
   -1.7496   -2.1769   -1.4966 H   0  0  0  0  0  0  0  0  0  0  0  0
   -1.8677   -2.9931    0.0394 H   0  0  0  0  0  0  0  0  0  0  0  0
   -0.8122    0.7573    0.2657 H   0  0  0  0  0  0  0  0  0  0  0  0
   -1.4919    2.0668   -0.7175 H   0  0  0  0  0  0  0  0  0  0  0  0
    0.4927    2.8037    0.5739 H   0  0  0  0  0  0  0  0  0  0  0  0
    0.7833    2.9445   -1.1701 H   0  0  0  0  0  0  0  0  0  0  0  0
  1  2  1  0
  2  3  1  0
  3  4  2  0
  4  5  1  0
  5  6  2  0
  6  7  1  0
  7  8  2  0
  8  9  1  0
  9 10  1  0
  6 11  1  0
 11 12  1  0
 12 13  1  0
 13 14  2  0
 13 15  1  0
 15 16  1  0
 16 17  2  0
 17 18  1  0
 18 19  2  0
 19 20  1  0
 19 21  1  0
 21 22  2  0
 22 23  1  0
 12 24  1  0
 24 25  1  0
  8  3  1  0
 22 16  1  0
 25  5  1  0
  1 26  1  0
  1 27  1  0
  1 28  1  0
  4 29  1  0
  7 30  1  0
 10 31  1  0
 10 32  1  0
 10 33  1  0
 11 34  1  0
 11 35  1  0
 15 36  1  0
 17 37  1  0
 18 38  1  0
 20 39  1  0
 20 40  1  0
 20 41  1  0
 21 42  1  0
 23 43  1  0
 23 44  1  0
 23 45  1  0
 24 46  1  0
 24 47  1  0
 25 48  1  0
 25 49  1  0
M  END
$$$$
