
     RDKit          3D

 47 50  0  0  0  0  0  0  0  0999 V2000
    2.6965   -1.0864   -2.0091 C   0  0  0  0  0  0  0  0  0  0  0  0
    3.0609   -0.7058   -0.6883 O   0  0  0  0  0  0  0  0  0  0  0  0
    2.0785   -0.7418    0.2664 C   0  0  0  0  0  0  0  0  0  0  0  0
    0.7494   -1.1140    0.0427 C   0  0  0  0  0  0  0  0  0  0  0  0
   -0.1739   -1.1277    1.1001 C   0  0  0  0  0  0  0  0  0  0  0  0
   -1.5664   -1.5176    0.8762 C   0  0  0  0  0  0  0  0  0  0  0  0
   -2.4999   -0.7797    0.2603 C   0  0  0  0  0  0  0  0  0  0  0  0
   -3.7997   -1.1912    0.1053 N   0  0  0  0  0  0  0  0  0  0  0  0
   -4.3517   -0.1859   -0.4954 C   0  0  0  0  0  0  0  0  0  0  0  0
   -5.7591   -0.0685   -0.9094 C   0  0  0  0  0  0  0  0  0  0  0  0
   -6.2425    1.0860   -1.5378 C   0  0  0  0  0  0  0  0  0  0  0  0
   -7.5854    1.1654   -1.9146 C   0  0  0  0  0  0  0  0  0  0  0  0
   -8.4463    0.0962   -1.6665 C   0  0  0  0  0  0  0  0  0  0  0  0
   -7.9691   -1.0550   -1.0402 C   0  0  0  0  0  0  0  0  0  0  0  0
   -6.6278   -1.1389   -0.6616 C   0  0  0  0  0  0  0  0  0  0  0  0
   -3.5700    0.8786   -0.7844 O   0  0  0  0  0  0  0  0  0  0  0  0
   -2.3211    0.5804   -0.3285 C   0  0  0  0  0  0  0  0  0  0  0  0
   -1.3338    1.2815   -0.4148 O   0  0  0  0  0  0  0  0  0  0  0  0
    0.2405   -0.7914    2.3922 C   0  0  0  0  0  0  0  0  0  0  0  0
    1.5626   -0.4203    2.6270 C   0  0  0  0  0  0  0  0  0  0  0  0
    2.4643   -0.3729    1.5645 C   0  0  0  0  0  0  0  0  0  0  0  0
    3.7589   -0.0223    1.8546 O   0  0  0  0  0  0  0  0  0  0  0  0
    4.0165    1.3349    1.4669 C   0  0  0  0  0  0  0  0  0  0  0  0
    5.4617    1.5865    1.4594 C   0  0  0  0  0  0  0  0  0  0  0  0
    6.5441    0.8961    0.8814 C   0  0  0  0  0  0  0  0  0  0  0  0
    6.5202   -0.3565    0.0900 C   0  0  0  0  0  0  0  0  0  0  0  0
    7.6984    1.5302    1.1141 N   0  0  0  0  0  0  0  0  0  0  0  0
    7.3777    2.6584    1.8685 O   0  0  0  0  0  0  0  0  0  0  0  0
    5.9587    2.6561    2.0738 N   0  0  0  0  0  4  0  0  0  0  0  0
    5.4759    3.6196    2.7098 O   0  0  0  0  0  1  0  0  0  0  0  0
    1.9406   -0.4094   -2.4209 H   0  0  0  0  0  0  0  0  0  0  0  0
    3.5894   -1.0083   -2.6365 H   0  0  0  0  0  0  0  0  0  0  0  0
    2.3578   -2.1273   -2.0406 H   0  0  0  0  0  0  0  0  0  0  0  0
    0.4044   -1.3948   -0.9465 H   0  0  0  0  0  0  0  0  0  0  0  0
   -1.8442   -2.4889    1.2796 H   0  0  0  0  0  0  0  0  0  0  0  0
   -5.5906    1.9325   -1.7388 H   0  0  0  0  0  0  0  0  0  0  0  0
   -7.9613    2.0626   -2.4011 H   0  0  0  0  0  0  0  0  0  0  0  0
   -9.4919    0.1604   -1.9596 H   0  0  0  0  0  0  0  0  0  0  0  0
   -8.6421   -1.8873   -0.8455 H   0  0  0  0  0  0  0  0  0  0  0  0
   -6.2680   -2.0423   -0.1715 H   0  0  0  0  0  0  0  0  0  0  0  0
   -0.4611   -0.8118    3.2223 H   0  0  0  0  0  0  0  0  0  0  0  0
    1.8879   -0.1653    3.6329 H   0  0  0  0  0  0  0  0  0  0  0  0
    3.6260    1.5481    0.4640 H   0  0  0  0  0  0  0  0  0  0  0  0
    3.4993    1.9933    2.1746 H   0  0  0  0  0  0  0  0  0  0  0  0
    5.9227   -0.2215   -0.8171 H   0  0  0  0  0  0  0  0  0  0  0  0
    7.5279   -0.6604   -0.2136 H   0  0  0  0  0  0  0  0  0  0  0  0
    6.0850   -1.1734    0.6737 H   0  0  0  0  0  0  0  0  0  0  0  0
  1  2  1  0
  2  3  1  0
  3  4  2  0
  4  5  1  0
  5  6  1  0
  6  7  2  3
  7  8  1  0
  8  9  2  0
  9 10  1  0
 10 11  2  0
 11 12  1  0
 12 13  2  0
 13 14  1  0
 14 15  2  0
  9 16  1  0
 16 17  1  0
 17 18  2  0
  5 19  2  0
 19 20  1  0
 20 21  2  0
 21 22  1  0
 22 23  1  0
 23 24  1  0
 24 25  1  0
 25 26  1  0
 25 27  2  0
 27 28  1  0
 28 29  1  0
 29 30  1  0
 21  3  1  0
 29 24  2  0
 17  7  1  0
 15 10  1  0
  1 31  1  0
  1 32  1  0
  1 33  1  0
  4 34  1  0
  6 35  1  0
 11 36  1  0
 12 37  1  0
 13 38  1  0
 14 39  1  0
 15 40  1  0
 19 41  1  0
 20 42  1  0
 23 43  1  0
 23 44  1  0
 26 45  1  0
 26 46  1  0
 26 47  1  0
M  CHG  2  29   1  30  -1
M  END
$$$$
