
     RDKit          3D

 53 56  0  0  0  0  0  0  0  0999 V2000
    4.9359    2.3462   -3.2088 C   0  0  0  0  0  0  0  0  0  0  0  0
    4.6104    2.5129   -1.8349 O   0  0  0  0  0  0  0  0  0  0  0  0
    4.0585    1.3326   -1.2416 C   0  0  0  0  0  0  0  0  0  0  0  0
    2.5556    1.2315   -1.4967 C   0  0  0  0  0  0  0  0  0  0  0  0
    1.9637    0.0765   -0.8340 N   0  0  0  0  0  0  0  0  0  0  0  0
    1.7659   -1.1542   -1.4273 C   0  0  0  0  0  0  0  0  0  0  0  0
    2.1206   -1.4621   -2.8398 C   0  0  0  0  0  0  0  0  0  0  0  0
    1.2044   -1.9841   -0.4795 C   0  0  0  0  0  0  0  0  0  0  0  0
    1.0310   -1.2458    0.7241 C   0  0  0  0  0  0  0  0  0  0  0  0
    0.4462   -1.7044    1.9968 C   0  0  0  0  0  0  0  0  0  0  0  0
    0.5708   -1.0450    3.0315 O   0  0  0  0  0  0  0  0  0  0  0  0
   -0.3148   -3.0195    2.0294 C   0  0  0  0  0  0  0  0  0  0  0  0
   -1.8780   -2.9252    1.0983 S   0  0  0  0  0  0  0  0  0  0  0  0
   -2.6124   -1.5598    1.9456 C   0  0  0  0  0  0  0  0  0  0  0  0
   -2.8326   -1.6753    3.2688 N   0  0  0  0  0  0  0  0  0  0  0  0
   -3.3565   -0.6253    3.9266 C   0  0  0  0  0  0  0  0  0  0  0  0
   -3.5599   -0.7784    5.4024 C   0  0  0  0  0  0  0  0  0  0  0  0
   -3.6913    0.5567    3.3927 N   0  0  0  0  0  0  0  0  0  0  0  0
   -3.4587    0.6274    2.0719 C   0  0  0  0  0  0  0  0  0  0  0  0
   -3.8177    2.0709    1.2057 S   0  0  0  0  0  0  0  0  0  0  0  0
   -3.2871    1.3717   -0.2143 C   0  0  0  0  0  0  0  0  0  0  0  0
   -2.8451    0.0839   -0.0753 C   0  0  0  0  0  0  0  0  0  0  0  0
   -2.9296   -0.3812    1.2672 C   0  0  0  0  0  0  0  0  0  0  0  0
   -2.4087   -0.4633   -1.3863 C   0  0  0  0  0  0  0  0  0  0  0  0
   -2.3113    0.8202   -2.2696 C   0  0  0  0  0  0  0  0  0  0  0  0
   -3.2181    1.8945   -1.5984 C   0  0  0  0  0  0  0  0  0  0  0  0
    1.5241    0.0344    0.4754 C   0  0  0  0  0  0  0  0  0  0  0  0
    1.5837    1.1974    1.4164 C   0  0  0  0  0  0  0  0  0  0  0  0
    5.3588    3.2846   -3.5761 H   0  0  0  0  0  0  0  0  0  0  0  0
    4.0447    2.1143   -3.7981 H   0  0  0  0  0  0  0  0  0  0  0  0
    5.6840    1.5580   -3.3313 H   0  0  0  0  0  0  0  0  0  0  0  0
    4.5903    0.4389   -1.5927 H   0  0  0  0  0  0  0  0  0  0  0  0
    4.2472    1.4065   -0.1640 H   0  0  0  0  0  0  0  0  0  0  0  0
    2.3412    1.1608   -2.5682 H   0  0  0  0  0  0  0  0  0  0  0  0
    2.0335    2.1364   -1.1658 H   0  0  0  0  0  0  0  0  0  0  0  0
    1.5226   -0.8569   -3.5279 H   0  0  0  0  0  0  0  0  0  0  0  0
    1.9287   -2.5159   -3.0702 H   0  0  0  0  0  0  0  0  0  0  0  0
    3.1808   -1.2677   -3.0265 H   0  0  0  0  0  0  0  0  0  0  0  0
    0.9364   -3.0192   -0.6538 H   0  0  0  0  0  0  0  0  0  0  0  0
   -0.5252   -3.2848    3.0711 H   0  0  0  0  0  0  0  0  0  0  0  0
    0.3124   -3.8157    1.6176 H   0  0  0  0  0  0  0  0  0  0  0  0
   -4.5384   -0.3850    5.6921 H   0  0  0  0  0  0  0  0  0  0  0  0
   -2.7833   -0.2278    5.9403 H   0  0  0  0  0  0  0  0  0  0  0  0
   -3.5114   -1.8310    5.6969 H   0  0  0  0  0  0  0  0  0  0  0  0
   -1.4468   -0.9764   -1.3448 H   0  0  0  0  0  0  0  0  0  0  0  0
   -3.1677   -1.1452   -1.7863 H   0  0  0  0  0  0  0  0  0  0  0  0
   -1.2722    1.1766   -2.2649 H   0  0  0  0  0  0  0  0  0  0  0  0
   -2.5904    0.6304   -3.3105 H   0  0  0  0  0  0  0  0  0  0  0  0
   -4.2111    1.9017   -2.0604 H   0  0  0  0  0  0  0  0  0  0  0  0
   -2.7709    2.8905   -1.6667 H   0  0  0  0  0  0  0  0  0  0  0  0
    2.2044    0.9470    2.2837 H   0  0  0  0  0  0  0  0  0  0  0  0
    0.5774    1.4465    1.7685 H   0  0  0  0  0  0  0  0  0  0  0  0
    2.0056    2.1003    0.9711 H   0  0  0  0  0  0  0  0  0  0  0  0
  1  2  1  0
  2  3  1  0
  3  4  1  0
  4  5  1  0
  5  6  1  0
  6  7  1  0
  6  8  2  0
  8  9  1  0
  9 10  1  0
 10 11  2  0
 10 12  1  0
 12 13  1  0
 13 14  1  0
 14 15  2  0
 15 16  1  0
 16 17  1  0
 16 18  2  0
 18 19  1  0
 19 20  1  0
 20 21  1  0
 21 22  2  0
 22 23  1  0
 22 24  1  0
 24 25  1  0
 25 26  1  0
  9 27  2  0
 27 28  1  0
 27  5  1  0
 23 14  1  0
 23 19  2  0
 26 21  1  0
  1 29  1  0
  1 30  1  0
  1 31  1  0
  3 32  1  0
  3 33  1  0
  4 34  1  0
  4 35  1  0
  7 36  1  0
  7 37  1  0
  7 38  1  0
  8 39  1  0
 12 40  1  0
 12 41  1  0
 17 42  1  0
 17 43  1  0
 17 44  1  0
 24 45  1  0
 24 46  1  0
 25 47  1  0
 25 48  1  0
 26 49  1  0
 26 50  1  0
 28 51  1  0
 28 52  1  0
 28 53  1  0
M  END
$$$$
