
     RDKit          3D

 57 61  0  0  0  0  0  0  0  0999 V2000
   -3.5714   -2.0455    3.6034 C   0  0  0  0  0  0  0  0  0  0  0  0
   -3.7011   -0.7086    3.9649 C   0  0  0  0  0  0  0  0  0  0  0  0
   -3.5784    0.2907    2.9968 C   0  0  0  0  0  0  0  0  0  0  0  0
   -3.3140   -0.0226    1.6467 C   0  0  0  0  0  0  0  0  0  0  0  0
   -3.2369    1.1337    0.6542 C   0  0  0  0  0  0  0  0  0  0  0  0
   -4.5533    1.6060    0.0567 C   0  0  0  0  0  0  0  0  0  0  0  0
   -4.7775    2.9868   -0.1067 C   0  0  0  0  0  0  0  0  0  0  0  0
   -5.9759    3.4585   -0.6436 C   0  0  0  0  0  0  0  0  0  0  0  0
   -6.9682    2.5609   -1.0317 C   0  0  0  0  0  0  0  0  0  0  0  0
   -6.7620    1.1908   -0.8872 C   0  0  0  0  0  0  0  0  0  0  0  0
   -5.5650    0.7170   -0.3476 C   0  0  0  0  0  0  0  0  0  0  0  0
   -2.2923    0.8233   -0.4725 C   0  0  0  0  0  0  0  0  0  0  0  0
   -2.5768    0.0366   -1.5257 N   0  0  0  0  0  0  0  0  0  0  0  0
   -1.4100    0.0629   -2.2849 O   0  0  0  0  0  0  0  0  0  0  0  0
   -0.5380    0.8793   -1.6299 C   0  0  0  0  0  0  0  0  0  0  0  0
    0.7968    1.0888   -2.2677 C   0  0  0  0  0  0  0  0  0  0  0  0
    1.8660    0.2280   -1.7189 N   0  0  0  0  0  0  0  0  0  0  0  0
    2.1073    0.4979   -0.2885 C   0  0  0  0  0  0  0  0  0  0  0  0
    3.5229    0.1336    0.1837 C   0  0  0  0  0  0  0  0  0  0  0  0
    4.0623   -1.0693   -0.5961 C   0  0  0  0  0  0  0  0  0  0  0  0
    5.4079   -1.5443   -0.0873 C   0  0  0  0  0  0  0  0  0  0  0  0
    5.5645   -2.8630    0.3505 C   0  0  0  0  0  0  0  0  0  0  0  0
    6.8056   -3.2731    0.8109 C   0  0  0  0  0  0  0  0  0  0  0  0
    7.8903   -2.4742    0.8633 N   0  0  0  0  0  0  0  0  0  0  0  0
    7.7239   -1.2068    0.4339 C   0  0  0  0  0  0  0  0  0  0  0  0
    6.5233   -0.7029   -0.0419 C   0  0  0  0  0  0  0  0  0  0  0  0
    4.0860   -0.7633   -2.1065 C   0  0  0  0  0  0  0  0  0  0  0  0
    3.0935    0.3359   -2.5061 C   0  0  0  0  0  0  0  0  0  0  0  0
   -1.0303    1.3841   -0.5191 N   0  0  0  0  0  0  0  0  0  0  0  0
   -3.2008   -1.3823    1.3059 C   0  0  0  0  0  0  0  0  0  0  0  0
   -3.3239   -2.3821    2.2754 C   0  0  0  0  0  0  0  0  0  0  0  0
   -3.6708   -2.8251    4.3534 H   0  0  0  0  0  0  0  0  0  0  0  0
   -3.9048   -0.4416    4.9991 H   0  0  0  0  0  0  0  0  0  0  0  0
   -3.7000    1.3286    3.3055 H   0  0  0  0  0  0  0  0  0  0  0  0
   -2.7934    1.9784    1.2023 H   0  0  0  0  0  0  0  0  0  0  0  0
   -4.0139    3.7073    0.1840 H   0  0  0  0  0  0  0  0  0  0  0  0
   -6.1342    4.5274   -0.7612 H   0  0  0  0  0  0  0  0  0  0  0  0
   -7.9005    2.9262   -1.4517 H   0  0  0  0  0  0  0  0  0  0  0  0
   -7.5326    0.4881   -1.1981 H   0  0  0  0  0  0  0  0  0  0  0  0
   -5.4284   -0.3587   -0.2561 H   0  0  0  0  0  0  0  0  0  0  0  0
    0.6855    0.8776   -3.3372 H   0  0  0  0  0  0  0  0  0  0  0  0
    1.0713    2.1469   -2.1846 H   0  0  0  0  0  0  0  0  0  0  0  0
    1.9391    1.5546   -0.0409 H   0  0  0  0  0  0  0  0  0  0  0  0
    1.3872   -0.0889    0.2934 H   0  0  0  0  0  0  0  0  0  0  0  0
    4.1799    1.0018    0.0465 H   0  0  0  0  0  0  0  0  0  0  0  0
    3.5050   -0.0754    1.2603 H   0  0  0  0  0  0  0  0  0  0  0  0
    3.3430   -1.8871   -0.4445 H   0  0  0  0  0  0  0  0  0  0  0  0
    4.7381   -3.5657    0.3380 H   0  0  0  0  0  0  0  0  0  0  0  0
    6.9634   -4.2888    1.1624 H   0  0  0  0  0  0  0  0  0  0  0  0
    8.6108   -0.5841    0.4822 H   0  0  0  0  0  0  0  0  0  0  0  0
    6.4700    0.3277   -0.3732 H   0  0  0  0  0  0  0  0  0  0  0  0
    5.0830   -0.4597   -2.4458 H   0  0  0  0  0  0  0  0  0  0  0  0
    3.8523   -1.6883   -2.6494 H   0  0  0  0  0  0  0  0  0  0  0  0
    3.5513    1.3261   -2.3796 H   0  0  0  0  0  0  0  0  0  0  0  0
    2.8829    0.2204   -3.5765 H   0  0  0  0  0  0  0  0  0  0  0  0
   -3.0264   -1.6974    0.2796 H   0  0  0  0  0  0  0  0  0  0  0  0
   -3.2322   -3.4268    1.9870 H   0  0  0  0  0  0  0  0  0  0  0  0
  1  2  2  0
  2  3  1  0
  3  4  2  0
  4  5  1  0
  5  6  1  0
  6  7  2  0
  7  8  1  0
  8  9  2  0
  9 10  1  0
 10 11  2  0
  5 12  1  0
 12 13  2  0
 13 14  1  0
 14 15  1  0
 15 16  1  0
 16 17  1  0
 17 18  1  0
 18 19  1  0
 19 20  1  0
 20 21  1  0
 21 22  2  0
 22 23  1  0
 23 24  2  0
 24 25  1  0
 25 26  2  0
 20 27  1  0
 27 28  1  0
 15 29  2  0
  4 30  1  0
 30 31  2  0
 31  1  1  0
 11  6  1  0
 29 12  1  0
 28 17  1  0
 26 21  1  0
  1 32  1  0
  2 33  1  0
  3 34  1  0
  5 35  1  0
  7 36  1  0
  8 37  1  0
  9 38  1  0
 10 39  1  0
 11 40  1  0
 16 41  1  0
 16 42  1  0
 18 43  1  0
 18 44  1  0
 19 45  1  0
 19 46  1  0
 20 47  1  0
 22 48  1  0
 23 49  1  0
 25 50  1  0
 26 51  1  0
 27 52  1  0
 27 53  1  0
 28 54  1  0
 28 55  1  0
 30 56  1  0
 31 57  1  0
M  END
$$$$
