
     RDKit          3D

 48 50  0  0  0  0  0  0  0  0999 V2000
   -6.6141    2.8905   -0.0868 C   0  0  0  0  0  0  0  0  0  0  0  0
   -6.2931    2.4179    1.3195 C   0  0  0  0  0  0  0  0  0  0  0  0
   -5.4485    1.2551    1.2704 O   0  0  0  0  0  0  0  0  0  0  0  0
   -4.1176    1.5009    1.1763 C   0  0  0  0  0  0  0  0  0  0  0  0
   -3.5903    2.5983    1.1435 O   0  0  0  0  0  0  0  0  0  0  0  0
   -3.3939    0.2250    1.1107 C   0  0  0  0  0  0  0  0  0  0  0  0
   -3.8605   -0.9174    1.7209 C   0  0  0  0  0  0  0  0  0  0  0  0
   -3.2077   -2.1013    1.7030 N   0  0  0  0  0  0  0  0  0  0  0  0
   -2.0419   -2.1351    1.0354 C   0  0  0  0  0  0  0  0  0  0  0  0
   -1.1323   -3.6555    0.9409 S   0  0  0  0  0  0  0  0  0  0  0  0
   -2.0576   -4.6623    2.1254 C   0  0  0  0  0  0  0  0  0  0  0  0
   -1.5052   -1.0852    0.4015 N   0  0  0  0  0  0  0  0  0  0  0  0
   -2.1818    0.0857    0.4717 C   0  0  0  0  0  0  0  0  0  0  0  0
   -1.6708    1.1590   -0.2434 O   0  0  0  0  0  0  0  0  0  0  0  0
   -0.3514    1.4479    0.0131 C   0  0  0  0  0  0  0  0  0  0  0  0
   -0.0573    2.5029    0.8715 C   0  0  0  0  0  0  0  0  0  0  0  0
    1.2732    2.8343    1.1147 C   0  0  0  0  0  0  0  0  0  0  0  0
    2.3024    2.1204    0.4906 C   0  0  0  0  0  0  0  0  0  0  0  0
    2.0106    1.0772   -0.3913 C   0  0  0  0  0  0  0  0  0  0  0  0
    2.9879    0.3084   -1.0589 N   0  0  0  0  0  0  0  0  0  0  0  0
    4.3602    0.4694   -1.0134 C   0  0  0  0  0  0  0  0  0  0  0  0
    4.9823    1.3484   -0.4298 O   0  0  0  0  0  0  0  0  0  0  0  0
    5.1343   -0.5302   -1.8042 C   0  0  0  0  0  0  0  0  0  0  0  0
    6.3090   -0.1091   -2.4420 C   0  0  0  0  0  0  0  0  0  0  0  0
    7.0612   -1.0121   -3.1973 C   0  0  0  0  0  0  0  0  0  0  0  0
    6.6438   -2.3376   -3.3066 C   0  0  0  0  0  0  0  0  0  0  0  0
    7.5662   -3.4500   -4.2406 Cl  0  0  0  0  0  0  0  0  0  0  0  0
    5.4867   -2.7714   -2.6582 C   0  0  0  0  0  0  0  0  0  0  0  0
    4.7323   -1.8701   -1.9011 C   0  0  0  0  0  0  0  0  0  0  0  0
    0.6710    0.7527   -0.6357 C   0  0  0  0  0  0  0  0  0  0  0  0
   -7.2853    3.7536   -0.0638 H   0  0  0  0  0  0  0  0  0  0  0  0
   -7.0889    2.0883   -0.6622 H   0  0  0  0  0  0  0  0  0  0  0  0
   -5.7017    3.1698   -0.6242 H   0  0  0  0  0  0  0  0  0  0  0  0
   -7.2151    2.1225    1.8299 H   0  0  0  0  0  0  0  0  0  0  0  0
   -5.8359    3.2149    1.9161 H   0  0  0  0  0  0  0  0  0  0  0  0
   -4.7982   -0.9301    2.2706 H   0  0  0  0  0  0  0  0  0  0  0  0
   -1.5724   -5.6374    2.2159 H   0  0  0  0  0  0  0  0  0  0  0  0
   -3.0836   -4.8214    1.7824 H   0  0  0  0  0  0  0  0  0  0  0  0
   -2.0675   -4.1955    3.1135 H   0  0  0  0  0  0  0  0  0  0  0  0
   -0.8572    3.0666    1.3441 H   0  0  0  0  0  0  0  0  0  0  0  0
    1.5167    3.6532    1.7874 H   0  0  0  0  0  0  0  0  0  0  0  0
    3.3253    2.4085    0.7134 H   0  0  0  0  0  0  0  0  0  0  0  0
    2.6248   -0.4039   -1.6789 H   0  0  0  0  0  0  0  0  0  0  0  0
    6.6389    0.9250   -2.3513 H   0  0  0  0  0  0  0  0  0  0  0  0
    7.9683   -0.6757   -3.6913 H   0  0  0  0  0  0  0  0  0  0  0  0
    5.1745   -3.8104   -2.7305 H   0  0  0  0  0  0  0  0  0  0  0  0
    3.8547   -2.2346   -1.3726 H   0  0  0  0  0  0  0  0  0  0  0  0
    0.4054   -0.0506   -1.3168 H   0  0  0  0  0  0  0  0  0  0  0  0
  1  2  1  0
  2  3  1  0
  3  4  1  0
  4  5  2  0
  4  6  1  0
  6  7  2  0
  7  8  1  0
  8  9  2  0
  9 10  1  0
 10 11  1  0
  9 12  1  0
 12 13  2  0
 13 14  1  0
 14 15  1  0
 15 16  2  0
 16 17  1  0
 17 18  2  0
 18 19  1  0
 19 20  1  0
 20 21  1  0
 21 22  2  0
 21 23  1  0
 23 24  2  0
 24 25  1  0
 25 26  2  0
 26 27  1  0
 26 28  1  0
 28 29  2  0
 19 30  2  0
 13  6  1  0
 30 15  1  0
 29 23  1  0
  1 31  1  0
  1 32  1  0
  1 33  1  0
  2 34  1  0
  2 35  1  0
  7 36  1  0
 11 37  1  0
 11 38  1  0
 11 39  1  0
 16 40  1  0
 17 41  1  0
 18 42  1  0
 20 43  1  0
 24 44  1  0
 25 45  1  0
 28 46  1  0
 29 47  1  0
 30 48  1  0
M  END
$$$$
