
     RDKit          3D

 33 35  0  0  0  0  0  0  0  0999 V2000
   -5.5098   -0.5250   -2.6077 O   0  0  0  0  0  0  0  0  0  0  0  0
   -4.8723   -0.2866   -1.4254 C   0  0  0  0  0  0  0  0  0  0  0  0
   -5.6581   -0.0953   -0.2958 C   0  0  0  0  0  0  0  0  0  0  0  0
   -5.0486    0.1572    0.9311 C   0  0  0  0  0  0  0  0  0  0  0  0
   -3.6550    0.2106    1.0205 C   0  0  0  0  0  0  0  0  0  0  0  0
   -2.8596    0.0025   -0.1153 C   0  0  0  0  0  0  0  0  0  0  0  0
   -1.3936    0.0782   -0.0630 C   0  0  0  0  0  0  0  0  0  0  0  0
   -0.6551   -0.4705    0.9161 C   0  0  0  0  0  0  0  0  0  0  0  0
    0.8137   -0.4124    0.9698 C   0  0  0  0  0  0  0  0  0  0  0  0
    1.4935   -1.0361    2.0090 C   0  0  0  0  0  0  0  0  0  0  0  0
    2.8841   -0.9686    2.0383 C   0  0  0  0  0  0  0  0  0  0  0  0
    3.5667   -0.2795    1.0306 C   0  0  0  0  0  0  0  0  0  0  0  0
    4.9711   -0.1781    1.0081 C   0  0  0  0  0  0  0  0  0  0  0  0
    5.6141    0.5196   -0.0160 C   0  0  0  0  0  0  0  0  0  0  0  0
    4.8619    1.1192   -1.0207 C   0  0  0  0  0  0  0  0  0  0  0  0
    3.4750    1.0112   -0.9856 C   0  0  0  0  0  0  0  0  0  0  0  0
    2.7536    1.6140   -1.9888 O   0  0  0  0  0  0  0  0  0  0  0  0
    2.7978    0.3234    0.0177 C   0  0  0  0  0  0  0  0  0  0  0  0
    1.4493    0.2615   -0.0181 N   0  0  0  0  0  0  0  0  0  0  0  0
   -3.4819   -0.2342   -1.3484 C   0  0  0  0  0  0  0  0  0  0  0  0
   -4.8413   -0.6368   -3.3033 H   0  0  0  0  0  0  0  0  0  0  0  0
   -6.7408   -0.1370   -0.3728 H   0  0  0  0  0  0  0  0  0  0  0  0
   -5.6577    0.3190    1.8163 H   0  0  0  0  0  0  0  0  0  0  0  0
   -3.1993    0.4295    1.9832 H   0  0  0  0  0  0  0  0  0  0  0  0
   -0.9172    0.5950   -0.8929 H   0  0  0  0  0  0  0  0  0  0  0  0
   -1.1370   -1.0099    1.7262 H   0  0  0  0  0  0  0  0  0  0  0  0
    0.9619   -1.5708    2.7892 H   0  0  0  0  0  0  0  0  0  0  0  0
    3.4262   -1.4536    2.8460 H   0  0  0  0  0  0  0  0  0  0  0  0
    5.5701   -0.6423    1.7885 H   0  0  0  0  0  0  0  0  0  0  0  0
    6.6985    0.5954   -0.0294 H   0  0  0  0  0  0  0  0  0  0  0  0
    5.3448    1.6666   -1.8247 H   0  0  0  0  0  0  0  0  0  0  0  0
    1.8213    1.4184   -1.7554 H   0  0  0  0  0  0  0  0  0  0  0  0
   -2.8763   -0.3847   -2.2372 H   0  0  0  0  0  0  0  0  0  0  0  0
  1  2  1  0
  2  3  2  0
  3  4  1  0
  4  5  2  0
  5  6  1  0
  6  7  1  0
  7  8  2  0
  8  9  1  0
  9 10  2  0
 10 11  1  0
 11 12  2  0
 12 13  1  0
 13 14  2  0
 14 15  1  0
 15 16  2  0
 16 17  1  0
 16 18  1  0
 18 19  2  0
  6 20  2  0
 20  2  1  0
 19  9  1  0
 18 12  1  0
  1 21  1  0
  3 22  1  0
  4 23  1  0
  5 24  1  0
  7 25  1  0
  8 26  1  0
 10 27  1  0
 11 28  1  0
 13 29  1  0
 14 30  1  0
 15 31  1  0
 17 32  1  0
 20 33  1  0
M  END
$$$$
