
     RDKit          3D

 72 74  0  0  0  0  0  0  0  0999 V2000
   10.2012    1.1336    1.1619 C   0  0  0  0  0  0  0  0  0  0  0  0
    9.3271    2.0340    0.3026 C   0  0  0  0  0  0  0  0  0  0  0  0
    8.1710    1.2979   -0.3786 C   0  0  0  0  0  0  0  0  0  0  0  0
    7.1624    0.7074    0.6085 C   0  0  0  0  0  0  0  0  0  0  0  0
    5.9621    0.0972   -0.1200 C   0  0  0  0  0  0  0  0  0  0  0  0
    4.9884   -0.5466    0.8689 C   0  0  0  0  0  0  0  0  0  0  0  0
    3.8042   -1.2420    0.1919 C   0  0  0  0  0  0  0  0  0  0  0  0
    2.8836   -0.3399   -0.6366 C   0  0  0  0  0  0  0  0  0  0  0  0
    2.2563    0.7970    0.1763 C   0  0  0  0  0  0  0  0  0  0  0  0
    1.2176    1.5791   -0.6277 C   0  0  0  0  0  0  0  0  0  0  0  0
    0.1402    0.7266   -1.0547 O   0  0  0  0  0  0  0  0  0  0  0  0
   -0.8282    0.4764   -0.1315 C   0  0  0  0  0  0  0  0  0  0  0  0
   -0.8647    0.9339    1.0039 O   0  0  0  0  0  0  0  0  0  0  0  0
   -1.8729   -0.4649   -0.7164 C   0  0  0  0  0  0  0  0  0  0  0  0
   -2.8460   -0.9294    0.3072 N   0  0  0  0  0  0  0  0  0  0  0  0
   -3.6580   -0.1166    1.0319 C   0  0  0  0  0  0  0  0  0  0  0  0
   -3.8796    1.3822    0.8678 C   0  0  0  0  0  0  0  0  0  0  0  0
   -3.7017    1.8485   -0.4643 O   0  0  0  0  0  0  0  0  0  0  0  0
   -4.7348    1.6823   -1.3452 C   0  0  0  0  0  0  0  0  0  0  0  0
   -4.5633    2.3466   -2.5616 C   0  0  0  0  0  0  0  0  0  0  0  0
   -5.5278    2.2521   -3.5636 C   0  0  0  0  0  0  0  0  0  0  0  0
   -6.6699    1.4820   -3.3580 C   0  0  0  0  0  0  0  0  0  0  0  0
   -6.8492    0.7938   -2.1530 C   0  0  0  0  0  0  0  0  0  0  0  0
   -8.0993   -0.0068   -1.9259 C   0  0  0  0  0  0  0  0  0  0  0  0
   -5.8800    0.9081   -1.1429 C   0  0  0  0  0  0  0  0  0  0  0  0
   -4.2708   -0.8982    1.9560 N   0  0  0  0  0  4  0  0  0  0  0  0
   -5.1451   -0.4039    3.0180 C   0  0  0  0  0  0  0  0  0  0  0  0
   -3.9497   -2.2336    1.7425 C   0  0  0  0  0  0  0  0  0  0  0  0
   -4.3772   -3.3969    2.3797 C   0  0  0  0  0  0  0  0  0  0  0  0
   -3.8331   -4.5974    1.9068 C   0  0  0  0  0  0  0  0  0  0  0  0
   -2.9069   -4.6209    0.8486 C   0  0  0  0  0  0  0  0  0  0  0  0
   -2.4831   -3.4457    0.2143 C   0  0  0  0  0  0  0  0  0  0  0  0
   -3.0321   -2.2549    0.6894 C   0  0  0  0  0  0  0  0  0  0  0  0
    9.6548    0.7552    2.0309 H   0  0  0  0  0  0  0  0  0  0  0  0
   11.0651    1.6940    1.5347 H   0  0  0  0  0  0  0  0  0  0  0  0
   10.5727    0.2800    0.5861 H   0  0  0  0  0  0  0  0  0  0  0  0
    8.9361    2.8538    0.9158 H   0  0  0  0  0  0  0  0  0  0  0  0
    9.9529    2.4900   -0.4734 H   0  0  0  0  0  0  0  0  0  0  0  0
    7.6570    2.0051   -1.0411 H   0  0  0  0  0  0  0  0  0  0  0  0
    8.5703    0.5010   -1.0173 H   0  0  0  0  0  0  0  0  0  0  0  0
    6.8143    1.4900    1.2926 H   0  0  0  0  0  0  0  0  0  0  0  0
    7.6446   -0.0652    1.2170 H   0  0  0  0  0  0  0  0  0  0  0  0
    5.4557    0.8818   -0.6931 H   0  0  0  0  0  0  0  0  0  0  0  0
    6.3096   -0.6573   -0.8360 H   0  0  0  0  0  0  0  0  0  0  0  0
    5.5275   -1.2982    1.4601 H   0  0  0  0  0  0  0  0  0  0  0  0
    4.6291    0.2033    1.5830 H   0  0  0  0  0  0  0  0  0  0  0  0
    3.2058   -1.7369    0.9672 H   0  0  0  0  0  0  0  0  0  0  0  0
    4.1842   -2.0396   -0.4584 H   0  0  0  0  0  0  0  0  0  0  0  0
    3.4303    0.0754   -1.4910 H   0  0  0  0  0  0  0  0  0  0  0  0
    2.0919   -0.9722   -1.0570 H   0  0  0  0  0  0  0  0  0  0  0  0
    1.7869    0.3740    1.0721 H   0  0  0  0  0  0  0  0  0  0  0  0
    3.0331    1.4942    0.5087 H   0  0  0  0  0  0  0  0  0  0  0  0
    1.6756    1.9950   -1.5318 H   0  0  0  0  0  0  0  0  0  0  0  0
    0.8286    2.4255   -0.0498 H   0  0  0  0  0  0  0  0  0  0  0  0
   -1.3453   -1.3314   -1.1236 H   0  0  0  0  0  0  0  0  0  0  0  0
   -2.4133    0.0205   -1.5298 H   0  0  0  0  0  0  0  0  0  0  0  0
   -4.8691    1.6338    1.2608 H   0  0  0  0  0  0  0  0  0  0  0  0
   -3.1340    1.8537    1.5128 H   0  0  0  0  0  0  0  0  0  0  0  0
   -3.6784    2.9557   -2.7326 H   0  0  0  0  0  0  0  0  0  0  0  0
   -5.3932    2.7849   -4.5023 H   0  0  0  0  0  0  0  0  0  0  0  0
   -7.4218    1.4249   -4.1434 H   0  0  0  0  0  0  0  0  0  0  0  0
   -8.8902    0.6396   -1.5330 H   0  0  0  0  0  0  0  0  0  0  0  0
   -8.4444   -0.4637   -2.8595 H   0  0  0  0  0  0  0  0  0  0  0  0
   -7.9200   -0.8194   -1.2134 H   0  0  0  0  0  0  0  0  0  0  0  0
   -6.0584    0.3728   -0.2177 H   0  0  0  0  0  0  0  0  0  0  0  0
   -6.1567   -0.2956    2.6171 H   0  0  0  0  0  0  0  0  0  0  0  0
   -5.1544   -1.0973    3.8627 H   0  0  0  0  0  0  0  0  0  0  0  0
   -4.7804    0.5627    3.3772 H   0  0  0  0  0  0  0  0  0  0  0  0
   -5.0913   -3.3787    3.1934 H   0  0  0  0  0  0  0  0  0  0  0  0
   -4.1332   -5.5384    2.3691 H   0  0  0  0  0  0  0  0  0  0  0  0
   -2.5107   -5.5802    0.5136 H   0  0  0  0  0  0  0  0  0  0  0  0
   -1.7721   -3.4739   -0.6018 H   0  0  0  0  0  0  0  0  0  0  0  0
  1  2  1  0
  2  3  1  0
  3  4  1  0
  4  5  1  0
  5  6  1  0
  6  7  1  0
  7  8  1  0
  8  9  1  0
  9 10  1  0
 10 11  1  0
 11 12  1  0
 12 13  2  0
 12 14  1  0
 14 15  1  0
 15 16  1  0
 16 17  1  0
 17 18  1  0
 18 19  1  0
 19 20  2  0
 20 21  1  0
 21 22  2  0
 22 23  1  0
 23 24  1  0
 23 25  2  0
 16 26  2  0
 26 27  1  0
 26 28  1  0
 28 29  2  0
 29 30  1  0
 30 31  2  0
 31 32  1  0
 32 33  2  0
 33 15  1  0
 25 19  1  0
 33 28  1  0
  1 34  1  0
  1 35  1  0
  1 36  1  0
  2 37  1  0
  2 38  1  0
  3 39  1  0
  3 40  1  0
  4 41  1  0
  4 42  1  0
  5 43  1  0
  5 44  1  0
  6 45  1  0
  6 46  1  0
  7 47  1  0
  7 48  1  0
  8 49  1  0
  8 50  1  0
  9 51  1  0
  9 52  1  0
 10 53  1  0
 10 54  1  0
 14 55  1  0
 14 56  1  0
 17 57  1  0
 17 58  1  0
 20 59  1  0
 21 60  1  0
 22 61  1  0
 24 62  1  0
 24 63  1  0
 24 64  1  0
 25 65  1  0
 27 66  1  0
 27 67  1  0
 27 68  1  0
 29 69  1  0
 30 70  1  0
 31 71  1  0
 32 72  1  0
M  CHG  1  26   1
M  END
$$$$
