
     RDKit          3D

 77 83  0  0  0  0  0  0  0  0999 V2000
   -7.0003   -3.6657   -0.9380 C   0  0  0  0  0  0  0  0  0  0  0  0
   -6.8123   -2.1464   -0.7997 C   0  0  0  0  0  0  0  0  0  0  0  0
   -7.6129   -1.6638    0.4151 C   0  0  0  0  0  0  0  0  0  0  0  0
   -7.2751   -1.4783   -2.0986 C   0  0  0  0  0  0  0  0  0  0  0  0
   -5.3874   -1.9721   -0.5988 O   0  0  0  0  0  0  0  0  0  0  0  0
   -4.8490   -0.7386   -0.4245 C   0  0  0  0  0  0  0  0  0  0  0  0
   -5.4903    0.3043   -0.4193 O   0  0  0  0  0  0  0  0  0  0  0  0
   -3.4735   -0.7882   -0.2579 N   0  0  0  0  0  0  0  0  0  0  0  0
   -2.7107   -2.0076   -0.5895 C   0  0  0  0  0  0  0  0  0  0  0  0
   -1.2578   -2.0226   -0.0465 C   0  0  0  0  0  0  0  0  0  0  0  0
   -0.6306   -0.7463   -0.3389 N   0  0  0  0  0  0  0  0  0  0  0  0
   -1.3698    0.3683    0.3288 C   0  0  2  0  0  0  0  0  0  0  0  0
   -2.7426    0.4893   -0.3226 C   0  0  0  0  0  0  0  0  0  0  0  0
   -0.3951    1.4680    0.1614 C   0  0  0  0  0  0  0  0  0  0  0  0
    0.8862    0.9337   -0.0617 C   0  0  0  0  0  0  0  0  0  0  0  0
    1.7714    1.9678   -0.1995 C   0  0  0  0  0  0  0  0  0  0  0  0
    3.0573    1.9036   -0.5406 O   0  0  0  0  0  0  0  0  0  0  0  0
    1.0561    3.1637    0.0263 N   0  0  0  0  0  0  0  0  0  0  0  0
    1.6242    4.4758    0.1109 C   0  0  0  0  0  0  0  0  0  0  0  0
    0.8925    5.5993   -0.2923 C   0  0  0  0  0  0  0  0  0  0  0  0
    1.4590    6.8749   -0.2160 C   0  0  0  0  0  0  0  0  0  0  0  0
    2.7532    7.0399    0.2719 C   0  0  0  0  0  0  0  0  0  0  0  0
    3.4824    5.9310    0.6932 C   0  0  0  0  0  0  0  0  0  0  0  0
    2.9214    4.6531    0.6197 C   0  0  0  0  0  0  0  0  0  0  0  0
   -0.3068    2.8339    0.1907 C   0  0  0  0  0  0  0  0  0  0  0  0
   -1.2454    3.7498    0.4169 O   0  0  0  0  0  0  0  0  0  0  0  0
    0.8236   -0.5509   -0.1203 C   0  0  1  0  0  0  0  0  0  0  0  0
    1.3962   -1.2283    1.1488 C   0  0  0  0  0  0  0  0  0  0  0  0
    0.9724   -1.1372    2.2947 O   0  0  0  0  0  0  0  0  0  0  0  0
    2.4909   -2.0016    0.7255 N   0  0  0  0  0  0  0  0  0  0  0  0
    3.3485   -2.7265    1.6324 C   0  0  0  0  0  0  0  0  0  0  0  0
    4.5465   -1.9181    2.0764 C   0  0  0  0  0  0  0  0  0  0  0  0
    4.3917   -0.8669    2.9944 C   0  0  0  0  0  0  0  0  0  0  0  0
    5.4916   -0.1105    3.4016 C   0  0  0  0  0  0  0  0  0  0  0  0
    6.7584   -0.3925    2.8946 C   0  0  0  0  0  0  0  0  0  0  0  0
    6.9260   -1.4324    1.9817 C   0  0  0  0  0  0  0  0  0  0  0  0
    5.8273   -2.1926    1.5754 C   0  0  0  0  0  0  0  0  0  0  0  0
    2.6730   -1.9063   -0.6647 C   0  0  0  0  0  0  0  0  0  0  0  0
    3.6170   -2.5314   -1.4594 C   0  0  0  0  0  0  0  0  0  0  0  0
    3.5710   -2.3065   -2.8390 C   0  0  0  0  0  0  0  0  0  0  0  0
    2.5918   -1.4709   -3.3993 C   0  0  0  0  0  0  0  0  0  0  0  0
    1.6439   -0.8448   -2.5887 C   0  0  0  0  0  0  0  0  0  0  0  0
    1.6999   -1.0658   -1.2189 C   0  0  0  0  0  0  0  0  0  0  0  0
   -6.4120   -4.0556   -1.7783 H   0  0  0  0  0  0  0  0  0  0  0  0
   -8.0507   -3.9331   -1.0947 H   0  0  0  0  0  0  0  0  0  0  0  0
   -6.6409   -4.1855   -0.0424 H   0  0  0  0  0  0  0  0  0  0  0  0
   -8.6670   -1.9526    0.3379 H   0  0  0  0  0  0  0  0  0  0  0  0
   -7.2025   -2.0827    1.3416 H   0  0  0  0  0  0  0  0  0  0  0  0
   -7.5792   -0.5750    0.5242 H   0  0  0  0  0  0  0  0  0  0  0  0
   -8.3121   -1.7395   -2.3322 H   0  0  0  0  0  0  0  0  0  0  0  0
   -6.6414   -1.7835   -2.9387 H   0  0  0  0  0  0  0  0  0  0  0  0
   -7.2183   -0.3876   -2.0438 H   0  0  0  0  0  0  0  0  0  0  0  0
   -2.6954   -2.0745   -1.6848 H   0  0  0  0  0  0  0  0  0  0  0  0
   -3.2405   -2.8908   -0.2171 H   0  0  0  0  0  0  0  0  0  0  0  0
   -0.7167   -2.8448   -0.5273 H   0  0  0  0  0  0  0  0  0  0  0  0
   -1.2735   -2.2208    1.0324 H   0  0  0  0  0  0  0  0  0  0  0  0
   -1.4833    0.1591    1.4024 H   0  0  0  0  0  0  0  0  0  0  0  0
   -2.6627    0.7683   -1.3819 H   0  0  0  0  0  0  0  0  0  0  0  0
   -3.3270    1.2737    0.1718 H   0  0  0  0  0  0  0  0  0  0  0  0
    3.3186    2.7540   -0.9363 H   0  0  0  0  0  0  0  0  0  0  0  0
   -0.1106    5.5083   -0.7005 H   0  0  0  0  0  0  0  0  0  0  0  0
    0.8845    7.7401   -0.5357 H   0  0  0  0  0  0  0  0  0  0  0  0
    3.1877    8.0348    0.3349 H   0  0  0  0  0  0  0  0  0  0  0  0
    4.4826    6.0629    1.0977 H   0  0  0  0  0  0  0  0  0  0  0  0
    3.4978    3.8176    1.0123 H   0  0  0  0  0  0  0  0  0  0  0  0
   -2.0819    3.2911    0.6065 H   0  0  0  0  0  0  0  0  0  0  0  0
    2.7698   -3.0039    2.5219 H   0  0  0  0  0  0  0  0  0  0  0  0
    3.6569   -3.6710    1.1695 H   0  0  0  0  0  0  0  0  0  0  0  0
    3.4072   -0.6296    3.3958 H   0  0  0  0  0  0  0  0  0  0  0  0
    5.3556    0.7023    4.1110 H   0  0  0  0  0  0  0  0  0  0  0  0
    7.6136    0.1996    3.2086 H   0  0  0  0  0  0  0  0  0  0  0  0
    7.9141   -1.6493    1.5829 H   0  0  0  0  0  0  0  0  0  0  0  0
    5.9810   -2.9981    0.8604 H   0  0  0  0  0  0  0  0  0  0  0  0
    4.3744   -3.1856   -1.0466 H   0  0  0  0  0  0  0  0  0  0  0  0
    4.3010   -2.7858   -3.4875 H   0  0  0  0  0  0  0  0  0  0  0  0
    2.5736   -1.3087   -4.4744 H   0  0  0  0  0  0  0  0  0  0  0  0
    0.8835   -0.1976   -3.0153 H   0  0  0  0  0  0  0  0  0  0  0  0
  1  2  1  0
  2  3  1  0
  2  4  1  0
  2  5  1  0
  5  6  1  0
  6  7  2  0
  6  8  1  0
  8  9  1  0
  9 10  1  0
 10 11  1  0
 11 12  1  0
 12 13  1  0
 12 14  1  0
 14 15  1  0
 15 16  2  0
 16 17  1  0
 16 18  1  0
 18 19  1  0
 19 20  2  0
 20 21  1  0
 21 22  2  0
 22 23  1  0
 23 24  2  0
 18 25  1  0
 25 26  1  0
 15 27  1  0
 27 28  1  0
 28 29  2  0
 28 30  1  0
 30 31  1  0
 31 32  1  0
 32 33  2  0
 33 34  1  0
 34 35  2  0
 35 36  1  0
 36 37  2  0
 30 38  1  0
 38 39  2  0
 39 40  1  0
 40 41  2  0
 41 42  1  0
 42 43  2  0
 13  8  1  0
 25 14  2  0
 43 27  1  0
 27 11  1  6
 37 32  1  0
 43 38  1  0
 24 19  1  0
  1 44  1  0
  1 45  1  0
  1 46  1  0
  3 47  1  0
  3 48  1  0
  3 49  1  0
  4 50  1  0
  4 51  1  0
  4 52  1  0
  9 53  1  0
  9 54  1  0
 10 55  1  0
 10 56  1  0
 12 57  1  1
 13 58  1  0
 13 59  1  0
 17 60  1  0
 20 61  1  0
 21 62  1  0
 22 63  1  0
 23 64  1  0
 24 65  1  0
 26 66  1  0
 31 67  1  0
 31 68  1  0
 33 69  1  0
 34 70  1  0
 35 71  1  0
 36 72  1  0
 37 73  1  0
 39 74  1  0
 40 75  1  0
 41 76  1  0
 42 77  1  0
M  END
$$$$
