
     RDKit          3D

 87 91  0  0  0  0  0  0  0  0999 V2000
   -0.1769    0.5780   -2.4198 C   0  0  0  0  0  0  0  0  0  0  0  0
   -0.0450    1.6239   -1.3052 C   0  0  0  0  0  0  0  0  0  0  0  0
    0.6867    2.8496   -1.8756 C   0  0  0  0  0  0  0  0  0  0  0  0
    0.8818    3.8783   -0.8571 N   0  0  0  0  0  0  0  0  0  0  0  0
   -0.2178    4.8644   -0.6746 C   0  0  0  0  0  0  0  0  0  0  0  0
   -1.0370    4.6285    0.5927 C   0  0  0  0  0  0  0  0  0  0  0  0
    0.2881    6.3191   -0.7554 C   0  0  0  0  0  0  0  0  0  0  0  0
    0.9475    6.5330   -2.0060 O   0  0  0  0  0  0  0  0  0  0  0  0
    1.9269    3.8283    0.0693 C   0  0  0  0  0  0  0  0  0  0  0  0
    1.9855    4.5785    1.0425 O   0  0  0  0  0  0  0  0  0  0  0  0
    3.0813    2.9148   -0.1402 C   0  0  0  0  0  0  0  0  0  0  0  0
    4.3184    3.5922   -0.1215 C   0  0  0  0  0  0  0  0  0  0  0  0
    5.5177    2.9166   -0.3182 C   0  0  0  0  0  0  0  0  0  0  0  0
    5.5061    1.5440   -0.5306 C   0  0  0  0  0  0  0  0  0  0  0  0
    4.2985    0.8423   -0.5307 C   0  0  0  0  0  0  0  0  0  0  0  0
    4.2304   -0.5572   -0.7482 N   0  0  0  0  0  0  0  0  0  0  0  0
    5.2683   -1.4730   -0.7854 C   0  0  0  0  0  0  0  0  0  0  0  0
    6.4402   -1.2138   -0.5484 O   0  0  0  0  0  0  0  0  0  0  0  0
    4.7858   -2.7257   -1.1349 N   0  0  0  0  0  0  0  0  0  0  0  0
    5.5030   -3.9382   -1.1873 C   0  0  0  0  0  0  0  0  0  0  0  0
    4.8492   -5.0461   -1.7407 C   0  0  0  0  0  0  0  0  0  0  0  0
    5.4887   -6.2874   -1.8219 C   0  0  0  0  0  0  0  0  0  0  0  0
    6.7993   -6.4451   -1.3520 C   0  0  0  0  0  0  0  0  0  0  0  0
    7.4914   -7.7844   -1.4172 C   0  0  0  0  0  0  0  0  0  0  0  0
    8.8264   -7.6853   -1.6722 F   0  0  0  0  0  0  0  0  0  0  0  0
    7.3831   -8.4796   -0.2509 F   0  0  0  0  0  0  0  0  0  0  0  0
    6.9883   -8.6008   -2.3857 F   0  0  0  0  0  0  0  0  0  0  0  0
    7.4448   -5.3387   -0.7837 C   0  0  0  0  0  0  0  0  0  0  0  0
    6.8025   -4.0972   -0.7039 C   0  0  0  0  0  0  0  0  0  0  0  0
    3.0632    1.5225   -0.3307 C   0  0  0  0  0  0  0  0  0  0  0  0
    1.9930    0.6612   -0.3751 O   0  0  0  0  0  0  0  0  0  0  0  0
    0.6676    1.0828   -0.0374 C   0  0  0  0  0  0  0  0  0  0  0  0
   -0.0378   -0.1619    0.5729 C   0  0  0  0  0  0  0  0  0  0  0  0
   -1.4532    0.0513    0.9228 N   0  0  0  0  0  0  0  0  0  0  0  0
   -1.5705    0.8193    2.1706 C   0  0  0  0  0  0  0  0  0  0  0  0
   -2.1523   -1.2449    1.0458 C   0  0  0  0  0  0  0  0  0  0  0  0
   -3.6574   -1.1071    1.1457 C   0  0  0  0  0  0  0  0  0  0  0  0
   -4.3778   -0.4089    0.1668 C   0  0  0  0  0  0  0  0  0  0  0  0
   -5.7672   -0.2789    0.2578 C   0  0  0  0  0  0  0  0  0  0  0  0
   -6.4787   -0.8498    1.3249 C   0  0  0  0  0  0  0  0  0  0  0  0
   -7.9418   -0.7029    1.4289 C   0  0  0  0  0  0  0  0  0  0  0  0
   -8.7827   -1.0105    0.3458 C   0  0  0  0  0  0  0  0  0  0  0  0
  -10.1705   -0.8670    0.4434 C   0  0  0  0  0  0  0  0  0  0  0  0
  -10.7418   -0.4131    1.6286 C   0  0  0  0  0  0  0  0  0  0  0  0
   -9.9288   -0.1013    2.7153 C   0  0  0  0  0  0  0  0  0  0  0  0
   -8.5415   -0.2450    2.6148 C   0  0  0  0  0  0  0  0  0  0  0  0
   -5.7503   -1.5605    2.2941 C   0  0  0  0  0  0  0  0  0  0  0  0
   -4.3596   -1.6896    2.2069 C   0  0  0  0  0  0  0  0  0  0  0  0
    0.8000    0.1841   -2.7198 H   0  0  0  0  0  0  0  0  0  0  0  0
   -0.6462    1.0179   -3.3062 H   0  0  0  0  0  0  0  0  0  0  0  0
   -0.8060   -0.2624   -2.1124 H   0  0  0  0  0  0  0  0  0  0  0  0
   -1.0586    1.9352   -1.0242 H   0  0  0  0  0  0  0  0  0  0  0  0
    1.6544    2.5701   -2.3043 H   0  0  0  0  0  0  0  0  0  0  0  0
    0.1197    3.2828   -2.7085 H   0  0  0  0  0  0  0  0  0  0  0  0
   -0.8964    4.7318   -1.5269 H   0  0  0  0  0  0  0  0  0  0  0  0
   -0.4474    4.7547    1.5048 H   0  0  0  0  0  0  0  0  0  0  0  0
   -1.4531    3.6178    0.6018 H   0  0  0  0  0  0  0  0  0  0  0  0
   -1.8745    5.3321    0.6426 H   0  0  0  0  0  0  0  0  0  0  0  0
   -0.5519    7.0195   -0.7034 H   0  0  0  0  0  0  0  0  0  0  0  0
    0.9840    6.5777    0.0475 H   0  0  0  0  0  0  0  0  0  0  0  0
    1.6665    5.8758   -2.0334 H   0  0  0  0  0  0  0  0  0  0  0  0
    4.3483    4.6683    0.0491 H   0  0  0  0  0  0  0  0  0  0  0  0
    6.4607    3.4573   -0.3053 H   0  0  0  0  0  0  0  0  0  0  0  0
    6.4571    1.0472   -0.6946 H   0  0  0  0  0  0  0  0  0  0  0  0
    3.2910   -0.9269   -0.7012 H   0  0  0  0  0  0  0  0  0  0  0  0
    3.8602   -2.7392   -1.5347 H   0  0  0  0  0  0  0  0  0  0  0  0
    3.8337   -4.9600   -2.1190 H   0  0  0  0  0  0  0  0  0  0  0  0
    4.9583   -7.1326   -2.2581 H   0  0  0  0  0  0  0  0  0  0  0  0
    8.4595   -5.4327   -0.3992 H   0  0  0  0  0  0  0  0  0  0  0  0
    7.3470   -3.2750   -0.2490 H   0  0  0  0  0  0  0  0  0  0  0  0
    0.7017    1.8304    0.7590 H   0  0  0  0  0  0  0  0  0  0  0  0
    0.0569   -0.9820   -0.1512 H   0  0  0  0  0  0  0  0  0  0  0  0
    0.5329   -0.5091    1.4459 H   0  0  0  0  0  0  0  0  0  0  0  0
   -1.0560    1.7822    2.0961 H   0  0  0  0  0  0  0  0  0  0  0  0
   -1.1524    0.2779    3.0280 H   0  0  0  0  0  0  0  0  0  0  0  0
   -2.6160    1.0579    2.3917 H   0  0  0  0  0  0  0  0  0  0  0  0
   -1.9674   -1.8550    0.1510 H   0  0  0  0  0  0  0  0  0  0  0  0
   -1.7561   -1.8154    1.8971 H   0  0  0  0  0  0  0  0  0  0  0  0
   -3.8531    0.0534   -0.6671 H   0  0  0  0  0  0  0  0  0  0  0  0
   -6.2919    0.2913   -0.5067 H   0  0  0  0  0  0  0  0  0  0  0  0
   -8.3594   -1.3799   -0.5861 H   0  0  0  0  0  0  0  0  0  0  0  0
  -10.8023   -1.1124   -0.4075 H   0  0  0  0  0  0  0  0  0  0  0  0
  -11.8203   -0.2997    1.7051 H   0  0  0  0  0  0  0  0  0  0  0  0
  -10.3710    0.2599    3.6408 H   0  0  0  0  0  0  0  0  0  0  0  0
   -7.9246    0.0185    3.4721 H   0  0  0  0  0  0  0  0  0  0  0  0
   -6.2694   -2.0300    3.1280 H   0  0  0  0  0  0  0  0  0  0  0  0
   -3.8327   -2.2462    2.9789 H   0  0  0  0  0  0  0  0  0  0  0  0
  1  2  1  0
  2  3  1  0
  3  4  1  0
  4  5  1  0
  5  6  1  0
  5  7  1  0
  7  8  1  0
  4  9  1  0
  9 10  2  0
  9 11  1  0
 11 12  2  0
 12 13  1  0
 13 14  2  0
 14 15  1  0
 15 16  1  0
 16 17  1  0
 17 18  2  0
 17 19  1  0
 19 20  1  0
 20 21  2  0
 21 22  1  0
 22 23  2  0
 23 24  1  0
 24 25  1  0
 24 26  1  0
 24 27  1  0
 23 28  1  0
 28 29  2  0
 15 30  2  0
 30 31  1  0
 31 32  1  0
 32 33  1  0
 33 34  1  0
 34 35  1  0
 34 36  1  0
 36 37  1  0
 37 38  2  0
 38 39  1  0
 39 40  2  0
 40 41  1  0
 41 42  2  0
 42 43  1  0
 43 44  2  0
 44 45  1  0
 45 46  2  0
 40 47  1  0
 47 48  2  0
 32  2  1  0
 48 37  1  0
 30 11  1  0
 46 41  1  0
 29 20  1  0
  1 49  1  0
  1 50  1  0
  1 51  1  0
  2 52  1  0
  3 53  1  0
  3 54  1  0
  5 55  1  0
  6 56  1  0
  6 57  1  0
  6 58  1  0
  7 59  1  0
  7 60  1  0
  8 61  1  0
 12 62  1  0
 13 63  1  0
 14 64  1  0
 16 65  1  0
 19 66  1  0
 21 67  1  0
 22 68  1  0
 28 69  1  0
 29 70  1  0
 32 71  1  0
 33 72  1  0
 33 73  1  0
 35 74  1  0
 35 75  1  0
 35 76  1  0
 36 77  1  0
 36 78  1  0
 38 79  1  0
 39 80  1  0
 42 81  1  0
 43 82  1  0
 44 83  1  0
 45 84  1  0
 46 85  1  0
 47 86  1  0
 48 87  1  0
M  END
$$$$
