
     RDKit          3D

 45 47  0  0  0  0  0  0  0  0999 V2000
   -5.9304   -2.2798   -0.0897 C   0  0  0  0  0  0  0  0  0  0  0  0
   -4.6626   -1.6019   -0.5916 C   0  0  0  0  0  0  0  0  0  0  0  0
   -4.4068   -0.3313    0.1052 N   0  0  0  0  0  0  0  0  0  0  0  0
   -5.4181    0.7380   -0.0076 C   0  0  0  0  0  0  0  0  0  0  0  0
   -5.4991    1.3287   -1.4094 C   0  0  0  0  0  0  0  0  0  0  0  0
   -3.0785    0.1293    0.1335 C   0  0  0  0  0  0  0  0  0  0  0  0
   -2.6559    0.9720    1.1725 C   0  0  0  0  0  0  0  0  0  0  0  0
   -1.3422    1.4524    1.2426 C   0  0  0  0  0  0  0  0  0  0  0  0
   -0.4023    1.0920    0.2747 C   0  0  0  0  0  0  0  0  0  0  0  0
    0.9486    1.6552    0.3552 C   0  0  0  0  0  0  0  0  0  0  0  0
    2.1117    0.9931    0.2929 C   0  0  0  0  0  0  0  0  0  0  0  0
    2.4015   -0.4589    0.1383 C   0  0  0  0  0  0  0  0  0  0  0  0
    1.6413   -1.3926    0.0036 O   0  0  0  0  0  0  0  0  0  0  0  0
    3.8658   -0.5674    0.1728 C   0  0  0  0  0  0  0  0  0  0  0  0
    4.6347   -1.7128    0.0693 C   0  0  0  0  0  0  0  0  0  0  0  0
    6.0263   -1.5682    0.1288 C   0  0  0  0  0  0  0  0  0  0  0  0
    6.6195   -0.2928    0.2891 C   0  0  0  0  0  0  0  0  0  0  0  0
    8.0917   -0.1204    0.3540 C   0  0  0  0  0  0  0  0  0  0  0  0
    8.6762    0.9375    0.4887 O   0  0  0  0  0  0  0  0  0  0  0  0
    8.7566   -1.2827    0.2465 O   0  0  0  0  0  0  0  0  0  0  0  0
    5.8189    0.8551    0.3919 C   0  0  0  0  0  0  0  0  0  0  0  0
    4.4463    0.6877    0.3306 C   0  0  0  0  0  0  0  0  0  0  0  0
    3.4072    1.7193    0.4140 C   0  0  0  0  0  0  0  0  0  0  0  0
    3.5923    2.9096    0.5538 O   0  0  0  0  0  0  0  0  0  0  0  0
   -0.8092    0.2658   -0.7730 C   0  0  0  0  0  0  0  0  0  0  0  0
   -2.1247   -0.2159   -0.8338 C   0  0  0  0  0  0  0  0  0  0  0  0
   -6.0095   -3.2874   -0.5107 H   0  0  0  0  0  0  0  0  0  0  0  0
   -5.9283   -2.3636    1.0020 H   0  0  0  0  0  0  0  0  0  0  0  0
   -6.8276   -1.7299   -0.3892 H   0  0  0  0  0  0  0  0  0  0  0  0
   -4.7255   -1.4527   -1.6755 H   0  0  0  0  0  0  0  0  0  0  0  0
   -3.8392   -2.3028   -0.4019 H   0  0  0  0  0  0  0  0  0  0  0  0
   -5.2256    1.5441    0.7101 H   0  0  0  0  0  0  0  0  0  0  0  0
   -6.4018    0.3459    0.2719 H   0  0  0  0  0  0  0  0  0  0  0  0
   -4.5438    1.7637   -1.7194 H   0  0  0  0  0  0  0  0  0  0  0  0
   -6.2537    2.1214   -1.4381 H   0  0  0  0  0  0  0  0  0  0  0  0
   -5.7825    0.5728   -2.1480 H   0  0  0  0  0  0  0  0  0  0  0  0
   -3.3501    1.2422    1.9643 H   0  0  0  0  0  0  0  0  0  0  0  0
   -1.0653    2.1001    2.0710 H   0  0  0  0  0  0  0  0  0  0  0  0
    0.9691    2.7348    0.5073 H   0  0  0  0  0  0  0  0  0  0  0  0
    4.1727   -2.6886   -0.0529 H   0  0  0  0  0  0  0  0  0  0  0  0
    6.6507   -2.4573    0.0499 H   0  0  0  0  0  0  0  0  0  0  0  0
    9.7009   -1.0235    0.3054 H   0  0  0  0  0  0  0  0  0  0  0  0
    6.2536    1.8440    0.5158 H   0  0  0  0  0  0  0  0  0  0  0  0
   -0.1137   -0.0222   -1.5572 H   0  0  0  0  0  0  0  0  0  0  0  0
   -2.3890   -0.8519   -1.6732 H   0  0  0  0  0  0  0  0  0  0  0  0
  1  2  1  0
  2  3  1  0
  3  4  1  0
  4  5  1  0
  3  6  1  0
  6  7  2  0
  7  8  1  0
  8  9  2  0
  9 10  1  0
 10 11  2  3
 11 12  1  0
 12 13  2  0
 12 14  1  0
 14 15  2  0
 15 16  1  0
 16 17  2  0
 17 18  1  0
 18 19  2  0
 18 20  1  0
 17 21  1  0
 21 22  2  0
 22 23  1  0
 23 24  2  0
  9 25  1  0
 25 26  2  0
 26  6  1  0
 23 11  1  0
 22 14  1  0
  1 27  1  0
  1 28  1  0
  1 29  1  0
  2 30  1  0
  2 31  1  0
  4 32  1  0
  4 33  1  0
  5 34  1  0
  5 35  1  0
  5 36  1  0
  7 37  1  0
  8 38  1  0
 10 39  1  0
 15 40  1  0
 16 41  1  0
 20 42  1  0
 21 43  1  0
 25 44  1  0
 26 45  1  0
M  END
$$$$
