
     RDKit          3D

 44 46  0  0  0  0  0  0  0  0999 V2000
    7.3943    1.6186   -1.3283 C   0  0  0  0  0  0  0  0  0  0  0  0
    7.3437    0.4559   -0.5066 O   0  0  0  0  0  0  0  0  0  0  0  0
    6.1051   -0.0837   -0.2797 C   0  0  0  0  0  0  0  0  0  0  0  0
    4.8917    0.4094   -0.7689 C   0  0  0  0  0  0  0  0  0  0  0  0
    3.6932   -0.2421   -0.4618 C   0  0  0  0  0  0  0  0  0  0  0  0
    3.7076   -1.3765    0.3515 C   0  0  0  0  0  0  0  0  0  0  0  0
    2.5188   -1.9996    0.6128 O   0  0  0  0  0  0  0  0  0  0  0  0
    1.9125   -1.4853    1.8032 C   0  0  0  0  0  0  0  0  0  0  0  0
    0.6038   -0.9192    1.4116 C   0  0  0  0  0  0  0  0  0  0  0  0
   -0.5109   -1.4157    0.7827 C   0  0  0  0  0  0  0  0  0  0  0  0
   -1.4131   -0.3179    0.7132 C   0  0  0  0  0  0  0  0  0  0  0  0
   -2.7392   -0.3298    0.0696 C   0  0  0  0  0  0  0  0  0  0  0  0
   -2.9940   -1.2044   -0.7585 O   0  0  0  0  0  0  0  0  0  0  0  0
   -3.6782    0.6639    0.3913 N   0  0  0  0  0  0  0  0  0  0  0  0
   -3.6254    1.4350    1.6282 C   0  0  0  0  0  0  0  0  0  0  0  0
   -4.8645    0.8710   -0.4422 C   0  0  0  0  0  0  0  0  0  0  0  0
   -5.9108   -0.2220   -0.3739 C   0  0  0  0  0  0  0  0  0  0  0  0
   -6.7687    0.1004   -1.5799 C   0  0  0  0  0  0  0  0  0  0  0  0
   -5.9228    0.7139   -2.5631 O   0  0  0  0  0  0  0  0  0  0  0  0
   -4.6542    1.0143   -1.9487 C   0  0  0  0  0  0  0  0  0  0  0  0
   -0.8479    0.7779    1.2516 N   0  0  0  0  0  0  0  0  0  0  0  0
    0.4002    0.3927    1.6998 O   0  0  0  0  0  0  0  0  0  0  0  0
    4.9177   -1.8815    0.8335 C   0  0  0  0  0  0  0  0  0  0  0  0
    4.9726   -3.2928    1.8248 Cl  0  0  0  0  0  0  0  0  0  0  0  0
    6.1110   -1.2310    0.5205 C   0  0  0  0  0  0  0  0  0  0  0  0
    7.0018    1.4148   -2.3293 H   0  0  0  0  0  0  0  0  0  0  0  0
    6.8684    2.4566   -0.8605 H   0  0  0  0  0  0  0  0  0  0  0  0
    8.4423    1.9031   -1.4346 H   0  0  0  0  0  0  0  0  0  0  0  0
    4.8437    1.2946   -1.3947 H   0  0  0  0  0  0  0  0  0  0  0  0
    2.7546    0.1398   -0.8515 H   0  0  0  0  0  0  0  0  0  0  0  0
    1.7605   -2.3207    2.4918 H   0  0  0  0  0  0  0  0  0  0  0  0
    2.5317   -0.7371    2.3171 H   0  0  0  0  0  0  0  0  0  0  0  0
   -0.6629   -2.4180    0.4064 H   0  0  0  0  0  0  0  0  0  0  0  0
   -3.0354    0.9325    2.3982 H   0  0  0  0  0  0  0  0  0  0  0  0
   -3.2126    2.4235    1.4090 H   0  0  0  0  0  0  0  0  0  0  0  0
   -4.6391    1.5476    2.0281 H   0  0  0  0  0  0  0  0  0  0  0  0
   -5.3356    1.8082   -0.1086 H   0  0  0  0  0  0  0  0  0  0  0  0
   -6.4798   -0.2210    0.5602 H   0  0  0  0  0  0  0  0  0  0  0  0
   -5.4708   -1.2184   -0.4905 H   0  0  0  0  0  0  0  0  0  0  0  0
   -7.5496    0.8225   -1.3226 H   0  0  0  0  0  0  0  0  0  0  0  0
   -7.2447   -0.7863   -2.0048 H   0  0  0  0  0  0  0  0  0  0  0  0
   -4.3539    2.0322   -2.2212 H   0  0  0  0  0  0  0  0  0  0  0  0
   -3.9163    0.3241   -2.3682 H   0  0  0  0  0  0  0  0  0  0  0  0
    7.0553   -1.6147    0.8931 H   0  0  0  0  0  0  0  0  0  0  0  0
  1  2  1  0
  2  3  1  0
  3  4  2  0
  4  5  1  0
  5  6  2  0
  6  7  1  0
  7  8  1  0
  8  9  1  0
  9 10  2  0
 10 11  1  0
 11 12  1  0
 12 13  2  0
 12 14  1  0
 14 15  1  0
 14 16  1  0
 16 17  1  0
 17 18  1  0
 18 19  1  0
 19 20  1  0
 11 21  2  0
 21 22  1  0
  6 23  1  0
 23 24  1  0
 23 25  2  0
 25  3  1  0
 22  9  1  0
 20 16  1  0
  1 26  1  0
  1 27  1  0
  1 28  1  0
  4 29  1  0
  5 30  1  0
  8 31  1  0
  8 32  1  0
 10 33  1  0
 15 34  1  0
 15 35  1  0
 15 36  1  0
 16 37  1  0
 17 38  1  0
 17 39  1  0
 18 40  1  0
 18 41  1  0
 20 42  1  0
 20 43  1  0
 25 44  1  0
M  END
$$$$
