
     RDKit          3D

 52 56  0  0  0  0  0  0  0  0999 V2000
    8.7092   -0.3842    0.4557 C   0  0  0  0  0  0  0  0  0  0  0  0
    7.5300   -0.2289   -0.4878 C   0  0  0  0  0  0  0  0  0  0  0  0
    6.3339   -0.4043    0.2703 O   0  0  0  0  0  0  0  0  0  0  0  0
    5.1492   -0.2795   -0.3985 C   0  0  0  0  0  0  0  0  0  0  0  0
    4.9948   -0.0352   -1.7588 C   0  0  0  0  0  0  0  0  0  0  0  0
    3.7103    0.0680   -2.3092 C   0  0  0  0  0  0  0  0  0  0  0  0
    2.5672   -0.0680   -1.5341 C   0  0  0  0  0  0  0  0  0  0  0  0
    1.3618    0.0402   -2.1083 N   0  0  0  0  0  0  0  0  0  0  0  0
    0.2629   -0.0859   -1.3267 C   0  0  0  0  0  0  0  0  0  0  0  0
   -1.1760    0.0945   -2.2514 Cl  0  0  0  0  0  0  0  0  0  0  0  0
    0.2866   -0.3490    0.0385 C   0  0  0  0  0  0  0  0  0  0  0  0
   -0.9243   -0.5199    0.9305 C   0  0  0  0  0  0  0  0  0  0  0  0
   -1.8303   -1.6844    0.5400 C   0  0  0  0  0  0  0  0  0  0  0  0
   -3.1163   -0.9465    0.2706 C   0  0  0  0  0  0  0  0  0  0  0  0
   -4.3213   -1.6400   -0.2415 C   0  0  0  0  0  0  0  0  0  0  0  0
   -4.3312   -3.0212   -0.4658 C   0  0  0  0  0  0  0  0  0  0  0  0
   -5.4861   -3.6424   -0.9488 C   0  0  0  0  0  0  0  0  0  0  0  0
   -6.6309   -2.8897   -1.2082 C   0  0  0  0  0  0  0  0  0  0  0  0
   -6.6258   -1.5139   -0.9860 C   0  0  0  0  0  0  0  0  0  0  0  0
   -5.4743   -0.8893   -0.5036 C   0  0  0  0  0  0  0  0  0  0  0  0
   -3.0900    0.3249    0.5367 N   0  0  0  0  0  0  0  0  0  0  0  0
   -1.8244    0.6262    0.9708 N   0  0  0  0  0  0  0  0  0  0  0  0
   -1.4477    1.8672    1.4934 C   0  0  0  0  0  0  0  0  0  0  0  0
   -0.2852    2.0535    1.8662 O   0  0  0  0  0  0  0  0  0  0  0  0
   -2.4310    2.9415    1.5482 C   0  0  0  0  0  0  0  0  0  0  0  0
   -2.2285    4.2581    1.1724 C   0  0  0  0  0  0  0  0  0  0  0  0
   -3.3716    5.0767    1.4027 C   0  0  0  0  0  0  0  0  0  0  0  0
   -4.3991    4.3688    1.9835 C   0  0  0  0  0  0  0  0  0  0  0  0
   -3.9754    2.7357    2.2618 S   0  0  0  0  0  0  0  0  0  0  0  0
    1.5632   -0.4575    0.6146 C   0  0  0  0  0  0  0  0  0  0  0  0
    2.7230   -0.3177   -0.1612 C   0  0  0  0  0  0  0  0  0  0  0  0
    4.0104   -0.4201    0.3961 C   0  0  0  0  0  0  0  0  0  0  0  0
    9.6552   -0.2586   -0.0785 H   0  0  0  0  0  0  0  0  0  0  0  0
    8.6575    0.3548    1.2623 H   0  0  0  0  0  0  0  0  0  0  0  0
    8.6980   -1.3723    0.9275 H   0  0  0  0  0  0  0  0  0  0  0  0
    7.5971   -0.9910   -1.2727 H   0  0  0  0  0  0  0  0  0  0  0  0
    7.5564    0.7730   -0.9317 H   0  0  0  0  0  0  0  0  0  0  0  0
    5.8438    0.0822   -2.4238 H   0  0  0  0  0  0  0  0  0  0  0  0
    3.6003    0.2625   -3.3739 H   0  0  0  0  0  0  0  0  0  0  0  0
   -0.5826   -0.6771    1.9626 H   0  0  0  0  0  0  0  0  0  0  0  0
   -1.4909   -2.2497   -0.3316 H   0  0  0  0  0  0  0  0  0  0  0  0
   -1.9790   -2.3665    1.3839 H   0  0  0  0  0  0  0  0  0  0  0  0
   -3.4575   -3.6360   -0.2738 H   0  0  0  0  0  0  0  0  0  0  0  0
   -5.4936   -4.7155   -1.1246 H   0  0  0  0  0  0  0  0  0  0  0  0
   -7.5279   -3.3750   -1.5852 H   0  0  0  0  0  0  0  0  0  0  0  0
   -7.5167   -0.9248   -1.1890 H   0  0  0  0  0  0  0  0  0  0  0  0
   -5.4835    0.1862   -0.3366 H   0  0  0  0  0  0  0  0  0  0  0  0
   -1.2979    4.6088    0.7412 H   0  0  0  0  0  0  0  0  0  0  0  0
   -3.4322    6.1312    1.1633 H   0  0  0  0  0  0  0  0  0  0  0  0
   -5.3749    4.7333    2.2731 H   0  0  0  0  0  0  0  0  0  0  0  0
    1.6612   -0.6358    1.6848 H   0  0  0  0  0  0  0  0  0  0  0  0
    4.1339   -0.6077    1.4607 H   0  0  0  0  0  0  0  0  0  0  0  0
  1  2  1  0
  2  3  1  0
  3  4  1  0
  4  5  2  0
  5  6  1  0
  6  7  2  0
  7  8  1  0
  8  9  2  0
  9 10  1  0
  9 11  1  0
 11 12  1  0
 12 13  1  0
 13 14  1  0
 14 15  1  0
 15 16  2  0
 16 17  1  0
 17 18  2  0
 18 19  1  0
 19 20  2  0
 14 21  2  0
 21 22  1  0
 22 23  1  0
 23 24  2  0
 23 25  1  0
 25 26  2  0
 26 27  1  0
 27 28  2  0
 28 29  1  0
 11 30  2  0
 30 31  1  0
 31 32  2  0
 32  4  1  0
 31  7  1  0
 22 12  1  0
 29 25  1  0
 20 15  1  0
  1 33  1  0
  1 34  1  0
  1 35  1  0
  2 36  1  0
  2 37  1  0
  5 38  1  0
  6 39  1  0
 12 40  1  0
 13 41  1  0
 13 42  1  0
 16 43  1  0
 17 44  1  0
 18 45  1  0
 19 46  1  0
 20 47  1  0
 26 48  1  0
 27 49  1  0
 28 50  1  0
 30 51  1  0
 32 52  1  0
M  END
$$$$
