
     RDKit          3D

 60 62  0  0  0  0  0  0  0  0999 V2000
    6.3583    2.3628   -4.3803 C   0  0  0  0  0  0  0  0  0  0  0  0
    5.5711    1.1789   -4.4108 O   0  0  0  0  0  0  0  0  0  0  0  0
    4.6206    1.0430   -3.4376 C   0  0  0  0  0  0  0  0  0  0  0  0
    3.8380   -0.1102   -3.5436 C   0  0  0  0  0  0  0  0  0  0  0  0
    2.8275   -0.3811   -2.6156 C   0  0  0  0  0  0  0  0  0  0  0  0
    2.5855    0.5161   -1.5731 C   0  0  0  0  0  0  0  0  0  0  0  0
    1.5476    0.2683   -0.5348 C   0  0  0  0  0  0  0  0  0  0  0  0
    1.8067    0.6284    0.6136 O   0  0  0  0  0  0  0  0  0  0  0  0
    0.2999   -0.5041   -0.8710 C   0  0  0  0  0  0  0  0  0  0  0  0
   -0.4665   -0.1607   -2.1085 C   0  0  0  0  0  0  0  0  0  0  0  0
   -0.0618    0.3693   -3.1241 O   0  0  0  0  0  0  0  0  0  0  0  0
   -1.9102   -0.6104   -1.9114 C   0  0  0  0  0  0  0  0  0  0  0  0
   -2.7201   -0.7471   -2.8017 O   0  0  0  0  0  0  0  0  0  0  0  0
   -2.0370   -0.8285   -0.5635 N   0  0  0  0  0  0  0  0  0  0  0  0
   -3.2316   -1.3636    0.0768 C   0  0  0  0  0  0  0  0  0  0  0  0
   -2.9824   -2.6902    0.8271 C   0  0  0  0  0  0  0  0  0  0  0  0
   -2.2099   -3.6947    0.0610 N   0  0  0  0  0  0  0  0  0  0  0  0
   -1.8338   -4.8070    0.9379 C   0  0  0  0  0  0  0  0  0  0  0  0
   -2.9789   -4.2039   -1.0787 C   0  0  0  0  0  0  0  0  0  0  0  0
   -0.8374   -0.4385    0.1785 C   0  0  0  0  0  0  0  0  0  0  0  0
   -1.0883    0.8934    0.8799 C   0  0  0  0  0  0  0  0  0  0  0  0
   -1.2923    2.0844    0.1616 C   0  0  0  0  0  0  0  0  0  0  0  0
   -1.5494    3.2847    0.8252 C   0  0  0  0  0  0  0  0  0  0  0  0
   -1.6269    3.3222    2.2174 C   0  0  0  0  0  0  0  0  0  0  0  0
   -1.4412    2.1581    2.9641 C   0  0  0  0  0  0  0  0  0  0  0  0
   -1.5379    2.0877    4.3298 O   0  0  0  0  0  0  0  0  0  0  0  0
   -1.8954    3.2739    5.0254 C   0  0  0  0  0  0  0  0  0  0  0  0
   -1.1486    0.9556    2.2886 C   0  0  0  0  0  0  0  0  0  0  0  0
   -0.9789   -0.2209    2.9847 O   0  0  0  0  0  0  0  0  0  0  0  0
    0.2273   -0.1970    3.7523 C   0  0  0  0  0  0  0  0  0  0  0  0
    3.3798    1.6635   -1.4540 C   0  0  0  0  0  0  0  0  0  0  0  0
    4.3902    1.9287   -2.3854 C   0  0  0  0  0  0  0  0  0  0  0  0
    6.9625    2.4106   -3.4683 H   0  0  0  0  0  0  0  0  0  0  0  0
    5.7341    3.2561   -4.4892 H   0  0  0  0  0  0  0  0  0  0  0  0
    7.0442    2.3301   -5.2323 H   0  0  0  0  0  0  0  0  0  0  0  0
    4.0171   -0.8052   -4.3612 H   0  0  0  0  0  0  0  0  0  0  0  0
    2.2514   -1.2936   -2.7326 H   0  0  0  0  0  0  0  0  0  0  0  0
    0.5969   -1.5573   -0.9813 H   0  0  0  0  0  0  0  0  0  0  0  0
   -4.0050   -1.5079   -0.6857 H   0  0  0  0  0  0  0  0  0  0  0  0
   -3.6085   -0.6087    0.7754 H   0  0  0  0  0  0  0  0  0  0  0  0
   -3.9443   -3.1024    1.1588 H   0  0  0  0  0  0  0  0  0  0  0  0
   -2.4225   -2.4448    1.7386 H   0  0  0  0  0  0  0  0  0  0  0  0
   -1.2315   -5.5413    0.3914 H   0  0  0  0  0  0  0  0  0  0  0  0
   -2.7080   -5.3187    1.3564 H   0  0  0  0  0  0  0  0  0  0  0  0
   -1.2119   -4.4500    1.7666 H   0  0  0  0  0  0  0  0  0  0  0  0
   -3.2062   -3.4090   -1.7948 H   0  0  0  0  0  0  0  0  0  0  0  0
   -3.9216   -4.6677   -0.7662 H   0  0  0  0  0  0  0  0  0  0  0  0
   -2.3958   -4.9509   -1.6293 H   0  0  0  0  0  0  0  0  0  0  0  0
   -0.6250   -1.2235    0.9110 H   0  0  0  0  0  0  0  0  0  0  0  0
   -1.2668    2.1084   -0.9246 H   0  0  0  0  0  0  0  0  0  0  0  0
   -1.7032    4.1960    0.2511 H   0  0  0  0  0  0  0  0  0  0  0  0
   -1.8421    4.2766    2.6856 H   0  0  0  0  0  0  0  0  0  0  0  0
   -1.9532    3.0314    6.0909 H   0  0  0  0  0  0  0  0  0  0  0  0
   -1.1315    4.0484    4.9023 H   0  0  0  0  0  0  0  0  0  0  0  0
   -2.8810    3.6347    4.7134 H   0  0  0  0  0  0  0  0  0  0  0  0
    0.6190   -1.2184    3.7844 H   0  0  0  0  0  0  0  0  0  0  0  0
    1.0013    0.4457    3.3173 H   0  0  0  0  0  0  0  0  0  0  0  0
    0.0125    0.1108    4.7798 H   0  0  0  0  0  0  0  0  0  0  0  0
    3.2167    2.3582   -0.6318 H   0  0  0  0  0  0  0  0  0  0  0  0
    4.9787    2.8309   -2.2557 H   0  0  0  0  0  0  0  0  0  0  0  0
  1  2  1  0
  2  3  1  0
  3  4  2  0
  4  5  1  0
  5  6  2  0
  6  7  1  0
  7  8  2  0
  7  9  1  0
  9 10  1  0
 10 11  2  0
 10 12  1  0
 12 13  2  0
 12 14  1  0
 14 15  1  0
 15 16  1  0
 16 17  1  0
 17 18  1  0
 17 19  1  0
 14 20  1  0
 20 21  1  0
 21 22  2  0
 22 23  1  0
 23 24  2  0
 24 25  1  0
 25 26  1  0
 26 27  1  0
 25 28  2  0
 28 29  1  0
 29 30  1  0
  6 31  1  0
 31 32  2  0
 32  3  1  0
 20  9  1  0
 28 21  1  0
  1 33  1  0
  1 34  1  0
  1 35  1  0
  4 36  1  0
  5 37  1  0
  9 38  1  0
 15 39  1  0
 15 40  1  0
 16 41  1  0
 16 42  1  0
 18 43  1  0
 18 44  1  0
 18 45  1  0
 19 46  1  0
 19 47  1  0
 19 48  1  0
 20 49  1  0
 22 50  1  0
 23 51  1  0
 24 52  1  0
 27 53  1  0
 27 54  1  0
 27 55  1  0
 30 56  1  0
 30 57  1  0
 30 58  1  0
 31 59  1  0
 32 60  1  0
M  END
$$$$
