
     RDKit          3D

 46 48  0  0  0  0  0  0  0  0999 V2000
    6.0101    0.9414   -2.1857 C   0  0  0  0  0  0  0  0  0  0  0  0
    4.7457    0.4567   -2.6191 O   0  0  0  0  0  0  0  0  0  0  0  0
    3.8374    0.1431   -1.6472 C   0  0  0  0  0  0  0  0  0  0  0  0
    4.0213    0.2821   -0.2736 C   0  0  0  0  0  0  0  0  0  0  0  0
    3.0021   -0.0807    0.6185 C   0  0  0  0  0  0  0  0  0  0  0  0
    1.7727   -0.5777    0.1574 C   0  0  0  0  0  0  0  0  0  0  0  0
    0.6554   -1.0122    1.1033 C   0  0  0  0  0  0  0  0  0  0  0  0
    0.8657   -0.7845    2.6075 C   0  0  0  0  0  0  0  0  0  0  0  0
   -0.6779   -0.5036    0.6875 N   0  0  0  0  0  0  0  0  0  0  0  0
   -1.7514   -1.3358    0.3318 C   0  0  0  0  0  0  0  0  0  0  0  0
   -1.6077   -2.8215    0.2747 C   0  0  0  0  0  0  0  0  0  0  0  0
   -2.8335   -0.5097    0.0870 C   0  0  0  0  0  0  0  0  0  0  0  0
   -4.1489   -0.8690   -0.2800 C   0  0  0  0  0  0  0  0  0  0  0  0
   -4.7639   -2.2055   -0.5002 C   0  0  0  0  0  0  0  0  0  0  0  0
   -4.9483    0.2325   -0.4462 N   0  0  0  0  0  0  0  0  0  0  0  0
   -4.5036    1.6140   -0.2642 N   0  0  0  0  0  0  0  0  0  0  0  0
   -3.2328    1.9739    0.0971 C   0  0  0  0  0  0  0  0  0  0  0  0
   -2.9303    3.4234    0.2425 C   0  0  0  0  0  0  0  0  0  0  0  0
   -2.4009    0.8480    0.2685 C   0  0  0  0  0  0  0  0  0  0  0  0
   -1.0669    0.8372    0.6335 C   0  0  0  0  0  0  0  0  0  0  0  0
   -0.1636    1.9880    0.9296 C   0  0  0  0  0  0  0  0  0  0  0  0
    1.6105   -0.7251   -1.2309 C   0  0  0  0  0  0  0  0  0  0  0  0
    2.6277   -0.3636   -2.1186 C   0  0  0  0  0  0  0  0  0  0  0  0
    6.6222    1.1207   -3.0750 H   0  0  0  0  0  0  0  0  0  0  0  0
    5.9047    1.8942   -1.6556 H   0  0  0  0  0  0  0  0  0  0  0  0
    6.5285    0.1993   -1.5689 H   0  0  0  0  0  0  0  0  0  0  0  0
    4.9458    0.6705    0.1412 H   0  0  0  0  0  0  0  0  0  0  0  0
    3.1952    0.0435    1.6811 H   0  0  0  0  0  0  0  0  0  0  0  0
    0.6254   -2.1015    0.9920 H   0  0  0  0  0  0  0  0  0  0  0  0
    0.0048   -1.1511    3.1791 H   0  0  0  0  0  0  0  0  0  0  0  0
    1.7490   -1.3263    2.9642 H   0  0  0  0  0  0  0  0  0  0  0  0
    1.0006    0.2716    2.8601 H   0  0  0  0  0  0  0  0  0  0  0  0
   -0.7789   -3.1034   -0.3841 H   0  0  0  0  0  0  0  0  0  0  0  0
   -2.4894   -3.3249   -0.1173 H   0  0  0  0  0  0  0  0  0  0  0  0
   -1.4185   -3.2241    1.2760 H   0  0  0  0  0  0  0  0  0  0  0  0
   -4.2984   -2.7018   -1.3568 H   0  0  0  0  0  0  0  0  0  0  0  0
   -5.8344   -2.1102   -0.7112 H   0  0  0  0  0  0  0  0  0  0  0  0
   -4.6574   -2.8279    0.3925 H   0  0  0  0  0  0  0  0  0  0  0  0
   -3.8323    4.0232    0.0849 H   0  0  0  0  0  0  0  0  0  0  0  0
   -2.5583    3.6402    1.2477 H   0  0  0  0  0  0  0  0  0  0  0  0
   -2.1876    3.7343   -0.4982 H   0  0  0  0  0  0  0  0  0  0  0  0
   -0.5224    2.5269    1.8126 H   0  0  0  0  0  0  0  0  0  0  0  0
   -0.1417    2.6801    0.0812 H   0  0  0  0  0  0  0  0  0  0  0  0
    0.8700    1.7106    1.1275 H   0  0  0  0  0  0  0  0  0  0  0  0
    0.6816   -1.1176   -1.6430 H   0  0  0  0  0  0  0  0  0  0  0  0
    2.4725   -0.4779   -3.1888 H   0  0  0  0  0  0  0  0  0  0  0  0
  1  2  1  0
  2  3  1  0
  3  4  2  0
  4  5  1  0
  5  6  2  0
  6  7  1  0
  7  8  1  0
  7  9  1  0
  9 10  1  0
 10 11  1  0
 10 12  2  0
 12 13  1  0
 13 14  1  0
 13 15  2  0
 15 16  1  0
 16 17  2  0
 17 18  1  0
 17 19  1  0
 19 20  2  0
 20 21  1  0
  6 22  1  0
 22 23  2  0
 23  3  1  0
 20  9  1  0
 19 12  1  0
  1 24  1  0
  1 25  1  0
  1 26  1  0
  4 27  1  0
  5 28  1  0
  7 29  1  0
  8 30  1  0
  8 31  1  0
  8 32  1  0
 11 33  1  0
 11 34  1  0
 11 35  1  0
 14 36  1  0
 14 37  1  0
 14 38  1  0
 18 39  1  0
 18 40  1  0
 18 41  1  0
 21 42  1  0
 21 43  1  0
 21 44  1  0
 22 45  1  0
 23 46  1  0
M  END
$$$$
