
     RDKit          3D

 44 46  0  0  0  0  0  0  0  0999 V2000
   -5.5960    0.5246   -2.6149 C   0  0  0  0  0  0  0  0  0  0  0  0
   -5.1366    0.0647   -1.2618 C   0  0  0  0  0  0  0  0  0  0  0  0
   -6.0255   -0.5584   -0.3780 C   0  0  0  0  0  0  0  0  0  0  0  0
   -5.5914   -0.9946    0.8788 C   0  0  0  0  0  0  0  0  0  0  0  0
   -4.2570   -0.8263    1.2747 C   0  0  0  0  0  0  0  0  0  0  0  0
   -3.8164   -1.2904    2.6322 C   0  0  0  0  0  0  0  0  0  0  0  0
   -3.3623   -0.2562    0.3605 C   0  0  0  0  0  0  0  0  0  0  0  0
   -2.0392   -0.0791    0.6728 O   0  0  0  0  0  0  0  0  0  0  0  0
   -1.2902   -1.2622    0.3697 C   0  0  0  0  0  0  0  0  0  0  0  0
    0.0634   -0.8254   -0.0379 C   0  0  0  0  0  0  0  0  0  0  0  0
    0.5505    0.1515   -0.8697 C   0  0  0  0  0  0  0  0  0  0  0  0
    1.9682    0.0086   -0.8273 C   0  0  0  0  0  0  0  0  0  0  0  0
    2.9203    0.8590   -1.5714 C   0  0  0  0  0  0  0  0  0  0  0  0
    2.4594    1.7381   -2.3058 O   0  0  0  0  0  0  0  0  0  0  0  0
    4.3089    0.6781   -1.4781 N   0  0  0  0  0  0  0  0  0  0  0  0
    5.1719    1.6548   -2.1293 C   0  0  0  0  0  0  0  0  0  0  0  0
    4.9906   -0.2748   -0.5959 C   0  0  0  0  0  0  0  0  0  0  0  0
    5.0637    0.2293    0.8214 C   0  0  0  0  0  0  0  0  0  0  0  0
    5.0442    1.4969    1.1880 N   0  0  0  0  0  0  0  0  0  0  0  0
    5.1185    1.5927    2.5613 C   0  0  0  0  0  0  0  0  0  0  0  0
    5.2146    0.3969    3.2362 C   0  0  0  0  0  0  0  0  0  0  0  0
    5.2292   -0.9007    2.1177 S   0  0  0  0  0  0  0  0  0  0  0  0
    2.2906   -1.0238   -0.0293 N   0  0  0  0  0  0  0  0  0  0  0  0
    1.1085   -1.5267    0.4710 O   0  0  0  0  0  0  0  0  0  0  0  0
   -3.7967    0.2071   -0.8851 C   0  0  0  0  0  0  0  0  0  0  0  0
   -5.3903   -0.2474   -3.3625 H   0  0  0  0  0  0  0  0  0  0  0  0
   -5.0812    1.4475   -2.9046 H   0  0  0  0  0  0  0  0  0  0  0  0
   -6.6703    0.7378   -2.6163 H   0  0  0  0  0  0  0  0  0  0  0  0
   -7.0692   -0.6995   -0.6562 H   0  0  0  0  0  0  0  0  0  0  0  0
   -6.3104   -1.4583    1.5524 H   0  0  0  0  0  0  0  0  0  0  0  0
   -3.3806   -2.2920    2.5680 H   0  0  0  0  0  0  0  0  0  0  0  0
   -4.6594   -1.3260    3.3300 H   0  0  0  0  0  0  0  0  0  0  0  0
   -3.0790   -0.6033    3.0610 H   0  0  0  0  0  0  0  0  0  0  0  0
   -1.7368   -1.8489   -0.4434 H   0  0  0  0  0  0  0  0  0  0  0  0
   -1.2382   -1.8857    1.2686 H   0  0  0  0  0  0  0  0  0  0  0  0
   -0.0176    0.8813   -1.4282 H   0  0  0  0  0  0  0  0  0  0  0  0
    5.9117    1.1209   -2.7373 H   0  0  0  0  0  0  0  0  0  0  0  0
    4.6204    2.3391   -2.7804 H   0  0  0  0  0  0  0  0  0  0  0  0
    5.6899    2.2426   -1.3652 H   0  0  0  0  0  0  0  0  0  0  0  0
    6.0126   -0.4169   -0.9716 H   0  0  0  0  0  0  0  0  0  0  0  0
    4.5150   -1.2545   -0.6705 H   0  0  0  0  0  0  0  0  0  0  0  0
    5.0965    2.5717    3.0272 H   0  0  0  0  0  0  0  0  0  0  0  0
    5.2798    0.2292    4.3003 H   0  0  0  0  0  0  0  0  0  0  0  0
   -3.0843    0.6789   -1.5593 H   0  0  0  0  0  0  0  0  0  0  0  0
  1  2  1  0
  2  3  2  0
  3  4  1  0
  4  5  2  0
  5  6  1  0
  5  7  1  0
  7  8  1  0
  8  9  1  0
  9 10  1  0
 10 11  2  0
 11 12  1  0
 12 13  1  0
 13 14  2  0
 13 15  1  0
 15 16  1  0
 15 17  1  0
 17 18  1  0
 18 19  2  0
 19 20  1  0
 20 21  2  0
 21 22  1  0
 12 23  2  0
 23 24  1  0
  7 25  2  0
 25  2  1  0
 24 10  1  0
 22 18  1  0
  1 26  1  0
  1 27  1  0
  1 28  1  0
  3 29  1  0
  4 30  1  0
  6 31  1  0
  6 32  1  0
  6 33  1  0
  9 34  1  0
  9 35  1  0
 11 36  1  0
 16 37  1  0
 16 38  1  0
 16 39  1  0
 17 40  1  0
 17 41  1  0
 20 42  1  0
 21 43  1  0
 25 44  1  0
M  END
$$$$
