
     RDKit          3D

 71 75  0  0  0  0  0  0  0  0999 V2000
    0.8325    0.7877    5.4925 C   0  0  0  0  0  0  0  0  0  0  0  0
    0.3081    1.9129    4.6120 C   0  0  0  0  0  0  0  0  0  0  0  0
    0.3169    1.5219    3.1902 N   0  0  0  0  0  0  0  0  0  0  0  0
    1.4230    1.7944    2.3947 C   0  0  0  0  0  0  0  0  0  0  0  0
    1.5829    1.4830    1.1000 C   0  0  0  0  0  0  0  0  0  0  0  0
    2.8581    1.8665    0.4297 C   0  0  0  0  0  0  0  0  0  0  0  0
    3.7581    2.4423    1.0362 O   0  0  0  0  0  0  0  0  0  0  0  0
    2.9511    1.5241   -0.8943 N   0  0  0  0  0  0  0  0  0  0  0  0
    4.1643    1.7045   -1.6630 C   0  0  0  0  0  0  0  0  0  0  0  0
    5.1489    0.5595   -1.4346 C   0  0  0  0  0  0  0  0  0  0  0  0
    6.4034    0.7359   -2.2966 C   0  0  0  0  0  0  0  0  0  0  0  0
    7.4176   -0.2833   -2.0178 N   0  0  0  0  0  0  0  0  0  0  0  0
    8.6594   -0.0425   -2.7558 C   0  0  0  0  0  0  0  0  0  0  0  0
    9.4170   -1.3422   -2.5507 C   0  0  0  0  0  0  0  0  0  0  0  0
    8.3348   -2.4083   -2.4276 C   0  0  0  0  0  0  0  0  0  0  0  0
    7.0173   -1.6421   -2.3877 C   0  0  0  0  0  0  0  0  0  0  0  0
    0.4629    0.7667    0.4467 C   0  0  0  0  0  0  0  0  0  0  0  0
    0.5021    0.4615   -0.7436 O   0  0  0  0  0  0  0  0  0  0  0  0
   -0.7207    0.4180    1.2749 C   0  0  0  0  0  0  0  0  0  0  0  0
   -1.7694   -0.2926    0.6724 C   0  0  0  0  0  0  0  0  0  0  0  0
   -2.8872   -0.6313    1.4308 C   0  0  0  0  0  0  0  0  0  0  0  0
   -4.2112   -1.5376    0.6654 S   0  0  0  0  0  6  0  0  0  0  0  0
   -5.2292   -1.7652    1.6676 O   0  0  0  0  0  0  0  0  0  0  0  0
   -3.5956   -2.6394   -0.0428 O   0  0  0  0  0  0  0  0  0  0  0  0
   -4.8058   -0.4278   -0.4691 N   0  0  0  0  0  0  0  0  0  0  0  0
   -5.3722    0.8542    0.0180 C   0  0  0  0  0  0  0  0  0  0  0  0
   -6.7982    0.7039    0.5434 C   0  0  0  0  0  0  0  0  0  0  0  0
   -7.6818   -0.0676   -0.4015 C   0  0  0  0  0  0  0  0  0  0  0  0
   -9.0758    0.0108   -0.2700 C   0  0  0  0  0  0  0  0  0  0  0  0
   -9.9075   -0.7137   -1.1225 C   0  0  0  0  0  0  0  0  0  0  0  0
   -9.3554   -1.5298   -2.1063 C   0  0  0  0  0  0  0  0  0  0  0  0
   -7.9700   -1.6278   -2.2333 C   0  0  0  0  0  0  0  0  0  0  0  0
   -7.1203   -0.9084   -1.3778 C   0  0  0  0  0  0  0  0  0  0  0  0
   -5.6235   -1.0183   -1.5586 C   0  0  0  0  0  0  0  0  0  0  0  0
   -2.9587   -0.2831    2.7778 C   0  0  0  0  0  0  0  0  0  0  0  0
   -1.9054    0.4269    3.3685 C   0  0  0  0  0  0  0  0  0  0  0  0
   -0.7636    0.8000    2.6366 C   0  0  0  0  0  0  0  0  0  0  0  0
    0.8488    1.1040    6.5403 H   0  0  0  0  0  0  0  0  0  0  0  0
    1.8521    0.5084    5.2062 H   0  0  0  0  0  0  0  0  0  0  0  0
    0.2093   -0.1082    5.4192 H   0  0  0  0  0  0  0  0  0  0  0  0
   -0.6849    2.2397    4.9393 H   0  0  0  0  0  0  0  0  0  0  0  0
    0.9494    2.7926    4.7552 H   0  0  0  0  0  0  0  0  0  0  0  0
    2.2166    2.3165    2.9289 H   0  0  0  0  0  0  0  0  0  0  0  0
    2.1797    1.0010   -1.3110 H   0  0  0  0  0  0  0  0  0  0  0  0
    3.8705    1.7565   -2.7165 H   0  0  0  0  0  0  0  0  0  0  0  0
    4.6202    2.6612   -1.3864 H   0  0  0  0  0  0  0  0  0  0  0  0
    5.4274    0.5166   -0.3741 H   0  0  0  0  0  0  0  0  0  0  0  0
    4.6522   -0.3897   -1.6693 H   0  0  0  0  0  0  0  0  0  0  0  0
    6.8316    1.7226   -2.0781 H   0  0  0  0  0  0  0  0  0  0  0  0
    6.1277    0.7342   -3.3592 H   0  0  0  0  0  0  0  0  0  0  0  0
    8.4714    0.1153   -3.8247 H   0  0  0  0  0  0  0  0  0  0  0  0
    9.2153    0.8153   -2.3661 H   0  0  0  0  0  0  0  0  0  0  0  0
   10.0031   -1.3027   -1.6241 H   0  0  0  0  0  0  0  0  0  0  0  0
   10.1093   -1.5500   -3.3714 H   0  0  0  0  0  0  0  0  0  0  0  0
    8.4825   -2.9884   -1.5092 H   0  0  0  0  0  0  0  0  0  0  0  0
    8.3603   -3.1044   -3.2736 H   0  0  0  0  0  0  0  0  0  0  0  0
    6.5452   -1.6699   -3.3786 H   0  0  0  0  0  0  0  0  0  0  0  0
    6.3281   -2.0855   -1.6618 H   0  0  0  0  0  0  0  0  0  0  0  0
   -1.7119   -0.5809   -0.3761 H   0  0  0  0  0  0  0  0  0  0  0  0
   -4.7309    1.2995    0.7844 H   0  0  0  0  0  0  0  0  0  0  0  0
   -5.3582    1.5606   -0.8234 H   0  0  0  0  0  0  0  0  0  0  0  0
   -7.2151    1.7057    0.7016 H   0  0  0  0  0  0  0  0  0  0  0  0
   -6.8007    0.1984    1.5139 H   0  0  0  0  0  0  0  0  0  0  0  0
   -9.5204    0.6356    0.5015 H   0  0  0  0  0  0  0  0  0  0  0  0
  -10.9869   -0.6439   -1.0164 H   0  0  0  0  0  0  0  0  0  0  0  0
  -10.0041   -2.0952   -2.7702 H   0  0  0  0  0  0  0  0  0  0  0  0
   -7.5538   -2.2735   -3.0041 H   0  0  0  0  0  0  0  0  0  0  0  0
   -5.3545   -0.4906   -2.4831 H   0  0  0  0  0  0  0  0  0  0  0  0
   -5.3555   -2.0684   -1.7191 H   0  0  0  0  0  0  0  0  0  0  0  0
   -3.8224   -0.5610    3.3797 H   0  0  0  0  0  0  0  0  0  0  0  0
   -2.0081    0.6671    4.4226 H   0  0  0  0  0  0  0  0  0  0  0  0
  1  2  1  0
  2  3  1  0
  3  4  1  0
  4  5  2  0
  5  6  1  0
  6  7  2  0
  6  8  1  0
  8  9  1  0
  9 10  1  0
 10 11  1  0
 11 12  1  0
 12 13  1  0
 13 14  1  0
 14 15  1  0
 15 16  1  0
  5 17  1  0
 17 18  2  0
 17 19  1  0
 19 20  2  0
 20 21  1  0
 21 22  1  0
 22 23  2  0
 22 24  2  0
 22 25  1  0
 25 26  1  0
 26 27  1  0
 27 28  1  0
 28 29  2  0
 29 30  1  0
 30 31  2  0
 31 32  1  0
 32 33  2  0
 33 34  1  0
 21 35  2  0
 35 36  1  0
 36 37  2  0
 37  3  1  0
 16 12  1  0
 37 19  1  0
 34 25  1  0
 33 28  1  0
  1 38  1  0
  1 39  1  0
  1 40  1  0
  2 41  1  0
  2 42  1  0
  4 43  1  0
  8 44  1  0
  9 45  1  0
  9 46  1  0
 10 47  1  0
 10 48  1  0
 11 49  1  0
 11 50  1  0
 13 51  1  0
 13 52  1  0
 14 53  1  0
 14 54  1  0
 15 55  1  0
 15 56  1  0
 16 57  1  0
 16 58  1  0
 20 59  1  0
 26 60  1  0
 26 61  1  0
 27 62  1  0
 27 63  1  0
 29 64  1  0
 30 65  1  0
 31 66  1  0
 32 67  1  0
 34 68  1  0
 34 69  1  0
 35 70  1  0
 36 71  1  0
M  END
$$$$
