
     RDKit          3D

 30 30  0  0  0  0  0  0  0  0999 V2000
    3.0855    1.7125    0.1361 C   0  0  0  0  0  0  0  0  0  0  0  0
    2.5290    0.4748    0.6811 N   0  0  0  0  0  0  0  0  0  0  0  0
    2.2755   -0.5526   -0.3286 C   0  0  0  0  0  0  0  0  0  0  0  0
    2.4127    0.2751    2.0611 C   0  0  0  0  0  0  0  0  0  0  0  0
    3.1671    1.2022    3.2470 S   0  0  0  0  0  0  0  0  0  0  0  0
    1.3830   -1.0701    2.5695 S   0  0  0  0  0  0  0  0  0  0  0  0
   -0.1513   -0.1412    2.8710 C   0  0  0  0  0  0  0  0  0  0  0  0
   -0.7305    0.3913    1.5697 C   0  0  0  0  0  0  0  0  0  0  0  0
   -0.8358    1.5971    1.3686 O   0  0  0  0  0  0  0  0  0  0  0  0
   -1.1250   -0.6167    0.7060 N   0  0  0  0  0  0  0  0  0  0  0  0
   -1.7207   -0.4924   -0.5700 C   0  0  0  0  0  0  0  0  0  0  0  0
   -2.1084    0.7329   -1.1187 C   0  0  0  0  0  0  0  0  0  0  0  0
   -2.6935    0.7886   -2.3892 C   0  0  0  0  0  0  0  0  0  0  0  0
   -2.8954   -0.3807   -3.1180 C   0  0  0  0  0  0  0  0  0  0  0  0
   -3.6133   -0.3019   -4.6787 Cl  0  0  0  0  0  0  0  0  0  0  0  0
   -2.5192   -1.6115   -2.5918 C   0  0  0  0  0  0  0  0  0  0  0  0
   -1.9358   -1.6633   -1.3244 C   0  0  0  0  0  0  0  0  0  0  0  0
   -1.4681   -3.2132   -0.7074 Cl  0  0  0  0  0  0  0  0  0  0  0  0
    4.1549    1.5662   -0.0426 H   0  0  0  0  0  0  0  0  0  0  0  0
    2.5866    1.9458   -0.8100 H   0  0  0  0  0  0  0  0  0  0  0  0
    2.9373    2.5601    0.8088 H   0  0  0  0  0  0  0  0  0  0  0  0
    1.4392   -0.2273   -0.9537 H   0  0  0  0  0  0  0  0  0  0  0  0
    2.0565   -1.5351    0.0891 H   0  0  0  0  0  0  0  0  0  0  0  0
    3.1691   -0.6523   -0.9537 H   0  0  0  0  0  0  0  0  0  0  0  0
   -0.8859   -0.8077    3.3351 H   0  0  0  0  0  0  0  0  0  0  0  0
    0.0218    0.6886    3.5626 H   0  0  0  0  0  0  0  0  0  0  0  0
   -0.8923   -1.5677    0.9835 H   0  0  0  0  0  0  0  0  0  0  0  0
   -1.9758    1.6688   -0.5837 H   0  0  0  0  0  0  0  0  0  0  0  0
   -2.9892    1.7518   -2.7990 H   0  0  0  0  0  0  0  0  0  0  0  0
   -2.6776   -2.5220   -3.1629 H   0  0  0  0  0  0  0  0  0  0  0  0
  1  2  1  0
  2  3  1  0
  2  4  1  0
  4  5  2  0
  4  6  1  0
  6  7  1  0
  7  8  1  0
  8  9  2  0
  8 10  1  0
 10 11  1  0
 11 12  2  0
 12 13  1  0
 13 14  2  0
 14 15  1  0
 14 16  1  0
 16 17  2  0
 17 18  1  0
 17 11  1  0
  1 19  1  0
  1 20  1  0
  1 21  1  0
  3 22  1  0
  3 23  1  0
  3 24  1  0
  7 25  1  0
  7 26  1  0
 10 27  1  0
 12 28  1  0
 13 29  1  0
 16 30  1  0
M  END
$$$$
