
     RDKit          3D

 52 55  0  0  0  0  0  0  0  0999 V2000
   -5.0706    1.8643   -2.2558 C   0  0  0  0  0  0  0  0  0  0  0  0
   -4.4199    1.5873   -0.9088 C   0  0  0  0  0  0  0  0  0  0  0  0
   -5.1438    0.4672   -0.1605 C   0  0  0  0  0  0  0  0  0  0  0  0
   -4.5318    0.1302    1.2032 C   0  0  0  0  0  0  0  0  0  0  0  0
   -3.2166   -0.5600    1.0901 C   0  0  0  0  0  0  0  0  0  0  0  0
   -3.1266   -1.8436    0.7820 N   0  0  0  0  0  0  0  0  0  0  0  0
   -1.8148   -2.2135    0.8054 N   0  0  0  0  0  0  0  0  0  0  0  0
   -1.1110   -1.1491    1.1119 C   0  0  0  0  0  0  0  0  0  0  0  0
    0.3147   -1.0407    1.2670 C   0  0  0  0  0  0  0  0  0  0  0  0
    1.1171   -2.1976    1.0685 N   0  0  0  0  0  0  0  0  0  0  0  0
    0.7119   -3.3299    0.2050 C   0  0  0  0  0  0  0  0  0  0  0  0
    2.7032   -2.2955    1.6719 S   0  0  0  0  0  6  0  0  0  0  0  0
    2.8894   -1.3907    2.7863 O   0  0  0  0  0  0  0  0  0  0  0  0
    3.0388   -3.6989    1.8274 O   0  0  0  0  0  0  0  0  0  0  0  0
    3.6613   -1.6733    0.3037 C   0  0  0  0  0  0  0  0  0  0  0  0
    4.2418   -2.5640   -0.6031 C   0  0  0  0  0  0  0  0  0  0  0  0
    5.0054   -2.0694   -1.6620 C   0  0  0  0  0  0  0  0  0  0  0  0
    5.2120   -0.6905   -1.8064 C   0  0  0  0  0  0  0  0  0  0  0  0
    6.0090   -0.1666   -2.9650 C   0  0  0  0  0  0  0  0  0  0  0  0
    4.6330    0.1908   -0.8835 C   0  0  0  0  0  0  0  0  0  0  0  0
    3.8693   -0.2979    0.1779 C   0  0  0  0  0  0  0  0  0  0  0  0
    0.8462    0.1006    1.5672 N   0  0  0  0  0  0  0  0  0  0  0  0
    0.0199    1.2259    1.7545 C   0  0  0  0  0  0  0  0  0  0  0  0
    0.6498    2.4279    2.0886 C   0  0  0  0  0  0  0  0  0  0  0  0
   -0.0922    3.5917    2.2753 C   0  0  0  0  0  0  0  0  0  0  0  0
   -1.4756    3.5597    2.1252 C   0  0  0  0  0  0  0  0  0  0  0  0
   -2.1263    2.3662    1.7963 C   0  0  0  0  0  0  0  0  0  0  0  0
   -1.3858    1.1972    1.6178 C   0  0  0  0  0  0  0  0  0  0  0  0
   -1.9389   -0.0626    1.2936 N   0  0  0  0  0  0  0  0  0  0  0  0
   -5.0437    0.9759   -2.8947 H   0  0  0  0  0  0  0  0  0  0  0  0
   -6.1150    2.1680   -2.1321 H   0  0  0  0  0  0  0  0  0  0  0  0
   -4.5413    2.6705   -2.7730 H   0  0  0  0  0  0  0  0  0  0  0  0
   -3.3702    1.3228   -1.0732 H   0  0  0  0  0  0  0  0  0  0  0  0
   -4.4412    2.5059   -0.3129 H   0  0  0  0  0  0  0  0  0  0  0  0
   -6.1877    0.7671   -0.0028 H   0  0  0  0  0  0  0  0  0  0  0  0
   -5.1695   -0.4334   -0.7875 H   0  0  0  0  0  0  0  0  0  0  0  0
   -4.5197    0.9933    1.8665 H   0  0  0  0  0  0  0  0  0  0  0  0
   -5.2154   -0.5755    1.6967 H   0  0  0  0  0  0  0  0  0  0  0  0
    0.0762   -4.0194    0.7674 H   0  0  0  0  0  0  0  0  0  0  0  0
    1.5652   -3.8947   -0.1788 H   0  0  0  0  0  0  0  0  0  0  0  0
    0.1781   -2.9640   -0.6777 H   0  0  0  0  0  0  0  0  0  0  0  0
    4.1090   -3.6382   -0.4942 H   0  0  0  0  0  0  0  0  0  0  0  0
    5.4474   -2.7668   -2.3712 H   0  0  0  0  0  0  0  0  0  0  0  0
    6.8767   -0.8063   -3.1573 H   0  0  0  0  0  0  0  0  0  0  0  0
    5.3842   -0.1324   -3.8627 H   0  0  0  0  0  0  0  0  0  0  0  0
    6.3859    0.8412   -2.7628 H   0  0  0  0  0  0  0  0  0  0  0  0
    4.7802    1.2646   -0.9807 H   0  0  0  0  0  0  0  0  0  0  0  0
    3.4427    0.3959    0.8990 H   0  0  0  0  0  0  0  0  0  0  0  0
    1.7307    2.4509    2.2082 H   0  0  0  0  0  0  0  0  0  0  0  0
    0.4098    4.5200    2.5365 H   0  0  0  0  0  0  0  0  0  0  0  0
   -2.0532    4.4714    2.2661 H   0  0  0  0  0  0  0  0  0  0  0  0
   -3.1982    2.4179    1.6855 H   0  0  0  0  0  0  0  0  0  0  0  0
  1  2  1  0
  2  3  1  0
  3  4  1  0
  4  5  1  0
  5  6  2  0
  6  7  1  0
  7  8  2  0
  8  9  1  0
  9 10  1  0
 10 11  1  0
 10 12  1  0
 12 13  2  0
 12 14  2  0
 12 15  1  0
 15 16  2  0
 16 17  1  0
 17 18  2  0
 18 19  1  0
 18 20  1  0
 20 21  2  0
  9 22  2  0
 22 23  1  0
 23 24  2  0
 24 25  1  0
 25 26  2  0
 26 27  1  0
 27 28  2  0
 28 29  1  0
 29  5  1  0
 29  8  1  0
 21 15  1  0
 28 23  1  0
  1 30  1  0
  1 31  1  0
  1 32  1  0
  2 33  1  0
  2 34  1  0
  3 35  1  0
  3 36  1  0
  4 37  1  0
  4 38  1  0
 11 39  1  0
 11 40  1  0
 11 41  1  0
 16 42  1  0
 17 43  1  0
 19 44  1  0
 19 45  1  0
 19 46  1  0
 20 47  1  0
 21 48  1  0
 24 49  1  0
 25 50  1  0
 26 51  1  0
 27 52  1  0
M  END
$$$$
