
     RDKit          3D

 42 44  0  0  0  0  0  0  0  0999 V2000
    4.9055    1.0459   -1.7755 C   0  0  0  0  0  0  0  0  0  0  0  0
    3.9049   -0.0999   -1.7320 C   0  0  0  0  0  0  0  0  0  0  0  0
    3.9442   -0.8098   -0.3801 C   0  0  0  0  0  0  0  0  0  0  0  0
    2.7488   -2.1884   -0.3028 S   0  0  0  0  0  0  0  0  0  0  0  0
    1.2069   -1.3152   -0.0513 C   0  0  0  0  0  0  0  0  0  0  0  0
    0.0306   -2.0309   -0.1155 C   0  0  0  0  0  0  0  0  0  0  0  0
   -1.1469   -1.3431    0.0893 C   0  0  0  0  0  0  0  0  0  0  0  0
   -2.3706   -1.9684    0.0286 N   0  0  0  0  0  0  0  0  0  0  0  0
   -2.5681   -3.3972    0.2432 C   0  0  0  0  0  0  0  0  0  0  0  0
   -4.0031   -3.5043    0.7614 C   0  0  0  0  0  0  0  0  0  0  0  0
   -4.6812   -2.2658    0.1975 C   0  0  0  0  0  0  0  0  0  0  0  0
   -3.5856   -1.2096    0.3022 C   0  0  0  0  0  0  0  0  0  0  0  0
   -1.1241   -0.0196    0.3214 N   0  0  0  0  0  0  0  0  0  0  0  0
    0.0659    0.6065    0.3719 C   0  0  0  0  0  0  0  0  0  0  0  0
    0.0701    2.0624    0.6262 C   0  0  0  0  0  0  0  0  0  0  0  0
   -1.1266    2.7777    0.8286 C   0  0  0  0  0  0  0  0  0  0  0  0
   -1.1256    4.1563    1.0662 C   0  0  0  0  0  0  0  0  0  0  0  0
    0.0767    4.8553    1.1067 C   0  0  0  0  0  0  0  0  0  0  0  0
    1.2759    4.1777    0.9108 C   0  0  0  0  0  0  0  0  0  0  0  0
    1.2705    2.7990    0.6740 C   0  0  0  0  0  0  0  0  0  0  0  0
    1.2485   -0.0014    0.2010 N   0  0  0  0  0  0  0  0  0  0  0  0
    4.8721    1.5408   -2.7510 H   0  0  0  0  0  0  0  0  0  0  0  0
    5.9255    0.6834   -1.6130 H   0  0  0  0  0  0  0  0  0  0  0  0
    4.6788    1.7924   -1.0073 H   0  0  0  0  0  0  0  0  0  0  0  0
    4.1421   -0.8068   -2.5364 H   0  0  0  0  0  0  0  0  0  0  0  0
    2.9074    0.3034   -1.9377 H   0  0  0  0  0  0  0  0  0  0  0  0
    4.9387   -1.2457   -0.2323 H   0  0  0  0  0  0  0  0  0  0  0  0
    3.7824   -0.1135    0.4492 H   0  0  0  0  0  0  0  0  0  0  0  0
    0.0393   -3.0894   -0.3341 H   0  0  0  0  0  0  0  0  0  0  0  0
   -1.8746   -3.8234    0.9765 H   0  0  0  0  0  0  0  0  0  0  0  0
   -2.4586   -3.9319   -0.7066 H   0  0  0  0  0  0  0  0  0  0  0  0
   -4.4900   -4.4341    0.4541 H   0  0  0  0  0  0  0  0  0  0  0  0
   -4.0076   -3.4635    1.8574 H   0  0  0  0  0  0  0  0  0  0  0  0
   -5.5858   -1.9887    0.7455 H   0  0  0  0  0  0  0  0  0  0  0  0
   -4.9494   -2.4314   -0.8530 H   0  0  0  0  0  0  0  0  0  0  0  0
   -3.5628   -0.7889    1.3151 H   0  0  0  0  0  0  0  0  0  0  0  0
   -3.7472   -0.4042   -0.4223 H   0  0  0  0  0  0  0  0  0  0  0  0
   -2.0818    2.2551    0.8005 H   0  0  0  0  0  0  0  0  0  0  0  0
   -2.0660    4.6796    1.2179 H   0  0  0  0  0  0  0  0  0  0  0  0
    0.0789    5.9265    1.2900 H   0  0  0  0  0  0  0  0  0  0  0  0
    2.2185    4.7181    0.9403 H   0  0  0  0  0  0  0  0  0  0  0  0
    2.2238    2.2948    0.5233 H   0  0  0  0  0  0  0  0  0  0  0  0
  1  2  1  0
  2  3  1  0
  3  4  1  0
  4  5  1  0
  5  6  2  0
  6  7  1  0
  7  8  1  0
  8  9  1  0
  9 10  1  0
 10 11  1  0
 11 12  1  0
  7 13  2  0
 13 14  1  0
 14 15  1  0
 15 16  2  0
 16 17  1  0
 17 18  2  0
 18 19  1  0
 19 20  2  0
 14 21  2  0
 21  5  1  0
 12  8  1  0
 20 15  1  0
  1 22  1  0
  1 23  1  0
  1 24  1  0
  2 25  1  0
  2 26  1  0
  3 27  1  0
  3 28  1  0
  6 29  1  0
  9 30  1  0
  9 31  1  0
 10 32  1  0
 10 33  1  0
 11 34  1  0
 11 35  1  0
 12 36  1  0
 12 37  1  0
 16 38  1  0
 17 39  1  0
 18 40  1  0
 19 41  1  0
 20 42  1  0
M  END
$$$$
