
     RDKit          3D

 44 46  0  0  0  0  0  0  0  0999 V2000
   -6.7918    1.4035   -1.2321 C   0  0  0  0  0  0  0  0  0  0  0  0
   -5.8462    0.4083   -0.6289 C   0  0  0  0  0  0  0  0  0  0  0  0
   -6.3300   -0.7158    0.0502 C   0  0  0  0  0  0  0  0  0  0  0  0
   -5.4469   -1.6415    0.6167 C   0  0  0  0  0  0  0  0  0  0  0  0
   -4.0624   -1.4559    0.5234 C   0  0  0  0  0  0  0  0  0  0  0  0
   -3.1281   -2.4564    1.1365 C   0  0  0  0  0  0  0  0  0  0  0  0
   -3.5881   -0.2967   -0.1022 C   0  0  0  0  0  0  0  0  0  0  0  0
   -2.2392   -0.0726   -0.1949 O   0  0  0  0  0  0  0  0  0  0  0  0
   -1.8198    0.8251    0.8395 C   0  0  0  0  0  0  0  0  0  0  0  0
   -0.3450    0.9058    0.7529 C   0  0  0  0  0  0  0  0  0  0  0  0
    0.5409    1.2786   -0.2258 C   0  0  0  0  0  0  0  0  0  0  0  0
    1.8313    1.1259    0.3591 C   0  0  0  0  0  0  0  0  0  0  0  0
    3.1074    1.4064   -0.3288 C   0  0  0  0  0  0  0  0  0  0  0  0
    3.0723    1.8121   -1.4947 O   0  0  0  0  0  0  0  0  0  0  0  0
    4.3426    1.2244    0.3119 N   0  0  0  0  0  0  0  0  0  0  0  0
    4.5139    0.6583    1.6440 C   0  0  0  0  0  0  0  0  0  0  0  0
    5.5446    1.2993   -0.5207 C   0  0  0  0  0  0  0  0  0  0  0  0
    5.9375   -0.0701   -1.0055 C   0  0  0  0  0  0  0  0  0  0  0  0
    6.5432   -0.9750   -0.2618 N   0  0  0  0  0  0  0  0  0  0  0  0
    6.7503   -2.1229   -0.9999 C   0  0  0  0  0  0  0  0  0  0  0  0
    6.3157   -2.0781   -2.3056 C   0  0  0  0  0  0  0  0  0  0  0  0
    5.6134   -0.5519   -2.6268 S   0  0  0  0  0  0  0  0  0  0  0  0
    1.7043    0.6836    1.6210 N   0  0  0  0  0  0  0  0  0  0  0  0
    0.3528    0.5510    1.8614 O   0  0  0  0  0  0  0  0  0  0  0  0
   -4.4648    0.6170   -0.6939 C   0  0  0  0  0  0  0  0  0  0  0  0
   -6.9820    2.2164   -0.5239 H   0  0  0  0  0  0  0  0  0  0  0  0
   -7.7450    0.9322   -1.4921 H   0  0  0  0  0  0  0  0  0  0  0  0
   -6.3767    1.8240   -2.1536 H   0  0  0  0  0  0  0  0  0  0  0  0
   -7.4010   -0.8874    0.1336 H   0  0  0  0  0  0  0  0  0  0  0  0
   -5.8511   -2.5142    1.1263 H   0  0  0  0  0  0  0  0  0  0  0  0
   -2.8516   -2.1417    2.1472 H   0  0  0  0  0  0  0  0  0  0  0  0
   -3.5935   -3.4468    1.1921 H   0  0  0  0  0  0  0  0  0  0  0  0
   -2.2208   -2.5655    0.5352 H   0  0  0  0  0  0  0  0  0  0  0  0
   -2.2488    1.8220    0.6788 H   0  0  0  0  0  0  0  0  0  0  0  0
   -2.1261    0.4548    1.8262 H   0  0  0  0  0  0  0  0  0  0  0  0
    0.3104    1.6061   -1.2289 H   0  0  0  0  0  0  0  0  0  0  0  0
    3.9439    1.2417    2.3711 H   0  0  0  0  0  0  0  0  0  0  0  0
    5.5646    0.7048    1.9462 H   0  0  0  0  0  0  0  0  0  0  0  0
    4.1845   -0.3847    1.6415 H   0  0  0  0  0  0  0  0  0  0  0  0
    6.3554    1.7244    0.0830 H   0  0  0  0  0  0  0  0  0  0  0  0
    5.3940    1.9861   -1.3607 H   0  0  0  0  0  0  0  0  0  0  0  0
    7.2293   -2.9737   -0.5315 H   0  0  0  0  0  0  0  0  0  0  0  0
    6.3724   -2.8470   -3.0620 H   0  0  0  0  0  0  0  0  0  0  0  0
   -4.0657    1.4861   -1.2115 H   0  0  0  0  0  0  0  0  0  0  0  0
  1  2  1  0
  2  3  2  0
  3  4  1  0
  4  5  2  0
  5  6  1  0
  5  7  1  0
  7  8  1  0
  8  9  1  0
  9 10  1  0
 10 11  2  0
 11 12  1  0
 12 13  1  0
 13 14  2  0
 13 15  1  0
 15 16  1  0
 15 17  1  0
 17 18  1  0
 18 19  2  0
 19 20  1  0
 20 21  2  0
 21 22  1  0
 12 23  2  0
 23 24  1  0
  7 25  2  0
 25  2  1  0
 24 10  1  0
 22 18  1  0
  1 26  1  0
  1 27  1  0
  1 28  1  0
  3 29  1  0
  4 30  1  0
  6 31  1  0
  6 32  1  0
  6 33  1  0
  9 34  1  0
  9 35  1  0
 11 36  1  0
 16 37  1  0
 16 38  1  0
 16 39  1  0
 17 40  1  0
 17 41  1  0
 20 42  1  0
 21 43  1  0
 25 44  1  0
M  END
$$$$
