
     RDKit          3D

 57 60  0  0  0  0  0  0  0  0999 V2000
    4.6503   -3.3350   -0.2451 C   0  0  0  0  0  0  0  0  0  0  0  0
    4.8864   -2.4858   -1.4877 C   0  0  0  0  0  0  0  0  0  0  0  0
    5.2123   -1.0481   -1.1369 C   0  0  0  0  0  0  0  0  0  0  0  0
    6.5678   -0.6772   -1.1899 C   0  0  0  0  0  0  0  0  0  0  0  0
    6.9918    0.5658   -0.7389 C   0  0  0  0  0  0  0  0  0  0  0  0
    6.0728    1.4587   -0.2001 C   0  0  0  0  0  0  0  0  0  0  0  0
    4.7116    1.1299   -0.1331 C   0  0  0  0  0  0  0  0  0  0  0  0
    3.7584    2.1539    0.4289 C   0  0  0  0  0  0  0  0  0  0  0  0
    4.2705   -0.1153   -0.6415 C   0  0  0  0  0  0  0  0  0  0  0  0
    2.8888   -0.4087   -0.5605 N   0  0  0  0  0  0  0  0  0  0  0  0
    2.1186   -0.8304   -1.6322 C   0  0  0  0  0  0  0  0  0  0  0  0
    2.4924   -0.9492   -2.7925 O   0  0  0  0  0  0  0  0  0  0  0  0
    0.6822   -1.0621   -1.3071 C   0  0  0  0  0  0  0  0  0  0  0  0
    0.2866   -1.5478   -0.0550 C   0  0  0  0  0  0  0  0  0  0  0  0
   -1.0691   -1.7442    0.2232 C   0  0  0  0  0  0  0  0  0  0  0  0
   -2.0460   -1.4533   -0.7393 C   0  0  0  0  0  0  0  0  0  0  0  0
   -3.5202   -1.6271   -0.4237 C   0  0  0  0  0  0  0  0  0  0  0  0
   -4.2136   -0.4743    0.1719 N   0  0  0  0  0  0  0  0  0  0  0  0
   -4.1664    0.7313   -0.6659 C   0  0  0  0  0  0  0  0  0  0  0  0
   -5.1383    1.8138   -0.1480 C   0  0  0  0  0  0  0  0  0  0  0  0
   -5.1178    1.9701    1.3518 C   0  0  0  0  0  0  0  0  0  0  0  0
   -5.7913    3.0431    1.9519 C   0  0  0  0  0  0  0  0  0  0  0  0
   -5.7910    3.1888    3.3391 C   0  0  0  0  0  0  0  0  0  0  0  0
   -5.1198    2.2653    4.1348 C   0  0  0  0  0  0  0  0  0  0  0  0
   -4.4633    1.1801    3.5464 C   0  0  0  0  0  0  0  0  0  0  0  0
   -4.4764    1.0103    2.1543 C   0  0  0  0  0  0  0  0  0  0  0  0
   -3.7370   -0.1550    1.5266 C   0  0  0  0  0  0  0  0  0  0  0  0
   -1.6350   -0.9935   -2.0017 C   0  0  0  0  0  0  0  0  0  0  0  0
   -0.2807   -0.8035   -2.2860 C   0  0  0  0  0  0  0  0  0  0  0  0
    5.5365   -3.3404    0.3981 H   0  0  0  0  0  0  0  0  0  0  0  0
    3.8042   -2.9625    0.3423 H   0  0  0  0  0  0  0  0  0  0  0  0
    4.4292   -4.3703   -0.5283 H   0  0  0  0  0  0  0  0  0  0  0  0
    5.7185   -2.9240   -2.0552 H   0  0  0  0  0  0  0  0  0  0  0  0
    4.0289   -2.5631   -2.1556 H   0  0  0  0  0  0  0  0  0  0  0  0
    7.3134   -1.3780   -1.5637 H   0  0  0  0  0  0  0  0  0  0  0  0
    8.0400    0.8320   -0.7953 H   0  0  0  0  0  0  0  0  0  0  0  0
    6.4273    2.4206    0.1616 H   0  0  0  0  0  0  0  0  0  0  0  0
    4.2785    3.0592    0.7564 H   0  0  0  0  0  0  0  0  0  0  0  0
    3.0328    2.4500   -0.3302 H   0  0  0  0  0  0  0  0  0  0  0  0
    3.2380    1.7532    1.3011 H   0  0  0  0  0  0  0  0  0  0  0  0
    2.3668    0.0974    0.1447 H   0  0  0  0  0  0  0  0  0  0  0  0
    1.0234   -1.7977    0.7033 H   0  0  0  0  0  0  0  0  0  0  0  0
   -1.3601   -2.1267    1.2002 H   0  0  0  0  0  0  0  0  0  0  0  0
   -4.0461   -1.9095   -1.3496 H   0  0  0  0  0  0  0  0  0  0  0  0
   -3.6442   -2.5054    0.2284 H   0  0  0  0  0  0  0  0  0  0  0  0
   -3.1411    1.1588   -0.6770 H   0  0  0  0  0  0  0  0  0  0  0  0
   -4.4263    0.4944   -1.7144 H   0  0  0  0  0  0  0  0  0  0  0  0
   -4.8493    2.7757   -0.6137 H   0  0  0  0  0  0  0  0  0  0  0  0
   -6.1705    1.5694   -0.4539 H   0  0  0  0  0  0  0  0  0  0  0  0
   -6.3378    3.7553    1.3377 H   0  0  0  0  0  0  0  0  0  0  0  0
   -6.3195    4.0199    3.7984 H   0  0  0  0  0  0  0  0  0  0  0  0
   -5.1190    2.3780    5.2134 H   0  0  0  0  0  0  0  0  0  0  0  0
   -3.9544    0.4581    4.1809 H   0  0  0  0  0  0  0  0  0  0  0  0
   -2.6749    0.1100    1.5300 H   0  0  0  0  0  0  0  0  0  0  0  0
   -3.8730   -1.0338    2.1674 H   0  0  0  0  0  0  0  0  0  0  0  0
   -2.3688   -0.7763   -2.7745 H   0  0  0  0  0  0  0  0  0  0  0  0
    0.0230   -0.4453   -3.2688 H   0  0  0  0  0  0  0  0  0  0  0  0
  1  2  1  0
  2  3  1  0
  3  4  2  0
  4  5  1  0
  5  6  2  0
  6  7  1  0
  7  8  1  0
  7  9  2  0
  9 10  1  0
 10 11  1  0
 11 12  2  0
 11 13  1  0
 13 14  2  0
 14 15  1  0
 15 16  2  0
 16 17  1  0
 17 18  1  0
 18 19  1  0
 19 20  1  0
 20 21  1  0
 21 22  2  0
 22 23  1  0
 23 24  2  0
 24 25  1  0
 25 26  2  0
 26 27  1  0
 16 28  1  0
 28 29  2  0
  9  3  1  0
 29 13  1  0
 27 18  1  0
 26 21  1  0
  1 30  1  0
  1 31  1  0
  1 32  1  0
  2 33  1  0
  2 34  1  0
  4 35  1  0
  5 36  1  0
  6 37  1  0
  8 38  1  0
  8 39  1  0
  8 40  1  0
 10 41  1  0
 14 42  1  0
 15 43  1  0
 17 44  1  0
 17 45  1  0
 19 46  1  0
 19 47  1  0
 20 48  1  0
 20 49  1  0
 22 50  1  0
 23 51  1  0
 24 52  1  0
 25 53  1  0
 27 54  1  0
 27 55  1  0
 28 56  1  0
 29 57  1  0
M  END
$$$$
