
     RDKit          3D

 54 58  0  0  0  0  0  0  0  0999 V2000
    6.5258   -1.7513    0.8708 C   0  0  0  0  0  0  0  0  0  0  0  0
    5.3274   -1.1305    0.1710 C   0  0  0  0  0  0  0  0  0  0  0  0
    4.0040   -1.6276    0.7351 C   0  0  0  0  0  0  0  0  0  0  0  0
    3.9627   -2.5210    1.5806 O   0  0  0  0  0  0  0  0  0  0  0  0
    2.8524   -1.0199    0.2423 N   0  0  0  0  0  0  0  0  0  0  0  0
    1.5575   -1.4162    0.7910 C   0  0  0  0  0  0  0  0  0  0  0  0
    0.6445   -0.2039    0.9175 C   0  0  0  0  0  0  0  0  0  0  0  0
    0.3330    0.4686   -0.4527 C   0  0  0  0  0  0  0  0  0  0  0  0
    1.4956    0.1655   -1.4510 C   0  0  0  0  0  0  0  0  0  0  0  0
    2.8470    0.0492   -0.7526 C   0  0  0  0  0  0  0  0  0  0  0  0
    0.3176    1.8925   -0.1565 O   0  0  0  0  0  0  0  0  0  0  0  0
   -0.1758    2.7133   -1.1317 C   0  0  0  0  0  0  0  0  0  0  0  0
    0.1200    4.0696   -1.0008 C   0  0  0  0  0  0  0  0  0  0  0  0
   -0.3213    4.9770   -1.9670 C   0  0  0  0  0  0  0  0  0  0  0  0
   -1.0610    4.5249   -3.0604 C   0  0  0  0  0  0  0  0  0  0  0  0
   -1.5982    5.6471   -4.2473 Cl  0  0  0  0  0  0  0  0  0  0  0  0
   -1.3738    3.1745   -3.1923 C   0  0  0  0  0  0  0  0  0  0  0  0
   -0.9359    2.2748   -2.2156 C   0  0  0  0  0  0  0  0  0  0  0  0
   -1.2910    0.8457   -2.3015 C   0  0  0  0  0  0  0  0  0  0  0  0
   -1.7917    0.4055   -3.3302 O   0  0  0  0  0  0  0  0  0  0  0  0
   -1.0466    0.0359   -1.0324 C   0  0  0  0  0  0  0  0  0  0  0  0
   -2.2564    0.2423   -0.1250 C   0  0  0  0  0  0  0  0  0  0  0  0
   -2.5282   -1.1731    0.2486 C   0  0  0  0  0  0  0  0  0  0  0  0
   -3.5087   -1.5352    1.2991 C   0  0  0  0  0  0  0  0  0  0  0  0
   -4.3038   -0.5667    1.9237 C   0  0  0  0  0  0  0  0  0  0  0  0
   -5.2168   -0.9438    2.9144 C   0  0  0  0  0  0  0  0  0  0  0  0
   -5.3360   -2.2843    3.2790 C   0  0  0  0  0  0  0  0  0  0  0  0
   -6.4599   -2.7407    4.4980 Cl  0  0  0  0  0  0  0  0  0  0  0  0
   -4.5513   -3.2545    2.6605 C   0  0  0  0  0  0  0  0  0  0  0  0
   -3.6387   -2.8806    1.6703 C   0  0  0  0  0  0  0  0  0  0  0  0
   -1.8383   -2.0499   -0.4054 N   0  0  0  0  0  0  0  0  0  0  0  0
   -1.0412   -1.3595   -1.3438 O   0  0  0  0  0  0  0  0  0  0  0  0
    7.4572   -1.3647    0.4455 H   0  0  0  0  0  0  0  0  0  0  0  0
    6.5264   -2.8407    0.7596 H   0  0  0  0  0  0  0  0  0  0  0  0
    6.5173   -1.5226    1.9416 H   0  0  0  0  0  0  0  0  0  0  0  0
    5.3715   -1.3852   -0.8930 H   0  0  0  0  0  0  0  0  0  0  0  0
    5.3780   -0.0424    0.2820 H   0  0  0  0  0  0  0  0  0  0  0  0
    1.1309   -2.1742    0.1255 H   0  0  0  0  0  0  0  0  0  0  0  0
    1.6857   -1.8810    1.7742 H   0  0  0  0  0  0  0  0  0  0  0  0
    1.1349    0.5262    1.5779 H   0  0  0  0  0  0  0  0  0  0  0  0
   -0.2644   -0.4902    1.4521 H   0  0  0  0  0  0  0  0  0  0  0  0
    1.5800    0.9447   -2.2162 H   0  0  0  0  0  0  0  0  0  0  0  0
    1.3076   -0.7779   -1.9788 H   0  0  0  0  0  0  0  0  0  0  0  0
    3.0990    0.9830   -0.2367 H   0  0  0  0  0  0  0  0  0  0  0  0
    3.6245   -0.1372   -1.4990 H   0  0  0  0  0  0  0  0  0  0  0  0
    0.7042    4.4226   -0.1539 H   0  0  0  0  0  0  0  0  0  0  0  0
   -0.0817    6.0330   -1.8640 H   0  0  0  0  0  0  0  0  0  0  0  0
   -1.9591    2.8248   -4.0402 H   0  0  0  0  0  0  0  0  0  0  0  0
   -2.0458    0.8675    0.7462 H   0  0  0  0  0  0  0  0  0  0  0  0
   -3.1310    0.6406   -0.6514 H   0  0  0  0  0  0  0  0  0  0  0  0
   -4.2396    0.4838    1.6559 H   0  0  0  0  0  0  0  0  0  0  0  0
   -5.8337   -0.1889    3.3961 H   0  0  0  0  0  0  0  0  0  0  0  0
   -4.6432   -4.3011    2.9402 H   0  0  0  0  0  0  0  0  0  0  0  0
   -3.0321   -3.6479    1.1914 H   0  0  0  0  0  0  0  0  0  0  0  0
  1  2  1  0
  2  3  1  0
  3  4  2  0
  3  5  1  0
  5  6  1  0
  6  7  1  0
  7  8  1  0
  8  9  1  0
  9 10  1  0
  8 11  1  0
 11 12  1  0
 12 13  2  0
 13 14  1  0
 14 15  2  0
 15 16  1  0
 15 17  1  0
 17 18  2  0
 18 19  1  0
 19 20  2  0
 19 21  1  0
 21 22  1  0
 22 23  1  0
 23 24  1  0
 24 25  2  0
 25 26  1  0
 26 27  2  0
 27 28  1  0
 27 29  1  0
 29 30  2  0
 23 31  2  0
 31 32  1  0
 10  5  1  0
 18 12  1  0
 32 21  1  0
 21  8  1  0
 30 24  1  0
  1 33  1  0
  1 34  1  0
  1 35  1  0
  2 36  1  0
  2 37  1  0
  6 38  1  0
  6 39  1  0
  7 40  1  0
  7 41  1  0
  9 42  1  0
  9 43  1  0
 10 44  1  0
 10 45  1  0
 13 46  1  0
 14 47  1  0
 17 48  1  0
 22 49  1  0
 22 50  1  0
 25 51  1  0
 26 52  1  0
 29 53  1  0
 30 54  1  0
M  END
$$$$
