
     RDKit          3D

 55 57  0  0  0  0  0  0  0  0999 V2000
    0.2955   -1.3068   -0.1840 O   0  0  0  0  0  0  0  0  0  0  0  0
    0.0879   -0.4939    0.7109 C   0  0  0  0  0  0  0  0  0  0  0  0
   -1.1702   -0.0261    1.0247 N   0  0  0  0  0  0  0  0  0  0  0  0
   -2.3431   -0.4108    0.2621 C   0  0  0  0  0  0  0  0  0  0  0  0
   -2.5144    0.4718   -0.9722 C   0  0  0  0  0  0  0  0  0  0  0  0
   -3.6521    0.0355   -1.9012 C   0  0  0  0  0  0  0  0  0  0  0  0
   -5.0479    0.4997   -1.4726 C   0  0  0  0  0  0  0  0  0  0  0  0
   -5.6351   -0.2163   -0.2535 C   0  0  0  0  0  0  0  0  0  0  0  0
   -7.1535   -0.2169   -0.4504 C   0  0  0  0  0  0  0  0  0  0  0  0
   -7.4068    0.4085   -1.8165 C   0  0  0  0  0  0  0  0  0  0  0  0
   -6.0927    0.2369   -2.5591 C   0  0  0  0  0  0  0  0  0  0  0  0
    1.1948    0.0692    1.5902 C   0  0  0  0  0  0  0  0  0  0  0  0
    1.3731    1.5696    1.3891 C   0  0  0  0  0  0  0  0  0  0  0  0
    2.4417    2.0869    2.3353 C   0  0  0  0  0  0  0  0  0  0  0  0
    3.7342    1.2915    2.3422 C   0  0  0  0  0  0  0  0  0  0  0  0
    4.7732    1.8259    2.7315 O   0  0  0  0  0  0  0  0  0  0  0  0
    3.6530   -0.0536    2.0114 N   0  0  0  0  0  0  0  0  0  0  0  0
    4.8833   -0.8449    2.0283 C   0  0  0  0  0  0  0  0  0  0  0  0
    5.5763   -0.8924    0.6843 C   0  0  0  0  0  0  0  0  0  0  0  0
    5.4026   -1.9904   -0.1723 C   0  0  0  0  0  0  0  0  0  0  0  0
    6.0286   -2.0214   -1.4211 C   0  0  0  0  0  0  0  0  0  0  0  0
    6.8304   -0.9547   -1.8210 C   0  0  0  0  0  0  0  0  0  0  0  0
    7.5999   -0.9933   -3.3597 Cl  0  0  0  0  0  0  0  0  0  0  0  0
    7.0114    0.1434   -0.9838 C   0  0  0  0  0  0  0  0  0  0  0  0
    6.3848    0.1747    0.2641 C   0  0  0  0  0  0  0  0  0  0  0  0
    2.5228   -0.6037    1.2616 C   0  0  0  0  0  0  0  0  0  0  0  0
   -1.2816    0.6735    1.7466 H   0  0  0  0  0  0  0  0  0  0  0  0
   -3.1928   -0.3177    0.9409 H   0  0  0  0  0  0  0  0  0  0  0  0
   -2.2484   -1.4628   -0.0280 H   0  0  0  0  0  0  0  0  0  0  0  0
   -1.5821    0.4420   -1.5514 H   0  0  0  0  0  0  0  0  0  0  0  0
   -2.6475    1.5184   -0.6719 H   0  0  0  0  0  0  0  0  0  0  0  0
   -3.4474    0.4691   -2.8893 H   0  0  0  0  0  0  0  0  0  0  0  0
   -3.6317   -1.0531   -2.0365 H   0  0  0  0  0  0  0  0  0  0  0  0
   -5.0228    1.5796   -1.2711 H   0  0  0  0  0  0  0  0  0  0  0  0
   -5.3657    0.2937    0.6770 H   0  0  0  0  0  0  0  0  0  0  0  0
   -5.2759   -1.2500   -0.1849 H   0  0  0  0  0  0  0  0  0  0  0  0
   -7.6657    0.3419    0.3404 H   0  0  0  0  0  0  0  0  0  0  0  0
   -7.5316   -1.2457   -0.4218 H   0  0  0  0  0  0  0  0  0  0  0  0
   -8.2458   -0.0600   -2.3391 H   0  0  0  0  0  0  0  0  0  0  0  0
   -7.6356    1.4749   -1.7006 H   0  0  0  0  0  0  0  0  0  0  0  0
   -6.0077   -0.7850   -2.9491 H   0  0  0  0  0  0  0  0  0  0  0  0
   -6.0031    0.9331   -3.3987 H   0  0  0  0  0  0  0  0  0  0  0  0
    0.9305   -0.1397    2.6354 H   0  0  0  0  0  0  0  0  0  0  0  0
    0.4390    2.1136    1.5679 H   0  0  0  0  0  0  0  0  0  0  0  0
    1.6595    1.7784    0.3500 H   0  0  0  0  0  0  0  0  0  0  0  0
    2.6808    3.1229    2.0693 H   0  0  0  0  0  0  0  0  0  0  0  0
    2.0599    2.0871    3.3633 H   0  0  0  0  0  0  0  0  0  0  0  0
    4.6285   -1.8583    2.3629 H   0  0  0  0  0  0  0  0  0  0  0  0
    5.5788   -0.4485    2.7784 H   0  0  0  0  0  0  0  0  0  0  0  0
    4.7734   -2.8269    0.1246 H   0  0  0  0  0  0  0  0  0  0  0  0
    5.8838   -2.8765   -2.0759 H   0  0  0  0  0  0  0  0  0  0  0  0
    7.6342    0.9780   -1.2938 H   0  0  0  0  0  0  0  0  0  0  0  0
    6.5281    1.0396    0.9109 H   0  0  0  0  0  0  0  0  0  0  0  0
    2.7552   -0.4948    0.1947 H   0  0  0  0  0  0  0  0  0  0  0  0
    2.4561   -1.6762    1.4813 H   0  0  0  0  0  0  0  0  0  0  0  0
  1  2  2  0
  2  3  1  0
  3  4  1  0
  4  5  1  0
  5  6  1  0
  6  7  1  0
  7  8  1  0
  8  9  1  0
  9 10  1  0
 10 11  1  0
  2 12  1  0
 12 13  1  0
 13 14  1  0
 14 15  1  0
 15 16  2  0
 15 17  1  0
 17 18  1  0
 18 19  1  0
 19 20  2  0
 20 21  1  0
 21 22  2  0
 22 23  1  0
 22 24  1  0
 24 25  2  0
 17 26  1  0
 11  7  1  0
 26 12  1  0
 25 19  1  0
  3 27  1  0
  4 28  1  0
  4 29  1  0
  5 30  1  0
  5 31  1  0
  6 32  1  0
  6 33  1  0
  7 34  1  0
  8 35  1  0
  8 36  1  0
  9 37  1  0
  9 38  1  0
 10 39  1  0
 10 40  1  0
 11 41  1  0
 11 42  1  0
 12 43  1  0
 13 44  1  0
 13 45  1  0
 14 46  1  0
 14 47  1  0
 18 48  1  0
 18 49  1  0
 20 50  1  0
 21 51  1  0
 24 52  1  0
 25 53  1  0
 26 54  1  0
 26 55  1  0
M  END
$$$$
