
     RDKit          3D

 53 56  0  0  0  0  0  0  0  0999 V2000
   -6.1031   -2.2534   -1.3271 C   0  0  0  0  0  0  0  0  0  0  0  0
   -4.7970   -1.7835   -0.7592 C   0  0  0  0  0  0  0  0  0  0  0  0
   -4.7719   -0.9325    0.3507 C   0  0  0  0  0  0  0  0  0  0  0  0
   -3.5557   -0.5214    0.9062 C   0  0  0  0  0  0  0  0  0  0  0  0
   -2.3483   -0.9771    0.3767 C   0  0  0  0  0  0  0  0  0  0  0  0
   -1.0885   -0.5631    0.8587 N   0  0  0  0  0  0  0  0  0  0  0  0
   -0.7198   -0.1226    2.1204 C   0  0  0  0  0  0  0  0  0  0  0  0
   -1.4227   -0.7308    3.5275 S   0  0  0  0  0  0  0  0  0  0  0  0
    0.3566    0.7970    2.0858 N   0  0  0  0  0  0  0  0  0  0  0  0
    0.9773    1.3118    3.3257 C   0  0  0  0  0  0  0  0  0  0  0  0
    0.4204    2.6649    3.6934 C   0  0  0  0  0  0  0  0  0  0  0  0
   -0.8943    3.0857    3.7786 C   0  0  0  0  0  0  0  0  0  0  0  0
   -1.0100    4.4515    4.1677 C   0  0  0  0  0  0  0  0  0  0  0  0
    0.2192    5.0331    4.3751 C   0  0  0  0  0  0  0  0  0  0  0  0
    1.5009    3.9370    4.1044 S   0  0  0  0  0  0  0  0  0  0  0  0
    0.7161    1.5526    0.8640 C   0  0  0  0  0  0  0  0  0  0  0  0
    1.5241    0.7551   -0.1230 C   0  0  0  0  0  0  0  0  0  0  0  0
    1.0538    0.4142   -1.3379 C   0  0  0  0  0  0  0  0  0  0  0  0
    1.8577   -0.3657   -2.2774 C   0  0  0  0  0  0  0  0  0  0  0  0
    1.3423   -0.7476   -3.5181 C   0  0  0  0  0  0  0  0  0  0  0  0
    2.1245   -1.4991   -4.3933 C   0  0  0  0  0  0  0  0  0  0  0  0
    3.4211   -1.8711   -4.0326 C   0  0  0  0  0  0  0  0  0  0  0  0
    3.9578   -1.4976   -2.7907 C   0  0  0  0  0  0  0  0  0  0  0  0
    5.3578   -1.9133   -2.4383 C   0  0  0  0  0  0  0  0  0  0  0  0
    3.1605   -0.7401   -1.9173 C   0  0  0  0  0  0  0  0  0  0  0  0
    3.6461   -0.3286   -0.6678 N   0  0  0  0  0  0  0  0  0  0  0  0
    2.9351    0.4217    0.2297 C   0  0  0  0  0  0  0  0  0  0  0  0
    3.4566    0.8032    1.2720 O   0  0  0  0  0  0  0  0  0  0  0  0
   -2.3708   -1.8187   -0.7406 C   0  0  0  0  0  0  0  0  0  0  0  0
   -3.5858   -2.2306   -1.2958 C   0  0  0  0  0  0  0  0  0  0  0  0
   -6.0116   -2.4614   -2.3983 H   0  0  0  0  0  0  0  0  0  0  0  0
   -6.4268   -3.1654   -0.8163 H   0  0  0  0  0  0  0  0  0  0  0  0
   -6.8774   -1.4878   -1.2105 H   0  0  0  0  0  0  0  0  0  0  0  0
   -5.7005   -0.5762    0.7915 H   0  0  0  0  0  0  0  0  0  0  0  0
   -3.5796    0.1719    1.7412 H   0  0  0  0  0  0  0  0  0  0  0  0
   -0.2990   -0.9020    0.3261 H   0  0  0  0  0  0  0  0  0  0  0  0
    2.0571    1.3642    3.1604 H   0  0  0  0  0  0  0  0  0  0  0  0
    0.8389    0.6236    4.1636 H   0  0  0  0  0  0  0  0  0  0  0  0
   -1.7421    2.4445    3.5713 H   0  0  0  0  0  0  0  0  0  0  0  0
   -1.9485    4.9772    4.2933 H   0  0  0  0  0  0  0  0  0  0  0  0
    0.4285    6.0498    4.6780 H   0  0  0  0  0  0  0  0  0  0  0  0
   -0.2209    1.8987    0.4092 H   0  0  0  0  0  0  0  0  0  0  0  0
    1.2753    2.4572    1.1289 H   0  0  0  0  0  0  0  0  0  0  0  0
    0.0491    0.6911   -1.6452 H   0  0  0  0  0  0  0  0  0  0  0  0
    0.3352   -0.4655   -3.8151 H   0  0  0  0  0  0  0  0  0  0  0  0
    1.7254   -1.7959   -5.3605 H   0  0  0  0  0  0  0  0  0  0  0  0
    4.0129   -2.4571   -4.7336 H   0  0  0  0  0  0  0  0  0  0  0  0
    5.3561   -2.5215   -1.5281 H   0  0  0  0  0  0  0  0  0  0  0  0
    5.9888   -1.0314   -2.2879 H   0  0  0  0  0  0  0  0  0  0  0  0
    5.8126   -2.5133   -3.2337 H   0  0  0  0  0  0  0  0  0  0  0  0
    4.5927   -0.5452   -0.3893 H   0  0  0  0  0  0  0  0  0  0  0  0
   -1.4466   -2.1815   -1.1825 H   0  0  0  0  0  0  0  0  0  0  0  0
   -3.5793   -2.9050   -2.1491 H   0  0  0  0  0  0  0  0  0  0  0  0
  1  2  1  0
  2  3  2  0
  3  4  1  0
  4  5  2  0
  5  6  1  0
  6  7  1  0
  7  8  2  0
  7  9  1  0
  9 10  1  0
 10 11  1  0
 11 12  2  0
 12 13  1  0
 13 14  2  0
 14 15  1  0
  9 16  1  0
 16 17  1  0
 17 18  2  0
 18 19  1  0
 19 20  2  0
 20 21  1  0
 21 22  2  0
 22 23  1  0
 23 24  1  0
 23 25  2  0
 25 26  1  0
 26 27  1  0
 27 28  2  0
  5 29  1  0
 29 30  2  0
 30  2  1  0
 15 11  1  0
 27 17  1  0
 25 19  1  0
  1 31  1  0
  1 32  1  0
  1 33  1  0
  3 34  1  0
  4 35  1  0
  6 36  1  0
 10 37  1  0
 10 38  1  0
 12 39  1  0
 13 40  1  0
 14 41  1  0
 16 42  1  0
 16 43  1  0
 18 44  1  0
 20 45  1  0
 21 46  1  0
 22 47  1  0
 24 48  1  0
 24 49  1  0
 24 50  1  0
 26 51  1  0
 29 52  1  0
 30 53  1  0
M  END
$$$$
