
     RDKit          3D

 49 52  0  0  0  0  0  0  0  0999 V2000
   -4.5461    4.1091    0.0937 C   0  0  0  0  0  0  0  0  0  0  0  0
   -3.6013    3.8299   -1.0599 C   0  0  0  0  0  0  0  0  0  0  0  0
   -3.3836    2.4168   -1.1905 O   0  0  0  0  0  0  0  0  0  0  0  0
   -2.3785    1.8939   -0.4249 C   0  0  0  0  0  0  0  0  0  0  0  0
   -1.6924    2.5404    0.3539 O   0  0  0  0  0  0  0  0  0  0  0  0
   -2.3085    0.3947   -0.6599 C   0  0  0  0  0  0  0  0  0  0  0  0
   -1.0068   -0.3236   -0.3360 C   0  0  0  0  0  0  0  0  0  0  0  0
    0.1905    0.4143   -0.4152 C   0  0  0  0  0  0  0  0  0  0  0  0
    1.3867   -0.1422    0.0006 C   0  0  0  0  0  0  0  0  0  0  0  0
    2.6708    0.5873   -0.0170 C   0  0  0  0  0  0  0  0  0  0  0  0
    3.8796   -0.0927   -0.2521 C   0  0  0  0  0  0  0  0  0  0  0  0
    5.1110    0.5770   -0.2801 C   0  0  0  0  0  0  0  0  0  0  0  0
    5.1636    1.9515   -0.0659 C   0  0  0  0  0  0  0  0  0  0  0  0
    6.2902    2.7259   -0.0664 O   0  0  0  0  0  0  0  0  0  0  0  0
    7.5265    2.0582   -0.2851 C   0  0  0  0  0  0  0  0  0  0  0  0
    3.9777    2.6430    0.1793 C   0  0  0  0  0  0  0  0  0  0  0  0
    2.7489    1.9722    0.2069 C   0  0  0  0  0  0  0  0  0  0  0  0
    1.4322   -1.4043    0.4649 N   0  0  0  0  0  0  0  0  0  0  0  0
    0.3171   -2.1447    0.4898 C   0  0  0  0  0  0  0  0  0  0  0  0
    0.4898   -3.4089    1.0106 C   0  0  0  0  0  0  0  0  0  0  0  0
   -0.5525   -4.3205    1.0974 C   0  0  0  0  0  0  0  0  0  0  0  0
   -1.8065   -4.0009    0.5940 C   0  0  0  0  0  0  0  0  0  0  0  0
   -2.8128   -4.9814    0.6498 C   0  0  0  0  0  0  0  0  0  0  0  0
   -4.0692   -4.7533    0.1047 C   0  0  0  0  0  0  0  0  0  0  0  0
   -4.3193   -3.5472   -0.5221 C   0  0  0  0  0  0  0  0  0  0  0  0
   -3.3219   -2.5644   -0.5705 C   0  0  0  0  0  0  0  0  0  0  0  0
   -2.0374   -2.7211    0.0201 C   0  0  0  0  0  0  0  0  0  0  0  0
   -0.9595   -1.7174    0.0402 C   0  0  0  0  0  0  0  0  0  0  0  0
   -4.7651    5.1782    0.1655 H   0  0  0  0  0  0  0  0  0  0  0  0
   -5.4863    3.5638   -0.0390 H   0  0  0  0  0  0  0  0  0  0  0  0
   -4.1163    3.7759    1.0436 H   0  0  0  0  0  0  0  0  0  0  0  0
   -2.6546    4.3701   -0.9444 H   0  0  0  0  0  0  0  0  0  0  0  0
   -4.0535    4.1712   -1.9969 H   0  0  0  0  0  0  0  0  0  0  0  0
   -3.1023    0.0083   -0.0129 H   0  0  0  0  0  0  0  0  0  0  0  0
   -2.5366    0.2031   -1.7146 H   0  0  0  0  0  0  0  0  0  0  0  0
    0.1900    1.4345   -0.7866 H   0  0  0  0  0  0  0  0  0  0  0  0
    3.8656   -1.1692   -0.4192 H   0  0  0  0  0  0  0  0  0  0  0  0
    6.0028   -0.0102   -0.4695 H   0  0  0  0  0  0  0  0  0  0  0  0
    7.5545    1.5945   -1.2767 H   0  0  0  0  0  0  0  0  0  0  0  0
    8.3226    2.8079   -0.2461 H   0  0  0  0  0  0  0  0  0  0  0  0
    7.7232    1.3227    0.5020 H   0  0  0  0  0  0  0  0  0  0  0  0
    4.0073    3.7150    0.3596 H   0  0  0  0  0  0  0  0  0  0  0  0
    1.8541    2.5507    0.4286 H   0  0  0  0  0  0  0  0  0  0  0  0
    1.4741   -3.6986    1.3742 H   0  0  0  0  0  0  0  0  0  0  0  0
   -0.3529   -5.2971    1.5333 H   0  0  0  0  0  0  0  0  0  0  0  0
   -2.6172   -5.9479    1.1113 H   0  0  0  0  0  0  0  0  0  0  0  0
   -4.8350   -5.5224    0.1481 H   0  0  0  0  0  0  0  0  0  0  0  0
   -5.2842   -3.3648   -0.9885 H   0  0  0  0  0  0  0  0  0  0  0  0
   -3.5780   -1.6775   -1.1356 H   0  0  0  0  0  0  0  0  0  0  0  0
  1  2  1  0
  2  3  1  0
  3  4  1  0
  4  5  2  0
  4  6  1  0
  6  7  1  0
  7  8  2  0
  8  9  1  0
  9 10  1  0
 10 11  2  0
 11 12  1  0
 12 13  2  0
 13 14  1  0
 14 15  1  0
 13 16  1  0
 16 17  2  0
  9 18  2  0
 18 19  1  0
 19 20  2  0
 20 21  1  0
 21 22  2  0
 22 23  1  0
 23 24  2  0
 24 25  1  0
 25 26  2  0
 26 27  1  0
 27 28  2  0
 28  7  1  0
 17 10  1  0
 28 19  1  0
 27 22  1  0
  1 29  1  0
  1 30  1  0
  1 31  1  0
  2 32  1  0
  2 33  1  0
  6 34  1  0
  6 35  1  0
  8 36  1  0
 11 37  1  0
 12 38  1  0
 15 39  1  0
 15 40  1  0
 15 41  1  0
 16 42  1  0
 17 43  1  0
 20 44  1  0
 21 45  1  0
 23 46  1  0
 24 47  1  0
 25 48  1  0
 26 49  1  0
M  END
$$$$
