
     RDKit          3D

 56 60  0  0  0  0  0  0  0  0999 V2000
    1.5546    0.4242   -3.6647 C   0  0  0  0  0  0  0  0  0  0  0  0
    1.7913    0.4354   -2.1735 C   0  0  0  0  0  0  0  0  0  0  0  0
    0.7427    0.7201   -1.2570 C   0  0  0  0  0  0  0  0  0  0  0  0
   -0.5541    1.0258   -1.7063 C   0  0  0  0  0  0  0  0  0  0  0  0
   -1.5714    1.3180   -0.8121 C   0  0  0  0  0  0  0  0  0  0  0  0
   -1.3320    1.3187    0.5107 N   0  0  0  0  0  4  0  0  0  0  0  0
   -2.4336    1.6418    1.4573 C   0  0  0  0  0  0  0  0  0  0  0  0
   -3.2217    0.3653    1.7989 C   0  0  0  0  0  0  0  0  0  0  0  0
   -3.9282   -0.2011    0.6349 N   0  0  0  0  0  0  0  0  0  0  0  0
   -5.1776    0.5210    0.3132 C   0  0  0  0  0  0  0  0  0  0  0  0
   -6.4542   -0.2228    0.6994 C   0  0  0  0  0  0  0  0  0  0  0  0
   -6.5312   -1.5880    0.0202 C   0  0  0  0  0  0  0  0  0  0  0  0
   -5.1517   -2.2128   -0.1783 C   0  0  0  0  0  0  0  0  0  0  0  0
   -4.1395   -1.6526    0.8169 C   0  0  0  0  0  0  0  0  0  0  0  0
   -0.1027    1.0203    0.9829 C   0  0  0  0  0  0  0  0  0  0  0  0
    0.9771    0.7018    0.1388 C   0  0  0  0  0  0  0  0  0  0  0  0
    2.2727    0.3727    0.6551 C   0  0  0  0  0  0  0  0  0  0  0  0
    2.5015    0.2638    2.1459 C   0  0  0  0  0  0  0  0  0  0  0  0
    3.3444    0.1791   -0.2627 C   0  0  0  0  0  0  0  0  0  0  0  0
    3.0676    0.1935   -1.6291 C   0  0  0  0  0  0  0  0  0  0  0  0
    4.2545   -0.0732   -2.2801 N   0  0  0  0  0  0  0  0  0  0  0  0
    5.2958   -0.2032   -1.4005 C   0  0  0  0  0  0  0  0  0  0  0  0
    6.6531   -0.4466   -1.6526 C   0  0  0  0  0  0  0  0  0  0  0  0
    7.5178   -0.5134   -0.5584 C   0  0  0  0  0  0  0  0  0  0  0  0
    7.0267   -0.3342    0.7262 C   0  0  0  0  0  0  0  0  0  0  0  0
    7.8513   -0.3812    1.8133 O   0  0  0  0  0  0  0  0  0  0  0  0
    5.6717   -0.0944    0.9636 C   0  0  0  0  0  0  0  0  0  0  0  0
    4.7687   -0.0376   -0.1221 C   0  0  0  0  0  0  0  0  0  0  0  0
    0.7815   -0.3079   -3.9206 H   0  0  0  0  0  0  0  0  0  0  0  0
    1.2470    1.4179   -4.0061 H   0  0  0  0  0  0  0  0  0  0  0  0
    2.4512    0.1500   -4.2269 H   0  0  0  0  0  0  0  0  0  0  0  0
   -0.7977    1.0430   -2.7664 H   0  0  0  0  0  0  0  0  0  0  0  0
   -2.5786    1.5478   -1.1465 H   0  0  0  0  0  0  0  0  0  0  0  0
   -1.9847    2.0712    2.3600 H   0  0  0  0  0  0  0  0  0  0  0  0
   -3.0557    2.4177    0.9985 H   0  0  0  0  0  0  0  0  0  0  0  0
   -3.9255    0.5668    2.6160 H   0  0  0  0  0  0  0  0  0  0  0  0
   -2.4982   -0.3670    2.1813 H   0  0  0  0  0  0  0  0  0  0  0  0
   -5.1868    0.6874   -0.7716 H   0  0  0  0  0  0  0  0  0  0  0  0
   -5.1938    1.5205    0.7634 H   0  0  0  0  0  0  0  0  0  0  0  0
   -7.3351    0.3712    0.4305 H   0  0  0  0  0  0  0  0  0  0  0  0
   -6.4862   -0.3506    1.7889 H   0  0  0  0  0  0  0  0  0  0  0  0
   -7.0250   -1.4971   -0.9547 H   0  0  0  0  0  0  0  0  0  0  0  0
   -7.1620   -2.2510    0.6243 H   0  0  0  0  0  0  0  0  0  0  0  0
   -4.8045   -2.0178   -1.2013 H   0  0  0  0  0  0  0  0  0  0  0  0
   -5.2214   -3.3019   -0.0775 H   0  0  0  0  0  0  0  0  0  0  0  0
   -4.4819   -1.8744    1.8367 H   0  0  0  0  0  0  0  0  0  0  0  0
   -3.1813   -2.1670    0.6776 H   0  0  0  0  0  0  0  0  0  0  0  0
   -0.0036    1.0532    2.0619 H   0  0  0  0  0  0  0  0  0  0  0  0
    1.6347   -0.1616    2.6603 H   0  0  0  0  0  0  0  0  0  0  0  0
    3.3156   -0.4265    2.3738 H   0  0  0  0  0  0  0  0  0  0  0  0
    2.7292    1.2477    2.5659 H   0  0  0  0  0  0  0  0  0  0  0  0
    4.3608   -0.1389   -3.2815 H   0  0  0  0  0  0  0  0  0  0  0  0
    7.0293   -0.5754   -2.6630 H   0  0  0  0  0  0  0  0  0  0  0  0
    8.5735   -0.6995   -0.7336 H   0  0  0  0  0  0  0  0  0  0  0  0
    8.7584   -0.5555    1.5109 H   0  0  0  0  0  0  0  0  0  0  0  0
    5.3472    0.0573    1.9863 H   0  0  0  0  0  0  0  0  0  0  0  0
  1  2  1  0
  2  3  2  0
  3  4  1  0
  4  5  2  0
  5  6  1  0
  6  7  1  0
  7  8  1  0
  8  9  1  0
  9 10  1  0
 10 11  1  0
 11 12  1  0
 12 13  1  0
 13 14  1  0
  6 15  2  0
 15 16  1  0
 16 17  2  0
 17 18  1  0
 17 19  1  0
 19 20  2  0
 20 21  1  0
 21 22  1  0
 22 23  2  0
 23 24  1  0
 24 25  2  0
 25 26  1  0
 25 27  1  0
 27 28  2  0
 20  2  1  0
 28 22  1  0
 16  3  1  0
 28 19  1  0
 14  9  1  0
  1 29  1  0
  1 30  1  0
  1 31  1  0
  4 32  1  0
  5 33  1  0
  7 34  1  0
  7 35  1  0
  8 36  1  0
  8 37  1  0
 10 38  1  0
 10 39  1  0
 11 40  1  0
 11 41  1  0
 12 42  1  0
 12 43  1  0
 13 44  1  0
 13 45  1  0
 14 46  1  0
 14 47  1  0
 15 48  1  0
 18 49  1  0
 18 50  1  0
 18 51  1  0
 21 52  1  0
 23 53  1  0
 24 54  1  0
 26 55  1  0
 27 56  1  0
M  CHG  1   6   1
M  END
$$$$
