
     RDKit          3D

 35 37  0  0  0  0  0  0  0  0999 V2000
   -6.1699   -0.3474    0.1293 O   0  0  0  0  0  0  0  0  0  0  0  0
   -4.8889    0.0148   -0.1655 C   0  0  0  0  0  0  0  0  0  0  0  0
   -3.9839   -0.9946   -0.4673 C   0  0  0  0  0  0  0  0  0  0  0  0
   -2.6622   -0.6698   -0.7749 C   0  0  0  0  0  0  0  0  0  0  0  0
   -2.2424    0.6677   -0.7802 C   0  0  0  0  0  0  0  0  0  0  0  0
   -0.8071    1.0180   -1.0996 C   0  0  0  0  0  0  0  0  0  0  0  0
    0.0303    1.3837    0.1379 C   0  0  0  0  0  0  0  0  0  0  0  0
    0.2393    0.2564    1.0650 N   0  0  0  0  0  0  0  0  0  0  0  0
    1.1677   -0.6927    0.6066 C   0  0  0  0  0  0  0  0  0  0  0  0
    0.6243   -1.8450    0.1867 N   0  0  0  0  0  0  0  0  0  0  0  0
    1.4744   -2.7577   -0.2953 C   0  0  0  0  0  0  0  0  0  0  0  0
    2.8022   -2.6283   -0.3992 N   0  0  0  0  0  0  0  0  0  0  0  0
    3.3302   -1.4886    0.0548 C   0  0  0  0  0  0  0  0  0  0  0  0
    4.7094   -1.3228   -0.0016 C   0  0  0  0  0  0  0  0  0  0  0  0
    5.3353   -0.1683    0.4793 C   0  0  0  0  0  0  0  0  0  0  0  0
    4.5667    0.8424    1.0390 C   0  0  0  0  0  0  0  0  0  0  0  0
    5.3220    2.2599    1.6498 Cl  0  0  0  0  0  0  0  0  0  0  0  0
    3.1848    0.7057    1.1058 C   0  0  0  0  0  0  0  0  0  0  0  0
    2.5517   -0.4552    0.5952 C   0  0  0  0  0  0  0  0  0  0  0  0
   -3.1708    1.6735   -0.4726 C   0  0  0  0  0  0  0  0  0  0  0  0
   -4.4943    1.3483   -0.1655 C   0  0  0  0  0  0  0  0  0  0  0  0
   -6.6813    0.4550    0.3225 H   0  0  0  0  0  0  0  0  0  0  0  0
   -4.3047   -2.0324   -0.4619 H   0  0  0  0  0  0  0  0  0  0  0  0
   -1.9609   -1.4697   -1.0048 H   0  0  0  0  0  0  0  0  0  0  0  0
   -0.3369    0.1977   -1.6553 H   0  0  0  0  0  0  0  0  0  0  0  0
   -0.8123    1.8735   -1.7877 H   0  0  0  0  0  0  0  0  0  0  0  0
    0.9849    1.8083   -0.1925 H   0  0  0  0  0  0  0  0  0  0  0  0
   -0.4745    2.1775    0.7012 H   0  0  0  0  0  0  0  0  0  0  0  0
   -0.6359   -0.2700    1.1299 H   0  0  0  0  0  0  0  0  0  0  0  0
    1.0456   -3.6923   -0.6406 H   0  0  0  0  0  0  0  0  0  0  0  0
    5.3174   -2.1198   -0.4254 H   0  0  0  0  0  0  0  0  0  0  0  0
    6.4166   -0.0770    0.4211 H   0  0  0  0  0  0  0  0  0  0  0  0
    2.5878    1.4880    1.5686 H   0  0  0  0  0  0  0  0  0  0  0  0
   -2.8693    2.7186   -0.4716 H   0  0  0  0  0  0  0  0  0  0  0  0
   -5.1956    2.1426    0.0689 H   0  0  0  0  0  0  0  0  0  0  0  0
  1  2  1  0
  2  3  2  0
  3  4  1  0
  4  5  2  0
  5  6  1  0
  6  7  1  0
  7  8  1  0
  8  9  1  0
  9 10  2  0
 10 11  1  0
 11 12  2  0
 12 13  1  0
 13 14  2  0
 14 15  1  0
 15 16  2  0
 16 17  1  0
 16 18  1  0
 18 19  2  0
  5 20  1  0
 20 21  2  0
 21  2  1  0
 19  9  1  0
 19 13  1  0
  1 22  1  0
  3 23  1  0
  4 24  1  0
  6 25  1  0
  6 26  1  0
  7 27  1  0
  7 28  1  0
  8 29  1  0
 11 30  1  0
 14 31  1  0
 15 32  1  0
 18 33  1  0
 20 34  1  0
 21 35  1  0
M  END
$$$$
