
     RDKit          3D

 44 46  0  0  0  0  0  0  0  0999 V2000
    0.4926    2.7570   -1.7802 N   0  0  0  0  0  0  0  0  0  0  0  0
    0.2377    1.6684   -1.4647 C   0  0  0  0  0  0  0  0  0  0  0  0
   -0.1010    0.3496   -1.0569 C   0  0  0  0  0  0  0  0  0  0  0  0
    0.6457   -0.4650   -0.2888 C   0  0  0  0  0  0  0  0  0  0  0  0
    1.8886   -0.1018    0.3010 C   0  0  0  0  0  0  0  0  0  0  0  0
    2.7777   -0.9095    0.9990 C   0  0  0  0  0  0  0  0  0  0  0  0
    3.8722   -0.1064    1.4032 C   0  0  0  0  0  0  0  0  0  0  0  0
    3.6147    1.1650    0.9405 C   0  0  0  0  0  0  0  0  0  0  0  0
    4.3159    2.4453    1.0064 C   0  0  0  0  0  0  0  0  0  0  0  0
    3.8315    3.5770    0.3301 C   0  0  0  0  0  0  0  0  0  0  0  0
    4.5065    4.8006    0.3948 C   0  0  0  0  0  0  0  0  0  0  0  0
    5.6770    4.9040    1.1396 C   0  0  0  0  0  0  0  0  0  0  0  0
    6.5922    6.5548    1.2308 Br  0  0  0  0  0  0  0  0  0  0  0  0
    6.1777    3.7964    1.8182 C   0  0  0  0  0  0  0  0  0  0  0  0
    5.4996    2.5740    1.7503 C   0  0  0  0  0  0  0  0  0  0  0  0
    2.4198    1.1638    0.2848 O   0  0  0  0  0  0  0  0  0  0  0  0
   -1.3668   -0.2141   -1.5918 C   0  0  0  0  0  0  0  0  0  0  0  0
   -1.5794   -0.2744   -2.7960 O   0  0  0  0  0  0  0  0  0  0  0  0
   -2.2544   -0.6417   -0.6269 N   0  0  0  0  0  0  0  0  0  0  0  0
   -3.5133   -1.2926   -0.9773 C   0  0  0  0  0  0  0  0  0  0  0  0
   -4.5461   -1.1146    0.1485 C   0  0  0  0  0  0  0  0  0  0  0  0
   -4.5176   -2.2778    1.1336 C   0  0  0  0  0  0  0  0  0  0  0  0
   -4.8452   -3.6081    0.4518 C   0  0  0  0  0  0  0  0  0  0  0  0
   -4.4711   -3.6428   -1.0310 C   0  0  0  0  0  0  0  0  0  0  0  0
   -3.2580   -2.7706   -1.3255 C   0  0  0  0  0  0  0  0  0  0  0  0
    0.3064   -1.4817   -0.1030 H   0  0  0  0  0  0  0  0  0  0  0  0
    2.6516   -1.9666    1.1911 H   0  0  0  0  0  0  0  0  0  0  0  0
    4.7421   -0.4242    1.9600 H   0  0  0  0  0  0  0  0  0  0  0  0
    2.9193    3.5189   -0.2624 H   0  0  0  0  0  0  0  0  0  0  0  0
    4.1071    5.6578   -0.1411 H   0  0  0  0  0  0  0  0  0  0  0  0
    7.0918    3.8706    2.4014 H   0  0  0  0  0  0  0  0  0  0  0  0
    5.9110    1.7251    2.2904 H   0  0  0  0  0  0  0  0  0  0  0  0
   -2.0103   -0.5706    0.3530 H   0  0  0  0  0  0  0  0  0  0  0  0
   -3.9018   -0.7832   -1.8686 H   0  0  0  0  0  0  0  0  0  0  0  0
   -5.5499   -1.0592   -0.2929 H   0  0  0  0  0  0  0  0  0  0  0  0
   -4.3876   -0.1681    0.6790 H   0  0  0  0  0  0  0  0  0  0  0  0
   -5.2265   -2.1008    1.9504 H   0  0  0  0  0  0  0  0  0  0  0  0
   -3.5228   -2.3390    1.5926 H   0  0  0  0  0  0  0  0  0  0  0  0
   -5.9169   -3.8209    0.5481 H   0  0  0  0  0  0  0  0  0  0  0  0
   -4.3257   -4.4132    0.9855 H   0  0  0  0  0  0  0  0  0  0  0  0
   -4.2794   -4.6774   -1.3373 H   0  0  0  0  0  0  0  0  0  0  0  0
   -5.3209   -3.2926   -1.6305 H   0  0  0  0  0  0  0  0  0  0  0  0
   -2.4004   -3.1559   -0.7576 H   0  0  0  0  0  0  0  0  0  0  0  0
   -2.9837   -2.8555   -2.3840 H   0  0  0  0  0  0  0  0  0  0  0  0
  1  2  3  0
  2  3  1  0
  3  4  2  3
  4  5  1  0
  5  6  2  0
  6  7  1  0
  7  8  2  0
  8  9  1  0
  9 10  2  0
 10 11  1  0
 11 12  2  0
 12 13  1  0
 12 14  1  0
 14 15  2  0
  8 16  1  0
  3 17  1  0
 17 18  2  0
 17 19  1  0
 19 20  1  0
 20 21  1  0
 21 22  1  0
 22 23  1  0
 23 24  1  0
 24 25  1  0
 16  5  1  0
 25 20  1  0
 15  9  1  0
  4 26  1  0
  6 27  1  0
  7 28  1  0
 10 29  1  0
 11 30  1  0
 14 31  1  0
 15 32  1  0
 19 33  1  0
 20 34  1  0
 21 35  1  0
 21 36  1  0
 22 37  1  0
 22 38  1  0
 23 39  1  0
 23 40  1  0
 24 41  1  0
 24 42  1  0
 25 43  1  0
 25 44  1  0
M  END
$$$$
