
     RDKit          3D

 44 47  0  0  0  0  0  0  0  0999 V2000
    4.1137    0.1822    1.4447 C   0  0  0  0  0  0  0  0  0  0  0  0
    2.8720    0.7058    0.6966 C   0  0  0  0  0  0  0  0  0  0  0  0
    2.2356    1.8054    1.5611 C   0  0  0  0  0  0  0  0  0  0  0  0
    1.9009   -0.4729    0.4756 C   0  0  0  0  0  0  0  0  0  0  0  0
    1.1169   -0.3619   -0.8412 C   0  0  0  0  0  0  0  0  0  0  0  0
    0.0396    0.7253   -0.9152 C   0  0  0  0  0  0  0  0  0  0  0  0
   -1.0574    0.4794    0.1249 C   0  0  0  0  0  0  0  0  0  0  0  0
   -2.2208    1.4171   -0.1345 C   0  0  0  0  0  0  0  0  0  0  0  0
   -3.1410    1.3983   -1.1677 C   0  0  0  0  0  0  0  0  0  0  0  0
   -4.0905    2.4553   -1.0707 C   0  0  0  0  0  0  0  0  0  0  0  0
   -3.8648    3.2515    0.0288 C   0  0  0  0  0  0  0  0  0  0  0  0
   -2.5156    2.7265    0.9361 S   0  0  0  0  0  0  0  0  0  0  0  0
   -1.4453   -0.9872    0.1402 C   0  0  0  0  0  0  0  0  0  0  0  0
   -2.5896   -1.4288    0.8317 C   0  0  0  0  0  0  0  0  0  0  0  0
   -2.9369   -2.7800    0.8346 C   0  0  0  0  0  0  0  0  0  0  0  0
   -4.3525   -3.2922    1.6737 Cl  0  0  0  0  0  0  0  0  0  0  0  0
   -2.1403   -3.7048    0.1611 C   0  0  0  0  0  0  0  0  0  0  0  0
   -2.4409   -5.0386    0.1310 O   0  0  0  0  0  0  0  0  0  0  0  0
   -0.9923   -3.2898   -0.5024 C   0  0  0  0  0  0  0  0  0  0  0  0
   -0.6357   -1.9396   -0.4945 C   0  0  0  0  0  0  0  0  0  0  0  0
    0.5270   -1.6346   -1.1483 O   0  0  0  0  0  0  0  0  0  0  0  0
    2.0844   -0.1444   -1.8956 N   0  0  0  0  0  0  0  0  0  0  0  0
    3.0563    0.7899   -1.8040 C   0  0  0  0  0  0  0  0  0  0  0  0
    3.8904    1.3115   -3.1379 S   0  0  0  0  0  0  0  0  0  0  0  0
    3.3139    1.2915   -0.5715 N   0  0  0  0  0  0  0  0  0  0  0  0
    4.8264    0.9907    1.6458 H   0  0  0  0  0  0  0  0  0  0  0  0
    3.8387   -0.2718    2.4033 H   0  0  0  0  0  0  0  0  0  0  0  0
    4.6451   -0.5714    0.8514 H   0  0  0  0  0  0  0  0  0  0  0  0
    2.9546    2.6075    1.7672 H   0  0  0  0  0  0  0  0  0  0  0  0
    1.3791    2.2746    1.0715 H   0  0  0  0  0  0  0  0  0  0  0  0
    1.8957    1.4079    2.5238 H   0  0  0  0  0  0  0  0  0  0  0  0
    1.2464   -0.6167    1.3431 H   0  0  0  0  0  0  0  0  0  0  0  0
    2.4792   -1.4086    0.4235 H   0  0  0  0  0  0  0  0  0  0  0  0
   -0.4032    0.6980   -1.9231 H   0  0  0  0  0  0  0  0  0  0  0  0
    0.4542    1.7338   -0.8122 H   0  0  0  0  0  0  0  0  0  0  0  0
   -0.6444    0.6923    1.1203 H   0  0  0  0  0  0  0  0  0  0  0  0
   -3.1356    0.6568   -1.9587 H   0  0  0  0  0  0  0  0  0  0  0  0
   -4.8975    2.6241   -1.7734 H   0  0  0  0  0  0  0  0  0  0  0  0
   -4.4270    4.1202    0.3433 H   0  0  0  0  0  0  0  0  0  0  0  0
   -3.2188   -0.7161    1.3617 H   0  0  0  0  0  0  0  0  0  0  0  0
   -3.2676   -5.1610    0.6344 H   0  0  0  0  0  0  0  0  0  0  0  0
   -0.3684   -4.0175   -1.0142 H   0  0  0  0  0  0  0  0  0  0  0  0
    1.8526   -0.4842   -2.8196 H   0  0  0  0  0  0  0  0  0  0  0  0
    4.0633    1.9761   -0.5443 H   0  0  0  0  0  0  0  0  0  0  0  0
  1  2  1  0
  2  3  1  0
  2  4  1  0
  4  5  1  0
  5  6  1  0
  6  7  1  0
  7  8  1  0
  8  9  2  0
  9 10  1  0
 10 11  2  0
 11 12  1  0
  7 13  1  0
 13 14  2  0
 14 15  1  0
 15 16  1  0
 15 17  2  0
 17 18  1  0
 17 19  1  0
 19 20  2  0
 20 21  1  0
  5 22  1  0
 22 23  1  0
 23 24  2  0
 23 25  1  0
 25  2  1  0
 21  5  1  0
 12  8  1  0
 20 13  1  0
  1 26  1  0
  1 27  1  0
  1 28  1  0
  3 29  1  0
  3 30  1  0
  3 31  1  0
  4 32  1  0
  4 33  1  0
  6 34  1  0
  6 35  1  0
  7 36  1  0
  9 37  1  0
 10 38  1  0
 11 39  1  0
 14 40  1  0
 18 41  1  0
 19 42  1  0
 22 43  1  0
 25 44  1  0
M  END
$$$$
