
     RDKit          3D

 39 41  0  0  0  0  0  0  0  0999 V2000
    5.0437   -0.4739    1.3293 C   0  0  0  0  0  0  0  0  0  0  0  0
    4.2819   -0.1436    0.0435 C   0  0  0  0  0  0  0  0  0  0  0  0
    4.8031    1.1696   -0.5420 C   0  0  0  0  0  0  0  0  0  0  0  0
    2.7702   -0.0994    0.3294 C   0  0  0  0  0  0  0  0  0  0  0  0
    1.9162    0.0800   -0.9318 C   0  0  0  0  0  0  0  0  0  0  0  0
    0.4891   -0.0115   -0.6289 N   0  0  0  0  0  0  0  0  0  0  0  0
   -0.0972   -1.2747   -0.6543 C   0  0  0  0  0  0  0  0  0  0  0  0
    0.5161   -2.3060   -0.9195 O   0  0  0  0  0  0  0  0  0  0  0  0
   -1.5411   -1.3538   -0.3315 C   0  0  0  0  0  0  0  0  0  0  0  0
   -2.1730   -2.6025   -0.3695 C   0  0  0  0  0  0  0  0  0  0  0  0
   -3.5213   -2.7048   -0.0583 C   0  0  0  0  0  0  0  0  0  0  0  0
   -4.2417   -1.5587    0.2799 C   0  0  0  0  0  0  0  0  0  0  0  0
   -3.6384   -0.2798    0.3134 C   0  0  0  0  0  0  0  0  0  0  0  0
   -4.3543    0.9085    0.6318 C   0  0  0  0  0  0  0  0  0  0  0  0
   -5.7073    0.8863    1.0251 N   0  0  0  0  0  0  0  0  0  0  0  0
   -3.6597    2.1175    0.7592 C   0  0  0  0  0  0  0  0  0  0  0  0
   -2.3020    2.1937    0.4667 C   0  0  0  0  0  0  0  0  0  0  0  0
   -1.6057    1.0450    0.0816 C   0  0  0  0  0  0  0  0  0  0  0  0
   -2.2509   -0.1944    0.0124 C   0  0  0  0  0  0  0  0  0  0  0  0
   -0.1619    1.1539   -0.2313 C   0  0  0  0  0  0  0  0  0  0  0  0
    0.3944    2.2444   -0.1253 O   0  0  0  0  0  0  0  0  0  0  0  0
    4.8875    0.2957    2.0930 H   0  0  0  0  0  0  0  0  0  0  0  0
    4.7140   -1.4333    1.7419 H   0  0  0  0  0  0  0  0  0  0  0  0
    6.1194   -0.5473    1.1369 H   0  0  0  0  0  0  0  0  0  0  0  0
    4.4802   -0.9450   -0.6794 H   0  0  0  0  0  0  0  0  0  0  0  0
    4.5683    2.0165    0.1115 H   0  0  0  0  0  0  0  0  0  0  0  0
    4.3690    1.3673   -1.5266 H   0  0  0  0  0  0  0  0  0  0  0  0
    5.8904    1.1330   -0.6699 H   0  0  0  0  0  0  0  0  0  0  0  0
    2.4760   -1.0329    0.8269 H   0  0  0  0  0  0  0  0  0  0  0  0
    2.5485    0.7064    1.0411 H   0  0  0  0  0  0  0  0  0  0  0  0
    2.1785   -0.6859   -1.6710 H   0  0  0  0  0  0  0  0  0  0  0  0
    2.1152    1.0534   -1.3927 H   0  0  0  0  0  0  0  0  0  0  0  0
   -1.6127   -3.4979   -0.6328 H   0  0  0  0  0  0  0  0  0  0  0  0
   -4.0133   -3.6744   -0.0737 H   0  0  0  0  0  0  0  0  0  0  0  0
   -5.2916   -1.6831    0.5335 H   0  0  0  0  0  0  0  0  0  0  0  0
   -6.1635    1.7925    0.9707 H   0  0  0  0  0  0  0  0  0  0  0  0
   -6.2590    0.1704    0.5651 H   0  0  0  0  0  0  0  0  0  0  0  0
   -4.1777    3.0183    1.0801 H   0  0  0  0  0  0  0  0  0  0  0  0
   -1.7892    3.1503    0.5490 H   0  0  0  0  0  0  0  0  0  0  0  0
  1  2  1  0
  2  3  1  0
  2  4  1  0
  4  5  1  0
  5  6  1  0
  6  7  1  0
  7  8  2  0
  7  9  1  0
  9 10  1  0
 10 11  2  0
 11 12  1  0
 12 13  2  0
 13 14  1  0
 14 15  1  0
 14 16  2  0
 16 17  1  0
 17 18  2  0
 18 19  1  0
 18 20  1  0
 20 21  2  0
 20  6  1  0
 19  9  2  0
 19 13  1  0
  1 22  1  0
  1 23  1  0
  1 24  1  0
  2 25  1  0
  3 26  1  0
  3 27  1  0
  3 28  1  0
  4 29  1  0
  4 30  1  0
  5 31  1  0
  5 32  1  0
 10 33  1  0
 11 34  1  0
 12 35  1  0
 15 36  1  0
 15 37  1  0
 16 38  1  0
 17 39  1  0
M  END
$$$$
