
     RDKit          3D

 49 52  0  0  0  0  0  0  0  0999 V2000
   -0.0854   -0.3714    4.0166 O   0  0  0  0  0  0  0  0  0  0  0  0
    0.7235   -0.5643    3.1117 C   0  0  0  0  0  0  0  0  0  0  0  0
    2.1502   -1.0322    3.4192 C   0  0  0  0  0  0  0  0  0  0  0  0
    2.7910   -1.6788    2.2708 N   0  0  0  0  0  0  0  0  0  0  0  0
    3.2941   -0.8454    1.2900 N   0  0  0  0  0  0  0  0  0  0  0  0
    3.8584   -1.3917    0.2551 C   0  0  0  0  0  0  0  0  0  0  0  0
    4.4049   -0.5092   -0.8153 C   0  0  0  0  0  0  0  0  0  0  0  0
    4.3651   -0.8741   -2.1690 C   0  0  0  0  0  0  0  0  0  0  0  0
    4.8765   -0.0084   -3.1397 C   0  0  0  0  0  0  0  0  0  0  0  0
    5.4142    1.2160   -2.7581 C   0  0  0  0  0  0  0  0  0  0  0  0
    5.9026    2.0410   -3.6925 F   0  0  0  0  0  0  0  0  0  0  0  0
    5.4471    1.5975   -1.4225 C   0  0  0  0  0  0  0  0  0  0  0  0
    4.9379    0.7364   -0.4485 C   0  0  0  0  0  0  0  0  0  0  0  0
    4.0062   -2.8512    0.0707 C   0  0  0  0  0  0  0  0  0  0  0  0
    3.4742   -3.6358    1.0084 C   0  0  0  0  0  0  0  0  0  0  0  0
    2.7884   -3.0639    2.1837 C   0  0  0  0  0  0  0  0  0  0  0  0
    2.2797   -3.8219    3.0029 O   0  0  0  0  0  0  0  0  0  0  0  0
    0.5299   -0.2658    1.7739 N   0  0  0  0  0  0  0  0  0  0  0  0
   -0.6231    0.2227    1.1398 C   0  0  0  0  0  0  0  0  0  0  0  0
   -0.5388    0.4673   -0.2358 C   0  0  0  0  0  0  0  0  0  0  0  0
   -1.6451    0.9497   -0.9421 C   0  0  0  0  0  0  0  0  0  0  0  0
   -2.8547    1.1885   -0.2815 C   0  0  0  0  0  0  0  0  0  0  0  0
   -4.0043    1.7041   -1.0770 C   0  0  0  0  0  0  0  0  0  0  0  0
   -3.7974    2.3293   -2.1123 O   0  0  0  0  0  0  0  0  0  0  0  0
   -5.2661    1.4075   -0.5949 N   0  0  0  0  0  0  0  0  0  0  0  0
   -6.4544    1.7952   -1.2887 C   0  0  0  0  0  0  0  0  0  0  0  0
   -7.3330    0.7585   -1.9323 C   0  0  0  0  0  0  0  0  0  0  0  0
   -7.8109    1.4913   -0.7129 C   0  0  0  0  0  0  0  0  0  0  0  0
   -2.9370    0.9624    1.0966 C   0  0  0  0  0  0  0  0  0  0  0  0
   -1.8268    0.4754    1.7995 C   0  0  0  0  0  0  0  0  0  0  0  0
    2.7490   -0.1615    3.7074 H   0  0  0  0  0  0  0  0  0  0  0  0
    2.1092   -1.7287    4.2628 H   0  0  0  0  0  0  0  0  0  0  0  0
    3.9215   -1.8114   -2.4927 H   0  0  0  0  0  0  0  0  0  0  0  0
    4.8529   -0.2762   -4.1922 H   0  0  0  0  0  0  0  0  0  0  0  0
    5.8656    2.5610   -1.1481 H   0  0  0  0  0  0  0  0  0  0  0  0
    4.9655    1.0402    0.5961 H   0  0  0  0  0  0  0  0  0  0  0  0
    4.5419   -3.2612   -0.7739 H   0  0  0  0  0  0  0  0  0  0  0  0
    3.5322   -4.7161    0.9651 H   0  0  0  0  0  0  0  0  0  0  0  0
    1.3611   -0.4053    1.1995 H   0  0  0  0  0  0  0  0  0  0  0  0
    0.3877    0.2913   -0.7765 H   0  0  0  0  0  0  0  0  0  0  0  0
   -1.5602    1.1393   -2.0106 H   0  0  0  0  0  0  0  0  0  0  0  0
   -5.3603    0.7566    0.1732 H   0  0  0  0  0  0  0  0  0  0  0  0
   -6.3564    2.7458   -1.8109 H   0  0  0  0  0  0  0  0  0  0  0  0
   -7.0602   -0.2848   -1.8299 H   0  0  0  0  0  0  0  0  0  0  0  0
   -7.7799    1.0073   -2.8882 H   0  0  0  0  0  0  0  0  0  0  0  0
   -8.5888    2.2359   -0.8403 H   0  0  0  0  0  0  0  0  0  0  0  0
   -7.8738    0.9418    0.2177 H   0  0  0  0  0  0  0  0  0  0  0  0
   -3.8414    1.1846    1.6551 H   0  0  0  0  0  0  0  0  0  0  0  0
   -1.9327    0.3127    2.8681 H   0  0  0  0  0  0  0  0  0  0  0  0
  1  2  2  0
  2  3  1  0
  3  4  1  0
  4  5  1  0
  5  6  2  0
  6  7  1  0
  7  8  2  0
  8  9  1  0
  9 10  2  0
 10 11  1  0
 10 12  1  0
 12 13  2  0
  6 14  1  0
 14 15  2  0
 15 16  1  0
 16 17  2  0
  2 18  1  0
 18 19  1  0
 19 20  2  0
 20 21  1  0
 21 22  2  0
 22 23  1  0
 23 24  2  0
 23 25  1  0
 25 26  1  0
 26 27  1  0
 27 28  1  0
 22 29  1  0
 29 30  2  0
 16  4  1  0
 30 19  1  0
 13  7  1  0
 28 26  1  0
  3 31  1  0
  3 32  1  0
  8 33  1  0
  9 34  1  0
 12 35  1  0
 13 36  1  0
 14 37  1  0
 15 38  1  0
 18 39  1  0
 20 40  1  0
 21 41  1  0
 25 42  1  0
 26 43  1  0
 27 44  1  0
 27 45  1  0
 28 46  1  0
 28 47  1  0
 29 48  1  0
 30 49  1  0
M  END
$$$$
