
     RDKit          3D

 49 52  0  0  0  0  0  0  0  0999 V2000
    0.5815    0.9803    2.2202 O   0  0  0  0  0  0  0  0  0  0  0  0
    0.7319   -0.1964    1.8976 C   0  0  0  0  0  0  0  0  0  0  0  0
    1.9985   -0.9637    2.2885 C   0  0  0  0  0  0  0  0  0  0  0  0
    2.7554   -1.4044    1.1191 N   0  0  0  0  0  0  0  0  0  0  0  0
    3.8521   -0.6439    0.7807 N   0  0  0  0  0  0  0  0  0  0  0  0
    4.5756   -1.0270   -0.2261 C   0  0  0  0  0  0  0  0  0  0  0  0
    5.7656   -0.2166   -0.6097 C   0  0  0  0  0  0  0  0  0  0  0  0
    6.9438   -0.8118   -1.0829 C   0  0  0  0  0  0  0  0  0  0  0  0
    8.0396   -0.0139   -1.4229 C   0  0  0  0  0  0  0  0  0  0  0  0
    7.9567    1.3676   -1.2840 C   0  0  0  0  0  0  0  0  0  0  0  0
    9.0106    2.1261   -1.6092 F   0  0  0  0  0  0  0  0  0  0  0  0
    6.8006    1.9701   -0.8026 C   0  0  0  0  0  0  0  0  0  0  0  0
    5.7036    1.1777   -0.4587 C   0  0  0  0  0  0  0  0  0  0  0  0
    4.2823   -2.2236   -1.0468 C   0  0  0  0  0  0  0  0  0  0  0  0
    3.2190   -2.9496   -0.6989 C   0  0  0  0  0  0  0  0  0  0  0  0
    2.3789   -2.5547    0.4466 C   0  0  0  0  0  0  0  0  0  0  0  0
    1.3820   -3.2191    0.7264 O   0  0  0  0  0  0  0  0  0  0  0  0
   -0.1992   -0.9796    1.2321 N   0  0  0  0  0  0  0  0  0  0  0  0
   -1.4639   -0.6012    0.7447 C   0  0  0  0  0  0  0  0  0  0  0  0
   -2.0054    0.6785    0.8807 C   0  0  0  0  0  0  0  0  0  0  0  0
   -3.2751    0.9737    0.3682 C   0  0  0  0  0  0  0  0  0  0  0  0
   -4.0168   -0.0160   -0.2842 C   0  0  0  0  0  0  0  0  0  0  0  0
   -5.3663    0.2536   -0.8487 C   0  0  0  0  0  0  0  0  0  0  0  0
   -5.7307   -0.3372   -1.8589 O   0  0  0  0  0  0  0  0  0  0  0  0
   -6.1429    1.1590   -0.1491 N   0  0  0  0  0  0  0  0  0  0  0  0
   -7.4777    1.4922   -0.5379 C   0  0  0  0  0  0  0  0  0  0  0  0
   -7.9092    2.9311   -0.6015 C   0  0  0  0  0  0  0  0  0  0  0  0
   -8.4549    2.0336    0.4696 C   0  0  0  0  0  0  0  0  0  0  0  0
   -3.4711   -1.2931   -0.4411 C   0  0  0  0  0  0  0  0  0  0  0  0
   -2.2057   -1.5836    0.0771 C   0  0  0  0  0  0  0  0  0  0  0  0
    2.6321   -0.3181    2.9074 H   0  0  0  0  0  0  0  0  0  0  0  0
    1.7108   -1.8342    2.8899 H   0  0  0  0  0  0  0  0  0  0  0  0
    7.0386   -1.8908   -1.1672 H   0  0  0  0  0  0  0  0  0  0  0  0
    8.9600   -0.4605   -1.7855 H   0  0  0  0  0  0  0  0  0  0  0  0
    6.7608    3.0490   -0.6917 H   0  0  0  0  0  0  0  0  0  0  0  0
    4.8014    1.6514   -0.0768 H   0  0  0  0  0  0  0  0  0  0  0  0
    4.8862   -2.4766   -1.9068 H   0  0  0  0  0  0  0  0  0  0  0  0
    2.9143   -3.8339   -1.2444 H   0  0  0  0  0  0  0  0  0  0  0  0
    0.0723   -1.9495    1.0623 H   0  0  0  0  0  0  0  0  0  0  0  0
   -1.4601    1.4771    1.3746 H   0  0  0  0  0  0  0  0  0  0  0  0
   -3.6507    1.9887    0.4622 H   0  0  0  0  0  0  0  0  0  0  0  0
   -5.8168    1.4890    0.7505 H   0  0  0  0  0  0  0  0  0  0  0  0
   -7.8908    0.8289   -1.2972 H   0  0  0  0  0  0  0  0  0  0  0  0
   -8.5688    3.2199   -1.4117 H   0  0  0  0  0  0  0  0  0  0  0  0
   -7.1998    3.6973   -0.3140 H   0  0  0  0  0  0  0  0  0  0  0  0
   -8.1218    2.1958    1.4874 H   0  0  0  0  0  0  0  0  0  0  0  0
   -9.4874    1.7122    0.3874 H   0  0  0  0  0  0  0  0  0  0  0  0
   -4.0316   -2.0664   -0.9634 H   0  0  0  0  0  0  0  0  0  0  0  0
   -1.8074   -2.5875   -0.0536 H   0  0  0  0  0  0  0  0  0  0  0  0
  1  2  2  0
  2  3  1  0
  3  4  1  0
  4  5  1  0
  5  6  2  0
  6  7  1  0
  7  8  2  0
  8  9  1  0
  9 10  2  0
 10 11  1  0
 10 12  1  0
 12 13  2  0
  6 14  1  0
 14 15  2  0
 15 16  1  0
 16 17  2  0
  2 18  1  0
 18 19  1  0
 19 20  2  0
 20 21  1  0
 21 22  2  0
 22 23  1  0
 23 24  2  0
 23 25  1  0
 25 26  1  0
 26 27  1  0
 27 28  1  0
 22 29  1  0
 29 30  2  0
 16  4  1  0
 30 19  1  0
 13  7  1  0
 28 26  1  0
  3 31  1  0
  3 32  1  0
  8 33  1  0
  9 34  1  0
 12 35  1  0
 13 36  1  0
 14 37  1  0
 15 38  1  0
 18 39  1  0
 20 40  1  0
 21 41  1  0
 25 42  1  0
 26 43  1  0
 27 44  1  0
 27 45  1  0
 28 46  1  0
 28 47  1  0
 29 48  1  0
 30 49  1  0
M  END
$$$$
