
     RDKit          3D

 62 65  0  0  0  0  0  0  0  0999 V2000
   -4.0283   -1.7886    0.3694 C   0  0  0  0  0  0  0  0  0  0  0  0
   -2.7673   -2.6083    0.5723 C   0  0  0  0  0  0  0  0  0  0  0  0
   -1.5335   -1.7261    0.5468 C   0  0  0  0  0  0  0  0  0  0  0  0
   -0.8662   -1.6702   -0.4900 O   0  0  0  0  0  0  0  0  0  0  0  0
   -1.2159   -0.9873    1.6812 N   0  0  0  0  0  0  0  0  0  0  0  0
   -1.8711   -1.1108    2.9771 C   0  0  0  0  0  0  0  0  0  0  0  0
   -0.0554   -0.0841    1.6237 C   0  0  0  0  0  0  0  0  0  0  0  0
   -0.4334    1.4063    1.5493 C   0  0  0  0  0  0  0  0  0  0  0  0
   -1.4090    1.7822    0.4461 C   0  0  0  0  0  0  0  0  0  0  0  0
   -2.6834    2.2325    0.8342 C   0  0  0  0  0  0  0  0  0  0  0  0
   -3.6062    2.5340   -0.1430 C   0  0  0  0  0  0  0  0  0  0  0  0
   -3.3269    2.4162   -1.4867 C   0  0  0  0  0  0  0  0  0  0  0  0
   -2.0839    1.9917   -1.9305 C   0  0  0  0  0  0  0  0  0  0  0  0
   -1.7020    1.8458   -3.2376 O   0  0  0  0  0  0  0  0  0  0  0  0
   -2.4798    2.5095   -4.2292 C   0  0  0  0  0  0  0  0  0  0  0  0
   -1.1190    1.6730   -0.9440 C   0  0  0  0  0  0  0  0  0  0  0  0
    0.1955    1.1933   -1.4292 C   0  0  0  0  0  0  0  0  0  0  0  0
    1.3071    1.4951   -0.8359 N   0  0  0  0  0  0  0  0  0  0  0  0
    2.4172    0.9093   -1.3659 N   0  0  0  0  0  0  0  0  0  0  0  0
    3.6446    1.0496   -0.7454 C   0  0  0  0  0  0  0  0  0  0  0  0
    3.9011    1.7566    0.2202 O   0  0  0  0  0  0  0  0  0  0  0  0
    4.7080    0.2323   -1.3982 C   0  0  0  0  0  0  0  0  0  0  0  0
    6.0213   -0.0043   -0.6962 C   0  0  0  0  0  0  0  0  0  0  0  0
    5.0694   -1.1595   -0.9050 C   0  0  0  0  0  0  0  0  0  0  0  0
    4.3670   -1.8062    0.2717 C   0  0  0  0  0  0  0  0  0  0  0  0
    5.0415   -2.0834    1.4728 C   0  0  0  0  0  0  0  0  0  0  0  0
    4.3939   -2.6986    2.5512 C   0  0  0  0  0  0  0  0  0  0  0  0
    3.0537   -3.0590    2.4471 C   0  0  0  0  0  0  0  0  0  0  0  0
    2.3659   -2.8144    1.2630 C   0  0  0  0  0  0  0  0  0  0  0  0
    3.0184   -2.1982    0.1892 C   0  0  0  0  0  0  0  0  0  0  0  0
   -4.4113    2.7530   -2.2433 O   0  0  0  0  0  0  0  0  0  0  0  0
   -5.3654    3.1330   -1.2358 C   0  0  0  0  0  0  0  0  0  0  0  0
   -4.8733    2.9609    0.1036 O   0  0  0  0  0  0  0  0  0  0  0  0
   -4.9024   -2.4432    0.3199 H   0  0  0  0  0  0  0  0  0  0  0  0
   -3.9742   -1.2193   -0.5665 H   0  0  0  0  0  0  0  0  0  0  0  0
   -4.1833   -1.0710    1.1813 H   0  0  0  0  0  0  0  0  0  0  0  0
   -2.6724   -3.3355   -0.2457 H   0  0  0  0  0  0  0  0  0  0  0  0
   -2.8055   -3.1990    1.4924 H   0  0  0  0  0  0  0  0  0  0  0  0
   -2.7856   -1.7009    2.9405 H   0  0  0  0  0  0  0  0  0  0  0  0
   -1.1745   -1.5958    3.6674 H   0  0  0  0  0  0  0  0  0  0  0  0
   -2.1210   -0.1156    3.3547 H   0  0  0  0  0  0  0  0  0  0  0  0
    0.5536   -0.2606    2.5210 H   0  0  0  0  0  0  0  0  0  0  0  0
    0.5753   -0.3597    0.7779 H   0  0  0  0  0  0  0  0  0  0  0  0
   -0.8646    1.6944    2.5176 H   0  0  0  0  0  0  0  0  0  0  0  0
    0.4692    2.0240    1.4657 H   0  0  0  0  0  0  0  0  0  0  0  0
   -2.9564    2.3335    1.8799 H   0  0  0  0  0  0  0  0  0  0  0  0
   -3.4215    1.9814   -4.3972 H   0  0  0  0  0  0  0  0  0  0  0  0
   -1.9172    2.4803   -5.1676 H   0  0  0  0  0  0  0  0  0  0  0  0
   -2.6395    3.5644   -3.9809 H   0  0  0  0  0  0  0  0  0  0  0  0
    0.1806    0.5578   -2.3340 H   0  0  0  0  0  0  0  0  0  0  0  0
    2.3052    0.2340   -2.1128 H   0  0  0  0  0  0  0  0  0  0  0  0
    4.7736    0.3945   -2.4728 H   0  0  0  0  0  0  0  0  0  0  0  0
    6.1412    0.4182    0.2967 H   0  0  0  0  0  0  0  0  0  0  0  0
    6.9255    0.0270   -1.2960 H   0  0  0  0  0  0  0  0  0  0  0  0
    5.3615   -1.8628   -1.6837 H   0  0  0  0  0  0  0  0  0  0  0  0
    6.0908   -1.8147    1.5740 H   0  0  0  0  0  0  0  0  0  0  0  0
    4.9406   -2.8906    3.4724 H   0  0  0  0  0  0  0  0  0  0  0  0
    2.5510   -3.5294    3.2865 H   0  0  0  0  0  0  0  0  0  0  0  0
    1.3201   -3.0869    1.1686 H   0  0  0  0  0  0  0  0  0  0  0  0
    2.4523   -2.0128   -0.7214 H   0  0  0  0  0  0  0  0  0  0  0  0
   -5.6268    4.1870   -1.3808 H   0  0  0  0  0  0  0  0  0  0  0  0
   -6.2692    2.5261   -1.3602 H   0  0  0  0  0  0  0  0  0  0  0  0
  1  2  1  0
  2  3  1  0
  3  4  2  0
  3  5  1  0
  5  6  1  0
  5  7  1  0
  7  8  1  0
  8  9  1  0
  9 10  2  0
 10 11  1  0
 11 12  2  0
 12 13  1  0
 13 14  1  0
 14 15  1  0
 13 16  2  0
 16 17  1  0
 17 18  2  3
 18 19  1  0
 19 20  1  0
 20 21  2  0
 20 22  1  0
 22 23  1  0
 23 24  1  0
 24 25  1  0
 25 26  2  0
 26 27  1  0
 27 28  2  0
 28 29  1  0
 29 30  2  0
 12 31  1  0
 31 32  1  0
 32 33  1  0
 16  9  1  0
 24 22  1  0
 30 25  1  0
 33 11  1  0
  1 34  1  0
  1 35  1  0
  1 36  1  0
  2 37  1  0
  2 38  1  0
  6 39  1  0
  6 40  1  0
  6 41  1  0
  7 42  1  0
  7 43  1  0
  8 44  1  0
  8 45  1  0
 10 46  1  0
 15 47  1  0
 15 48  1  0
 15 49  1  0
 17 50  1  0
 19 51  1  0
 22 52  1  0
 23 53  1  0
 23 54  1  0
 24 55  1  0
 26 56  1  0
 27 57  1  0
 28 58  1  0
 29 59  1  0
 30 60  1  0
 32 61  1  0
 32 62  1  0
M  END
$$$$
