
     RDKit          3D

 38 40  0  0  0  0  0  0  0  0999 V2000
   -0.4922    0.5909   -1.9599 O   0  0  0  0  0  0  0  0  0  0  0  0
   -0.3216    1.6474   -1.3678 C   0  0  0  0  0  0  0  0  0  0  0  0
   -1.3854    2.4431   -0.6428 C   0  0  0  0  0  0  0  0  0  0  0  0
   -2.5786    1.6156   -0.2247 C   0  0  0  0  0  0  0  0  0  0  0  0
   -3.6938    1.4984   -1.0631 C   0  0  0  0  0  0  0  0  0  0  0  0
   -4.7842    0.7149   -0.6844 C   0  0  0  0  0  0  0  0  0  0  0  0
   -4.7701    0.0376    0.5342 C   0  0  0  0  0  0  0  0  0  0  0  0
   -3.6648    0.1388    1.3908 C   0  0  0  0  0  0  0  0  0  0  0  0
   -3.6332   -0.6170    2.6952 C   0  0  0  0  0  0  0  0  0  0  0  0
   -3.0257   -1.8283    2.5808 F   0  0  0  0  0  0  0  0  0  0  0  0
   -2.9624    0.0447    3.6807 F   0  0  0  0  0  0  0  0  0  0  0  0
   -4.8733   -0.8687    3.2000 F   0  0  0  0  0  0  0  0  0  0  0  0
   -2.5688    0.9248    0.9967 C   0  0  0  0  0  0  0  0  0  0  0  0
    0.8675    2.3052   -1.2849 O   0  0  0  0  0  0  0  0  0  0  0  0
    1.9815    1.6244   -1.8696 C   0  0  0  0  0  0  0  0  0  0  0  0
    2.3824    0.4922   -1.0750 N   0  0  0  0  0  0  0  0  0  0  0  0
    2.8483   -0.6670   -1.6299 C   0  0  0  0  0  0  0  0  0  0  0  0
    2.9818   -0.9605   -2.8023 O   0  0  0  0  0  0  0  0  0  0  0  0
    3.2614   -1.5221   -0.5190 C   0  0  0  0  0  0  0  0  0  0  0  0
    3.7570   -2.8110   -0.5146 C   0  0  0  0  0  0  0  0  0  0  0  0
    4.0911   -3.3621    0.7269 C   0  0  0  0  0  0  0  0  0  0  0  0
    3.9296   -2.6195    1.9156 C   0  0  0  0  0  0  0  0  0  0  0  0
    3.4323   -1.3126    1.8834 C   0  0  0  0  0  0  0  0  0  0  0  0
    3.1054   -0.7930    0.6458 C   0  0  0  0  0  0  0  0  0  0  0  0
    2.5861    0.5226    0.2751 C   0  0  0  0  0  0  0  0  0  0  0  0
    2.4116    1.4296    1.0655 O   0  0  0  0  0  0  0  0  0  0  0  0
   -0.9437    2.8949    0.2545 H   0  0  0  0  0  0  0  0  0  0  0  0
   -1.7043    3.2639   -1.2960 H   0  0  0  0  0  0  0  0  0  0  0  0
   -3.7171    2.0078   -2.0239 H   0  0  0  0  0  0  0  0  0  0  0  0
   -5.6430    0.6255   -1.3449 H   0  0  0  0  0  0  0  0  0  0  0  0
   -5.6259   -0.5765    0.8120 H   0  0  0  0  0  0  0  0  0  0  0  0
   -1.6993    0.9955    1.6508 H   0  0  0  0  0  0  0  0  0  0  0  0
    2.8189    2.3306   -1.8851 H   0  0  0  0  0  0  0  0  0  0  0  0
    1.7669    1.3366   -2.9057 H   0  0  0  0  0  0  0  0  0  0  0  0
    3.8822   -3.3673   -1.4376 H   0  0  0  0  0  0  0  0  0  0  0  0
    4.4821   -4.3769    0.7786 H   0  0  0  0  0  0  0  0  0  0  0  0
    4.1969   -3.0716    2.8696 H   0  0  0  0  0  0  0  0  0  0  0  0
    3.3044   -0.7309    2.7895 H   0  0  0  0  0  0  0  0  0  0  0  0
  1  2  2  0
  2  3  1  0
  3  4  1  0
  4  5  2  0
  5  6  1  0
  6  7  2  0
  7  8  1  0
  8  9  1  0
  9 10  1  0
  9 11  1  0
  9 12  1  0
  8 13  2  0
  2 14  1  0
 14 15  1  0
 15 16  1  0
 16 17  1  0
 17 18  2  0
 17 19  1  0
 19 20  2  0
 20 21  1  0
 21 22  2  0
 22 23  1  0
 23 24  2  0
 24 25  1  0
 25 26  2  0
 13  4  1  0
 25 16  1  0
 24 19  1  0
  3 27  1  0
  3 28  1  0
  5 29  1  0
  6 30  1  0
  7 31  1  0
 13 32  1  0
 15 33  1  0
 15 34  1  0
 20 35  1  0
 21 36  1  0
 22 37  1  0
 23 38  1  0
M  END
$$$$
