
     RDKit          3D

 53 56  0  0  0  0  0  0  0  0999 V2000
    6.9379   -1.5063    2.1236 C   0  0  0  0  0  0  0  0  0  0  0  0
    5.8866   -1.0333    1.1653 C   0  0  0  0  0  0  0  0  0  0  0  0
    4.6658   -1.6749    1.0968 C   0  0  0  0  0  0  0  0  0  0  0  0
    3.7217   -1.1896    0.1931 C   0  0  0  0  0  0  0  0  0  0  0  0
    2.4045   -1.8663    0.1971 C   0  0  0  0  0  0  0  0  0  0  0  0
    2.3722   -3.0671   -0.0333 O   0  0  0  0  0  0  0  0  0  0  0  0
    1.3492   -1.0351    0.5226 N   0  0  0  0  0  0  0  0  0  0  0  0
   -0.0133   -1.3826    0.6221 C   0  0  0  0  0  0  0  0  0  0  0  0
   -0.5108   -2.6617    0.3850 C   0  0  0  0  0  0  0  0  0  0  0  0
   -1.8790   -2.9306    0.5142 C   0  0  0  0  0  0  0  0  0  0  0  0
   -2.7893   -1.9250    0.8708 C   0  0  0  0  0  0  0  0  0  0  0  0
   -4.2398   -2.2875    1.0235 C   0  0  0  0  0  0  0  0  0  0  0  0
   -2.2829   -0.6340    1.0996 C   0  0  0  0  0  0  0  0  0  0  0  0
   -3.3444    0.7249    1.5565 S   0  0  0  0  0  6  0  0  0  0  0  0
   -2.5282    1.9120    1.7149 O   0  0  0  0  0  0  0  0  0  0  0  0
   -4.2092    0.2802    2.6270 O   0  0  0  0  0  0  0  0  0  0  0  0
   -4.2925    0.9669    0.1586 N   0  0  0  0  0  0  0  0  0  0  0  0
   -3.5263    1.2752   -1.0938 C   0  0  0  0  0  0  0  0  0  0  0  0
   -4.4426    1.9226   -2.1366 C   0  0  0  0  0  0  0  0  0  0  0  0
   -4.9700    3.1855   -1.7092 O   0  0  0  0  0  0  0  0  0  0  0  0
   -5.1522    3.2721   -0.2879 C   0  0  0  0  0  0  0  0  0  0  0  0
   -5.4382    1.9168    0.3645 C   0  0  0  0  0  0  0  0  0  0  0  0
   -0.9068   -0.3700    0.9814 C   0  0  0  0  0  0  0  0  0  0  0  0
    4.0146   -0.1046   -0.6628 C   0  0  0  0  0  0  0  0  0  0  0  0
    3.1440    0.4065   -1.6604 C   0  0  0  0  0  0  0  0  0  0  0  0
    3.5159    1.4915   -2.4517 C   0  0  0  0  0  0  0  0  0  0  0  0
    4.7603    2.0756   -2.2665 C   0  0  0  0  0  0  0  0  0  0  0  0
    5.6283    1.5628   -1.2998 C   0  0  0  0  0  0  0  0  0  0  0  0
    5.2846    0.4805   -0.5008 C   0  0  0  0  0  0  0  0  0  0  0  0
    6.1853    0.0364    0.3933 N   0  0  0  0  0  0  0  0  0  0  0  0
    7.8421   -0.8944    2.0432 H   0  0  0  0  0  0  0  0  0  0  0  0
    6.5702   -1.4379    3.1521 H   0  0  0  0  0  0  0  0  0  0  0  0
    7.2086   -2.5442    1.9061 H   0  0  0  0  0  0  0  0  0  0  0  0
    4.4428   -2.5272    1.7316 H   0  0  0  0  0  0  0  0  0  0  0  0
    1.5826   -0.0735    0.7456 H   0  0  0  0  0  0  0  0  0  0  0  0
    0.1407   -3.4848    0.1057 H   0  0  0  0  0  0  0  0  0  0  0  0
   -2.2240   -3.9484    0.3358 H   0  0  0  0  0  0  0  0  0  0  0  0
   -4.5287   -2.2677    2.0783 H   0  0  0  0  0  0  0  0  0  0  0  0
   -4.8810   -1.6152    0.4482 H   0  0  0  0  0  0  0  0  0  0  0  0
   -4.4367   -3.2988    0.6504 H   0  0  0  0  0  0  0  0  0  0  0  0
   -2.6988    1.9579   -0.8722 H   0  0  0  0  0  0  0  0  0  0  0  0
   -3.1217    0.3424   -1.4988 H   0  0  0  0  0  0  0  0  0  0  0  0
   -5.2878    1.2655   -2.3727 H   0  0  0  0  0  0  0  0  0  0  0  0
   -3.8930    2.0956   -3.0672 H   0  0  0  0  0  0  0  0  0  0  0  0
   -5.9839    3.9605   -0.1080 H   0  0  0  0  0  0  0  0  0  0  0  0
   -4.2516    3.7278    0.1391 H   0  0  0  0  0  0  0  0  0  0  0  0
   -6.3236    1.4555   -0.0890 H   0  0  0  0  0  0  0  0  0  0  0  0
   -5.6582    2.0547    1.4276 H   0  0  0  0  0  0  0  0  0  0  0  0
   -0.5347    0.6337    1.1763 H   0  0  0  0  0  0  0  0  0  0  0  0
    2.1743   -0.0522   -1.8442 H   0  0  0  0  0  0  0  0  0  0  0  0
    2.8409    1.8714   -3.2146 H   0  0  0  0  0  0  0  0  0  0  0  0
    5.0676    2.9207   -2.8773 H   0  0  0  0  0  0  0  0  0  0  0  0
    6.6084    2.0175   -1.1703 H   0  0  0  0  0  0  0  0  0  0  0  0
  1  2  1  0
  2  3  2  0
  3  4  1  0
  4  5  1  0
  5  6  2  0
  5  7  1  0
  7  8  1  0
  8  9  2  0
  9 10  1  0
 10 11  2  0
 11 12  1  0
 11 13  1  0
 13 14  1  0
 14 15  2  0
 14 16  2  0
 14 17  1  0
 17 18  1  0
 18 19  1  0
 19 20  1  0
 20 21  1  0
 21 22  1  0
 13 23  2  0
  4 24  2  0
 24 25  1  0
 25 26  2  0
 26 27  1  0
 27 28  2  0
 28 29  1  0
 29 30  2  0
 30  2  1  0
 23  8  1  0
 29 24  1  0
 22 17  1  0
  1 31  1  0
  1 32  1  0
  1 33  1  0
  3 34  1  0
  7 35  1  0
  9 36  1  0
 10 37  1  0
 12 38  1  0
 12 39  1  0
 12 40  1  0
 18 41  1  0
 18 42  1  0
 19 43  1  0
 19 44  1  0
 21 45  1  0
 21 46  1  0
 22 47  1  0
 22 48  1  0
 23 49  1  0
 25 50  1  0
 26 51  1  0
 27 52  1  0
 28 53  1  0
M  END
$$$$
