
     RDKit          3D

 39 40  0  0  0  0  0  0  0  0999 V2000
    1.0356    2.8890    2.6260 C   0  0  0  0  0  0  0  0  0  0  0  0
    0.4174    1.6578    3.2720 C   0  0  0  0  0  0  0  0  0  0  0  0
    0.1464    0.4536    2.3527 C   0  0  0  0  0  0  0  0  0  0  0  0
    1.6550   -0.3240    1.6660 S   0  0  0  0  0  0  0  0  0  0  0  0
    2.0852    0.6752    0.3281 C   0  0  0  0  0  0  0  0  0  0  0  0
    1.3410    1.5750   -0.2680 N   0  0  0  0  0  0  0  0  0  0  0  0
    2.0823    2.1272   -1.2884 N   0  0  0  0  0  0  0  0  0  0  0  0
    3.2562    1.5397   -1.2879 C   0  0  0  0  0  0  0  0  0  0  0  0
    3.3024    0.6150   -0.2884 N   0  0  0  0  0  0  0  0  0  0  0  0
    4.4234   -0.2277    0.0278 C   0  0  0  0  0  0  0  0  0  0  0  0
   -0.9896    0.6727    1.3379 C   0  0  0  0  0  0  0  0  0  0  0  0
   -1.7418    1.6414    1.4257 O   0  0  0  0  0  0  0  0  0  0  0  0
   -1.1443   -0.3799    0.4538 N   0  0  0  0  0  0  0  0  0  0  0  0
   -2.1034   -0.5474   -0.5675 C   0  0  0  0  0  0  0  0  0  0  0  0
   -3.1332    0.3610   -0.8179 C   0  0  0  0  0  0  0  0  0  0  0  0
   -4.0462    0.1235   -1.8475 C   0  0  0  0  0  0  0  0  0  0  0  0
   -3.9359   -1.0222   -2.6307 C   0  0  0  0  0  0  0  0  0  0  0  0
   -2.9100   -1.9385   -2.3912 C   0  0  0  0  0  0  0  0  0  0  0  0
   -1.9893   -1.7085   -1.3639 C   0  0  0  0  0  0  0  0  0  0  0  0
   -0.9438   -2.5460   -1.0419 O   0  0  0  0  0  0  0  0  0  0  0  0
   -0.7595   -3.6903   -1.8657 C   0  0  0  0  0  0  0  0  0  0  0  0
    2.0646    2.7051    2.3063 H   0  0  0  0  0  0  0  0  0  0  0  0
    0.4517    3.2325    1.7678 H   0  0  0  0  0  0  0  0  0  0  0  0
    1.0681    3.7088    3.3518 H   0  0  0  0  0  0  0  0  0  0  0  0
   -0.5308    1.9646    3.7328 H   0  0  0  0  0  0  0  0  0  0  0  0
    1.0616    1.3412    4.1025 H   0  0  0  0  0  0  0  0  0  0  0  0
   -0.2562   -0.3232    3.0187 H   0  0  0  0  0  0  0  0  0  0  0  0
    4.0710    1.7452   -1.9676 H   0  0  0  0  0  0  0  0  0  0  0  0
    4.7419   -0.0214    1.0528 H   0  0  0  0  0  0  0  0  0  0  0  0
    4.1213   -1.2722   -0.0825 H   0  0  0  0  0  0  0  0  0  0  0  0
    5.2472   -0.0131   -0.6584 H   0  0  0  0  0  0  0  0  0  0  0  0
   -0.4326   -1.1044    0.4658 H   0  0  0  0  0  0  0  0  0  0  0  0
   -3.2472    1.2679   -0.2331 H   0  0  0  0  0  0  0  0  0  0  0  0
   -4.8415    0.8404   -2.0360 H   0  0  0  0  0  0  0  0  0  0  0  0
   -4.6491   -1.2006   -3.4314 H   0  0  0  0  0  0  0  0  0  0  0  0
   -2.8593   -2.8178   -3.0235 H   0  0  0  0  0  0  0  0  0  0  0  0
    0.1220   -4.2255   -1.4997 H   0  0  0  0  0  0  0  0  0  0  0  0
   -0.5660   -3.4038   -2.9047 H   0  0  0  0  0  0  0  0  0  0  0  0
   -1.6146   -4.3702   -1.7927 H   0  0  0  0  0  0  0  0  0  0  0  0
  1  2  1  0
  2  3  1  0
  3  4  1  0
  4  5  1  0
  5  6  2  0
  6  7  1  0
  7  8  2  0
  8  9  1  0
  9 10  1  0
  3 11  1  0
 11 12  2  0
 11 13  1  0
 13 14  1  0
 14 15  2  0
 15 16  1  0
 16 17  2  0
 17 18  1  0
 18 19  2  0
 19 20  1  0
 20 21  1  0
  9  5  1  0
 19 14  1  0
  1 22  1  0
  1 23  1  0
  1 24  1  0
  2 25  1  0
  2 26  1  0
  3 27  1  0
  8 28  1  0
 10 29  1  0
 10 30  1  0
 10 31  1  0
 13 32  1  0
 15 33  1  0
 16 34  1  0
 17 35  1  0
 18 36  1  0
 21 37  1  0
 21 38  1  0
 21 39  1  0
M  END
$$$$
