
     RDKit          3D

 57 60  0  0  0  0  0  0  0  0999 V2000
    2.6669    1.0466    2.9473 O   0  0  0  0  0  0  0  0  0  0  0  0
    2.9872    1.5015    1.6128 S   0  0  0  0  0  6  0  0  0  0  0  0
    2.9205    2.8982    1.2464 O   0  0  0  0  0  0  0  0  0  0  0  0
    4.5246    0.9303    1.2733 N   0  0  0  0  0  0  0  0  0  0  0  0
    5.2690    1.4724    0.1299 C   0  0  0  0  0  0  0  0  0  0  0  0
    6.1706    2.6180    0.5863 C   0  0  0  0  0  0  0  0  0  0  0  0
    7.4578    1.9285    1.0120 C   0  0  0  0  0  0  0  0  0  0  0  0
    7.6385    0.8507   -0.0429 C   0  0  0  0  0  0  0  0  0  0  0  0
    6.2237    0.3941   -0.4013 C   0  0  0  0  0  0  0  0  0  0  0  0
    1.9901    0.5652    0.4788 C   0  0  0  0  0  0  0  0  0  0  0  0
    1.6730   -0.7635    0.7832 C   0  0  0  0  0  0  0  0  0  0  0  0
    0.8723   -1.4982   -0.0925 C   0  0  0  0  0  0  0  0  0  0  0  0
    0.3750   -0.8890   -1.2511 C   0  0  0  0  0  0  0  0  0  0  0  0
   -0.6249   -1.8347   -2.3873 S   0  0  0  0  0  6  0  0  0  0  0  0
   -0.3240   -3.2327   -2.1623 O   0  0  0  0  0  0  0  0  0  0  0  0
   -0.4691   -1.2351   -3.6956 O   0  0  0  0  0  0  0  0  0  0  0  0
   -2.2033   -1.5447   -1.8598 N   0  0  0  0  0  0  0  0  0  0  0  0
   -2.7788   -0.1943   -2.1323 C   0  0  0  0  0  0  0  0  0  0  0  0
   -4.2025   -0.0642   -1.5595 C   0  0  0  0  0  0  0  0  0  0  0  0
   -4.2269   -0.2847   -0.0897 N   0  0  0  0  0  0  0  0  0  0  0  0
   -5.5235   -0.4959    0.4012 C   0  0  0  0  0  0  0  0  0  0  0  0
   -5.9439   -1.6939    0.9957 C   0  0  0  0  0  0  0  0  0  0  0  0
   -7.2541   -1.8554    1.4634 C   0  0  0  0  0  0  0  0  0  0  0  0
   -8.1728   -0.8171    1.3474 C   0  0  0  0  0  0  0  0  0  0  0  0
   -7.7819    0.3816    0.7624 C   0  0  0  0  0  0  0  0  0  0  0  0
   -6.4727    0.5355    0.2954 C   0  0  0  0  0  0  0  0  0  0  0  0
   -3.1059   -1.0873    0.4401 C   0  0  0  0  0  0  0  0  0  0  0  0
   -2.6394   -2.1527   -0.5658 C   0  0  0  0  0  0  0  0  0  0  0  0
    0.7093    0.4345   -1.5632 C   0  0  0  0  0  0  0  0  0  0  0  0
    1.5086    1.1700   -0.6870 C   0  0  0  0  0  0  0  0  0  0  0  0
    5.0350    0.6220    2.0994 H   0  0  0  0  0  0  0  0  0  0  0  0
    4.5784    1.7899   -0.6576 H   0  0  0  0  0  0  0  0  0  0  0  0
    6.3769    3.2844   -0.2603 H   0  0  0  0  0  0  0  0  0  0  0  0
    5.7456    3.2192    1.3950 H   0  0  0  0  0  0  0  0  0  0  0  0
    8.3061    2.6185    1.0488 H   0  0  0  0  0  0  0  0  0  0  0  0
    7.3424    1.4753    2.0032 H   0  0  0  0  0  0  0  0  0  0  0  0
    8.1249    1.2756   -0.9305 H   0  0  0  0  0  0  0  0  0  0  0  0
    8.2620    0.0244    0.3129 H   0  0  0  0  0  0  0  0  0  0  0  0
    6.1328    0.2990   -1.4899 H   0  0  0  0  0  0  0  0  0  0  0  0
    6.0138   -0.5939    0.0260 H   0  0  0  0  0  0  0  0  0  0  0  0
    2.0524   -1.2280    1.6916 H   0  0  0  0  0  0  0  0  0  0  0  0
    0.6475   -2.5392    0.1307 H   0  0  0  0  0  0  0  0  0  0  0  0
   -2.1440    0.5797   -1.6897 H   0  0  0  0  0  0  0  0  0  0  0  0
   -2.8207   -0.0349   -3.2148 H   0  0  0  0  0  0  0  0  0  0  0  0
   -4.8501   -0.7968   -2.0611 H   0  0  0  0  0  0  0  0  0  0  0  0
   -4.5798    0.9386   -1.7917 H   0  0  0  0  0  0  0  0  0  0  0  0
   -5.2728   -2.5419    1.0869 H   0  0  0  0  0  0  0  0  0  0  0  0
   -7.5543   -2.7973    1.9152 H   0  0  0  0  0  0  0  0  0  0  0  0
   -9.1887   -0.9416    1.7127 H   0  0  0  0  0  0  0  0  0  0  0  0
   -8.4889    1.2021    0.6732 H   0  0  0  0  0  0  0  0  0  0  0  0
   -6.1852    1.4913   -0.1355 H   0  0  0  0  0  0  0  0  0  0  0  0
   -3.3339   -1.5422    1.4101 H   0  0  0  0  0  0  0  0  0  0  0  0
   -2.2752   -0.3969    0.6349 H   0  0  0  0  0  0  0  0  0  0  0  0
   -1.8378   -2.7434   -0.1136 H   0  0  0  0  0  0  0  0  0  0  0  0
   -3.4570   -2.8481   -0.7896 H   0  0  0  0  0  0  0  0  0  0  0  0
    0.3519    0.8969   -2.4815 H   0  0  0  0  0  0  0  0  0  0  0  0
    1.7553    2.2039   -0.9205 H   0  0  0  0  0  0  0  0  0  0  0  0
  1  2  2  0
  2  3  2  0
  2  4  1  0
  4  5  1  0
  5  6  1  0
  6  7  1  0
  7  8  1  0
  8  9  1  0
  2 10  1  0
 10 11  2  0
 11 12  1  0
 12 13  2  0
 13 14  1  0
 14 15  2  0
 14 16  2  0
 14 17  1  0
 17 18  1  0
 18 19  1  0
 19 20  1  0
 20 21  1  0
 21 22  2  0
 22 23  1  0
 23 24  2  0
 24 25  1  0
 25 26  2  0
 20 27  1  0
 27 28  1  0
 13 29  1  0
 29 30  2  0
  9  5  1  0
 30 10  1  0
 28 17  1  0
 26 21  1  0
  4 31  1  0
  5 32  1  0
  6 33  1  0
  6 34  1  0
  7 35  1  0
  7 36  1  0
  8 37  1  0
  8 38  1  0
  9 39  1  0
  9 40  1  0
 11 41  1  0
 12 42  1  0
 18 43  1  0
 18 44  1  0
 19 45  1  0
 19 46  1  0
 22 47  1  0
 23 48  1  0
 24 49  1  0
 25 50  1  0
 26 51  1  0
 27 52  1  0
 27 53  1  0
 28 54  1  0
 28 55  1  0
 29 56  1  0
 30 57  1  0
M  END
$$$$
