
     RDKit          3D

 59 62  0  0  0  0  0  0  0  0999 V2000
    6.0726    2.8965    0.8202 C   0  0  0  0  0  0  0  0  0  0  0  0
    5.4077    2.5724   -0.4028 O   0  0  0  0  0  0  0  0  0  0  0  0
    4.8351    1.3289   -0.3192 C   0  0  0  0  0  0  0  0  0  0  0  0
    3.4476    1.2687   -0.1985 C   0  0  0  0  0  0  0  0  0  0  0  0
    2.7991    0.0313   -0.1259 C   0  0  0  0  0  0  0  0  0  0  0  0
    1.3911    0.0538   -0.0034 N   0  0  0  0  0  0  0  0  0  0  0  0
    0.5483   -1.0279    0.1843 C   0  0  0  0  0  0  0  0  0  0  0  0
    0.8800   -2.1936    0.3599 O   0  0  0  0  0  0  0  0  0  0  0  0
   -0.8959   -0.6969    0.2110 C   0  0  0  0  0  0  0  0  0  0  0  0
   -1.4536    0.2878   -0.6181 C   0  0  0  0  0  0  0  0  0  0  0  0
   -2.8230    0.5586   -0.5519 C   0  0  0  0  0  0  0  0  0  0  0  0
   -3.4614    1.5903   -1.4011 C   0  0  0  0  0  0  0  0  0  0  0  0
   -4.7730    1.4104   -1.8815 C   0  0  0  0  0  0  0  0  0  0  0  0
   -5.3966    2.3715   -2.6829 C   0  0  0  0  0  0  0  0  0  0  0  0
   -4.7210    3.5401   -3.0213 C   0  0  0  0  0  0  0  0  0  0  0  0
   -3.4261    3.7490   -2.5549 C   0  0  0  0  0  0  0  0  0  0  0  0
   -2.8047    2.7858   -1.7521 C   0  0  0  0  0  0  0  0  0  0  0  0
   -3.6711   -0.0995    0.2752 N   0  0  0  0  0  0  0  0  0  0  0  0
   -3.0987   -1.0503    1.0365 C   0  0  0  0  0  0  0  0  0  0  0  0
   -1.7595   -1.4025    1.0589 C   0  0  0  0  0  0  0  0  0  0  0  0
   -1.6867   -2.4403    2.0113 C   0  0  0  0  0  0  0  0  0  0  0  0
   -2.8715   -2.7239    2.5626 N   0  0  0  0  0  0  0  0  0  0  0  0
   -3.7218   -1.8683    1.9461 N   0  0  0  0  0  0  0  0  0  0  0  0
   -5.1391   -1.9013    2.2876 C   0  0  0  0  0  0  0  0  0  0  0  0
   -6.0047   -2.3116    1.0968 C   0  0  0  0  0  0  0  0  0  0  0  0
   -5.6135   -0.5844    2.9023 C   0  0  0  0  0  0  0  0  0  0  0  0
    3.5589   -1.1438   -0.1920 C   0  0  0  0  0  0  0  0  0  0  0  0
    4.9530   -1.0942   -0.3346 C   0  0  0  0  0  0  0  0  0  0  0  0
    5.7705   -2.1927   -0.4163 O   0  0  0  0  0  0  0  0  0  0  0  0
    5.1922   -3.4582   -0.1210 C   0  0  0  0  0  0  0  0  0  0  0  0
    5.5843    0.1544   -0.4274 C   0  0  0  0  0  0  0  0  0  0  0  0
    6.9487    0.2286   -0.5699 O   0  0  0  0  0  0  0  0  0  0  0  0
    7.2880    0.2215   -1.9564 C   0  0  0  0  0  0  0  0  0  0  0  0
    5.3725    2.8728    1.6630 H   0  0  0  0  0  0  0  0  0  0  0  0
    6.4539    3.9183    0.7294 H   0  0  0  0  0  0  0  0  0  0  0  0
    6.9256    2.2373    1.0127 H   0  0  0  0  0  0  0  0  0  0  0  0
    2.8908    2.2000   -0.1535 H   0  0  0  0  0  0  0  0  0  0  0  0
    0.9741    0.9758    0.0224 H   0  0  0  0  0  0  0  0  0  0  0  0
   -0.8333    0.8061   -1.3425 H   0  0  0  0  0  0  0  0  0  0  0  0
   -5.3233    0.5043   -1.6294 H   0  0  0  0  0  0  0  0  0  0  0  0
   -6.4117    2.2049   -3.0363 H   0  0  0  0  0  0  0  0  0  0  0  0
   -5.2061    4.2900   -3.6408 H   0  0  0  0  0  0  0  0  0  0  0  0
   -2.9010    4.6670   -2.8080 H   0  0  0  0  0  0  0  0  0  0  0  0
   -1.8021    2.9977   -1.3881 H   0  0  0  0  0  0  0  0  0  0  0  0
   -0.8143   -3.0004    2.3250 H   0  0  0  0  0  0  0  0  0  0  0  0
   -5.2461   -2.6790    3.0561 H   0  0  0  0  0  0  0  0  0  0  0  0
   -5.6498   -3.2517    0.6595 H   0  0  0  0  0  0  0  0  0  0  0  0
   -7.0445   -2.4560    1.4092 H   0  0  0  0  0  0  0  0  0  0  0  0
   -5.9974   -1.5539    0.3060 H   0  0  0  0  0  0  0  0  0  0  0  0
   -6.6421   -0.6792    3.2665 H   0  0  0  0  0  0  0  0  0  0  0  0
   -4.9807   -0.2968    3.7493 H   0  0  0  0  0  0  0  0  0  0  0  0
   -5.5928    0.2364    2.1767 H   0  0  0  0  0  0  0  0  0  0  0  0
    3.0626   -2.1043   -0.1480 H   0  0  0  0  0  0  0  0  0  0  0  0
    5.9950   -4.2029   -0.1344 H   0  0  0  0  0  0  0  0  0  0  0  0
    4.4643   -3.7447   -0.8871 H   0  0  0  0  0  0  0  0  0  0  0  0
    4.7438   -3.4694    0.8783 H   0  0  0  0  0  0  0  0  0  0  0  0
    8.3767    0.2924   -2.0343 H   0  0  0  0  0  0  0  0  0  0  0  0
    6.8559    1.0848   -2.4756 H   0  0  0  0  0  0  0  0  0  0  0  0
    6.9750   -0.7098   -2.4415 H   0  0  0  0  0  0  0  0  0  0  0  0
  1  2  1  0
  2  3  1  0
  3  4  2  0
  4  5  1  0
  5  6  1  0
  6  7  1  0
  7  8  2  0
  7  9  1  0
  9 10  2  0
 10 11  1  0
 11 12  1  0
 12 13  2  0
 13 14  1  0
 14 15  2  0
 15 16  1  0
 16 17  2  0
 11 18  2  0
 18 19  1  0
 19 20  2  0
 20 21  1  0
 21 22  2  0
 22 23  1  0
 23 24  1  0
 24 25  1  0
 24 26  1  0
  5 27  2  0
 27 28  1  0
 28 29  1  0
 29 30  1  0
 28 31  2  0
 31 32  1  0
 32 33  1  0
 31  3  1  0
 20  9  1  0
 17 12  1  0
 23 19  1  0
  1 34  1  0
  1 35  1  0
  1 36  1  0
  4 37  1  0
  6 38  1  0
 10 39  1  0
 13 40  1  0
 14 41  1  0
 15 42  1  0
 16 43  1  0
 17 44  1  0
 21 45  1  0
 24 46  1  0
 25 47  1  0
 25 48  1  0
 25 49  1  0
 26 50  1  0
 26 51  1  0
 26 52  1  0
 27 53  1  0
 30 54  1  0
 30 55  1  0
 30 56  1  0
 33 57  1  0
 33 58  1  0
 33 59  1  0
M  END
$$$$
