
     RDKit          3D

 35 37  0  0  0  0  0  0  0  0999 V2000
    1.0154    2.4193   -1.6458 O   0  0  0  0  0  0  0  0  0  0  0  0
    1.8473    1.5559   -1.0753 C   0  0  0  0  0  0  0  0  0  0  0  0
    3.1913    1.6584   -1.2870 N   0  0  0  0  0  0  0  0  0  0  0  0
    3.8592    0.6679   -0.6058 C   0  0  0  0  0  0  0  0  0  0  0  0
    5.2292    0.3896   -0.5341 C   0  0  0  0  0  0  0  0  0  0  0  0
    5.6296   -0.6962    0.2493 C   0  0  0  0  0  0  0  0  0  0  0  0
    4.6957   -1.4705    0.9330 C   0  0  0  0  0  0  0  0  0  0  0  0
    3.3287   -1.1790    0.8510 C   0  0  0  0  0  0  0  0  0  0  0  0
    2.8957   -0.0887    0.0664 C   0  0  0  0  0  0  0  0  0  0  0  0
    1.6182    0.4810   -0.2374 C   0  0  0  0  0  0  0  0  0  0  0  0
    0.3173    0.0446    0.2211 C   0  0  0  0  0  0  0  0  0  0  0  0
   -0.7286    0.7033   -0.1732 N   0  0  0  0  0  0  0  0  0  0  0  0
   -1.9588    0.2568    0.2469 N   0  0  0  0  0  0  0  0  0  0  0  0
   -3.0675    1.1870    0.0375 C   0  0  0  0  0  0  0  0  0  0  0  0
   -4.2723    0.7841    0.8776 C   0  0  0  0  0  0  0  0  0  0  0  0
   -4.7340   -0.6473    0.5867 C   0  0  0  0  0  0  0  0  0  0  0  0
   -3.6960   -1.4744   -0.1708 C   0  0  0  0  0  0  0  0  0  0  0  0
   -2.2745   -1.1760    0.2966 C   0  0  0  0  0  0  0  0  0  0  0  0
    0.1167    2.1485   -1.3482 H   0  0  0  0  0  0  0  0  0  0  0  0
    3.6201    2.3657   -1.8650 H   0  0  0  0  0  0  0  0  0  0  0  0
    5.9594    0.9924   -1.0644 H   0  0  0  0  0  0  0  0  0  0  0  0
    6.6874   -0.9375    0.3266 H   0  0  0  0  0  0  0  0  0  0  0  0
    5.0306   -2.3091    1.5390 H   0  0  0  0  0  0  0  0  0  0  0  0
    2.6150   -1.7927    1.3927 H   0  0  0  0  0  0  0  0  0  0  0  0
    0.2712   -0.8236    0.8992 H   0  0  0  0  0  0  0  0  0  0  0  0
   -2.7335    2.1924    0.3172 H   0  0  0  0  0  0  0  0  0  0  0  0
   -3.3147    1.1924   -1.0304 H   0  0  0  0  0  0  0  0  0  0  0  0
   -5.1001    1.4839    0.7153 H   0  0  0  0  0  0  0  0  0  0  0  0
   -4.0053    0.8566    1.9404 H   0  0  0  0  0  0  0  0  0  0  0  0
   -5.6660   -0.6279    0.0081 H   0  0  0  0  0  0  0  0  0  0  0  0
   -4.9760   -1.1399    1.5368 H   0  0  0  0  0  0  0  0  0  0  0  0
   -3.7753   -1.2484   -1.2420 H   0  0  0  0  0  0  0  0  0  0  0  0
   -3.9157   -2.5420   -0.0593 H   0  0  0  0  0  0  0  0  0  0  0  0
   -1.5678   -1.7302   -0.3304 H   0  0  0  0  0  0  0  0  0  0  0  0
   -2.1420   -1.4966    1.3359 H   0  0  0  0  0  0  0  0  0  0  0  0
  1  2  1  0
  2  3  1  0
  3  4  1  0
  4  5  2  0
  5  6  1  0
  6  7  2  0
  7  8  1  0
  8  9  2  0
  9 10  1  0
 10 11  1  0
 11 12  2  3
 12 13  1  0
 13 14  1  0
 14 15  1  0
 15 16  1  0
 16 17  1  0
 17 18  1  0
 10  2  2  0
 18 13  1  0
  9  4  1  0
  1 19  1  0
  3 20  1  0
  5 21  1  0
  6 22  1  0
  7 23  1  0
  8 24  1  0
 11 25  1  0
 14 26  1  0
 14 27  1  0
 15 28  1  0
 15 29  1  0
 16 30  1  0
 16 31  1  0
 17 32  1  0
 17 33  1  0
 18 34  1  0
 18 35  1  0
M  END
$$$$
