
     RDKit          3D

 47 49  0  0  0  0  0  0  0  0999 V2000
   -0.1965    3.6820   -2.4999 C   0  0  0  0  0  0  0  0  0  0  0  0
   -0.9525    3.4186   -1.3163 O   0  0  0  0  0  0  0  0  0  0  0  0
   -0.2156    2.9811   -0.2623 C   0  0  0  0  0  0  0  0  0  0  0  0
    1.0054    2.8621   -0.2529 O   0  0  0  0  0  0  0  0  0  0  0  0
   -1.1092    2.6050    0.9058 C   0  0  0  0  0  0  0  0  0  0  0  0
   -1.3651    1.1701    0.9923 N   0  0  0  0  0  0  0  0  0  0  0  0
   -0.4802    0.2111    1.4792 C   0  0  0  0  0  0  0  0  0  0  0  0
    0.9207    0.4671    1.9263 C   0  0  0  0  0  0  0  0  0  0  0  0
    1.9304   -0.1883    0.9771 C   0  0  0  0  0  0  0  0  0  0  0  0
    2.0888   -1.4068    0.9540 O   0  0  0  0  0  0  0  0  0  0  0  0
    2.6177    0.7246    0.1936 N   0  0  0  0  0  0  0  0  0  0  0  0
    3.6918    0.4682   -0.6842 C   0  0  0  0  0  0  0  0  0  0  0  0
    4.2369   -0.8018   -0.9085 C   0  0  0  0  0  0  0  0  0  0  0  0
    5.3252   -0.9660   -1.7714 C   0  0  0  0  0  0  0  0  0  0  0  0
    5.8873    0.1435   -2.3958 C   0  0  0  0  0  0  0  0  0  0  0  0
    7.2439   -0.0554   -3.4330 Cl  0  0  0  0  0  0  0  0  0  0  0  0
    5.3543    1.4192   -2.1867 C   0  0  0  0  0  0  0  0  0  0  0  0
    4.2525    1.5773   -1.3417 C   0  0  0  0  0  0  0  0  0  0  0  0
   -1.1304   -0.9615    1.5516 C   0  0  0  0  0  0  0  0  0  0  0  0
   -0.6471   -2.0933    2.1348 O   0  0  0  0  0  0  0  0  0  0  0  0
   -2.4281   -0.8510    1.0801 N   0  0  0  0  0  0  0  0  0  0  0  0
   -3.3678   -1.9103    0.9234 C   0  0  0  0  0  0  0  0  0  0  0  0
   -4.7229   -1.7436    1.2316 C   0  0  0  0  0  0  0  0  0  0  0  0
   -5.6194   -2.8160    1.1234 C   0  0  0  0  0  0  0  0  0  0  0  0
   -5.1660   -4.0661    0.7054 C   0  0  0  0  0  0  0  0  0  0  0  0
   -6.2617   -5.3872    0.5971 Cl  0  0  0  0  0  0  0  0  0  0  0  0
   -3.8255   -4.2525    0.3878 C   0  0  0  0  0  0  0  0  0  0  0  0
   -2.9333   -3.1794    0.4960 C   0  0  0  0  0  0  0  0  0  0  0  0
   -2.6153    0.5294    0.6769 C   0  0  0  0  0  0  0  0  0  0  0  0
   -3.9246    1.2624   -0.0574 S   0  0  0  0  0  0  0  0  0  0  0  0
    0.4669    4.5372   -2.3475 H   0  0  0  0  0  0  0  0  0  0  0  0
    0.3771    2.7992   -2.7952 H   0  0  0  0  0  0  0  0  0  0  0  0
   -0.8951    3.9203   -3.3012 H   0  0  0  0  0  0  0  0  0  0  0  0
   -2.0418    3.1727    0.8439 H   0  0  0  0  0  0  0  0  0  0  0  0
   -0.6307    2.9351    1.8354 H   0  0  0  0  0  0  0  0  0  0  0  0
    1.1354    1.5305    2.0415 H   0  0  0  0  0  0  0  0  0  0  0  0
    1.0850    0.0339    2.9195 H   0  0  0  0  0  0  0  0  0  0  0  0
    2.2352    1.6697    0.1492 H   0  0  0  0  0  0  0  0  0  0  0  0
    3.8351   -1.6938   -0.4313 H   0  0  0  0  0  0  0  0  0  0  0  0
    5.7331   -1.9665   -1.9348 H   0  0  0  0  0  0  0  0  0  0  0  0
    5.7970    2.2934   -2.6649 H   0  0  0  0  0  0  0  0  0  0  0  0
    3.8508    2.5821   -1.1873 H   0  0  0  0  0  0  0  0  0  0  0  0
   -1.4118   -2.6283    2.4019 H   0  0  0  0  0  0  0  0  0  0  0  0
   -5.1035   -0.7958    1.6073 H   0  0  0  0  0  0  0  0  0  0  0  0
   -6.6652   -2.6671    1.3785 H   0  0  0  0  0  0  0  0  0  0  0  0
   -3.4658   -5.2234    0.0511 H   0  0  0  0  0  0  0  0  0  0  0  0
   -1.8956   -3.3416    0.2078 H   0  0  0  0  0  0  0  0  0  0  0  0
  1  2  1  0
  2  3  1  0
  3  4  2  0
  3  5  1  0
  5  6  1  0
  6  7  1  0
  7  8  1  0
  8  9  1  0
  9 10  2  0
  9 11  1  0
 11 12  1  0
 12 13  2  0
 13 14  1  0
 14 15  2  0
 15 16  1  0
 15 17  1  0
 17 18  2  0
  7 19  2  0
 19 20  1  0
 19 21  1  0
 21 22  1  0
 22 23  2  0
 23 24  1  0
 24 25  2  0
 25 26  1  0
 25 27  1  0
 27 28  2  0
 21 29  1  0
 29 30  2  0
 29  6  1  0
 18 12  1  0
 28 22  1  0
  1 31  1  0
  1 32  1  0
  1 33  1  0
  5 34  1  0
  5 35  1  0
  8 36  1  0
  8 37  1  0
 11 38  1  0
 13 39  1  0
 14 40  1  0
 17 41  1  0
 18 42  1  0
 20 43  1  0
 23 44  1  0
 24 45  1  0
 27 46  1  0
 28 47  1  0
M  END
$$$$
