
     RDKit          3D

 41 44  0  0  0  0  0  0  0  0999 V2000
   -4.8118   -1.5088   -2.1467 C   0  0  0  0  0  0  0  0  0  0  0  0
   -4.1252   -0.4285   -1.5280 O   0  0  0  0  0  0  0  0  0  0  0  0
   -4.6907    0.1157   -0.4021 C   0  0  0  0  0  0  0  0  0  0  0  0
   -5.9178   -0.2764    0.1426 C   0  0  0  0  0  0  0  0  0  0  0  0
   -6.4135    0.3463    1.2921 C   0  0  0  0  0  0  0  0  0  0  0  0
   -5.6909    1.3659    1.9059 C   0  0  0  0  0  0  0  0  0  0  0  0
   -4.4672    1.7669    1.3730 C   0  0  0  0  0  0  0  0  0  0  0  0
   -3.9606    1.1465    0.2227 C   0  0  0  0  0  0  0  0  0  0  0  0
   -2.6630    1.5972   -0.2983 C   0  0  0  0  0  0  0  0  0  0  0  0
   -1.4970    0.9685   -0.0973 C   0  0  0  0  0  0  0  0  0  0  0  0
   -1.2308   -0.4922    0.8387 S   0  0  0  0  0  0  0  0  0  0  0  0
    0.4374   -0.4227    0.4520 C   0  0  0  0  0  0  0  0  0  0  0  0
    1.4840   -1.1465    0.7228 N   0  0  0  0  0  0  0  0  0  0  0  0
    2.4984   -0.4385    0.0760 C   0  0  0  0  0  0  0  0  0  0  0  0
    3.8818   -0.9074    0.1047 C   0  0  0  0  0  0  0  0  0  0  0  0
    4.1219   -2.2894    0.2059 C   0  0  0  0  0  0  0  0  0  0  0  0
    5.4251   -2.7942    0.2362 C   0  0  0  0  0  0  0  0  0  0  0  0
    6.5100   -1.9236    0.1790 C   0  0  0  0  0  0  0  0  0  0  0  0
    6.2926   -0.5497    0.0909 C   0  0  0  0  0  0  0  0  0  0  0  0
    4.9872   -0.0442    0.0384 C   0  0  0  0  0  0  0  0  0  0  0  0
    4.8269    1.3187    0.0325 O   0  0  0  0  0  0  0  0  0  0  0  0
    5.0648    1.8450   -1.2741 C   0  0  0  0  0  0  0  0  0  0  0  0
    2.0696    0.6473   -0.6063 N   0  0  0  0  0  0  0  0  0  0  0  0
    0.7586    0.6314   -0.3208 N   0  0  0  0  0  0  0  0  0  0  0  0
   -0.2393    1.5010   -0.7034 C   0  0  0  0  0  0  0  0  0  0  0  0
   -0.0634    2.4873   -1.3959 O   0  0  0  0  0  0  0  0  0  0  0  0
   -5.7882   -1.1897   -2.5256 H   0  0  0  0  0  0  0  0  0  0  0  0
   -4.9088   -2.3591   -1.4637 H   0  0  0  0  0  0  0  0  0  0  0  0
   -4.2145   -1.8370   -3.0028 H   0  0  0  0  0  0  0  0  0  0  0  0
   -6.5173   -1.0632   -0.3030 H   0  0  0  0  0  0  0  0  0  0  0  0
   -7.3685    0.0336    1.7079 H   0  0  0  0  0  0  0  0  0  0  0  0
   -6.0797    1.8480    2.7994 H   0  0  0  0  0  0  0  0  0  0  0  0
   -3.9111    2.5636    1.8621 H   0  0  0  0  0  0  0  0  0  0  0  0
   -2.7066    2.5008   -0.9036 H   0  0  0  0  0  0  0  0  0  0  0  0
    3.2862   -2.9852    0.2630 H   0  0  0  0  0  0  0  0  0  0  0  0
    5.5893   -3.8660    0.3146 H   0  0  0  0  0  0  0  0  0  0  0  0
    7.5242   -2.3125    0.2182 H   0  0  0  0  0  0  0  0  0  0  0  0
    7.1397    0.1307    0.0810 H   0  0  0  0  0  0  0  0  0  0  0  0
    6.1383    1.8706   -1.4881 H   0  0  0  0  0  0  0  0  0  0  0  0
    4.6911    2.8731   -1.2940 H   0  0  0  0  0  0  0  0  0  0  0  0
    4.5386    1.2766   -2.0495 H   0  0  0  0  0  0  0  0  0  0  0  0
  1  2  1  0
  2  3  1  0
  3  4  2  0
  4  5  1  0
  5  6  2  0
  6  7  1  0
  7  8  2  0
  8  9  1  0
  9 10  2  3
 10 11  1  0
 11 12  1  0
 12 13  2  0
 13 14  1  0
 14 15  1  0
 15 16  2  0
 16 17  1  0
 17 18  2  0
 18 19  1  0
 19 20  2  0
 20 21  1  0
 21 22  1  0
 14 23  2  0
 23 24  1  0
 24 25  1  0
 25 26  2  0
  8  3  1  0
 25 10  1  0
 24 12  1  0
 20 15  1  0
  1 27  1  0
  1 28  1  0
  1 29  1  0
  4 30  1  0
  5 31  1  0
  6 32  1  0
  7 33  1  0
  9 34  1  0
 16 35  1  0
 17 36  1  0
 18 37  1  0
 19 38  1  0
 22 39  1  0
 22 40  1  0
 22 41  1  0
M  END
$$$$
