
     RDKit          3D

 52 55  0  0  0  0  0  0  0  0999 V2000
   -7.5950   -4.0071    1.0014 C   0  0  0  0  0  0  0  0  0  0  0  0
   -7.1635   -2.9281    0.1859 O   0  0  0  0  0  0  0  0  0  0  0  0
   -5.8736   -2.9686   -0.2660 C   0  0  0  0  0  0  0  0  0  0  0  0
   -4.9578   -3.9980   -0.0412 C   0  0  0  0  0  0  0  0  0  0  0  0
   -3.6608   -3.9110   -0.5626 C   0  0  0  0  0  0  0  0  0  0  0  0
   -3.2704   -2.7939   -1.3086 C   0  0  0  0  0  0  0  0  0  0  0  0
   -1.9163   -2.7101   -1.8566 C   0  0  0  0  0  0  0  0  0  0  0  0
   -0.8823   -2.0652   -1.2935 C   0  0  0  0  0  0  0  0  0  0  0  0
    0.6672   -1.9956   -2.0528 S   0  0  0  0  0  0  0  0  0  0  0  0
    1.1850   -0.7095   -0.9782 C   0  0  0  0  0  0  0  0  0  0  0  0
    2.2156    0.0999   -1.3148 C   0  0  0  0  0  0  0  0  0  0  0  0
    3.0434   -0.1305   -2.4498 C   0  0  0  0  0  0  0  0  0  0  0  0
    3.7678   -0.3108   -3.3394 N   0  0  0  0  0  0  0  0  0  0  0  0
    2.4346    1.4051   -0.6352 C   0  0  0  0  0  0  0  0  0  0  0  0
    1.5164    2.2049   -0.5026 O   0  0  0  0  0  0  0  0  0  0  0  0
    3.7289    1.6397   -0.2330 N   0  0  0  0  0  0  0  0  0  0  0  0
    4.1203    2.9148    0.3335 C   0  0  0  0  0  0  0  0  0  0  0  0
    4.7809    3.7539   -0.6998 C   0  0  0  0  0  0  0  0  0  0  0  0
    5.1396    3.5695   -2.0227 C   0  0  0  0  0  0  0  0  0  0  0  0
    5.7399    4.7812   -2.4469 C   0  0  0  0  0  0  0  0  0  0  0  0
    5.7158    5.6237   -1.3617 C   0  0  0  0  0  0  0  0  0  0  0  0
    5.1412    5.0094   -0.2970 O   0  0  0  0  0  0  0  0  0  0  0  0
    0.3407   -0.6268    0.1339 N   0  0  0  0  0  0  0  0  0  0  0  0
    0.6750   -0.0580    1.4080 C   0  0  0  0  0  0  0  0  0  0  0  0
   -0.2814    0.6298    2.1668 C   0  0  0  0  0  0  0  0  0  0  0  0
    0.0476    1.1724    3.4121 C   0  0  0  0  0  0  0  0  0  0  0  0
    1.3339    1.0221    3.9236 C   0  0  0  0  0  0  0  0  0  0  0  0
    2.2905    0.3221    3.1946 C   0  0  0  0  0  0  0  0  0  0  0  0
    1.9622   -0.2204    1.9482 C   0  0  0  0  0  0  0  0  0  0  0  0
   -0.8681   -1.3449    0.0150 C   0  0  0  0  0  0  0  0  0  0  0  0
   -1.7594   -1.4498    0.8462 O   0  0  0  0  0  0  0  0  0  0  0  0
   -4.1878   -1.7652   -1.5375 C   0  0  0  0  0  0  0  0  0  0  0  0
   -5.4816   -1.8560   -1.0179 C   0  0  0  0  0  0  0  0  0  0  0  0
   -7.5582   -4.9592    0.4589 H   0  0  0  0  0  0  0  0  0  0  0  0
   -8.6372   -3.8202    1.2803 H   0  0  0  0  0  0  0  0  0  0  0  0
   -7.0102   -4.0596    1.9254 H   0  0  0  0  0  0  0  0  0  0  0  0
   -5.2161   -4.8813    0.5385 H   0  0  0  0  0  0  0  0  0  0  0  0
   -2.9573   -4.7170   -0.3650 H   0  0  0  0  0  0  0  0  0  0  0  0
   -1.7972   -3.2134   -2.8140 H   0  0  0  0  0  0  0  0  0  0  0  0
    4.4724    0.9840   -0.4341 H   0  0  0  0  0  0  0  0  0  0  0  0
    3.2526    3.4319    0.7554 H   0  0  0  0  0  0  0  0  0  0  0  0
    4.8287    2.7010    1.1419 H   0  0  0  0  0  0  0  0  0  0  0  0
    4.9872    2.6739   -2.6193 H   0  0  0  0  0  0  0  0  0  0  0  0
    6.1386    5.0110   -3.4248 H   0  0  0  0  0  0  0  0  0  0  0  0
    6.0496    6.6412   -1.1907 H   0  0  0  0  0  0  0  0  0  0  0  0
   -1.2911    0.7773    1.7897 H   0  0  0  0  0  0  0  0  0  0  0  0
   -0.7070    1.7106    3.9803 H   0  0  0  0  0  0  0  0  0  0  0  0
    1.5834    1.4415    4.8951 H   0  0  0  0  0  0  0  0  0  0  0  0
    3.2889    0.1870    3.6019 H   0  0  0  0  0  0  0  0  0  0  0  0
    2.7188   -0.8032    1.4300 H   0  0  0  0  0  0  0  0  0  0  0  0
   -3.9068   -0.8847   -2.1105 H   0  0  0  0  0  0  0  0  0  0  0  0
   -6.1878   -1.0476   -1.1903 H   0  0  0  0  0  0  0  0  0  0  0  0
  1  2  1  0
  2  3  1  0
  3  4  2  0
  4  5  1  0
  5  6  2  0
  6  7  1  0
  7  8  2  3
  8  9  1  0
  9 10  1  0
 10 11  2  3
 11 12  1  0
 12 13  3  0
 11 14  1  0
 14 15  2  0
 14 16  1  0
 16 17  1  0
 17 18  1  0
 18 19  2  0
 19 20  1  0
 20 21  2  0
 21 22  1  0
 10 23  1  0
 23 24  1  0
 24 25  2  0
 25 26  1  0
 26 27  2  0
 27 28  1  0
 28 29  2  0
 23 30  1  0
 30 31  2  0
  6 32  1  0
 32 33  2  0
 33  3  1  0
 30  8  1  0
 22 18  1  0
 29 24  1  0
  1 34  1  0
  1 35  1  0
  1 36  1  0
  4 37  1  0
  5 38  1  0
  7 39  1  0
 16 40  1  0
 17 41  1  0
 17 42  1  0
 19 43  1  0
 20 44  1  0
 21 45  1  0
 25 46  1  0
 26 47  1  0
 27 48  1  0
 28 49  1  0
 29 50  1  0
 32 51  1  0
 33 52  1  0
M  END
$$$$
