
     RDKit          3D

 43 44  0  0  0  0  0  0  0  0999 V2000
   -2.0030   -0.3496   -2.5983 O   0  0  0  0  0  0  0  0  0  0  0  0
   -1.0069    0.3042   -2.2987 C   0  0  0  0  0  0  0  0  0  0  0  0
    0.0283    0.7083   -3.3525 C   0  0  0  0  0  0  0  0  0  0  0  0
    0.9842    1.6424   -2.8361 O   0  0  0  0  0  0  0  0  0  0  0  0
    2.1140    1.7696   -3.7057 C   0  0  0  0  0  0  0  0  0  0  0  0
    3.1681    0.6828   -3.4709 C   0  0  0  0  0  0  0  0  0  0  0  0
    3.8999    0.2820   -4.3675 O   0  0  0  0  0  0  0  0  0  0  0  0
    3.1743    0.2709   -2.1456 N   0  0  0  0  0  0  0  0  0  0  0  0
    3.9505   -0.7713   -1.7436 N   0  0  0  0  0  0  0  0  0  0  0  0
    3.8390   -1.1957   -0.5194 C   0  0  0  0  0  0  0  0  0  0  0  0
    3.0233   -0.6354    0.5764 C   0  0  0  0  0  0  0  0  0  0  0  0
    2.2346   -1.5107    1.3308 C   0  0  0  0  0  0  0  0  0  0  0  0
    1.4685   -1.0079    2.3877 C   0  0  0  0  0  0  0  0  0  0  0  0
    1.5157    0.3521    2.6898 C   0  0  0  0  0  0  0  0  0  0  0  0
    0.7917    0.8278    3.7180 F   0  0  0  0  0  0  0  0  0  0  0  0
    2.3125    1.2258    1.9508 C   0  0  0  0  0  0  0  0  0  0  0  0
    3.0809    0.7302    0.8937 C   0  0  0  0  0  0  0  0  0  0  0  0
   -0.6484    0.7317   -1.0180 N   0  0  0  0  0  0  0  0  0  0  0  0
   -1.4651    0.6672    0.0810 N   0  0  0  0  0  0  0  0  0  0  0  0
   -2.1740   -0.4059    0.2401 C   0  0  0  0  0  0  0  0  0  0  0  0
   -3.1360   -0.5457    1.3553 C   0  0  0  0  0  0  0  0  0  0  0  0
   -3.3479    0.5043    2.2591 C   0  0  0  0  0  0  0  0  0  0  0  0
   -4.2780    0.3519    3.2907 C   0  0  0  0  0  0  0  0  0  0  0  0
   -4.9882   -0.8388    3.4094 C   0  0  0  0  0  0  0  0  0  0  0  0
   -5.8869   -0.9770    4.3963 F   0  0  0  0  0  0  0  0  0  0  0  0
   -4.7828   -1.8878    2.5179 C   0  0  0  0  0  0  0  0  0  0  0  0
   -3.8505   -1.7454    1.4833 C   0  0  0  0  0  0  0  0  0  0  0  0
    0.5274   -0.2092   -3.6806 H   0  0  0  0  0  0  0  0  0  0  0  0
   -0.4999    1.1673   -4.1933 H   0  0  0  0  0  0  0  0  0  0  0  0
    2.5865    2.7345   -3.4921 H   0  0  0  0  0  0  0  0  0  0  0  0
    1.7972    1.7635   -4.7554 H   0  0  0  0  0  0  0  0  0  0  0  0
    2.3920    0.5678   -1.5664 H   0  0  0  0  0  0  0  0  0  0  0  0
    4.4153   -2.1023   -0.2582 H   0  0  0  0  0  0  0  0  0  0  0  0
    2.2008   -2.5732    1.0977 H   0  0  0  0  0  0  0  0  0  0  0  0
    0.8393   -1.6630    2.9846 H   0  0  0  0  0  0  0  0  0  0  0  0
    2.3477    2.2771    2.2218 H   0  0  0  0  0  0  0  0  0  0  0  0
    3.7521    1.3940    0.3511 H   0  0  0  0  0  0  0  0  0  0  0  0
   -0.0079    1.5253   -1.0091 H   0  0  0  0  0  0  0  0  0  0  0  0
   -2.0845   -1.2778   -0.4326 H   0  0  0  0  0  0  0  0  0  0  0  0
   -2.7971    1.4395    2.1617 H   0  0  0  0  0  0  0  0  0  0  0  0
   -4.4479    1.1522    4.0047 H   0  0  0  0  0  0  0  0  0  0  0  0
   -5.3507   -2.8069    2.6317 H   0  0  0  0  0  0  0  0  0  0  0  0
   -3.6883   -2.5689    0.7891 H   0  0  0  0  0  0  0  0  0  0  0  0
  1  2  2  0
  2  3  1  0
  3  4  1  0
  4  5  1  0
  5  6  1  0
  6  7  2  0
  6  8  1  0
  8  9  1  0
  9 10  2  3
 10 11  1  0
 11 12  2  0
 12 13  1  0
 13 14  2  0
 14 15  1  0
 14 16  1  0
 16 17  2  0
  2 18  1  0
 18 19  1  0
 19 20  2  3
 20 21  1  0
 21 22  2  0
 22 23  1  0
 23 24  2  0
 24 25  1  0
 24 26  1  0
 26 27  2  0
 17 11  1  0
 27 21  1  0
  3 28  1  0
  3 29  1  0
  5 30  1  0
  5 31  1  0
  8 32  1  0
 10 33  1  0
 12 34  1  0
 13 35  1  0
 16 36  1  0
 17 37  1  0
 18 38  1  0
 20 39  1  0
 22 40  1  0
 23 41  1  0
 26 42  1  0
 27 43  1  0
M  END
$$$$
