
     RDKit          3D

 39 42  0  0  0  0  0  0  0  0999 V2000
    1.9016    2.6036    2.8162 N   0  0  0  0  0  0  0  0  0  0  0  0
    0.7906    2.5479    2.4819 C   0  0  0  0  0  0  0  0  0  0  0  0
   -0.6167    2.5132    2.0622 C   0  0  0  0  0  0  0  0  0  0  0  0
   -1.2874    0.8361    1.8713 S   0  0  0  0  0  0  0  0  0  0  0  0
   -0.7347    0.4657    0.2397 C   0  0  0  0  0  0  0  0  0  0  0  0
    0.4697    0.8510   -0.0455 N   0  0  0  0  0  0  0  0  0  0  0  0
    0.8892    0.6515   -1.3218 C   0  0  0  0  0  0  0  0  0  0  0  0
    0.1235    0.1861   -2.3037 C   0  0  0  0  0  0  0  0  0  0  0  0
    0.9164    0.0851   -3.8163 S   0  0  0  0  0  0  0  0  0  0  0  0
    2.4195    0.7060   -3.0857 C   0  0  0  0  0  0  0  0  0  0  0  0
    3.8086    0.9508   -3.9711 S   0  0  0  0  0  0  0  0  0  0  0  0
    2.1783    0.9489   -1.7292 N   0  0  0  0  0  0  0  0  0  0  0  0
    3.2091    1.3328   -0.7618 C   0  0  0  0  0  0  0  0  0  0  0  0
    3.7182    0.1265   -0.0503 C   0  0  0  0  0  0  0  0  0  0  0  0
    3.7705   -0.2338    1.2808 C   0  0  0  0  0  0  0  0  0  0  0  0
    4.3772   -1.5119    1.3277 C   0  0  0  0  0  0  0  0  0  0  0  0
    4.6597   -1.8496    0.0257 C   0  0  0  0  0  0  0  0  0  0  0  0
    4.2643   -0.8627   -0.8176 O   0  0  0  0  0  0  0  0  0  0  0  0
   -1.2560   -0.2280   -2.0248 C   0  0  0  0  0  0  0  0  0  0  0  0
   -1.9736   -0.6395   -2.9339 O   0  0  0  0  0  0  0  0  0  0  0  0
   -1.6179   -0.1333   -0.6705 N   0  0  0  0  0  0  0  0  0  0  0  0
   -2.8897   -0.6816   -0.2889 C   0  0  0  0  0  0  0  0  0  0  0  0
   -4.0547   -0.3539   -1.0032 C   0  0  0  0  0  0  0  0  0  0  0  0
   -5.2901   -0.8999   -0.6436 C   0  0  0  0  0  0  0  0  0  0  0  0
   -5.3643   -1.7865    0.4219 C   0  0  0  0  0  0  0  0  0  0  0  0
   -6.5477   -2.3096    0.7660 F   0  0  0  0  0  0  0  0  0  0  0  0
   -4.2250   -2.1447    1.1297 C   0  0  0  0  0  0  0  0  0  0  0  0
   -2.9888   -1.5994    0.7714 C   0  0  0  0  0  0  0  0  0  0  0  0
   -0.7587    3.0761    1.1336 H   0  0  0  0  0  0  0  0  0  0  0  0
   -1.2238    3.0136    2.8242 H   0  0  0  0  0  0  0  0  0  0  0  0
    4.0411    1.8331   -1.2660 H   0  0  0  0  0  0  0  0  0  0  0  0
    2.7877    2.0589   -0.0582 H   0  0  0  0  0  0  0  0  0  0  0  0
    3.4161    0.3571    2.1146 H   0  0  0  0  0  0  0  0  0  0  0  0
    4.5876   -2.1104    2.2026 H   0  0  0  0  0  0  0  0  0  0  0  0
    5.1184   -2.7086   -0.4439 H   0  0  0  0  0  0  0  0  0  0  0  0
   -4.0204    0.3364   -1.8438 H   0  0  0  0  0  0  0  0  0  0  0  0
   -6.1901   -0.6432   -1.1938 H   0  0  0  0  0  0  0  0  0  0  0  0
   -4.3025   -2.8542    1.9478 H   0  0  0  0  0  0  0  0  0  0  0  0
   -2.1052   -1.9295    1.3135 H   0  0  0  0  0  0  0  0  0  0  0  0
  1  2  3  0
  2  3  1  0
  3  4  1  0
  4  5  1  0
  5  6  2  0
  6  7  1  0
  7  8  2  0
  8  9  1  0
  9 10  1  0
 10 11  2  0
 10 12  1  0
 12 13  1  0
 13 14  1  0
 14 15  2  0
 15 16  1  0
 16 17  2  0
 17 18  1  0
  8 19  1  0
 19 20  2  0
 19 21  1  0
 21 22  1  0
 22 23  2  0
 23 24  1  0
 24 25  2  0
 25 26  1  0
 25 27  1  0
 27 28  2  0
 21  5  1  0
 28 22  1  0
 12  7  1  0
 18 14  1  0
  3 29  1  0
  3 30  1  0
 13 31  1  0
 13 32  1  0
 15 33  1  0
 16 34  1  0
 17 35  1  0
 23 36  1  0
 24 37  1  0
 27 38  1  0
 28 39  1  0
M  END
$$$$
