
     RDKit          3D

 45 47  0  0  0  0  0  0  0  0999 V2000
    2.3351    0.8534    0.9644 O   0  0  0  0  0  0  0  0  0  0  0  0
    1.3009    0.4058    0.4974 C   0  0  0  0  0  0  0  0  0  0  0  0
    1.1429   -0.7649   -0.1931 N   0  0  0  0  0  0  0  0  0  0  0  0
    2.2305   -1.6810   -0.4079 C   0  0  0  0  0  0  0  0  0  0  0  0
    2.2585   -2.6477    0.7152 C   0  0  0  0  0  0  0  0  0  0  0  0
    2.8281   -2.6160    1.9711 C   0  0  0  0  0  0  0  0  0  0  0  0
    2.5018   -3.8444    2.5896 C   0  0  0  0  0  0  0  0  0  0  0  0
    1.7531   -4.5457    1.6752 C   0  0  0  0  0  0  0  0  0  0  0  0
    1.5965   -3.8270    0.5342 O   0  0  0  0  0  0  0  0  0  0  0  0
    0.0047    1.1668    0.7250 C   0  0  0  0  0  0  0  0  0  0  0  0
   -0.7296    0.7386    1.9437 C   0  0  0  0  0  0  0  0  0  0  0  0
   -2.0348    0.4243    1.9375 C   0  0  0  0  0  0  0  0  0  0  0  0
   -2.9584    0.3844    0.7471 C   0  0  0  0  0  0  0  0  0  0  0  0
   -2.6108   -0.7127   -0.2338 C   0  0  0  0  0  0  0  0  0  0  0  0
   -2.6352   -2.0571    0.1551 C   0  0  0  0  0  0  0  0  0  0  0  0
   -2.2715   -3.0643   -0.7417 C   0  0  0  0  0  0  0  0  0  0  0  0
   -1.8918   -2.7408   -2.0396 C   0  0  0  0  0  0  0  0  0  0  0  0
   -1.8862   -1.4066   -2.4455 C   0  0  0  0  0  0  0  0  0  0  0  0
   -2.2461   -0.3990   -1.5492 C   0  0  0  0  0  0  0  0  0  0  0  0
   -0.4074    2.1506   -0.0137 N   0  0  0  0  0  0  0  0  0  0  0  0
    0.3608    2.4856   -1.1023 C   0  0  0  0  0  0  0  0  0  0  0  0
    0.6843    1.6958   -1.9821 O   0  0  0  0  0  0  0  0  0  0  0  0
    0.6657    3.9040   -1.1001 C   0  0  0  0  0  0  0  0  0  0  0  0
    0.3736    4.9214   -0.2026 C   0  0  0  0  0  0  0  0  0  0  0  0
    0.9213    6.1120   -0.7379 C   0  0  0  0  0  0  0  0  0  0  0  0
    1.5172    5.7589   -1.9274 C   0  0  0  0  0  0  0  0  0  0  0  0
    2.4199    6.9533   -3.0989 Br  0  0  0  0  0  0  0  0  0  0  0  0
    1.3703    4.4255   -2.1551 O   0  0  0  0  0  0  0  0  0  0  0  0
    0.2157   -1.0524   -0.4875 H   0  0  0  0  0  0  0  0  0  0  0  0
    3.1759   -1.1370   -0.4715 H   0  0  0  0  0  0  0  0  0  0  0  0
    2.0512   -2.1891   -1.3604 H   0  0  0  0  0  0  0  0  0  0  0  0
    3.4056   -1.7993    2.3804 H   0  0  0  0  0  0  0  0  0  0  0  0
    2.7797   -4.1799    3.5785 H   0  0  0  0  0  0  0  0  0  0  0  0
    1.2857   -5.5201    1.6797 H   0  0  0  0  0  0  0  0  0  0  0  0
   -0.1344    0.6541    2.8457 H   0  0  0  0  0  0  0  0  0  0  0  0
   -2.4850    0.1240    2.8816 H   0  0  0  0  0  0  0  0  0  0  0  0
   -3.9817    0.2191    1.1016 H   0  0  0  0  0  0  0  0  0  0  0  0
   -2.9823    1.3618    0.2542 H   0  0  0  0  0  0  0  0  0  0  0  0
   -2.9260   -2.3292    1.1656 H   0  0  0  0  0  0  0  0  0  0  0  0
   -2.2843   -4.1018   -0.4277 H   0  0  0  0  0  0  0  0  0  0  0  0
   -1.6061   -3.5265   -2.7365 H   0  0  0  0  0  0  0  0  0  0  0  0
   -1.5936   -1.1471   -3.4594 H   0  0  0  0  0  0  0  0  0  0  0  0
   -2.2220    0.6351   -1.8835 H   0  0  0  0  0  0  0  0  0  0  0  0
   -0.1745    4.8098    0.7244 H   0  0  0  0  0  0  0  0  0  0  0  0
    0.8828    7.1052   -0.3097 H   0  0  0  0  0  0  0  0  0  0  0  0
  1  2  2  0
  2  3  1  0
  3  4  1  0
  4  5  1  0
  5  6  2  0
  6  7  1  0
  7  8  2  0
  8  9  1  0
  2 10  1  0
 10 11  1  0
 11 12  2  3
 12 13  1  0
 13 14  1  0
 14 15  2  0
 15 16  1  0
 16 17  2  0
 17 18  1  0
 18 19  2  0
 10 20  2  3
 20 21  1  0
 21 22  2  0
 21 23  1  0
 23 24  2  0
 24 25  1  0
 25 26  2  0
 26 27  1  0
 26 28  1  0
  9  5  1  0
 19 14  1  0
 28 23  1  0
  3 29  1  0
  4 30  1  0
  4 31  1  0
  6 32  1  0
  7 33  1  0
  8 34  1  0
 11 35  1  0
 12 36  1  0
 13 37  1  0
 13 38  1  0
 15 39  1  0
 16 40  1  0
 17 41  1  0
 18 42  1  0
 19 43  1  0
 24 44  1  0
 25 45  1  0
M  END
$$$$
