
     RDKit          3D

 49 51  0  0  0  0  0  0  0  0999 V2000
    9.2585   -2.1797    2.1721 N   0  0  0  0  0  0  0  0  0  0  0  0
    8.1438   -1.9977    1.9026 C   0  0  0  0  0  0  0  0  0  0  0  0
    6.7647   -1.8020    1.5660 C   0  0  0  0  0  0  0  0  0  0  0  0
    6.3128   -0.5207    1.6359 N   0  0  0  0  0  0  0  0  0  0  0  0
    5.0041   -0.3364    1.3154 C   0  0  0  0  0  0  0  0  0  0  0  0
    4.1503   -1.3705    0.9315 C   0  0  0  0  0  0  0  0  0  0  0  0
    2.7285   -1.1817    0.5776 C   0  0  0  0  0  0  0  0  0  0  0  0
    1.8127   -2.2471    0.6858 C   0  0  0  0  0  0  0  0  0  0  0  0
    0.4596   -2.1058    0.3424 C   0  0  0  0  0  0  0  0  0  0  0  0
   -0.0226   -0.8849   -0.1187 C   0  0  0  0  0  0  0  0  0  0  0  0
    0.8687    0.1910   -0.2107 C   0  0  0  0  0  0  0  0  0  0  0  0
    2.2251    0.0424    0.1076 C   0  0  0  0  0  0  0  0  0  0  0  0
    0.4502    1.4031   -0.7053 O   0  0  0  0  0  0  0  0  0  0  0  0
    0.1379    2.3302    0.3485 C   0  0  0  0  0  0  0  0  0  0  0  0
   -1.3735    2.4728    0.5620 C   0  0  0  0  0  0  0  0  0  0  0  0
   -2.0261    3.2822   -0.4234 O   0  0  0  0  0  0  0  0  0  0  0  0
   -2.0816    2.6829   -1.7231 C   0  0  0  0  0  0  0  0  0  0  0  0
   -3.4756    2.8787   -2.3297 C   0  0  0  0  0  0  0  0  0  0  0  0
   -4.3179    1.7465   -2.0708 O   0  0  0  0  0  0  0  0  0  0  0  0
   -4.9119    1.7671   -0.7707 C   0  0  0  0  0  0  0  0  0  0  0  0
   -5.3368    0.3507   -0.3732 C   0  0  0  0  0  0  0  0  0  0  0  0
   -4.2119   -0.4148    0.0820 O   0  0  0  0  0  0  0  0  0  0  0  0
   -3.5984   -1.1797   -0.9629 C   0  0  0  0  0  0  0  0  0  0  0  0
   -2.2498   -1.7159   -0.4766 C   0  0  0  0  0  0  0  0  0  0  0  0
   -1.3101   -0.6377   -0.4964 O   0  0  0  0  0  0  0  0  0  0  0  0
    4.6207   -2.6470    0.8784 N   0  0  0  0  0  0  0  0  0  0  0  0
    5.9332   -2.8445    1.1958 C   0  0  0  0  0  0  0  0  0  0  0  0
    6.3881   -4.2013    1.1238 C   0  0  0  0  0  0  0  0  0  0  0  0
    6.7738   -5.2954    1.0740 N   0  0  0  0  0  0  0  0  0  0  0  0
    4.6650    0.6919    1.3952 H   0  0  0  0  0  0  0  0  0  0  0  0
    2.1516   -3.2217    1.0387 H   0  0  0  0  0  0  0  0  0  0  0  0
   -0.1836   -2.9740    0.4436 H   0  0  0  0  0  0  0  0  0  0  0  0
    2.8749    0.8996   -0.0478 H   0  0  0  0  0  0  0  0  0  0  0  0
    0.5569    3.2963    0.0460 H   0  0  0  0  0  0  0  0  0  0  0  0
    0.6178    2.0434    1.2934 H   0  0  0  0  0  0  0  0  0  0  0  0
   -1.8803    1.5074    0.6321 H   0  0  0  0  0  0  0  0  0  0  0  0
   -1.5335    2.9882    1.5152 H   0  0  0  0  0  0  0  0  0  0  0  0
   -1.8461    1.6164   -1.6946 H   0  0  0  0  0  0  0  0  0  0  0  0
   -1.3376    3.2008   -2.3365 H   0  0  0  0  0  0  0  0  0  0  0  0
   -3.9602    3.7996   -1.9864 H   0  0  0  0  0  0  0  0  0  0  0  0
   -3.3769    2.9266   -3.4189 H   0  0  0  0  0  0  0  0  0  0  0  0
   -5.7912    2.4178   -0.8201 H   0  0  0  0  0  0  0  0  0  0  0  0
   -4.2201    2.1605   -0.0225 H   0  0  0  0  0  0  0  0  0  0  0  0
   -5.8534   -0.1676   -1.1892 H   0  0  0  0  0  0  0  0  0  0  0  0
   -6.0222    0.4186    0.4777 H   0  0  0  0  0  0  0  0  0  0  0  0
   -4.2631   -2.0166   -1.2021 H   0  0  0  0  0  0  0  0  0  0  0  0
   -3.4518   -0.5655   -1.8559 H   0  0  0  0  0  0  0  0  0  0  0  0
   -2.3504   -2.1031    0.5437 H   0  0  0  0  0  0  0  0  0  0  0  0
   -1.9123   -2.5034   -1.1598 H   0  0  0  0  0  0  0  0  0  0  0  0
  1  2  3  0
  2  3  1  0
  3  4  2  0
  4  5  1  0
  5  6  2  0
  6  7  1  0
  7  8  2  0
  8  9  1  0
  9 10  2  0
 10 11  1  0
 11 12  2  0
 11 13  1  0
 13 14  1  0
 14 15  1  0
 15 16  1  0
 16 17  1  0
 17 18  1  0
 18 19  1  0
 19 20  1  0
 20 21  1  0
 21 22  1  0
 22 23  1  0
 23 24  1  0
 24 25  1  0
  6 26  1  0
 26 27  2  0
 27 28  1  0
 28 29  3  0
 27  3  1  0
 12  7  1  0
 25 10  1  0
  5 30  1  0
  8 31  1  0
  9 32  1  0
 12 33  1  0
 14 34  1  0
 14 35  1  0
 15 36  1  0
 15 37  1  0
 17 38  1  0
 17 39  1  0
 18 40  1  0
 18 41  1  0
 20 42  1  0
 20 43  1  0
 21 44  1  0
 21 45  1  0
 23 46  1  0
 23 47  1  0
 24 48  1  0
 24 49  1  0
M  END
$$$$
