
     RDKit          3D

 54 57  0  0  0  0  0  0  0  0999 V2000
   -2.7952    5.3398   -1.0297 C   0  0  0  0  0  0  0  0  0  0  0  0
   -2.6896    3.9000   -1.1879 N   0  0  0  0  0  0  0  0  0  0  0  0
   -2.6812    3.1298   -0.0312 C   0  0  0  0  0  0  0  0  0  0  0  0
   -2.8928    3.6131    1.0761 O   0  0  0  0  0  0  0  0  0  0  0  0
   -2.4745    1.6867   -0.2065 C   0  0  0  0  0  0  0  0  0  0  0  0
   -2.1749    0.7790    0.7964 C   0  0  0  0  0  0  0  0  0  0  0  0
   -1.8627    1.2137    2.5020 S   0  0  0  0  0  0  0  0  0  0  0  0
   -0.4472    0.1246    2.8475 C   0  0  0  0  0  0  0  0  0  0  0  0
    0.6747    0.2647    1.8237 C   0  0  0  0  0  0  0  0  0  0  0  0
    0.8531    1.2508    1.1120 O   0  0  0  0  0  0  0  0  0  0  0  0
    1.5055   -0.8400    1.7719 N   0  0  0  0  0  0  0  0  0  0  0  0
    2.7239   -0.8248    0.9796 C   0  0  0  0  0  0  0  0  0  0  0  0
    3.8677   -0.1357    1.7257 C   0  0  0  0  0  0  0  0  0  0  0  0
    5.1423   -0.0334    0.9065 C   0  0  0  0  0  0  0  0  0  0  0  0
    6.1869    0.0659    1.9896 C   0  0  0  0  0  0  0  0  0  0  0  0
    5.6485   -0.8854    3.0377 C   0  0  0  0  0  0  0  0  0  0  0  0
    4.2189   -0.9013    2.9010 O   0  0  0  0  0  0  0  0  0  0  0  0
   -2.0519   -0.5482    0.5584 N   0  0  0  0  0  0  0  0  0  0  0  0
   -2.2163   -0.9728   -0.6967 C   0  0  0  0  0  0  0  0  0  0  0  0
   -2.0233   -2.3983   -0.9833 C   0  0  0  0  0  0  0  0  0  0  0  0
   -1.2304   -2.7748   -2.0905 C   0  0  0  0  0  0  0  0  0  0  0  0
   -0.9949   -4.1159   -2.4050 C   0  0  0  0  0  0  0  0  0  0  0  0
   -1.5518   -5.1185   -1.6207 C   0  0  0  0  0  0  0  0  0  0  0  0
   -2.3471   -4.7782   -0.5285 C   0  0  0  0  0  0  0  0  0  0  0  0
   -2.5852   -3.4326   -0.2114 C   0  0  0  0  0  0  0  0  0  0  0  0
   -3.6394   -3.1345    1.1311 Cl  0  0  0  0  0  0  0  0  0  0  0  0
   -2.4560   -0.1592   -1.7333 N   0  0  0  0  0  0  0  0  0  0  0  0
   -2.5800    1.1620   -1.4749 C   0  0  0  0  0  0  0  0  0  0  0  0
   -2.8239    2.0102   -2.5777 N   0  0  0  0  0  0  0  0  0  0  0  0
   -2.9771    1.3890   -3.8857 C   0  0  0  0  0  0  0  0  0  0  0  0
   -2.8719    3.3853   -2.4622 C   0  0  0  0  0  0  0  0  0  0  0  0
   -3.0816    4.1150   -3.4331 O   0  0  0  0  0  0  0  0  0  0  0  0
   -2.3425    5.8570   -1.8812 H   0  0  0  0  0  0  0  0  0  0  0  0
   -3.8558    5.6057   -0.9754 H   0  0  0  0  0  0  0  0  0  0  0  0
   -2.2967    5.6706   -0.1136 H   0  0  0  0  0  0  0  0  0  0  0  0
   -0.0414    0.3873    3.8295 H   0  0  0  0  0  0  0  0  0  0  0  0
   -0.7917   -0.9139    2.8898 H   0  0  0  0  0  0  0  0  0  0  0  0
    1.4883   -1.4899    2.5490 H   0  0  0  0  0  0  0  0  0  0  0  0
    2.9700   -1.8733    0.7807 H   0  0  0  0  0  0  0  0  0  0  0  0
    2.5254   -0.3209    0.0277 H   0  0  0  0  0  0  0  0  0  0  0  0
    3.5614    0.8589    2.0735 H   0  0  0  0  0  0  0  0  0  0  0  0
    5.1415    0.8210    0.2241 H   0  0  0  0  0  0  0  0  0  0  0  0
    5.3065   -0.9448    0.3189 H   0  0  0  0  0  0  0  0  0  0  0  0
    7.1946   -0.1943    1.6553 H   0  0  0  0  0  0  0  0  0  0  0  0
    6.2123    1.0863    2.3898 H   0  0  0  0  0  0  0  0  0  0  0  0
    6.0086   -1.9058    2.8690 H   0  0  0  0  0  0  0  0  0  0  0  0
    5.9176   -0.5845    4.0542 H   0  0  0  0  0  0  0  0  0  0  0  0
   -0.7805   -2.0056   -2.7184 H   0  0  0  0  0  0  0  0  0  0  0  0
   -0.3776   -4.3727   -3.2627 H   0  0  0  0  0  0  0  0  0  0  0  0
   -1.3743   -6.1638   -1.8615 H   0  0  0  0  0  0  0  0  0  0  0  0
   -2.7908   -5.5687    0.0728 H   0  0  0  0  0  0  0  0  0  0  0  0
   -2.0432    0.8870   -4.1592 H   0  0  0  0  0  0  0  0  0  0  0  0
   -3.2071    2.1239   -4.6621 H   0  0  0  0  0  0  0  0  0  0  0  0
   -3.7975    0.6645   -3.8530 H   0  0  0  0  0  0  0  0  0  0  0  0
  1  2  1  0
  2  3  1  0
  3  4  2  0
  3  5  1  0
  5  6  2  0
  6  7  1  0
  7  8  1  0
  8  9  1  0
  9 10  2  0
  9 11  1  0
 11 12  1  0
 12 13  1  0
 13 14  1  0
 14 15  1  0
 15 16  1  0
 16 17  1  0
  6 18  1  0
 18 19  2  0
 19 20  1  0
 20 21  2  0
 21 22  1  0
 22 23  2  0
 23 24  1  0
 24 25  2  0
 25 26  1  0
 19 27  1  0
 27 28  2  0
 28 29  1  0
 29 30  1  0
 29 31  1  0
 31 32  2  0
 31  2  1  0
 28  5  1  0
 17 13  1  0
 25 20  1  0
  1 33  1  0
  1 34  1  0
  1 35  1  0
  8 36  1  0
  8 37  1  0
 11 38  1  0
 12 39  1  0
 12 40  1  0
 13 41  1  0
 14 42  1  0
 14 43  1  0
 15 44  1  0
 15 45  1  0
 16 46  1  0
 16 47  1  0
 21 48  1  0
 22 49  1  0
 23 50  1  0
 24 51  1  0
 30 52  1  0
 30 53  1  0
 30 54  1  0
M  END
$$$$
