
     RDKit          3D

 49 52  0  0  0  0  0  0  0  0999 V2000
    1.3769   -0.9259    2.0946 N   0  0  0  0  0  0  0  0  0  0  0  0
    0.4300   -0.1600    1.5368 C   0  0  0  0  0  0  0  0  0  0  0  0
   -0.0922    0.8619    2.1500 N   0  0  0  0  0  0  0  0  0  0  0  0
   -1.0651    1.3953    1.1548 C   0  0  0  0  0  0  0  0  0  0  0  0
   -1.3093    0.2638    0.1399 C   0  0  0  0  0  0  0  0  0  0  0  0
   -2.5271   -0.5916    0.5321 C   0  0  0  0  0  0  0  0  0  0  0  0
   -3.8616    0.0995    0.3728 C   0  0  0  0  0  0  0  0  0  0  0  0
   -4.3376    0.4500   -0.9011 C   0  0  0  0  0  0  0  0  0  0  0  0
   -5.5955    1.0438   -1.0488 C   0  0  0  0  0  0  0  0  0  0  0  0
   -6.3802    1.2824    0.0781 C   0  0  0  0  0  0  0  0  0  0  0  0
   -7.6211    1.8445   -0.0229 O   0  0  0  0  0  0  0  0  0  0  0  0
   -5.9261    0.9423    1.3450 C   0  0  0  0  0  0  0  0  0  0  0  0
   -4.6656    0.3570    1.4940 C   0  0  0  0  0  0  0  0  0  0  0  0
   -0.0601   -0.4760    0.3055 N   0  0  0  0  0  0  0  0  0  0  0  0
    0.2171   -1.6643   -0.4839 C   0  0  0  0  0  0  0  0  0  0  0  0
    1.3012   -1.4287   -1.5516 C   0  0  0  0  0  0  0  0  0  0  0  0
    2.7152   -1.3602   -1.0063 C   0  0  0  0  0  0  0  0  0  0  0  0
    3.3612   -2.5808   -0.7371 C   0  0  0  0  0  0  0  0  0  0  0  0
    4.6406   -2.5972   -0.1891 C   0  0  0  0  0  0  0  0  0  0  0  0
    5.2992   -1.4017    0.0916 C   0  0  0  0  0  0  0  0  0  0  0  0
    4.6920   -0.1738   -0.1714 C   0  0  0  0  0  0  0  0  0  0  0  0
    5.3782    1.0112    0.1251 C   0  0  0  0  0  0  0  0  0  0  0  0
    4.7971    2.2425   -0.1093 C   0  0  0  0  0  0  0  0  0  0  0  0
    3.5133    2.3075   -0.6256 C   0  0  0  0  0  0  0  0  0  0  0  0
    2.8152    1.1386   -0.9197 C   0  0  0  0  0  0  0  0  0  0  0  0
    3.3832   -0.1324   -0.7192 C   0  0  0  0  0  0  0  0  0  0  0  0
    1.7360   -0.4897    2.9347 H   0  0  0  0  0  0  0  0  0  0  0  0
    2.1424   -1.1310    1.4637 H   0  0  0  0  0  0  0  0  0  0  0  0
   -1.9669    1.7449    1.6529 H   0  0  0  0  0  0  0  0  0  0  0  0
   -0.6022    2.2526    0.6575 H   0  0  0  0  0  0  0  0  0  0  0  0
   -1.4062    0.6633   -0.8745 H   0  0  0  0  0  0  0  0  0  0  0  0
   -2.5680   -1.5007   -0.0873 H   0  0  0  0  0  0  0  0  0  0  0  0
   -2.4149   -0.9592    1.5598 H   0  0  0  0  0  0  0  0  0  0  0  0
   -3.7408    0.2623   -1.7794 H   0  0  0  0  0  0  0  0  0  0  0  0
   -5.9420    1.3046   -2.0367 H   0  0  0  0  0  0  0  0  0  0  0  0
   -7.7935    2.0438   -0.9507 H   0  0  0  0  0  0  0  0  0  0  0  0
   -6.5542    1.1150    2.2156 H   0  0  0  0  0  0  0  0  0  0  0  0
   -4.3247    0.0906    2.4915 H   0  0  0  0  0  0  0  0  0  0  0  0
   -0.6891   -1.9629   -1.0207 H   0  0  0  0  0  0  0  0  0  0  0  0
    0.4757   -2.5128    0.1620 H   0  0  0  0  0  0  0  0  0  0  0  0
    1.2646   -2.2638   -2.2642 H   0  0  0  0  0  0  0  0  0  0  0  0
    1.0594   -0.5460   -2.1530 H   0  0  0  0  0  0  0  0  0  0  0  0
    2.8657   -3.5369   -0.9543 H   0  0  0  0  0  0  0  0  0  0  0  0
    5.1158   -3.5382    0.0300 H   0  0  0  0  0  0  0  0  0  0  0  0
    6.2996   -1.4388    0.5205 H   0  0  0  0  0  0  0  0  0  0  0  0
    6.3797    0.9846    0.5493 H   0  0  0  0  0  0  0  0  0  0  0  0
    5.3388    3.1593    0.1335 H   0  0  0  0  0  0  0  0  0  0  0  0
    3.0425    3.2714   -0.7888 H   0  0  0  0  0  0  0  0  0  0  0  0
    1.8033    1.2396   -1.2927 H   0  0  0  0  0  0  0  0  0  0  0  0
  1  2  1  0
  2  3  2  0
  3  4  1  0
  4  5  1  0
  5  6  1  0
  6  7  1  0
  7  8  2  0
  8  9  1  0
  9 10  2  0
 10 11  1  0
 10 12  1  0
 12 13  2  0
  5 14  1  0
 14 15  1  0
 15 16  1  0
 16 17  1  0
 17 18  2  0
 18 19  1  0
 19 20  2  0
 20 21  1  0
 21 22  2  0
 22 23  1  0
 23 24  2  0
 24 25  1  0
 25 26  2  0
 14  2  1  0
 26 17  1  0
 13  7  1  0
 26 21  1  0
  1 27  1  0
  1 28  1  0
  4 29  1  0
  4 30  1  0
  5 31  1  0
  6 32  1  0
  6 33  1  0
  8 34  1  0
  9 35  1  0
 11 36  1  0
 12 37  1  0
 13 38  1  0
 15 39  1  0
 15 40  1  0
 16 41  1  0
 16 42  1  0
 18 43  1  0
 19 44  1  0
 20 45  1  0
 22 46  1  0
 23 47  1  0
 24 48  1  0
 25 49  1  0
M  END
$$$$
