
     RDKit          3D

 41 44  0  0  0  0  0  0  0  0999 V2000
    1.1022    0.8145   -3.2841 O   0  0  0  0  0  0  0  0  0  0  0  0
    1.1979    0.5734   -2.0818 C   0  0  0  0  0  0  0  0  0  0  0  0
    2.4347    0.0970   -1.5055 C   0  0  0  0  0  0  0  0  0  0  0  0
    3.4490    1.1876   -0.6796 S   0  0  0  0  0  0  0  0  0  0  0  0
    4.6246   -0.0297   -0.3616 C   0  0  0  0  0  0  0  0  0  0  0  0
    5.8330    0.1313    0.3452 C   0  0  0  0  0  0  0  0  0  0  0  0
    6.6757   -0.9697    0.5077 C   0  0  0  0  0  0  0  0  0  0  0  0
    6.3298   -2.2047   -0.0199 C   0  0  0  0  0  0  0  0  0  0  0  0
    5.1305   -2.3602   -0.7214 C   0  0  0  0  0  0  0  0  0  0  0  0
    4.2484   -1.2629   -0.9046 C   0  0  0  0  0  0  0  0  0  0  0  0
    2.9778   -1.1647   -1.5748 C   0  0  0  0  0  0  0  0  0  0  0  0
    2.2293   -2.5075   -2.3417 Cl  0  0  0  0  0  0  0  0  0  0  0  0
    0.1149    0.7462   -1.2208 N   0  0  0  0  0  0  0  0  0  0  0  0
   -1.1328    1.3003   -1.7605 C   0  0  0  0  0  0  0  0  0  0  0  0
   -1.9773    1.9902   -0.6777 C   0  0  0  0  0  0  0  0  0  0  0  0
   -2.2932    1.0892    0.4556 N   0  0  0  0  0  0  0  0  0  0  0  0
   -3.6223    0.6396    0.5912 C   0  0  0  0  0  0  0  0  0  0  0  0
   -4.0961    0.3498    1.8830 C   0  0  0  0  0  0  0  0  0  0  0  0
   -5.4003   -0.1089    2.0998 C   0  0  0  0  0  0  0  0  0  0  0  0
   -6.2634   -0.2947    1.0234 C   0  0  0  0  0  0  0  0  0  0  0  0
   -5.8192   -0.0233   -0.2672 C   0  0  0  0  0  0  0  0  0  0  0  0
   -4.5174    0.4353   -0.4748 C   0  0  0  0  0  0  0  0  0  0  0  0
   -4.1310    0.6418   -1.7438 F   0  0  0  0  0  0  0  0  0  0  0  0
   -1.3204   -0.0070    0.6865 C   0  0  0  0  0  0  0  0  0  0  0  0
    0.0924    0.3655    0.1998 C   0  0  0  0  0  0  0  0  0  0  0  0
    6.1096    1.0985    0.7564 H   0  0  0  0  0  0  0  0  0  0  0  0
    7.6117   -0.8549    1.0498 H   0  0  0  0  0  0  0  0  0  0  0  0
    6.9937   -3.0565    0.1084 H   0  0  0  0  0  0  0  0  0  0  0  0
    4.8777   -3.3358   -1.1314 H   0  0  0  0  0  0  0  0  0  0  0  0
   -0.9036    2.0131   -2.5601 H   0  0  0  0  0  0  0  0  0  0  0  0
   -1.6823    0.4640   -2.2075 H   0  0  0  0  0  0  0  0  0  0  0  0
   -2.8690    2.4563   -1.1110 H   0  0  0  0  0  0  0  0  0  0  0  0
   -1.3910    2.8213   -0.2636 H   0  0  0  0  0  0  0  0  0  0  0  0
   -3.4447    0.5054    2.7402 H   0  0  0  0  0  0  0  0  0  0  0  0
   -5.7393   -0.3147    3.1121 H   0  0  0  0  0  0  0  0  0  0  0  0
   -7.2766   -0.6508    1.1894 H   0  0  0  0  0  0  0  0  0  0  0  0
   -6.4739   -0.1706   -1.1204 H   0  0  0  0  0  0  0  0  0  0  0  0
   -1.2732   -0.2425    1.7561 H   0  0  0  0  0  0  0  0  0  0  0  0
   -1.6406   -0.9133    0.1540 H   0  0  0  0  0  0  0  0  0  0  0  0
    0.4659    1.2275    0.7651 H   0  0  0  0  0  0  0  0  0  0  0  0
    0.7688   -0.4754    0.3787 H   0  0  0  0  0  0  0  0  0  0  0  0
  1  2  2  0
  2  3  1  0
  3  4  1  0
  4  5  1  0
  5  6  2  0
  6  7  1  0
  7  8  2  0
  8  9  1  0
  9 10  2  0
 10 11  1  0
 11 12  1  0
  2 13  1  0
 13 14  1  0
 14 15  1  0
 15 16  1  0
 16 17  1  0
 17 18  2  0
 18 19  1  0
 19 20  2  0
 20 21  1  0
 21 22  2  0
 22 23  1  0
 16 24  1  0
 24 25  1  0
 11  3  2  0
 25 13  1  0
 10  5  1  0
 22 17  1  0
  6 26  1  0
  7 27  1  0
  8 28  1  0
  9 29  1  0
 14 30  1  0
 14 31  1  0
 15 32  1  0
 15 33  1  0
 18 34  1  0
 19 35  1  0
 20 36  1  0
 21 37  1  0
 24 38  1  0
 24 39  1  0
 25 40  1  0
 25 41  1  0
M  END
$$$$
