
     RDKit          3D

 43 45  0  0  0  0  0  0  0  0999 V2000
    3.7530   -1.6568   -2.4931 C   0  0  0  0  0  0  0  0  0  0  0  0
    4.2449   -0.6937   -1.5708 O   0  0  0  0  0  0  0  0  0  0  0  0
    3.4318   -0.3330   -0.5254 C   0  0  0  0  0  0  0  0  0  0  0  0
    2.0736   -0.6715   -0.4330 C   0  0  0  0  0  0  0  0  0  0  0  0
    1.2952   -0.2610    0.6641 C   0  0  0  0  0  0  0  0  0  0  0  0
   -0.1387   -0.6249    0.6735 C   0  0  0  0  0  0  0  0  0  0  0  0
   -0.4943   -2.0001    0.8541 C   0  0  0  0  0  0  0  0  0  0  0  0
   -0.7419   -3.1267    0.9802 N   0  0  0  0  0  0  0  0  0  0  0  0
   -1.0491    0.3471    0.4667 C   0  0  0  0  0  0  0  0  0  0  0  0
   -2.5072    0.1366    0.4417 C   0  0  0  0  0  0  0  0  0  0  0  0
   -3.1570   -0.0767    1.6671 C   0  0  0  0  0  0  0  0  0  0  0  0
   -4.5322   -0.2789    1.7077 C   0  0  0  0  0  0  0  0  0  0  0  0
   -5.2706   -0.2654    0.5267 C   0  0  0  0  0  0  0  0  0  0  0  0
   -4.6481   -0.0487   -0.7122 C   0  0  0  0  0  0  0  0  0  0  0  0
   -5.4087   -0.0368   -1.8932 C   0  0  0  0  0  0  0  0  0  0  0  0
   -4.8076    0.1765   -3.1328 C   0  0  0  0  0  0  0  0  0  0  0  0
   -3.4362    0.3806   -3.2090 C   0  0  0  0  0  0  0  0  0  0  0  0
   -2.6654    0.3712   -2.0444 C   0  0  0  0  0  0  0  0  0  0  0  0
   -3.2470    0.1579   -0.7716 C   0  0  0  0  0  0  0  0  0  0  0  0
    1.9265    0.4946    1.6659 C   0  0  0  0  0  0  0  0  0  0  0  0
    1.1914    0.9355    2.8430 N   0  0  0  0  0  4  0  0  0  0  0  0
    0.5439    0.0846    3.4655 O   0  0  0  0  0  0  0  0  0  0  0  0
    1.2789    2.1337    3.1417 O   0  0  0  0  0  1  0  0  0  0  0  0
    3.2799    0.8559    1.5839 C   0  0  0  0  0  0  0  0  0  0  0  0
    4.0354    0.4455    0.4849 C   0  0  0  0  0  0  0  0  0  0  0  0
    5.3630    0.7396    0.3046 O   0  0  0  0  0  0  0  0  0  0  0  0
    6.0044    1.5570    1.2743 C   0  0  0  0  0  0  0  0  0  0  0  0
    3.4489   -2.5776   -1.9842 H   0  0  0  0  0  0  0  0  0  0  0  0
    2.9325   -1.2435   -3.0884 H   0  0  0  0  0  0  0  0  0  0  0  0
    4.5671   -1.9089   -3.1795 H   0  0  0  0  0  0  0  0  0  0  0  0
    1.5974   -1.2494   -1.2217 H   0  0  0  0  0  0  0  0  0  0  0  0
   -0.7523    1.3799    0.2926 H   0  0  0  0  0  0  0  0  0  0  0  0
   -2.5958   -0.0886    2.6003 H   0  0  0  0  0  0  0  0  0  0  0  0
   -5.0294   -0.4495    2.6592 H   0  0  0  0  0  0  0  0  0  0  0  0
   -6.3453   -0.4280    0.5815 H   0  0  0  0  0  0  0  0  0  0  0  0
   -6.4845   -0.1962   -1.8553 H   0  0  0  0  0  0  0  0  0  0  0  0
   -5.4119    0.1815   -4.0362 H   0  0  0  0  0  0  0  0  0  0  0  0
   -2.9633    0.5463   -4.1734 H   0  0  0  0  0  0  0  0  0  0  0  0
   -1.5950    0.5331   -2.1439 H   0  0  0  0  0  0  0  0  0  0  0  0
    3.7182    1.4466    2.3829 H   0  0  0  0  0  0  0  0  0  0  0  0
    5.5315    2.5427    1.3352 H   0  0  0  0  0  0  0  0  0  0  0  0
    7.0407    1.7040    0.9554 H   0  0  0  0  0  0  0  0  0  0  0  0
    6.0235    1.0655    2.2524 H   0  0  0  0  0  0  0  0  0  0  0  0
  1  2  1  0
  2  3  1  0
  3  4  2  0
  4  5  1  0
  5  6  1  0
  6  7  1  0
  7  8  3  0
  6  9  2  3
  9 10  1  0
 10 11  2  0
 11 12  1  0
 12 13  2  0
 13 14  1  0
 14 15  2  0
 15 16  1  0
 16 17  2  0
 17 18  1  0
 18 19  2  0
  5 20  2  0
 20 21  1  0
 21 22  2  0
 21 23  1  0
 20 24  1  0
 24 25  2  0
 25 26  1  0
 26 27  1  0
 25  3  1  0
 19 10  1  0
 19 14  1  0
  1 28  1  0
  1 29  1  0
  1 30  1  0
  4 31  1  0
  9 32  1  0
 11 33  1  0
 12 34  1  0
 13 35  1  0
 15 36  1  0
 16 37  1  0
 17 38  1  0
 18 39  1  0
 24 40  1  0
 27 41  1  0
 27 42  1  0
 27 43  1  0
M  CHG  2  21   1  23  -1
M  END
$$$$
