
     RDKit          3D

 36 38  0  0  0  0  0  0  0  0999 V2000
   -2.2866   -0.4145   -0.9600 C   0  0  0  0  0  0  0  0  0  0  0  0
   -1.9582   -0.5529    0.5164 C   0  0  0  0  0  0  0  0  0  0  0  0
   -0.8984   -0.0189    1.0663 N   0  0  0  0  0  0  0  0  0  0  0  0
   -0.0373    0.6367    0.2287 N   0  0  0  0  0  0  0  0  0  0  0  0
    1.0438   -0.1227   -0.3038 C   0  0  0  0  0  0  0  0  0  0  0  0
    0.9902   -1.4814   -0.2751 N   0  0  0  0  0  0  0  0  0  0  0  0
    2.0202   -2.1901   -0.7472 C   0  0  0  0  0  0  0  0  0  0  0  0
    3.1478   -1.7207   -1.2759 N   0  0  0  0  0  0  0  0  0  0  0  0
    3.1696   -0.3795   -1.3241 C   0  0  0  0  0  0  0  0  0  0  0  0
    4.5204    0.4158   -1.9760 S   0  0  0  0  0  0  0  0  0  0  0  0
    3.8270    1.9549   -1.7254 C   0  0  0  0  0  0  0  0  0  0  0  0
    4.5899    3.1739   -2.1353 C   0  0  0  0  0  0  0  0  0  0  0  0
    2.5624    1.8752   -1.1550 C   0  0  0  0  0  0  0  0  0  0  0  0
    1.7029    3.0675   -0.8673 C   0  0  0  0  0  0  0  0  0  0  0  0
    2.1831    0.4914   -0.8851 C   0  0  0  0  0  0  0  0  0  0  0  0
   -2.8963   -1.3486    1.3721 C   0  0  0  0  0  0  0  0  0  0  0  0
   -2.5836   -1.5945    2.7063 C   0  0  0  0  0  0  0  0  0  0  0  0
   -3.4757   -2.3379    3.4747 C   0  0  0  0  0  0  0  0  0  0  0  0
   -4.6453   -2.8106    2.8917 C   0  0  0  0  0  0  0  0  0  0  0  0
   -4.8767   -2.5198    1.5573 C   0  0  0  0  0  0  0  0  0  0  0  0
   -4.0327   -1.8014    0.7854 N   0  0  0  0  0  0  0  0  0  0  0  0
   -3.3112   -0.7052   -1.1983 H   0  0  0  0  0  0  0  0  0  0  0  0
   -2.1675    0.6281   -1.2705 H   0  0  0  0  0  0  0  0  0  0  0  0
   -1.6079   -1.0437   -1.5425 H   0  0  0  0  0  0  0  0  0  0  0  0
    0.3631    1.4707    0.6529 H   0  0  0  0  0  0  0  0  0  0  0  0
    1.9253   -3.2696   -0.6895 H   0  0  0  0  0  0  0  0  0  0  0  0
    4.6259    3.8941   -1.3112 H   0  0  0  0  0  0  0  0  0  0  0  0
    4.1027    3.6521   -2.9914 H   0  0  0  0  0  0  0  0  0  0  0  0
    5.6227    2.9461   -2.4188 H   0  0  0  0  0  0  0  0  0  0  0  0
    1.6679    3.2576    0.2099 H   0  0  0  0  0  0  0  0  0  0  0  0
    0.6847    2.9087   -1.2359 H   0  0  0  0  0  0  0  0  0  0  0  0
    2.0814    3.9716   -1.3541 H   0  0  0  0  0  0  0  0  0  0  0  0
   -1.6619   -1.2225    3.1419 H   0  0  0  0  0  0  0  0  0  0  0  0
   -3.2560   -2.5471    4.5179 H   0  0  0  0  0  0  0  0  0  0  0  0
   -5.3593   -3.3936    3.4630 H   0  0  0  0  0  0  0  0  0  0  0  0
   -5.7763   -2.8690    1.0579 H   0  0  0  0  0  0  0  0  0  0  0  0
  1  2  1  0
  2  3  2  3
  3  4  1  0
  4  5  1  0
  5  6  2  0
  6  7  1  0
  7  8  2  0
  8  9  1  0
  9 10  1  0
 10 11  1  0
 11 12  1  0
 11 13  2  0
 13 14  1  0
 13 15  1  0
  2 16  1  0
 16 17  2  0
 17 18  1  0
 18 19  2  0
 19 20  1  0
 20 21  2  0
 15  5  1  0
 21 16  1  0
 15  9  2  0
  1 22  1  0
  1 23  1  0
  1 24  1  0
  4 25  1  0
  7 26  1  0
 12 27  1  0
 12 28  1  0
 12 29  1  0
 14 30  1  0
 14 31  1  0
 14 32  1  0
 17 33  1  0
 18 34  1  0
 19 35  1  0
 20 36  1  0
M  END
$$$$
