
     RDKit          3D

 55 57  0  0  0  0  0  0  0  0999 V2000
    3.3326   -0.2857    0.3827 O   0  0  0  0  0  0  0  0  0  0  0  0
    2.2757    0.2745    0.6432 C   0  0  0  0  0  0  0  0  0  0  0  0
    2.0920    1.4067    1.4068 N   0  0  0  0  0  0  0  0  0  0  0  0
    3.0727    2.1834    2.0474 C   0  0  0  0  0  0  0  0  0  0  0  0
    2.6261    3.1695    2.9369 C   0  0  0  0  0  0  0  0  0  0  0  0
    3.5395    3.9712    3.6243 C   0  0  0  0  0  0  0  0  0  0  0  0
    4.9059    3.8111    3.4108 C   0  0  0  0  0  0  0  0  0  0  0  0
    5.3565    2.8476    2.5136 C   0  0  0  0  0  0  0  0  0  0  0  0
    4.4436    2.0306    1.8386 C   0  0  0  0  0  0  0  0  0  0  0  0
    0.9560   -0.2507    0.1331 C   0  0  0  0  0  0  0  0  0  0  0  0
    0.9037   -1.4588   -0.4504 C   0  0  0  0  0  0  0  0  0  0  0  0
   -0.3864   -2.0698   -0.9261 C   0  0  0  0  0  0  0  0  0  0  0  0
   -0.5490   -3.5208   -0.5081 C   0  0  0  0  0  0  0  0  0  0  0  0
   -0.8270   -4.4996   -1.4718 C   0  0  0  0  0  0  0  0  0  0  0  0
   -1.0005   -5.8356   -1.1049 C   0  0  0  0  0  0  0  0  0  0  0  0
   -0.9076   -6.2234    0.2380 C   0  0  0  0  0  0  0  0  0  0  0  0
   -1.0888   -7.6616    0.6518 C   0  0  0  0  0  0  0  0  0  0  0  0
   -1.9273   -7.8001    1.7147 F   0  0  0  0  0  0  0  0  0  0  0  0
   -1.6060   -8.4499   -0.3305 F   0  0  0  0  0  0  0  0  0  0  0  0
    0.0824   -8.2450    1.0207 F   0  0  0  0  0  0  0  0  0  0  0  0
   -0.6231   -5.2477    1.2040 C   0  0  0  0  0  0  0  0  0  0  0  0
   -0.4481   -3.9116    0.8350 C   0  0  0  0  0  0  0  0  0  0  0  0
   -1.5921   -1.2360   -0.4809 C   0  0  0  0  0  0  0  0  0  0  0  0
   -1.2386    0.2444   -0.5779 C   0  0  0  0  0  0  0  0  0  0  0  0
   -2.4088    0.9894   -0.2263 O   0  0  0  0  0  0  0  0  0  0  0  0
   -2.2591    2.4024   -0.3573 C   0  0  0  0  0  0  0  0  0  0  0  0
   -2.3721    2.8539   -1.8120 C   0  0  0  0  0  0  0  0  0  0  0  0
   -2.3648    4.3822   -1.9207 C   0  0  0  0  0  0  0  0  0  0  0  0
   -2.4625    4.8679   -3.3642 C   0  0  0  0  0  0  0  0  0  0  0  0
   -3.7327    4.5554   -3.9176 O   0  0  0  0  0  0  0  0  0  0  0  0
   -0.1575    0.5555    0.3092 O   0  0  0  0  0  0  0  0  0  0  0  0
    1.1249    1.6641    1.5659 H   0  0  0  0  0  0  0  0  0  0  0  0
    1.5645    3.3099    3.1279 H   0  0  0  0  0  0  0  0  0  0  0  0
    3.1832    4.7145    4.3342 H   0  0  0  0  0  0  0  0  0  0  0  0
    5.6193    4.4329    3.9451 H   0  0  0  0  0  0  0  0  0  0  0  0
    6.4214    2.7266    2.3371 H   0  0  0  0  0  0  0  0  0  0  0  0
    4.8345    1.2941    1.1453 H   0  0  0  0  0  0  0  0  0  0  0  0
    1.8147   -2.0390   -0.5835 H   0  0  0  0  0  0  0  0  0  0  0  0
   -0.3427   -2.0341   -2.0220 H   0  0  0  0  0  0  0  0  0  0  0  0
   -0.9174   -4.2289   -2.5206 H   0  0  0  0  0  0  0  0  0  0  0  0
   -1.2188   -6.5730   -1.8794 H   0  0  0  0  0  0  0  0  0  0  0  0
   -0.5414   -5.5256    2.2557 H   0  0  0  0  0  0  0  0  0  0  0  0
   -0.2348   -3.1763    1.6085 H   0  0  0  0  0  0  0  0  0  0  0  0
   -2.4726   -1.4689   -1.0927 H   0  0  0  0  0  0  0  0  0  0  0  0
   -1.8757   -1.4653    0.5549 H   0  0  0  0  0  0  0  0  0  0  0  0
   -0.9496    0.4908   -1.6075 H   0  0  0  0  0  0  0  0  0  0  0  0
   -1.3167    2.7413    0.0939 H   0  0  0  0  0  0  0  0  0  0  0  0
   -3.0696    2.8569    0.2271 H   0  0  0  0  0  0  0  0  0  0  0  0
   -1.5410    2.4489   -2.3950 H   0  0  0  0  0  0  0  0  0  0  0  0
   -3.2818    2.4341   -2.2513 H   0  0  0  0  0  0  0  0  0  0  0  0
   -1.4384    4.7751   -1.4794 H   0  0  0  0  0  0  0  0  0  0  0  0
   -3.2079    4.7860   -1.3425 H   0  0  0  0  0  0  0  0  0  0  0  0
   -1.6823    4.4297   -3.9937 H   0  0  0  0  0  0  0  0  0  0  0  0
   -2.3486    5.9565   -3.3934 H   0  0  0  0  0  0  0  0  0  0  0  0
   -3.7578    3.6003   -4.0965 H   0  0  0  0  0  0  0  0  0  0  0  0
  1  2  2  0
  2  3  1  0
  3  4  1  0
  4  5  2  0
  5  6  1  0
  6  7  2  0
  7  8  1  0
  8  9  2  0
  2 10  1  0
 10 11  2  0
 11 12  1  0
 12 13  1  0
 13 14  2  0
 14 15  1  0
 15 16  2  0
 16 17  1  0
 17 18  1  0
 17 19  1  0
 17 20  1  0
 16 21  1  0
 21 22  2  0
 12 23  1  0
 23 24  1  0
 24 25  1  0
 25 26  1  0
 26 27  1  0
 27 28  1  0
 28 29  1  0
 29 30  1  0
 24 31  1  0
  9  4  1  0
 31 10  1  0
 22 13  1  0
  3 32  1  0
  5 33  1  0
  6 34  1  0
  7 35  1  0
  8 36  1  0
  9 37  1  0
 11 38  1  0
 12 39  1  0
 14 40  1  0
 15 41  1  0
 21 42  1  0
 22 43  1  0
 23 44  1  0
 23 45  1  0
 24 46  1  0
 26 47  1  0
 26 48  1  0
 27 49  1  0
 27 50  1  0
 28 51  1  0
 28 52  1  0
 29 53  1  0
 29 54  1  0
 30 55  1  0
M  END
$$$$
