
     RDKit          3D

 41 43  0  0  0  0  0  0  0  0999 V2000
   -1.2496    0.2719    2.1315 C   0  0  0  0  0  0  0  0  0  0  0  0
   -2.2085    0.2187    0.9696 C   0  0  0  0  0  0  0  0  0  0  0  0
   -3.4793   -0.1734    1.2051 C   0  0  0  0  0  0  0  0  0  0  0  0
   -4.5648   -0.2629    0.2209 C   0  0  0  0  0  0  0  0  0  0  0  0
   -5.6773    0.5763    0.3414 C   0  0  0  0  0  0  0  0  0  0  0  0
   -6.7202    0.4984   -0.5838 C   0  0  0  0  0  0  0  0  0  0  0  0
   -6.6588   -0.4220   -1.6294 C   0  0  0  0  0  0  0  0  0  0  0  0
   -5.5567   -1.2674   -1.7503 C   0  0  0  0  0  0  0  0  0  0  0  0
   -4.5130   -1.1905   -0.8262 C   0  0  0  0  0  0  0  0  0  0  0  0
   -1.7812    0.7267   -0.3310 C   0  0  0  0  0  0  0  0  0  0  0  0
   -0.5892    0.6873   -0.9473 C   0  0  0  0  0  0  0  0  0  0  0  0
   -0.3573    1.4615   -2.4936 S   0  0  0  0  0  0  0  0  0  0  0  0
    1.3499    1.0505   -2.5758 C   0  0  0  0  0  0  0  0  0  0  0  0
    2.3327    1.4553   -3.8612 S   0  0  0  0  0  0  0  0  0  0  0  0
    1.6762    0.3317   -1.4481 N   0  0  0  0  0  0  0  0  0  0  0  0
    2.9832   -0.1356   -1.2007 N   0  0  0  0  0  0  0  0  0  0  0  0
    3.7841    0.6955   -0.4344 C   0  0  0  0  0  0  0  0  0  0  0  0
    3.4836    1.8489   -0.1429 O   0  0  0  0  0  0  0  0  0  0  0  0
    5.0469    0.0992    0.0726 C   0  0  0  0  0  0  0  0  0  0  0  0
    5.6922   -0.9430   -0.5945 C   0  0  0  0  0  0  0  0  0  0  0  0
    6.8668   -1.4285   -0.0475 C   0  0  0  0  0  0  0  0  0  0  0  0
    7.4181   -0.9517    1.0883 N   0  0  0  0  0  0  0  0  0  0  0  0
    6.7817    0.0688    1.7021 C   0  0  0  0  0  0  0  0  0  0  0  0
    5.6065    0.6268    1.2365 C   0  0  0  0  0  0  0  0  0  0  0  0
    0.6800    0.0159   -0.5387 C   0  0  0  0  0  0  0  0  0  0  0  0
    0.8196   -0.7602    0.3964 O   0  0  0  0  0  0  0  0  0  0  0  0
   -1.7782    0.4674    3.0723 H   0  0  0  0  0  0  0  0  0  0  0  0
   -0.5178    1.0787    2.0182 H   0  0  0  0  0  0  0  0  0  0  0  0
   -0.7264   -0.6810    2.2485 H   0  0  0  0  0  0  0  0  0  0  0  0
   -3.7752   -0.4769    2.2083 H   0  0  0  0  0  0  0  0  0  0  0  0
   -5.7363    1.2996    1.1513 H   0  0  0  0  0  0  0  0  0  0  0  0
   -7.5805    1.1558   -0.4883 H   0  0  0  0  0  0  0  0  0  0  0  0
   -7.4715   -0.4823   -2.3487 H   0  0  0  0  0  0  0  0  0  0  0  0
   -5.5108   -1.9884   -2.5622 H   0  0  0  0  0  0  0  0  0  0  0  0
   -3.6616   -1.8596   -0.9253 H   0  0  0  0  0  0  0  0  0  0  0  0
   -2.5888    1.2289   -0.8703 H   0  0  0  0  0  0  0  0  0  0  0  0
    3.0409   -1.1367   -1.0384 H   0  0  0  0  0  0  0  0  0  0  0  0
    5.3250   -1.3562   -1.5262 H   0  0  0  0  0  0  0  0  0  0  0  0
    7.4184   -2.2345   -0.5243 H   0  0  0  0  0  0  0  0  0  0  0  0
    7.2587    0.4376    2.6061 H   0  0  0  0  0  0  0  0  0  0  0  0
    5.1386    1.4494    1.7680 H   0  0  0  0  0  0  0  0  0  0  0  0
  1  2  1  0
  2  3  2  3
  3  4  1  0
  4  5  2  0
  5  6  1  0
  6  7  2  0
  7  8  1  0
  8  9  2  0
  2 10  1  0
 10 11  2  3
 11 12  1  0
 12 13  1  0
 13 14  2  0
 13 15  1  0
 15 16  1  0
 16 17  1  0
 17 18  2  0
 17 19  1  0
 19 20  2  0
 20 21  1  0
 21 22  2  0
 22 23  1  0
 23 24  2  0
 15 25  1  0
 25 26  2  0
  9  4  1  0
 25 11  1  0
 24 19  1  0
  1 27  1  0
  1 28  1  0
  1 29  1  0
  3 30  1  0
  5 31  1  0
  6 32  1  0
  7 33  1  0
  8 34  1  0
  9 35  1  0
 10 36  1  0
 16 37  1  0
 20 38  1  0
 21 39  1  0
 23 40  1  0
 24 41  1  0
M  END
$$$$
