
     RDKit          3D

 56 59  0  0  0  0  0  0  0  0999 V2000
    4.4607   -4.5775   -0.2027 C   0  0  0  0  0  0  0  0  0  0  0  0
    4.1582   -3.4212   -0.9754 O   0  0  0  0  0  0  0  0  0  0  0  0
    3.8346   -2.2875   -0.2839 C   0  0  0  0  0  0  0  0  0  0  0  0
    3.8970   -2.1236    1.1017 C   0  0  0  0  0  0  0  0  0  0  0  0
    3.5296   -0.9036    1.6797 C   0  0  0  0  0  0  0  0  0  0  0  0
    3.0979    0.1556    0.8811 C   0  0  0  0  0  0  0  0  0  0  0  0
    2.6824    1.3880    1.4828 N   0  0  0  0  0  0  0  0  0  0  0  0
    1.1737    1.3648    2.2854 S   0  0  0  0  0  6  0  0  0  0  0  0
    1.0807    0.1625    3.0907 O   0  0  0  0  0  0  0  0  0  0  0  0
    0.9690    2.6627    2.8962 O   0  0  0  0  0  0  0  0  0  0  0  0
    0.0169    1.2218    0.9373 C   0  0  0  0  0  0  0  0  0  0  0  0
   -0.9180    0.1723    0.9983 C   0  0  0  0  0  0  0  0  0  0  0  0
   -1.8472   -0.0110   -0.0259 C   0  0  0  0  0  0  0  0  0  0  0  0
   -2.7425   -1.0948    0.0992 N   0  0  0  0  0  0  0  0  0  0  0  0
   -3.7031   -1.5020   -0.8072 C   0  0  0  0  0  0  0  0  0  0  0  0
   -3.9585   -0.9554   -1.8763 O   0  0  0  0  0  0  0  0  0  0  0  0
   -4.5331   -2.6764   -0.4285 C   0  0  0  0  0  0  0  0  0  0  0  0
   -5.8519   -2.7147   -0.9067 C   0  0  0  0  0  0  0  0  0  0  0  0
   -6.6821   -3.7867   -0.5859 C   0  0  0  0  0  0  0  0  0  0  0  0
   -6.1685   -4.7990    0.2060 C   0  0  0  0  0  0  0  0  0  0  0  0
   -4.9040   -4.8074    0.6759 N   0  0  0  0  0  0  0  0  0  0  0  0
   -4.1136   -3.7563    0.3411 C   0  0  0  0  0  0  0  0  0  0  0  0
   -2.5204   -3.9490    0.9688 Cl  0  0  0  0  0  0  0  0  0  0  0  0
   -1.8384    0.8789   -1.0954 C   0  0  0  0  0  0  0  0  0  0  0  0
   -0.9037    1.9243   -1.1528 C   0  0  0  0  0  0  0  0  0  0  0  0
    0.0651    2.1121   -0.1550 C   0  0  0  0  0  0  0  0  0  0  0  0
    1.0060    3.1608   -0.2131 N   0  0  0  0  0  0  0  0  0  0  0  0
    1.5722    3.5384   -1.5315 C   0  0  0  0  0  0  0  0  0  0  0  0
    1.5291    5.0638   -1.5718 C   0  0  0  0  0  0  0  0  0  0  0  0
    0.3360    5.3991   -0.7003 C   0  0  0  0  0  0  0  0  0  0  0  0
    0.4735    4.3925    0.4339 C   0  0  0  0  0  0  0  0  0  0  0  0
    3.0419   -0.0019   -0.5020 C   0  0  0  0  0  0  0  0  0  0  0  0
    3.4119   -1.2188   -1.0804 C   0  0  0  0  0  0  0  0  0  0  0  0
    4.6470   -5.4024   -0.8998 H   0  0  0  0  0  0  0  0  0  0  0  0
    3.6126   -4.8639    0.4357 H   0  0  0  0  0  0  0  0  0  0  0  0
    5.3707   -4.4277    0.3929 H   0  0  0  0  0  0  0  0  0  0  0  0
    4.2237   -2.9213    1.7635 H   0  0  0  0  0  0  0  0  0  0  0  0
    3.5754   -0.7904    2.7586 H   0  0  0  0  0  0  0  0  0  0  0  0
    2.6232    2.1722    0.8233 H   0  0  0  0  0  0  0  0  0  0  0  0
   -0.9076   -0.5040    1.8512 H   0  0  0  0  0  0  0  0  0  0  0  0
   -2.6253   -1.6549    0.9383 H   0  0  0  0  0  0  0  0  0  0  0  0
   -6.2350   -1.9068   -1.5311 H   0  0  0  0  0  0  0  0  0  0  0  0
   -7.7040   -3.8289   -0.9482 H   0  0  0  0  0  0  0  0  0  0  0  0
   -6.7739   -5.6570    0.4871 H   0  0  0  0  0  0  0  0  0  0  0  0
   -2.5520    0.8006   -1.9103 H   0  0  0  0  0  0  0  0  0  0  0  0
   -0.9765    2.6035   -1.9983 H   0  0  0  0  0  0  0  0  0  0  0  0
    2.6092    3.1907   -1.6031 H   0  0  0  0  0  0  0  0  0  0  0  0
    1.0317    3.1210   -2.3870 H   0  0  0  0  0  0  0  0  0  0  0  0
    2.4453    5.4793   -1.1347 H   0  0  0  0  0  0  0  0  0  0  0  0
    1.4316    5.4507   -2.5892 H   0  0  0  0  0  0  0  0  0  0  0  0
    0.3467    6.4339   -0.3445 H   0  0  0  0  0  0  0  0  0  0  0  0
   -0.5970    5.2293   -1.2501 H   0  0  0  0  0  0  0  0  0  0  0  0
    1.2194    4.7482    1.1553 H   0  0  0  0  0  0  0  0  0  0  0  0
   -0.4790    4.2542    0.9618 H   0  0  0  0  0  0  0  0  0  0  0  0
    2.7031    0.8032   -1.1473 H   0  0  0  0  0  0  0  0  0  0  0  0
    3.3595   -1.3402   -2.1620 H   0  0  0  0  0  0  0  0  0  0  0  0
  1  2  1  0
  2  3  1  0
  3  4  2  0
  4  5  1  0
  5  6  2  0
  6  7  1  0
  7  8  1  0
  8  9  2  0
  8 10  2  0
  8 11  1  0
 11 12  2  0
 12 13  1  0
 13 14  1  0
 14 15  1  0
 15 16  2  0
 15 17  1  0
 17 18  2  0
 18 19  1  0
 19 20  2  0
 20 21  1  0
 21 22  2  0
 22 23  1  0
 13 24  2  0
 24 25  1  0
 25 26  2  0
 26 27  1  0
 27 28  1  0
 28 29  1  0
 29 30  1  0
 30 31  1  0
  6 32  1  0
 32 33  2  0
 33  3  1  0
 26 11  1  0
 31 27  1  0
 22 17  1  0
  1 34  1  0
  1 35  1  0
  1 36  1  0
  4 37  1  0
  5 38  1  0
  7 39  1  0
 12 40  1  0
 14 41  1  0
 18 42  1  0
 19 43  1  0
 20 44  1  0
 24 45  1  0
 25 46  1  0
 28 47  1  0
 28 48  1  0
 29 49  1  0
 29 50  1  0
 30 51  1  0
 30 52  1  0
 31 53  1  0
 31 54  1  0
 32 55  1  0
 33 56  1  0
M  END
$$$$
