
     RDKit          3D

 43 45  0  0  0  0  0  0  0  0999 V2000
   -3.1192   -3.0625   -0.3206 C   0  0  0  0  0  0  0  0  0  0  0  0
   -2.9289   -2.3392   -1.6515 C   0  0  0  0  0  0  0  0  0  0  0  0
   -3.7796   -2.9959   -2.7377 C   0  0  0  0  0  0  0  0  0  0  0  0
   -1.1721   -2.4112   -2.1811 S   0  0  0  0  0  0  0  0  0  0  0  0
   -0.4107   -1.2050   -1.1023 C   0  0  0  0  0  0  0  0  0  0  0  0
    0.9653   -1.1698   -1.0284 C   0  0  0  0  0  0  0  0  0  0  0  0
    1.5371   -0.2223   -0.2036 C   0  0  0  0  0  0  0  0  0  0  0  0
    2.9170   -0.1357   -0.0577 N   0  0  0  0  0  0  0  0  0  0  0  0
    3.4145    0.8075    0.9581 C   0  0  0  0  0  0  0  0  0  0  0  0
    4.9452    0.7041    1.0419 C   0  0  0  0  0  0  0  0  0  0  0  0
    5.6190    1.0169   -0.1878 O   0  0  0  0  0  0  0  0  0  0  0  0
    4.7897    0.8587   -1.3466 C   0  0  0  0  0  0  0  0  0  0  0  0
    3.7865   -0.3027   -1.2369 C   0  0  0  0  0  0  0  0  0  0  0  0
    0.7598    0.6057    0.5141 N   0  0  0  0  0  0  0  0  0  0  0  0
   -0.5759    0.5127    0.3797 C   0  0  0  0  0  0  0  0  0  0  0  0
   -1.4138    1.4413    1.1680 C   0  0  0  0  0  0  0  0  0  0  0  0
   -2.8213    1.4099    1.0908 C   0  0  0  0  0  0  0  0  0  0  0  0
   -3.6170    2.2877    1.8367 C   0  0  0  0  0  0  0  0  0  0  0  0
   -3.0170    3.2183    2.6782 C   0  0  0  0  0  0  0  0  0  0  0  0
   -3.9913    4.2982    3.5959 Cl  0  0  0  0  0  0  0  0  0  0  0  0
   -1.6313    3.2780    2.7794 C   0  0  0  0  0  0  0  0  0  0  0  0
   -0.8408    2.3975    2.0310 C   0  0  0  0  0  0  0  0  0  0  0  0
   -1.1982   -0.3655   -0.4190 N   0  0  0  0  0  0  0  0  0  0  0  0
   -4.1721   -3.0297   -0.0188 H   0  0  0  0  0  0  0  0  0  0  0  0
   -2.8297   -4.1175   -0.3866 H   0  0  0  0  0  0  0  0  0  0  0  0
   -2.5396   -2.5999    0.4846 H   0  0  0  0  0  0  0  0  0  0  0  0
   -3.2474   -1.2954   -1.5621 H   0  0  0  0  0  0  0  0  0  0  0  0
   -4.8405   -2.9562   -2.4657 H   0  0  0  0  0  0  0  0  0  0  0  0
   -3.6711   -2.4776   -3.6971 H   0  0  0  0  0  0  0  0  0  0  0  0
   -3.5172   -4.0501   -2.8833 H   0  0  0  0  0  0  0  0  0  0  0  0
    1.5681   -1.8793   -1.5791 H   0  0  0  0  0  0  0  0  0  0  0  0
    2.9910    0.5707    1.9413 H   0  0  0  0  0  0  0  0  0  0  0  0
    3.1330    1.8338    0.6895 H   0  0  0  0  0  0  0  0  0  0  0  0
    5.2415   -0.3122    1.3269 H   0  0  0  0  0  0  0  0  0  0  0  0
    5.3290    1.3845    1.8086 H   0  0  0  0  0  0  0  0  0  0  0  0
    5.4517    0.7013   -2.2043 H   0  0  0  0  0  0  0  0  0  0  0  0
    4.2620    1.8052   -1.5140 H   0  0  0  0  0  0  0  0  0  0  0  0
    3.2199   -0.3502   -2.1737 H   0  0  0  0  0  0  0  0  0  0  0  0
    4.3319   -1.2462   -1.1200 H   0  0  0  0  0  0  0  0  0  0  0  0
   -3.3145    0.6903    0.4386 H   0  0  0  0  0  0  0  0  0  0  0  0
   -4.6992    2.2360    1.7528 H   0  0  0  0  0  0  0  0  0  0  0  0
   -1.1560    4.0028    3.4349 H   0  0  0  0  0  0  0  0  0  0  0  0
    0.2423    2.4630    2.1268 H   0  0  0  0  0  0  0  0  0  0  0  0
  1  2  1  0
  2  3  1  0
  2  4  1  0
  4  5  1  0
  5  6  2  0
  6  7  1  0
  7  8  1  0
  8  9  1  0
  9 10  1  0
 10 11  1  0
 11 12  1  0
 12 13  1  0
  7 14  2  0
 14 15  1  0
 15 16  1  0
 16 17  2  0
 17 18  1  0
 18 19  2  0
 19 20  1  0
 19 21  1  0
 21 22  2  0
 15 23  2  0
 23  5  1  0
 13  8  1  0
 22 16  1  0
  1 24  1  0
  1 25  1  0
  1 26  1  0
  2 27  1  0
  3 28  1  0
  3 29  1  0
  3 30  1  0
  6 31  1  0
  9 32  1  0
  9 33  1  0
 10 34  1  0
 10 35  1  0
 12 36  1  0
 12 37  1  0
 13 38  1  0
 13 39  1  0
 17 40  1  0
 18 41  1  0
 21 42  1  0
 22 43  1  0
M  END
$$$$
