
     RDKit          3D

 47 50  0  0  0  0  0  0  0  0999 V2000
    3.5449   -1.6554   -0.6114 C   0  0  0  0  0  0  0  0  0  0  0  0
    2.4567   -1.1318    0.1816 N   0  0  0  0  0  0  0  0  0  0  0  0
    2.4937   -0.0133    0.9936 C   0  0  0  0  0  0  0  0  0  0  0  0
    3.6627    0.8113    1.2659 C   0  0  0  0  0  0  0  0  0  0  0  0
    3.6818    2.1544    0.8730 C   0  0  0  0  0  0  0  0  0  0  0  0
    4.7989    2.9503    1.1353 C   0  0  0  0  0  0  0  0  0  0  0  0
    5.9005    2.4103    1.7975 C   0  0  0  0  0  0  0  0  0  0  0  0
    5.8859    1.0759    2.2005 C   0  0  0  0  0  0  0  0  0  0  0  0
    4.7699    0.2789    1.9377 C   0  0  0  0  0  0  0  0  0  0  0  0
    1.1919    0.1200    1.4418 C   0  0  0  0  0  0  0  0  0  0  0  0
    0.3883   -0.8800    0.9648 N   0  0  0  0  0  0  0  0  0  0  0  0
    1.1773   -1.6250    0.2279 C   0  0  0  0  0  0  0  0  0  0  0  0
    0.6846   -3.0659   -0.5992 S   0  0  0  0  0  0  0  0  0  0  0  0
   -1.0594   -2.6518   -0.9395 C   0  0  0  0  0  0  0  0  0  0  0  0
   -1.1650   -1.4225   -1.8415 C   0  0  0  0  0  0  0  0  0  0  0  0
   -0.3919   -1.2689   -2.7957 O   0  0  0  0  0  0  0  0  0  0  0  0
   -2.1039   -0.4437   -1.5066 N   0  0  0  0  0  0  0  0  0  0  0  0
   -1.7887    0.9289   -1.8968 C   0  0  0  0  0  0  0  0  0  0  0  0
   -2.0127    1.8775   -0.7325 C   0  0  0  0  0  0  0  0  0  0  0  0
   -3.4754    1.8444   -0.3239 C   0  0  0  0  0  0  0  0  0  0  0  0
   -4.0342    0.4439   -0.2756 C   0  0  0  0  0  0  0  0  0  0  0  0
   -5.2838    0.2557    0.3416 C   0  0  0  0  0  0  0  0  0  0  0  0
   -5.8835   -0.9996    0.3637 C   0  0  0  0  0  0  0  0  0  0  0  0
   -5.2533   -2.0719   -0.2545 C   0  0  0  0  0  0  0  0  0  0  0  0
   -4.0133   -1.8942   -0.8760 C   0  0  0  0  0  0  0  0  0  0  0  0
   -3.3681   -0.6493   -0.8693 C   0  0  0  0  0  0  0  0  0  0  0  0
    4.3363   -0.9095   -0.7091 H   0  0  0  0  0  0  0  0  0  0  0  0
    3.1794   -1.8953   -1.6132 H   0  0  0  0  0  0  0  0  0  0  0  0
    3.9315   -2.5487   -0.1147 H   0  0  0  0  0  0  0  0  0  0  0  0
    2.8301    2.5870    0.3532 H   0  0  0  0  0  0  0  0  0  0  0  0
    4.8084    3.9914    0.8235 H   0  0  0  0  0  0  0  0  0  0  0  0
    6.7688    3.0311    2.0034 H   0  0  0  0  0  0  0  0  0  0  0  0
    6.7411    0.6569    2.7245 H   0  0  0  0  0  0  0  0  0  0  0  0
    4.7656   -0.7563    2.2707 H   0  0  0  0  0  0  0  0  0  0  0  0
    0.8002    0.8858    2.0991 H   0  0  0  0  0  0  0  0  0  0  0  0
   -1.5088   -3.5031   -1.4579 H   0  0  0  0  0  0  0  0  0  0  0  0
   -1.5602   -2.5061    0.0200 H   0  0  0  0  0  0  0  0  0  0  0  0
   -0.7432    1.0079   -2.2154 H   0  0  0  0  0  0  0  0  0  0  0  0
   -2.4142    1.1915   -2.7589 H   0  0  0  0  0  0  0  0  0  0  0  0
   -1.7218    2.8983   -1.0032 H   0  0  0  0  0  0  0  0  0  0  0  0
   -1.3856    1.5742    0.1153 H   0  0  0  0  0  0  0  0  0  0  0  0
   -4.0666    2.4204   -1.0470 H   0  0  0  0  0  0  0  0  0  0  0  0
   -3.5840    2.3279    0.6543 H   0  0  0  0  0  0  0  0  0  0  0  0
   -5.7976    1.0967    0.8028 H   0  0  0  0  0  0  0  0  0  0  0  0
   -6.8495   -1.1349    0.8429 H   0  0  0  0  0  0  0  0  0  0  0  0
   -5.7327   -3.0475   -0.2704 H   0  0  0  0  0  0  0  0  0  0  0  0
   -3.6013   -2.7461   -1.4048 H   0  0  0  0  0  0  0  0  0  0  0  0
  1  2  1  0
  2  3  1  0
  3  4  1  0
  4  5  2  0
  5  6  1  0
  6  7  2  0
  7  8  1  0
  8  9  2  0
  3 10  2  0
 10 11  1  0
 11 12  2  0
 12 13  1  0
 13 14  1  0
 14 15  1  0
 15 16  2  0
 15 17  1  0
 17 18  1  0
 18 19  1  0
 19 20  1  0
 20 21  1  0
 21 22  2  0
 22 23  1  0
 23 24  2  0
 24 25  1  0
 25 26  2  0
 12  2  1  0
 26 17  1  0
  9  4  1  0
 26 21  1  0
  1 27  1  0
  1 28  1  0
  1 29  1  0
  5 30  1  0
  6 31  1  0
  7 32  1  0
  8 33  1  0
  9 34  1  0
 10 35  1  0
 14 36  1  0
 14 37  1  0
 18 38  1  0
 18 39  1  0
 19 40  1  0
 19 41  1  0
 20 42  1  0
 20 43  1  0
 22 44  1  0
 23 45  1  0
 24 46  1  0
 25 47  1  0
M  END
$$$$
