
     RDKit          3D

 52 54  0  0  0  0  0  0  0  0999 V2000
   -4.2604    2.8566   -2.1619 C   0  0  0  0  0  0  0  0  0  0  0  0
   -3.1230    1.8780   -1.8088 C   0  0  0  0  0  0  0  0  0  0  0  0
   -2.0251    2.0343   -2.8774 C   0  0  0  0  0  0  0  0  0  0  0  0
   -2.5798    2.2518   -0.3994 C   0  0  0  0  0  0  0  0  0  0  0  0
   -1.7244    1.1602    0.1776 C   0  0  0  0  0  0  0  0  0  0  0  0
   -1.8793   -0.1375   -0.2831 C   0  0  0  0  0  0  0  0  0  0  0  0
   -0.7492   -1.1920    0.4298 S   0  0  0  0  0  0  0  0  0  0  0  0
   -0.0513    0.0418    1.3519 C   0  0  0  0  0  0  0  0  0  0  0  0
    1.0393   -0.1945    2.1788 N   0  0  0  0  0  0  0  0  0  0  0  0
    1.7465   -1.3784    2.3310 C   0  0  0  0  0  0  0  0  0  0  0  0
    1.5083   -2.4557    1.7941 O   0  0  0  0  0  0  0  0  0  0  0  0
    2.9434   -1.1996    3.2858 C   0  0  0  0  0  0  0  0  0  0  0  0
    3.9909   -2.1492    3.1755 O   0  0  0  0  0  0  0  0  0  0  0  0
    4.7130   -2.1919    2.0110 C   0  0  0  0  0  0  0  0  0  0  0  0
    4.7460   -1.1634    1.0618 C   0  0  0  0  0  0  0  0  0  0  0  0
    5.5146   -1.2986   -0.1008 C   0  0  0  0  0  0  0  0  0  0  0  0
    6.2582   -2.4569   -0.3151 C   0  0  0  0  0  0  0  0  0  0  0  0
    7.1981   -2.6149   -1.7490 Cl  0  0  0  0  0  0  0  0  0  0  0  0
    6.2497   -3.4833    0.6254 C   0  0  0  0  0  0  0  0  0  0  0  0
    5.4826   -3.3476    1.7841 C   0  0  0  0  0  0  0  0  0  0  0  0
    5.5113   -4.6485    2.9264 Cl  0  0  0  0  0  0  0  0  0  0  0  0
   -0.6936    1.2645    1.1904 C   0  0  0  0  0  0  0  0  0  0  0  0
   -0.2743    2.4368    1.9613 C   0  0  0  0  0  0  0  0  0  0  0  0
   -1.1749    3.4551    2.0881 N   0  0  0  0  0  0  0  0  0  0  0  0
    0.8087    2.4987    2.5415 O   0  0  0  0  0  0  0  0  0  0  0  0
   -2.8984   -0.5986   -1.3153 C   0  0  0  0  0  0  0  0  0  0  0  0
   -2.2365   -1.3267   -2.5005 C   0  0  0  0  0  0  0  0  0  0  0  0
   -3.9130   -1.5556   -0.6550 C   0  0  0  0  0  0  0  0  0  0  0  0
   -3.7212    0.5307   -1.8196 N   0  0  0  0  0  0  0  0  0  0  0  0
   -3.9043    3.8941   -2.1505 H   0  0  0  0  0  0  0  0  0  0  0  0
   -5.0887    2.7855   -1.4455 H   0  0  0  0  0  0  0  0  0  0  0  0
   -4.6663    2.6564   -3.1616 H   0  0  0  0  0  0  0  0  0  0  0  0
   -1.1266    1.4564   -2.6430 H   0  0  0  0  0  0  0  0  0  0  0  0
   -2.3820    1.7191   -3.8649 H   0  0  0  0  0  0  0  0  0  0  0  0
   -1.7136    3.0815   -2.9642 H   0  0  0  0  0  0  0  0  0  0  0  0
   -3.4173    2.4231    0.2897 H   0  0  0  0  0  0  0  0  0  0  0  0
   -2.0083    3.1857   -0.4683 H   0  0  0  0  0  0  0  0  0  0  0  0
    1.3706    0.6344    2.6730 H   0  0  0  0  0  0  0  0  0  0  0  0
    3.3480   -0.1829    3.2324 H   0  0  0  0  0  0  0  0  0  0  0  0
    2.5347   -1.3081    4.2977 H   0  0  0  0  0  0  0  0  0  0  0  0
    4.1909   -0.2402    1.1898 H   0  0  0  0  0  0  0  0  0  0  0  0
    5.5258   -0.4955   -0.8340 H   0  0  0  0  0  0  0  0  0  0  0  0
    6.8332   -4.3842    0.4579 H   0  0  0  0  0  0  0  0  0  0  0  0
   -2.1587    3.2835    1.9391 H   0  0  0  0  0  0  0  0  0  0  0  0
   -0.9352    4.1670    2.7654 H   0  0  0  0  0  0  0  0  0  0  0  0
   -1.7598   -2.2615   -2.1828 H   0  0  0  0  0  0  0  0  0  0  0  0
   -1.4632   -0.7225   -2.9822 H   0  0  0  0  0  0  0  0  0  0  0  0
   -2.9734   -1.5959   -3.2667 H   0  0  0  0  0  0  0  0  0  0  0  0
   -4.4000   -1.0885    0.2106 H   0  0  0  0  0  0  0  0  0  0  0  0
   -4.7000   -1.8558   -1.3583 H   0  0  0  0  0  0  0  0  0  0  0  0
   -3.4321   -2.4745   -0.3008 H   0  0  0  0  0  0  0  0  0  0  0  0
   -4.0802    0.3071   -2.7462 H   0  0  0  0  0  0  0  0  0  0  0  0
  1  2  1  0
  2  3  1  0
  2  4  1  0
  4  5  1  0
  5  6  2  0
  6  7  1  0
  7  8  1  0
  8  9  1  0
  9 10  1  0
 10 11  2  0
 10 12  1  0
 12 13  1  0
 13 14  1  0
 14 15  2  0
 15 16  1  0
 16 17  2  0
 17 18  1  0
 17 19  1  0
 19 20  2  0
 20 21  1  0
  8 22  2  0
 22 23  1  0
 23 24  1  0
 23 25  2  0
  6 26  1  0
 26 27  1  0
 26 28  1  0
 26 29  1  0
 29  2  1  0
 22  5  1  0
 20 14  1  0
  1 30  1  0
  1 31  1  0
  1 32  1  0
  3 33  1  0
  3 34  1  0
  3 35  1  0
  4 36  1  0
  4 37  1  0
  9 38  1  0
 12 39  1  0
 12 40  1  0
 15 41  1  0
 16 42  1  0
 19 43  1  0
 24 44  1  0
 24 45  1  0
 27 46  1  0
 27 47  1  0
 27 48  1  0
 28 49  1  0
 28 50  1  0
 28 51  1  0
 29 52  1  0
M  END
$$$$
