
     RDKit          3D

 90 91  0  0  0  0  0  0  0  0999 V2000
    3.9770   -3.4306    0.5425 C   0  0  0  0  0  0  0  0  0  0  0  0
    3.2369   -2.2512   -0.0005 C   0  0  0  0  0  0  0  0  0  0  0  0
    2.8960   -2.1337   -1.1697 O   0  0  0  0  0  0  0  0  0  0  0  0
    3.0547   -1.3231    0.9748 O   0  0  0  0  0  0  0  0  0  0  0  0
    2.2541   -0.1516    0.6338 C   0  0  1  0  0  0  0  0  0  0  0  0
    1.2459    0.0604    1.7945 C   0  0  2  0  0  0  0  0  0  0  0  0
    2.0170    0.1779    3.0177 O   0  0  0  0  0  0  0  0  0  0  0  0
    1.5384    0.9906    3.9960 C   0  0  0  0  0  0  0  0  0  0  0  0
    2.4590    0.9636    5.1769 C   0  0  0  0  0  0  0  0  0  0  0  0
    0.5125    1.6511    3.9351 O   0  0  0  0  0  0  0  0  0  0  0  0
    0.1898   -1.0481    1.9146 C   0  0  0  0  0  0  0  0  0  0  0  0
    0.1950   -1.8569    3.1929 C   0  0  0  0  0  0  0  0  0  0  0  0
   -0.7573   -1.3344    0.9907 C   0  0  0  0  0  0  0  0  0  0  0  0
   -0.9582   -0.7893   -0.4103 C   0  0  1  0  0  0  0  0  0  0  0  0
   -0.7787   -1.8802   -1.4981 C   0  0  1  0  0  0  0  0  0  0  0  0
   -1.6734   -2.9949   -1.3082 O   0  0  0  0  0  0  0  0  0  0  0  0
   -1.1580   -4.1063   -0.7175 C   0  0  0  0  0  0  0  0  0  0  0  0
   -2.2199   -5.1607   -0.6240 C   0  0  0  0  0  0  0  0  0  0  0  0
   -0.0179   -4.2367   -0.3027 O   0  0  0  0  0  0  0  0  0  0  0  0
   -1.2212   -1.1110   -2.7466 C   0  0  1  0  0  0  0  0  0  0  0  0
   -1.4190   -1.9758   -3.9819 C   0  0  0  0  0  0  0  0  0  0  0  0
   -2.5167   -0.4222   -2.2864 C   0  0  0  0  0  0  0  0  0  0  0  0
   -2.3344   -0.1195   -0.7652 C   0  0  1  0  0  0  0  0  0  0  0  0
   -3.3237   -0.8433    0.0449 O   0  0  0  0  0  0  0  0  0  0  0  0
   -4.6529   -0.8601   -0.2160 C   0  0  0  0  0  0  0  0  0  0  0  0
   -5.3590   -1.6495    0.8452 C   0  0  0  0  0  0  0  0  0  0  0  0
   -5.2190   -0.3339   -1.1617 O   0  0  0  0  0  0  0  0  0  0  0  0
   -2.3706    1.4184   -0.4154 C   0  0  2  0  0  0  0  0  0  0  0  0
   -3.6753    1.9354   -0.7827 O   0  0  0  0  0  0  0  0  0  0  0  0
   -4.5425    2.2622    0.2088 C   0  0  0  0  0  0  0  0  0  0  0  0
   -5.8038    2.8393   -0.3653 C   0  0  0  0  0  0  0  0  0  0  0  0
   -4.3359    2.1469    1.4068 O   0  0  0  0  0  0  0  0  0  0  0  0
   -1.3024    2.3173   -1.1539 C   0  0  1  0  0  0  0  0  0  0  0  0
   -1.8420    3.7103   -1.5279 C   0  0  0  0  0  0  0  0  0  0  0  0
   -0.0478    2.5482   -0.3284 C   0  0  0  0  0  0  0  0  0  0  0  0
    1.2031    2.2798   -0.7517 C   0  0  0  0  0  0  0  0  0  0  0  0
    2.5147    2.4562    0.0241 C   0  0  0  0  0  0  0  0  0  0  0  0
    2.3567    3.2671    1.3293 C   0  0  0  0  0  0  0  0  0  0  0  0
    3.4415    3.3270   -0.8716 C   0  0  0  0  0  0  0  0  0  0  0  0
    3.2000    1.0554    0.3292 C   0  0  2  0  0  0  0  0  0  0  0  0
    3.9430    0.6831   -0.8757 O   0  0  0  0  0  0  0  0  0  0  0  0
    5.2330    0.2793   -0.7361 C   0  0  0  0  0  0  0  0  0  0  0  0
    5.7997   -0.0827   -2.0766 C   0  0  0  0  0  0  0  0  0  0  0  0
    5.8459    0.1935    0.3176 O   0  0  0  0  0  0  0  0  0  0  0  0
    3.5641   -3.7136    1.5133 H   0  0  0  0  0  0  0  0  0  0  0  0
    3.8501   -4.2779   -0.1358 H   0  0  0  0  0  0  0  0  0  0  0  0
    5.0384   -3.1880    0.6303 H   0  0  0  0  0  0  0  0  0  0  0  0
    1.7209   -0.3731   -0.2907 H   0  0  0  0  0  0  0  0  0  0  0  0
    0.6868    0.9807    1.6400 H   0  0  0  0  0  0  0  0  0  0  0  0
    2.4487   -0.0311    5.6314 H   0  0  0  0  0  0  0  0  0  0  0  0
    2.1215    1.6941    5.9179 H   0  0  0  0  0  0  0  0  0  0  0  0
    3.4712    1.2348    4.8635 H   0  0  0  0  0  0  0  0  0  0  0  0
   -0.1674   -1.2481    4.0256 H   0  0  0  0  0  0  0  0  0  0  0  0
   -0.4518   -2.7408    3.1334 H   0  0  0  0  0  0  0  0  0  0  0  0
    1.2019   -2.2210    3.4203 H   0  0  0  0  0  0  0  0  0  0  0  0
   -1.4746   -2.1147    1.2502 H   0  0  0  0  0  0  0  0  0  0  0  0
   -0.1922   -0.0495   -0.6112 H   0  0  0  0  0  0  0  0  0  0  0  0
    0.2590   -2.2140   -1.5967 H   0  0  0  0  0  0  0  0  0  0  0  0
   -3.0493   -4.7948   -0.0147 H   0  0  0  0  0  0  0  0  0  0  0  0
   -1.8036   -6.0519   -0.1434 H   0  0  0  0  0  0  0  0  0  0  0  0
   -2.5679   -5.4314   -1.6230 H   0  0  0  0  0  0  0  0  0  0  0  0
   -0.4713   -0.3437   -2.9784 H   0  0  0  0  0  0  0  0  0  0  0  0
   -0.4983   -2.5186   -4.2237 H   0  0  0  0  0  0  0  0  0  0  0  0
   -1.6808   -1.3584   -4.8468 H   0  0  0  0  0  0  0  0  0  0  0  0
   -2.2182   -2.7159   -3.8481 H   0  0  0  0  0  0  0  0  0  0  0  0
   -2.6917    0.4832   -2.8783 H   0  0  0  0  0  0  0  0  0  0  0  0
   -3.3586   -1.0932   -2.4726 H   0  0  0  0  0  0  0  0  0  0  0  0
   -6.4391   -1.5729    0.6927 H   0  0  0  0  0  0  0  0  0  0  0  0
   -5.0663   -2.7002    0.7860 H   0  0  0  0  0  0  0  0  0  0  0  0
   -5.1235   -1.2392    1.8305 H   0  0  0  0  0  0  0  0  0  0  0  0
   -2.2283    1.5190    0.6668 H   0  0  0  0  0  0  0  0  0  0  0  0
   -6.6506    2.5245    0.2487 H   0  0  0  0  0  0  0  0  0  0  0  0
   -5.9732    2.4698   -1.3820 H   0  0  0  0  0  0  0  0  0  0  0  0
   -5.7258    3.9276   -0.3812 H   0  0  0  0  0  0  0  0  0  0  0  0
   -1.0230    1.8388   -2.0989 H   0  0  0  0  0  0  0  0  0  0  0  0
   -2.2201    4.2428   -0.6462 H   0  0  0  0  0  0  0  0  0  0  0  0
   -2.6557    3.6307   -2.2593 H   0  0  0  0  0  0  0  0  0  0  0  0
   -1.0606    4.3316   -1.9819 H   0  0  0  0  0  0  0  0  0  0  0  0
   -0.2203    2.9620    0.6660 H   0  0  0  0  0  0  0  0  0  0  0  0
    1.3250    1.8776   -1.7582 H   0  0  0  0  0  0  0  0  0  0  0  0
    3.3125    3.3524    1.8603 H   0  0  0  0  0  0  0  0  0  0  0  0
    2.0007    4.2847    1.1246 H   0  0  0  0  0  0  0  0  0  0  0  0
    1.6447    2.8278    2.0218 H   0  0  0  0  0  0  0  0  0  0  0  0
    3.5750    2.8985   -1.8723 H   0  0  0  0  0  0  0  0  0  0  0  0
    4.4326    3.4422   -0.4166 H   0  0  0  0  0  0  0  0  0  0  0  0
    3.0278    4.3321   -1.0158 H   0  0  0  0  0  0  0  0  0  0  0  0
    3.9041    1.1776    1.1615 H   0  0  0  0  0  0  0  0  0  0  0  0
    5.3890   -1.0418   -2.3988 H   0  0  0  0  0  0  0  0  0  0  0  0
    6.8881   -0.1610   -2.0038 H   0  0  0  0  0  0  0  0  0  0  0  0
    5.5658    0.6947   -2.8080 H   0  0  0  0  0  0  0  0  0  0  0  0
  1  2  1  0
  2  3  2  0
  2  4  1  0
  4  5  1  0
  5  6  1  0
  6  7  1  0
  7  8  1  0
  8  9  1  0
  8 10  2  0
  6 11  1  0
 11 12  1  0
 11 13  2  0
 13 14  1  0
 14 15  1  0
 15 16  1  0
 16 17  1  0
 17 18  1  0
 17 19  2  0
 15 20  1  0
 20 21  1  0
 20 22  1  0
 22 23  1  0
 23 24  1  1
 24 25  1  0
 25 26  1  0
 25 27  2  0
 23 28  1  0
 28 29  1  0
 29 30  1  0
 30 31  1  0
 30 32  2  0
 28 33  1  0
 33 34  1  0
 33 35  1  0
 35 36  2  0
 36 37  1  0
 37 38  1  0
 37 39  1  0
 37 40  1  0
 40 41  1  0
 41 42  1  0
 42 43  1  0
 42 44  2  0
 40  5  1  0
 23 14  1  0
  1 45  1  0
  1 46  1  0
  1 47  1  0
  5 48  1  6
  6 49  1  6
  9 50  1  0
  9 51  1  0
  9 52  1  0
 12 53  1  0
 12 54  1  0
 12 55  1  0
 13 56  1  0
 14 57  1  6
 15 58  1  6
 18 59  1  0
 18 60  1  0
 18 61  1  0
 20 62  1  6
 21 63  1  0
 21 64  1  0
 21 65  1  0
 22 66  1  0
 22 67  1  0
 26 68  1  0
 26 69  1  0
 26 70  1  0
 28 71  1  1
 31 72  1  0
 31 73  1  0
 31 74  1  0
 33 75  1  6
 34 76  1  0
 34 77  1  0
 34 78  1  0
 35 79  1  0
 36 80  1  0
 38 81  1  0
 38 82  1  0
 38 83  1  0
 39 84  1  0
 39 85  1  0
 39 86  1  0
 40 87  1  1
 43 88  1  0
 43 89  1  0
 43 90  1  0
M  END
$$$$
