
     RDKit          3D

 39 42  0  0  0  0  0  0  0  0999 V2000
   -0.8588   -3.4787    2.0655 N   0  0  0  0  0  0  0  0  0  0  0  0
   -0.5632   -2.4520    2.5192 C   0  0  0  0  0  0  0  0  0  0  0  0
   -0.1882   -1.1311    3.0409 C   0  0  0  0  0  0  0  0  0  0  0  0
   -1.0051    0.2378    2.1594 S   0  0  0  0  0  0  0  0  0  0  0  0
   -0.5150   -0.1739    0.5174 C   0  0  0  0  0  0  0  0  0  0  0  0
    0.7648   -0.3097    0.3521 N   0  0  0  0  0  0  0  0  0  0  0  0
    1.1752   -0.7217   -0.8763 C   0  0  0  0  0  0  0  0  0  0  0  0
    0.3620   -1.0369   -1.8800 C   0  0  0  0  0  0  0  0  0  0  0  0
    1.1737   -1.5402   -3.2998 S   0  0  0  0  0  0  0  0  0  0  0  0
    2.7487   -1.3180   -2.4963 C   0  0  0  0  0  0  0  0  0  0  0  0
    4.1944   -1.6378   -3.2576 S   0  0  0  0  0  0  0  0  0  0  0  0
    2.5150   -0.8741   -1.1903 N   0  0  0  0  0  0  0  0  0  0  0  0
    3.5649   -0.5150   -0.2372 C   0  0  0  0  0  0  0  0  0  0  0  0
    3.8165    0.9510   -0.2876 C   0  0  0  0  0  0  0  0  0  0  0  0
    3.2931    2.0292    0.3979 C   0  0  0  0  0  0  0  0  0  0  0  0
    3.9433    3.1798   -0.1089 C   0  0  0  0  0  0  0  0  0  0  0  0
    4.8222    2.7323   -1.0665 C   0  0  0  0  0  0  0  0  0  0  0  0
    4.7543    1.3818   -1.1795 O   0  0  0  0  0  0  0  0  0  0  0  0
   -1.0903   -0.8993   -1.7215 C   0  0  0  0  0  0  0  0  0  0  0  0
   -1.8440   -1.1705   -2.6538 O   0  0  0  0  0  0  0  0  0  0  0  0
   -1.4826   -0.4024   -0.4680 N   0  0  0  0  0  0  0  0  0  0  0  0
   -2.8807   -0.1472   -0.2719 C   0  0  0  0  0  0  0  0  0  0  0  0
   -3.3312    1.1052    0.1790 C   0  0  0  0  0  0  0  0  0  0  0  0
   -4.6963    1.3485    0.3552 C   0  0  0  0  0  0  0  0  0  0  0  0
   -5.6152    0.3469    0.0699 C   0  0  0  0  0  0  0  0  0  0  0  0
   -6.9223    0.5825    0.2403 F   0  0  0  0  0  0  0  0  0  0  0  0
   -5.1962   -0.8915   -0.3967 C   0  0  0  0  0  0  0  0  0  0  0  0
   -3.8318   -1.1363   -0.5743 C   0  0  0  0  0  0  0  0  0  0  0  0
    0.8968   -0.9942    2.9905 H   0  0  0  0  0  0  0  0  0  0  0  0
   -0.4699   -1.0581    4.0962 H   0  0  0  0  0  0  0  0  0  0  0  0
    3.2631   -0.8224    0.7709 H   0  0  0  0  0  0  0  0  0  0  0  0
    4.4864   -1.0609   -0.4625 H   0  0  0  0  0  0  0  0  0  0  0  0
    2.5308    1.9866    1.1633 H   0  0  0  0  0  0  0  0  0  0  0  0
    3.7912    4.2094    0.1838 H   0  0  0  0  0  0  0  0  0  0  0  0
    5.5297    3.2203   -1.7228 H   0  0  0  0  0  0  0  0  0  0  0  0
   -2.6342    1.9180    0.3693 H   0  0  0  0  0  0  0  0  0  0  0  0
   -5.0481    2.3152    0.7022 H   0  0  0  0  0  0  0  0  0  0  0  0
   -5.9299   -1.6585   -0.6245 H   0  0  0  0  0  0  0  0  0  0  0  0
   -3.5231   -2.1143   -0.9399 H   0  0  0  0  0  0  0  0  0  0  0  0
  1  2  3  0
  2  3  1  0
  3  4  1  0
  4  5  1  0
  5  6  2  0
  6  7  1  0
  7  8  2  0
  8  9  1  0
  9 10  1  0
 10 11  2  0
 10 12  1  0
 12 13  1  0
 13 14  1  0
 14 15  2  0
 15 16  1  0
 16 17  2  0
 17 18  1  0
  8 19  1  0
 19 20  2  0
 19 21  1  0
 21 22  1  0
 22 23  2  0
 23 24  1  0
 24 25  2  0
 25 26  1  0
 25 27  1  0
 27 28  2  0
 21  5  1  0
 28 22  1  0
 12  7  1  0
 18 14  1  0
  3 29  1  0
  3 30  1  0
 13 31  1  0
 13 32  1  0
 15 33  1  0
 16 34  1  0
 17 35  1  0
 23 36  1  0
 24 37  1  0
 27 38  1  0
 28 39  1  0
M  END
$$$$
