
     RDKit          3D

 49 52  0  0  0  0  0  0  0  0999 V2000
   -3.2012   -5.0951   -0.9362 C   0  0  0  0  0  0  0  0  0  0  0  0
   -3.0811   -4.1943   -2.0294 O   0  0  0  0  0  0  0  0  0  0  0  0
   -2.4835   -2.9907   -1.7746 C   0  0  0  0  0  0  0  0  0  0  0  0
   -2.3753   -2.1459   -2.8799 C   0  0  0  0  0  0  0  0  0  0  0  0
   -1.7834   -0.8854   -2.7609 C   0  0  0  0  0  0  0  0  0  0  0  0
   -1.2846   -0.4425   -1.5272 C   0  0  0  0  0  0  0  0  0  0  0  0
   -0.6537    0.9481   -1.4043 C   0  0  0  0  0  0  0  0  0  0  0  0
    0.6670    0.8440   -0.7451 N   0  0  0  0  0  0  0  0  0  0  0  0
    0.7634    1.2707    0.4662 C   0  0  0  0  0  0  0  0  0  0  0  0
    1.8814    1.2063    1.2599 N   0  0  0  0  0  0  0  0  0  0  0  0
    3.0964    0.5359    1.0056 C   0  0  0  0  0  0  0  0  0  0  0  0
    4.2210    0.8631    1.7811 C   0  0  0  0  0  0  0  0  0  0  0  0
    5.4477    0.2149    1.5969 C   0  0  0  0  0  0  0  0  0  0  0  0
    5.5814   -0.7826    0.6293 C   0  0  0  0  0  0  0  0  0  0  0  0
    6.8834   -1.5034    0.4479 C   0  0  0  0  0  0  0  0  0  0  0  0
    4.4613   -1.1394   -0.1249 C   0  0  0  0  0  0  0  0  0  0  0  0
    3.2361   -0.4878    0.0636 C   0  0  0  0  0  0  0  0  0  0  0  0
   -0.2846    1.8661    1.0945 N   0  0  0  0  0  0  0  0  0  0  0  0
   -1.4383    2.2584    0.5015 C   0  0  0  0  0  0  0  0  0  0  0  0
   -2.3021    2.9714    1.1600 N   0  0  0  0  0  0  0  0  0  0  0  0
   -3.4226    3.3904    0.4887 C   0  0  0  0  0  0  0  0  0  0  0  0
   -4.4064    4.1773    1.3064 C   0  0  0  0  0  0  0  0  0  0  0  0
   -3.6403    3.1455   -0.8084 C   0  0  0  0  0  0  0  0  0  0  0  0
   -2.6471    2.3574   -1.5557 C   0  0  0  0  0  0  0  0  0  0  0  0
   -2.8139    2.1719   -2.7578 O   0  0  0  0  0  0  0  0  0  0  0  0
   -1.5881    1.8953   -0.8110 N   0  0  0  0  0  0  0  0  0  0  0  0
   -1.4049   -1.2966   -0.4191 C   0  0  0  0  0  0  0  0  0  0  0  0
   -1.9961   -2.5603   -0.5417 C   0  0  0  0  0  0  0  0  0  0  0  0
   -2.2174   -5.3793   -0.5482 H   0  0  0  0  0  0  0  0  0  0  0  0
   -3.8325   -4.6752   -0.1461 H   0  0  0  0  0  0  0  0  0  0  0  0
   -3.6886   -6.0034   -1.3035 H   0  0  0  0  0  0  0  0  0  0  0  0
   -2.7581   -2.4690   -3.8449 H   0  0  0  0  0  0  0  0  0  0  0  0
   -1.7257   -0.2456   -3.6399 H   0  0  0  0  0  0  0  0  0  0  0  0
   -0.4444    1.3115   -2.4191 H   0  0  0  0  0  0  0  0  0  0  0  0
    1.9774    1.9375    1.9495 H   0  0  0  0  0  0  0  0  0  0  0  0
    4.1601    1.6352    2.5439 H   0  0  0  0  0  0  0  0  0  0  0  0
    6.2968    0.4964    2.2156 H   0  0  0  0  0  0  0  0  0  0  0  0
    7.7288   -0.8472    0.6800 H   0  0  0  0  0  0  0  0  0  0  0  0
    7.0052   -1.8348   -0.5887 H   0  0  0  0  0  0  0  0  0  0  0  0
    6.9226   -2.3770    1.1058 H   0  0  0  0  0  0  0  0  0  0  0  0
    4.5264   -1.9311   -0.8683 H   0  0  0  0  0  0  0  0  0  0  0  0
    2.3927   -0.8129   -0.5394 H   0  0  0  0  0  0  0  0  0  0  0  0
   -0.1981    2.1440    2.0588 H   0  0  0  0  0  0  0  0  0  0  0  0
   -4.7731    3.5726    2.1425 H   0  0  0  0  0  0  0  0  0  0  0  0
   -3.9297    5.0758    1.7120 H   0  0  0  0  0  0  0  0  0  0  0  0
   -5.2734    4.4950    0.7176 H   0  0  0  0  0  0  0  0  0  0  0  0
   -4.5133    3.4836   -1.3494 H   0  0  0  0  0  0  0  0  0  0  0  0
   -1.0302   -0.9886    0.5537 H   0  0  0  0  0  0  0  0  0  0  0  0
   -2.0574   -3.1805    0.3459 H   0  0  0  0  0  0  0  0  0  0  0  0
  1  2  1  0
  2  3  1  0
  3  4  2  0
  4  5  1  0
  5  6  2  0
  6  7  1  0
  7  8  1  0
  8  9  2  0
  9 10  1  0
 10 11  1  0
 11 12  2  0
 12 13  1  0
 13 14  2  0
 14 15  1  0
 14 16  1  0
 16 17  2  0
  9 18  1  0
 18 19  1  0
 19 20  2  0
 20 21  1  0
 21 22  1  0
 21 23  2  0
 23 24  1  0
 24 25  2  0
 24 26  1  0
  6 27  1  0
 27 28  2  0
 28  3  1  0
 26  7  1  0
 17 11  1  0
 26 19  1  0
  1 29  1  0
  1 30  1  0
  1 31  1  0
  4 32  1  0
  5 33  1  0
  7 34  1  0
 10 35  1  0
 12 36  1  0
 13 37  1  0
 15 38  1  0
 15 39  1  0
 15 40  1  0
 16 41  1  0
 17 42  1  0
 18 43  1  0
 22 44  1  0
 22 45  1  0
 22 46  1  0
 23 47  1  0
 27 48  1  0
 28 49  1  0
M  END
$$$$
