
     RDKit          3D

 46 48  0  0  0  0  0  0  0  0999 V2000
   -5.2500   -0.1842    0.2182 C   0  0  0  0  0  0  0  0  0  0  0  0
   -4.3875    0.8282   -0.4301 C   0  0  0  0  0  0  0  0  0  0  0  0
   -4.7498    1.1560   -1.7044 O   0  0  0  0  0  0  0  0  0  0  0  0
   -3.9068    2.1270   -2.1288 C   0  0  0  0  0  0  0  0  0  0  0  0
   -2.9981    2.4280   -1.1464 C   0  0  0  0  0  0  0  0  0  0  0  0
   -3.2804    1.5689   -0.0385 C   0  0  0  0  0  0  0  0  0  0  0  0
   -2.5547    1.5510    1.2252 C   0  0  0  0  0  0  0  0  0  0  0  0
   -1.8439    2.4921    1.5659 O   0  0  0  0  0  0  0  0  0  0  0  0
   -2.6810    0.4013    1.9716 N   0  0  0  0  0  0  0  0  0  0  0  0
   -1.8965    0.1896    3.1666 C   0  0  0  0  0  0  0  0  0  0  0  0
   -0.6174   -0.5386    2.8442 C   0  0  0  0  0  0  0  0  0  0  0  0
   -0.5586   -1.9376    2.8833 C   0  0  0  0  0  0  0  0  0  0  0  0
    0.6155   -2.6042    2.5324 C   0  0  0  0  0  0  0  0  0  0  0  0
    1.7396   -1.8810    2.1342 C   0  0  0  0  0  0  0  0  0  0  0  0
    1.7056   -0.4817    2.0942 C   0  0  0  0  0  0  0  0  0  0  0  0
    2.9029    0.2990    1.6181 C   0  0  0  0  0  0  0  0  0  0  0  0
    2.8016    0.5635    0.2026 N   0  0  0  0  0  0  0  0  0  0  0  0
    3.4064   -0.2533   -0.7261 C   0  0  0  0  0  0  0  0  0  0  0  0
    4.1742   -1.1583   -0.4135 O   0  0  0  0  0  0  0  0  0  0  0  0
    3.0581    0.0336   -2.1134 C   0  0  0  0  0  0  0  0  0  0  0  0
    2.2524    1.0732   -2.6744 C   0  0  0  0  0  0  0  0  0  0  0  0
    2.2502    0.8844   -4.0357 C   0  0  0  0  0  0  0  0  0  0  0  0
    2.9975   -0.1962   -4.3637 O   0  0  0  0  0  0  0  0  0  0  0  0
    3.4894   -0.7111   -3.2025 C   0  0  0  0  0  0  0  0  0  0  0  0
    4.3458   -1.9107   -3.3376 C   0  0  0  0  0  0  0  0  0  0  0  0
    0.5195    0.1796    2.4436 C   0  0  0  0  0  0  0  0  0  0  0  0
   -5.4308    0.0690    1.2672 H   0  0  0  0  0  0  0  0  0  0  0  0
   -4.7812   -1.1717    0.1702 H   0  0  0  0  0  0  0  0  0  0  0  0
   -6.2244   -0.2476   -0.2778 H   0  0  0  0  0  0  0  0  0  0  0  0
   -4.0834    2.4983   -3.1287 H   0  0  0  0  0  0  0  0  0  0  0  0
   -2.2146    3.1710   -1.2044 H   0  0  0  0  0  0  0  0  0  0  0  0
   -3.0282   -0.4238    1.5078 H   0  0  0  0  0  0  0  0  0  0  0  0
   -2.5063   -0.4036    3.8570 H   0  0  0  0  0  0  0  0  0  0  0  0
   -1.6824    1.1437    3.6617 H   0  0  0  0  0  0  0  0  0  0  0  0
   -1.4278   -2.5194    3.1811 H   0  0  0  0  0  0  0  0  0  0  0  0
    0.6541   -3.6905    2.5578 H   0  0  0  0  0  0  0  0  0  0  0  0
    2.6432   -2.4141    1.8409 H   0  0  0  0  0  0  0  0  0  0  0  0
    3.8314   -0.2348    1.8496 H   0  0  0  0  0  0  0  0  0  0  0  0
    2.9496    1.2658    2.1313 H   0  0  0  0  0  0  0  0  0  0  0  0
    2.0557    1.1725   -0.0940 H   0  0  0  0  0  0  0  0  0  0  0  0
    1.7365    1.8705   -2.1598 H   0  0  0  0  0  0  0  0  0  0  0  0
    1.7919    1.4052   -4.8652 H   0  0  0  0  0  0  0  0  0  0  0  0
    3.9279   -2.7465   -2.7677 H   0  0  0  0  0  0  0  0  0  0  0  0
    4.4279   -2.2246   -4.3832 H   0  0  0  0  0  0  0  0  0  0  0  0
    5.3546   -1.7049   -2.9670 H   0  0  0  0  0  0  0  0  0  0  0  0
    0.4723    1.2674    2.3919 H   0  0  0  0  0  0  0  0  0  0  0  0
  1  2  1  0
  2  3  1  0
  3  4  1  0
  4  5  2  0
  5  6  1  0
  6  7  1  0
  7  8  2  0
  7  9  1  0
  9 10  1  0
 10 11  1  0
 11 12  2  0
 12 13  1  0
 13 14  2  0
 14 15  1  0
 15 16  1  0
 16 17  1  0
 17 18  1  0
 18 19  2  0
 18 20  1  0
 20 21  1  0
 21 22  2  0
 22 23  1  0
 23 24  1  0
 24 25  1  0
 15 26  2  0
  6  2  2  0
 26 11  1  0
 24 20  2  0
  1 27  1  0
  1 28  1  0
  1 29  1  0
  4 30  1  0
  5 31  1  0
  9 32  1  0
 10 33  1  0
 10 34  1  0
 12 35  1  0
 13 36  1  0
 14 37  1  0
 16 38  1  0
 16 39  1  0
 17 40  1  0
 21 41  1  0
 22 42  1  0
 25 43  1  0
 25 44  1  0
 25 45  1  0
 26 46  1  0
M  END
$$$$
