
     RDKit          3D

 65 68  0  0  0  0  0  0  0  0999 V2000
   -8.4867   -1.8158   -0.1477 C   0  0  0  0  0  0  0  0  0  0  0  0
   -7.7272   -0.5285   -0.0233 C   0  0  0  0  0  0  0  0  0  0  0  0
   -7.7712    0.4235   -1.0471 C   0  0  0  0  0  0  0  0  0  0  0  0
   -7.0974    1.6399   -0.9143 C   0  0  0  0  0  0  0  0  0  0  0  0
   -6.3768    1.9293    0.2503 C   0  0  0  0  0  0  0  0  0  0  0  0
   -5.6320    3.2369    0.3924 C   0  0  0  0  0  0  0  0  0  0  0  0
   -4.3446    3.2815   -0.4374 C   0  0  0  0  0  0  0  0  0  0  0  0
   -3.3839    2.2640   -0.0504 N   0  0  0  0  0  0  0  0  0  0  0  0
   -2.5956    2.4081    1.0721 C   0  0  0  0  0  0  0  0  0  0  0  0
   -2.5791    3.4223    1.7591 O   0  0  0  0  0  0  0  0  0  0  0  0
   -1.7606    1.1756    1.3595 C   0  0  0  0  0  0  0  0  0  0  0  0
   -0.8675    1.3540    2.5861 C   0  0  0  0  0  0  0  0  0  0  0  0
   -0.1399    0.0667    2.9758 C   0  0  0  0  0  0  0  0  0  0  0  0
    0.8190   -0.3735    1.9684 N   0  0  0  0  0  0  0  0  0  0  0  0
    0.3480   -1.3220    1.0521 N   0  0  0  0  0  0  0  0  0  0  0  0
    1.1177   -1.7807    0.1045 C   0  0  0  0  0  0  0  0  0  0  0  0
    0.5536   -2.8045   -0.8389 C   0  0  0  0  0  0  0  0  0  0  0  0
    2.4695   -1.2918   -0.0113 C   0  0  0  0  0  0  0  0  0  0  0  0
    3.5023   -1.5105   -0.9087 C   0  0  0  0  0  0  0  0  0  0  0  0
    3.5100   -2.2656   -2.1883 C   0  0  0  0  0  0  0  0  0  0  0  0
    4.5943   -0.7956   -0.3987 N   0  0  0  0  0  0  0  0  0  0  0  0
    5.9729   -0.8053   -0.7783 C   0  0  0  0  0  0  0  0  0  0  0  0
    6.8000    0.2476   -0.3527 C   0  0  0  0  0  0  0  0  0  0  0  0
    8.1542    0.2775   -0.6992 C   0  0  0  0  0  0  0  0  0  0  0  0
    8.7107   -0.7469   -1.4699 C   0  0  0  0  0  0  0  0  0  0  0  0
   10.1710   -0.7227   -1.8115 C   0  0  0  0  0  0  0  0  0  0  0  0
    7.8989   -1.8157   -1.8608 C   0  0  0  0  0  0  0  0  0  0  0  0
    6.5411   -1.8480   -1.5174 C   0  0  0  0  0  0  0  0  0  0  0  0
    4.2078    0.0151    0.6230 N   0  0  0  0  0  0  0  0  0  0  0  0
    2.9502   -0.3400    0.8936 C   0  0  0  0  0  0  0  0  0  0  0  0
    2.1139    0.1895    1.9632 C   0  0  0  0  0  0  0  0  0  0  0  0
    2.4931    1.0339    2.7713 O   0  0  0  0  0  0  0  0  0  0  0  0
   -6.3435    0.9807    1.2798 C   0  0  0  0  0  0  0  0  0  0  0  0
   -7.0179   -0.2352    1.1460 C   0  0  0  0  0  0  0  0  0  0  0  0
   -9.4963   -1.6941    0.2562 H   0  0  0  0  0  0  0  0  0  0  0  0
   -8.5603   -2.1284   -1.1945 H   0  0  0  0  0  0  0  0  0  0  0  0
   -7.9805   -2.6199    0.3967 H   0  0  0  0  0  0  0  0  0  0  0  0
   -8.3354    0.2256   -1.9551 H   0  0  0  0  0  0  0  0  0  0  0  0
   -7.1482    2.3638   -1.7243 H   0  0  0  0  0  0  0  0  0  0  0  0
   -5.4042    3.4200    1.4496 H   0  0  0  0  0  0  0  0  0  0  0  0
   -6.2945    4.0533    0.0799 H   0  0  0  0  0  0  0  0  0  0  0  0
   -3.8745    4.2649   -0.3247 H   0  0  0  0  0  0  0  0  0  0  0  0
   -4.5580    3.1302   -1.5009 H   0  0  0  0  0  0  0  0  0  0  0  0
   -3.5225    1.3317   -0.4199 H   0  0  0  0  0  0  0  0  0  0  0  0
   -2.4447    0.3329    1.5156 H   0  0  0  0  0  0  0  0  0  0  0  0
   -1.1512    0.9693    0.4728 H   0  0  0  0  0  0  0  0  0  0  0  0
   -1.4792    1.6758    3.4390 H   0  0  0  0  0  0  0  0  0  0  0  0
   -0.1435    2.1570    2.3987 H   0  0  0  0  0  0  0  0  0  0  0  0
    0.3981    0.2313    3.9177 H   0  0  0  0  0  0  0  0  0  0  0  0
   -0.8573   -0.7439    3.1546 H   0  0  0  0  0  0  0  0  0  0  0  0
   -0.3968   -3.1907   -0.4585 H   0  0  0  0  0  0  0  0  0  0  0  0
    1.2486   -3.6414   -0.9492 H   0  0  0  0  0  0  0  0  0  0  0  0
    0.3729   -2.3424   -1.8132 H   0  0  0  0  0  0  0  0  0  0  0  0
    2.5257   -2.2418   -2.6632 H   0  0  0  0  0  0  0  0  0  0  0  0
    4.1945   -1.8262   -2.9192 H   0  0  0  0  0  0  0  0  0  0  0  0
    3.7760   -3.3130   -2.0187 H   0  0  0  0  0  0  0  0  0  0  0  0
    6.4013    1.0658    0.2465 H   0  0  0  0  0  0  0  0  0  0  0  0
    8.7707    1.1069   -0.3577 H   0  0  0  0  0  0  0  0  0  0  0  0
   10.4768    0.2826   -2.1199 H   0  0  0  0  0  0  0  0  0  0  0  0
   10.3966   -1.4023   -2.6401 H   0  0  0  0  0  0  0  0  0  0  0  0
   10.7635   -1.0255   -0.9418 H   0  0  0  0  0  0  0  0  0  0  0  0
    8.3221   -2.6431   -2.4271 H   0  0  0  0  0  0  0  0  0  0  0  0
    5.9814   -2.7306   -1.8019 H   0  0  0  0  0  0  0  0  0  0  0  0
   -5.7962    1.1873    2.1971 H   0  0  0  0  0  0  0  0  0  0  0  0
   -6.9892   -0.9511    1.9642 H   0  0  0  0  0  0  0  0  0  0  0  0
  1  2  1  0
  2  3  2  0
  3  4  1  0
  4  5  2  0
  5  6  1  0
  6  7  1  0
  7  8  1  0
  8  9  1  0
  9 10  2  0
  9 11  1  0
 11 12  1  0
 12 13  1  0
 13 14  1  0
 14 15  1  0
 15 16  2  0
 16 17  1  0
 16 18  1  0
 18 19  2  0
 19 20  1  0
 19 21  1  0
 21 22  1  0
 22 23  2  0
 23 24  1  0
 24 25  2  0
 25 26  1  0
 25 27  1  0
 27 28  2  0
 21 29  1  0
 29 30  2  0
 30 31  1  0
 31 32  2  0
  5 33  1  0
 33 34  2  0
 34  2  1  0
 31 14  1  0
 30 18  1  0
 28 22  1  0
  1 35  1  0
  1 36  1  0
  1 37  1  0
  3 38  1  0
  4 39  1  0
  6 40  1  0
  6 41  1  0
  7 42  1  0
  7 43  1  0
  8 44  1  0
 11 45  1  0
 11 46  1  0
 12 47  1  0
 12 48  1  0
 13 49  1  0
 13 50  1  0
 17 51  1  0
 17 52  1  0
 17 53  1  0
 20 54  1  0
 20 55  1  0
 20 56  1  0
 23 57  1  0
 24 58  1  0
 26 59  1  0
 26 60  1  0
 26 61  1  0
 27 62  1  0
 28 63  1  0
 33 64  1  0
 34 65  1  0
M  END
$$$$
