
     RDKit          3D

 39 41  0  0  0  0  0  0  0  0999 V2000
    0.3470    4.4385   -1.5381 C   0  0  0  0  0  0  0  0  0  0  0  0
    0.9004    3.5016   -2.5984 C   0  0  0  0  0  0  0  0  0  0  0  0
   -0.3191    2.2323   -3.0793 S   0  0  0  0  0  0  0  0  0  0  0  0
   -0.2021    1.0788   -1.7159 C   0  0  0  0  0  0  0  0  0  0  0  0
   -1.1139    0.0452   -1.6538 C   0  0  0  0  0  0  0  0  0  0  0  0
   -1.0093   -0.8390   -0.6007 C   0  0  0  0  0  0  0  0  0  0  0  0
   -1.8726   -1.8902   -0.4426 N   0  0  0  0  0  0  0  0  0  0  0  0
   -1.6507   -2.8869    0.5998 C   0  0  0  0  0  0  0  0  0  0  0  0
   -2.5165   -4.0679    0.1619 C   0  0  0  0  0  0  0  0  0  0  0  0
   -3.6437   -3.4075   -0.6159 C   0  0  0  0  0  0  0  0  0  0  0  0
   -2.9334   -2.2773   -1.3567 C   0  0  0  0  0  0  0  0  0  0  0  0
   -0.0452   -0.6757    0.3206 N   0  0  0  0  0  0  0  0  0  0  0  0
    0.8190    0.3405    0.1720 C   0  0  0  0  0  0  0  0  0  0  0  0
    1.8452    0.5277    1.2030 C   0  0  0  0  0  0  0  0  0  0  0  0
    2.0103    1.8050    1.7832 C   0  0  0  0  0  0  0  0  0  0  0  0
    2.9597    2.0419    2.7808 C   0  0  0  0  0  0  0  0  0  0  0  0
    3.7738    1.0052    3.2209 C   0  0  0  0  0  0  0  0  0  0  0  0
    3.6420   -0.2627    2.6576 C   0  0  0  0  0  0  0  0  0  0  0  0
    2.6899   -0.5023    1.6554 C   0  0  0  0  0  0  0  0  0  0  0  0
    2.6635   -2.0998    0.9840 Cl  0  0  0  0  0  0  0  0  0  0  0  0
    0.7705    1.2495   -0.8121 N   0  0  0  0  0  0  0  0  0  0  0  0
    0.1092    3.9154   -0.6070 H   0  0  0  0  0  0  0  0  0  0  0  0
   -0.5571    4.9480   -1.8885 H   0  0  0  0  0  0  0  0  0  0  0  0
    1.0883    5.2092   -1.3018 H   0  0  0  0  0  0  0  0  0  0  0  0
    1.1294    4.0835   -3.4975 H   0  0  0  0  0  0  0  0  0  0  0  0
    1.8391    3.0423   -2.2737 H   0  0  0  0  0  0  0  0  0  0  0  0
   -1.8799   -0.0581   -2.4093 H   0  0  0  0  0  0  0  0  0  0  0  0
   -1.9880   -2.4976    1.5672 H   0  0  0  0  0  0  0  0  0  0  0  0
   -0.6041   -3.2003    0.6824 H   0  0  0  0  0  0  0  0  0  0  0  0
   -2.8727   -4.6620    1.0080 H   0  0  0  0  0  0  0  0  0  0  0  0
   -1.9431   -4.7264   -0.5018 H   0  0  0  0  0  0  0  0  0  0  0  0
   -4.3846   -2.9949    0.0797 H   0  0  0  0  0  0  0  0  0  0  0  0
   -4.1550   -4.0966   -1.2936 H   0  0  0  0  0  0  0  0  0  0  0  0
   -2.5096   -2.6425   -2.2992 H   0  0  0  0  0  0  0  0  0  0  0  0
   -3.6300   -1.4589   -1.5657 H   0  0  0  0  0  0  0  0  0  0  0  0
    1.3787    2.6299    1.4544 H   0  0  0  0  0  0  0  0  0  0  0  0
    3.0587    3.0355    3.2113 H   0  0  0  0  0  0  0  0  0  0  0  0
    4.5147    1.1829    3.9963 H   0  0  0  0  0  0  0  0  0  0  0  0
    4.2916   -1.0661    2.9976 H   0  0  0  0  0  0  0  0  0  0  0  0
  1  2  1  0
  2  3  1  0
  3  4  1  0
  4  5  2  0
  5  6  1  0
  6  7  1  0
  7  8  1  0
  8  9  1  0
  9 10  1  0
 10 11  1  0
  6 12  2  0
 12 13  1  0
 13 14  1  0
 14 15  2  0
 15 16  1  0
 16 17  2  0
 17 18  1  0
 18 19  2  0
 19 20  1  0
 13 21  2  0
 21  4  1  0
 11  7  1  0
 19 14  1  0
  1 22  1  0
  1 23  1  0
  1 24  1  0
  2 25  1  0
  2 26  1  0
  5 27  1  0
  8 28  1  0
  8 29  1  0
  9 30  1  0
  9 31  1  0
 10 32  1  0
 10 33  1  0
 11 34  1  0
 11 35  1  0
 15 36  1  0
 16 37  1  0
 17 38  1  0
 18 39  1  0
M  END
$$$$
