
     RDKit          3D

 42 45  0  0  0  0  0  0  0  0999 V2000
    6.9471   -2.1427   -1.4545 O   0  0  0  0  0  0  0  0  0  0  0  0
    5.9455   -2.1164   -0.7585 C   0  0  0  0  0  0  0  0  0  0  0  0
    4.9529   -3.0081   -0.9345 O   0  0  0  0  0  0  0  0  0  0  0  0
    5.6466   -1.1210    0.3240 C   0  0  0  0  0  0  0  0  0  0  0  0
    5.1355    0.1791   -0.2834 C   0  0  0  0  0  0  0  0  0  0  0  0
    4.8869    1.2768    0.7570 C   0  0  0  0  0  0  0  0  0  0  0  0
    3.7849    0.9679    1.6742 N   0  0  0  0  0  0  0  0  0  0  0  0
    2.4838    1.0971    1.2041 C   0  0  0  0  0  0  0  0  0  0  0  0
    2.1919    1.4469    0.0695 O   0  0  0  0  0  0  0  0  0  0  0  0
    1.4992    0.7462    2.2691 C   0  0  0  0  0  0  0  0  0  0  0  0
    0.1594    0.7203    2.2376 C   0  0  0  0  0  0  0  0  0  0  0  0
   -0.6793    1.0766    1.1484 C   0  0  0  0  0  0  0  0  0  0  0  0
   -0.6191    2.1087    0.2243 C   0  0  0  0  0  0  0  0  0  0  0  0
   -1.7513    2.0061   -0.6201 C   0  0  0  0  0  0  0  0  0  0  0  0
   -2.4952    0.9275   -0.1768 C   0  0  0  0  0  0  0  0  0  0  0  0
   -3.7377    0.3904   -0.6712 C   0  0  0  0  0  0  0  0  0  0  0  0
   -4.3282   -0.6379   -0.0999 N   0  0  0  0  0  0  0  0  0  0  0  0
   -5.5012   -0.9454   -0.7665 C   0  0  0  0  0  0  0  0  0  0  0  0
   -6.3932   -1.9848   -0.4334 C   0  0  0  0  0  0  0  0  0  0  0  0
   -7.5487   -2.1817   -1.1967 C   0  0  0  0  0  0  0  0  0  0  0  0
   -7.8239   -1.3581   -2.2840 C   0  0  0  0  0  0  0  0  0  0  0  0
   -6.9546   -0.3208   -2.6358 C   0  0  0  0  0  0  0  0  0  0  0  0
   -5.7976   -0.1322   -1.8612 C   0  0  0  0  0  0  0  0  0  0  0  0
   -4.5512    1.0404   -2.0366 S   0  0  0  0  0  0  0  0  0  0  0  0
   -1.8444    0.3873    0.9033 O   0  0  0  0  0  0  0  0  0  0  0  0
    2.3588    0.2863    3.7024 S   0  0  0  0  0  0  0  0  0  0  0  0
    3.9350    0.5722    2.9856 C   0  0  0  0  0  0  0  0  0  0  0  0
    5.3448    0.3669    3.8542 S   0  0  0  0  0  0  0  0  0  0  0  0
    5.2651   -3.5759   -1.6706 H   0  0  0  0  0  0  0  0  0  0  0  0
    4.9154   -1.5558    1.0141 H   0  0  0  0  0  0  0  0  0  0  0  0
    6.5681   -0.9612    0.8942 H   0  0  0  0  0  0  0  0  0  0  0  0
    4.2212   -0.0209   -0.8551 H   0  0  0  0  0  0  0  0  0  0  0  0
    5.8715    0.5519   -1.0079 H   0  0  0  0  0  0  0  0  0  0  0  0
    5.8085    1.4841    1.3083 H   0  0  0  0  0  0  0  0  0  0  0  0
    4.6253    2.2016    0.2270 H   0  0  0  0  0  0  0  0  0  0  0  0
   -0.3790    0.3588    3.1119 H   0  0  0  0  0  0  0  0  0  0  0  0
    0.1565    2.8599    0.1604 H   0  0  0  0  0  0  0  0  0  0  0  0
   -1.9931    2.6556   -1.4504 H   0  0  0  0  0  0  0  0  0  0  0  0
   -6.1740   -2.6242    0.4165 H   0  0  0  0  0  0  0  0  0  0  0  0
   -8.2345   -2.9842   -0.9352 H   0  0  0  0  0  0  0  0  0  0  0  0
   -8.7271   -1.5217   -2.8690 H   0  0  0  0  0  0  0  0  0  0  0  0
   -7.1704    0.3208   -3.4847 H   0  0  0  0  0  0  0  0  0  0  0  0
  1  2  2  0
  2  3  1  0
  2  4  1  0
  4  5  1  0
  5  6  1  0
  6  7  1  0
  7  8  1  0
  8  9  2  0
  8 10  1  0
 10 11  2  3
 11 12  1  0
 12 13  2  0
 13 14  1  0
 14 15  2  0
 15 16  1  0
 16 17  2  0
 17 18  1  0
 18 19  2  0
 19 20  1  0
 20 21  2  0
 21 22  1  0
 22 23  2  0
 23 24  1  0
 15 25  1  0
 10 26  1  0
 26 27  1  0
 27 28  2  0
 27  7  1  0
 25 12  1  0
 24 16  1  0
 23 18  1  0
  3 29  1  0
  4 30  1  0
  4 31  1  0
  5 32  1  0
  5 33  1  0
  6 34  1  0
  6 35  1  0
 11 36  1  0
 13 37  1  0
 14 38  1  0
 19 39  1  0
 20 40  1  0
 21 41  1  0
 22 42  1  0
M  END
$$$$
