
     RDKit          3D

 42 44  0  0  0  0  0  0  0  0999 V2000
   -3.0125    2.3345   -1.5956 C   0  0  0  0  0  0  0  0  0  0  0  0
   -2.1110    2.1349   -0.3865 C   0  0  0  0  0  0  0  0  0  0  0  0
   -1.6416    0.7685   -0.2687 N   0  0  0  0  0  0  0  0  0  0  0  0
   -0.5284    0.2186   -0.8495 C   0  0  0  0  0  0  0  0  0  0  0  0
    0.6582    1.1254   -1.7162 S   0  0  0  0  0  0  0  0  0  0  0  0
    1.3784   -0.1306   -2.8068 C   0  0  0  0  0  0  0  0  0  0  0  0
    2.0940   -1.2708   -2.1141 C   0  0  0  0  0  0  0  0  0  0  0  0
    1.9653   -2.4290   -2.5186 O   0  0  0  0  0  0  0  0  0  0  0  0
    3.0535   -1.0181   -1.0028 C   0  0  0  0  0  0  0  0  0  0  0  0
    3.2064   -2.0094   -0.0283 C   0  0  0  0  0  0  0  0  0  0  0  0
    4.1148   -1.8343    1.0188 C   0  0  0  0  0  0  0  0  0  0  0  0
    4.8779   -0.6649    1.1041 C   0  0  0  0  0  0  0  0  0  0  0  0
    5.8712   -0.4976    2.2170 C   0  0  0  0  0  0  0  0  0  0  0  0
    4.7385    0.3150    0.1119 C   0  0  0  0  0  0  0  0  0  0  0  0
    3.8343    0.1398   -0.9395 C   0  0  0  0  0  0  0  0  0  0  0  0
   -0.5094   -1.0719   -0.6375 N   0  0  0  0  0  0  0  0  0  0  0  0
   -1.6188   -1.3875    0.1060 N   0  0  0  0  0  0  0  0  0  0  0  0
   -2.2875   -0.2764    0.3626 C   0  0  0  0  0  0  0  0  0  0  0  0
   -3.5321   -0.2073    1.1218 C   0  0  0  0  0  0  0  0  0  0  0  0
   -4.6156   -0.9956    0.7326 C   0  0  0  0  0  0  0  0  0  0  0  0
   -5.7844   -0.9193    1.4697 C   0  0  0  0  0  0  0  0  0  0  0  0
   -5.9381   -0.1261    2.5511 N   0  0  0  0  0  0  0  0  0  0  0  0
   -4.8674    0.6014    2.9291 C   0  0  0  0  0  0  0  0  0  0  0  0
   -3.6562    0.5932    2.2586 C   0  0  0  0  0  0  0  0  0  0  0  0
   -3.8945    1.6880   -1.5401 H   0  0  0  0  0  0  0  0  0  0  0  0
   -3.3550    3.3732   -1.6469 H   0  0  0  0  0  0  0  0  0  0  0  0
   -2.4869    2.1019   -2.5289 H   0  0  0  0  0  0  0  0  0  0  0  0
   -1.2458    2.8024   -0.4391 H   0  0  0  0  0  0  0  0  0  0  0  0
   -2.6449    2.4053    0.5286 H   0  0  0  0  0  0  0  0  0  0  0  0
    2.0840    0.3499   -3.4922 H   0  0  0  0  0  0  0  0  0  0  0  0
    0.5705   -0.5513   -3.4161 H   0  0  0  0  0  0  0  0  0  0  0  0
    2.6168   -2.9228   -0.0822 H   0  0  0  0  0  0  0  0  0  0  0  0
    4.2246   -2.6215    1.7628 H   0  0  0  0  0  0  0  0  0  0  0  0
    5.4361   -0.8166    3.1707 H   0  0  0  0  0  0  0  0  0  0  0  0
    6.7671   -1.0935    2.0135 H   0  0  0  0  0  0  0  0  0  0  0  0
    6.1689    0.5501    2.3297 H   0  0  0  0  0  0  0  0  0  0  0  0
    5.3423    1.2186    0.1473 H   0  0  0  0  0  0  0  0  0  0  0  0
    3.7699    0.9081   -1.7036 H   0  0  0  0  0  0  0  0  0  0  0  0
   -4.5485   -1.6618   -0.1242 H   0  0  0  0  0  0  0  0  0  0  0  0
   -6.6528   -1.5142    1.2030 H   0  0  0  0  0  0  0  0  0  0  0  0
   -5.0127    1.2072    3.8162 H   0  0  0  0  0  0  0  0  0  0  0  0
   -2.8285    1.1846    2.6329 H   0  0  0  0  0  0  0  0  0  0  0  0
  1  2  1  0
  2  3  1  0
  3  4  1  0
  4  5  1  0
  5  6  1  0
  6  7  1  0
  7  8  2  0
  7  9  1  0
  9 10  2  0
 10 11  1  0
 11 12  2  0
 12 13  1  0
 12 14  1  0
 14 15  2  0
  4 16  2  0
 16 17  1  0
 17 18  2  0
 18 19  1  0
 19 20  2  0
 20 21  1  0
 21 22  2  0
 22 23  1  0
 23 24  2  0
 18  3  1  0
 24 19  1  0
 15  9  1  0
  1 25  1  0
  1 26  1  0
  1 27  1  0
  2 28  1  0
  2 29  1  0
  6 30  1  0
  6 31  1  0
 10 32  1  0
 11 33  1  0
 13 34  1  0
 13 35  1  0
 13 36  1  0
 14 37  1  0
 15 38  1  0
 20 39  1  0
 21 40  1  0
 23 41  1  0
 24 42  1  0
M  END
$$$$
