
     RDKit          3D

 47 49  0  0  0  0  0  0  0  0999 V2000
   -7.7669   -0.1010   -1.5353 C   0  0  0  0  0  0  0  0  0  0  0  0
   -6.5442   -0.7652   -1.8214 O   0  0  0  0  0  0  0  0  0  0  0  0
   -5.4974   -0.5716   -0.9542 C   0  0  0  0  0  0  0  0  0  0  0  0
   -5.5851    0.1497    0.2405 C   0  0  0  0  0  0  0  0  0  0  0  0
   -4.4633    0.2989    1.0605 C   0  0  0  0  0  0  0  0  0  0  0  0
   -3.2396   -0.2652    0.6947 C   0  0  0  0  0  0  0  0  0  0  0  0
   -2.0853   -0.1070    1.5878 C   0  0  0  0  0  0  0  0  0  0  0  0
   -0.9230    0.4898    1.2877 C   0  0  0  0  0  0  0  0  0  0  0  0
   -0.4557    1.2293   -0.1877 S   0  0  0  0  0  0  0  0  0  0  0  0
    1.1334    1.6731    0.4260 C   0  0  0  0  0  0  0  0  0  0  0  0
    2.2361    2.4945   -0.5170 S   0  0  0  0  0  0  0  0  0  0  0  0
    1.2654    1.2522    1.7340 N   0  0  0  0  0  0  0  0  0  0  0  0
    2.4508    1.4532    2.5771 C   0  0  0  0  0  0  0  0  0  0  0  0
    3.2471    0.1733    2.8087 C   0  0  0  0  0  0  0  0  0  0  0  0
    3.9885   -0.2294    1.5581 C   0  0  0  0  0  0  0  0  0  0  0  0
    3.5332   -1.0869    0.8023 O   0  0  0  0  0  0  0  0  0  0  0  0
    5.1611    0.4562    1.3812 N   0  0  0  0  0  0  0  0  0  0  0  0
    5.6913    0.4578    0.2139 C   0  0  0  0  0  0  0  0  0  0  0  0
    5.3047   -0.1203   -0.9594 N   0  0  0  0  0  0  0  0  0  0  0  0
    6.3290   -0.2149   -1.9737 C   0  0  0  0  0  0  0  0  0  0  0  0
    7.2046    1.0225   -1.8051 C   0  0  0  0  0  0  0  0  0  0  0  0
    7.2145    1.3207   -0.0077 S   0  0  0  0  0  0  0  0  0  0  0  0
    0.1688    0.6120    2.2882 C   0  0  0  0  0  0  0  0  0  0  0  0
    0.0854    0.2018    3.4380 O   0  0  0  0  0  0  0  0  0  0  0  0
   -3.1513   -1.0034   -0.4925 C   0  0  0  0  0  0  0  0  0  0  0  0
   -4.2688   -1.1544   -1.3232 C   0  0  0  0  0  0  0  0  0  0  0  0
   -4.2665   -1.8563   -2.5031 O   0  0  0  0  0  0  0  0  0  0  0  0
   -3.0191   -2.3273   -2.9901 C   0  0  0  0  0  0  0  0  0  0  0  0
   -8.4618   -0.3107   -2.3545 H   0  0  0  0  0  0  0  0  0  0  0  0
   -7.6283    0.9839   -1.4891 H   0  0  0  0  0  0  0  0  0  0  0  0
   -8.2150   -0.4836   -0.6130 H   0  0  0  0  0  0  0  0  0  0  0  0
   -6.5125    0.6090    0.5645 H   0  0  0  0  0  0  0  0  0  0  0  0
   -4.5550    0.8666    1.9839 H   0  0  0  0  0  0  0  0  0  0  0  0
   -2.2365   -0.5075    2.5900 H   0  0  0  0  0  0  0  0  0  0  0  0
    3.0890    2.2389    2.1633 H   0  0  0  0  0  0  0  0  0  0  0  0
    2.0960    1.8148    3.5514 H   0  0  0  0  0  0  0  0  0  0  0  0
    2.6076   -0.6612    3.1165 H   0  0  0  0  0  0  0  0  0  0  0  0
    3.9787    0.3263    3.6109 H   0  0  0  0  0  0  0  0  0  0  0  0
    4.6273   -0.8756   -0.8695 H   0  0  0  0  0  0  0  0  0  0  0  0
    6.9168   -1.1293   -1.8240 H   0  0  0  0  0  0  0  0  0  0  0  0
    5.8908   -0.2600   -2.9758 H   0  0  0  0  0  0  0  0  0  0  0  0
    8.2143    0.8727   -2.1962 H   0  0  0  0  0  0  0  0  0  0  0  0
    6.7529    1.8898   -2.2990 H   0  0  0  0  0  0  0  0  0  0  0  0
   -2.2018   -1.4620   -0.7492 H   0  0  0  0  0  0  0  0  0  0  0  0
   -2.3148   -1.5030   -3.1495 H   0  0  0  0  0  0  0  0  0  0  0  0
   -3.1991   -2.8040   -3.9602 H   0  0  0  0  0  0  0  0  0  0  0  0
   -2.5965   -3.0873   -2.3265 H   0  0  0  0  0  0  0  0  0  0  0  0
  1  2  1  0
  2  3  1  0
  3  4  2  0
  4  5  1  0
  5  6  2  0
  6  7  1  0
  7  8  2  3
  8  9  1  0
  9 10  1  0
 10 11  2  0
 10 12  1  0
 12 13  1  0
 13 14  1  0
 14 15  1  0
 15 16  2  0
 15 17  1  0
 17 18  2  3
 18 19  1  0
 19 20  1  0
 20 21  1  0
 21 22  1  0
 12 23  1  0
 23 24  2  0
  6 25  1  0
 25 26  2  0
 26 27  1  0
 27 28  1  0
 26  3  1  0
 23  8  1  0
 22 18  1  0
  1 29  1  0
  1 30  1  0
  1 31  1  0
  4 32  1  0
  5 33  1  0
  7 34  1  0
 13 35  1  0
 13 36  1  0
 14 37  1  0
 14 38  1  0
 19 39  1  0
 20 40  1  0
 20 41  1  0
 21 42  1  0
 21 43  1  0
 25 44  1  0
 28 45  1  0
 28 46  1  0
 28 47  1  0
M  END
$$$$
