
     RDKit          3D

 56 59  0  0  0  0  0  0  0  0999 V2000
    2.2355    1.4535   -0.7913 C   0  0  0  0  0  0  0  0  0  0  0  0
    2.1975    1.2965    0.7285 C   0  0  0  0  0  0  0  0  0  0  0  0
    2.6196   -0.1042    1.2063 C   0  0  0  0  0  0  0  0  0  0  0  0
    4.1321   -0.3642    1.2019 C   0  0  0  0  0  0  0  0  0  0  0  0
    4.7496   -0.6194   -0.1491 C   0  0  0  0  0  0  0  0  0  0  0  0
    5.7790    0.2069   -0.6216 C   0  0  0  0  0  0  0  0  0  0  0  0
    6.3587   -0.0251   -1.8702 C   0  0  0  0  0  0  0  0  0  0  0  0
    5.9241   -1.0911   -2.6550 C   0  0  0  0  0  0  0  0  0  0  0  0
    4.9141   -1.9299   -2.1890 C   0  0  0  0  0  0  0  0  0  0  0  0
    4.3323   -1.6986   -0.9410 C   0  0  0  0  0  0  0  0  0  0  0  0
    0.8451    1.5721    1.2108 N   0  0  0  0  0  0  0  0  0  0  0  0
    0.3723    2.8585    1.3800 C   0  0  0  0  0  0  0  0  0  0  0  0
    1.0760    3.8579    1.2665 O   0  0  0  0  0  0  0  0  0  0  0  0
   -1.0953    2.9373    1.8021 C   0  0  0  0  0  0  0  0  0  0  0  0
   -1.8280    1.7463    1.4990 O   0  0  0  0  0  0  0  0  0  0  0  0
   -2.4517    1.7462    0.2951 C   0  0  0  0  0  0  0  0  0  0  0  0
   -2.4502    2.6303   -0.5398 O   0  0  0  0  0  0  0  0  0  0  0  0
   -3.0961    0.4296    0.1288 C   0  0  0  0  0  0  0  0  0  0  0  0
   -2.4950   -0.5050   -0.7587 C   0  0  0  0  0  0  0  0  0  0  0  0
   -1.3433   -0.2429   -1.5418 C   0  0  0  0  0  0  0  0  0  0  0  0
   -0.7909   -1.2122   -2.3809 C   0  0  0  0  0  0  0  0  0  0  0  0
   -1.3760   -2.4677   -2.4631 C   0  0  0  0  0  0  0  0  0  0  0  0
   -2.5151   -2.7500   -1.7109 C   0  0  0  0  0  0  0  0  0  0  0  0
   -3.0815   -1.7842   -0.8619 C   0  0  0  0  0  0  0  0  0  0  0  0
   -4.2279   -2.0877   -0.1116 C   0  0  0  0  0  0  0  0  0  0  0  0
   -4.8271   -1.1527    0.7468 C   0  0  0  0  0  0  0  0  0  0  0  0
   -5.9780   -1.4976    1.4753 C   0  0  0  0  0  0  0  0  0  0  0  0
   -6.5906   -0.5817    2.3282 C   0  0  0  0  0  0  0  0  0  0  0  0
   -6.0623    0.6943    2.4623 C   0  0  0  0  0  0  0  0  0  0  0  0
   -4.9182    1.0506    1.7469 C   0  0  0  0  0  0  0  0  0  0  0  0
   -4.2689    0.1364    0.8792 C   0  0  0  0  0  0  0  0  0  0  0  0
    1.6710    0.6566   -1.2845 H   0  0  0  0  0  0  0  0  0  0  0  0
    3.2567    1.4387   -1.1752 H   0  0  0  0  0  0  0  0  0  0  0  0
    1.7905    2.4055   -1.1024 H   0  0  0  0  0  0  0  0  0  0  0  0
    2.8595    2.0489    1.1746 H   0  0  0  0  0  0  0  0  0  0  0  0
    2.0802   -0.8746    0.6420 H   0  0  0  0  0  0  0  0  0  0  0  0
    2.2897   -0.2177    2.2483 H   0  0  0  0  0  0  0  0  0  0  0  0
    4.6422    0.4676    1.7035 H   0  0  0  0  0  0  0  0  0  0  0  0
    4.3350   -1.2490    1.8196 H   0  0  0  0  0  0  0  0  0  0  0  0
    6.1311    1.0449   -0.0238 H   0  0  0  0  0  0  0  0  0  0  0  0
    7.1495    0.6276   -2.2301 H   0  0  0  0  0  0  0  0  0  0  0  0
    6.3753   -1.2685   -3.6277 H   0  0  0  0  0  0  0  0  0  0  0  0
    4.5810   -2.7673   -2.7965 H   0  0  0  0  0  0  0  0  0  0  0  0
    3.5534   -2.3714   -0.5897 H   0  0  0  0  0  0  0  0  0  0  0  0
    0.1545    0.8295    1.1777 H   0  0  0  0  0  0  0  0  0  0  0  0
   -1.1208    3.0679    2.8883 H   0  0  0  0  0  0  0  0  0  0  0  0
   -1.5544    3.8225    1.3482 H   0  0  0  0  0  0  0  0  0  0  0  0
   -0.8668    0.7364   -1.5230 H   0  0  0  0  0  0  0  0  0  0  0  0
    0.0900   -0.9788   -2.9736 H   0  0  0  0  0  0  0  0  0  0  0  0
   -0.9537   -3.2252   -3.1179 H   0  0  0  0  0  0  0  0  0  0  0  0
   -2.9628   -3.7389   -1.7959 H   0  0  0  0  0  0  0  0  0  0  0  0
   -4.6691   -3.0801   -0.2011 H   0  0  0  0  0  0  0  0  0  0  0  0
   -6.4123   -2.4912    1.3817 H   0  0  0  0  0  0  0  0  0  0  0  0
   -7.4806   -0.8657    2.8831 H   0  0  0  0  0  0  0  0  0  0  0  0
   -6.5388    1.4166    3.1203 H   0  0  0  0  0  0  0  0  0  0  0  0
   -4.5398    2.0634    1.8737 H   0  0  0  0  0  0  0  0  0  0  0  0
  1  2  1  0
  2  3  1  0
  3  4  1  0
  4  5  1  0
  5  6  2  0
  6  7  1  0
  7  8  2  0
  8  9  1  0
  9 10  2  0
  2 11  1  0
 11 12  1  0
 12 13  2  0
 12 14  1  0
 14 15  1  0
 15 16  1  0
 16 17  2  0
 16 18  1  0
 18 19  1  0
 19 20  2  0
 20 21  1  0
 21 22  2  0
 22 23  1  0
 23 24  2  0
 24 25  1  0
 25 26  2  0
 26 27  1  0
 27 28  2  0
 28 29  1  0
 29 30  2  0
 30 31  1  0
 10  5  1  0
 31 18  2  0
 24 19  1  0
 31 26  1  0
  1 32  1  0
  1 33  1  0
  1 34  1  0
  2 35  1  0
  3 36  1  0
  3 37  1  0
  4 38  1  0
  4 39  1  0
  6 40  1  0
  7 41  1  0
  8 42  1  0
  9 43  1  0
 10 44  1  0
 11 45  1  0
 14 46  1  0
 14 47  1  0
 20 48  1  0
 21 49  1  0
 22 50  1  0
 23 51  1  0
 25 52  1  0
 27 53  1  0
 28 54  1  0
 29 55  1  0
 30 56  1  0
M  END
$$$$
