
     RDKit          3D

 49 51  0  0  0  0  0  0  0  0999 V2000
    8.5483   -2.8749    3.2832 N   0  0  0  0  0  0  0  0  0  0  0  0
    7.5445   -2.5802    2.7793 C   0  0  0  0  0  0  0  0  0  0  0  0
    6.3055   -2.2435    2.1430 C   0  0  0  0  0  0  0  0  0  0  0  0
    5.7680   -1.0425    2.4881 N   0  0  0  0  0  0  0  0  0  0  0  0
    4.5925   -0.7237    1.8829 C   0  0  0  0  0  0  0  0  0  0  0  0
    3.9512   -1.5495    0.9594 C   0  0  0  0  0  0  0  0  0  0  0  0
    2.6769   -1.2143    0.2919 C   0  0  0  0  0  0  0  0  0  0  0  0
    1.8415   -2.2233   -0.2120 C   0  0  0  0  0  0  0  0  0  0  0  0
    0.6338   -1.9302   -0.8614 C   0  0  0  0  0  0  0  0  0  0  0  0
    0.2134   -0.6096   -1.0346 C   0  0  0  0  0  0  0  0  0  0  0  0
    1.0172    0.4185   -0.5078 C   0  0  0  0  0  0  0  0  0  0  0  0
    2.2377    0.1080    0.1202 C   0  0  0  0  0  0  0  0  0  0  0  0
    0.7788    1.7739   -0.5401 O   0  0  0  0  0  0  0  0  0  0  0  0
   -0.5843    2.1816   -0.6235 C   0  0  0  0  0  0  0  0  0  0  0  0
   -0.7499    3.5987   -0.0695 C   0  0  0  0  0  0  0  0  0  0  0  0
   -2.0817    4.0874   -0.2565 O   0  0  0  0  0  0  0  0  0  0  0  0
   -3.0438    3.4878    0.6145 C   0  0  0  0  0  0  0  0  0  0  0  0
   -4.3002    3.1347   -0.1834 C   0  0  0  0  0  0  0  0  0  0  0  0
   -4.9942    2.0623    0.4602 O   0  0  0  0  0  0  0  0  0  0  0  0
   -5.1163    0.8863   -0.3470 C   0  0  0  0  0  0  0  0  0  0  0  0
   -3.7783    0.1749   -0.5631 C   0  0  0  0  0  0  0  0  0  0  0  0
   -3.9730   -1.0386   -1.2866 O   0  0  0  0  0  0  0  0  0  0  0  0
   -2.7844   -1.8371   -1.3903 C   0  0  0  0  0  0  0  0  0  0  0  0
   -1.7378   -1.2465   -2.3446 C   0  0  0  0  0  0  0  0  0  0  0  0
   -0.9280   -0.2572   -1.6989 O   0  0  0  0  0  0  0  0  0  0  0  0
    4.5012   -2.7525    0.6363 N   0  0  0  0  0  0  0  0  0  0  0  0
    5.6823   -3.0823    1.2357 C   0  0  0  0  0  0  0  0  0  0  0  0
    6.2275   -4.3544    0.8653 C   0  0  0  0  0  0  0  0  0  0  0  0
    6.6812   -5.3841    0.5785 N   0  0  0  0  0  0  0  0  0  0  0  0
    4.1772    0.2318    2.1885 H   0  0  0  0  0  0  0  0  0  0  0  0
    2.1287   -3.2702   -0.1094 H   0  0  0  0  0  0  0  0  0  0  0  0
    0.0543   -2.7739   -1.2209 H   0  0  0  0  0  0  0  0  0  0  0  0
    2.8429    0.9441    0.4656 H   0  0  0  0  0  0  0  0  0  0  0  0
   -1.2170    1.5106   -0.0359 H   0  0  0  0  0  0  0  0  0  0  0  0
   -0.9128    2.1731   -1.6690 H   0  0  0  0  0  0  0  0  0  0  0  0
   -0.0728    4.2759   -0.6017 H   0  0  0  0  0  0  0  0  0  0  0  0
   -0.4685    3.6495    0.9893 H   0  0  0  0  0  0  0  0  0  0  0  0
   -2.6501    2.6032    1.1263 H   0  0  0  0  0  0  0  0  0  0  0  0
   -3.2928    4.2134    1.3968 H   0  0  0  0  0  0  0  0  0  0  0  0
   -4.9707    4.0009   -0.2050 H   0  0  0  0  0  0  0  0  0  0  0  0
   -4.0588    2.9034   -1.2278 H   0  0  0  0  0  0  0  0  0  0  0  0
   -5.8038    0.2068    0.1690 H   0  0  0  0  0  0  0  0  0  0  0  0
   -5.5931    1.1323   -1.3037 H   0  0  0  0  0  0  0  0  0  0  0  0
   -3.1196    0.8283   -1.1377 H   0  0  0  0  0  0  0  0  0  0  0  0
   -3.3067   -0.0272    0.4055 H   0  0  0  0  0  0  0  0  0  0  0  0
   -3.1135   -2.7996   -1.7953 H   0  0  0  0  0  0  0  0  0  0  0  0
   -2.3796   -2.0163   -0.3885 H   0  0  0  0  0  0  0  0  0  0  0  0
   -1.1216   -2.0237   -2.8085 H   0  0  0  0  0  0  0  0  0  0  0  0
   -2.2512   -0.7322   -3.1650 H   0  0  0  0  0  0  0  0  0  0  0  0
  1  2  3  0
  2  3  1  0
  3  4  2  0
  4  5  1  0
  5  6  2  0
  6  7  1  0
  7  8  2  0
  8  9  1  0
  9 10  2  0
 10 11  1  0
 11 12  2  0
 11 13  1  0
 13 14  1  0
 14 15  1  0
 15 16  1  0
 16 17  1  0
 17 18  1  0
 18 19  1  0
 19 20  1  0
 20 21  1  0
 21 22  1  0
 22 23  1  0
 23 24  1  0
 24 25  1  0
  6 26  1  0
 26 27  2  0
 27 28  1  0
 28 29  3  0
 27  3  1  0
 12  7  1  0
 25 10  1  0
  5 30  1  0
  8 31  1  0
  9 32  1  0
 12 33  1  0
 14 34  1  0
 14 35  1  0
 15 36  1  0
 15 37  1  0
 17 38  1  0
 17 39  1  0
 18 40  1  0
 18 41  1  0
 20 42  1  0
 20 43  1  0
 21 44  1  0
 21 45  1  0
 23 46  1  0
 23 47  1  0
 24 48  1  0
 24 49  1  0
M  END
$$$$
