
     RDKit          3D

 43 46  0  0  0  0  0  0  0  0999 V2000
   -1.0666    0.8423    2.4172 O   0  0  0  0  0  0  0  0  0  0  0  0
   -0.8760    0.6209    0.9355 P   0  0  0  0  0  5  0  0  0  0  0  0
   -1.4896   -0.7651    0.2344 N   0  0  0  0  0  0  0  0  0  0  0  0
   -2.6878   -1.3090    0.7629 C   0  0  0  0  0  0  0  0  0  0  0  0
   -2.6782   -2.0880    1.9337 C   0  0  0  0  0  0  0  0  0  0  0  0
   -1.2139   -2.5377    2.7049 Cl  0  0  0  0  0  0  0  0  0  0  0  0
   -3.8665   -2.5766    2.4854 C   0  0  0  0  0  0  0  0  0  0  0  0
   -5.0861   -2.2706    1.8973 C   0  0  0  0  0  0  0  0  0  0  0  0
   -5.1214   -1.4880    0.7446 C   0  0  0  0  0  0  0  0  0  0  0  0
   -3.9359   -1.0137    0.1823 C   0  0  0  0  0  0  0  0  0  0  0  0
   -4.0313   -0.0551   -1.2474 Cl  0  0  0  0  0  0  0  0  0  0  0  0
   -1.0607    2.0848   -0.0652 C   0  0  0  0  0  0  0  0  0  0  0  0
   -0.8656    2.0729   -1.4546 C   0  0  0  0  0  0  0  0  0  0  0  0
   -1.0476    3.2350   -2.2124 C   0  0  0  0  0  0  0  0  0  0  0  0
   -1.4270    4.4220   -1.5899 C   0  0  0  0  0  0  0  0  0  0  0  0
   -1.6256    4.4517   -0.2107 C   0  0  0  0  0  0  0  0  0  0  0  0
   -1.4424    3.2909    0.5458 C   0  0  0  0  0  0  0  0  0  0  0  0
    0.7747    0.0692    0.5439 C   0  0  0  0  0  0  0  0  0  0  0  0
    1.1423   -0.3445   -0.6632 N   0  0  0  0  0  0  0  0  0  0  0  0
    2.4673   -0.7180   -0.6267 C   0  0  0  0  0  0  0  0  0  0  0  0
    3.0977   -0.5554    0.5894 C   0  0  0  0  0  0  0  0  0  0  0  0
    2.0166    0.0668    1.7424 S   0  0  0  0  0  0  0  0  0  0  0  0
    4.5166   -0.9067    0.8779 C   0  0  0  0  0  0  0  0  0  0  0  0
    5.2941   -1.0809   -0.4372 C   0  0  0  0  0  0  0  0  0  0  0  0
    4.5011   -1.9011   -1.4693 C   0  0  0  0  0  0  0  0  0  0  0  0
    3.1637   -1.2320   -1.8395 C   0  0  0  0  0  0  0  0  0  0  0  0
   -1.5720   -0.6623   -0.7764 H   0  0  0  0  0  0  0  0  0  0  0  0
   -3.8380   -3.2104    3.3757 H   0  0  0  0  0  0  0  0  0  0  0  0
   -6.0017   -2.6533    2.3352 H   0  0  0  0  0  0  0  0  0  0  0  0
   -6.0770   -1.2482    0.2916 H   0  0  0  0  0  0  0  0  0  0  0  0
   -0.5623    1.1593   -1.9646 H   0  0  0  0  0  0  0  0  0  0  0  0
   -0.8927    3.2124   -3.2910 H   0  0  0  0  0  0  0  0  0  0  0  0
   -1.5739    5.3257   -2.1784 H   0  0  0  0  0  0  0  0  0  0  0  0
   -1.9235    5.3768    0.2751 H   0  0  0  0  0  0  0  0  0  0  0  0
   -1.6018    3.3245    1.6245 H   0  0  0  0  0  0  0  0  0  0  0  0
    4.9940   -0.1388    1.4894 H   0  0  0  0  0  0  0  0  0  0  0  0
    4.5484   -1.8518    1.4413 H   0  0  0  0  0  0  0  0  0  0  0  0
    5.5238   -0.0967   -0.8603 H   0  0  0  0  0  0  0  0  0  0  0  0
    6.2469   -1.5689   -0.2292 H   0  0  0  0  0  0  0  0  0  0  0  0
    4.3057   -2.8986   -1.0524 H   0  0  0  0  0  0  0  0  0  0  0  0
    5.1006   -2.0424   -2.3722 H   0  0  0  0  0  0  0  0  0  0  0  0
    2.5210   -1.9508   -2.3654 H   0  0  0  0  0  0  0  0  0  0  0  0
    3.3506   -0.3906   -2.5245 H   0  0  0  0  0  0  0  0  0  0  0  0
  1  2  2  0
  2  3  1  0
  3  4  1  0
  4  5  2  0
  5  6  1  0
  5  7  1  0
  7  8  2  0
  8  9  1  0
  9 10  2  0
 10 11  1  0
  2 12  1  0
 12 13  2  0
 13 14  1  0
 14 15  2  0
 15 16  1  0
 16 17  2  0
  2 18  1  0
 18 19  2  0
 19 20  1  0
 20 21  2  0
 21 22  1  0
 21 23  1  0
 23 24  1  0
 24 25  1  0
 25 26  1  0
 10  4  1  0
 17 12  1  0
 22 18  1  0
 26 20  1  0
  3 27  1  0
  7 28  1  0
  8 29  1  0
  9 30  1  0
 13 31  1  0
 14 32  1  0
 15 33  1  0
 16 34  1  0
 17 35  1  0
 23 36  1  0
 23 37  1  0
 24 38  1  0
 24 39  1  0
 25 40  1  0
 25 41  1  0
 26 42  1  0
 26 43  1  0
M  END
$$$$
