
     RDKit          3D

 41 42  0  0  0  0  0  0  0  0999 V2000
   -6.9601    0.9085   -0.1232 C   0  0  0  0  0  0  0  0  0  0  0  0
   -6.1140   -0.0745   -0.6984 O   0  0  0  0  0  0  0  0  0  0  0  0
   -4.8552   -0.2158   -0.1702 C   0  0  0  0  0  0  0  0  0  0  0  0
   -4.3675    0.5101    0.9203 C   0  0  0  0  0  0  0  0  0  0  0  0
   -3.0673    0.3006    1.3892 C   0  0  0  0  0  0  0  0  0  0  0  0
   -2.2367   -0.6477    0.7841 C   0  0  0  0  0  0  0  0  0  0  0  0
   -0.8375   -0.8874    1.3017 C   0  0  0  0  0  0  0  0  0  0  0  0
    0.2662   -0.3632    0.4052 C   0  0  0  0  0  0  0  0  0  0  0  0
    0.1390   -0.0442   -0.7702 O   0  0  0  0  0  0  0  0  0  0  0  0
    1.4339   -0.3570    1.1388 O   0  0  0  0  0  0  0  0  0  0  0  0
    2.4905    0.1394    0.3532 N   0  0  0  0  0  0  0  0  0  0  0  0
    3.5901    0.2473    1.0382 C   0  0  0  0  0  0  0  0  0  0  0  0
    3.6947   -0.1153    2.3636 N   0  0  0  0  0  0  0  0  0  0  0  0
    4.8036    0.7784    0.3348 C   0  0  0  0  0  0  0  0  0  0  0  0
    4.8652    0.7521   -1.0643 C   0  0  0  0  0  0  0  0  0  0  0  0
    5.9944    1.2375   -1.7270 C   0  0  0  0  0  0  0  0  0  0  0  0
    7.0625    1.7583   -0.9965 C   0  0  0  0  0  0  0  0  0  0  0  0
    7.0035    1.7971    0.3961 C   0  0  0  0  0  0  0  0  0  0  0  0
    5.8765    1.3095    1.0627 C   0  0  0  0  0  0  0  0  0  0  0  0
   -2.7254   -1.3759   -0.3103 C   0  0  0  0  0  0  0  0  0  0  0  0
   -4.0198   -1.1568   -0.7991 C   0  0  0  0  0  0  0  0  0  0  0  0
   -4.5558   -1.8435   -1.8625 O   0  0  0  0  0  0  0  0  0  0  0  0
   -3.6279   -2.3602   -2.8074 C   0  0  0  0  0  0  0  0  0  0  0  0
   -6.5211    1.9093   -0.2069 H   0  0  0  0  0  0  0  0  0  0  0  0
   -7.9007    0.9111   -0.6829 H   0  0  0  0  0  0  0  0  0  0  0  0
   -7.1942    0.6638    0.9176 H   0  0  0  0  0  0  0  0  0  0  0  0
   -4.9740    1.2512    1.4290 H   0  0  0  0  0  0  0  0  0  0  0  0
   -2.7152    0.8863    2.2350 H   0  0  0  0  0  0  0  0  0  0  0  0
   -0.6871   -1.9656    1.4390 H   0  0  0  0  0  0  0  0  0  0  0  0
   -0.7342   -0.4146    2.2867 H   0  0  0  0  0  0  0  0  0  0  0  0
    4.5821   -0.5335    2.6237 H   0  0  0  0  0  0  0  0  0  0  0  0
    2.9099   -0.6829    2.6646 H   0  0  0  0  0  0  0  0  0  0  0  0
    4.0346    0.3563   -1.6454 H   0  0  0  0  0  0  0  0  0  0  0  0
    6.0359    1.2141   -2.8130 H   0  0  0  0  0  0  0  0  0  0  0  0
    7.9379    2.1419   -1.5149 H   0  0  0  0  0  0  0  0  0  0  0  0
    7.8314    2.2172    0.9625 H   0  0  0  0  0  0  0  0  0  0  0  0
    5.8375    1.3759    2.1460 H   0  0  0  0  0  0  0  0  0  0  0  0
   -2.0781   -2.1137   -0.7736 H   0  0  0  0  0  0  0  0  0  0  0  0
   -3.1499   -3.2671   -2.4237 H   0  0  0  0  0  0  0  0  0  0  0  0
   -2.8808   -1.6119   -3.0954 H   0  0  0  0  0  0  0  0  0  0  0  0
   -4.1873   -2.6351   -3.7069 H   0  0  0  0  0  0  0  0  0  0  0  0
  1  2  1  0
  2  3  1  0
  3  4  2  0
  4  5  1  0
  5  6  2  0
  6  7  1  0
  7  8  1  0
  8  9  2  0
  8 10  1  0
 10 11  1  0
 11 12  2  3
 12 13  1  0
 12 14  1  0
 14 15  2  0
 15 16  1  0
 16 17  2  0
 17 18  1  0
 18 19  2  0
  6 20  1  0
 20 21  2  0
 21 22  1  0
 22 23  1  0
 21  3  1  0
 19 14  1  0
  1 24  1  0
  1 25  1  0
  1 26  1  0
  4 27  1  0
  5 28  1  0
  7 29  1  0
  7 30  1  0
 13 31  1  0
 13 32  1  0
 15 33  1  0
 16 34  1  0
 17 35  1  0
 18 36  1  0
 19 37  1  0
 20 38  1  0
 23 39  1  0
 23 40  1  0
 23 41  1  0
M  END
$$$$
