
     RDKit          3D

 44 46  0  0  0  0  0  0  0  0999 V2000
    1.8928   -1.8015   -2.9751 O   0  0  0  0  0  0  0  0  0  0  0  0
    1.4641   -1.8622   -1.8232 C   0  0  0  0  0  0  0  0  0  0  0  0
    0.2095   -2.6442   -1.4371 C   0  0  0  0  0  0  0  0  0  0  0  0
   -0.3478   -2.2714   -0.1726 O   0  0  0  0  0  0  0  0  0  0  0  0
   -1.1255   -1.1497   -0.2039 C   0  0  0  0  0  0  0  0  0  0  0  0
   -1.2955   -0.4502   -1.1934 O   0  0  0  0  0  0  0  0  0  0  0  0
   -1.6678   -0.8488    1.1845 C   0  0  0  0  0  0  0  0  0  0  0  0
   -2.9314   -0.1357    1.0830 N   0  0  0  0  0  0  0  0  0  0  0  0
   -2.9545    1.2376    1.0767 C   0  0  0  0  0  0  0  0  0  0  0  0
   -4.0214    1.9583    0.9881 N   0  0  0  0  0  0  0  0  0  0  0  0
   -5.2500    1.2903    0.8691 C   0  0  0  0  0  0  0  0  0  0  0  0
   -6.4234    2.0426    0.7853 C   0  0  0  0  0  0  0  0  0  0  0  0
   -7.6658    1.4129    0.6606 C   0  0  0  0  0  0  0  0  0  0  0  0
   -7.7449    0.0211    0.6182 C   0  0  0  0  0  0  0  0  0  0  0  0
   -6.5819   -0.7430    0.6996 C   0  0  0  0  0  0  0  0  0  0  0  0
   -5.3439   -0.1019    0.8250 C   0  0  0  0  0  0  0  0  0  0  0  0
   -4.0917   -0.8765    0.9187 C   0  0  0  0  0  0  0  0  0  0  0  0
   -4.1065   -2.1029    0.8465 O   0  0  0  0  0  0  0  0  0  0  0  0
    2.1102   -1.2740   -0.7549 N   0  0  0  0  0  0  0  0  0  0  0  0
    3.3586   -0.6858   -0.9691 N   0  0  0  0  0  0  0  0  0  0  0  0
    4.0286   -0.1893    0.1310 C   0  0  0  0  0  0  0  0  0  0  0  0
    3.5888   -0.3108    1.2729 O   0  0  0  0  0  0  0  0  0  0  0  0
    5.3065    0.5310   -0.1236 C   0  0  0  0  0  0  0  0  0  0  0  0
    5.7967    1.3778    0.8838 C   0  0  0  0  0  0  0  0  0  0  0  0
    6.9905    2.0805    0.6999 C   0  0  0  0  0  0  0  0  0  0  0  0
    7.6994    1.9347   -0.4909 C   0  0  0  0  0  0  0  0  0  0  0  0
    9.3115    2.8867   -0.7437 Br  0  0  0  0  0  0  0  0  0  0  0  0
    7.2309    1.0855   -1.4947 C   0  0  0  0  0  0  0  0  0  0  0  0
    6.0369    0.3790   -1.3114 C   0  0  0  0  0  0  0  0  0  0  0  0
   -0.5366   -2.5540   -2.2340 H   0  0  0  0  0  0  0  0  0  0  0  0
    0.4925   -3.6989   -1.3659 H   0  0  0  0  0  0  0  0  0  0  0  0
   -0.9295   -0.2403    1.7159 H   0  0  0  0  0  0  0  0  0  0  0  0
   -1.8227   -1.7869    1.7286 H   0  0  0  0  0  0  0  0  0  0  0  0
   -1.9662    1.7188    1.1630 H   0  0  0  0  0  0  0  0  0  0  0  0
   -6.3658    3.1276    0.8145 H   0  0  0  0  0  0  0  0  0  0  0  0
   -8.5709    2.0118    0.5951 H   0  0  0  0  0  0  0  0  0  0  0  0
   -8.7121   -0.4669    0.5202 H   0  0  0  0  0  0  0  0  0  0  0  0
   -6.6386   -1.8279    0.6657 H   0  0  0  0  0  0  0  0  0  0  0  0
    1.8820   -1.5070    0.2112 H   0  0  0  0  0  0  0  0  0  0  0  0
    3.5866   -0.4620   -1.9360 H   0  0  0  0  0  0  0  0  0  0  0  0
    5.2478    1.4962    1.8169 H   0  0  0  0  0  0  0  0  0  0  0  0
    7.3554    2.7345    1.4892 H   0  0  0  0  0  0  0  0  0  0  0  0
    7.7908    0.9601   -2.4195 H   0  0  0  0  0  0  0  0  0  0  0  0
    5.7143   -0.2953   -2.1005 H   0  0  0  0  0  0  0  0  0  0  0  0
  1  2  2  0
  2  3  1  0
  3  4  1  0
  4  5  1  0
  5  6  2  0
  5  7  1  0
  7  8  1  0
  8  9  1  0
  9 10  2  0
 10 11  1  0
 11 12  2  0
 12 13  1  0
 13 14  2  0
 14 15  1  0
 15 16  2  0
 16 17  1  0
 17 18  2  0
  2 19  1  0
 19 20  1  0
 20 21  1  0
 21 22  2  0
 21 23  1  0
 23 24  2  0
 24 25  1  0
 25 26  2  0
 26 27  1  0
 26 28  1  0
 28 29  2  0
 17  8  1  0
 29 23  1  0
 16 11  1  0
  3 30  1  0
  3 31  1  0
  7 32  1  0
  7 33  1  0
  9 34  1  0
 12 35  1  0
 13 36  1  0
 14 37  1  0
 15 38  1  0
 19 39  1  0
 20 40  1  0
 24 41  1  0
 25 42  1  0
 28 43  1  0
 29 44  1  0
M  END
$$$$
