
     RDKit          3D

 60 61  0  0  0  0  0  0  0  0999 V2000
   -0.5146   -2.6194    1.2310 C   0  0  0  0  0  0  0  0  0  0  0  0
    0.0455   -3.0720   -0.0023 O   0  0  0  0  0  0  0  0  0  0  0  0
    0.9538   -2.1743   -0.5039 C   0  0  0  0  0  0  0  0  0  0  0  0
    2.1486   -1.9332    0.1811 C   0  0  0  0  0  0  0  0  0  0  0  0
    3.0858   -1.0430   -0.3408 C   0  0  0  0  0  0  0  0  0  0  0  0
    2.8296   -0.3859   -1.5511 C   0  0  0  0  0  0  0  0  0  0  0  0
    3.8022    0.5838   -2.1164 C   0  0  0  0  0  0  0  0  0  0  0  0
    3.9021    0.6885   -3.3383 O   0  0  0  0  0  0  0  0  0  0  0  0
    4.6367    1.4455   -1.2383 C   0  0  0  0  0  0  0  0  0  0  0  0
    4.1896    1.9748   -0.0889 C   0  0  0  0  0  0  0  0  0  0  0  0
    4.9828    2.8661    0.7697 C   0  0  0  0  0  0  0  0  0  0  0  0
    5.8795    3.8122    0.2516 C   0  0  0  0  0  0  0  0  0  0  0  0
    6.5882    4.6639    1.1036 C   0  0  0  0  0  0  0  0  0  0  0  0
    6.3916    4.5766    2.4768 C   0  0  0  0  0  0  0  0  0  0  0  0
    7.0560    5.3895    3.3433 O   0  0  0  0  0  0  0  0  0  0  0  0
    5.4984    3.6560    3.0090 C   0  0  0  0  0  0  0  0  0  0  0  0
    4.7920    2.8059    2.1565 C   0  0  0  0  0  0  0  0  0  0  0  0
    1.6540   -0.6824   -2.2647 C   0  0  0  0  0  0  0  0  0  0  0  0
    1.3964   -0.1058   -3.4862 O   0  0  0  0  0  0  0  0  0  0  0  0
    0.7007   -1.5789   -1.7511 C   0  0  0  0  0  0  0  0  0  0  0  0
   -0.5844   -1.8692   -2.4986 C   0  0  0  0  0  0  0  0  0  0  0  0
   -1.7062   -0.9574   -2.0663 C   0  0  0  0  0  0  0  0  0  0  0  0
   -2.9155   -1.2996   -1.5756 C   0  0  0  0  0  0  0  0  0  0  0  0
   -3.3963   -2.7189   -1.4360 C   0  0  0  0  0  0  0  0  0  0  0  0
   -3.9090   -0.2203   -1.1807 C   0  0  0  0  0  0  0  0  0  0  0  0
   -3.9710    0.0719    0.3266 C   0  0  0  0  0  0  0  0  0  0  0  0
   -4.6557   -0.9986    1.1348 C   0  0  0  0  0  0  0  0  0  0  0  0
   -5.9700   -1.0854    1.4276 C   0  0  0  0  0  0  0  0  0  0  0  0
   -6.4991   -2.2177    2.2697 C   0  0  0  0  0  0  0  0  0  0  0  0
   -7.0220   -0.1185    0.9578 C   0  0  0  0  0  0  0  0  0  0  0  0
   -1.4052   -3.2227    1.4353 H   0  0  0  0  0  0  0  0  0  0  0  0
   -0.8232   -1.5685    1.1796 H   0  0  0  0  0  0  0  0  0  0  0  0
    0.1894   -2.7708    2.0554 H   0  0  0  0  0  0  0  0  0  0  0  0
    2.3610   -2.4531    1.1119 H   0  0  0  0  0  0  0  0  0  0  0  0
    4.0155   -0.8873    0.2002 H   0  0  0  0  0  0  0  0  0  0  0  0
    5.6136    1.6839   -1.6470 H   0  0  0  0  0  0  0  0  0  0  0  0
    3.1854    1.7632    0.2713 H   0  0  0  0  0  0  0  0  0  0  0  0
    6.0278    3.9112   -0.8201 H   0  0  0  0  0  0  0  0  0  0  0  0
    7.2760    5.3872    0.6766 H   0  0  0  0  0  0  0  0  0  0  0  0
    7.6363    5.9791    2.8343 H   0  0  0  0  0  0  0  0  0  0  0  0
    5.3486    3.6022    4.0826 H   0  0  0  0  0  0  0  0  0  0  0  0
    4.0935    2.0951    2.5915 H   0  0  0  0  0  0  0  0  0  0  0  0
    2.2291    0.2972   -3.8201 H   0  0  0  0  0  0  0  0  0  0  0  0
   -0.8317   -2.9276   -2.3757 H   0  0  0  0  0  0  0  0  0  0  0  0
   -0.4322   -1.7461   -3.5776 H   0  0  0  0  0  0  0  0  0  0  0  0
   -1.4679    0.1017   -2.1687 H   0  0  0  0  0  0  0  0  0  0  0  0
   -3.2821   -3.0679   -0.4047 H   0  0  0  0  0  0  0  0  0  0  0  0
   -2.8618   -3.4129   -2.0897 H   0  0  0  0  0  0  0  0  0  0  0  0
   -4.4536   -2.7969   -1.7132 H   0  0  0  0  0  0  0  0  0  0  0  0
   -3.6403    0.7176   -1.6880 H   0  0  0  0  0  0  0  0  0  0  0  0
   -4.9040   -0.4773   -1.5668 H   0  0  0  0  0  0  0  0  0  0  0  0
   -4.4760    1.0325    0.4800 H   0  0  0  0  0  0  0  0  0  0  0  0
   -2.9588    0.2137    0.7266 H   0  0  0  0  0  0  0  0  0  0  0  0
   -3.9844   -1.7647    1.5205 H   0  0  0  0  0  0  0  0  0  0  0  0
   -6.9812   -1.8263    3.1730 H   0  0  0  0  0  0  0  0  0  0  0  0
   -5.7069   -2.9048    2.5871 H   0  0  0  0  0  0  0  0  0  0  0  0
   -7.2364   -2.7971    1.7034 H   0  0  0  0  0  0  0  0  0  0  0  0
   -7.4818    0.3844    1.8146 H   0  0  0  0  0  0  0  0  0  0  0  0
   -6.6321    0.6518    0.2897 H   0  0  0  0  0  0  0  0  0  0  0  0
   -7.8063   -0.6510    0.4100 H   0  0  0  0  0  0  0  0  0  0  0  0
  1  2  1  0
  2  3  1  0
  3  4  2  0
  4  5  1  0
  5  6  2  0
  6  7  1  0
  7  8  2  0
  7  9  1  0
  9 10  2  3
 10 11  1  0
 11 12  2  0
 12 13  1  0
 13 14  2  0
 14 15  1  0
 14 16  1  0
 16 17  2  0
  6 18  1  0
 18 19  1  0
 18 20  2  0
 20 21  1  0
 21 22  1  0
 22 23  2  3
 23 24  1  0
 23 25  1  0
 25 26  1  0
 26 27  1  0
 27 28  2  3
 28 29  1  0
 28 30  1  0
 20  3  1  0
 17 11  1  0
  1 31  1  0
  1 32  1  0
  1 33  1  0
  4 34  1  0
  5 35  1  0
  9 36  1  0
 10 37  1  0
 12 38  1  0
 13 39  1  0
 15 40  1  0
 16 41  1  0
 17 42  1  0
 19 43  1  0
 21 44  1  0
 21 45  1  0
 22 46  1  0
 24 47  1  0
 24 48  1  0
 24 49  1  0
 25 50  1  0
 25 51  1  0
 26 52  1  0
 26 53  1  0
 27 54  1  0
 29 55  1  0
 29 56  1  0
 29 57  1  0
 30 58  1  0
 30 59  1  0
 30 60  1  0
M  END
$$$$
