
     RDKit          3D

 39 41  0  0  0  0  0  0  0  0999 V2000
   -0.2716    5.3512   -2.1794 C   0  0  0  0  0  0  0  0  0  0  0  0
   -0.0204    4.0322   -1.4692 C   0  0  0  0  0  0  0  0  0  0  0  0
   -1.1726    2.7658   -2.0953 S   0  0  0  0  0  0  0  0  0  0  0  0
   -0.6978    1.3655   -1.0893 C   0  0  0  0  0  0  0  0  0  0  0  0
   -1.4824    0.2319   -1.1268 C   0  0  0  0  0  0  0  0  0  0  0  0
   -1.0902   -0.8426   -0.3563 C   0  0  0  0  0  0  0  0  0  0  0  0
   -1.8088   -2.0114   -0.3218 N   0  0  0  0  0  0  0  0  0  0  0  0
   -2.7834   -2.4219   -1.3235 C   0  0  0  0  0  0  0  0  0  0  0  0
   -2.8320   -3.9445   -1.1916 C   0  0  0  0  0  0  0  0  0  0  0  0
   -2.4288   -4.1897    0.2539 C   0  0  0  0  0  0  0  0  0  0  0  0
   -1.3509   -3.1349    0.4861 C   0  0  0  0  0  0  0  0  0  0  0  0
    0.0117   -0.7580    0.4086 N   0  0  0  0  0  0  0  0  0  0  0  0
    0.7112    0.3916    0.3993 C   0  0  0  0  0  0  0  0  0  0  0  0
    1.9385    0.4304    1.2036 C   0  0  0  0  0  0  0  0  0  0  0  0
    2.8301   -0.6641    1.1461 C   0  0  0  0  0  0  0  0  0  0  0  0
    4.0235   -0.6806    1.8731 C   0  0  0  0  0  0  0  0  0  0  0  0
    4.3544    0.3985    2.6835 C   0  0  0  0  0  0  0  0  0  0  0  0
    3.4880    1.4865    2.7710 C   0  0  0  0  0  0  0  0  0  0  0  0
    2.2890    1.5044    2.0424 C   0  0  0  0  0  0  0  0  0  0  0  0
    1.2640    2.8808    2.2844 Cl  0  0  0  0  0  0  0  0  0  0  0  0
    0.4119    1.4610   -0.3469 N   0  0  0  0  0  0  0  0  0  0  0  0
   -1.2904    5.7141   -2.0061 H   0  0  0  0  0  0  0  0  0  0  0  0
   -0.1111    5.2637   -3.2594 H   0  0  0  0  0  0  0  0  0  0  0  0
    0.4190    6.1133   -1.8033 H   0  0  0  0  0  0  0  0  0  0  0  0
   -0.1702    4.1639   -0.3931 H   0  0  0  0  0  0  0  0  0  0  0  0
    1.0119    3.7143   -1.6466 H   0  0  0  0  0  0  0  0  0  0  0  0
   -2.3769    0.2007   -1.7329 H   0  0  0  0  0  0  0  0  0  0  0  0
   -3.7600   -1.9820   -1.0938 H   0  0  0  0  0  0  0  0  0  0  0  0
   -2.4946   -2.1435   -2.3429 H   0  0  0  0  0  0  0  0  0  0  0  0
   -3.8163   -4.3541   -1.4352 H   0  0  0  0  0  0  0  0  0  0  0  0
   -2.0963   -4.4011   -1.8649 H   0  0  0  0  0  0  0  0  0  0  0  0
   -2.0659   -5.2062    0.4286 H   0  0  0  0  0  0  0  0  0  0  0  0
   -3.2840   -4.0088    0.9163 H   0  0  0  0  0  0  0  0  0  0  0  0
   -1.2741   -2.8838    1.5495 H   0  0  0  0  0  0  0  0  0  0  0  0
   -0.3804   -3.4987    0.1273 H   0  0  0  0  0  0  0  0  0  0  0  0
    2.5890   -1.5196    0.5150 H   0  0  0  0  0  0  0  0  0  0  0  0
    4.6898   -1.5370    1.8031 H   0  0  0  0  0  0  0  0  0  0  0  0
    5.2805    0.3916    3.2525 H   0  0  0  0  0  0  0  0  0  0  0  0
    3.7468    2.3212    3.4185 H   0  0  0  0  0  0  0  0  0  0  0  0
  1  2  1  0
  2  3  1  0
  3  4  1  0
  4  5  2  0
  5  6  1  0
  6  7  1  0
  7  8  1  0
  8  9  1  0
  9 10  1  0
 10 11  1  0
  6 12  2  0
 12 13  1  0
 13 14  1  0
 14 15  2  0
 15 16  1  0
 16 17  2  0
 17 18  1  0
 18 19  2  0
 19 20  1  0
 13 21  2  0
 21  4  1  0
 11  7  1  0
 19 14  1  0
  1 22  1  0
  1 23  1  0
  1 24  1  0
  2 25  1  0
  2 26  1  0
  5 27  1  0
  8 28  1  0
  8 29  1  0
  9 30  1  0
  9 31  1  0
 10 32  1  0
 10 33  1  0
 11 34  1  0
 11 35  1  0
 15 36  1  0
 16 37  1  0
 17 38  1  0
 18 39  1  0
M  END
$$$$
