
     RDKit          3D

 54 56  0  0  0  0  0  0  0  0999 V2000
   -7.5104    1.0469    1.6042 C   0  0  0  0  0  0  0  0  0  0  0  0
   -6.2187    1.4822    2.2788 C   0  0  0  0  0  0  0  0  0  0  0  0
   -4.9694    0.8459    1.6682 C   0  0  0  0  0  0  0  0  0  0  0  0
   -4.7098    1.2862    0.2285 C   0  0  0  0  0  0  0  0  0  0  0  0
   -3.4496    0.7652   -0.2638 N   0  0  0  0  0  0  0  0  0  0  0  0
   -3.3432   -0.5080   -0.7747 C   0  0  0  0  0  0  0  0  0  0  0  0
   -4.3043   -1.2624   -0.8999 O   0  0  0  0  0  0  0  0  0  0  0  0
   -1.9365   -0.9403   -1.1800 C   0  0  0  0  0  0  0  0  0  0  0  0
   -1.3466   -0.0446   -2.2841 C   0  0  0  0  0  0  0  0  0  0  0  0
   -0.2466    0.8851   -1.7766 C   0  0  0  0  0  0  0  0  0  0  0  0
    0.9100    0.1334   -1.0881 C   0  0  0  0  0  0  0  0  0  0  0  0
    2.0498   -0.1568   -2.0845 C   0  0  0  0  0  0  0  0  0  0  0  0
    3.2072   -0.7394   -1.4217 N   0  0  0  0  0  0  0  0  0  0  0  0
    4.1075   -0.1053   -0.5767 C   0  0  0  0  0  0  0  0  0  0  0  0
    4.1547    1.2636   -0.5663 N   0  0  0  0  0  0  0  0  0  0  0  0
    4.9736    2.0354    0.2133 C   0  0  0  0  0  0  0  0  0  0  0  0
    4.8567    3.7008    0.0533 S   0  0  0  0  0  0  0  0  0  0  0  0
    5.8301    1.4148    1.0762 N   0  0  0  0  0  0  0  0  0  0  0  0
    5.8279    0.1207    1.0909 C   0  0  0  0  0  0  0  0  0  0  0  0
    6.7566   -0.5772    2.0244 C   0  0  0  0  0  0  0  0  0  0  0  0
    6.8006   -1.9145    2.0782 C   0  0  0  0  0  0  0  0  0  0  0  0
    5.9674   -2.7421    1.2419 C   0  0  0  0  0  0  0  0  0  0  0  0
    5.0965   -2.2056    0.3752 C   0  0  0  0  0  0  0  0  0  0  0  0
    4.9573   -0.7641    0.2444 C   0  0  0  0  0  0  0  0  0  0  0  0
    0.4390   -1.1561   -0.3861 C   0  0  0  0  0  0  0  0  0  0  0  0
   -1.0206   -1.0728    0.0439 C   0  0  0  0  0  0  0  0  0  0  0  0
   -7.5636    1.4035    0.5714 H   0  0  0  0  0  0  0  0  0  0  0  0
   -7.6034   -0.0437    1.5997 H   0  0  0  0  0  0  0  0  0  0  0  0
   -8.3713    1.4581    2.1411 H   0  0  0  0  0  0  0  0  0  0  0  0
   -6.1376    2.5747    2.2415 H   0  0  0  0  0  0  0  0  0  0  0  0
   -6.2680    1.2040    3.3383 H   0  0  0  0  0  0  0  0  0  0  0  0
   -4.1043    1.1179    2.2865 H   0  0  0  0  0  0  0  0  0  0  0  0
   -5.0489   -0.2471    1.7182 H   0  0  0  0  0  0  0  0  0  0  0  0
   -4.6496    2.3776    0.1653 H   0  0  0  0  0  0  0  0  0  0  0  0
   -5.5112    0.9472   -0.4356 H   0  0  0  0  0  0  0  0  0  0  0  0
   -2.6121    1.2929   -0.0634 H   0  0  0  0  0  0  0  0  0  0  0  0
   -2.0553   -1.9416   -1.6191 H   0  0  0  0  0  0  0  0  0  0  0  0
   -0.9180   -0.6872   -3.0644 H   0  0  0  0  0  0  0  0  0  0  0  0
   -2.1296    0.5454   -2.7751 H   0  0  0  0  0  0  0  0  0  0  0  0
   -0.6825    1.5892   -1.0574 H   0  0  0  0  0  0  0  0  0  0  0  0
    0.1273    1.5015   -2.6027 H   0  0  0  0  0  0  0  0  0  0  0  0
    1.3012    0.8087   -0.3150 H   0  0  0  0  0  0  0  0  0  0  0  0
    1.7034   -0.8572   -2.8540 H   0  0  0  0  0  0  0  0  0  0  0  0
    2.3434    0.7555   -2.6163 H   0  0  0  0  0  0  0  0  0  0  0  0
    3.1180   -1.7376   -1.2637 H   0  0  0  0  0  0  0  0  0  0  0  0
    3.5568    1.7740   -1.1967 H   0  0  0  0  0  0  0  0  0  0  0  0
    7.3849    0.0475    2.6482 H   0  0  0  0  0  0  0  0  0  0  0  0
    7.4820   -2.4120    2.7623 H   0  0  0  0  0  0  0  0  0  0  0  0
    6.0715   -3.8199    1.3306 H   0  0  0  0  0  0  0  0  0  0  0  0
    4.4990   -2.8634   -0.2438 H   0  0  0  0  0  0  0  0  0  0  0  0
    1.0705   -1.3460    0.4902 H   0  0  0  0  0  0  0  0  0  0  0  0
    0.5606   -2.0223   -1.0493 H   0  0  0  0  0  0  0  0  0  0  0  0
   -1.1482   -0.2354    0.7403 H   0  0  0  0  0  0  0  0  0  0  0  0
   -1.2945   -1.9752    0.6041 H   0  0  0  0  0  0  0  0  0  0  0  0
  1  2  1  0
  2  3  1  0
  3  4  1  0
  4  5  1  0
  5  6  1  0
  6  7  2  0
  6  8  1  0
  8  9  1  0
  9 10  1  0
 10 11  1  0
 11 12  1  0
 12 13  1  0
 13 14  1  0
 14 15  1  0
 15 16  1  0
 16 17  2  0
 16 18  1  0
 18 19  2  0
 19 20  1  0
 20 21  2  0
 21 22  1  0
 22 23  2  0
 23 24  1  0
 11 25  1  0
 25 26  1  0
 26  8  1  0
 24 14  2  0
 24 19  1  0
  1 27  1  0
  1 28  1  0
  1 29  1  0
  2 30  1  0
  2 31  1  0
  3 32  1  0
  3 33  1  0
  4 34  1  0
  4 35  1  0
  5 36  1  0
  8 37  1  0
  9 38  1  0
  9 39  1  0
 10 40  1  0
 10 41  1  0
 11 42  1  0
 12 43  1  0
 12 44  1  0
 13 45  1  0
 15 46  1  0
 20 47  1  0
 21 48  1  0
 22 49  1  0
 23 50  1  0
 25 51  1  0
 25 52  1  0
 26 53  1  0
 26 54  1  0
M  END
$$$$
