
     RDKit          3D

 53 56  0  0  0  0  0  0  0  0999 V2000
    7.7638    2.0495    1.2715 C   0  0  0  0  0  0  0  0  0  0  0  0
    7.6495    1.5222   -0.1507 C   0  0  0  0  0  0  0  0  0  0  0  0
    6.4464    0.5989   -0.3352 C   0  0  0  0  0  0  0  0  0  0  0  0
    5.2540    1.3402   -0.0888 O   0  0  0  0  0  0  0  0  0  0  0  0
    4.0686    0.6668   -0.1841 C   0  0  0  0  0  0  0  0  0  0  0  0
    3.9057   -0.6663   -0.5515 C   0  0  0  0  0  0  0  0  0  0  0  0
    2.6216   -1.2289   -0.6140 C   0  0  0  0  0  0  0  0  0  0  0  0
    1.4672   -0.4816   -0.3110 C   0  0  0  0  0  0  0  0  0  0  0  0
    0.1161   -1.0764   -0.3853 C   0  0  0  0  0  0  0  0  0  0  0  0
   -0.9180   -0.3248    0.0286 N   0  0  0  0  0  0  0  0  0  0  0  0
   -2.1480   -0.8613   -0.0638 C   0  0  0  0  0  0  0  0  0  0  0  0
   -3.2567   -0.0752    0.3394 N   0  0  0  0  0  0  0  0  0  0  0  0
   -3.0429    0.4823    1.6938 C   0  0  0  0  0  0  0  0  0  0  0  0
   -4.2959    1.2876    2.1195 C   0  0  0  0  0  0  0  0  0  0  0  0
   -4.7602    2.3092    1.1448 N   0  0  0  0  0  0  0  0  0  0  0  0
   -6.1493    2.0603    0.7603 C   0  0  0  0  0  0  0  0  0  0  0  0
   -3.8790    2.3426   -0.0456 C   0  0  0  0  0  0  0  0  0  0  0  0
   -3.5367    0.9672   -0.6814 C   0  0  0  0  0  0  0  0  0  0  0  0
   -2.3681   -2.1541   -0.5659 C   0  0  0  0  0  0  0  0  0  0  0  0
   -3.6382   -2.7724   -0.6793 C   0  0  0  0  0  0  0  0  0  0  0  0
   -3.7601   -4.0646   -1.1855 C   0  0  0  0  0  0  0  0  0  0  0  0
   -2.6189   -4.7493   -1.5822 C   0  0  0  0  0  0  0  0  0  0  0  0
   -1.3668   -4.1366   -1.4662 C   0  0  0  0  0  0  0  0  0  0  0  0
   -1.2204   -2.8482   -0.9620 C   0  0  0  0  0  0  0  0  0  0  0  0
    0.0061   -2.3240   -0.8772 N   0  0  0  0  0  0  0  0  0  0  0  0
    1.6603    0.8619    0.0595 C   0  0  0  0  0  0  0  0  0  0  0  0
    2.9399    1.4267    0.1197 C   0  0  0  0  0  0  0  0  0  0  0  0
    7.8472    1.2276    1.9878 H   0  0  0  0  0  0  0  0  0  0  0  0
    6.8936    2.6540    1.5419 H   0  0  0  0  0  0  0  0  0  0  0  0
    8.6545    2.6787    1.3699 H   0  0  0  0  0  0  0  0  0  0  0  0
    7.5637    2.3765   -0.8307 H   0  0  0  0  0  0  0  0  0  0  0  0
    8.5652    0.9817   -0.4098 H   0  0  0  0  0  0  0  0  0  0  0  0
    6.5223   -0.2438    0.3606 H   0  0  0  0  0  0  0  0  0  0  0  0
    6.4468    0.2279   -1.3660 H   0  0  0  0  0  0  0  0  0  0  0  0
    4.7498   -1.3007   -0.8001 H   0  0  0  0  0  0  0  0  0  0  0  0
    2.5279   -2.2746   -0.9064 H   0  0  0  0  0  0  0  0  0  0  0  0
   -2.8929   -0.3315    2.4158 H   0  0  0  0  0  0  0  0  0  0  0  0
   -2.1568    1.1348    1.7331 H   0  0  0  0  0  0  0  0  0  0  0  0
   -5.0992    0.5688    2.3443 H   0  0  0  0  0  0  0  0  0  0  0  0
   -4.0744    1.8009    3.0659 H   0  0  0  0  0  0  0  0  0  0  0  0
   -6.2859    1.0856    0.2782 H   0  0  0  0  0  0  0  0  0  0  0  0
   -6.5016    2.8374    0.0725 H   0  0  0  0  0  0  0  0  0  0  0  0
   -6.8012    2.1030    1.6395 H   0  0  0  0  0  0  0  0  0  0  0  0
   -2.9372    2.8255    0.2586 H   0  0  0  0  0  0  0  0  0  0  0  0
   -4.2947    3.0059   -0.8141 H   0  0  0  0  0  0  0  0  0  0  0  0
   -2.6939    1.1189   -1.3776 H   0  0  0  0  0  0  0  0  0  0  0  0
   -4.3882    0.6204   -1.2860 H   0  0  0  0  0  0  0  0  0  0  0  0
   -4.5306   -2.2353   -0.3627 H   0  0  0  0  0  0  0  0  0  0  0  0
   -4.7382   -4.5316   -1.2667 H   0  0  0  0  0  0  0  0  0  0  0  0
   -2.6948   -5.7586   -1.9806 H   0  0  0  0  0  0  0  0  0  0  0  0
   -0.4786   -4.6824   -1.7788 H   0  0  0  0  0  0  0  0  0  0  0  0
    0.8044    1.4894    0.3037 H   0  0  0  0  0  0  0  0  0  0  0  0
    3.0531    2.4696    0.4067 H   0  0  0  0  0  0  0  0  0  0  0  0
  1  2  1  0
  2  3  1  0
  3  4  1  0
  4  5  1  0
  5  6  2  0
  6  7  1  0
  7  8  2  0
  8  9  1  0
  9 10  2  0
 10 11  1  0
 11 12  1  0
 12 13  1  0
 13 14  1  0
 14 15  1  0
 15 16  1  0
 15 17  1  0
 17 18  1  0
 11 19  2  0
 19 20  1  0
 20 21  2  0
 21 22  1  0
 22 23  2  0
 23 24  1  0
 24 25  2  0
  8 26  1  0
 26 27  2  0
 27  5  1  0
 25  9  1  0
 18 12  1  0
 24 19  1  0
  1 28  1  0
  1 29  1  0
  1 30  1  0
  2 31  1  0
  2 32  1  0
  3 33  1  0
  3 34  1  0
  6 35  1  0
  7 36  1  0
 13 37  1  0
 13 38  1  0
 14 39  1  0
 14 40  1  0
 16 41  1  0
 16 42  1  0
 16 43  1  0
 17 44  1  0
 17 45  1  0
 18 46  1  0
 18 47  1  0
 20 48  1  0
 21 49  1  0
 22 50  1  0
 23 51  1  0
 26 52  1  0
 27 53  1  0
M  END
$$$$
