
     RDKit          3D

 30 31  0  0  0  0  0  0  0  0999 V2000
    1.3202    3.0208    0.4198 C   0  0  0  0  0  0  0  0  0  0  0  0
    1.0798    1.6994   -0.2729 C   0  0  0  0  0  0  0  0  0  0  0  0
    0.4327    1.7264   -1.4037 N   0  0  0  0  0  0  0  0  0  0  0  0
    0.1377    0.5195   -1.9810 N   0  0  0  0  0  0  0  0  0  0  0  0
   -1.0948   -0.0911   -1.6393 C   0  0  0  0  0  0  0  0  0  0  0  0
   -1.6296    0.0747   -0.4132 N   0  0  0  0  0  0  0  0  0  0  0  0
   -2.7921   -0.5267   -0.1485 C   0  0  0  0  0  0  0  0  0  0  0  0
   -3.3103   -0.3482    1.1336 N   0  0  0  0  0  0  0  0  0  0  0  0
   -3.4396   -1.3173   -1.0574 C   0  0  0  0  0  0  0  0  0  0  0  0
   -2.8139   -1.4249   -2.2692 C   0  0  0  0  0  0  0  0  0  0  0  0
   -3.5000   -2.3755   -3.5241 Cl  0  0  0  0  0  0  0  0  0  0  0  0
   -1.6599   -0.8301   -2.5986 N   0  0  0  0  0  0  0  0  0  0  0  0
    1.6127    0.4902    0.4056 C   0  0  0  0  0  0  0  0  0  0  0  0
    2.5196   -0.3409   -0.2626 C   0  0  0  0  0  0  0  0  0  0  0  0
    3.0301   -1.4664    0.3848 C   0  0  0  0  0  0  0  0  0  0  0  0
    2.6327   -1.7465    1.6888 C   0  0  0  0  0  0  0  0  0  0  0  0
    3.1239   -2.8274    2.3086 F   0  0  0  0  0  0  0  0  0  0  0  0
    1.7341   -0.9228    2.3609 C   0  0  0  0  0  0  0  0  0  0  0  0
    1.2210    0.2050    1.7190 C   0  0  0  0  0  0  0  0  0  0  0  0
    1.6827    3.7524   -0.3087 H   0  0  0  0  0  0  0  0  0  0  0  0
    0.3779    3.3792    0.8442 H   0  0  0  0  0  0  0  0  0  0  0  0
    2.0630    2.9305    1.2169 H   0  0  0  0  0  0  0  0  0  0  0  0
    0.1121    0.5285   -3.0007 H   0  0  0  0  0  0  0  0  0  0  0  0
   -4.2690   -0.0186    1.1183 H   0  0  0  0  0  0  0  0  0  0  0  0
   -2.6985    0.3042    1.6188 H   0  0  0  0  0  0  0  0  0  0  0  0
   -4.3657   -1.8243   -0.8331 H   0  0  0  0  0  0  0  0  0  0  0  0
    2.8225   -0.1152   -1.2818 H   0  0  0  0  0  0  0  0  0  0  0  0
    3.7299   -2.1261   -0.1180 H   0  0  0  0  0  0  0  0  0  0  0  0
    1.4356   -1.1691    3.3748 H   0  0  0  0  0  0  0  0  0  0  0  0
    0.5052    0.8404    2.2328 H   0  0  0  0  0  0  0  0  0  0  0  0
  1  2  1  0
  2  3  2  3
  3  4  1  0
  4  5  1  0
  5  6  2  0
  6  7  1  0
  7  8  1  0
  7  9  2  0
  9 10  1  0
 10 11  1  0
 10 12  2  0
  2 13  1  0
 13 14  2  0
 14 15  1  0
 15 16  2  0
 16 17  1  0
 16 18  1  0
 18 19  2  0
 12  5  1  0
 19 13  1  0
  1 20  1  0
  1 21  1  0
  1 22  1  0
  4 23  1  0
  8 24  1  0
  8 25  1  0
  9 26  1  0
 14 27  1  0
 15 28  1  0
 18 29  1  0
 19 30  1  0
M  END
$$$$
