
     RDKit          3D

 35 36  0  0  0  0  0  0  0  0999 V2000
   -5.1079    1.8847    0.5285 N   0  0  0  0  0  0  0  0  0  0  0  0
   -4.2551    0.9977   -0.0673 C   0  0  0  0  0  0  0  0  0  0  0  0
   -4.2899   -0.4250    0.3289 C   0  0  0  0  0  0  0  0  0  0  0  0
   -3.4520   -1.2291   -0.3221 C   0  0  0  0  0  0  0  0  0  0  0  0
   -2.6155   -0.7349   -1.2945 N   0  0  0  0  0  0  0  0  0  0  0  0
   -1.6765   -1.6249   -1.9695 C   0  0  0  0  0  0  0  0  0  0  0  0
   -0.3401   -1.6154   -1.2314 C   0  0  0  0  0  0  0  0  0  0  0  0
   -0.0551   -2.4565   -0.3813 O   0  0  0  0  0  0  0  0  0  0  0  0
    0.4804   -0.5550   -1.5586 N   0  0  0  0  0  0  0  0  0  0  0  0
    1.7208   -0.3094   -0.8467 C   0  0  0  0  0  0  0  0  0  0  0  0
    1.4854    0.3338    0.5183 C   0  0  0  0  0  0  0  0  0  0  0  0
    2.7810    0.4881    1.2683 C   0  0  0  0  0  0  0  0  0  0  0  0
    3.2240   -0.5182    2.1239 C   0  0  0  0  0  0  0  0  0  0  0  0
    4.4365   -0.3510    2.7863 C   0  0  0  0  0  0  0  0  0  0  0  0
    5.1728    0.8081    2.5759 C   0  0  0  0  0  0  0  0  0  0  0  0
    4.6645    1.7550    1.7035 C   0  0  0  0  0  0  0  0  0  0  0  0
    3.4928    1.6190    1.0443 N   0  0  0  0  0  0  0  0  0  0  0  0
   -2.5670    0.6274   -1.5973 C   0  0  0  0  0  0  0  0  0  0  0  0
   -1.7383    1.0580   -2.4001 O   0  0  0  0  0  0  0  0  0  0  0  0
   -3.4504    1.4684   -0.9680 N   0  0  0  0  0  0  0  0  0  0  0  0
   -6.0222    1.5388    0.7904 H   0  0  0  0  0  0  0  0  0  0  0  0
   -5.1450    2.7702    0.0321 H   0  0  0  0  0  0  0  0  0  0  0  0
   -4.9547   -0.7596    1.1113 H   0  0  0  0  0  0  0  0  0  0  0  0
   -3.3938   -2.2902   -0.0977 H   0  0  0  0  0  0  0  0  0  0  0  0
   -1.5251   -1.3061   -3.0071 H   0  0  0  0  0  0  0  0  0  0  0  0
   -2.0680   -2.6482   -1.9967 H   0  0  0  0  0  0  0  0  0  0  0  0
    0.0556    0.2276   -2.0600 H   0  0  0  0  0  0  0  0  0  0  0  0
    2.2474   -1.2651   -0.7385 H   0  0  0  0  0  0  0  0  0  0  0  0
    2.3342    0.3393   -1.4818 H   0  0  0  0  0  0  0  0  0  0  0  0
    1.0212    1.3196    0.3883 H   0  0  0  0  0  0  0  0  0  0  0  0
    0.7786   -0.2540    1.1164 H   0  0  0  0  0  0  0  0  0  0  0  0
    2.6373   -1.4200    2.2720 H   0  0  0  0  0  0  0  0  0  0  0  0
    4.8022   -1.1202    3.4604 H   0  0  0  0  0  0  0  0  0  0  0  0
    6.1199    0.9694    3.0776 H   0  0  0  0  0  0  0  0  0  0  0  0
    5.2019    2.6776    1.5039 H   0  0  0  0  0  0  0  0  0  0  0  0
  1  2  1  0
  2  3  1  0
  3  4  2  0
  4  5  1  0
  5  6  1  0
  6  7  1  0
  7  8  2  0
  7  9  1  0
  9 10  1  0
 10 11  1  0
 11 12  1  0
 12 13  2  0
 13 14  1  0
 14 15  2  0
 15 16  1  0
 16 17  2  0
  5 18  1  0
 18 19  2  0
 18 20  1  0
 20  2  2  0
 17 12  1  0
  1 21  1  0
  1 22  1  0
  3 23  1  0
  4 24  1  0
  6 25  1  0
  6 26  1  0
  9 27  1  0
 10 28  1  0
 10 29  1  0
 11 30  1  0
 11 31  1  0
 13 32  1  0
 14 33  1  0
 15 34  1  0
 16 35  1  0
M  END
$$$$
