
     RDKit          3D

 58 60  0  0  0  0  0  0  0  0999 V2000
   -2.8626    3.6153   -0.2430 C   0  0  0  0  0  0  0  0  0  0  0  0
   -2.6616    2.6195    0.7565 O   0  0  0  0  0  0  0  0  0  0  0  0
   -2.8738    1.3131    0.3941 C   0  0  0  0  0  0  0  0  0  0  0  0
   -2.8755    0.8657   -0.9355 C   0  0  0  0  0  0  0  0  0  0  0  0
   -3.1017   -0.4831   -1.2200 C   0  0  0  0  0  0  0  0  0  0  0  0
   -3.1146   -1.0376   -2.4807 O   0  0  0  0  0  0  0  0  0  0  0  0
   -3.0517   -0.1431   -3.5909 C   0  0  0  0  0  0  0  0  0  0  0  0
   -3.3353   -1.3863   -0.1671 C   0  0  0  0  0  0  0  0  0  0  0  0
   -3.6130   -2.7486   -0.4964 N   0  0  0  0  0  0  0  0  0  0  0  0
   -2.5871   -3.9670    0.0537 S   0  0  0  0  0  6  0  0  0  0  0  0
   -2.5681   -3.9606    1.5007 O   0  0  0  0  0  0  0  0  0  0  0  0
   -2.9274   -5.1611   -0.6901 O   0  0  0  0  0  0  0  0  0  0  0  0
   -0.9819   -3.4397   -0.5131 C   0  0  0  0  0  0  0  0  0  0  0  0
   -0.6113   -3.6881   -1.8372 C   0  0  0  0  0  0  0  0  0  0  0  0
    0.6729   -3.3445   -2.2629 C   0  0  0  0  0  0  0  0  0  0  0  0
    1.5892   -2.7620   -1.3732 C   0  0  0  0  0  0  0  0  0  0  0  0
    3.1855   -2.4861   -1.9713 Cl  0  0  0  0  0  0  0  0  0  0  0  0
    1.2038   -2.4968   -0.0498 C   0  0  0  0  0  0  0  0  0  0  0  0
    2.0967   -1.9094    0.9729 C   0  0  0  0  0  0  0  0  0  0  0  0
    2.1227   -2.3008    2.1279 O   0  0  0  0  0  0  0  0  0  0  0  0
    2.7750   -0.8544    0.4708 O   0  0  0  0  0  0  0  0  0  0  0  0
    3.7245   -0.2500    1.3673 C   0  0  0  0  0  0  0  0  0  0  0  0
    5.0052   -1.0842    1.3809 C   0  0  0  0  0  0  0  0  0  0  0  0
    4.0107    1.1786    0.8629 C   0  0  0  0  0  0  0  0  0  0  0  0
    5.1205    1.5135    0.4396 O   0  0  0  0  0  0  0  0  0  0  0  0
    2.9649    2.0864    0.9203 N   0  0  0  0  0  0  0  0  0  0  0  0
    3.1139    3.4380    0.4087 C   0  0  0  0  0  0  0  0  0  0  0  0
    1.6906    3.9869    0.3588 C   0  0  0  0  0  0  0  0  0  0  0  0
    1.0100    3.2708    1.5228 C   0  0  0  0  0  0  0  0  0  0  0  0
    1.6270    1.8738    1.4642 C   0  0  0  0  0  0  0  0  0  0  0  0
   -0.0820   -2.8554    0.3844 C   0  0  0  0  0  0  0  0  0  0  0  0
   -3.3248   -0.9540    1.1605 C   0  0  0  0  0  0  0  0  0  0  0  0
   -3.0778    0.3897    1.4380 C   0  0  0  0  0  0  0  0  0  0  0  0
   -3.0565    0.8864    3.1037 Cl  0  0  0  0  0  0  0  0  0  0  0  0
   -3.8129    3.4754   -0.7570 H   0  0  0  0  0  0  0  0  0  0  0  0
   -2.8995    4.5958    0.2490 H   0  0  0  0  0  0  0  0  0  0  0  0
   -2.0273    3.6210   -0.9408 H   0  0  0  0  0  0  0  0  0  0  0  0
   -2.7037    1.5733   -1.7420 H   0  0  0  0  0  0  0  0  0  0  0  0
   -2.0921    0.3856   -3.6126 H   0  0  0  0  0  0  0  0  0  0  0  0
   -3.9030    0.5553   -3.5872 H   0  0  0  0  0  0  0  0  0  0  0  0
   -3.1135   -0.7398   -4.5131 H   0  0  0  0  0  0  0  0  0  0  0  0
   -3.8766   -2.8946   -1.4761 H   0  0  0  0  0  0  0  0  0  0  0  0
   -1.3009   -4.1672   -2.5303 H   0  0  0  0  0  0  0  0  0  0  0  0
    0.9683   -3.5603   -3.2888 H   0  0  0  0  0  0  0  0  0  0  0  0
    3.3240   -0.1763    2.3867 H   0  0  0  0  0  0  0  0  0  0  0  0
    4.8155   -2.0857    1.7745 H   0  0  0  0  0  0  0  0  0  0  0  0
    5.7767   -0.6187    1.9964 H   0  0  0  0  0  0  0  0  0  0  0  0
    5.4055   -1.2155    0.3710 H   0  0  0  0  0  0  0  0  0  0  0  0
    3.7323    4.0010    1.1205 H   0  0  0  0  0  0  0  0  0  0  0  0
    3.6035    3.4376   -0.5724 H   0  0  0  0  0  0  0  0  0  0  0  0
    1.6504    5.0769    0.4400 H   0  0  0  0  0  0  0  0  0  0  0  0
    1.2104    3.6962   -0.5865 H   0  0  0  0  0  0  0  0  0  0  0  0
    1.2692    3.7572    2.4768 H   0  0  0  0  0  0  0  0  0  0  0  0
   -0.0825    3.2590    1.4358 H   0  0  0  0  0  0  0  0  0  0  0  0
    1.6823    1.4019    2.4486 H   0  0  0  0  0  0  0  0  0  0  0  0
    1.0753    1.2290    0.7657 H   0  0  0  0  0  0  0  0  0  0  0  0
   -0.3701   -2.6880    1.4228 H   0  0  0  0  0  0  0  0  0  0  0  0
   -3.5377   -1.6443    1.9794 H   0  0  0  0  0  0  0  0  0  0  0  0
  1  2  1  0
  2  3  1  0
  3  4  2  0
  4  5  1  0
  5  6  1  0
  6  7  1  0
  5  8  2  0
  8  9  1  0
  9 10  1  0
 10 11  2  0
 10 12  2  0
 10 13  1  0
 13 14  2  0
 14 15  1  0
 15 16  2  0
 16 17  1  0
 16 18  1  0
 18 19  1  0
 19 20  2  0
 19 21  1  0
 21 22  1  0
 22 23  1  0
 22 24  1  0
 24 25  2  0
 24 26  1  0
 26 27  1  0
 27 28  1  0
 28 29  1  0
 29 30  1  0
 18 31  2  0
  8 32  1  0
 32 33  2  0
 33 34  1  0
 33  3  1  0
 31 13  1  0
 30 26  1  0
  1 35  1  0
  1 36  1  0
  1 37  1  0
  4 38  1  0
  7 39  1  0
  7 40  1  0
  7 41  1  0
  9 42  1  0
 14 43  1  0
 15 44  1  0
 22 45  1  0
 23 46  1  0
 23 47  1  0
 23 48  1  0
 27 49  1  0
 27 50  1  0
 28 51  1  0
 28 52  1  0
 29 53  1  0
 29 54  1  0
 30 55  1  0
 30 56  1  0
 31 57  1  0
 32 58  1  0
M  END
$$$$
