
     RDKit          3D

 40 41  0  0  0  0  0  0  0  0999 V2000
    0.9141    2.6658    1.1534 C   0  0  0  0  0  0  0  0  0  0  0  0
    0.9268    1.2301    1.6638 C   0  0  0  0  0  0  0  0  0  0  0  0
    0.5812    0.1681    0.6049 C   0  0  0  0  0  0  0  0  0  0  0  0
    1.5599    0.1176   -0.5837 C   0  0  0  0  0  0  0  0  0  0  0  0
    2.9457   -0.3456   -0.2103 C   0  0  0  0  0  0  0  0  0  0  0  0
    3.1785   -1.6926    0.1005 C   0  0  0  0  0  0  0  0  0  0  0  0
    4.4560   -2.1263    0.4567 C   0  0  0  0  0  0  0  0  0  0  0  0
    5.5125   -1.2191    0.5045 C   0  0  0  0  0  0  0  0  0  0  0  0
    5.2927    0.1217    0.1941 C   0  0  0  0  0  0  0  0  0  0  0  0
    4.0155    0.5575   -0.1628 C   0  0  0  0  0  0  0  0  0  0  0  0
   -0.7466    0.4668    0.1159 O   0  0  0  0  0  0  0  0  0  0  0  0
   -1.4570   -0.5903   -0.3490 C   0  0  0  0  0  0  0  0  0  0  0  0
   -1.0815   -1.7468   -0.4312 O   0  0  0  0  0  0  0  0  0  0  0  0
   -2.7921   -0.1207   -0.7700 C   0  0  0  0  0  0  0  0  0  0  0  0
   -2.8940    1.0264   -1.5737 C   0  0  0  0  0  0  0  0  0  0  0  0
   -4.1370    1.4306   -2.0655 C   0  0  0  0  0  0  0  0  0  0  0  0
   -5.2802    0.6886   -1.7702 C   0  0  0  0  0  0  0  0  0  0  0  0
   -5.1860   -0.4515   -0.9701 C   0  0  0  0  0  0  0  0  0  0  0  0
   -3.9438   -0.8507   -0.4561 C   0  0  0  0  0  0  0  0  0  0  0  0
   -3.9279   -2.0306    0.4254 C   0  0  0  0  0  0  0  0  0  0  0  0
   -4.5629   -3.0538    0.2577 O   0  0  0  0  0  0  0  0  0  0  0  0
   -3.2104   -1.8018    1.5380 O   0  0  0  0  0  0  0  0  0  0  0  0
    1.0959    3.3569    1.9831 H   0  0  0  0  0  0  0  0  0  0  0  0
    1.6950    2.8357    0.4074 H   0  0  0  0  0  0  0  0  0  0  0  0
   -0.0518    2.9249    0.7092 H   0  0  0  0  0  0  0  0  0  0  0  0
    0.1841    1.1639    2.4692 H   0  0  0  0  0  0  0  0  0  0  0  0
    1.9016    1.0135    2.1146 H   0  0  0  0  0  0  0  0  0  0  0  0
    0.5630   -0.8010    1.1216 H   0  0  0  0  0  0  0  0  0  0  0  0
    1.5994    1.0905   -1.0888 H   0  0  0  0  0  0  0  0  0  0  0  0
    1.1734   -0.5609   -1.3558 H   0  0  0  0  0  0  0  0  0  0  0  0
    2.3632   -2.4134    0.0626 H   0  0  0  0  0  0  0  0  0  0  0  0
    4.6263   -3.1730    0.6946 H   0  0  0  0  0  0  0  0  0  0  0  0
    6.5074   -1.5576    0.7809 H   0  0  0  0  0  0  0  0  0  0  0  0
    6.1174    0.8287    0.2289 H   0  0  0  0  0  0  0  0  0  0  0  0
    3.8632    1.6070   -0.4028 H   0  0  0  0  0  0  0  0  0  0  0  0
   -2.0057    1.5978   -1.8350 H   0  0  0  0  0  0  0  0  0  0  0  0
   -4.2118    2.3176   -2.6910 H   0  0  0  0  0  0  0  0  0  0  0  0
   -6.2466    0.9983   -2.1622 H   0  0  0  0  0  0  0  0  0  0  0  0
   -6.0829   -1.0238   -0.7390 H   0  0  0  0  0  0  0  0  0  0  0  0
   -3.2547   -2.6485    2.0302 H   0  0  0  0  0  0  0  0  0  0  0  0
  1  2  1  0
  2  3  1  0
  3  4  1  0
  4  5  1  0
  5  6  2  0
  6  7  1  0
  7  8  2  0
  8  9  1  0
  9 10  2  0
  3 11  1  0
 11 12  1  0
 12 13  2  0
 12 14  1  0
 14 15  2  0
 15 16  1  0
 16 17  2  0
 17 18  1  0
 18 19  2  0
 19 20  1  0
 20 21  2  0
 20 22  1  0
 10  5  1  0
 19 14  1  0
  1 23  1  0
  1 24  1  0
  1 25  1  0
  2 26  1  0
  2 27  1  0
  3 28  1  0
  4 29  1  0
  4 30  1  0
  6 31  1  0
  7 32  1  0
  8 33  1  0
  9 34  1  0
 10 35  1  0
 15 36  1  0
 16 37  1  0
 17 38  1  0
 18 39  1  0
 22 40  1  0
M  END
$$$$
