
     RDKit          3D

 46 47  0  0  0  0  0  0  0  0999 V2000
    7.9361   -0.0307    2.2400 O   0  0  0  0  0  0  0  0  0  0  0  0
    7.1763   -0.5386    1.4308 C   0  0  0  0  0  0  0  0  0  0  0  0
    7.1264   -0.0751    0.1690 O   0  0  0  0  0  0  0  0  0  0  0  0
    6.3137   -1.7459    1.6872 C   0  0  0  0  0  0  0  0  0  0  0  0
    5.1725   -1.9169    0.6906 C   0  0  0  0  0  0  0  0  0  0  0  0
    4.1451   -0.8005    0.7931 C   0  0  0  0  0  0  0  0  0  0  0  0
    4.1495   -0.0012    1.7215 O   0  0  0  0  0  0  0  0  0  0  0  0
    3.2323   -0.8507   -0.2483 N   0  0  0  0  0  0  0  0  0  0  0  0
    2.1525    0.0241   -0.4874 C   0  0  0  0  0  0  0  0  0  0  0  0
    1.3535   -0.2409   -1.6098 C   0  0  0  0  0  0  0  0  0  0  0  0
    0.2642    0.5770   -1.9224 C   0  0  0  0  0  0  0  0  0  0  0  0
   -0.0328    1.6669   -1.1028 C   0  0  0  0  0  0  0  0  0  0  0  0
   -1.4038    2.7193   -1.5122 S   0  0  0  0  0  6  0  0  0  0  0  0
   -1.5469    2.7137   -2.9512 O   0  0  0  0  0  0  0  0  0  0  0  0
   -1.2731    3.9478   -0.7617 O   0  0  0  0  0  0  0  0  0  0  0  0
   -2.7109    1.8704   -0.8991 N   0  0  0  0  0  0  0  0  0  0  0  0
   -2.7653    1.5494    0.5329 C   0  0  0  0  0  0  0  0  0  0  0  0
   -4.2099    1.2624    0.9584 C   0  0  0  0  0  0  0  0  0  0  0  0
   -4.7898    0.0343    0.2931 C   0  0  0  0  0  0  0  0  0  0  0  0
   -4.4184   -1.2492    0.7163 C   0  0  0  0  0  0  0  0  0  0  0  0
   -4.9372   -2.3793    0.0822 C   0  0  0  0  0  0  0  0  0  0  0  0
   -5.8304   -2.2377   -0.9780 C   0  0  0  0  0  0  0  0  0  0  0  0
   -6.2072   -0.9662   -1.4056 C   0  0  0  0  0  0  0  0  0  0  0  0
   -5.6901    0.1652   -0.7735 C   0  0  0  0  0  0  0  0  0  0  0  0
    0.7625    1.9548    0.0067 C   0  0  0  0  0  0  0  0  0  0  0  0
    1.8487    1.1280    0.3143 C   0  0  0  0  0  0  0  0  0  0  0  0
    7.7267    0.7010    0.1885 H   0  0  0  0  0  0  0  0  0  0  0  0
    5.9146   -1.6618    2.7044 H   0  0  0  0  0  0  0  0  0  0  0  0
    6.9646   -2.6260    1.6439 H   0  0  0  0  0  0  0  0  0  0  0  0
    5.5552   -1.9657   -0.3355 H   0  0  0  0  0  0  0  0  0  0  0  0
    4.6544   -2.8607    0.8995 H   0  0  0  0  0  0  0  0  0  0  0  0
    3.3597   -1.5918   -0.9265 H   0  0  0  0  0  0  0  0  0  0  0  0
    1.5705   -1.0840   -2.2616 H   0  0  0  0  0  0  0  0  0  0  0  0
   -0.3373    0.3647   -2.8038 H   0  0  0  0  0  0  0  0  0  0  0  0
   -3.1021    1.1893   -1.5502 H   0  0  0  0  0  0  0  0  0  0  0  0
   -2.3911    2.3930    1.1223 H   0  0  0  0  0  0  0  0  0  0  0  0
   -2.1318    0.6783    0.7321 H   0  0  0  0  0  0  0  0  0  0  0  0
   -4.8415    2.1340    0.7434 H   0  0  0  0  0  0  0  0  0  0  0  0
   -4.2478    1.1205    2.0458 H   0  0  0  0  0  0  0  0  0  0  0  0
   -3.7262   -1.3786    1.5454 H   0  0  0  0  0  0  0  0  0  0  0  0
   -4.6477   -3.3719    0.4180 H   0  0  0  0  0  0  0  0  0  0  0  0
   -6.2362   -3.1184   -1.4693 H   0  0  0  0  0  0  0  0  0  0  0  0
   -6.9068   -0.8551   -2.2301 H   0  0  0  0  0  0  0  0  0  0  0  0
   -5.9936    1.1515   -1.1200 H   0  0  0  0  0  0  0  0  0  0  0  0
    0.5532    2.8174    0.6360 H   0  0  0  0  0  0  0  0  0  0  0  0
    2.4458    1.3840    1.1846 H   0  0  0  0  0  0  0  0  0  0  0  0
  1  2  2  0
  2  3  1  0
  2  4  1  0
  4  5  1  0
  5  6  1  0
  6  7  2  0
  6  8  1  0
  8  9  1  0
  9 10  2  0
 10 11  1  0
 11 12  2  0
 12 13  1  0
 13 14  2  0
 13 15  2  0
 13 16  1  0
 16 17  1  0
 17 18  1  0
 18 19  1  0
 19 20  2  0
 20 21  1  0
 21 22  2  0
 22 23  1  0
 23 24  2  0
 12 25  1  0
 25 26  2  0
 26  9  1  0
 24 19  1  0
  3 27  1  0
  4 28  1  0
  4 29  1  0
  5 30  1  0
  5 31  1  0
  8 32  1  0
 10 33  1  0
 11 34  1  0
 16 35  1  0
 17 36  1  0
 17 37  1  0
 18 38  1  0
 18 39  1  0
 20 40  1  0
 21 41  1  0
 22 42  1  0
 23 43  1  0
 24 44  1  0
 25 45  1  0
 26 46  1  0
M  END
$$$$
