
     RDKit          3D

 48 50  0  0  0  0  0  0  0  0999 V2000
   -4.1354   -3.0373   -0.2604 C   0  0  0  0  0  0  0  0  0  0  0  0
   -4.9862   -1.8303   -0.6373 C   0  0  0  0  0  0  0  0  0  0  0  0
   -4.4038   -0.4548   -0.2428 C   0  0  0  0  0  0  0  0  0  0  0  0
   -3.0761   -0.2121   -0.7878 N   0  0  0  0  0  0  0  0  0  0  0  0
   -2.8800    0.0118   -2.1418 C   0  0  0  0  0  0  0  0  0  0  0  0
   -3.8013   -0.0536   -2.9518 O   0  0  0  0  0  0  0  0  0  0  0  0
   -1.4997    0.3510   -2.5190 C   0  0  0  0  0  0  0  0  0  0  0  0
   -0.3141    0.2825   -1.7369 C   0  0  0  0  0  0  0  0  0  0  0  0
    0.6891    0.7115   -2.5723 C   0  0  0  0  0  0  0  0  0  0  0  0
    2.1528    0.8980   -2.4416 C   0  0  0  0  0  0  0  0  0  0  0  0
    2.4811    0.6303   -1.0801 O   0  0  0  0  0  0  0  0  0  0  0  0
    3.7897    0.7479   -0.6966 C   0  0  0  0  0  0  0  0  0  0  0  0
    4.8380    1.1118   -1.5430 C   0  0  0  0  0  0  0  0  0  0  0  0
    6.1426    1.2040   -1.0443 C   0  0  0  0  0  0  0  0  0  0  0  0
    6.4230    0.9349    0.2973 C   0  0  0  0  0  0  0  0  0  0  0  0
    7.7391    1.0654    0.6424 O   0  0  0  0  0  0  0  0  0  0  0  0
    8.0869    0.7706    1.9902 C   0  0  0  0  0  0  0  0  0  0  0  0
    5.3831    0.5712    1.1483 C   0  0  0  0  0  0  0  0  0  0  0  0
    4.0768    0.4797    0.6525 C   0  0  0  0  0  0  0  0  0  0  0  0
    2.8220    0.0249    1.7583 Cl  0  0  0  0  0  0  0  0  0  0  0  0
    0.1537    1.0136   -3.7827 O   0  0  0  0  0  0  0  0  0  0  0  0
   -1.2067    0.7874   -3.7567 N   0  0  0  0  0  0  0  0  0  0  0  0
   -4.4285   -0.2220    1.2591 C   0  0  0  0  0  0  0  0  0  0  0  0
   -5.4619    0.5340    1.8268 C   0  0  0  0  0  0  0  0  0  0  0  0
   -5.4713    0.7367    3.1986 C   0  0  0  0  0  0  0  0  0  0  0  0
   -4.5369    0.2420    4.0364 N   0  0  0  0  0  0  0  0  0  0  0  0
   -3.5523   -0.4918    3.4792 C   0  0  0  0  0  0  0  0  0  0  0  0
   -3.4553   -0.7471    2.1192 C   0  0  0  0  0  0  0  0  0  0  0  0
   -3.1190   -2.9547   -0.6568 H   0  0  0  0  0  0  0  0  0  0  0  0
   -4.5812   -3.9480   -0.6746 H   0  0  0  0  0  0  0  0  0  0  0  0
   -4.0801   -3.1694    0.8235 H   0  0  0  0  0  0  0  0  0  0  0  0
   -5.1356   -1.8593   -1.7233 H   0  0  0  0  0  0  0  0  0  0  0  0
   -5.9815   -1.9498   -0.1902 H   0  0  0  0  0  0  0  0  0  0  0  0
   -5.0507    0.3056   -0.7026 H   0  0  0  0  0  0  0  0  0  0  0  0
   -2.3638    0.1119   -0.1506 H   0  0  0  0  0  0  0  0  0  0  0  0
   -0.1916   -0.0389   -0.7136 H   0  0  0  0  0  0  0  0  0  0  0  0
    2.6683    0.1932   -3.1041 H   0  0  0  0  0  0  0  0  0  0  0  0
    2.4118    1.9309   -2.7016 H   0  0  0  0  0  0  0  0  0  0  0  0
    4.6861    1.3322   -2.5944 H   0  0  0  0  0  0  0  0  0  0  0  0
    6.9530    1.4900   -1.7122 H   0  0  0  0  0  0  0  0  0  0  0  0
    9.1663    0.9156    2.0967 H   0  0  0  0  0  0  0  0  0  0  0  0
    7.5889    1.4541    2.6854 H   0  0  0  0  0  0  0  0  0  0  0  0
    7.8644   -0.2738    2.2344 H   0  0  0  0  0  0  0  0  0  0  0  0
    5.5570    0.3571    2.1968 H   0  0  0  0  0  0  0  0  0  0  0  0
   -6.2514    0.9637    1.2172 H   0  0  0  0  0  0  0  0  0  0  0  0
   -6.2558    1.3202    3.6724 H   0  0  0  0  0  0  0  0  0  0  0  0
   -2.8179   -0.8852    4.1766 H   0  0  0  0  0  0  0  0  0  0  0  0
   -2.6359   -1.3556    1.7500 H   0  0  0  0  0  0  0  0  0  0  0  0
  1  2  1  0
  2  3  1  0
  3  4  1  0
  4  5  1  0
  5  6  2  0
  5  7  1  0
  7  8  1  0
  8  9  2  0
  9 10  1  0
 10 11  1  0
 11 12  1  0
 12 13  2  0
 13 14  1  0
 14 15  2  0
 15 16  1  0
 16 17  1  0
 15 18  1  0
 18 19  2  0
 19 20  1  0
  9 21  1  0
 21 22  1  0
  3 23  1  0
 23 24  2  0
 24 25  1  0
 25 26  2  0
 26 27  1  0
 27 28  2  0
 22  7  2  0
 28 23  1  0
 19 12  1  0
  1 29  1  0
  1 30  1  0
  1 31  1  0
  2 32  1  0
  2 33  1  0
  3 34  1  0
  4 35  1  0
  8 36  1  0
 10 37  1  0
 10 38  1  0
 13 39  1  0
 14 40  1  0
 17 41  1  0
 17 42  1  0
 17 43  1  0
 18 44  1  0
 24 45  1  0
 25 46  1  0
 27 47  1  0
 28 48  1  0
M  END
$$$$
