
     RDKit          3D

 53 57  0  0  0  0  0  0  0  0999 V2000
    2.1921   -2.2060    0.3037 C   0  0  0  0  0  0  0  0  0  0  0  0
    2.3444   -1.1142    1.3250 C   0  0  0  0  0  0  0  0  0  0  0  0
    2.0382   -1.4148    2.6664 C   0  0  0  0  0  0  0  0  0  0  0  0
    2.1830   -0.4609    3.6774 C   0  0  0  0  0  0  0  0  0  0  0  0
    2.6462    0.8132    3.3707 C   0  0  0  0  0  0  0  0  0  0  0  0
    2.9653    1.1336    2.0511 C   0  0  0  0  0  0  0  0  0  0  0  0
    2.8133    0.1804    1.0288 C   0  0  0  0  0  0  0  0  0  0  0  0
    3.2776    0.6791   -0.6307 S   0  0  0  0  0  6  0  0  0  0  0  0
    3.9958    1.9350   -0.5434 O   0  0  0  0  0  0  0  0  0  0  0  0
    3.9027   -0.4593   -1.2727 O   0  0  0  0  0  0  0  0  0  0  0  0
    1.8154    0.9109   -1.4215 N   0  0  0  0  0  0  0  0  0  0  0  0
    0.8032    1.6267   -0.7288 C   0  0  0  0  0  0  0  0  0  0  0  0
    1.1211    2.8488   -0.2743 N   0  0  0  0  0  0  0  0  0  0  0  0
    0.1552    3.4909    0.4032 C   0  0  0  0  0  0  0  0  0  0  0  0
    0.4115    4.7573    0.9132 C   0  0  0  0  0  0  0  0  0  0  0  0
   -0.5582    5.4616    1.6295 C   0  0  0  0  0  0  0  0  0  0  0  0
   -1.8065    4.8895    1.8394 C   0  0  0  0  0  0  0  0  0  0  0  0
   -2.0766    3.6179    1.3304 C   0  0  0  0  0  0  0  0  0  0  0  0
   -1.1207    2.9059    0.6158 C   0  0  0  0  0  0  0  0  0  0  0  0
   -1.4280    1.6822    0.1385 N   0  0  0  0  0  0  0  0  0  0  0  0
   -0.4684    1.0350   -0.5557 C   0  0  0  0  0  0  0  0  0  0  0  0
   -0.7302   -0.2414   -1.1148 N   0  0  0  0  0  0  0  0  0  0  0  0
   -1.1087   -0.1275   -2.5505 C   0  0  0  0  0  0  0  0  0  0  0  0
   -2.2646   -1.0547   -2.9752 C   0  0  0  0  0  0  0  0  0  0  0  0
   -2.1868   -2.3907   -2.2777 C   0  0  0  0  0  0  0  0  0  0  0  0
   -2.4657   -3.5978   -2.9187 C   0  0  0  0  0  0  0  0  0  0  0  0
   -2.3997   -4.7967   -2.2005 C   0  0  0  0  0  0  0  0  0  0  0  0
   -2.0641   -4.7903   -0.8454 C   0  0  0  0  0  0  0  0  0  0  0  0
   -1.7981   -3.5834   -0.1965 C   0  0  0  0  0  0  0  0  0  0  0  0
   -1.8587   -2.3800   -0.9096 C   0  0  0  0  0  0  0  0  0  0  0  0
   -1.6314   -1.0335   -0.2600 C   0  0  0  0  0  0  0  0  0  0  0  0
    3.1720   -2.5950    0.0067 H   0  0  0  0  0  0  0  0  0  0  0  0
    1.6158   -3.0404    0.7080 H   0  0  0  0  0  0  0  0  0  0  0  0
    1.6508   -1.8607   -0.5743 H   0  0  0  0  0  0  0  0  0  0  0  0
    1.6854   -2.4097    2.9371 H   0  0  0  0  0  0  0  0  0  0  0  0
    1.9438   -0.7169    4.7087 H   0  0  0  0  0  0  0  0  0  0  0  0
    2.7650    1.5552    4.1581 H   0  0  0  0  0  0  0  0  0  0  0  0
    3.3332    2.1343    1.8262 H   0  0  0  0  0  0  0  0  0  0  0  0
    1.4751    0.0226   -1.7854 H   0  0  0  0  0  0  0  0  0  0  0  0
    1.3896    5.2038    0.7472 H   0  0  0  0  0  0  0  0  0  0  0  0
   -0.3356    6.4532    2.0171 H   0  0  0  0  0  0  0  0  0  0  0  0
   -2.5708    5.4278    2.3957 H   0  0  0  0  0  0  0  0  0  0  0  0
   -3.0564    3.1734    1.4910 H   0  0  0  0  0  0  0  0  0  0  0  0
   -0.2205   -0.4006   -3.1372 H   0  0  0  0  0  0  0  0  0  0  0  0
   -1.3722    0.9017   -2.8365 H   0  0  0  0  0  0  0  0  0  0  0  0
   -3.2304   -0.5923   -2.7166 H   0  0  0  0  0  0  0  0  0  0  0  0
   -2.2508   -1.1736   -4.0654 H   0  0  0  0  0  0  0  0  0  0  0  0
   -2.7341   -3.6149   -3.9716 H   0  0  0  0  0  0  0  0  0  0  0  0
   -2.6143   -5.7394   -2.6991 H   0  0  0  0  0  0  0  0  0  0  0  0
   -2.0156   -5.7288   -0.2932 H   0  0  0  0  0  0  0  0  0  0  0  0
   -1.5471   -3.5904    0.8606 H   0  0  0  0  0  0  0  0  0  0  0  0
   -2.6094   -0.5501   -0.1221 H   0  0  0  0  0  0  0  0  0  0  0  0
   -1.1722   -1.1761    0.7278 H   0  0  0  0  0  0  0  0  0  0  0  0
  1  2  1  0
  2  3  2  0
  3  4  1  0
  4  5  2  0
  5  6  1  0
  6  7  2  0
  7  8  1  0
  8  9  2  0
  8 10  2  0
  8 11  1  0
 11 12  1  0
 12 13  2  0
 13 14  1  0
 14 15  2  0
 15 16  1  0
 16 17  2  0
 17 18  1  0
 18 19  2  0
 19 20  1  0
 20 21  2  0
 21 22  1  0
 22 23  1  0
 23 24  1  0
 24 25  1  0
 25 26  2  0
 26 27  1  0
 27 28  2  0
 28 29  1  0
 29 30  2  0
 30 31  1  0
  7  2  1  0
 21 12  1  0
 31 22  1  0
 19 14  1  0
 30 25  1  0
  1 32  1  0
  1 33  1  0
  1 34  1  0
  3 35  1  0
  4 36  1  0
  5 37  1  0
  6 38  1  0
 11 39  1  0
 15 40  1  0
 16 41  1  0
 17 42  1  0
 18 43  1  0
 23 44  1  0
 23 45  1  0
 24 46  1  0
 24 47  1  0
 26 48  1  0
 27 49  1  0
 28 50  1  0
 29 51  1  0
 31 52  1  0
 31 53  1  0
M  END
$$$$
