
     RDKit          3D

 48 50  0  0  0  0  0  0  0  0999 V2000
    3.0560    1.4836    0.6861 C   0  0  0  0  0  0  0  0  0  0  0  0
    1.7383    1.2313    0.6729 C   0  0  0  0  0  0  0  0  0  0  0  0
    0.7258    1.9338    1.4737 C   0  0  0  0  0  0  0  0  0  0  0  0
    0.9652    3.0803    2.3788 C   0  0  0  0  0  0  0  0  0  0  0  0
    2.0433    3.6256    2.5581 O   0  0  0  0  0  0  0  0  0  0  0  0
   -0.1963    3.4532    2.9922 O   0  0  0  0  0  0  0  0  0  0  0  0
   -0.0488    4.5608    3.8850 C   0  0  0  0  0  0  0  0  0  0  0  0
   -0.4659    1.3458    1.2385 C   0  0  0  0  0  0  0  0  0  0  0  0
   -1.6882    1.6569    1.7619 O   0  0  0  0  0  0  0  0  0  0  0  0
   -0.3179    0.2595    0.2674 C   0  0  0  0  0  0  0  0  0  0  0  0
   -1.2943   -0.5090   -0.2544 C   0  0  0  0  0  0  0  0  0  0  0  0
   -2.7239   -0.4705    0.0615 C   0  0  0  0  0  0  0  0  0  0  0  0
   -3.2173   -1.1176    1.2011 C   0  0  0  0  0  0  0  0  0  0  0  0
   -4.5844   -1.0949    1.4881 C   0  0  0  0  0  0  0  0  0  0  0  0
   -5.4517   -0.4262    0.6293 C   0  0  0  0  0  0  0  0  0  0  0  0
   -6.7931   -0.3791    0.8712 O   0  0  0  0  0  0  0  0  0  0  0  0
   -4.9757    0.2176   -0.5071 C   0  0  0  0  0  0  0  0  0  0  0  0
   -3.6095    0.1952   -0.7933 C   0  0  0  0  0  0  0  0  0  0  0  0
    1.0543    0.2342   -0.0439 N   0  0  0  0  0  0  0  0  0  0  0  0
    1.6668   -0.6863   -0.9355 C   0  0  0  0  0  0  0  0  0  0  0  0
    1.6025   -2.0681   -0.6972 C   0  0  0  0  0  0  0  0  0  0  0  0
    2.2018   -2.9845   -1.5715 C   0  0  0  0  0  0  0  0  0  0  0  0
    2.1591   -4.4540   -1.2741 C   0  0  0  0  0  0  0  0  0  0  0  0
    2.8934   -2.5064   -2.6908 C   0  0  0  0  0  0  0  0  0  0  0  0
    2.9597   -1.1342   -2.9601 C   0  0  0  0  0  0  0  0  0  0  0  0
    3.7204   -0.6282   -4.1497 C   0  0  0  0  0  0  0  0  0  0  0  0
    2.3537   -0.2347   -2.0729 C   0  0  0  0  0  0  0  0  0  0  0  0
    3.5008    2.2658    1.2903 H   0  0  0  0  0  0  0  0  0  0  0  0
    3.7507    0.8954    0.0966 H   0  0  0  0  0  0  0  0  0  0  0  0
    0.2924    5.4477    3.3420 H   0  0  0  0  0  0  0  0  0  0  0  0
   -1.0288    4.7764    4.3196 H   0  0  0  0  0  0  0  0  0  0  0  0
    0.6422    4.3098    4.6959 H   0  0  0  0  0  0  0  0  0  0  0  0
   -1.5718    2.4144    2.3655 H   0  0  0  0  0  0  0  0  0  0  0  0
   -1.0506   -1.2462   -1.0146 H   0  0  0  0  0  0  0  0  0  0  0  0
   -2.5367   -1.6340    1.8732 H   0  0  0  0  0  0  0  0  0  0  0  0
   -4.9471   -1.5977    2.3783 H   0  0  0  0  0  0  0  0  0  0  0  0
   -6.9732   -0.8601    1.6951 H   0  0  0  0  0  0  0  0  0  0  0  0
   -5.6639    0.7369   -1.1672 H   0  0  0  0  0  0  0  0  0  0  0  0
   -3.2407    0.7032   -1.6806 H   0  0  0  0  0  0  0  0  0  0  0  0
    1.0915   -2.4293    0.1929 H   0  0  0  0  0  0  0  0  0  0  0  0
    1.2356   -4.7194   -0.7488 H   0  0  0  0  0  0  0  0  0  0  0  0
    2.1862   -5.0407   -2.1983 H   0  0  0  0  0  0  0  0  0  0  0  0
    3.0141   -4.7347   -0.6514 H   0  0  0  0  0  0  0  0  0  0  0  0
    3.3837   -3.2103   -3.3611 H   0  0  0  0  0  0  0  0  0  0  0  0
    3.2836    0.3032   -4.5252 H   0  0  0  0  0  0  0  0  0  0  0  0
    4.7639   -0.4450   -3.8759 H   0  0  0  0  0  0  0  0  0  0  0  0
    3.6914   -1.3534   -4.9697 H   0  0  0  0  0  0  0  0  0  0  0  0
    2.4038    0.8338   -2.2722 H   0  0  0  0  0  0  0  0  0  0  0  0
  1  2  2  0
  2  3  1  0
  3  4  1  0
  4  5  2  0
  4  6  1  0
  6  7  1  0
  3  8  2  0
  8  9  1  0
  8 10  1  0
 10 11  2  3
 11 12  1  0
 12 13  2  0
 13 14  1  0
 14 15  2  0
 15 16  1  0
 15 17  1  0
 17 18  2  0
 10 19  1  0
 19 20  1  0
 20 21  2  0
 21 22  1  0
 22 23  1  0
 22 24  2  0
 24 25  1  0
 25 26  1  0
 25 27  2  0
 19  2  1  0
 27 20  1  0
 18 12  1  0
  1 28  1  0
  1 29  1  0
  7 30  1  0
  7 31  1  0
  7 32  1  0
  9 33  1  0
 11 34  1  0
 13 35  1  0
 14 36  1  0
 16 37  1  0
 17 38  1  0
 18 39  1  0
 21 40  1  0
 23 41  1  0
 23 42  1  0
 23 43  1  0
 24 44  1  0
 26 45  1  0
 26 46  1  0
 26 47  1  0
 27 48  1  0
M  END
$$$$
