
     RDKit          3D

 41 44  0  0  0  0  0  0  0  0999 V2000
    0.2383    0.9186   -1.6850 N   0  0  0  0  0  0  0  0  0  0  0  0
    1.0035    0.2176   -1.1605 C   0  0  0  0  0  0  0  0  0  0  0  0
    1.9656   -0.6250   -0.5195 C   0  0  0  0  0  0  0  0  0  0  0  0
    1.7736   -1.1911    0.6912 C   0  0  0  0  0  0  0  0  0  0  0  0
    0.6243   -1.0053    1.5139 C   0  0  0  0  0  0  0  0  0  0  0  0
    0.3642   -1.5652    2.7581 C   0  0  0  0  0  0  0  0  0  0  0  0
   -0.8943   -1.0895    3.2004 C   0  0  0  0  0  0  0  0  0  0  0  0
   -1.3680   -0.2636    2.2046 C   0  0  0  0  0  0  0  0  0  0  0  0
   -2.5841    0.5257    2.0140 C   0  0  0  0  0  0  0  0  0  0  0  0
   -3.6029    0.5086    2.9812 C   0  0  0  0  0  0  0  0  0  0  0  0
   -4.7704    1.2612    2.8115 C   0  0  0  0  0  0  0  0  0  0  0  0
   -4.9285    2.0378    1.6619 C   0  0  0  0  0  0  0  0  0  0  0  0
   -6.3898    3.0184    1.4509 S   0  0  0  0  0  6  0  0  0  0  0  0
   -7.2663    2.0959    0.3469 N   0  0  0  0  0  0  0  0  0  0  0  0
   -6.0216    4.2328    0.7609 O   0  0  0  0  0  0  0  0  0  0  0  0
   -7.1225    3.0246    2.6960 O   0  0  0  0  0  0  0  0  0  0  0  0
   -3.9278    2.0798    0.6912 C   0  0  0  0  0  0  0  0  0  0  0  0
   -2.7668    1.3204    0.8676 C   0  0  0  0  0  0  0  0  0  0  0  0
   -0.4511   -0.2132    1.1977 O   0  0  0  0  0  0  0  0  0  0  0  0
    3.1692   -0.9043   -1.2530 C   0  0  0  0  0  0  0  0  0  0  0  0
    3.2278   -1.1541   -2.5481 N   0  0  0  0  0  0  0  0  0  0  0  0
    4.5333   -1.3436   -2.9682 C   0  0  0  0  0  0  0  0  0  0  0  0
    4.9449   -1.6200   -4.2873 C   0  0  0  0  0  0  0  0  0  0  0  0
    6.3042   -1.7859   -4.5714 C   0  0  0  0  0  0  0  0  0  0  0  0
    7.2521   -1.6863   -3.5572 C   0  0  0  0  0  0  0  0  0  0  0  0
    6.8675   -1.4155   -2.2393 C   0  0  0  0  0  0  0  0  0  0  0  0
    5.4996   -1.2436   -1.9694 C   0  0  0  0  0  0  0  0  0  0  0  0
    4.7263   -0.8859   -0.4787 S   0  0  0  0  0  0  0  0  0  0  0  0
    2.5266   -1.8599    1.1016 H   0  0  0  0  0  0  0  0  0  0  0  0
    1.0155   -2.2434    3.2912 H   0  0  0  0  0  0  0  0  0  0  0  0
   -1.3911   -1.3269    4.1310 H   0  0  0  0  0  0  0  0  0  0  0  0
   -3.4992   -0.0866    3.8862 H   0  0  0  0  0  0  0  0  0  0  0  0
   -5.5392    1.2418    3.5822 H   0  0  0  0  0  0  0  0  0  0  0  0
   -6.8790    1.1640    0.2027 H   0  0  0  0  0  0  0  0  0  0  0  0
   -7.3492    2.6177   -0.5272 H   0  0  0  0  0  0  0  0  0  0  0  0
   -4.0293    2.7053   -0.1937 H   0  0  0  0  0  0  0  0  0  0  0  0
   -1.9942    1.3682    0.1014 H   0  0  0  0  0  0  0  0  0  0  0  0
    4.2020   -1.6940   -5.0774 H   0  0  0  0  0  0  0  0  0  0  0  0
    6.6208   -1.9861   -5.5925 H   0  0  0  0  0  0  0  0  0  0  0  0
    8.3058   -1.8164   -3.7922 H   0  0  0  0  0  0  0  0  0  0  0  0
    7.6101   -1.3332   -1.4496 H   0  0  0  0  0  0  0  0  0  0  0  0
  1  2  3  0
  2  3  1  0
  3  4  2  3
  4  5  1  0
  5  6  2  0
  6  7  1  0
  7  8  2  0
  8  9  1  0
  9 10  2  0
 10 11  1  0
 11 12  2  0
 12 13  1  0
 13 14  1  0
 13 15  2  0
 13 16  2  0
 12 17  1  0
 17 18  2  0
  8 19  1  0
  3 20  1  0
 20 21  2  0
 21 22  1  0
 22 23  2  0
 23 24  1  0
 24 25  2  0
 25 26  1  0
 26 27  2  0
 27 28  1  0
 19  5  1  0
 28 20  1  0
 18  9  1  0
 27 22  1  0
  4 29  1  0
  6 30  1  0
  7 31  1  0
 10 32  1  0
 11 33  1  0
 14 34  1  0
 14 35  1  0
 17 36  1  0
 18 37  1  0
 23 38  1  0
 24 39  1  0
 25 40  1  0
 26 41  1  0
M  END
$$$$
