
     RDKit          3D

 46 47  0  0  0  0  0  0  0  0999 V2000
    5.6307    1.9858    0.2914 O   0  0  0  0  0  0  0  0  0  0  0  0
    6.6563    1.3242    0.2405 C   0  0  0  0  0  0  0  0  0  0  0  0
    7.7185    1.7382   -0.4720 O   0  0  0  0  0  0  0  0  0  0  0  0
    6.8909   -0.0083    0.8954 C   0  0  0  0  0  0  0  0  0  0  0  0
    5.8329   -0.3057    1.9521 C   0  0  0  0  0  0  0  0  0  0  0  0
    4.6017   -0.9490    1.3385 C   0  0  0  0  0  0  0  0  0  0  0  0
    4.4152   -2.1564    1.4490 O   0  0  0  0  0  0  0  0  0  0  0  0
    3.7953   -0.0460    0.6738 N   0  0  0  0  0  0  0  0  0  0  0  0
    2.5933   -0.3043   -0.0141 C   0  0  0  0  0  0  0  0  0  0  0  0
    1.9989   -1.5658   -0.1050 C   0  0  0  0  0  0  0  0  0  0  0  0
    0.8030   -1.7391   -0.8113 C   0  0  0  0  0  0  0  0  0  0  0  0
    0.1926   -0.6408   -1.4181 C   0  0  0  0  0  0  0  0  0  0  0  0
   -1.3121   -0.8546   -2.3332 S   0  0  0  0  0  6  0  0  0  0  0  0
   -1.5118   -2.2631   -2.5910 O   0  0  0  0  0  0  0  0  0  0  0  0
   -1.3201    0.1247   -3.3976 O   0  0  0  0  0  0  0  0  0  0  0  0
   -2.4617   -0.3503   -1.2195 N   0  0  0  0  0  0  0  0  0  0  0  0
   -2.9893   -1.3381   -0.2660 C   0  0  0  0  0  0  0  0  0  0  0  0
   -3.6691   -0.6312    0.9119 C   0  0  0  0  0  0  0  0  0  0  0  0
   -4.8955    0.1566    0.5123 C   0  0  0  0  0  0  0  0  0  0  0  0
   -6.0871   -0.4999    0.1751 C   0  0  0  0  0  0  0  0  0  0  0  0
   -7.2124    0.2309   -0.2088 C   0  0  0  0  0  0  0  0  0  0  0  0
   -7.1581    1.6225   -0.2584 C   0  0  0  0  0  0  0  0  0  0  0  0
   -5.9791    2.2854    0.0761 C   0  0  0  0  0  0  0  0  0  0  0  0
   -4.8525    1.5567    0.4593 C   0  0  0  0  0  0  0  0  0  0  0  0
    0.7786    0.6235   -1.3453 C   0  0  0  0  0  0  0  0  0  0  0  0
    1.9746    0.7870   -0.6414 C   0  0  0  0  0  0  0  0  0  0  0  0
    7.4504    2.5936   -0.8681 H   0  0  0  0  0  0  0  0  0  0  0  0
    7.8694    0.0359    1.3873 H   0  0  0  0  0  0  0  0  0  0  0  0
    6.9147   -0.7813    0.1202 H   0  0  0  0  0  0  0  0  0  0  0  0
    5.5385    0.5877    2.5151 H   0  0  0  0  0  0  0  0  0  0  0  0
    6.2390   -1.0180    2.6802 H   0  0  0  0  0  0  0  0  0  0  0  0
    4.1247    0.9189    0.6397 H   0  0  0  0  0  0  0  0  0  0  0  0
    2.4440   -2.4406    0.3594 H   0  0  0  0  0  0  0  0  0  0  0  0
    0.3626   -2.7313   -0.8796 H   0  0  0  0  0  0  0  0  0  0  0  0
   -3.1320    0.3045   -1.6269 H   0  0  0  0  0  0  0  0  0  0  0  0
   -2.1732   -1.9538    0.1261 H   0  0  0  0  0  0  0  0  0  0  0  0
   -3.6996   -1.9916   -0.7842 H   0  0  0  0  0  0  0  0  0  0  0  0
   -3.9641   -1.3765    1.6621 H   0  0  0  0  0  0  0  0  0  0  0  0
   -2.9495    0.0316    1.4101 H   0  0  0  0  0  0  0  0  0  0  0  0
   -6.1485   -1.5854    0.2100 H   0  0  0  0  0  0  0  0  0  0  0  0
   -8.1324   -0.2859   -0.4689 H   0  0  0  0  0  0  0  0  0  0  0  0
   -8.0353    2.1910   -0.5561 H   0  0  0  0  0  0  0  0  0  0  0  0
   -5.9369    3.3710    0.0397 H   0  0  0  0  0  0  0  0  0  0  0  0
   -3.9395    2.0901    0.7161 H   0  0  0  0  0  0  0  0  0  0  0  0
    0.3146    1.4785   -1.8315 H   0  0  0  0  0  0  0  0  0  0  0  0
    2.4193    1.7786   -0.5937 H   0  0  0  0  0  0  0  0  0  0  0  0
  1  2  2  0
  2  3  1  0
  2  4  1  0
  4  5  1  0
  5  6  1  0
  6  7  2  0
  6  8  1  0
  8  9  1  0
  9 10  2  0
 10 11  1  0
 11 12  2  0
 12 13  1  0
 13 14  2  0
 13 15  2  0
 13 16  1  0
 16 17  1  0
 17 18  1  0
 18 19  1  0
 19 20  2  0
 20 21  1  0
 21 22  2  0
 22 23  1  0
 23 24  2  0
 12 25  1  0
 25 26  2  0
 26  9  1  0
 24 19  1  0
  3 27  1  0
  4 28  1  0
  4 29  1  0
  5 30  1  0
  5 31  1  0
  8 32  1  0
 10 33  1  0
 11 34  1  0
 16 35  1  0
 17 36  1  0
 17 37  1  0
 18 38  1  0
 18 39  1  0
 20 40  1  0
 21 41  1  0
 22 42  1  0
 23 43  1  0
 24 44  1  0
 25 45  1  0
 26 46  1  0
M  END
$$$$
