
     RDKit          3D

 51 53  0  0  0  0  0  0  0  0999 V2000
   -6.2157    0.3868   -0.4072 C   0  0  0  0  0  0  0  0  0  0  0  0
   -5.0240    0.9321   -0.9538 O   0  0  0  0  0  0  0  0  0  0  0  0
   -3.8508    0.7050   -0.2783 C   0  0  0  0  0  0  0  0  0  0  0  0
   -3.7399   -0.0695    0.8803 C   0  0  0  0  0  0  0  0  0  0  0  0
   -2.4973   -0.2472    1.5112 C   0  0  0  0  0  0  0  0  0  0  0  0
   -1.3368    0.3317    0.9661 C   0  0  0  0  0  0  0  0  0  0  0  0
   -1.4620    1.1271   -0.1884 C   0  0  0  0  0  0  0  0  0  0  0  0
   -2.6987    1.2993   -0.8221 C   0  0  0  0  0  0  0  0  0  0  0  0
   -2.8762    2.0598   -1.9524 O   0  0  0  0  0  0  0  0  0  0  0  0
   -1.7283    2.2714   -2.7649 C   0  0  0  0  0  0  0  0  0  0  0  0
    0.0167    0.1744    1.6652 C   0  0  0  0  0  0  0  0  0  0  0  0
    1.1813   -0.0396    0.7005 C   0  0  0  0  0  0  0  0  0  0  0  0
    1.2176   -1.1730   -0.1351 C   0  0  0  0  0  0  0  0  0  0  0  0
    2.2695   -1.3714   -1.0304 C   0  0  0  0  0  0  0  0  0  0  0  0
    2.3787   -2.4359   -1.8872 O   0  0  0  0  0  0  0  0  0  0  0  0
    1.2713   -3.3233   -1.9656 C   0  0  0  0  0  0  0  0  0  0  0  0
    3.3112   -0.4296   -1.0669 C   0  0  0  0  0  0  0  0  0  0  0  0
    4.3367   -0.5891   -1.9746 O   0  0  0  0  0  0  0  0  0  0  0  0
    5.3810   -1.3639   -1.3884 C   0  0  0  0  0  0  0  0  0  0  0  0
    3.2922    0.7161   -0.2526 C   0  0  0  0  0  0  0  0  0  0  0  0
    4.3532    1.5744   -0.3871 O   0  0  0  0  0  0  0  0  0  0  0  0
    4.2682    2.8299    0.2720 C   0  0  0  0  0  0  0  0  0  0  0  0
    2.2289    0.8967    0.6351 C   0  0  0  0  0  0  0  0  0  0  0  0
    0.0396   -0.9124    2.6631 N   0  0  0  0  0  0  0  0  0  0  0  0
   -1.1251   -0.8374    3.5407 C   0  0  0  0  0  0  0  0  0  0  0  0
   -2.4075   -1.1038    2.7506 C   0  0  0  0  0  0  0  0  0  0  0  0
   -7.0474    0.6872   -1.0517 H   0  0  0  0  0  0  0  0  0  0  0  0
   -6.1812   -0.7075   -0.3991 H   0  0  0  0  0  0  0  0  0  0  0  0
   -6.4112    0.7850    0.5938 H   0  0  0  0  0  0  0  0  0  0  0  0
   -4.6089   -0.5502    1.3177 H   0  0  0  0  0  0  0  0  0  0  0  0
   -0.5767    1.6164   -0.5823 H   0  0  0  0  0  0  0  0  0  0  0  0
   -2.0669    2.6817   -3.7213 H   0  0  0  0  0  0  0  0  0  0  0  0
   -1.0596    3.0070   -2.3069 H   0  0  0  0  0  0  0  0  0  0  0  0
   -1.2015    1.3339   -2.9730 H   0  0  0  0  0  0  0  0  0  0  0  0
    0.1814    1.1179    2.2053 H   0  0  0  0  0  0  0  0  0  0  0  0
    0.4002   -1.8847   -0.0573 H   0  0  0  0  0  0  0  0  0  0  0  0
    1.4922   -4.0655   -2.7388 H   0  0  0  0  0  0  0  0  0  0  0  0
    1.1305   -3.8597   -1.0217 H   0  0  0  0  0  0  0  0  0  0  0  0
    0.3585   -2.7959   -2.2625 H   0  0  0  0  0  0  0  0  0  0  0  0
    5.7936   -0.8726   -0.5005 H   0  0  0  0  0  0  0  0  0  0  0  0
    5.0384   -2.3734   -1.1372 H   0  0  0  0  0  0  0  0  0  0  0  0
    6.1837   -1.4550   -2.1261 H   0  0  0  0  0  0  0  0  0  0  0  0
    3.3750    3.3828   -0.0377 H   0  0  0  0  0  0  0  0  0  0  0  0
    4.2994    2.7044    1.3591 H   0  0  0  0  0  0  0  0  0  0  0  0
    5.1424    3.4203   -0.0190 H   0  0  0  0  0  0  0  0  0  0  0  0
    2.1917    1.7616    1.2893 H   0  0  0  0  0  0  0  0  0  0  0  0
    0.8943   -0.8259    3.2092 H   0  0  0  0  0  0  0  0  0  0  0  0
   -1.0306   -1.5893    4.3319 H   0  0  0  0  0  0  0  0  0  0  0  0
   -1.1682    0.1414    4.0354 H   0  0  0  0  0  0  0  0  0  0  0  0
   -3.2686   -0.9117    3.4014 H   0  0  0  0  0  0  0  0  0  0  0  0
   -2.4439   -2.1568    2.4445 H   0  0  0  0  0  0  0  0  0  0  0  0
  1  2  1  0
  2  3  1  0
  3  4  2  0
  4  5  1  0
  5  6  2  0
  6  7  1  0
  7  8  2  0
  8  9  1  0
  9 10  1  0
  6 11  1  0
 11 12  1  0
 12 13  2  0
 13 14  1  0
 14 15  1  0
 15 16  1  0
 14 17  2  0
 17 18  1  0
 18 19  1  0
 17 20  1  0
 20 21  1  0
 21 22  1  0
 20 23  2  0
 11 24  1  0
 24 25  1  0
 25 26  1  0
  8  3  1  0
 23 12  1  0
 26  5  1  0
  1 27  1  0
  1 28  1  0
  1 29  1  0
  4 30  1  0
  7 31  1  0
 10 32  1  0
 10 33  1  0
 10 34  1  0
 11 35  1  0
 13 36  1  0
 16 37  1  0
 16 38  1  0
 16 39  1  0
 19 40  1  0
 19 41  1  0
 19 42  1  0
 22 43  1  0
 22 44  1  0
 22 45  1  0
 23 46  1  0
 24 47  1  0
 25 48  1  0
 25 49  1  0
 26 50  1  0
 26 51  1  0
M  END
$$$$
