
     RDKit          3D

 43 45  0  0  0  0  0  0  0  0999 V2000
   -4.0218   -1.8299   -2.2323 C   0  0  0  0  0  0  0  0  0  0  0  0
   -4.1890   -2.2337   -0.8270 N   0  0  0  0  0  0  0  0  0  0  0  0
   -4.3615   -3.6904   -0.7621 C   0  0  0  0  0  0  0  0  0  0  0  0
   -3.0057   -1.8365   -0.0271 C   0  0  0  0  0  0  0  0  0  0  0  0
   -2.9573   -0.3591    0.2798 C   0  0  0  0  0  0  0  0  0  0  0  0
   -4.0995    0.4132    0.5626 C   0  0  0  0  0  0  0  0  0  0  0  0
   -5.3568   -0.1251    0.4911 O   0  0  0  0  0  0  0  0  0  0  0  0
   -4.0250    1.7725    0.9207 C   0  0  0  0  0  0  0  0  0  0  0  0
   -2.7905    2.4143    1.0109 C   0  0  0  0  0  0  0  0  0  0  0  0
   -1.6725    1.6527    0.7403 C   0  0  0  0  0  0  0  0  0  0  0  0
   -1.7437    0.3025    0.3904 C   0  0  0  0  0  0  0  0  0  0  0  0
   -0.5005   -0.2593    0.1857 O   0  0  0  0  0  0  0  0  0  0  0  0
    0.4219    0.7595    0.4002 C   0  0  0  0  0  0  0  0  0  0  0  0
    1.7525    0.6428    0.3012 C   0  0  0  0  0  0  0  0  0  0  0  0
    2.4347   -0.5846   -0.0539 C   0  0  0  0  0  0  0  0  0  0  0  0
    3.7633   -0.7584   -0.1452 C   0  0  0  0  0  0  0  0  0  0  0  0
    4.7894    0.2537    0.1195 C   0  0  0  0  0  0  0  0  0  0  0  0
    5.5397    0.7726   -0.9407 C   0  0  0  0  0  0  0  0  0  0  0  0
    6.5254    1.7322   -0.7009 C   0  0  0  0  0  0  0  0  0  0  0  0
    6.7681    2.1741    0.5991 C   0  0  0  0  0  0  0  0  0  0  0  0
    6.0274    1.6566    1.6609 C   0  0  0  0  0  0  0  0  0  0  0  0
    5.0419    0.6968    1.4229 C   0  0  0  0  0  0  0  0  0  0  0  0
   -0.2640    2.0266    0.7643 C   0  0  0  0  0  0  0  0  0  0  0  0
    0.2112    3.1100    1.0233 O   0  0  0  0  0  0  0  0  0  0  0  0
   -3.1425   -2.2931   -2.6948 H   0  0  0  0  0  0  0  0  0  0  0  0
   -4.9059   -2.1123   -2.8150 H   0  0  0  0  0  0  0  0  0  0  0  0
   -3.9268   -0.7428   -2.3233 H   0  0  0  0  0  0  0  0  0  0  0  0
   -4.5370   -4.0097    0.2713 H   0  0  0  0  0  0  0  0  0  0  0  0
   -3.4887   -4.2293   -1.1482 H   0  0  0  0  0  0  0  0  0  0  0  0
   -5.2419   -3.9984   -1.3372 H   0  0  0  0  0  0  0  0  0  0  0  0
   -2.0860   -2.1655   -0.5279 H   0  0  0  0  0  0  0  0  0  0  0  0
   -3.0367   -2.3424    0.9474 H   0  0  0  0  0  0  0  0  0  0  0  0
   -5.2661   -0.9955    0.0413 H   0  0  0  0  0  0  0  0  0  0  0  0
   -4.9414    2.3215    1.1259 H   0  0  0  0  0  0  0  0  0  0  0  0
   -2.7094    3.4604    1.2851 H   0  0  0  0  0  0  0  0  0  0  0  0
    2.3612    1.5254    0.4919 H   0  0  0  0  0  0  0  0  0  0  0  0
    1.8024   -1.4421   -0.2808 H   0  0  0  0  0  0  0  0  0  0  0  0
    4.1525   -1.7279   -0.4493 H   0  0  0  0  0  0  0  0  0  0  0  0
    5.3567    0.4397   -1.9594 H   0  0  0  0  0  0  0  0  0  0  0  0
    7.1017    2.1368   -1.5288 H   0  0  0  0  0  0  0  0  0  0  0  0
    7.5335    2.9232    0.7848 H   0  0  0  0  0  0  0  0  0  0  0  0
    6.2154    2.0012    2.6744 H   0  0  0  0  0  0  0  0  0  0  0  0
    4.4713    0.2995    2.2589 H   0  0  0  0  0  0  0  0  0  0  0  0
  1  2  1  0
  2  3  1  0
  2  4  1  0
  4  5  1  0
  5  6  2  0
  6  7  1  0
  6  8  1  0
  8  9  2  0
  9 10  1  0
 10 11  2  0
 11 12  1  0
 12 13  1  0
 13 14  2  3
 14 15  1  0
 15 16  2  3
 16 17  1  0
 17 18  2  0
 18 19  1  0
 19 20  2  0
 20 21  1  0
 21 22  2  0
 13 23  1  0
 23 24  2  0
 11  5  1  0
 22 17  1  0
 23 10  1  0
  1 25  1  0
  1 26  1  0
  1 27  1  0
  3 28  1  0
  3 29  1  0
  3 30  1  0
  4 31  1  0
  4 32  1  0
  7 33  1  0
  8 34  1  0
  9 35  1  0
 14 36  1  0
 15 37  1  0
 16 38  1  0
 18 39  1  0
 19 40  1  0
 20 41  1  0
 21 42  1  0
 22 43  1  0
M  END
$$$$
