
     RDKit          3D

 40 41  0  0  0  0  0  0  0  0999 V2000
    0.3660   -1.8003   -2.2912 C   0  0  0  0  0  0  0  0  0  0  0  0
    0.7963   -1.6679   -0.8361 C   0  0  0  0  0  0  0  0  0  0  0  0
    0.6723   -0.2311   -0.3039 C   0  0  0  0  0  0  0  0  0  0  0  0
    1.3212   -0.0767    1.0847 C   0  0  0  0  0  0  0  0  0  0  0  0
    2.8281   -0.1472    1.0825 C   0  0  0  0  0  0  0  0  0  0  0  0
    3.4907   -1.2421    1.6535 C   0  0  0  0  0  0  0  0  0  0  0  0
    4.8850   -1.3079    1.6468 C   0  0  0  0  0  0  0  0  0  0  0  0
    5.6300   -0.2802    1.0722 C   0  0  0  0  0  0  0  0  0  0  0  0
    4.9820    0.8150    0.5050 C   0  0  0  0  0  0  0  0  0  0  0  0
    3.5879    0.8827    0.5107 C   0  0  0  0  0  0  0  0  0  0  0  0
   -0.7275    0.0925   -0.1192 O   0  0  0  0  0  0  0  0  0  0  0  0
   -1.3136    0.8616   -1.0655 C   0  0  0  0  0  0  0  0  0  0  0  0
   -0.7939    1.3105   -2.0734 O   0  0  0  0  0  0  0  0  0  0  0  0
   -2.6693    1.2438   -0.6164 C   0  0  0  0  0  0  0  0  0  0  0  0
   -3.0195    2.5964   -0.7648 C   0  0  0  0  0  0  0  0  0  0  0  0
   -4.2530    3.0625   -0.3070 C   0  0  0  0  0  0  0  0  0  0  0  0
   -5.1473    2.1833    0.2995 C   0  0  0  0  0  0  0  0  0  0  0  0
   -4.8160    0.8338    0.4344 C   0  0  0  0  0  0  0  0  0  0  0  0
   -3.5786    0.3558   -0.0293 C   0  0  0  0  0  0  0  0  0  0  0  0
   -3.3109   -1.0934    0.0364 C   0  0  0  0  0  0  0  0  0  0  0  0
   -2.7892   -1.7739   -0.8235 O   0  0  0  0  0  0  0  0  0  0  0  0
   -3.7340   -1.6206    1.1993 O   0  0  0  0  0  0  0  0  0  0  0  0
   -0.6901   -1.5564   -2.4273 H   0  0  0  0  0  0  0  0  0  0  0  0
    0.5159   -2.8291   -2.6340 H   0  0  0  0  0  0  0  0  0  0  0  0
    0.9575   -1.1410   -2.9345 H   0  0  0  0  0  0  0  0  0  0  0  0
    1.8339   -2.0112   -0.7654 H   0  0  0  0  0  0  0  0  0  0  0  0
    0.1816   -2.3439   -0.2297 H   0  0  0  0  0  0  0  0  0  0  0  0
    1.1455    0.4704   -1.0020 H   0  0  0  0  0  0  0  0  0  0  0  0
    1.0259    0.8889    1.5185 H   0  0  0  0  0  0  0  0  0  0  0  0
    0.9027   -0.8245    1.7718 H   0  0  0  0  0  0  0  0  0  0  0  0
    2.9253   -2.0543    2.1049 H   0  0  0  0  0  0  0  0  0  0  0  0
    5.3900   -2.1622    2.0899 H   0  0  0  0  0  0  0  0  0  0  0  0
    6.7155   -0.3325    1.0668 H   0  0  0  0  0  0  0  0  0  0  0  0
    5.5621    1.6177    0.0574 H   0  0  0  0  0  0  0  0  0  0  0  0
    3.0984    1.7465    0.0657 H   0  0  0  0  0  0  0  0  0  0  0  0
   -2.3232    3.2929   -1.2302 H   0  0  0  0  0  0  0  0  0  0  0  0
   -4.5136    4.1124   -0.4217 H   0  0  0  0  0  0  0  0  0  0  0  0
   -6.1089    2.5454    0.6567 H   0  0  0  0  0  0  0  0  0  0  0  0
   -5.5341    0.1525    0.8869 H   0  0  0  0  0  0  0  0  0  0  0  0
   -3.4909   -2.5681    1.1313 H   0  0  0  0  0  0  0  0  0  0  0  0
  1  2  1  0
  2  3  1  0
  3  4  1  0
  4  5  1  0
  5  6  2  0
  6  7  1  0
  7  8  2  0
  8  9  1  0
  9 10  2  0
  3 11  1  0
 11 12  1  0
 12 13  2  0
 12 14  1  0
 14 15  2  0
 15 16  1  0
 16 17  2  0
 17 18  1  0
 18 19  2  0
 19 20  1  0
 20 21  2  0
 20 22  1  0
 10  5  1  0
 19 14  1  0
  1 23  1  0
  1 24  1  0
  1 25  1  0
  2 26  1  0
  2 27  1  0
  3 28  1  0
  4 29  1  0
  4 30  1  0
  6 31  1  0
  7 32  1  0
  8 33  1  0
  9 34  1  0
 10 35  1  0
 15 36  1  0
 16 37  1  0
 17 38  1  0
 18 39  1  0
 22 40  1  0
M  END
$$$$
