
     RDKit          3D

 35 37  0  0  0  0  0  0  0  0999 V2000
    5.9739    1.5178    0.0265 C   0  0  0  0  0  0  0  0  0  0  0  0
    5.7207    0.0438   -0.2606 C   0  0  0  0  0  0  0  0  0  0  0  0
    4.3530   -0.4515    0.2108 C   0  0  0  0  0  0  0  0  0  0  0  0
    2.9894    0.2740   -0.7550 S   0  0  0  0  0  0  0  0  0  0  0  0
    1.6288   -0.4694    0.0134 C   0  0  0  0  0  0  0  0  0  0  0  0
    1.6707   -1.3356    0.9950 N   0  0  0  0  0  0  0  0  0  0  0  0
    0.3750   -1.6522    1.3149 N   0  0  0  0  0  0  0  0  0  0  0  0
   -0.4369   -0.9240    0.5652 C   0  0  0  0  0  0  0  0  0  0  0  0
   -1.9912   -0.9637    0.7724 C   0  0  0  0  0  0  0  0  0  0  0  0
   -2.5538   -1.9543    1.5524 C   0  0  0  0  0  0  0  0  0  0  0  0
   -3.9095   -1.8120    1.5158 N   0  0  0  0  0  0  0  0  0  0  0  0
   -4.2471   -0.7023    0.7773 C   0  0  0  0  0  0  0  0  0  0  0  0
   -5.5153   -0.1711    0.5067 C   0  0  0  0  0  0  0  0  0  0  0  0
   -5.5842    1.0118   -0.2290 C   0  0  0  0  0  0  0  0  0  0  0  0
   -4.4258    1.6470   -0.6585 C   0  0  0  0  0  0  0  0  0  0  0  0
   -3.1659    1.0994   -0.3813 C   0  0  0  0  0  0  0  0  0  0  0  0
   -3.0559   -0.1214    0.3212 C   0  0  0  0  0  0  0  0  0  0  0  0
    0.3272   -0.2330   -0.3446 N   0  0  0  0  0  0  0  0  0  0  0  0
   -0.1096    0.4104   -1.5532 C   0  0  0  0  0  0  0  0  0  0  0  0
    7.0003    1.7814   -0.2489 H   0  0  0  0  0  0  0  0  0  0  0  0
    5.8435    1.7378    1.0908 H   0  0  0  0  0  0  0  0  0  0  0  0
    5.3020    2.1646   -0.5450 H   0  0  0  0  0  0  0  0  0  0  0  0
    5.8531   -0.1527   -1.3314 H   0  0  0  0  0  0  0  0  0  0  0  0
    6.4912   -0.5394    0.2589 H   0  0  0  0  0  0  0  0  0  0  0  0
    4.2160   -0.2142    1.2715 H   0  0  0  0  0  0  0  0  0  0  0  0
    4.3147   -1.5407    0.0997 H   0  0  0  0  0  0  0  0  0  0  0  0
   -2.0941   -2.7685    2.0982 H   0  0  0  0  0  0  0  0  0  0  0  0
   -4.5720   -2.4150    1.9839 H   0  0  0  0  0  0  0  0  0  0  0  0
   -6.4192   -0.6518    0.8679 H   0  0  0  0  0  0  0  0  0  0  0  0
   -6.5544    1.4514   -0.4487 H   0  0  0  0  0  0  0  0  0  0  0  0
   -4.4959    2.5858   -1.2029 H   0  0  0  0  0  0  0  0  0  0  0  0
   -2.2887    1.6539   -0.6877 H   0  0  0  0  0  0  0  0  0  0  0  0
   -0.1625    1.4863   -1.3751 H   0  0  0  0  0  0  0  0  0  0  0  0
    0.5975    0.2021   -2.3606 H   0  0  0  0  0  0  0  0  0  0  0  0
   -1.0748    0.0053   -1.8611 H   0  0  0  0  0  0  0  0  0  0  0  0
  1  2  1  0
  2  3  1  0
  3  4  1  0
  4  5  1  0
  5  6  2  0
  6  7  1  0
  7  8  2  0
  8  9  1  0
  9 10  2  0
 10 11  1  0
 11 12  1  0
 12 13  2  0
 13 14  1  0
 14 15  2  0
 15 16  1  0
 16 17  2  0
  8 18  1  0
 18 19  1  0
 18  5  1  0
 17  9  1  0
 17 12  1  0
  1 20  1  0
  1 21  1  0
  1 22  1  0
  2 23  1  0
  2 24  1  0
  3 25  1  0
  3 26  1  0
 10 27  1  0
 11 28  1  0
 13 29  1  0
 14 30  1  0
 15 31  1  0
 16 32  1  0
 19 33  1  0
 19 34  1  0
 19 35  1  0
M  END
$$$$
