
     RDKit          3D

 53 56  0  0  0  0  0  0  0  0999 V2000
   -2.5699    5.6620    2.6202 C   0  0  0  0  0  0  0  0  0  0  0  0
   -2.5301    5.4417    1.2156 O   0  0  0  0  0  0  0  0  0  0  0  0
   -2.0882    4.2175    0.7963 C   0  0  0  0  0  0  0  0  0  0  0  0
   -2.0054    4.0701   -0.5895 C   0  0  0  0  0  0  0  0  0  0  0  0
   -1.5664    2.8707   -1.1561 C   0  0  0  0  0  0  0  0  0  0  0  0
   -1.1965    1.7916   -0.3403 C   0  0  0  0  0  0  0  0  0  0  0  0
   -0.7447    0.4895   -0.9784 C   0  0  0  0  0  0  0  0  0  0  0  0
   -1.9363   -0.4551   -1.1592 C   0  0  0  0  0  0  0  0  0  0  0  0
   -1.3407   -1.7295   -0.6401 C   0  0  0  0  0  0  0  0  0  0  0  0
   -2.0436   -3.0228   -0.7696 C   0  0  0  0  0  0  0  0  0  0  0  0
   -3.4375   -3.0398   -0.6031 C   0  0  0  0  0  0  0  0  0  0  0  0
   -4.1438   -4.2401   -0.6804 C   0  0  0  0  0  0  0  0  0  0  0  0
   -3.4660   -5.4298   -0.9214 C   0  0  0  0  0  0  0  0  0  0  0  0
   -2.0814   -5.4194   -1.0933 C   0  0  0  0  0  0  0  0  0  0  0  0
   -1.3470   -4.2174   -1.0306 C   0  0  0  0  0  0  0  0  0  0  0  0
    0.1446   -4.2580   -1.2731 C   0  0  0  0  0  0  0  0  0  0  0  0
    0.5381   -5.4399   -1.8431 F   0  0  0  0  0  0  0  0  0  0  0  0
    0.8902   -4.1546   -0.1414 F   0  0  0  0  0  0  0  0  0  0  0  0
    0.5799   -3.3037   -2.1422 F   0  0  0  0  0  0  0  0  0  0  0  0
   -0.1826   -1.6128   -0.0757 N   0  0  0  0  0  0  0  0  0  0  0  0
    0.1853   -0.2958   -0.1521 N   0  0  0  0  0  0  0  0  0  0  0  0
    1.5418    0.0186    0.0120 C   0  0  0  0  0  0  0  0  0  0  0  0
    2.1016    1.2356   -0.4130 C   0  0  0  0  0  0  0  0  0  0  0  0
    3.4596    1.5270   -0.2281 C   0  0  0  0  0  0  0  0  0  0  0  0
    4.2849    0.5929    0.3940 C   0  0  0  0  0  0  0  0  0  0  0  0
    6.0059    0.9365    0.6265 S   0  0  0  0  0  6  0  0  0  0  0  0
    6.7004    0.0227   -0.6079 N   0  0  0  0  0  0  0  0  0  0  0  0
    6.2564    2.3142    0.2684 O   0  0  0  0  0  0  0  0  0  0  0  0
    6.4209    0.3734    1.8886 O   0  0  0  0  0  0  0  0  0  0  0  0
    3.7631   -0.6136    0.8523 C   0  0  0  0  0  0  0  0  0  0  0  0
    2.4063   -0.8893    0.6570 C   0  0  0  0  0  0  0  0  0  0  0  0
   -1.2964    1.9434    1.0515 C   0  0  0  0  0  0  0  0  0  0  0  0
   -1.7337    3.1474    1.6156 C   0  0  0  0  0  0  0  0  0  0  0  0
   -1.5734    5.5671    3.0644 H   0  0  0  0  0  0  0  0  0  0  0  0
   -3.2853    4.9890    3.1042 H   0  0  0  0  0  0  0  0  0  0  0  0
   -2.9125    6.6877    2.7879 H   0  0  0  0  0  0  0  0  0  0  0  0
   -2.2840    4.9008   -1.2338 H   0  0  0  0  0  0  0  0  0  0  0  0
   -1.5138    2.7913   -2.2397 H   0  0  0  0  0  0  0  0  0  0  0  0
   -0.2874    0.6843   -1.9580 H   0  0  0  0  0  0  0  0  0  0  0  0
   -2.8070   -0.1742   -0.5589 H   0  0  0  0  0  0  0  0  0  0  0  0
   -2.2259   -0.5541   -2.2094 H   0  0  0  0  0  0  0  0  0  0  0  0
   -3.9906   -2.1301   -0.3837 H   0  0  0  0  0  0  0  0  0  0  0  0
   -5.2225   -4.2479   -0.5404 H   0  0  0  0  0  0  0  0  0  0  0  0
   -4.0139   -6.3681   -0.9752 H   0  0  0  0  0  0  0  0  0  0  0  0
   -1.5710   -6.3633   -1.2868 H   0  0  0  0  0  0  0  0  0  0  0  0
    1.4915    1.9940   -0.8943 H   0  0  0  0  0  0  0  0  0  0  0  0
    3.8521    2.4832   -0.5672 H   0  0  0  0  0  0  0  0  0  0  0  0
    6.0376   -0.6072   -1.0591 H   0  0  0  0  0  0  0  0  0  0  0  0
    7.1403    0.6567   -1.2767 H   0  0  0  0  0  0  0  0  0  0  0  0
    4.3916   -1.3395    1.3636 H   0  0  0  0  0  0  0  0  0  0  0  0
    2.0117   -1.8359    1.0245 H   0  0  0  0  0  0  0  0  0  0  0  0
   -1.0231    1.1214    1.7127 H   0  0  0  0  0  0  0  0  0  0  0  0
   -1.7833    3.2118    2.6975 H   0  0  0  0  0  0  0  0  0  0  0  0
  1  2  1  0
  2  3  1  0
  3  4  2  0
  4  5  1  0
  5  6  2  0
  6  7  1  0
  7  8  1  0
  8  9  1  0
  9 10  1  0
 10 11  2  0
 11 12  1  0
 12 13  2  0
 13 14  1  0
 14 15  2  0
 15 16  1  0
 16 17  1  0
 16 18  1  0
 16 19  1  0
  9 20  2  0
 20 21  1  0
 21 22  1  0
 22 23  2  0
 23 24  1  0
 24 25  2  0
 25 26  1  0
 26 27  1  0
 26 28  2  0
 26 29  2  0
 25 30  1  0
 30 31  2  0
  6 32  1  0
 32 33  2  0
 33  3  1  0
 21  7  1  0
 31 22  1  0
 15 10  1  0
  1 34  1  0
  1 35  1  0
  1 36  1  0
  4 37  1  0
  5 38  1  0
  7 39  1  0
  8 40  1  0
  8 41  1  0
 11 42  1  0
 12 43  1  0
 13 44  1  0
 14 45  1  0
 23 46  1  0
 24 47  1  0
 27 48  1  0
 27 49  1  0
 30 50  1  0
 31 51  1  0
 32 52  1  0
 33 53  1  0
M  END
$$$$
