
     RDKit          3D

 42 45  0  0  0  0  0  0  0  0999 V2000
    7.6384    0.2978    1.5305 C   0  0  0  0  0  0  0  0  0  0  0  0
    6.8457   -0.9902    1.3938 C   0  0  0  0  0  0  0  0  0  0  0  0
    5.3827   -0.6929    1.2612 C   0  0  0  0  0  0  0  0  0  0  0  0
    4.8191   -0.3612    0.1381 N   0  0  0  0  0  0  0  0  0  0  0  0
    3.4719   -0.1414    0.3762 N   0  0  0  0  0  0  0  0  0  0  0  0
    2.5816    0.1774   -0.6271 C   0  0  0  0  0  0  0  0  0  0  0  0
    2.9543    0.3370   -1.8651 N   0  0  0  0  0  0  0  0  0  0  0  0
    1.1510    0.3259   -0.1997 C   0  0  0  0  0  0  0  0  0  0  0  0
    0.2249    0.4938   -1.1646 C   0  0  0  0  0  0  0  0  0  0  0  0
   -1.1882    0.5890   -1.0120 C   0  0  0  0  0  0  0  0  0  0  0  0
   -2.0056    1.7218   -1.1890 C   0  0  0  0  0  0  0  0  0  0  0  0
   -1.5978    3.1024   -1.5522 C   0  0  0  0  0  0  0  0  0  0  0  0
   -3.2927    1.4421   -0.9665 N   0  0  0  0  0  0  0  0  0  0  0  0
   -3.3392    0.1008   -0.6728 N   0  0  0  0  0  0  0  0  0  0  0  0
   -4.6269   -0.4919   -0.4591 C   0  0  0  0  0  0  0  0  0  0  0  0
   -4.8546   -1.8720   -0.4986 C   0  0  0  0  0  0  0  0  0  0  0  0
   -6.1391   -2.3875   -0.2821 C   0  0  0  0  0  0  0  0  0  0  0  0
   -7.2107   -1.5345   -0.0325 C   0  0  0  0  0  0  0  0  0  0  0  0
   -7.0053   -0.1594   -0.0103 C   0  0  0  0  0  0  0  0  0  0  0  0
   -5.7258    0.3590   -0.2281 C   0  0  0  0  0  0  0  0  0  0  0  0
   -2.0546   -0.4246   -0.6792 C   0  0  0  0  0  0  0  0  0  0  0  0
   -1.6596   -2.0301   -0.2467 Cl  0  0  0  0  0  0  0  0  0  0  0  0
    0.8449    0.2718    1.2811 C   0  0  0  0  0  0  0  0  0  0  0  0
   -0.2506    0.6035    1.7155 O   0  0  0  0  0  0  0  0  0  0  0  0
    1.8526   -0.1319    2.1369 N   0  0  0  0  0  0  0  0  0  0  0  0
    3.0377   -0.2931    1.6685 C   0  0  0  0  0  0  0  0  0  0  0  0
    4.3714   -0.7632    2.6936 S   0  0  0  0  0  0  0  0  0  0  0  0
    7.3360    0.8546    2.4235 H   0  0  0  0  0  0  0  0  0  0  0  0
    7.4834    0.9495    0.6640 H   0  0  0  0  0  0  0  0  0  0  0  0
    8.7083    0.0809    1.6082 H   0  0  0  0  0  0  0  0  0  0  0  0
    7.0275   -1.6383    2.2575 H   0  0  0  0  0  0  0  0  0  0  0  0
    7.1723   -1.5313    0.4988 H   0  0  0  0  0  0  0  0  0  0  0  0
    3.9741    0.1753   -1.8792 H   0  0  0  0  0  0  0  0  0  0  0  0
    0.5617    0.5546   -2.1997 H   0  0  0  0  0  0  0  0  0  0  0  0
   -1.1634    3.1195   -2.5560 H   0  0  0  0  0  0  0  0  0  0  0  0
   -0.8516    3.4790   -0.8453 H   0  0  0  0  0  0  0  0  0  0  0  0
   -2.4499    3.7903   -1.5404 H   0  0  0  0  0  0  0  0  0  0  0  0
   -4.0809   -2.5905   -0.7349 H   0  0  0  0  0  0  0  0  0  0  0  0
   -6.3020   -3.4618   -0.3188 H   0  0  0  0  0  0  0  0  0  0  0  0
   -8.2047   -1.9404    0.1354 H   0  0  0  0  0  0  0  0  0  0  0  0
   -7.8373    0.5148    0.1768 H   0  0  0  0  0  0  0  0  0  0  0  0
   -5.5991    1.4407   -0.1996 H   0  0  0  0  0  0  0  0  0  0  0  0
  1  2  1  0
  2  3  1  0
  3  4  2  0
  4  5  1  0
  5  6  1  0
  6  7  2  3
  6  8  1  0
  8  9  2  3
  9 10  1  0
 10 11  1  0
 11 12  1  0
 11 13  2  0
 13 14  1  0
 14 15  1  0
 15 16  2  0
 16 17  1  0
 17 18  2  0
 18 19  1  0
 19 20  2  0
 14 21  1  0
 21 22  1  0
  8 23  1  0
 23 24  2  0
 23 25  1  0
 25 26  2  0
 26 27  1  0
 27  3  1  0
 26  5  1  0
 21 10  2  0
 20 15  1  0
  1 28  1  0
  1 29  1  0
  1 30  1  0
  2 31  1  0
  2 32  1  0
  7 33  1  0
  9 34  1  0
 12 35  1  0
 12 36  1  0
 12 37  1  0
 16 38  1  0
 17 39  1  0
 18 40  1  0
 19 41  1  0
 20 42  1  0
M  END
$$$$
