
     RDKit          3D

 42 44  0  0  0  0  0  0  0  0999 V2000
    4.2348   -0.7833    0.5504 C   0  0  0  0  0  0  0  0  0  0  0  0
    3.5139    0.4002   -0.0764 C   0  0  0  0  0  0  0  0  0  0  0  0
    1.9985    0.2060   -0.1857 C   0  0  0  0  0  0  0  0  0  0  0  0
    1.2986    0.1441    1.1813 C   0  0  0  0  0  0  0  0  0  0  0  0
   -0.2502    0.0423    1.1220 C   0  0  0  0  0  0  0  0  0  0  0  0
   -0.7033   -1.2102    0.3998 C   0  0  0  0  0  0  0  0  0  0  0  0
   -1.3399   -1.1629   -0.7854 C   0  0  0  0  0  0  0  0  0  0  0  0
   -1.8193   -2.3694   -1.5403 C   0  0  0  0  0  0  0  0  0  0  0  0
   -1.9844   -3.5841   -0.6353 C   0  0  0  0  0  0  0  0  0  0  0  0
   -0.7568   -3.7848    0.2364 C   0  0  0  0  0  0  0  0  0  0  0  0
   -0.4473   -2.5362    1.0331 C   0  0  0  0  0  0  0  0  0  0  0  0
    0.0474   -2.6091    2.1558 O   0  0  0  0  0  0  0  0  0  0  0  0
   -1.6441    0.0397   -1.4099 O   0  0  0  0  0  0  0  0  0  0  0  0
   -1.4907    1.2257   -0.7044 C   0  0  0  0  0  0  0  0  0  0  0  0
   -0.8638    1.2727    0.4857 C   0  0  0  0  0  0  0  0  0  0  0  0
   -0.8267    2.5620    1.2353 C   0  0  0  0  0  0  0  0  0  0  0  0
   -0.3357    2.6151    2.3611 O   0  0  0  0  0  0  0  0  0  0  0  0
   -1.4782    3.7810    0.6171 C   0  0  0  0  0  0  0  0  0  0  0  0
   -1.4478    3.7212   -0.9006 C   0  0  0  0  0  0  0  0  0  0  0  0
   -2.0638    2.4227   -1.4059 C   0  0  0  0  0  0  0  0  0  0  0  0
    3.9639   -0.9076    1.6028 H   0  0  0  0  0  0  0  0  0  0  0  0
    5.3178   -0.6299    0.5043 H   0  0  0  0  0  0  0  0  0  0  0  0
    4.0015   -1.7119    0.0200 H   0  0  0  0  0  0  0  0  0  0  0  0
    3.7345    1.3083    0.4965 H   0  0  0  0  0  0  0  0  0  0  0  0
    3.9160    0.5566   -1.0846 H   0  0  0  0  0  0  0  0  0  0  0  0
    1.5978    1.0441   -0.7673 H   0  0  0  0  0  0  0  0  0  0  0  0
    1.7956   -0.7062   -0.7583 H   0  0  0  0  0  0  0  0  0  0  0  0
    1.5852    1.0302    1.7609 H   0  0  0  0  0  0  0  0  0  0  0  0
    1.6887   -0.7106    1.7449 H   0  0  0  0  0  0  0  0  0  0  0  0
   -0.6300   -0.0185    2.1514 H   0  0  0  0  0  0  0  0  0  0  0  0
   -1.1044   -2.5909   -2.3419 H   0  0  0  0  0  0  0  0  0  0  0  0
   -2.7828   -2.1542   -2.0174 H   0  0  0  0  0  0  0  0  0  0  0  0
   -2.1677   -4.4788   -1.2407 H   0  0  0  0  0  0  0  0  0  0  0  0
   -2.8663   -3.4428    0.0033 H   0  0  0  0  0  0  0  0  0  0  0  0
   -0.9403   -4.6087    0.9347 H   0  0  0  0  0  0  0  0  0  0  0  0
    0.1221   -4.0343   -0.3680 H   0  0  0  0  0  0  0  0  0  0  0  0
   -0.9377    4.6723    0.9535 H   0  0  0  0  0  0  0  0  0  0  0  0
   -2.5084    3.8406    0.9852 H   0  0  0  0  0  0  0  0  0  0  0  0
   -0.4086    3.7903   -1.2483 H   0  0  0  0  0  0  0  0  0  0  0  0
   -1.9840    4.5787   -1.3222 H   0  0  0  0  0  0  0  0  0  0  0  0
   -1.8841    2.3451   -2.4847 H   0  0  0  0  0  0  0  0  0  0  0  0
   -3.1502    2.4356   -1.2579 H   0  0  0  0  0  0  0  0  0  0  0  0
  1  2  1  0
  2  3  1  0
  3  4  1  0
  4  5  1  0
  5  6  1  0
  6  7  2  0
  7  8  1  0
  8  9  1  0
  9 10  1  0
 10 11  1  0
 11 12  2  0
  7 13  1  0
 13 14  1  0
 14 15  2  0
 15 16  1  0
 16 17  2  0
 16 18  1  0
 18 19  1  0
 19 20  1  0
 15  5  1  0
 11  6  1  0
 20 14  1  0
  1 21  1  0
  1 22  1  0
  1 23  1  0
  2 24  1  0
  2 25  1  0
  3 26  1  0
  3 27  1  0
  4 28  1  0
  4 29  1  0
  5 30  1  0
  8 31  1  0
  8 32  1  0
  9 33  1  0
  9 34  1  0
 10 35  1  0
 10 36  1  0
 18 37  1  0
 18 38  1  0
 19 39  1  0
 19 40  1  0
 20 41  1  0
 20 42  1  0
M  END
$$$$
