
     RDKit          3D

 62 63  0  0  0  0  0  0  0  0999 V2000
   -7.6774    1.6033   -0.0652 C   0  0  0  0  0  0  0  0  0  0  0  0
   -7.2417    0.2743    0.5930 C   0  0  0  0  0  0  0  0  0  0  0  0
   -7.6089    0.3670    2.0931 C   0  0  0  0  0  0  0  0  0  0  0  0
   -8.0651   -0.8869   -0.0082 C   0  0  0  0  0  0  0  0  0  0  0  0
   -5.7423    0.0348    0.3349 C   0  0  0  0  0  0  0  0  0  0  0  0
   -4.8064   -0.1089    1.3700 C   0  0  0  0  0  0  0  0  0  0  0  0
   -3.4482   -0.3228    1.1026 C   0  0  0  0  0  0  0  0  0  0  0  0
   -2.9910   -0.3957   -0.2125 C   0  0  0  0  0  0  0  0  0  0  0  0
   -1.6816   -0.6062   -0.5797 O   0  0  0  0  0  0  0  0  0  0  0  0
   -0.6948   -0.4781    0.4446 C   0  0  0  0  0  0  0  0  0  0  0  0
    0.6859   -0.6016   -0.1959 C   0  0  0  0  0  0  0  0  0  0  0  0
    1.6786   -0.3653    0.8025 O   0  0  0  0  0  0  0  0  0  0  0  0
    2.9863   -0.3210    0.3734 C   0  0  0  0  0  0  0  0  0  0  0  0
    3.4287   -0.7576   -0.8745 C   0  0  0  0  0  0  0  0  0  0  0  0
    4.7859   -0.6824   -1.2125 C   0  0  0  0  0  0  0  0  0  0  0  0
    5.7363   -0.1717   -0.3170 C   0  0  0  0  0  0  0  0  0  0  0  0
    7.2357   -0.0790   -0.6578 C   0  0  0  0  0  0  0  0  0  0  0  0
    7.6878    1.3972   -0.6089 C   0  0  0  0  0  0  0  0  0  0  0  0
    7.5916   -0.6198   -2.0610 C   0  0  0  0  0  0  0  0  0  0  0  0
    8.0543   -0.8989    0.3643 C   0  0  0  0  0  0  0  0  0  0  0  0
    5.2705    0.2643    0.9417 C   0  0  0  0  0  0  0  0  0  0  0  0
    3.9176    0.1914    1.2948 C   0  0  0  0  0  0  0  0  0  0  0  0
    3.4196    0.6116    2.5474 N   0  0  0  0  0  0  0  0  0  0  0  0
    4.1099    1.1657    3.5960 C   0  0  0  0  0  0  0  0  0  0  0  0
    5.2982    1.4405    3.6805 O   0  0  0  0  0  0  0  0  0  0  0  0
   -3.9086   -0.2654   -1.2711 C   0  0  0  0  0  0  0  0  0  0  0  0
   -3.3939   -0.3546   -2.5833 N   0  0  0  0  0  0  0  0  0  0  0  0
   -4.0693   -0.2501   -3.7724 C   0  0  0  0  0  0  0  0  0  0  0  0
   -5.2596   -0.0581   -3.9711 O   0  0  0  0  0  0  0  0  0  0  0  0
   -5.2623   -0.0509   -0.9894 C   0  0  0  0  0  0  0  0  0  0  0  0
   -7.0915    2.4452    0.3229 H   0  0  0  0  0  0  0  0  0  0  0  0
   -7.5529    1.5895   -1.1546 H   0  0  0  0  0  0  0  0  0  0  0  0
   -8.7349    1.8150    0.1327 H   0  0  0  0  0  0  0  0  0  0  0  0
   -8.6827    0.5430    2.2256 H   0  0  0  0  0  0  0  0  0  0  0  0
   -7.3671   -0.5595    2.6276 H   0  0  0  0  0  0  0  0  0  0  0  0
   -7.0833    1.1931    2.5872 H   0  0  0  0  0  0  0  0  0  0  0  0
   -9.1353   -0.7526    0.1842 H   0  0  0  0  0  0  0  0  0  0  0  0
   -7.7674   -1.8481    0.4283 H   0  0  0  0  0  0  0  0  0  0  0  0
   -7.9424   -0.9662   -1.0946 H   0  0  0  0  0  0  0  0  0  0  0  0
   -5.1069   -0.0601    2.4134 H   0  0  0  0  0  0  0  0  0  0  0  0
   -2.7809   -0.4361    1.9506 H   0  0  0  0  0  0  0  0  0  0  0  0
   -0.8101   -1.2723    1.1929 H   0  0  0  0  0  0  0  0  0  0  0  0
   -0.7763    0.4955    0.9451 H   0  0  0  0  0  0  0  0  0  0  0  0
    0.7901   -1.6105   -0.6141 H   0  0  0  0  0  0  0  0  0  0  0  0
    0.7734    0.1295   -1.0103 H   0  0  0  0  0  0  0  0  0  0  0  0
    2.7517   -1.1741   -1.6121 H   0  0  0  0  0  0  0  0  0  0  0  0
    5.0743   -1.0400   -2.1975 H   0  0  0  0  0  0  0  0  0  0  0  0
    7.5730    1.8329    0.3894 H   0  0  0  0  0  0  0  0  0  0  0  0
    8.7451    1.4966   -0.8823 H   0  0  0  0  0  0  0  0  0  0  0  0
    7.1036    2.0110   -1.3047 H   0  0  0  0  0  0  0  0  0  0  0  0
    8.6683   -0.5359   -2.2559 H   0  0  0  0  0  0  0  0  0  0  0  0
    7.0771   -0.0620   -2.8526 H   0  0  0  0  0  0  0  0  0  0  0  0
    7.3289   -1.6799   -2.1640 H   0  0  0  0  0  0  0  0  0  0  0  0
    7.7326   -1.9484    0.3762 H   0  0  0  0  0  0  0  0  0  0  0  0
    7.9526   -0.5125    1.3855 H   0  0  0  0  0  0  0  0  0  0  0  0
    9.1232   -0.8807    0.1211 H   0  0  0  0  0  0  0  0  0  0  0  0
    5.9895    0.6626    1.6516 H   0  0  0  0  0  0  0  0  0  0  0  0
    2.4210    0.4789    2.6626 H   0  0  0  0  0  0  0  0  0  0  0  0
    3.4267    1.3682    4.4397 H   0  0  0  0  0  0  0  0  0  0  0  0
   -2.3937   -0.5152   -2.6261 H   0  0  0  0  0  0  0  0  0  0  0  0
   -3.3713   -0.3662   -4.6197 H   0  0  0  0  0  0  0  0  0  0  0  0
   -5.9701    0.0525   -1.8066 H   0  0  0  0  0  0  0  0  0  0  0  0
  1  2  1  0
  2  3  1  0
  2  4  1  0
  2  5  1  0
  5  6  2  0
  6  7  1  0
  7  8  2  0
  8  9  1  0
  9 10  1  0
 10 11  1  0
 11 12  1  0
 12 13  1  0
 13 14  2  0
 14 15  1  0
 15 16  2  0
 16 17  1  0
 17 18  1  0
 17 19  1  0
 17 20  1  0
 16 21  1  0
 21 22  2  0
 22 23  1  0
 23 24  1  0
 24 25  2  0
  8 26  1  0
 26 27  1  0
 27 28  1  0
 28 29  2  0
 26 30  2  0
 30  5  1  0
 22 13  1  0
  1 31  1  0
  1 32  1  0
  1 33  1  0
  3 34  1  0
  3 35  1  0
  3 36  1  0
  4 37  1  0
  4 38  1  0
  4 39  1  0
  6 40  1  0
  7 41  1  0
 10 42  1  0
 10 43  1  0
 11 44  1  0
 11 45  1  0
 14 46  1  0
 15 47  1  0
 18 48  1  0
 18 49  1  0
 18 50  1  0
 19 51  1  0
 19 52  1  0
 19 53  1  0
 20 54  1  0
 20 55  1  0
 20 56  1  0
 21 57  1  0
 23 58  1  0
 24 59  1  0
 27 60  1  0
 28 61  1  0
 30 62  1  0
M  END
$$$$
