
     RDKit          3D

 60 63  0  0  0  0  0  0  0  0999 V2000
   -4.0252   -3.1829    1.0065 C   0  0  0  0  0  0  0  0  0  0  0  0
   -3.7802   -2.5381   -0.2358 O   0  0  0  0  0  0  0  0  0  0  0  0
   -3.0221   -1.3979   -0.2147 C   0  0  0  0  0  0  0  0  0  0  0  0
   -2.4982   -0.8003    0.9304 C   0  0  0  0  0  0  0  0  0  0  0  0
   -1.7330    0.3689    0.8258 C   0  0  0  0  0  0  0  0  0  0  0  0
   -1.1937    0.9185    1.9634 O   0  0  0  0  0  0  0  0  0  0  0  0
   -2.2094    1.5763    2.7273 C   0  0  0  0  0  0  0  0  0  0  0  0
   -1.4386    0.9518   -0.4176 C   0  0  0  0  0  0  0  0  0  0  0  0
   -0.5232    2.1640   -0.5021 C   0  0  0  0  0  0  0  0  0  0  0  0
    0.7859    1.9600   -1.2864 C   0  0  0  0  0  0  0  0  0  0  0  0
    1.3894    0.6000   -0.9641 C   0  0  0  0  0  0  0  0  0  0  0  0
    1.3991   -0.3026   -1.7938 O   0  0  0  0  0  0  0  0  0  0  0  0
    1.8880    0.5246    0.3293 N   0  0  0  0  0  0  0  0  0  0  0  0
    2.5045   -0.5847    0.9612 C   0  0  0  0  0  0  0  0  0  0  0  0
    2.7779   -1.7795    0.2893 C   0  0  0  0  0  0  0  0  0  0  0  0
    3.3971   -2.8509    0.9412 C   0  0  0  0  0  0  0  0  0  0  0  0
    3.7698   -2.7472    2.2805 C   0  0  0  0  0  0  0  0  0  0  0  0
    4.4068   -3.9025    2.9937 C   0  0  0  0  0  0  0  0  0  0  0  0
    3.4885   -1.5623    2.9651 C   0  0  0  0  0  0  0  0  0  0  0  0
    2.8633   -0.4758    2.3235 C   0  0  0  0  0  0  0  0  0  0  0  0
    2.5915    0.7629    3.1356 C   0  0  0  0  0  0  0  0  0  0  0  0
    0.6038    2.2918   -2.7687 C   0  0  0  0  0  0  0  0  0  0  0  0
    1.5459    1.6975   -3.7901 C   0  0  0  0  0  0  0  0  0  0  0  0
   -0.2759    3.1410   -3.2150 N   0  0  0  0  0  0  0  0  0  0  0  0
   -1.0838    3.7572   -2.3218 C   0  0  0  0  0  0  0  0  0  0  0  0
   -1.8311    4.8309   -2.4573 N   0  0  0  0  0  0  0  0  0  0  0  0
   -2.3922    5.0004   -1.2216 C   0  0  0  0  0  0  0  0  0  0  0  0
   -2.0291    4.1042   -0.2989 N   0  0  0  0  0  0  0  0  0  0  0  0
   -1.2410    3.3048   -1.0400 N   0  0  0  0  0  0  0  0  0  0  0  0
   -1.9873    0.3569   -1.5629 C   0  0  0  0  0  0  0  0  0  0  0  0
   -2.7512   -0.8108   -1.4576 C   0  0  0  0  0  0  0  0  0  0  0  0
   -3.2741   -1.3597   -2.6030 O   0  0  0  0  0  0  0  0  0  0  0  0
   -2.2779   -2.1367   -3.2708 C   0  0  0  0  0  0  0  0  0  0  0  0
   -4.6409   -4.0657    0.8100 H   0  0  0  0  0  0  0  0  0  0  0  0
   -3.0905   -3.5245    1.4621 H   0  0  0  0  0  0  0  0  0  0  0  0
   -4.5845   -2.5333    1.6871 H   0  0  0  0  0  0  0  0  0  0  0  0
   -2.6538   -1.2272    1.9143 H   0  0  0  0  0  0  0  0  0  0  0  0
   -2.8139    2.2460    2.1048 H   0  0  0  0  0  0  0  0  0  0  0  0
   -2.8474    0.8463    3.2354 H   0  0  0  0  0  0  0  0  0  0  0  0
   -1.7113    2.1805    3.4918 H   0  0  0  0  0  0  0  0  0  0  0  0
   -0.2347    2.4788    0.5088 H   0  0  0  0  0  0  0  0  0  0  0  0
    1.5146    2.7143   -0.9491 H   0  0  0  0  0  0  0  0  0  0  0  0
    1.7520    1.3293    0.9253 H   0  0  0  0  0  0  0  0  0  0  0  0
    2.5166   -1.9232   -0.7540 H   0  0  0  0  0  0  0  0  0  0  0  0
    3.5780   -3.7693    0.3865 H   0  0  0  0  0  0  0  0  0  0  0  0
    5.2161   -3.5538    3.6440 H   0  0  0  0  0  0  0  0  0  0  0  0
    3.6604   -4.4259    3.5998 H   0  0  0  0  0  0  0  0  0  0  0  0
    4.8410   -4.6159    2.2855 H   0  0  0  0  0  0  0  0  0  0  0  0
    3.7593   -1.4855    4.0171 H   0  0  0  0  0  0  0  0  0  0  0  0
    2.9202    0.6490    4.1742 H   0  0  0  0  0  0  0  0  0  0  0  0
    3.1279    1.6189    2.7131 H   0  0  0  0  0  0  0  0  0  0  0  0
    1.5181    0.9736    3.1560 H   0  0  0  0  0  0  0  0  0  0  0  0
    1.1859    0.7107   -4.0925 H   0  0  0  0  0  0  0  0  0  0  0  0
    1.5892    2.3360   -4.6781 H   0  0  0  0  0  0  0  0  0  0  0  0
    2.5538    1.6186   -3.3747 H   0  0  0  0  0  0  0  0  0  0  0  0
   -3.0767    5.8065   -0.9894 H   0  0  0  0  0  0  0  0  0  0  0  0
   -1.8282    0.7765   -2.5530 H   0  0  0  0  0  0  0  0  0  0  0  0
   -1.7675   -2.8266   -2.5875 H   0  0  0  0  0  0  0  0  0  0  0  0
   -1.5492   -1.4841   -3.7655 H   0  0  0  0  0  0  0  0  0  0  0  0
   -2.7786   -2.7300   -4.0418 H   0  0  0  0  0  0  0  0  0  0  0  0
  1  2  1  0
  2  3  1  0
  3  4  2  0
  4  5  1  0
  5  6  1  0
  6  7  1  0
  5  8  2  0
  8  9  1  0
  9 10  1  0
 10 11  1  0
 11 12  2  0
 11 13  1  0
 13 14  1  0
 14 15  2  0
 15 16  1  0
 16 17  2  0
 17 18  1  0
 17 19  1  0
 19 20  2  0
 20 21  1  0
 10 22  1  0
 22 23  1  0
 22 24  2  0
 24 25  1  0
 25 26  2  0
 26 27  1  0
 27 28  2  0
 28 29  1  0
  8 30  1  0
 30 31  2  0
 31 32  1  0
 32 33  1  0
 31  3  1  0
 29  9  1  0
 20 14  1  0
 29 25  1  0
  1 34  1  0
  1 35  1  0
  1 36  1  0
  4 37  1  0
  7 38  1  0
  7 39  1  0
  7 40  1  0
  9 41  1  0
 10 42  1  0
 13 43  1  0
 15 44  1  0
 16 45  1  0
 18 46  1  0
 18 47  1  0
 18 48  1  0
 19 49  1  0
 21 50  1  0
 21 51  1  0
 21 52  1  0
 23 53  1  0
 23 54  1  0
 23 55  1  0
 27 56  1  0
 30 57  1  0
 33 58  1  0
 33 59  1  0
 33 60  1  0
M  END
$$$$
