
     RDKit          3D

 53 56  0  0  0  0  0  0  0  0999 V2000
    6.0720    1.9230    1.6040 C   0  0  0  0  0  0  0  0  0  0  0  0
    5.1892    0.8245    1.0923 C   0  0  0  0  0  0  0  0  0  0  0  0
    3.8387    1.0447    0.9071 C   0  0  0  0  0  0  0  0  0  0  0  0
    3.0615   -0.0135    0.4373 C   0  0  0  0  0  0  0  0  0  0  0  0
    1.6311    0.2836    0.1934 C   0  0  0  0  0  0  0  0  0  0  0  0
    0.9624    0.7043    1.1270 O   0  0  0  0  0  0  0  0  0  0  0  0
    1.2308    0.0828   -1.1142 N   0  0  0  0  0  0  0  0  0  0  0  0
   -0.0593    0.2634   -1.6528 C   0  0  0  0  0  0  0  0  0  0  0  0
   -0.2404   -0.0681   -2.9983 C   0  0  0  0  0  0  0  0  0  0  0  0
   -1.4917    0.0674   -3.6070 C   0  0  0  0  0  0  0  0  0  0  0  0
   -2.5958    0.5434   -2.8862 C   0  0  0  0  0  0  0  0  0  0  0  0
   -3.9144    0.6776   -3.5959 C   0  0  0  0  0  0  0  0  0  0  0  0
   -2.4128    0.8593   -1.5274 C   0  0  0  0  0  0  0  0  0  0  0  0
   -3.7774    1.4292   -0.5261 S   0  0  0  0  0  6  0  0  0  0  0  0
   -4.9413    0.6223   -0.8326 O   0  0  0  0  0  0  0  0  0  0  0  0
   -3.8033    2.8714   -0.6436 O   0  0  0  0  0  0  0  0  0  0  0  0
   -3.3423    1.0337    1.0726 N   0  0  0  0  0  0  0  0  0  0  0  0
   -3.3050   -0.4303    1.4027 C   0  0  0  0  0  0  0  0  0  0  0  0
   -4.4957   -0.8255    2.2820 C   0  0  0  0  0  0  0  0  0  0  0  0
   -4.5168   -0.1388    3.5426 O   0  0  0  0  0  0  0  0  0  0  0  0
   -3.9365    1.1736    3.4815 C   0  0  0  0  0  0  0  0  0  0  0  0
   -4.0798    1.8294    2.1054 C   0  0  0  0  0  0  0  0  0  0  0  0
   -1.1480    0.7384   -0.9246 C   0  0  0  0  0  0  0  0  0  0  0  0
    3.6232   -1.2892    0.2030 C   0  0  0  0  0  0  0  0  0  0  0  0
    2.8975   -2.4409   -0.2015 C   0  0  0  0  0  0  0  0  0  0  0  0
    3.5414   -3.6572   -0.4206 C   0  0  0  0  0  0  0  0  0  0  0  0
    4.9131   -3.7451   -0.2347 C   0  0  0  0  0  0  0  0  0  0  0  0
    5.6283   -2.6202    0.1828 C   0  0  0  0  0  0  0  0  0  0  0  0
    5.0106   -1.3979    0.4141 C   0  0  0  0  0  0  0  0  0  0  0  0
    5.7684   -0.3702    0.8358 N   0  0  0  0  0  0  0  0  0  0  0  0
    6.0034    2.8008    0.9536 H   0  0  0  0  0  0  0  0  0  0  0  0
    7.1182    1.6016    1.6323 H   0  0  0  0  0  0  0  0  0  0  0  0
    5.7729    2.2029    2.6198 H   0  0  0  0  0  0  0  0  0  0  0  0
    3.3948    2.0138    1.1135 H   0  0  0  0  0  0  0  0  0  0  0  0
    1.9439   -0.2295   -1.7641 H   0  0  0  0  0  0  0  0  0  0  0  0
    0.5876   -0.4381   -3.5980 H   0  0  0  0  0  0  0  0  0  0  0  0
   -1.5952   -0.1964   -4.6582 H   0  0  0  0  0  0  0  0  0  0  0  0
   -4.5604   -0.1735   -3.3617 H   0  0  0  0  0  0  0  0  0  0  0  0
   -4.4159    1.6124   -3.3278 H   0  0  0  0  0  0  0  0  0  0  0  0
   -3.7740    0.7080   -4.6813 H   0  0  0  0  0  0  0  0  0  0  0  0
   -3.2901   -1.0443    0.4964 H   0  0  0  0  0  0  0  0  0  0  0  0
   -2.3639   -0.6173    1.9345 H   0  0  0  0  0  0  0  0  0  0  0  0
   -5.4434   -0.6196    1.7710 H   0  0  0  0  0  0  0  0  0  0  0  0
   -4.4664   -1.8988    2.4956 H   0  0  0  0  0  0  0  0  0  0  0  0
   -2.8797    1.0854    3.7605 H   0  0  0  0  0  0  0  0  0  0  0  0
   -4.4273    1.7832    4.2471 H   0  0  0  0  0  0  0  0  0  0  0  0
   -5.1418    1.8874    1.8394 H   0  0  0  0  0  0  0  0  0  0  0  0
   -3.6606    2.8402    2.1373 H   0  0  0  0  0  0  0  0  0  0  0  0
   -1.0310    1.0338    0.1130 H   0  0  0  0  0  0  0  0  0  0  0  0
    1.8169   -2.4059   -0.3256 H   0  0  0  0  0  0  0  0  0  0  0  0
    2.9727   -4.5323   -0.7254 H   0  0  0  0  0  0  0  0  0  0  0  0
    5.4300   -4.6873   -0.3973 H   0  0  0  0  0  0  0  0  0  0  0  0
    6.7016   -2.7015    0.3401 H   0  0  0  0  0  0  0  0  0  0  0  0
  1  2  1  0
  2  3  2  0
  3  4  1  0
  4  5  1  0
  5  6  2  0
  5  7  1  0
  7  8  1  0
  8  9  2  0
  9 10  1  0
 10 11  2  0
 11 12  1  0
 11 13  1  0
 13 14  1  0
 14 15  2  0
 14 16  2  0
 14 17  1  0
 17 18  1  0
 18 19  1  0
 19 20  1  0
 20 21  1  0
 21 22  1  0
 13 23  2  0
  4 24  2  0
 24 25  1  0
 25 26  2  0
 26 27  1  0
 27 28  2  0
 28 29  1  0
 29 30  2  0
 30  2  1  0
 23  8  1  0
 29 24  1  0
 22 17  1  0
  1 31  1  0
  1 32  1  0
  1 33  1  0
  3 34  1  0
  7 35  1  0
  9 36  1  0
 10 37  1  0
 12 38  1  0
 12 39  1  0
 12 40  1  0
 18 41  1  0
 18 42  1  0
 19 43  1  0
 19 44  1  0
 21 45  1  0
 21 46  1  0
 22 47  1  0
 22 48  1  0
 23 49  1  0
 25 50  1  0
 26 51  1  0
 27 52  1  0
 28 53  1  0
M  END
$$$$
