
     RDKit          3D

 36 38  0  0  0  0  0  0  0  0999 V2000
   -6.6039   -1.1107    0.1824 C   0  0  0  0  0  0  0  0  0  0  0  0
   -6.0497    0.1936    0.3013 O   0  0  0  0  0  0  0  0  0  0  0  0
   -4.6896    0.2810    0.4040 C   0  0  0  0  0  0  0  0  0  0  0  0
   -3.7929   -0.7850    0.3776 C   0  0  0  0  0  0  0  0  0  0  0  0
   -2.4162   -0.5498    0.4922 C   0  0  0  0  0  0  0  0  0  0  0  0
   -1.9127    0.7508    0.6400 C   0  0  0  0  0  0  0  0  0  0  0  0
   -0.4659    0.9777    0.7424 C   0  0  0  0  0  0  0  0  0  0  0  0
    0.1378    1.9442    1.4472 C   0  0  0  0  0  0  0  0  0  0  0  0
    1.5836    1.7982    1.1610 C   0  0  0  0  0  0  0  0  0  0  0  0
    2.4256    2.5397    1.6377 O   0  0  0  0  0  0  0  0  0  0  0  0
    1.7055    0.7129    0.2920 N   0  0  0  0  0  0  0  0  0  0  0  0
    2.8634    0.1050   -0.2363 C   0  0  0  0  0  0  0  0  0  0  0  0
    2.7722   -1.0832   -0.9822 C   0  0  0  0  0  0  0  0  0  0  0  0
    3.9141   -1.6947   -1.5150 C   0  0  0  0  0  0  0  0  0  0  0  0
    5.1691   -1.1160   -1.3025 C   0  0  0  0  0  0  0  0  0  0  0  0
    6.3701   -1.7513   -1.8586 N   0  0  0  0  0  4  0  0  0  0  0  0
    7.4629   -1.2089   -1.6425 O   0  0  0  0  0  0  0  0  0  0  0  0
    6.2190   -2.7924   -2.5140 O   0  0  0  0  0  1  0  0  0  0  0  0
    5.2840    0.0636   -0.5615 C   0  0  0  0  0  0  0  0  0  0  0  0
    4.1337    0.6645   -0.0334 C   0  0  0  0  0  0  0  0  0  0  0  0
    0.4312    0.1684    0.0563 N   0  0  0  0  0  0  0  0  0  0  0  0
   -2.8226    1.8150    0.6619 C   0  0  0  0  0  0  0  0  0  0  0  0
   -4.1966    1.5790    0.5451 C   0  0  0  0  0  0  0  0  0  0  0  0
   -6.3748   -1.7191    1.0636 H   0  0  0  0  0  0  0  0  0  0  0  0
   -7.6917   -1.0075    0.1227 H   0  0  0  0  0  0  0  0  0  0  0  0
   -6.2650   -1.6008   -0.7362 H   0  0  0  0  0  0  0  0  0  0  0  0
   -4.1271   -1.8118    0.2728 H   0  0  0  0  0  0  0  0  0  0  0  0
   -1.7393   -1.4024    0.4818 H   0  0  0  0  0  0  0  0  0  0  0  0
   -0.2724    2.7124    2.0746 H   0  0  0  0  0  0  0  0  0  0  0  0
    1.8123   -1.5667   -1.1458 H   0  0  0  0  0  0  0  0  0  0  0  0
    3.8047   -2.6168   -2.0824 H   0  0  0  0  0  0  0  0  0  0  0  0
    6.2511    0.5299   -0.3822 H   0  0  0  0  0  0  0  0  0  0  0  0
    4.2598    1.5827    0.5362 H   0  0  0  0  0  0  0  0  0  0  0  0
    0.1905    0.1383   -0.9363 H   0  0  0  0  0  0  0  0  0  0  0  0
   -2.4810    2.8427    0.7589 H   0  0  0  0  0  0  0  0  0  0  0  0
   -4.8894    2.4173    0.5634 H   0  0  0  0  0  0  0  0  0  0  0  0
  1  2  1  0
  2  3  1  0
  3  4  2  0
  4  5  1  0
  5  6  2  0
  6  7  1  0
  7  8  2  0
  8  9  1  0
  9 10  2  0
  9 11  1  0
 11 12  1  0
 12 13  2  0
 13 14  1  0
 14 15  2  0
 15 16  1  0
 16 17  2  0
 16 18  1  0
 15 19  1  0
 19 20  2  0
 11 21  1  0
  6 22  1  0
 22 23  2  0
 23  3  1  0
 21  7  1  0
 20 12  1  0
  1 24  1  0
  1 25  1  0
  1 26  1  0
  4 27  1  0
  5 28  1  0
  8 29  1  0
 13 30  1  0
 14 31  1  0
 19 32  1  0
 20 33  1  0
 21 34  1  0
 22 35  1  0
 23 36  1  0
M  CHG  2  16   1  18  -1
M  END
$$$$
