
     RDKit          3D

 45 46  0  0  0  0  0  0  0  0999 V2000
   -3.3647    2.1304    2.5714 C   0  0  0  0  0  0  0  0  0  0  0  0
   -3.0172    0.9578    1.8369 O   0  0  0  0  0  0  0  0  0  0  0  0
   -2.1551    1.1776    0.8072 C   0  0  0  0  0  0  0  0  0  0  0  0
   -1.6885    2.2702    0.4967 O   0  0  0  0  0  0  0  0  0  0  0  0
   -1.8543   -0.1207    0.0545 C   0  0  0  0  0  0  0  0  0  0  0  0
   -2.7366   -0.2152   -1.1959 C   0  0  0  0  0  0  0  0  0  0  0  0
   -4.1999   -0.4261   -0.8910 C   0  0  0  0  0  0  0  0  0  0  0  0
   -4.6601   -1.6745   -0.4506 C   0  0  0  0  0  0  0  0  0  0  0  0
   -6.0098   -1.8646   -0.1516 C   0  0  0  0  0  0  0  0  0  0  0  0
   -6.9109   -0.8107   -0.2895 C   0  0  0  0  0  0  0  0  0  0  0  0
   -6.4637    0.4344   -0.7271 C   0  0  0  0  0  0  0  0  0  0  0  0
   -5.1144    0.6273   -1.0268 C   0  0  0  0  0  0  0  0  0  0  0  0
   -0.4352   -0.0814   -0.3306 N   0  0  0  0  0  0  0  0  0  0  0  0
    0.5340   -0.5746    0.5180 C   0  0  0  0  0  0  0  0  0  0  0  0
    0.2764   -1.2004    1.5394 O   0  0  0  0  0  0  0  0  0  0  0  0
    1.9389   -0.2434    0.0673 C   0  0  0  0  0  0  0  0  0  0  0  0
    2.9741   -0.9691    0.9164 C   0  0  0  0  0  0  0  0  0  0  0  0
    4.3299   -0.6064    0.5558 N   0  0  0  0  0  0  0  0  0  0  0  0
    4.9574   -1.0847   -0.5751 C   0  0  0  0  0  0  0  0  0  0  0  0
    4.3899   -1.8129   -1.3848 O   0  0  0  0  0  0  0  0  0  0  0  0
    6.3294   -0.6437   -0.7169 C   0  0  0  0  0  0  0  0  0  0  0  0
    7.2721   -0.9055   -1.6932 C   0  0  0  0  0  0  0  0  0  0  0  0
    8.4484   -0.2112   -1.3226 C   0  0  0  0  0  0  0  0  0  0  0  0
    8.1567    0.4332   -0.1441 C   0  0  0  0  0  0  0  0  0  0  0  0
    6.8770    0.1809    0.2344 O   0  0  0  0  0  0  0  0  0  0  0  0
   -2.4749    2.5748    3.0282 H   0  0  0  0  0  0  0  0  0  0  0  0
   -3.8699    2.8528    1.9227 H   0  0  0  0  0  0  0  0  0  0  0  0
   -4.0546    1.8396    3.3684 H   0  0  0  0  0  0  0  0  0  0  0  0
   -2.0125   -0.9733    0.7247 H   0  0  0  0  0  0  0  0  0  0  0  0
   -2.3957   -1.0467   -1.8276 H   0  0  0  0  0  0  0  0  0  0  0  0
   -2.6158    0.6849   -1.8142 H   0  0  0  0  0  0  0  0  0  0  0  0
   -3.9706   -2.5087   -0.3365 H   0  0  0  0  0  0  0  0  0  0  0  0
   -6.3582   -2.8359    0.1900 H   0  0  0  0  0  0  0  0  0  0  0  0
   -7.9618   -0.9602   -0.0562 H   0  0  0  0  0  0  0  0  0  0  0  0
   -7.1669    1.2561   -0.8350 H   0  0  0  0  0  0  0  0  0  0  0  0
   -4.7843    1.6075   -1.3648 H   0  0  0  0  0  0  0  0  0  0  0  0
   -0.1599    0.6926   -0.9264 H   0  0  0  0  0  0  0  0  0  0  0  0
    2.0794    0.8411    0.1475 H   0  0  0  0  0  0  0  0  0  0  0  0
    2.0455   -0.5180   -0.9883 H   0  0  0  0  0  0  0  0  0  0  0  0
    2.8512   -0.7238    1.9770 H   0  0  0  0  0  0  0  0  0  0  0  0
    2.8645   -2.0545    0.8086 H   0  0  0  0  0  0  0  0  0  0  0  0
    4.8820   -0.0285    1.1803 H   0  0  0  0  0  0  0  0  0  0  0  0
    7.1144   -1.5276   -2.5641 H   0  0  0  0  0  0  0  0  0  0  0  0
    9.3924   -0.1844   -1.8489 H   0  0  0  0  0  0  0  0  0  0  0  0
    8.7219    1.0764    0.5165 H   0  0  0  0  0  0  0  0  0  0  0  0
  1  2  1  0
  2  3  1  0
  3  4  2  0
  3  5  1  0
  5  6  1  0
  6  7  1  0
  7  8  2  0
  8  9  1  0
  9 10  2  0
 10 11  1  0
 11 12  2  0
  5 13  1  0
 13 14  1  0
 14 15  2  0
 14 16  1  0
 16 17  1  0
 17 18  1  0
 18 19  1  0
 19 20  2  0
 19 21  1  0
 21 22  2  0
 22 23  1  0
 23 24  2  0
 24 25  1  0
 12  7  1  0
 25 21  1  0
  1 26  1  0
  1 27  1  0
  1 28  1  0
  5 29  1  0
  6 30  1  0
  6 31  1  0
  8 32  1  0
  9 33  1  0
 10 34  1  0
 11 35  1  0
 12 36  1  0
 13 37  1  0
 16 38  1  0
 16 39  1  0
 17 40  1  0
 17 41  1  0
 18 42  1  0
 22 43  1  0
 23 44  1  0
 24 45  1  0
M  END
$$$$
