
     RDKit          3D

 48 50  0  0  0  0  0  0  0  0999 V2000
    4.0312    0.1022   -3.1529 C   0  0  0  0  0  0  0  0  0  0  0  0
    4.0809   -0.2032   -1.6996 C   0  0  0  0  0  0  0  0  0  0  0  0
    5.1281    0.0870   -0.8307 C   0  0  0  0  0  0  0  0  0  0  0  0
    6.3958    0.7318   -1.0660 C   0  0  0  0  0  0  0  0  0  0  0  0
    6.8215    1.1759   -2.1233 O   0  0  0  0  0  0  0  0  0  0  0  0
    7.1454    0.8219    0.0556 O   0  0  0  0  0  0  0  0  0  0  0  0
    4.8166   -0.3462    0.4304 O   0  0  0  0  0  0  0  0  0  0  0  0
    3.5842   -0.9111    0.3785 C   0  0  0  0  0  0  0  0  0  0  0  0
    2.9155   -1.4775    1.4630 C   0  0  0  0  0  0  0  0  0  0  0  0
    1.6478   -2.0101    1.2097 C   0  0  0  0  0  0  0  0  0  0  0  0
    1.1000   -1.9551   -0.0771 C   0  0  0  0  0  0  0  0  0  0  0  0
   -0.5122   -2.6400   -0.3782 S   0  0  0  0  0  6  0  0  0  0  0  0
   -0.4859   -3.2580   -1.6852 O   0  0  0  0  0  0  0  0  0  0  0  0
   -0.9416   -3.3601    0.7991 O   0  0  0  0  0  0  0  0  0  0  0  0
   -1.4455   -1.2624   -0.5261 N   0  0  0  0  0  0  0  0  0  0  0  0
   -1.8545   -0.4864    0.6574 C   0  0  0  0  0  0  0  0  0  0  0  0
   -1.5181    0.9872    0.3672 C   0  0  0  0  0  0  0  0  0  0  0  0
   -2.4991    1.7951   -0.4812 C   0  0  0  0  0  0  0  0  0  0  0  0
   -3.9210    2.0159    0.0397 C   0  0  0  0  0  0  0  0  0  0  0  0
   -4.0980    2.2963    1.5290 C   0  0  0  0  0  0  0  0  0  0  0  0
   -3.6762    1.2284    2.5410 C   0  0  0  0  0  0  0  0  0  0  0  0
   -3.9627   -0.2303    2.2004 C   0  0  0  0  0  0  0  0  0  0  0  0
   -3.3132   -0.8483    0.9592 C   0  0  0  0  0  0  0  0  0  0  0  0
    1.8009   -1.3892   -1.1568 C   0  0  0  0  0  0  0  0  0  0  0  0
    3.0776   -0.8495   -0.9133 C   0  0  0  0  0  0  0  0  0  0  0  0
    4.8521   -0.3973   -3.6773 H   0  0  0  0  0  0  0  0  0  0  0  0
    4.1161    1.1808   -3.3204 H   0  0  0  0  0  0  0  0  0  0  0  0
    3.0925   -0.2336   -3.6037 H   0  0  0  0  0  0  0  0  0  0  0  0
    7.9609    1.2680   -0.2470 H   0  0  0  0  0  0  0  0  0  0  0  0
    3.3650   -1.5039    2.4488 H   0  0  0  0  0  0  0  0  0  0  0  0
    1.0935   -2.4681    2.0273 H   0  0  0  0  0  0  0  0  0  0  0  0
   -1.9577   -1.1712   -1.4014 H   0  0  0  0  0  0  0  0  0  0  0  0
   -1.2387   -0.7878    1.5136 H   0  0  0  0  0  0  0  0  0  0  0  0
   -1.3276    1.5234    1.3004 H   0  0  0  0  0  0  0  0  0  0  0  0
   -0.5455    1.0219   -0.1459 H   0  0  0  0  0  0  0  0  0  0  0  0
   -2.5624    1.3509   -1.4825 H   0  0  0  0  0  0  0  0  0  0  0  0
   -2.0486    2.7859   -0.6296 H   0  0  0  0  0  0  0  0  0  0  0  0
   -4.5753    1.1938   -0.2614 H   0  0  0  0  0  0  0  0  0  0  0  0
   -4.3285    2.8789   -0.5058 H   0  0  0  0  0  0  0  0  0  0  0  0
   -3.5827    3.2320    1.7805 H   0  0  0  0  0  0  0  0  0  0  0  0
   -5.1657    2.4974    1.6907 H   0  0  0  0  0  0  0  0  0  0  0  0
   -4.2027    1.4544    3.4792 H   0  0  0  0  0  0  0  0  0  0  0  0
   -2.6227    1.3437    2.8088 H   0  0  0  0  0  0  0  0  0  0  0  0
   -5.0484   -0.3716    2.1258 H   0  0  0  0  0  0  0  0  0  0  0  0
   -3.6482   -0.8280    3.0666 H   0  0  0  0  0  0  0  0  0  0  0  0
   -3.9359   -0.6755    0.0762 H   0  0  0  0  0  0  0  0  0  0  0  0
   -3.3739   -1.9388    1.0899 H   0  0  0  0  0  0  0  0  0  0  0  0
    1.3666   -1.3696   -2.1525 H   0  0  0  0  0  0  0  0  0  0  0  0
  1  2  1  0
  2  3  2  0
  3  4  1  0
  4  5  2  0
  4  6  1  0
  3  7  1  0
  7  8  1  0
  8  9  2  0
  9 10  1  0
 10 11  2  0
 11 12  1  0
 12 13  2  0
 12 14  2  0
 12 15  1  0
 15 16  1  0
 16 17  1  0
 17 18  1  0
 18 19  1  0
 19 20  1  0
 20 21  1  0
 21 22  1  0
 22 23  1  0
 11 24  1  0
 24 25  2  0
 25  2  1  0
 25  8  1  0
 23 16  1  0
  1 26  1  0
  1 27  1  0
  1 28  1  0
  6 29  1  0
  9 30  1  0
 10 31  1  0
 15 32  1  0
 16 33  1  0
 17 34  1  0
 17 35  1  0
 18 36  1  0
 18 37  1  0
 19 38  1  0
 19 39  1  0
 20 40  1  0
 20 41  1  0
 21 42  1  0
 21 43  1  0
 22 44  1  0
 22 45  1  0
 23 46  1  0
 23 47  1  0
 24 48  1  0
M  END
$$$$
