
     RDKit          3D

 53 56  0  0  0  0  0  0  0  0999 V2000
    4.9511   -0.0395   -1.1866 C   0  0  0  0  0  0  0  0  0  0  0  0
    4.5240    0.1530    0.2086 N   0  0  0  0  0  0  0  0  0  0  0  0
    5.4356   -0.2189    1.2309 C   0  0  0  0  0  0  0  0  0  0  0  0
    5.0380   -0.1665    2.5816 C   0  0  0  0  0  0  0  0  0  0  0  0
    5.9074   -0.5103    3.6227 C   0  0  0  0  0  0  0  0  0  0  0  0
    7.2080   -0.9074    3.3392 C   0  0  0  0  0  0  0  0  0  0  0  0
    7.6370   -0.9518    2.0178 C   0  0  0  0  0  0  0  0  0  0  0  0
    6.7627   -0.6058    0.9791 C   0  0  0  0  0  0  0  0  0  0  0  0
    3.1147    0.0347    0.3256 C   0  0  0  0  0  0  0  0  0  0  0  0
    2.5286   -1.2234    0.5404 C   0  0  0  0  0  0  0  0  0  0  0  0
    1.1409   -1.3627    0.6682 C   0  0  0  0  0  0  0  0  0  0  0  0
    0.3024   -0.2445    0.5854 C   0  0  0  0  0  0  0  0  0  0  0  0
   -1.1511   -0.3842    0.7188 C   0  0  0  0  0  0  0  0  0  0  0  0
   -1.9682   -0.9192   -0.2117 C   0  0  0  0  0  0  0  0  0  0  0  0
   -1.4753   -1.4510   -1.4426 C   0  0  0  0  0  0  0  0  0  0  0  0
   -1.1003   -1.8519   -2.4654 N   0  0  0  0  0  0  0  0  0  0  0  0
   -3.3505   -1.0104    0.1109 C   0  0  0  0  0  0  0  0  0  0  0  0
   -3.9022   -1.5208    1.1946 N   0  0  0  0  0  0  0  0  0  0  0  0
   -5.2601   -1.4424    1.0715 N   0  0  0  0  0  0  0  0  0  0  0  0
   -5.5422   -0.8530   -0.0712 C   0  0  0  0  0  0  0  0  0  0  0  0
   -4.3595   -0.5222   -0.6965 N   0  0  0  0  0  0  0  0  0  0  0  0
   -4.2564    0.2277   -1.9279 C   0  0  0  0  0  0  0  0  0  0  0  0
   -4.8270    1.6430   -1.8380 C   0  0  0  0  0  0  0  0  0  0  0  0
   -6.2721    1.7583   -1.3425 C   0  0  0  0  0  0  0  0  0  0  0  0
   -7.1161    0.5139   -1.5987 C   0  0  0  0  0  0  0  0  0  0  0  0
   -6.9297   -0.5835   -0.5519 C   0  0  0  0  0  0  0  0  0  0  0  0
    0.8602    1.0188    0.3838 C   0  0  0  0  0  0  0  0  0  0  0  0
    2.2517    1.1384    0.2491 C   0  0  0  0  0  0  0  0  0  0  0  0
    2.7880    2.4690    0.0567 N   0  0  0  0  0  4  0  0  0  0  0  0
    3.2810    2.7305   -1.0497 O   0  0  0  0  0  0  0  0  0  0  0  0
    2.6401    3.2715    0.9895 O   0  0  0  0  0  1  0  0  0  0  0  0
    4.1903    0.2942   -1.9035 H   0  0  0  0  0  0  0  0  0  0  0  0
    5.1541   -1.0967   -1.3961 H   0  0  0  0  0  0  0  0  0  0  0  0
    5.8476    0.5528   -1.4026 H   0  0  0  0  0  0  0  0  0  0  0  0
    4.0358    0.1608    2.8477 H   0  0  0  0  0  0  0  0  0  0  0  0
    5.5650   -0.4575    4.6528 H   0  0  0  0  0  0  0  0  0  0  0  0
    7.8874   -1.1718    4.1449 H   0  0  0  0  0  0  0  0  0  0  0  0
    8.6566   -1.2509    1.7884 H   0  0  0  0  0  0  0  0  0  0  0  0
    7.1573   -0.6518   -0.0310 H   0  0  0  0  0  0  0  0  0  0  0  0
    3.1594   -2.1079    0.6145 H   0  0  0  0  0  0  0  0  0  0  0  0
    0.7272   -2.3555    0.8403 H   0  0  0  0  0  0  0  0  0  0  0  0
   -1.5564   -0.0115    1.6601 H   0  0  0  0  0  0  0  0  0  0  0  0
   -3.2083    0.3123   -2.2210 H   0  0  0  0  0  0  0  0  0  0  0  0
   -4.7478   -0.3627   -2.7090 H   0  0  0  0  0  0  0  0  0  0  0  0
   -4.7657    2.0894   -2.8388 H   0  0  0  0  0  0  0  0  0  0  0  0
   -4.1884    2.2598   -1.1929 H   0  0  0  0  0  0  0  0  0  0  0  0
   -6.7353    2.6180   -1.8425 H   0  0  0  0  0  0  0  0  0  0  0  0
   -6.2784    1.9971   -0.2715 H   0  0  0  0  0  0  0  0  0  0  0  0
   -8.1759    0.8000   -1.5932 H   0  0  0  0  0  0  0  0  0  0  0  0
   -6.9266    0.1229   -2.6053 H   0  0  0  0  0  0  0  0  0  0  0  0
   -7.3559   -1.5177   -0.9370 H   0  0  0  0  0  0  0  0  0  0  0  0
   -7.5314   -0.3163    0.3273 H   0  0  0  0  0  0  0  0  0  0  0  0
    0.2288    1.9034    0.3326 H   0  0  0  0  0  0  0  0  0  0  0  0
  1  2  1  0
  2  3  1  0
  3  4  2  0
  4  5  1  0
  5  6  2  0
  6  7  1  0
  7  8  2  0
  2  9  1  0
  9 10  2  0
 10 11  1  0
 11 12  2  0
 12 13  1  0
 13 14  2  3
 14 15  1  0
 15 16  3  0
 14 17  1  0
 17 18  2  0
 18 19  1  0
 19 20  2  0
 20 21  1  0
 21 22  1  0
 22 23  1  0
 23 24  1  0
 24 25  1  0
 25 26  1  0
 12 27  1  0
 27 28  2  0
 28 29  1  0
 29 30  2  0
 29 31  1  0
  8  3  1  0
 28  9  1  0
 21 17  1  0
 26 20  1  0
  1 32  1  0
  1 33  1  0
  1 34  1  0
  4 35  1  0
  5 36  1  0
  6 37  1  0
  7 38  1  0
  8 39  1  0
 10 40  1  0
 11 41  1  0
 13 42  1  0
 22 43  1  0
 22 44  1  0
 23 45  1  0
 23 46  1  0
 24 47  1  0
 24 48  1  0
 25 49  1  0
 25 50  1  0
 26 51  1  0
 26 52  1  0
 27 53  1  0
M  CHG  2  29   1  31  -1
M  END
$$$$
