
     RDKit          3D

 62 66  0  0  0  0  0  0  0  0999 V2000
   -4.6875   -4.9173   -0.0672 C   0  0  0  0  0  0  0  0  0  0  0  0
   -3.9731   -4.6672   -1.2711 O   0  0  0  0  0  0  0  0  0  0  0  0
   -3.5503   -3.3836   -1.4849 C   0  0  0  0  0  0  0  0  0  0  0  0
   -2.8835   -3.1845   -2.6960 C   0  0  0  0  0  0  0  0  0  0  0  0
   -2.3961   -1.9244   -3.0405 C   0  0  0  0  0  0  0  0  0  0  0  0
   -2.5742   -0.8502   -2.1704 C   0  0  0  0  0  0  0  0  0  0  0  0
   -3.2399   -1.0299   -0.9510 C   0  0  0  0  0  0  0  0  0  0  0  0
   -3.4062    0.1011   -0.0274 C   0  0  0  0  0  0  0  0  0  0  0  0
   -4.9941    0.6321    0.3281 S   0  0  0  0  0  0  0  0  0  0  0  0
   -4.4427    1.8911    1.3556 C   0  0  0  0  0  0  0  0  0  0  0  0
   -5.2381    2.8151    2.0602 C   0  0  0  0  0  0  0  0  0  0  0  0
   -4.6191    3.7804    2.8625 C   0  0  0  0  0  0  0  0  0  0  0  0
   -3.2363    3.8299    2.9689 C   0  0  0  0  0  0  0  0  0  0  0  0
   -2.5179    4.7203    3.7192 O   0  0  0  0  0  0  0  0  0  0  0  0
   -3.2565    5.6848    4.4584 C   0  0  0  0  0  0  0  0  0  0  0  0
   -2.4576    2.9048    2.2631 C   0  0  0  0  0  0  0  0  0  0  0  0
   -3.0503    1.9156    1.4341 C   0  0  0  0  0  0  0  0  0  0  0  0
   -2.4551    0.8746    0.6225 C   0  0  0  0  0  0  0  0  0  0  0  0
   -1.0238    0.6255    0.4714 C   0  0  0  0  0  0  0  0  0  0  0  0
   -0.2107    1.5776   -0.1501 C   0  0  0  0  0  0  0  0  0  0  0  0
    1.1574    1.3382   -0.2987 C   0  0  0  0  0  0  0  0  0  0  0  0
    1.7291    0.1518    0.1684 C   0  0  0  0  0  0  0  0  0  0  0  0
    3.0751    0.0463   -0.0451 O   0  0  0  0  0  0  0  0  0  0  0  0
    3.7082   -1.1689    0.3656 C   0  0  0  0  0  0  0  0  0  0  0  0
    5.2059   -1.1098    0.0078 C   0  0  0  0  0  0  0  0  0  0  0  0
    5.5341   -1.6537   -1.3298 N   0  0  0  0  0  0  0  0  0  0  0  0
    6.9875   -1.6169   -1.5656 C   0  0  0  0  0  0  0  0  0  0  0  0
    7.2945   -0.2282   -2.1117 C   0  0  0  0  0  0  0  0  0  0  0  0
    5.9640    0.2989   -2.6317 C   0  0  0  0  0  0  0  0  0  0  0  0
    4.9883   -0.8500   -2.4348 C   0  0  0  0  0  0  0  0  0  0  0  0
    0.9197   -0.7958    0.7950 C   0  0  0  0  0  0  0  0  0  0  0  0
   -0.4513   -0.5588    0.9483 C   0  0  0  0  0  0  0  0  0  0  0  0
   -3.7251   -2.3055   -0.6144 C   0  0  0  0  0  0  0  0  0  0  0  0
   -4.9669   -5.9753   -0.0582 H   0  0  0  0  0  0  0  0  0  0  0  0
   -4.0586   -4.7318    0.8100 H   0  0  0  0  0  0  0  0  0  0  0  0
   -5.6101   -4.3289   -0.0251 H   0  0  0  0  0  0  0  0  0  0  0  0
   -2.7422   -4.0208   -3.3763 H   0  0  0  0  0  0  0  0  0  0  0  0
   -1.8766   -1.7812   -3.9842 H   0  0  0  0  0  0  0  0  0  0  0  0
   -2.1887    0.1282   -2.4483 H   0  0  0  0  0  0  0  0  0  0  0  0
   -6.3215    2.7807    1.9836 H   0  0  0  0  0  0  0  0  0  0  0  0
   -5.2585    4.4788    3.3927 H   0  0  0  0  0  0  0  0  0  0  0  0
   -2.5405    6.3132    4.9969 H   0  0  0  0  0  0  0  0  0  0  0  0
   -3.8347    6.3342    3.7928 H   0  0  0  0  0  0  0  0  0  0  0  0
   -3.9016    5.2036    5.2010 H   0  0  0  0  0  0  0  0  0  0  0  0
   -1.3745    2.9472    2.3574 H   0  0  0  0  0  0  0  0  0  0  0  0
   -0.6336    2.5059   -0.5268 H   0  0  0  0  0  0  0  0  0  0  0  0
    1.7835    2.0818   -0.7857 H   0  0  0  0  0  0  0  0  0  0  0  0
    3.6218   -1.2608    1.4554 H   0  0  0  0  0  0  0  0  0  0  0  0
    3.2388   -2.0390   -0.1098 H   0  0  0  0  0  0  0  0  0  0  0  0
    5.5790   -0.0857    0.1329 H   0  0  0  0  0  0  0  0  0  0  0  0
    5.7254   -1.7402    0.7412 H   0  0  0  0  0  0  0  0  0  0  0  0
    7.2349   -2.3703   -2.3243 H   0  0  0  0  0  0  0  0  0  0  0  0
    7.5831   -1.8593   -0.6785 H   0  0  0  0  0  0  0  0  0  0  0  0
    7.6743    0.4296   -1.3219 H   0  0  0  0  0  0  0  0  0  0  0  0
    8.0479   -0.2716   -2.9050 H   0  0  0  0  0  0  0  0  0  0  0  0
    6.0284    0.6001   -3.6821 H   0  0  0  0  0  0  0  0  0  0  0  0
    5.6560    1.1746   -2.0487 H   0  0  0  0  0  0  0  0  0  0  0  0
    3.9593   -0.5115   -2.2926 H   0  0  0  0  0  0  0  0  0  0  0  0
    4.9782   -1.4741   -3.3381 H   0  0  0  0  0  0  0  0  0  0  0  0
    1.3189   -1.7299    1.1753 H   0  0  0  0  0  0  0  0  0  0  0  0
   -1.0670   -1.3085    1.4399 H   0  0  0  0  0  0  0  0  0  0  0  0
   -4.2287   -2.4321    0.3384 H   0  0  0  0  0  0  0  0  0  0  0  0
  1  2  1  0
  2  3  1  0
  3  4  2  0
  4  5  1  0
  5  6  2  0
  6  7  1  0
  7  8  1  0
  8  9  1  0
  9 10  1  0
 10 11  2  0
 11 12  1  0
 12 13  2  0
 13 14  1  0
 14 15  1  0
 13 16  1  0
 16 17  2  0
 17 18  1  0
 18 19  1  0
 19 20  2  0
 20 21  1  0
 21 22  2  0
 22 23  1  0
 23 24  1  0
 24 25  1  0
 25 26  1  0
 26 27  1  0
 27 28  1  0
 28 29  1  0
 29 30  1  0
 22 31  1  0
 31 32  2  0
  7 33  2  0
 33  3  1  0
 18  8  2  0
 32 19  1  0
 17 10  1  0
 30 26  1  0
  1 34  1  0
  1 35  1  0
  1 36  1  0
  4 37  1  0
  5 38  1  0
  6 39  1  0
 11 40  1  0
 12 41  1  0
 15 42  1  0
 15 43  1  0
 15 44  1  0
 16 45  1  0
 20 46  1  0
 21 47  1  0
 24 48  1  0
 24 49  1  0
 25 50  1  0
 25 51  1  0
 27 52  1  0
 27 53  1  0
 28 54  1  0
 28 55  1  0
 29 56  1  0
 29 57  1  0
 30 58  1  0
 30 59  1  0
 31 60  1  0
 32 61  1  0
 33 62  1  0
M  END
$$$$
