
     RDKit          3D

 36 39  0  0  0  0  0  0  0  0999 V2000
    5.4307    1.8561   -0.0076 C   0  0  0  0  0  0  0  0  0  0  0  0
    4.5204    0.6692   -0.1053 C   0  0  0  0  0  0  0  0  0  0  0  0
    5.0341   -0.6101   -0.2851 C   0  0  0  0  0  0  0  0  0  0  0  0
    4.1421   -1.6568   -0.4073 C   0  0  0  0  0  0  0  0  0  0  0  0
    2.8007   -1.5109   -0.3637 N   0  0  0  0  0  0  0  0  0  0  0  0
    2.2811   -0.2687   -0.2067 C   0  0  0  0  0  0  0  0  0  0  0  0
    0.8491   -0.1421   -0.1611 N   0  0  0  0  0  0  0  0  0  0  0  0
    0.2655    0.8613    0.6184 C   0  0  0  0  0  0  0  0  0  0  0  0
    0.8656    1.6997    1.2895 O   0  0  0  0  0  0  0  0  0  0  0  0
   -1.2172    0.8946    0.6925 C   0  0  0  0  0  0  0  0  0  0  0  0
   -1.8321    1.8968    1.4572 C   0  0  0  0  0  0  0  0  0  0  0  0
   -3.2129    1.9252    1.5950 C   0  0  0  0  0  0  0  0  0  0  0  0
   -3.9880    0.9492    0.9732 C   0  0  0  0  0  0  0  0  0  0  0  0
   -3.4012   -0.0742    0.1868 C   0  0  0  0  0  0  0  0  0  0  0  0
   -4.1251   -1.1028   -0.4730 C   0  0  0  0  0  0  0  0  0  0  0  0
   -5.5753   -1.1608   -0.3937 N   0  0  0  0  0  4  0  0  0  0  0  0
   -6.0679   -2.1742    0.1182 O   0  0  0  0  0  0  0  0  0  0  0  0
   -6.2080   -0.2046   -0.8595 O   0  0  0  0  0  1  0  0  0  0  0  0
   -3.4996   -2.1026   -1.2240 C   0  0  0  0  0  0  0  0  0  0  0  0
   -2.1166   -2.0785   -1.3492 C   0  0  0  0  0  0  0  0  0  0  0  0
   -1.3630   -1.0729   -0.7193 C   0  0  0  0  0  0  0  0  0  0  0  0
   -1.9837   -0.0844    0.0529 C   0  0  0  0  0  0  0  0  0  0  0  0
    0.1059   -1.0529   -0.9230 C   0  0  0  0  0  0  0  0  0  0  0  0
    0.5333   -1.7803   -1.8184 O   0  0  0  0  0  0  0  0  0  0  0  0
    3.1284    0.8358   -0.0803 C   0  0  0  0  0  0  0  0  0  0  0  0
    5.0053    2.6194    0.6524 H   0  0  0  0  0  0  0  0  0  0  0  0
    6.4024    1.5715    0.4097 H   0  0  0  0  0  0  0  0  0  0  0  0
    5.5868    2.2910   -0.9995 H   0  0  0  0  0  0  0  0  0  0  0  0
    6.1019   -0.7938   -0.3341 H   0  0  0  0  0  0  0  0  0  0  0  0
    4.4893   -2.6760   -0.5510 H   0  0  0  0  0  0  0  0  0  0  0  0
   -1.2341    2.6561    1.9601 H   0  0  0  0  0  0  0  0  0  0  0  0
   -3.6867    2.7018    2.1918 H   0  0  0  0  0  0  0  0  0  0  0  0
   -5.0675    1.0059    1.1138 H   0  0  0  0  0  0  0  0  0  0  0  0
   -4.0754   -2.8849   -1.7150 H   0  0  0  0  0  0  0  0  0  0  0  0
   -1.6210   -2.8445   -1.9464 H   0  0  0  0  0  0  0  0  0  0  0  0
    2.7327    1.8426    0.0060 H   0  0  0  0  0  0  0  0  0  0  0  0
  1  2  1  0
  2  3  2  0
  3  4  1  0
  4  5  2  0
  5  6  1  0
  6  7  1  0
  7  8  1  0
  8  9  2  0
  8 10  1  0
 10 11  2  0
 11 12  1  0
 12 13  2  0
 13 14  1  0
 14 15  2  0
 15 16  1  0
 16 17  2  0
 16 18  1  0
 15 19  1  0
 19 20  2  0
 20 21  1  0
 21 22  2  0
 21 23  1  0
 23 24  2  0
  6 25  2  0
 25  2  1  0
 23  7  1  0
 22 10  1  0
 22 14  1  0
  1 26  1  0
  1 27  1  0
  1 28  1  0
  3 29  1  0
  4 30  1  0
 11 31  1  0
 12 32  1  0
 13 33  1  0
 19 34  1  0
 20 35  1  0
 25 36  1  0
M  CHG  2  16   1  18  -1
M  END
$$$$
