
     RDKit          3D

 52 55  0  0  0  0  0  0  0  0999 V2000
   -6.6379   -2.4390   -3.2257 C   0  0  0  0  0  0  0  0  0  0  0  0
   -6.5541   -1.6445   -2.0492 O   0  0  0  0  0  0  0  0  0  0  0  0
   -5.4521   -1.8237   -1.2596 C   0  0  0  0  0  0  0  0  0  0  0  0
   -4.3973   -2.7020   -1.5081 C   0  0  0  0  0  0  0  0  0  0  0  0
   -3.3240   -2.7842   -0.6128 C   0  0  0  0  0  0  0  0  0  0  0  0
   -3.2936   -1.9854    0.5351 C   0  0  0  0  0  0  0  0  0  0  0  0
   -2.1806   -2.0629    1.4852 C   0  0  0  0  0  0  0  0  0  0  0  0
   -0.9263   -1.6433    1.2614 C   0  0  0  0  0  0  0  0  0  0  0  0
   -0.3090   -0.9301   -0.1720 S   0  0  0  0  0  0  0  0  0  0  0  0
    1.2071   -0.5202    0.6133 C   0  0  0  0  0  0  0  0  0  0  0  0
    2.0457    0.3948    0.0772 C   0  0  0  0  0  0  0  0  0  0  0  0
    3.1661    0.9780    0.7247 C   0  0  0  0  0  0  0  0  0  0  0  0
    4.0622    1.5032    1.2432 N   0  0  0  0  0  0  0  0  0  0  0  0
    1.7811    0.9382   -1.2787 C   0  0  0  0  0  0  0  0  0  0  0  0
    2.2699    0.4090   -2.2698 O   0  0  0  0  0  0  0  0  0  0  0  0
    0.9871    2.0582   -1.2982 N   0  0  0  0  0  0  0  0  0  0  0  0
    0.7640    2.8038   -2.5170 C   0  0  0  0  0  0  0  0  0  0  0  0
    1.6752    3.9720   -2.5091 C   0  0  0  0  0  0  0  0  0  0  0  0
    2.8932    4.2281   -3.1039 C   0  0  0  0  0  0  0  0  0  0  0  0
    3.2719    5.5283   -2.6925 C   0  0  0  0  0  0  0  0  0  0  0  0
    2.2650    5.9801   -1.8722 C   0  0  0  0  0  0  0  0  0  0  0  0
    1.2912    5.0412   -1.7515 O   0  0  0  0  0  0  0  0  0  0  0  0
    1.3086   -1.1575    1.8569 N   0  0  0  0  0  0  0  0  0  0  0  0
    2.5112   -1.3880    2.5993 C   0  0  0  0  0  0  0  0  0  0  0  0
    3.6895   -1.7813    1.9446 C   0  0  0  0  0  0  0  0  0  0  0  0
    4.8600   -2.0269    2.6679 C   0  0  0  0  0  0  0  0  0  0  0  0
    4.8644   -1.8965    4.0540 C   0  0  0  0  0  0  0  0  0  0  0  0
    3.6972   -1.5310    4.7191 C   0  0  0  0  0  0  0  0  0  0  0  0
    2.5262   -1.2854    3.9971 C   0  0  0  0  0  0  0  0  0  0  0  0
    0.1222   -1.7683    2.3087 C   0  0  0  0  0  0  0  0  0  0  0  0
   -0.0764   -2.3569    3.3642 O   0  0  0  0  0  0  0  0  0  0  0  0
   -4.3550   -1.1132    0.7876 C   0  0  0  0  0  0  0  0  0  0  0  0
   -5.4244   -1.0332   -0.1082 C   0  0  0  0  0  0  0  0  0  0  0  0
   -7.5690   -2.1796   -3.7386 H   0  0  0  0  0  0  0  0  0  0  0  0
   -6.6795   -3.5051   -2.9794 H   0  0  0  0  0  0  0  0  0  0  0  0
   -5.8101   -2.2221   -3.9087 H   0  0  0  0  0  0  0  0  0  0  0  0
   -4.3762   -3.3377   -2.3869 H   0  0  0  0  0  0  0  0  0  0  0  0
   -2.5139   -3.4793   -0.8224 H   0  0  0  0  0  0  0  0  0  0  0  0
   -2.4445   -2.4879    2.4530 H   0  0  0  0  0  0  0  0  0  0  0  0
    0.7208    2.5200   -0.4380 H   0  0  0  0  0  0  0  0  0  0  0  0
   -0.2809    3.1288   -2.5192 H   0  0  0  0  0  0  0  0  0  0  0  0
    0.9354    2.1749   -3.3960 H   0  0  0  0  0  0  0  0  0  0  0  0
    3.4410    3.5521   -3.7471 H   0  0  0  0  0  0  0  0  0  0  0  0
    4.1705    6.0682   -2.9561 H   0  0  0  0  0  0  0  0  0  0  0  0
    2.1015    6.8970   -1.3234 H   0  0  0  0  0  0  0  0  0  0  0  0
    3.7128   -1.9364    0.8688 H   0  0  0  0  0  0  0  0  0  0  0  0
    5.7671   -2.3259    2.1484 H   0  0  0  0  0  0  0  0  0  0  0  0
    5.7751   -2.0865    4.6163 H   0  0  0  0  0  0  0  0  0  0  0  0
    3.6945   -1.4379    5.8021 H   0  0  0  0  0  0  0  0  0  0  0  0
    1.6330   -0.9963    4.5462 H   0  0  0  0  0  0  0  0  0  0  0  0
   -4.3606   -0.4871    1.6765 H   0  0  0  0  0  0  0  0  0  0  0  0
   -6.2451   -0.3488    0.0933 H   0  0  0  0  0  0  0  0  0  0  0  0
  1  2  1  0
  2  3  1  0
  3  4  2  0
  4  5  1  0
  5  6  2  0
  6  7  1  0
  7  8  2  3
  8  9  1  0
  9 10  1  0
 10 11  2  3
 11 12  1  0
 12 13  3  0
 11 14  1  0
 14 15  2  0
 14 16  1  0
 16 17  1  0
 17 18  1  0
 18 19  2  0
 19 20  1  0
 20 21  2  0
 21 22  1  0
 10 23  1  0
 23 24  1  0
 24 25  2  0
 25 26  1  0
 26 27  2  0
 27 28  1  0
 28 29  2  0
 23 30  1  0
 30 31  2  0
  6 32  1  0
 32 33  2  0
 33  3  1  0
 30  8  1  0
 22 18  1  0
 29 24  1  0
  1 34  1  0
  1 35  1  0
  1 36  1  0
  4 37  1  0
  5 38  1  0
  7 39  1  0
 16 40  1  0
 17 41  1  0
 17 42  1  0
 19 43  1  0
 20 44  1  0
 21 45  1  0
 25 46  1  0
 26 47  1  0
 27 48  1  0
 28 49  1  0
 29 50  1  0
 32 51  1  0
 33 52  1  0
M  END
$$$$
