
     RDKit          3D

 52 55  0  0  0  0  0  0  0  0999 V2000
   -2.7111    0.8045    3.1923 C   0  0  0  0  0  0  0  0  0  0  0  0
   -3.1586    1.2134    1.8147 C   0  0  0  0  0  0  0  0  0  0  0  0
   -2.9162    2.5383    1.4080 C   0  0  0  0  0  0  0  0  0  0  0  0
   -3.3208    2.9931    0.1507 C   0  0  0  0  0  0  0  0  0  0  0  0
   -3.9809    2.1197   -0.7180 C   0  0  0  0  0  0  0  0  0  0  0  0
   -4.4181    2.6010   -2.0346 N   0  0  0  0  0  4  0  0  0  0  0  0
   -4.1285    3.7636   -2.3463 O   0  0  0  0  0  0  0  0  0  0  0  0
   -5.0531    1.8155   -2.7525 O   0  0  0  0  0  1  0  0  0  0  0  0
   -4.2243    0.7933   -0.3459 C   0  0  0  0  0  0  0  0  0  0  0  0
   -3.8001    0.3374    0.9127 C   0  0  0  0  0  0  0  0  0  0  0  0
   -4.0904   -1.3849    1.3111 S   0  0  0  0  0  6  0  0  0  0  0  0
   -5.4869   -1.4798    1.6759 O   0  0  0  0  0  0  0  0  0  0  0  0
   -3.0422   -1.8560    2.1887 O   0  0  0  0  0  0  0  0  0  0  0  0
   -3.9331   -2.1730   -0.1582 N   0  0  0  0  0  0  0  0  0  0  0  0
   -2.6985   -2.4456   -0.8169 C   0  0  0  0  0  0  0  0  0  0  0  0
   -2.7528   -3.2873   -1.9280 C   0  0  0  0  0  0  0  0  0  0  0  0
   -1.6024   -3.5554   -2.6670 C   0  0  0  0  0  0  0  0  0  0  0  0
   -0.3880   -2.9749   -2.3001 C   0  0  0  0  0  0  0  0  0  0  0  0
   -0.2920   -2.1113   -1.1918 C   0  0  0  0  0  0  0  0  0  0  0  0
    1.0010   -1.4967   -0.8230 C   0  0  0  0  0  0  0  0  0  0  0  0
    1.3124   -1.0186    0.4401 C   0  0  0  0  0  0  0  0  0  0  0  0
    2.5615   -0.4330    0.6698 C   0  0  0  0  0  0  0  0  0  0  0  0
    3.4915   -0.3267   -0.3536 C   0  0  0  0  0  0  0  0  0  0  0  0
    4.7342    0.2400   -0.1519 N   0  0  0  0  0  0  0  0  0  0  0  0
    4.9438    1.3304    0.7967 C   0  0  0  0  0  0  0  0  0  0  0  0
    6.0367    2.1862    0.1555 C   0  0  0  0  0  0  0  0  0  0  0  0
    6.7733    1.2102   -0.7477 C   0  0  0  0  0  0  0  0  0  0  0  0
    5.6375    0.3502   -1.2937 C   0  0  0  0  0  0  0  0  0  0  0  0
    3.1657   -0.8332   -1.5594 N   0  0  0  0  0  0  0  0  0  0  0  0
    1.9243   -1.4068   -1.8007 N   0  0  0  0  0  0  0  0  0  0  0  0
   -1.4782   -1.8508   -0.4738 C   0  0  0  0  0  0  0  0  0  0  0  0
   -3.5069    0.2677    3.7187 H   0  0  0  0  0  0  0  0  0  0  0  0
   -1.8115    0.1847    3.1317 H   0  0  0  0  0  0  0  0  0  0  0  0
   -2.4649    1.6788    3.8054 H   0  0  0  0  0  0  0  0  0  0  0  0
   -2.4134    3.2355    2.0760 H   0  0  0  0  0  0  0  0  0  0  0  0
   -3.1218    4.0267   -0.1280 H   0  0  0  0  0  0  0  0  0  0  0  0
   -4.7356    0.1184   -1.0289 H   0  0  0  0  0  0  0  0  0  0  0  0
   -4.7618   -2.7065   -0.4196 H   0  0  0  0  0  0  0  0  0  0  0  0
   -3.6891   -3.7442   -2.2359 H   0  0  0  0  0  0  0  0  0  0  0  0
   -1.6477   -4.2132   -3.5314 H   0  0  0  0  0  0  0  0  0  0  0  0
    0.4976   -3.2024   -2.8950 H   0  0  0  0  0  0  0  0  0  0  0  0
    0.6165   -1.1037    1.2673 H   0  0  0  0  0  0  0  0  0  0  0  0
    2.7980   -0.0797    1.6662 H   0  0  0  0  0  0  0  0  0  0  0  0
    5.2853    0.9214    1.7545 H   0  0  0  0  0  0  0  0  0  0  0  0
    4.0487    1.9396    0.9682 H   0  0  0  0  0  0  0  0  0  0  0  0
    6.6876    2.6593    0.8947 H   0  0  0  0  0  0  0  0  0  0  0  0
    5.5808    2.9766   -0.4512 H   0  0  0  0  0  0  0  0  0  0  0  0
    7.3403    1.7088   -1.5388 H   0  0  0  0  0  0  0  0  0  0  0  0
    7.4649    0.5989   -0.1554 H   0  0  0  0  0  0  0  0  0  0  0  0
    5.1551    0.8626   -2.1353 H   0  0  0  0  0  0  0  0  0  0  0  0
    6.0033   -0.6268   -1.6237 H   0  0  0  0  0  0  0  0  0  0  0  0
   -1.4311   -1.1652    0.3631 H   0  0  0  0  0  0  0  0  0  0  0  0
  1  2  1  0
  2  3  2  0
  3  4  1  0
  4  5  2  0
  5  6  1  0
  6  7  2  0
  6  8  1  0
  5  9  1  0
  9 10  2  0
 10 11  1  0
 11 12  2  0
 11 13  2  0
 11 14  1  0
 14 15  1  0
 15 16  2  0
 16 17  1  0
 17 18  2  0
 18 19  1  0
 19 20  1  0
 20 21  2  0
 21 22  1  0
 22 23  2  0
 23 24  1  0
 24 25  1  0
 25 26  1  0
 26 27  1  0
 27 28  1  0
 23 29  1  0
 29 30  2  0
 19 31  2  0
 10  2  1  0
 31 15  1  0
 30 20  1  0
 28 24  1  0
  1 32  1  0
  1 33  1  0
  1 34  1  0
  3 35  1  0
  4 36  1  0
  9 37  1  0
 14 38  1  0
 16 39  1  0
 17 40  1  0
 18 41  1  0
 21 42  1  0
 22 43  1  0
 25 44  1  0
 25 45  1  0
 26 46  1  0
 26 47  1  0
 27 48  1  0
 27 49  1  0
 28 50  1  0
 28 51  1  0
 31 52  1  0
M  CHG  2   6   1   8  -1
M  END
$$$$
