
     RDKit          3D

 47 50  0  0  0  0  0  0  0  0999 V2000
   -1.2470    1.1883    0.5426 O   0  0  0  0  0  0  0  0  0  0  0  0
   -1.8280    0.2243    0.0832 C   0  0  0  0  0  0  0  0  0  0  0  0
   -3.1553    0.2826   -0.5234 C   0  0  0  0  0  0  0  0  0  0  0  0
   -3.9603    1.3640   -0.8218 C   0  0  0  0  0  0  0  0  0  0  0  0
   -5.2100    1.0911   -1.3877 C   0  0  0  0  0  0  0  0  0  0  0  0
   -5.6207   -0.2366   -1.6304 C   0  0  0  0  0  0  0  0  0  0  0  0
   -4.7889   -1.3147   -1.3107 C   0  0  0  0  0  0  0  0  0  0  0  0
   -3.5574   -1.0182   -0.7606 C   0  0  0  0  0  0  0  0  0  0  0  0
   -2.4834   -1.8973   -0.3042 C   0  0  0  0  0  0  0  0  0  0  0  0
   -2.5772   -3.1084   -0.2496 O   0  0  0  0  0  0  0  0  0  0  0  0
   -1.4523   -1.0888    0.0862 N   0  0  0  0  0  0  0  0  0  0  0  0
   -0.2247   -1.5709    0.6791 C   0  0  0  0  0  0  0  0  0  0  0  0
    0.9650   -1.4031   -0.1705 N   0  0  0  0  0  0  0  0  0  0  0  0
    2.0565   -0.6069    0.2408 C   0  0  0  0  0  0  0  0  0  0  0  0
    3.2172   -0.8418   -0.1124 O   0  0  0  0  0  0  0  0  0  0  0  0
    1.7514    0.6199    1.1177 C   0  0  0  0  0  0  0  0  0  0  0  0
    2.9503    1.3059    1.4712 O   0  0  0  0  0  0  0  0  0  0  0  0
    2.8128    2.4409    2.2222 C   0  0  0  0  0  0  0  0  0  0  0  0
    1.6080    3.0469    2.5850 C   0  0  0  0  0  0  0  0  0  0  0  0
    1.6144    4.2106    3.3610 C   0  0  0  0  0  0  0  0  0  0  0  0
    2.8211    4.7733    3.7745 C   0  0  0  0  0  0  0  0  0  0  0  0
    4.0253    4.1751    3.4105 C   0  0  0  0  0  0  0  0  0  0  0  0
    4.0184    3.0140    2.6360 C   0  0  0  0  0  0  0  0  0  0  0  0
    1.0901   -2.2161   -1.3609 C   0  0  0  0  0  0  0  0  0  0  0  0
    0.3710   -3.4090   -1.5393 C   0  0  0  0  0  0  0  0  0  0  0  0
    0.4807   -4.1568   -2.7190 C   0  0  0  0  0  0  0  0  0  0  0  0
    1.3106   -3.7185   -3.7380 C   0  0  0  0  0  0  0  0  0  0  0  0
    1.4124   -4.4337   -4.8655 F   0  0  0  0  0  0  0  0  0  0  0  0
    2.0321   -2.5448   -3.6002 C   0  0  0  0  0  0  0  0  0  0  0  0
    1.9193   -1.8002   -2.4208 C   0  0  0  0  0  0  0  0  0  0  0  0
   -3.6356    2.3805   -0.6248 H   0  0  0  0  0  0  0  0  0  0  0  0
   -5.8777    1.9127   -1.6432 H   0  0  0  0  0  0  0  0  0  0  0  0
   -6.5998   -0.4221   -2.0702 H   0  0  0  0  0  0  0  0  0  0  0  0
   -5.0957   -2.3408   -1.4857 H   0  0  0  0  0  0  0  0  0  0  0  0
   -0.3209   -2.6260    0.9565 H   0  0  0  0  0  0  0  0  0  0  0  0
   -0.0991   -1.0486    1.6283 H   0  0  0  0  0  0  0  0  0  0  0  0
    1.2569    0.3079    2.0394 H   0  0  0  0  0  0  0  0  0  0  0  0
    1.1308    1.2833    0.5103 H   0  0  0  0  0  0  0  0  0  0  0  0
    0.6465    2.6483    2.2762 H   0  0  0  0  0  0  0  0  0  0  0  0
    0.6739    4.6799    3.6395 H   0  0  0  0  0  0  0  0  0  0  0  0
    2.8225    5.6785    4.3759 H   0  0  0  0  0  0  0  0  0  0  0  0
    4.9697    4.6100    3.7264 H   0  0  0  0  0  0  0  0  0  0  0  0
    4.9597    2.5491    2.3514 H   0  0  0  0  0  0  0  0  0  0  0  0
   -0.2673   -3.8233   -0.7665 H   0  0  0  0  0  0  0  0  0  0  0  0
   -0.0755   -5.0813   -2.8386 H   0  0  0  0  0  0  0  0  0  0  0  0
    2.6770   -2.2084   -4.4058 H   0  0  0  0  0  0  0  0  0  0  0  0
    2.4830   -0.8708   -2.3641 H   0  0  0  0  0  0  0  0  0  0  0  0
  1  2  2  0
  2  3  1  0
  3  4  2  0
  4  5  1  0
  5  6  2  0
  6  7  1  0
  7  8  2  0
  8  9  1  0
  9 10  2  0
  9 11  1  0
 11 12  1  0
 12 13  1  0
 13 14  1  0
 14 15  2  0
 14 16  1  0
 16 17  1  0
 17 18  1  0
 18 19  2  0
 19 20  1  0
 20 21  2  0
 21 22  1  0
 22 23  2  0
 13 24  1  0
 24 25  2  0
 25 26  1  0
 26 27  2  0
 27 28  1  0
 27 29  1  0
 29 30  2  0
 11  2  1  0
 23 18  1  0
 30 24  1  0
  8  3  1  0
  4 31  1  0
  5 32  1  0
  6 33  1  0
  7 34  1  0
 12 35  1  0
 12 36  1  0
 16 37  1  0
 16 38  1  0
 19 39  1  0
 20 40  1  0
 21 41  1  0
 22 42  1  0
 23 43  1  0
 25 44  1  0
 26 45  1  0
 29 46  1  0
 30 47  1  0
M  END
$$$$
