
     RDKit          3D

 57 58  0  0  0  0  0  0  0  0999 V2000
    5.0614   -3.7448    1.1104 C   0  0  0  0  0  0  0  0  0  0  0  0
    6.2505   -2.8523    0.7935 C   0  0  0  0  0  0  0  0  0  0  0  0
    6.3860   -1.6508    1.7334 C   0  0  0  0  0  0  0  0  0  0  0  0
    5.1901   -0.6982    1.7274 C   0  0  0  0  0  0  0  0  0  0  0  0
    4.9701   -0.2429    0.3943 O   0  0  0  0  0  0  0  0  0  0  0  0
    3.8823    0.5559    0.1783 C   0  0  0  0  0  0  0  0  0  0  0  0
    3.6200    0.8349   -1.1628 C   0  0  0  0  0  0  0  0  0  0  0  0
    2.5330    1.6335   -1.5309 C   0  0  0  0  0  0  0  0  0  0  0  0
    1.6935    2.1891   -0.5562 C   0  0  0  0  0  0  0  0  0  0  0  0
    0.4714    3.0300   -0.9017 C   0  0  0  0  0  0  0  0  0  0  0  0
    0.6622    3.8839   -2.1622 C   0  0  0  0  0  0  0  0  0  0  0  0
   -0.6870    2.1473   -1.0017 N   0  0  0  0  0  0  0  0  0  0  0  0
   -1.9651    2.6477   -1.0901 C   0  0  0  0  0  0  0  0  0  0  0  0
   -2.2407    3.8400   -1.1550 O   0  0  0  0  0  0  0  0  0  0  0  0
   -3.0516    1.5943   -1.0874 C   0  0  0  0  0  0  0  0  0  0  0  0
   -3.5940    1.3819    0.3127 C   0  0  0  0  0  0  0  0  0  0  0  0
   -2.7133    0.1127    1.2126 S   0  0  0  0  0  6  0  0  0  0  0  0
   -3.2540    0.0789    2.5579 O   0  0  0  0  0  0  0  0  0  0  0  0
   -1.2922    0.3593    1.0203 O   0  0  0  0  0  0  0  0  0  0  0  0
   -3.0851   -1.4533    0.4167 C   0  0  0  0  0  0  0  0  0  0  0  0
   -4.5539   -1.5995    0.1188 C   0  0  0  0  0  0  0  0  0  0  0  0
   -5.0021   -1.6208   -1.2142 C   0  0  0  0  0  0  0  0  0  0  0  0
   -6.3610   -1.7608   -1.5067 C   0  0  0  0  0  0  0  0  0  0  0  0
   -7.2876   -1.8897   -0.4720 C   0  0  0  0  0  0  0  0  0  0  0  0
   -6.8525   -1.8852    0.8529 C   0  0  0  0  0  0  0  0  0  0  0  0
   -7.9963   -2.0501    2.1284 Cl  0  0  0  0  0  0  0  0  0  0  0  0
   -5.4953   -1.7478    1.1515 C   0  0  0  0  0  0  0  0  0  0  0  0
    1.9628    1.8965    0.7913 C   0  0  0  0  0  0  0  0  0  0  0  0
    3.0483    1.0905    1.1569 C   0  0  0  0  0  0  0  0  0  0  0  0
    4.1125   -3.2287    0.9273 H   0  0  0  0  0  0  0  0  0  0  0  0
    5.0854   -4.6356    0.4741 H   0  0  0  0  0  0  0  0  0  0  0  0
    5.0811   -4.0745    2.1537 H   0  0  0  0  0  0  0  0  0  0  0  0
    6.1842   -2.5095   -0.2476 H   0  0  0  0  0  0  0  0  0  0  0  0
    7.1690   -3.4509    0.8659 H   0  0  0  0  0  0  0  0  0  0  0  0
    6.5620   -2.0023    2.7571 H   0  0  0  0  0  0  0  0  0  0  0  0
    7.2791   -1.0911    1.4248 H   0  0  0  0  0  0  0  0  0  0  0  0
    4.3027   -1.2149    2.1108 H   0  0  0  0  0  0  0  0  0  0  0  0
    5.4201    0.1549    2.3790 H   0  0  0  0  0  0  0  0  0  0  0  0
    4.2643    0.4185   -1.9320 H   0  0  0  0  0  0  0  0  0  0  0  0
    2.3551    1.8039   -2.5893 H   0  0  0  0  0  0  0  0  0  0  0  0
    0.2822    3.7212   -0.0695 H   0  0  0  0  0  0  0  0  0  0  0  0
   -0.1494    4.6085   -2.2797 H   0  0  0  0  0  0  0  0  0  0  0  0
    0.6722    3.2721   -3.0712 H   0  0  0  0  0  0  0  0  0  0  0  0
    1.5987    4.4514   -2.1165 H   0  0  0  0  0  0  0  0  0  0  0  0
   -0.5983    1.2907   -0.4546 H   0  0  0  0  0  0  0  0  0  0  0  0
   -2.6810    0.6714   -1.5492 H   0  0  0  0  0  0  0  0  0  0  0  0
   -3.8531    1.9719   -1.7385 H   0  0  0  0  0  0  0  0  0  0  0  0
   -3.5132    2.2931    0.9162 H   0  0  0  0  0  0  0  0  0  0  0  0
   -4.6491    1.1012    0.2907 H   0  0  0  0  0  0  0  0  0  0  0  0
   -2.4850   -1.5005   -0.5018 H   0  0  0  0  0  0  0  0  0  0  0  0
   -2.7430   -2.2541    1.0835 H   0  0  0  0  0  0  0  0  0  0  0  0
   -4.2991   -1.5374   -2.0425 H   0  0  0  0  0  0  0  0  0  0  0  0
   -6.6973   -1.7769   -2.5434 H   0  0  0  0  0  0  0  0  0  0  0  0
   -8.3446   -1.9994   -0.7040 H   0  0  0  0  0  0  0  0  0  0  0  0
   -5.1788   -1.7519    2.1950 H   0  0  0  0  0  0  0  0  0  0  0  0
    1.3138    2.2867    1.5737 H   0  0  0  0  0  0  0  0  0  0  0  0
    3.2095    0.9022    2.2128 H   0  0  0  0  0  0  0  0  0  0  0  0
  1  2  1  0
  2  3  1  0
  3  4  1  0
  4  5  1  0
  5  6  1  0
  6  7  2  0
  7  8  1  0
  8  9  2  0
  9 10  1  0
 10 11  1  0
 10 12  1  0
 12 13  1  0
 13 14  2  0
 13 15  1  0
 15 16  1  0
 16 17  1  0
 17 18  2  0
 17 19  2  0
 17 20  1  0
 20 21  1  0
 21 22  2  0
 22 23  1  0
 23 24  2  0
 24 25  1  0
 25 26  1  0
 25 27  2  0
  9 28  1  0
 28 29  2  0
 29  6  1  0
 27 21  1  0
  1 30  1  0
  1 31  1  0
  1 32  1  0
  2 33  1  0
  2 34  1  0
  3 35  1  0
  3 36  1  0
  4 37  1  0
  4 38  1  0
  7 39  1  0
  8 40  1  0
 10 41  1  0
 11 42  1  0
 11 43  1  0
 11 44  1  0
 12 45  1  0
 15 46  1  0
 15 47  1  0
 16 48  1  0
 16 49  1  0
 20 50  1  0
 20 51  1  0
 22 52  1  0
 23 53  1  0
 24 54  1  0
 27 55  1  0
 28 56  1  0
 29 57  1  0
M  END
$$$$
