
     RDKit          3D

 45 46  0  0  0  0  0  0  0  0999 V2000
    3.1748   -4.5337    1.8466 C   0  0  0  0  0  0  0  0  0  0  0  0
    3.1948   -3.1688    1.2253 C   0  0  0  0  0  0  0  0  0  0  0  0
    4.3990   -2.4730    1.0864 C   0  0  0  0  0  0  0  0  0  0  0  0
    4.4073   -1.1867    0.5498 C   0  0  0  0  0  0  0  0  0  0  0  0
    3.2135   -0.5842    0.1456 C   0  0  0  0  0  0  0  0  0  0  0  0
    2.0032   -1.2674    0.2619 C   0  0  0  0  0  0  0  0  0  0  0  0
    0.7544   -0.7052   -0.0787 N   0  0  0  0  0  0  0  0  0  0  0  0
    0.4335    0.3197   -0.9594 C   0  0  0  0  0  0  0  0  0  0  0  0
    1.3325    0.6957   -2.3340 S   0  0  0  0  0  0  0  0  0  0  0  0
   -0.7726    0.9728   -0.6035 N   0  0  0  0  0  0  0  0  0  0  0  0
   -1.5037    1.8456   -1.5510 C   0  0  0  0  0  0  0  0  0  0  0  0
   -3.0475    1.6941   -1.5419 C   0  0  0  0  0  0  0  0  0  0  0  0
   -3.5482    0.3051   -1.4837 N   0  0  0  0  0  0  0  0  0  0  0  0
   -5.0056    0.3017   -1.3366 C   0  0  0  0  0  0  0  0  0  0  0  0
   -3.1684   -0.4552   -2.6773 C   0  0  0  0  0  0  0  0  0  0  0  0
   -1.1985    1.0357    0.8074 C   0  0  0  0  0  0  0  0  0  0  0  0
   -0.2242    1.8234    1.6424 C   0  0  0  0  0  0  0  0  0  0  0  0
    0.5214    2.9415    1.3161 C   0  0  0  0  0  0  0  0  0  0  0  0
    1.3347    3.3921    2.3956 C   0  0  0  0  0  0  0  0  0  0  0  0
    1.1788    2.6117    3.5177 C   0  0  0  0  0  0  0  0  0  0  0  0
    0.0571    1.3475    3.2692 S   0  0  0  0  0  0  0  0  0  0  0  0
    1.9999   -2.5486    0.8303 C   0  0  0  0  0  0  0  0  0  0  0  0
    4.0905   -5.0845    1.6071 H   0  0  0  0  0  0  0  0  0  0  0  0
    2.3332   -5.1240    1.4690 H   0  0  0  0  0  0  0  0  0  0  0  0
    3.0865   -4.4484    2.9340 H   0  0  0  0  0  0  0  0  0  0  0  0
    5.3364   -2.9239    1.4035 H   0  0  0  0  0  0  0  0  0  0  0  0
    5.3434   -0.6424    0.4563 H   0  0  0  0  0  0  0  0  0  0  0  0
    3.2536    0.4366   -0.2199 H   0  0  0  0  0  0  0  0  0  0  0  0
   -0.0504   -1.2418    0.2150 H   0  0  0  0  0  0  0  0  0  0  0  0
   -1.1705    1.6578   -2.5748 H   0  0  0  0  0  0  0  0  0  0  0  0
   -1.2397    2.8829   -1.3155 H   0  0  0  0  0  0  0  0  0  0  0  0
   -3.4303    2.2409   -0.6711 H   0  0  0  0  0  0  0  0  0  0  0  0
   -3.4526    2.2158   -2.4197 H   0  0  0  0  0  0  0  0  0  0  0  0
   -5.3816   -0.7239   -1.2493 H   0  0  0  0  0  0  0  0  0  0  0  0
   -5.3011    0.8205   -0.4178 H   0  0  0  0  0  0  0  0  0  0  0  0
   -5.5085    0.7835   -2.1830 H   0  0  0  0  0  0  0  0  0  0  0  0
   -3.5633   -1.4761   -2.6220 H   0  0  0  0  0  0  0  0  0  0  0  0
   -3.5432    0.0077   -3.5973 H   0  0  0  0  0  0  0  0  0  0  0  0
   -2.0820   -0.5557   -2.7574 H   0  0  0  0  0  0  0  0  0  0  0  0
   -1.3152    0.0153    1.1871 H   0  0  0  0  0  0  0  0  0  0  0  0
   -2.1803    1.5079    0.8935 H   0  0  0  0  0  0  0  0  0  0  0  0
    0.5015    3.4082    0.3391 H   0  0  0  0  0  0  0  0  0  0  0  0
    2.0037    4.2422    2.3480 H   0  0  0  0  0  0  0  0  0  0  0  0
    1.6714    2.7211    4.4739 H   0  0  0  0  0  0  0  0  0  0  0  0
    1.0621   -3.0836    0.9577 H   0  0  0  0  0  0  0  0  0  0  0  0
  1  2  1  0
  2  3  2  0
  3  4  1  0
  4  5  2  0
  5  6  1  0
  6  7  1  0
  7  8  1  0
  8  9  2  0
  8 10  1  0
 10 11  1  0
 11 12  1  0
 12 13  1  0
 13 14  1  0
 13 15  1  0
 10 16  1  0
 16 17  1  0
 17 18  2  0
 18 19  1  0
 19 20  2  0
 20 21  1  0
  6 22  2  0
 22  2  1  0
 21 17  1  0
  1 23  1  0
  1 24  1  0
  1 25  1  0
  3 26  1  0
  4 27  1  0
  5 28  1  0
  7 29  1  0
 11 30  1  0
 11 31  1  0
 12 32  1  0
 12 33  1  0
 14 34  1  0
 14 35  1  0
 14 36  1  0
 15 37  1  0
 15 38  1  0
 15 39  1  0
 16 40  1  0
 16 41  1  0
 18 42  1  0
 19 43  1  0
 20 44  1  0
 22 45  1  0
M  END
$$$$
