
     RDKit          3D

 55 57  0  0  0  0  0  0  0  0999 V2000
    1.3211    4.9332    2.4758 C   0  0  0  0  0  0  0  0  0  0  0  0
    1.1475    3.4299    2.7152 C   0  0  0  0  0  0  0  0  0  0  0  0
    0.8176    3.1837    4.1890 C   0  0  0  0  0  0  0  0  0  0  0  0
    0.0630    2.8783    1.7649 C   0  0  0  0  0  0  0  0  0  0  0  0
   -0.1192    1.3491    1.8093 C   0  0  0  0  0  0  0  0  0  0  0  0
    1.0806    0.5223    1.3553 C   0  0  0  0  0  0  0  0  0  0  0  0
    1.2792   -0.6417    1.6951 O   0  0  0  0  0  0  0  0  0  0  0  0
    1.8987    1.1930    0.4944 O   0  0  0  0  0  0  0  0  0  0  0  0
    2.8741    0.3669   -0.1365 C   0  0  0  0  0  0  0  0  0  0  0  0
    2.2828   -0.6302   -1.1553 C   0  0  0  0  0  0  0  0  0  0  0  0
    1.3594   -0.3094   -1.9037 O   0  0  0  0  0  0  0  0  0  0  0  0
    2.9160   -1.8651   -1.1255 N   0  0  0  0  0  0  0  0  0  0  0  0
    2.6544   -2.9895   -1.9388 C   0  0  0  0  0  0  0  0  0  0  0  0
    1.6832   -3.0210   -2.9442 C   0  0  0  0  0  0  0  0  0  0  0  0
    1.4926   -4.1745   -3.7147 C   0  0  0  0  0  0  0  0  0  0  0  0
    2.2671   -5.3101   -3.4833 C   0  0  0  0  0  0  0  0  0  0  0  0
    3.2338   -5.2845   -2.4821 C   0  0  0  0  0  0  0  0  0  0  0  0
    4.2055   -6.6789   -2.1958 Cl  0  0  0  0  0  0  0  0  0  0  0  0
    3.4306   -4.1358   -1.7120 C   0  0  0  0  0  0  0  0  0  0  0  0
   -1.3088    0.9268    1.0622 N   0  0  0  0  0  0  0  0  0  0  0  0
   -2.4571    0.4064    1.6215 C   0  0  0  0  0  0  0  0  0  0  0  0
   -2.6145    0.3610    2.9397 O   0  0  0  0  0  0  0  0  0  0  0  0
   -3.2751   -0.0088    0.5889 C   0  0  0  0  0  0  0  0  0  0  0  0
   -2.6066    0.3012   -0.6360 C   0  0  0  0  0  0  0  0  0  0  0  0
   -1.4164    0.9119   -0.3095 C   0  0  0  0  0  0  0  0  0  0  0  0
   -0.4570    1.4187   -1.0695 O   0  0  0  0  0  0  0  0  0  0  0  0
   -3.1839    0.0178   -1.9829 C   0  0  0  0  0  0  0  0  0  0  0  0
   -4.5357   -0.6562   -1.8949 C   0  0  0  0  0  0  0  0  0  0  0  0
   -5.1683   -0.9522   -0.7427 C   0  0  0  0  0  0  0  0  0  0  0  0
   -4.6225   -0.6553    0.6360 C   0  0  0  0  0  0  0  0  0  0  0  0
    1.5969    5.1338    1.4346 H   0  0  0  0  0  0  0  0  0  0  0  0
    2.1118    5.3418    3.1126 H   0  0  0  0  0  0  0  0  0  0  0  0
    0.3956    5.4782    2.6926 H   0  0  0  0  0  0  0  0  0  0  0  0
    2.1068    2.9463    2.4939 H   0  0  0  0  0  0  0  0  0  0  0  0
    0.8234    2.1159    4.4300 H   0  0  0  0  0  0  0  0  0  0  0  0
   -0.1675    3.5894    4.4471 H   0  0  0  0  0  0  0  0  0  0  0  0
    1.5594    3.6626    4.8375 H   0  0  0  0  0  0  0  0  0  0  0  0
    0.3001    3.1952    0.7411 H   0  0  0  0  0  0  0  0  0  0  0  0
   -0.8958    3.3570    2.0085 H   0  0  0  0  0  0  0  0  0  0  0  0
   -0.2885    1.0588    2.8523 H   0  0  0  0  0  0  0  0  0  0  0  0
    3.5484    1.0265   -0.6948 H   0  0  0  0  0  0  0  0  0  0  0  0
    3.4837   -0.1386    0.6225 H   0  0  0  0  0  0  0  0  0  0  0  0
    3.6057   -2.0078   -0.3970 H   0  0  0  0  0  0  0  0  0  0  0  0
    1.0440   -2.1661   -3.1513 H   0  0  0  0  0  0  0  0  0  0  0  0
    0.7350   -4.1803   -4.4940 H   0  0  0  0  0  0  0  0  0  0  0  0
    2.1141   -6.2032   -4.0838 H   0  0  0  0  0  0  0  0  0  0  0  0
    4.1896   -4.1481   -0.9354 H   0  0  0  0  0  0  0  0  0  0  0  0
   -3.4621   -0.0844    3.1140 H   0  0  0  0  0  0  0  0  0  0  0  0
   -0.2211    0.7445   -1.7469 H   0  0  0  0  0  0  0  0  0  0  0  0
   -2.5003   -0.6292   -2.5434 H   0  0  0  0  0  0  0  0  0  0  0  0
   -3.2911    0.9554   -2.5406 H   0  0  0  0  0  0  0  0  0  0  0  0
   -5.0077   -0.9084   -2.8410 H   0  0  0  0  0  0  0  0  0  0  0  0
   -6.1396   -1.4381   -0.7804 H   0  0  0  0  0  0  0  0  0  0  0  0
   -4.5581   -1.5931    1.2003 H   0  0  0  0  0  0  0  0  0  0  0  0
   -5.3248    0.0049    1.1586 H   0  0  0  0  0  0  0  0  0  0  0  0
  1  2  1  0
  2  3  1  0
  2  4  1  0
  4  5  1  0
  5  6  1  0
  6  7  2  0
  6  8  1  0
  8  9  1  0
  9 10  1  0
 10 11  2  0
 10 12  1  0
 12 13  1  0
 13 14  2  0
 14 15  1  0
 15 16  2  0
 16 17  1  0
 17 18  1  0
 17 19  2  0
  5 20  1  0
 20 21  1  0
 21 22  1  0
 21 23  2  0
 23 24  1  0
 24 25  2  0
 25 26  1  0
 24 27  1  0
 27 28  1  0
 28 29  2  0
 29 30  1  0
 19 13  1  0
 25 20  1  0
 30 23  1  0
  1 31  1  0
  1 32  1  0
  1 33  1  0
  2 34  1  0
  3 35  1  0
  3 36  1  0
  3 37  1  0
  4 38  1  0
  4 39  1  0
  5 40  1  0
  9 41  1  0
  9 42  1  0
 12 43  1  0
 14 44  1  0
 15 45  1  0
 16 46  1  0
 19 47  1  0
 22 48  1  0
 26 49  1  0
 27 50  1  0
 27 51  1  0
 28 52  1  0
 29 53  1  0
 30 54  1  0
 30 55  1  0
M  END
$$$$
