
     RDKit          3D

 48 51  0  0  0  0  0  0  0  0999 V2000
    8.7632    1.0261   -0.6993 C   0  0  0  0  0  0  0  0  0  0  0  0
    7.7429    0.9158   -1.6837 O   0  0  0  0  0  0  0  0  0  0  0  0
    6.4659    0.7368   -1.2302 C   0  0  0  0  0  0  0  0  0  0  0  0
    6.0700    0.6573    0.1016 C   0  0  0  0  0  0  0  0  0  0  0  0
    4.7182    0.4706    0.4235 C   0  0  0  0  0  0  0  0  0  0  0  0
    3.7259    0.3635   -0.5685 C   0  0  0  0  0  0  0  0  0  0  0  0
    2.3078    0.1713   -0.1991 C   0  0  0  0  0  0  0  0  0  0  0  0
    1.2510    0.6570   -0.9617 C   0  0  0  0  0  0  0  0  0  0  0  0
   -0.0577    0.4299   -0.5349 C   0  0  0  0  0  0  0  0  0  0  0  0
   -0.3089   -0.2751    0.6494 C   0  0  0  0  0  0  0  0  0  0  0  0
   -1.6884   -0.4897    1.0675 C   0  0  0  0  0  0  0  0  0  0  0  0
   -2.0856   -0.8357    2.3017 N   0  0  0  0  0  0  0  0  0  0  0  0
   -3.4715   -0.8895    2.2068 O   0  0  0  0  0  0  0  0  0  0  0  0
   -3.7976   -0.5598    0.9201 C   0  0  0  0  0  0  0  0  0  0  0  0
   -5.2243   -0.5530    0.5919 C   0  0  0  0  0  0  0  0  0  0  0  0
   -6.1273   -1.2758    1.3986 C   0  0  0  0  0  0  0  0  0  0  0  0
   -7.4922   -1.3040    1.1115 C   0  0  0  0  0  0  0  0  0  0  0  0
   -7.9793   -0.6084    0.0127 C   0  0  0  0  0  0  0  0  0  0  0  0
   -7.1049    0.1160   -0.7999 C   0  0  0  0  0  0  0  0  0  0  0  0
   -5.7296    0.1501   -0.5239 C   0  0  0  0  0  0  0  0  0  0  0  0
   -4.8275    0.8647   -1.2708 O   0  0  0  0  0  0  0  0  0  0  0  0
   -5.2799    1.4541   -2.4817 C   0  0  0  0  0  0  0  0  0  0  0  0
   -2.7367   -0.3045    0.1872 N   0  0  0  0  0  0  0  0  0  0  0  0
    0.8060   -0.7280    1.3525 C   0  0  0  0  0  0  0  0  0  0  0  0
    0.6148   -1.4607    2.5058 O   0  0  0  0  0  0  0  0  0  0  0  0
    1.8197   -1.8664    3.1440 C   0  0  0  0  0  0  0  0  0  0  0  0
    2.0876   -0.5108    0.9518 N   0  0  0  0  0  0  0  0  0  0  0  0
    4.1503    0.4383   -1.9057 C   0  0  0  0  0  0  0  0  0  0  0  0
    5.5000    0.6243   -2.2297 C   0  0  0  0  0  0  0  0  0  0  0  0
    8.6045    1.9031   -0.0631 H   0  0  0  0  0  0  0  0  0  0  0  0
    8.8364    0.1114   -0.1019 H   0  0  0  0  0  0  0  0  0  0  0  0
    9.7164    1.1608   -1.2195 H   0  0  0  0  0  0  0  0  0  0  0  0
    6.7798    0.7337    0.9182 H   0  0  0  0  0  0  0  0  0  0  0  0
    4.4365    0.4108    1.4744 H   0  0  0  0  0  0  0  0  0  0  0  0
    1.4226    1.2234   -1.8710 H   0  0  0  0  0  0  0  0  0  0  0  0
   -0.8834    0.8147   -1.1317 H   0  0  0  0  0  0  0  0  0  0  0  0
   -5.7717   -1.8365    2.2619 H   0  0  0  0  0  0  0  0  0  0  0  0
   -8.1708   -1.8692    1.7458 H   0  0  0  0  0  0  0  0  0  0  0  0
   -9.0428   -0.6250   -0.2136 H   0  0  0  0  0  0  0  0  0  0  0  0
   -7.5321    0.6528   -1.6408 H   0  0  0  0  0  0  0  0  0  0  0  0
   -6.0000    2.2544   -2.2832 H   0  0  0  0  0  0  0  0  0  0  0  0
   -5.6981    0.7019   -3.1587 H   0  0  0  0  0  0  0  0  0  0  0  0
   -4.4141    1.9029   -2.9782 H   0  0  0  0  0  0  0  0  0  0  0  0
    2.4035   -2.5354    2.5023 H   0  0  0  0  0  0  0  0  0  0  0  0
    2.4147   -1.0016    3.4576 H   0  0  0  0  0  0  0  0  0  0  0  0
    1.5475   -2.4254    4.0445 H   0  0  0  0  0  0  0  0  0  0  0  0
    3.4398    0.3335   -2.7223 H   0  0  0  0  0  0  0  0  0  0  0  0
    5.7995    0.6752   -3.2738 H   0  0  0  0  0  0  0  0  0  0  0  0
  1  2  1  0
  2  3  1  0
  3  4  2  0
  4  5  1  0
  5  6  2  0
  6  7  1  0
  7  8  2  0
  8  9  1  0
  9 10  2  0
 10 11  1  0
 11 12  2  0
 12 13  1  0
 13 14  1  0
 14 15  1  0
 15 16  2  0
 16 17  1  0
 17 18  2  0
 18 19  1  0
 19 20  2  0
 20 21  1  0
 21 22  1  0
 14 23  2  0
 10 24  1  0
 24 25  1  0
 25 26  1  0
 24 27  2  0
  6 28  1  0
 28 29  2  0
 29  3  1  0
 27  7  1  0
 23 11  1  0
 20 15  1  0
  1 30  1  0
  1 31  1  0
  1 32  1  0
  4 33  1  0
  5 34  1  0
  8 35  1  0
  9 36  1  0
 16 37  1  0
 17 38  1  0
 18 39  1  0
 19 40  1  0
 22 41  1  0
 22 42  1  0
 22 43  1  0
 26 44  1  0
 26 45  1  0
 26 46  1  0
 28 47  1  0
 29 48  1  0
M  END
$$$$
