
     RDKit          3D

 47 48  0  0  0  0  0  0  0  0999 V2000
   10.0586   -0.7612   -0.2428 C   0  0  0  0  0  0  0  0  0  0  0  0
    8.6111   -0.3845   -0.1341 C   0  0  0  0  0  0  0  0  0  0  0  0
    7.8503   -0.7853    0.9695 C   0  0  0  0  0  0  0  0  0  0  0  0
    6.5094   -0.4094    1.0802 C   0  0  0  0  0  0  0  0  0  0  0  0
    5.9088    0.3880    0.0964 C   0  0  0  0  0  0  0  0  0  0  0  0
    4.4574    0.7839    0.2103 C   0  0  0  0  0  0  0  0  0  0  0  0
    3.3734   -0.4456   -0.5725 S   0  0  0  0  0  0  0  0  0  0  0  0
    1.8270    0.2762   -0.2655 C   0  0  0  0  0  0  0  0  0  0  0  0
    1.6274    1.3962    0.3994 N   0  0  0  0  0  0  0  0  0  0  0  0
    0.2652    1.6130    0.4200 N   0  0  0  0  0  0  0  0  0  0  0  0
   -0.2741    0.6098   -0.2361 C   0  0  0  0  0  0  0  0  0  0  0  0
   -1.6953    0.3169   -0.5196 C   0  0  0  0  0  0  0  0  0  0  0  0
   -2.3092   -0.5170    0.6021 C   0  0  0  0  0  0  0  0  0  0  0  0
   -3.6555   -0.9543    0.2981 N   0  0  0  0  0  0  0  0  0  0  0  0
   -4.7328   -0.1236    0.3515 C   0  0  0  0  0  0  0  0  0  0  0  0
   -4.6823    1.0618    0.6363 O   0  0  0  0  0  0  0  0  0  0  0  0
   -5.8389   -0.8283    0.0278 O   0  0  0  0  0  0  0  0  0  0  0  0
   -7.1403   -0.1869   -0.0076 C   0  0  0  0  0  0  0  0  0  0  0  0
   -7.1915    0.9101   -1.0778 C   0  0  0  0  0  0  0  0  0  0  0  0
   -7.5401    0.3432    1.3748 C   0  0  0  0  0  0  0  0  0  0  0  0
   -8.1146   -1.3063   -0.4053 C   0  0  0  0  0  0  0  0  0  0  0  0
    0.6525   -0.2838   -0.6990 O   0  0  0  0  0  0  0  0  0  0  0  0
    6.6754    0.7943   -1.0040 C   0  0  0  0  0  0  0  0  0  0  0  0
    8.0158    0.4172   -1.1146 C   0  0  0  0  0  0  0  0  0  0  0  0
   10.6875    0.0640    0.1066 H   0  0  0  0  0  0  0  0  0  0  0  0
   10.3198   -0.9963   -1.2803 H   0  0  0  0  0  0  0  0  0  0  0  0
   10.2816   -1.6495    0.3571 H   0  0  0  0  0  0  0  0  0  0  0  0
    8.2951   -1.3977    1.7503 H   0  0  0  0  0  0  0  0  0  0  0  0
    5.9361   -0.7449    1.9417 H   0  0  0  0  0  0  0  0  0  0  0  0
    4.1918    0.8926    1.2691 H   0  0  0  0  0  0  0  0  0  0  0  0
    4.3077    1.7633   -0.2602 H   0  0  0  0  0  0  0  0  0  0  0  0
   -2.2441    1.2582   -0.6411 H   0  0  0  0  0  0  0  0  0  0  0  0
   -1.7801   -0.2172   -1.4739 H   0  0  0  0  0  0  0  0  0  0  0  0
   -1.7177   -1.4210    0.7853 H   0  0  0  0  0  0  0  0  0  0  0  0
   -2.3350    0.0591    1.5347 H   0  0  0  0  0  0  0  0  0  0  0  0
   -3.8467   -1.9137    0.0404 H   0  0  0  0  0  0  0  0  0  0  0  0
   -8.2127    1.2797   -1.2197 H   0  0  0  0  0  0  0  0  0  0  0  0
   -6.8188    0.5369   -2.0382 H   0  0  0  0  0  0  0  0  0  0  0  0
   -6.5669    1.7689   -0.8127 H   0  0  0  0  0  0  0  0  0  0  0  0
   -8.5850    0.6716    1.3887 H   0  0  0  0  0  0  0  0  0  0  0  0
   -6.9273    1.1978    1.6769 H   0  0  0  0  0  0  0  0  0  0  0  0
   -7.4058   -0.4278    2.1416 H   0  0  0  0  0  0  0  0  0  0  0  0
   -8.0824   -2.1282    0.3208 H   0  0  0  0  0  0  0  0  0  0  0  0
   -7.8365   -1.7396   -1.3745 H   0  0  0  0  0  0  0  0  0  0  0  0
   -9.1456   -0.9428   -0.4714 H   0  0  0  0  0  0  0  0  0  0  0  0
    6.2339    1.4104   -1.7848 H   0  0  0  0  0  0  0  0  0  0  0  0
    8.5933    0.7517   -1.9734 H   0  0  0  0  0  0  0  0  0  0  0  0
  1  2  1  0
  2  3  2  0
  3  4  1  0
  4  5  2  0
  5  6  1  0
  6  7  1  0
  7  8  1  0
  8  9  2  0
  9 10  1  0
 10 11  2  0
 11 12  1  0
 12 13  1  0
 13 14  1  0
 14 15  1  0
 15 16  2  0
 15 17  1  0
 17 18  1  0
 18 19  1  0
 18 20  1  0
 18 21  1  0
 11 22  1  0
  5 23  1  0
 23 24  2  0
 24  2  1  0
 22  8  1  0
  1 25  1  0
  1 26  1  0
  1 27  1  0
  3 28  1  0
  4 29  1  0
  6 30  1  0
  6 31  1  0
 12 32  1  0
 12 33  1  0
 13 34  1  0
 13 35  1  0
 14 36  1  0
 19 37  1  0
 19 38  1  0
 19 39  1  0
 20 40  1  0
 20 41  1  0
 20 42  1  0
 21 43  1  0
 21 44  1  0
 21 45  1  0
 23 46  1  0
 24 47  1  0
M  END
$$$$
