
     RDKit          3D

 42 44  0  0  0  0  0  0  0  0999 V2000
    4.0688   -0.4811   -1.1950 C   0  0  0  0  0  0  0  0  0  0  0  0
    4.0041    0.0001    0.2521 C   0  0  0  0  0  0  0  0  0  0  0  0
    5.4003    0.0096    0.8721 C   0  0  0  0  0  0  0  0  0  0  0  0
    2.9412   -1.1188    1.2464 S   0  0  0  0  0  0  0  0  0  0  0  0
    1.3134   -0.6375    0.6861 C   0  0  0  0  0  0  0  0  0  0  0  0
    0.3032   -1.5757    0.7102 C   0  0  0  0  0  0  0  0  0  0  0  0
   -0.9526   -1.1723    0.3080 C   0  0  0  0  0  0  0  0  0  0  0  0
   -2.0190   -2.0369    0.2837 N   0  0  0  0  0  0  0  0  0  0  0  0
   -3.3380   -1.5645   -0.1191 C   0  0  0  0  0  0  0  0  0  0  0  0
   -4.2031   -2.8160   -0.0024 C   0  0  0  0  0  0  0  0  0  0  0  0
   -3.5943   -3.5332    1.1922 C   0  0  0  0  0  0  0  0  0  0  0  0
   -2.0939   -3.2838    1.0337 C   0  0  0  0  0  0  0  0  0  0  0  0
   -1.1572    0.0927   -0.0969 N   0  0  0  0  0  0  0  0  0  0  0  0
   -0.1139    0.9431   -0.0960 C   0  0  0  0  0  0  0  0  0  0  0  0
   -0.3924    2.3351   -0.4691 C   0  0  0  0  0  0  0  0  0  0  0  0
   -1.5180    2.9808    0.0903 C   0  0  0  0  0  0  0  0  0  0  0  0
   -1.8286    4.3101   -0.2085 C   0  0  0  0  0  0  0  0  0  0  0  0
   -1.0217    5.0290   -1.0818 C   0  0  0  0  0  0  0  0  0  0  0  0
    0.0876    4.4146   -1.6596 C   0  0  0  0  0  0  0  0  0  0  0  0
    0.4004    3.0796   -1.3613 C   0  0  0  0  0  0  0  0  0  0  0  0
    1.7634    2.4066   -2.1922 Cl  0  0  0  0  0  0  0  0  0  0  0  0
    1.1243    0.6318    0.3047 N   0  0  0  0  0  0  0  0  0  0  0  0
    3.0807   -0.4936   -1.6660 H   0  0  0  0  0  0  0  0  0  0  0  0
    4.4940   -1.4885   -1.2696 H   0  0  0  0  0  0  0  0  0  0  0  0
    4.7025    0.1870   -1.7889 H   0  0  0  0  0  0  0  0  0  0  0  0
    3.6124    1.0214    0.2919 H   0  0  0  0  0  0  0  0  0  0  0  0
    5.3744    0.3693    1.9068 H   0  0  0  0  0  0  0  0  0  0  0  0
    6.0606    0.6809    0.3115 H   0  0  0  0  0  0  0  0  0  0  0  0
    5.8599   -0.9854    0.8640 H   0  0  0  0  0  0  0  0  0  0  0  0
    0.5015   -2.5913    1.0230 H   0  0  0  0  0  0  0  0  0  0  0  0
   -3.6984   -0.7894    0.5682 H   0  0  0  0  0  0  0  0  0  0  0  0
   -3.3497   -1.1760   -1.1430 H   0  0  0  0  0  0  0  0  0  0  0  0
   -4.0986   -3.4338   -0.9025 H   0  0  0  0  0  0  0  0  0  0  0  0
   -5.2624   -2.5827    0.1352 H   0  0  0  0  0  0  0  0  0  0  0  0
   -3.9523   -3.0752    2.1223 H   0  0  0  0  0  0  0  0  0  0  0  0
   -3.8403   -4.5983    1.2210 H   0  0  0  0  0  0  0  0  0  0  0  0
   -1.6258   -4.0909    0.4595 H   0  0  0  0  0  0  0  0  0  0  0  0
   -1.6191   -3.2220    2.0191 H   0  0  0  0  0  0  0  0  0  0  0  0
   -2.1622    2.4341    0.7791 H   0  0  0  0  0  0  0  0  0  0  0  0
   -2.6998    4.7786    0.2429 H   0  0  0  0  0  0  0  0  0  0  0  0
   -1.2579    6.0631   -1.3192 H   0  0  0  0  0  0  0  0  0  0  0  0
    0.7066    4.9792   -2.3531 H   0  0  0  0  0  0  0  0  0  0  0  0
  1  2  1  0
  2  3  1  0
  2  4  1  0
  4  5  1  0
  5  6  2  0
  6  7  1  0
  7  8  1  0
  8  9  1  0
  9 10  1  0
 10 11  1  0
 11 12  1  0
  7 13  2  0
 13 14  1  0
 14 15  1  0
 15 16  2  0
 16 17  1  0
 17 18  2  0
 18 19  1  0
 19 20  2  0
 20 21  1  0
 14 22  2  0
 22  5  1  0
 12  8  1  0
 20 15  1  0
  1 23  1  0
  1 24  1  0
  1 25  1  0
  2 26  1  0
  3 27  1  0
  3 28  1  0
  3 29  1  0
  6 30  1  0
  9 31  1  0
  9 32  1  0
 10 33  1  0
 10 34  1  0
 11 35  1  0
 11 36  1  0
 12 37  1  0
 12 38  1  0
 16 39  1  0
 17 40  1  0
 18 41  1  0
 19 42  1  0
M  END
$$$$
