
     RDKit          3D

 49 51  0  0  0  0  0  0  0  0999 V2000
    6.3877    1.1275   -2.0367 C   0  0  0  0  0  0  0  0  0  0  0  0
    6.0916    0.2937   -0.8238 C   0  0  0  0  0  0  0  0  0  0  0  0
    7.1280   -0.1044    0.0298 C   0  0  0  0  0  0  0  0  0  0  0  0
    6.8563   -0.8723    1.1626 C   0  0  0  0  0  0  0  0  0  0  0  0
    5.5450   -1.2296    1.4602 C   0  0  0  0  0  0  0  0  0  0  0  0
    5.3614   -2.0084    2.5715 O   0  0  0  0  0  0  0  0  0  0  0  0
    4.4872   -0.7979    0.6490 C   0  0  0  0  0  0  0  0  0  0  0  0
    3.0954   -1.1667    1.0119 C   0  0  0  0  0  0  0  0  0  0  0  0
    2.9058   -2.1973    1.6578 O   0  0  0  0  0  0  0  0  0  0  0  0
    1.9314   -0.3353    0.6493 C   0  0  0  0  0  0  0  0  0  0  0  0
    1.9736    1.0519    0.6813 C   0  0  0  0  0  0  0  0  0  0  0  0
    0.9196    1.8425    0.3664 N   0  0  0  0  0  0  0  0  0  0  0  0
   -0.2290    1.2206    0.0294 C   0  0  0  0  0  0  0  0  0  0  0  0
   -0.3832   -0.1533    0.0023 C   0  0  0  0  0  0  0  0  0  0  0  0
    0.7190   -0.9477    0.3293 C   0  0  0  0  0  0  0  0  0  0  0  0
   -1.7310   -0.7244   -0.2773 C   0  0  0  0  0  0  0  0  0  0  0  0
   -2.6383    0.2074   -0.9298 N   0  0  0  0  0  0  0  0  0  0  0  0
   -3.8761   -0.3308   -1.4946 C   0  0  0  0  0  0  0  0  0  0  0  0
   -4.8484   -0.9018   -0.4531 C   0  0  0  0  0  0  0  0  0  0  0  0
   -5.4274    0.1265    0.5366 C   0  0  0  0  0  0  0  0  0  0  0  0
   -6.1623   -0.5998    1.6672 C   0  0  0  0  0  0  0  0  0  0  0  0
   -6.3862    1.1038   -0.1459 C   0  0  0  0  0  0  0  0  0  0  0  0
   -2.4806    1.5745   -0.8206 C   0  0  0  0  0  0  0  0  0  0  0  0
   -3.3245    2.3899   -1.1864 O   0  0  0  0  0  0  0  0  0  0  0  0
   -1.3020    2.0183   -0.3101 N   0  0  0  0  0  0  0  0  0  0  0  0
    4.7693   -0.0518   -0.5053 C   0  0  0  0  0  0  0  0  0  0  0  0
    7.3887    0.9121   -2.4249 H   0  0  0  0  0  0  0  0  0  0  0  0
    6.3277    2.1902   -1.7830 H   0  0  0  0  0  0  0  0  0  0  0  0
    5.6752    0.9134   -2.8402 H   0  0  0  0  0  0  0  0  0  0  0  0
    8.1585    0.1690   -0.1891 H   0  0  0  0  0  0  0  0  0  0  0  0
    7.6668   -1.1984    1.8094 H   0  0  0  0  0  0  0  0  0  0  0  0
    4.4413   -2.3550    2.5456 H   0  0  0  0  0  0  0  0  0  0  0  0
    2.8661    1.5955    0.9795 H   0  0  0  0  0  0  0  0  0  0  0  0
    0.6348   -2.0324    0.3449 H   0  0  0  0  0  0  0  0  0  0  0  0
   -1.6289   -1.6013   -0.9268 H   0  0  0  0  0  0  0  0  0  0  0  0
   -2.1872   -1.0331    0.6698 H   0  0  0  0  0  0  0  0  0  0  0  0
   -4.3750    0.4301   -2.1033 H   0  0  0  0  0  0  0  0  0  0  0  0
   -3.5862   -1.1315   -2.1860 H   0  0  0  0  0  0  0  0  0  0  0  0
   -4.3414   -1.6968    0.1074 H   0  0  0  0  0  0  0  0  0  0  0  0
   -5.6742   -1.3900   -0.9870 H   0  0  0  0  0  0  0  0  0  0  0  0
   -4.6094    0.6980    0.9902 H   0  0  0  0  0  0  0  0  0  0  0  0
   -5.4835   -1.2712    2.2038 H   0  0  0  0  0  0  0  0  0  0  0  0
   -6.5641    0.1153    2.3930 H   0  0  0  0  0  0  0  0  0  0  0  0
   -6.9958   -1.1968    1.2816 H   0  0  0  0  0  0  0  0  0  0  0  0
   -6.7998    1.8106    0.5816 H   0  0  0  0  0  0  0  0  0  0  0  0
   -7.2238    0.5753   -0.6140 H   0  0  0  0  0  0  0  0  0  0  0  0
   -5.8842    1.6899   -0.9197 H   0  0  0  0  0  0  0  0  0  0  0  0
   -1.1613    3.0168   -0.2814 H   0  0  0  0  0  0  0  0  0  0  0  0
    3.9732    0.2550   -1.1799 H   0  0  0  0  0  0  0  0  0  0  0  0
  1  2  1  0
  2  3  2  0
  3  4  1  0
  4  5  2  0
  5  6  1  0
  5  7  1  0
  7  8  1  0
  8  9  2  0
  8 10  1  0
 10 11  2  0
 11 12  1  0
 12 13  2  0
 13 14  1  0
 14 15  2  0
 14 16  1  0
 16 17  1  0
 17 18  1  0
 18 19  1  0
 19 20  1  0
 20 21  1  0
 20 22  1  0
 17 23  1  0
 23 24  2  0
 23 25  1  0
  7 26  2  0
 26  2  1  0
 15 10  1  0
 25 13  1  0
  1 27  1  0
  1 28  1  0
  1 29  1  0
  3 30  1  0
  4 31  1  0
  6 32  1  0
 11 33  1  0
 15 34  1  0
 16 35  1  0
 16 36  1  0
 18 37  1  0
 18 38  1  0
 19 39  1  0
 19 40  1  0
 20 41  1  0
 21 42  1  0
 21 43  1  0
 21 44  1  0
 22 45  1  0
 22 46  1  0
 22 47  1  0
 25 48  1  0
 26 49  1  0
M  END
$$$$
