
     RDKit          3D

 55 57  0  0  0  0  0  0  0  0999 V2000
    3.2227   -1.3037   -2.0294 N   0  0  0  0  0  0  0  0  0  0  0  0
    2.5894   -0.1477   -1.7554 C   0  0  0  0  0  0  0  0  0  0  0  0
    2.9173    0.9876   -2.2939 N   0  0  0  0  0  0  0  0  0  0  0  0
    1.9485    1.9486   -1.7078 C   0  0  0  0  0  0  0  0  0  0  0  0
    1.2012    1.2050   -0.5835 C   0  0  0  0  0  0  0  0  0  0  0  0
    1.5775    1.6784    0.8360 C   0  0  0  0  0  0  0  0  0  0  0  0
    3.0177    1.5055    1.2688 C   0  0  0  0  0  0  0  0  0  0  0  0
    3.9361    2.5588    1.1516 C   0  0  0  0  0  0  0  0  0  0  0  0
    5.2659    2.3913    1.5471 C   0  0  0  0  0  0  0  0  0  0  0  0
    5.6775    1.1686    2.0660 C   0  0  0  0  0  0  0  0  0  0  0  0
    6.9662    0.9620    2.4616 O   0  0  0  0  0  0  0  0  0  0  0  0
    4.7830    0.1149    2.1965 C   0  0  0  0  0  0  0  0  0  0  0  0
    3.4562    0.2826    1.7983 C   0  0  0  0  0  0  0  0  0  0  0  0
    1.5903   -0.1920   -0.8241 N   0  0  0  0  0  0  0  0  0  0  0  0
    0.5159   -1.1811   -0.9411 C   0  0  0  0  0  0  0  0  0  0  0  0
   -0.1777   -1.4005    0.4051 C   0  0  0  0  0  0  0  0  0  0  0  0
   -1.2048   -2.5368    0.3813 C   0  0  0  0  0  0  0  0  0  0  0  0
   -2.3519   -2.3735   -0.6239 C   0  0  0  0  0  0  0  0  0  0  0  0
   -3.1848   -1.0869   -0.4709 C   0  0  0  0  0  0  0  0  0  0  0  0
   -3.8191   -0.9679    0.9286 C   0  0  0  0  0  0  0  0  0  0  0  0
   -5.0795   -0.0986    0.9644 C   0  0  0  0  0  0  0  0  0  0  0  0
   -5.0801    0.9540   -0.1339 C   0  0  0  0  0  0  0  0  0  0  0  0
   -5.0196    0.3195   -1.5236 C   0  0  0  0  0  0  0  0  0  0  0  0
   -4.2659   -1.0129   -1.5570 C   0  0  0  0  0  0  0  0  0  0  0  0
    4.0749   -1.1117   -2.5453 H   0  0  0  0  0  0  0  0  0  0  0  0
    3.4255   -1.8200   -1.1827 H   0  0  0  0  0  0  0  0  0  0  0  0
    2.4614    2.8502   -1.3622 H   0  0  0  0  0  0  0  0  0  0  0  0
    1.2464    2.2488   -2.4948 H   0  0  0  0  0  0  0  0  0  0  0  0
    0.1225    1.3550   -0.7203 H   0  0  0  0  0  0  0  0  0  0  0  0
    1.3040    2.7372    0.9374 H   0  0  0  0  0  0  0  0  0  0  0  0
    0.9475    1.1528    1.5657 H   0  0  0  0  0  0  0  0  0  0  0  0
    3.6253    3.5177    0.7443 H   0  0  0  0  0  0  0  0  0  0  0  0
    5.9584    3.2196    1.4396 H   0  0  0  0  0  0  0  0  0  0  0  0
    7.4747    1.7685    2.2776 H   0  0  0  0  0  0  0  0  0  0  0  0
    5.1170   -0.8350    2.6025 H   0  0  0  0  0  0  0  0  0  0  0  0
    2.7652   -0.5509    1.8947 H   0  0  0  0  0  0  0  0  0  0  0  0
   -0.1998   -0.8504   -1.7026 H   0  0  0  0  0  0  0  0  0  0  0  0
    0.9203   -2.1429   -1.2780 H   0  0  0  0  0  0  0  0  0  0  0  0
    0.5785   -1.6407    1.1632 H   0  0  0  0  0  0  0  0  0  0  0  0
   -0.6589   -0.4766    0.7426 H   0  0  0  0  0  0  0  0  0  0  0  0
   -1.6180   -2.6537    1.3903 H   0  0  0  0  0  0  0  0  0  0  0  0
   -0.6855   -3.4776    0.1587 H   0  0  0  0  0  0  0  0  0  0  0  0
   -3.0141   -3.2440   -0.5275 H   0  0  0  0  0  0  0  0  0  0  0  0
   -1.9451   -2.4212   -1.6415 H   0  0  0  0  0  0  0  0  0  0  0  0
   -2.5191   -0.2267   -0.6209 H   0  0  0  0  0  0  0  0  0  0  0  0
   -3.0750   -0.5462    1.6159 H   0  0  0  0  0  0  0  0  0  0  0  0
   -4.0746   -1.9579    1.3265 H   0  0  0  0  0  0  0  0  0  0  0  0
   -5.1695    0.3775    1.9474 H   0  0  0  0  0  0  0  0  0  0  0  0
   -5.9632   -0.7387    0.8472 H   0  0  0  0  0  0  0  0  0  0  0  0
   -4.2165    1.6172    0.0024 H   0  0  0  0  0  0  0  0  0  0  0  0
   -5.9726    1.5852   -0.0563 H   0  0  0  0  0  0  0  0  0  0  0  0
   -6.0359    0.1570   -1.9028 H   0  0  0  0  0  0  0  0  0  0  0  0
   -4.5474    1.0301   -2.2129 H   0  0  0  0  0  0  0  0  0  0  0  0
   -4.9804   -1.8346   -1.4160 H   0  0  0  0  0  0  0  0  0  0  0  0
   -3.8282   -1.1513   -2.5529 H   0  0  0  0  0  0  0  0  0  0  0  0
  1  2  1  0
  2  3  2  0
  3  4  1  0
  4  5  1  0
  5  6  1  0
  6  7  1  0
  7  8  2  0
  8  9  1  0
  9 10  2  0
 10 11  1  0
 10 12  1  0
 12 13  2  0
  5 14  1  0
 14 15  1  0
 15 16  1  0
 16 17  1  0
 17 18  1  0
 18 19  1  0
 19 20  1  0
 20 21  1  0
 21 22  1  0
 22 23  1  0
 23 24  1  0
 14  2  1  0
 24 19  1  0
 13  7  1  0
  1 25  1  0
  1 26  1  0
  4 27  1  0
  4 28  1  0
  5 29  1  0
  6 30  1  0
  6 31  1  0
  8 32  1  0
  9 33  1  0
 11 34  1  0
 12 35  1  0
 13 36  1  0
 15 37  1  0
 15 38  1  0
 16 39  1  0
 16 40  1  0
 17 41  1  0
 17 42  1  0
 18 43  1  0
 18 44  1  0
 19 45  1  0
 20 46  1  0
 20 47  1  0
 21 48  1  0
 21 49  1  0
 22 50  1  0
 22 51  1  0
 23 52  1  0
 23 53  1  0
 24 54  1  0
 24 55  1  0
M  END
$$$$
