
     RDKit          3D

 48 50  0  0  0  0  0  0  0  0999 V2000
   -0.3085   -3.3502   -0.5614 C   0  0  0  0  0  0  0  0  0  0  0  0
   -0.8218   -2.4034   -1.6320 C   0  0  0  0  0  0  0  0  0  0  0  0
   -1.6060   -1.3585   -1.0340 O   0  0  0  0  0  0  0  0  0  0  0  0
   -2.9080   -1.6176   -0.8206 C   0  0  0  0  0  0  0  0  0  0  0  0
   -3.4744   -2.6711   -1.0662 O   0  0  0  0  0  0  0  0  0  0  0  0
   -3.6075   -0.4779   -0.2046 C   0  0  0  0  0  0  0  0  0  0  0  0
   -4.8834   -0.6882    0.2737 C   0  0  0  0  0  0  0  0  0  0  0  0
   -5.6552    0.2702    0.8330 N   0  0  0  0  0  0  0  0  0  0  0  0
   -5.1249    1.4994    0.9003 C   0  0  0  0  0  0  0  0  0  0  0  0
   -6.0628    2.8049    1.6493 S   0  0  0  0  0  0  0  0  0  0  0  0
   -7.7352    2.1429    1.4521 C   0  0  0  0  0  0  0  0  0  0  0  0
   -3.9022    1.8182    0.4616 N   0  0  0  0  0  0  0  0  0  0  0  0
   -3.1541    0.8174   -0.0628 C   0  0  0  0  0  0  0  0  0  0  0  0
   -1.9410    1.2054   -0.5900 O   0  0  0  0  0  0  0  0  0  0  0  0
   -0.9003    1.4055    0.2953 C   0  0  0  0  0  0  0  0  0  0  0  0
   -1.0222    1.9945    1.5530 C   0  0  0  0  0  0  0  0  0  0  0  0
    0.1093    2.1652    2.3506 C   0  0  0  0  0  0  0  0  0  0  0  0
    1.3608    1.7489    1.8916 C   0  0  0  0  0  0  0  0  0  0  0  0
    1.4978    1.1631    0.6266 C   0  0  0  0  0  0  0  0  0  0  0  0
    2.7933    0.7609    0.2366 N   0  0  0  0  0  0  0  0  0  0  0  0
    3.1548    0.1295   -0.9397 C   0  0  0  0  0  0  0  0  0  0  0  0
    2.4189   -0.1956   -1.8624 O   0  0  0  0  0  0  0  0  0  0  0  0
    4.6097   -0.1568   -1.0779 C   0  0  0  0  0  0  0  0  0  0  0  0
    5.1976   -0.0200   -2.3418 C   0  0  0  0  0  0  0  0  0  0  0  0
    6.5592   -0.2797   -2.5149 C   0  0  0  0  0  0  0  0  0  0  0  0
    7.3291   -0.6881   -1.4277 C   0  0  0  0  0  0  0  0  0  0  0  0
    9.0052   -1.0102   -1.6387 Cl  0  0  0  0  0  0  0  0  0  0  0  0
    6.7478   -0.8462   -0.1705 C   0  0  0  0  0  0  0  0  0  0  0  0
    5.3853   -0.5848    0.0071 C   0  0  0  0  0  0  0  0  0  0  0  0
    0.3620    1.0117   -0.1688 C   0  0  0  0  0  0  0  0  0  0  0  0
    0.3429   -4.1126   -0.9986 H   0  0  0  0  0  0  0  0  0  0  0  0
    0.2542   -2.7992    0.2008 H   0  0  0  0  0  0  0  0  0  0  0  0
   -1.1379   -3.8491   -0.0485 H   0  0  0  0  0  0  0  0  0  0  0  0
    0.0257   -1.9224   -2.1339 H   0  0  0  0  0  0  0  0  0  0  0  0
   -1.3944   -2.9332   -2.4013 H   0  0  0  0  0  0  0  0  0  0  0  0
   -5.3514   -1.6682    0.2221 H   0  0  0  0  0  0  0  0  0  0  0  0
   -8.4569    2.8833    1.8099 H   0  0  0  0  0  0  0  0  0  0  0  0
   -7.8658    1.2321    2.0400 H   0  0  0  0  0  0  0  0  0  0  0  0
   -7.9472    1.9380    0.3999 H   0  0  0  0  0  0  0  0  0  0  0  0
   -1.9785    2.3497    1.9241 H   0  0  0  0  0  0  0  0  0  0  0  0
    0.0146    2.6280    3.3305 H   0  0  0  0  0  0  0  0  0  0  0  0
    2.2214    1.8878    2.5388 H   0  0  0  0  0  0  0  0  0  0  0  0
    3.5350    1.0039    0.8796 H   0  0  0  0  0  0  0  0  0  0  0  0
    4.5947    0.2921   -3.1931 H   0  0  0  0  0  0  0  0  0  0  0  0
    7.0084   -0.1652   -3.4968 H   0  0  0  0  0  0  0  0  0  0  0  0
    7.3481   -1.1827    0.6705 H   0  0  0  0  0  0  0  0  0  0  0  0
    4.9415   -0.7491    0.9843 H   0  0  0  0  0  0  0  0  0  0  0  0
    0.4225    0.5778   -1.1634 H   0  0  0  0  0  0  0  0  0  0  0  0
  1  2  1  0
  2  3  1  0
  3  4  1  0
  4  5  2  0
  4  6  1  0
  6  7  2  0
  7  8  1  0
  8  9  2  0
  9 10  1  0
 10 11  1  0
  9 12  1  0
 12 13  2  0
 13 14  1  0
 14 15  1  0
 15 16  2  0
 16 17  1  0
 17 18  2  0
 18 19  1  0
 19 20  1  0
 20 21  1  0
 21 22  2  0
 21 23  1  0
 23 24  2  0
 24 25  1  0
 25 26  2  0
 26 27  1  0
 26 28  1  0
 28 29  2  0
 19 30  2  0
 13  6  1  0
 30 15  1  0
 29 23  1  0
  1 31  1  0
  1 32  1  0
  1 33  1  0
  2 34  1  0
  2 35  1  0
  7 36  1  0
 11 37  1  0
 11 38  1  0
 11 39  1  0
 16 40  1  0
 17 41  1  0
 18 42  1  0
 20 43  1  0
 24 44  1  0
 25 45  1  0
 28 46  1  0
 29 47  1  0
 30 48  1  0
M  END
$$$$
