
     RDKit          3D

 41 43  0  0  0  0  0  0  0  0999 V2000
   -2.3286   -0.5524   -1.4486 O   0  0  0  0  0  0  0  0  0  0  0  0
   -2.6686    0.5271   -0.9655 C   0  0  0  0  0  0  0  0  0  0  0  0
   -3.8732    1.3060   -1.4592 C   0  0  0  0  0  0  0  0  0  0  0  0
   -5.1113    1.0081   -0.6521 C   0  0  0  0  0  0  0  0  0  0  0  0
   -5.5743    1.9102    0.3150 C   0  0  0  0  0  0  0  0  0  0  0  0
   -6.7070    1.6095    1.0755 C   0  0  0  0  0  0  0  0  0  0  0  0
   -7.3853    0.4066    0.8751 C   0  0  0  0  0  0  0  0  0  0  0  0
   -6.9325   -0.4972   -0.0844 C   0  0  0  0  0  0  0  0  0  0  0  0
   -5.8000   -0.1999   -0.8431 C   0  0  0  0  0  0  0  0  0  0  0  0
   -2.0043    1.1336    0.0904 N   0  0  0  0  0  0  0  0  0  0  0  0
   -0.7478    0.5973    0.4234 N   0  0  0  0  0  0  0  0  0  0  0  0
    0.3645    1.0351   -0.2728 C   0  0  0  0  0  0  0  0  0  0  0  0
    0.3915    1.9455   -1.0911 O   0  0  0  0  0  0  0  0  0  0  0  0
    1.5532    0.2577    0.1743 C   0  0  0  0  0  0  0  0  0  0  0  0
    2.7642    0.4673   -0.3610 C   0  0  0  0  0  0  0  0  0  0  0  0
    4.0168   -0.2041    0.0052 C   0  0  0  0  0  0  0  0  0  0  0  0
    5.1073    0.5740    0.4114 C   0  0  0  0  0  0  0  0  0  0  0  0
    6.3242   -0.0292    0.7436 C   0  0  0  0  0  0  0  0  0  0  0  0
    6.4657   -1.4189    0.6647 C   0  0  0  0  0  0  0  0  0  0  0  0
    7.7751   -2.0138    1.0260 C   0  0  0  0  0  0  0  0  0  0  0  0
    8.7652   -1.3973    1.3760 O   0  0  0  0  0  0  0  0  0  0  0  0
    7.7830   -3.3560    0.9324 O   0  0  0  0  0  0  0  0  0  0  0  0
    5.3831   -2.1992    0.2449 C   0  0  0  0  0  0  0  0  0  0  0  0
    4.1673   -1.5925   -0.0894 C   0  0  0  0  0  0  0  0  0  0  0  0
    1.1140   -0.8406    1.4301 S   0  0  0  0  0  0  0  0  0  0  0  0
   -0.5873   -0.3770    1.3874 C   0  0  0  0  0  0  0  0  0  0  0  0
   -1.7400   -1.0209    2.4051 S   0  0  0  0  0  0  0  0  0  0  0  0
   -3.6481    2.3794   -1.4404 H   0  0  0  0  0  0  0  0  0  0  0  0
   -4.0446    1.0526   -2.5123 H   0  0  0  0  0  0  0  0  0  0  0  0
   -5.0624    2.8529    0.4858 H   0  0  0  0  0  0  0  0  0  0  0  0
   -7.0605    2.3099    1.8287 H   0  0  0  0  0  0  0  0  0  0  0  0
   -8.2664    0.1708    1.4673 H   0  0  0  0  0  0  0  0  0  0  0  0
   -7.4593   -1.4350   -0.2430 H   0  0  0  0  0  0  0  0  0  0  0  0
   -5.4531   -0.9178   -1.5837 H   0  0  0  0  0  0  0  0  0  0  0  0
   -2.0896    2.1385    0.2115 H   0  0  0  0  0  0  0  0  0  0  0  0
    2.8770    1.2267   -1.1348 H   0  0  0  0  0  0  0  0  0  0  0  0
    5.0202    1.6564    0.4785 H   0  0  0  0  0  0  0  0  0  0  0  0
    7.1606    0.5896    1.0625 H   0  0  0  0  0  0  0  0  0  0  0  0
    8.6932   -3.6045    1.1981 H   0  0  0  0  0  0  0  0  0  0  0  0
    5.4740   -3.2800    0.1697 H   0  0  0  0  0  0  0  0  0  0  0  0
    3.3444   -2.2187   -0.4274 H   0  0  0  0  0  0  0  0  0  0  0  0
  1  2  2  0
  2  3  1  0
  3  4  1  0
  4  5  2  0
  5  6  1  0
  6  7  2  0
  7  8  1  0
  8  9  2  0
  2 10  1  0
 10 11  1  0
 11 12  1  0
 12 13  2  0
 12 14  1  0
 14 15  2  3
 15 16  1  0
 16 17  2  0
 17 18  1  0
 18 19  2  0
 19 20  1  0
 20 21  2  0
 20 22  1  0
 19 23  1  0
 23 24  2  0
 14 25  1  0
 25 26  1  0
 26 27  2  0
  9  4  1  0
 26 11  1  0
 24 16  1  0
  3 28  1  0
  3 29  1  0
  5 30  1  0
  6 31  1  0
  7 32  1  0
  8 33  1  0
  9 34  1  0
 10 35  1  0
 15 36  1  0
 17 37  1  0
 18 38  1  0
 22 39  1  0
 23 40  1  0
 24 41  1  0
M  END
$$$$
