
     RDKit          3D

 50 53  0  0  0  0  0  0  0  0999 V2000
   -6.5349   -2.9245    1.6638 C   0  0  0  0  0  0  0  0  0  0  0  0
   -6.4892   -2.1686    0.4007 C   0  0  0  0  0  0  0  0  0  0  0  0
   -6.3176   -0.8449    0.0780 C   0  0  0  0  0  0  0  0  0  0  0  0
   -6.3893   -0.8156   -1.3288 C   0  0  0  0  0  0  0  0  0  0  0  0
   -6.2828    0.2588   -2.1900 N   0  0  0  0  0  0  0  0  0  0  0  0
   -5.7689    1.7849   -1.7875 S   0  0  0  0  0  6  0  0  0  0  0  0
   -5.7745    2.5690   -3.0035 O   0  0  0  0  0  0  0  0  0  0  0  0
   -6.4774    2.2251   -0.6041 O   0  0  0  0  0  0  0  0  0  0  0  0
   -4.0662    1.5264   -1.3473 C   0  0  0  0  0  0  0  0  0  0  0  0
   -3.6253    1.8036   -0.0531 C   0  0  0  0  0  0  0  0  0  0  0  0
   -2.2821    1.5956    0.2740 C   0  0  0  0  0  0  0  0  0  0  0  0
   -1.3746    1.1163   -0.6826 C   0  0  0  0  0  0  0  0  0  0  0  0
   -0.0398    0.9352   -0.2653 N   0  0  0  0  0  0  0  0  0  0  0  0
    1.0233    0.4596   -1.0175 C   0  0  0  0  0  0  0  0  0  0  0  0
    0.9856    0.1008   -2.1881 O   0  0  0  0  0  0  0  0  0  0  0  0
    2.3040    0.4222   -0.2071 C   0  0  0  0  0  0  0  0  0  0  0  0
    3.4667   -0.1134   -1.0344 C   0  0  0  0  0  0  0  0  0  0  0  0
    4.6948   -0.1537   -0.2599 N   0  0  0  0  0  0  0  0  0  0  0  0
    5.0569   -1.1992    0.5451 C   0  0  0  0  0  0  0  0  0  0  0  0
    4.4672   -2.2399    0.7628 O   0  0  0  0  0  0  0  0  0  0  0  0
    6.3210   -0.8202    1.1738 C   0  0  0  0  0  0  0  0  0  0  0  0
    7.1306   -1.5169    2.0492 C   0  0  0  0  0  0  0  0  0  0  0  0
    8.2896   -0.8737    2.4956 C   0  0  0  0  0  0  0  0  0  0  0  0
    8.6040    0.4328    2.0654 C   0  0  0  0  0  0  0  0  0  0  0  0
    7.7650    1.1188    1.1814 C   0  0  0  0  0  0  0  0  0  0  0  0
    6.6293    0.4608    0.7520 C   0  0  0  0  0  0  0  0  0  0  0  0
    5.5620    0.8985   -0.1458 C   0  0  0  0  0  0  0  0  0  0  0  0
    5.4911    2.0083   -0.6371 O   0  0  0  0  0  0  0  0  0  0  0  0
   -1.8317    0.8544   -1.9773 C   0  0  0  0  0  0  0  0  0  0  0  0
   -3.1735    1.0623   -2.3148 C   0  0  0  0  0  0  0  0  0  0  0  0
   -6.5986   -2.0356   -1.8294 N   0  0  0  0  0  0  0  0  0  0  0  0
   -6.6555   -2.8871   -0.7409 O   0  0  0  0  0  0  0  0  0  0  0  0
   -5.7525   -3.6893    1.6818 H   0  0  0  0  0  0  0  0  0  0  0  0
   -6.3842   -2.2633    2.5227 H   0  0  0  0  0  0  0  0  0  0  0  0
   -7.5043   -3.4186    1.7804 H   0  0  0  0  0  0  0  0  0  0  0  0
   -6.1793   -0.0283    0.7694 H   0  0  0  0  0  0  0  0  0  0  0  0
   -6.3994    0.0725   -3.1824 H   0  0  0  0  0  0  0  0  0  0  0  0
   -4.3094    2.1850    0.7017 H   0  0  0  0  0  0  0  0  0  0  0  0
   -1.9561    1.8180    1.2874 H   0  0  0  0  0  0  0  0  0  0  0  0
    0.1599    1.1784    0.6973 H   0  0  0  0  0  0  0  0  0  0  0  0
    2.1438   -0.2119    0.6731 H   0  0  0  0  0  0  0  0  0  0  0  0
    2.5264    1.4370    0.1439 H   0  0  0  0  0  0  0  0  0  0  0  0
    3.6318    0.5219   -1.9125 H   0  0  0  0  0  0  0  0  0  0  0  0
    3.2463   -1.1285   -1.3848 H   0  0  0  0  0  0  0  0  0  0  0  0
    6.8751   -2.5203    2.3742 H   0  0  0  0  0  0  0  0  0  0  0  0
    8.9590   -1.3858    3.1849 H   0  0  0  0  0  0  0  0  0  0  0  0
    9.5120    0.9119    2.4284 H   0  0  0  0  0  0  0  0  0  0  0  0
    7.9931    2.1250    0.8447 H   0  0  0  0  0  0  0  0  0  0  0  0
   -1.1664    0.4923   -2.7557 H   0  0  0  0  0  0  0  0  0  0  0  0
   -3.5046    0.8641   -3.3318 H   0  0  0  0  0  0  0  0  0  0  0  0
  1  2  1  0
  2  3  2  0
  3  4  1  0
  4  5  1  0
  5  6  1  0
  6  7  2  0
  6  8  2  0
  6  9  1  0
  9 10  2  0
 10 11  1  0
 11 12  2  0
 12 13  1  0
 13 14  1  0
 14 15  2  0
 14 16  1  0
 16 17  1  0
 17 18  1  0
 18 19  1  0
 19 20  2  0
 19 21  1  0
 21 22  2  0
 22 23  1  0
 23 24  2  0
 24 25  1  0
 25 26  2  0
 26 27  1  0
 27 28  2  0
 12 29  1  0
 29 30  2  0
  4 31  2  0
 31 32  1  0
 32  2  1  0
 30  9  1  0
 27 18  1  0
 26 21  1  0
  1 33  1  0
  1 34  1  0
  1 35  1  0
  3 36  1  0
  5 37  1  0
 10 38  1  0
 11 39  1  0
 13 40  1  0
 16 41  1  0
 16 42  1  0
 17 43  1  0
 17 44  1  0
 22 45  1  0
 23 46  1  0
 24 47  1  0
 25 48  1  0
 29 49  1  0
 30 50  1  0
M  END
$$$$
