
     RDKit          3D

 36 37  0  0  0  0  0  0  0  0999 V2000
    0.0639    0.7721   -1.3819 O   0  0  0  0  0  0  0  0  0  0  0  0
    0.1807    0.3098   -0.2504 C   0  0  0  0  0  0  0  0  0  0  0  0
   -0.9457   -0.3981    0.5010 C   0  0  0  0  0  0  0  0  0  0  0  0
   -2.1328   -0.4516   -0.2855 O   0  0  0  0  0  0  0  0  0  0  0  0
   -3.1569   -1.0814    0.3295 C   0  0  0  0  0  0  0  0  0  0  0  0
   -3.1647   -1.5855    1.4378 O   0  0  0  0  0  0  0  0  0  0  0  0
   -4.3030   -1.0649   -0.5790 C   0  0  0  0  0  0  0  0  0  0  0  0
   -4.4897   -2.1128   -1.4854 C   0  0  0  0  0  0  0  0  0  0  0  0
   -3.3982   -3.4475   -1.5927 Cl  0  0  0  0  0  0  0  0  0  0  0  0
   -5.5916   -2.0989   -2.3461 C   0  0  0  0  0  0  0  0  0  0  0  0
   -6.5045   -1.0446   -2.2996 C   0  0  0  0  0  0  0  0  0  0  0  0
   -6.3184   -0.0016   -1.3913 C   0  0  0  0  0  0  0  0  0  0  0  0
   -5.2185   -0.0096   -0.5279 C   0  0  0  0  0  0  0  0  0  0  0  0
   -5.0468    1.3106    0.5729 Cl  0  0  0  0  0  0  0  0  0  0  0  0
    1.3536    0.3935    0.4750 N   0  0  0  0  0  0  0  0  0  0  0  0
    2.5752    0.8887   -0.1361 C   0  0  0  0  0  0  0  0  0  0  0  0
    3.6230    1.2146    0.9258 C   0  0  0  0  0  0  0  0  0  0  0  0
    4.9415    1.6950    0.3455 C   0  0  0  0  0  0  0  0  0  0  0  0
    5.9078    1.3181    1.4403 C   0  0  0  0  0  0  0  0  0  0  0  0
    5.3520   -0.0105    1.9074 C   0  0  0  0  0  0  0  0  0  0  0  0
    3.9322    0.0300    1.6946 O   0  0  0  0  0  0  0  0  0  0  0  0
   -1.1395    0.1596    1.4248 H   0  0  0  0  0  0  0  0  0  0  0  0
   -0.6101   -1.4158    0.7330 H   0  0  0  0  0  0  0  0  0  0  0  0
   -5.7443   -2.9085   -3.0571 H   0  0  0  0  0  0  0  0  0  0  0  0
   -7.3606   -1.0356   -2.9711 H   0  0  0  0  0  0  0  0  0  0  0  0
   -7.0351    0.8166   -1.3613 H   0  0  0  0  0  0  0  0  0  0  0  0
    1.4822   -0.2322    1.2638 H   0  0  0  0  0  0  0  0  0  0  0  0
    2.9308    0.0938   -0.8018 H   0  0  0  0  0  0  0  0  0  0  0  0
    2.3450    1.7710   -0.7429 H   0  0  0  0  0  0  0  0  0  0  0  0
    3.2262    1.9535    1.6334 H   0  0  0  0  0  0  0  0  0  0  0  0
    4.9402    2.7641    0.1161 H   0  0  0  0  0  0  0  0  0  0  0  0
    5.1916    1.1466   -0.5708 H   0  0  0  0  0  0  0  0  0  0  0  0
    5.8539    2.0526    2.2526 H   0  0  0  0  0  0  0  0  0  0  0  0
    6.9468    1.2524    1.1072 H   0  0  0  0  0  0  0  0  0  0  0  0
    5.5607   -0.2052    2.9631 H   0  0  0  0  0  0  0  0  0  0  0  0
    5.7529   -0.8385    1.3133 H   0  0  0  0  0  0  0  0  0  0  0  0
  1  2  2  0
  2  3  1  0
  3  4  1  0
  4  5  1  0
  5  6  2  0
  5  7  1  0
  7  8  2  0
  8  9  1  0
  8 10  1  0
 10 11  2  0
 11 12  1  0
 12 13  2  0
 13 14  1  0
  2 15  1  0
 15 16  1  0
 16 17  1  0
 17 18  1  0
 18 19  1  0
 19 20  1  0
 20 21  1  0
 13  7  1  0
 21 17  1  0
  3 22  1  0
  3 23  1  0
 10 24  1  0
 11 25  1  0
 12 26  1  0
 15 27  1  0
 16 28  1  0
 16 29  1  0
 17 30  1  0
 18 31  1  0
 18 32  1  0
 19 33  1  0
 19 34  1  0
 20 35  1  0
 20 36  1  0
M  END
$$$$
