
     RDKit          3D

 33 34  0  0  0  0  0  0  0  0999 V2000
   -5.1365    0.1406    2.0154 C   0  0  0  0  0  0  0  0  0  0  0  0
   -3.9989    0.9125    2.3776 O   0  0  0  0  0  0  0  0  0  0  0  0
   -2.8952    0.8211    1.5746 C   0  0  0  0  0  0  0  0  0  0  0  0
   -1.8122    1.5938    1.9954 C   0  0  0  0  0  0  0  0  0  0  0  0
   -0.6209    1.5916    1.2732 C   0  0  0  0  0  0  0  0  0  0  0  0
   -0.5039    0.8036    0.1223 C   0  0  0  0  0  0  0  0  0  0  0  0
    0.7985    0.8424   -0.5909 C   0  0  0  0  0  0  0  0  0  0  0  0
    1.3449    1.9341   -0.7490 O   0  0  0  0  0  0  0  0  0  0  0  0
    1.3937   -0.4621   -1.0762 C   0  0  0  0  0  0  0  0  0  0  0  0
    2.8247   -0.5283   -0.6711 C   0  0  0  0  0  0  0  0  0  0  0  0
    3.2519   -1.0369    0.4672 N   0  0  0  0  0  0  0  0  0  0  0  0
    4.6254   -0.9822    0.5809 N   0  0  0  0  0  0  0  0  0  0  0  0
    5.1903   -0.4401   -0.4770 C   0  0  0  0  0  0  0  0  0  0  0  0
    6.6487   -0.2300   -0.6493 C   0  0  0  0  0  0  0  0  0  0  0  0
    4.0831    0.0218   -1.7060 S   0  0  0  0  0  0  0  0  0  0  0  0
   -1.5929    0.0400   -0.3304 C   0  0  0  0  0  0  0  0  0  0  0  0
   -1.4166   -0.6546   -1.4990 O   0  0  0  0  0  0  0  0  0  0  0  0
   -2.5362   -1.3507   -2.0348 C   0  0  0  0  0  0  0  0  0  0  0  0
   -2.7842    0.0493    0.4121 C   0  0  0  0  0  0  0  0  0  0  0  0
   -4.9070   -0.9300    2.0269 H   0  0  0  0  0  0  0  0  0  0  0  0
   -5.9156    0.3222    2.7620 H   0  0  0  0  0  0  0  0  0  0  0  0
   -5.5294    0.4511    1.0416 H   0  0  0  0  0  0  0  0  0  0  0  0
   -1.8969    2.2022    2.8932 H   0  0  0  0  0  0  0  0  0  0  0  0
    0.2159    2.2000    1.6114 H   0  0  0  0  0  0  0  0  0  0  0  0
    1.2697   -0.5245   -2.1623 H   0  0  0  0  0  0  0  0  0  0  0  0
    0.8774   -1.3163   -0.6253 H   0  0  0  0  0  0  0  0  0  0  0  0
    6.8764    0.8320   -0.7847 H   0  0  0  0  0  0  0  0  0  0  0  0
    7.0224   -0.7829   -1.5170 H   0  0  0  0  0  0  0  0  0  0  0  0
    7.1934   -0.5809    0.2331 H   0  0  0  0  0  0  0  0  0  0  0  0
   -2.2247   -1.8043   -2.9807 H   0  0  0  0  0  0  0  0  0  0  0  0
   -3.3625   -0.6654   -2.2504 H   0  0  0  0  0  0  0  0  0  0  0  0
   -2.8522   -2.1586   -1.3670 H   0  0  0  0  0  0  0  0  0  0  0  0
   -3.6305   -0.5402    0.0842 H   0  0  0  0  0  0  0  0  0  0  0  0
  1  2  1  0
  2  3  1  0
  3  4  2  0
  4  5  1  0
  5  6  2  0
  6  7  1  0
  7  8  2  0
  7  9  1  0
  9 10  1  0
 10 11  2  0
 11 12  1  0
 12 13  2  0
 13 14  1  0
 13 15  1  0
  6 16  1  0
 16 17  1  0
 17 18  1  0
 16 19  2  0
 19  3  1  0
 15 10  1  0
  1 20  1  0
  1 21  1  0
  1 22  1  0
  4 23  1  0
  5 24  1  0
  9 25  1  0
  9 26  1  0
 14 27  1  0
 14 28  1  0
 14 29  1  0
 18 30  1  0
 18 31  1  0
 18 32  1  0
 19 33  1  0
M  END
$$$$
