
     RDKit          3D

 57 60  0  0  0  0  0  0  0  0999 V2000
    4.5790    3.9698    0.8395 O   0  0  0  0  0  0  0  0  0  0  0  0
    4.3964    2.5834    1.2062 S   0  0  0  0  0  6  0  0  0  0  0  0
    5.1293    1.9755    2.2935 O   0  0  0  0  0  0  0  0  0  0  0  0
    4.6687    1.6893   -0.1848 N   0  0  0  0  0  0  0  0  0  0  0  0
    4.8830    0.2402   -0.0938 C   0  0  0  0  0  0  0  0  0  0  0  0
    4.4178   -0.4156   -1.4020 C   0  0  0  0  0  0  0  0  0  0  0  0
    5.6792   -0.8937   -2.1209 C   0  0  0  0  0  0  0  0  0  0  0  0
    6.8256   -0.1560   -1.4511 C   0  0  0  0  0  0  0  0  0  0  0  0
    6.3770   -0.0655   -0.0009 C   0  0  0  0  0  0  0  0  0  0  0  0
    2.6589    2.3208    1.4677 C   0  0  0  0  0  0  0  0  0  0  0  0
    1.7368    3.0261    0.6852 C   0  0  0  0  0  0  0  0  0  0  0  0
    0.3708    2.8368    0.8953 C   0  0  0  0  0  0  0  0  0  0  0  0
   -0.0570    1.9471    1.8878 C   0  0  0  0  0  0  0  0  0  0  0  0
   -1.8011    1.7144    2.1372 S   0  0  0  0  0  6  0  0  0  0  0  0
   -2.3773    3.0220    2.3608 O   0  0  0  0  0  0  0  0  0  0  0  0
   -1.9908    0.6285    3.0758 O   0  0  0  0  0  0  0  0  0  0  0  0
   -2.3214    1.1544    0.6127 N   0  0  0  0  0  0  0  0  0  0  0  0
   -1.8156   -0.2046    0.2198 C   0  0  0  0  0  0  0  0  0  0  0  0
   -2.8920   -1.2990    0.3398 C   0  0  0  0  0  0  0  0  0  0  0  0
   -4.0429   -0.9905   -0.5230 N   0  0  0  0  0  0  0  0  0  0  0  0
   -4.9131   -1.9757   -0.9604 C   0  0  0  0  0  0  0  0  0  0  0  0
   -5.7774   -1.7644   -2.0480 C   0  0  0  0  0  0  0  0  0  0  0  0
   -6.6581   -2.7541   -2.5018 C   0  0  0  0  0  0  0  0  0  0  0  0
   -6.6962   -3.9927   -1.8749 C   0  0  0  0  0  0  0  0  0  0  0  0
   -5.8509   -4.2377   -0.8001 C   0  0  0  0  0  0  0  0  0  0  0  0
   -4.9725   -3.2415   -0.3549 C   0  0  0  0  0  0  0  0  0  0  0  0
   -4.3409    0.4371   -0.7353 C   0  0  0  0  0  0  0  0  0  0  0  0
   -3.8058    1.2992    0.4229 C   0  0  0  0  0  0  0  0  0  0  0  0
    0.8633    1.2541    2.6815 C   0  0  0  0  0  0  0  0  0  0  0  0
    2.2300    1.4450    2.4720 C   0  0  0  0  0  0  0  0  0  0  0  0
    5.1278    2.2179   -0.9255 H   0  0  0  0  0  0  0  0  0  0  0  0
    4.3308   -0.1726    0.7564 H   0  0  0  0  0  0  0  0  0  0  0  0
    3.8501    0.2769   -2.0344 H   0  0  0  0  0  0  0  0  0  0  0  0
    3.7645   -1.2709   -1.1963 H   0  0  0  0  0  0  0  0  0  0  0  0
    5.7965   -1.9748   -1.9763 H   0  0  0  0  0  0  0  0  0  0  0  0
    5.6382   -0.7052   -3.1978 H   0  0  0  0  0  0  0  0  0  0  0  0
    6.9375    0.8454   -1.8819 H   0  0  0  0  0  0  0  0  0  0  0  0
    7.7780   -0.6823   -1.5599 H   0  0  0  0  0  0  0  0  0  0  0  0
    6.5247   -1.0361    0.4878 H   0  0  0  0  0  0  0  0  0  0  0  0
    6.9483    0.6838    0.5552 H   0  0  0  0  0  0  0  0  0  0  0  0
    2.0771    3.7225   -0.0786 H   0  0  0  0  0  0  0  0  0  0  0  0
   -0.3542    3.3838    0.2956 H   0  0  0  0  0  0  0  0  0  0  0  0
   -1.4715   -0.1302   -0.8195 H   0  0  0  0  0  0  0  0  0  0  0  0
   -0.9409   -0.4899    0.8126 H   0  0  0  0  0  0  0  0  0  0  0  0
   -3.2257   -1.3908    1.3801 H   0  0  0  0  0  0  0  0  0  0  0  0
   -2.4298   -2.2472    0.0408 H   0  0  0  0  0  0  0  0  0  0  0  0
   -5.7639   -0.8211   -2.5867 H   0  0  0  0  0  0  0  0  0  0  0  0
   -7.3082   -2.5521   -3.3490 H   0  0  0  0  0  0  0  0  0  0  0  0
   -7.3786   -4.7629   -2.2227 H   0  0  0  0  0  0  0  0  0  0  0  0
   -5.8726   -5.2020   -0.2992 H   0  0  0  0  0  0  0  0  0  0  0  0
   -4.3474   -3.4756    0.5020 H   0  0  0  0  0  0  0  0  0  0  0  0
   -3.8877    0.7584   -1.6809 H   0  0  0  0  0  0  0  0  0  0  0  0
   -5.4216    0.6122   -0.7984 H   0  0  0  0  0  0  0  0  0  0  0  0
   -4.0256    2.3523    0.2144 H   0  0  0  0  0  0  0  0  0  0  0  0
   -4.3253    1.0136    1.3466 H   0  0  0  0  0  0  0  0  0  0  0  0
    0.5269    0.5775    3.4647 H   0  0  0  0  0  0  0  0  0  0  0  0
    2.9498    0.9167    3.0944 H   0  0  0  0  0  0  0  0  0  0  0  0
  1  2  2  0
  2  3  2  0
  2  4  1  0
  4  5  1  0
  5  6  1  0
  6  7  1  0
  7  8  1  0
  8  9  1  0
  2 10  1  0
 10 11  2  0
 11 12  1  0
 12 13  2  0
 13 14  1  0
 14 15  2  0
 14 16  2  0
 14 17  1  0
 17 18  1  0
 18 19  1  0
 19 20  1  0
 20 21  1  0
 21 22  2  0
 22 23  1  0
 23 24  2  0
 24 25  1  0
 25 26  2  0
 20 27  1  0
 27 28  1  0
 13 29  1  0
 29 30  2  0
  9  5  1  0
 30 10  1  0
 28 17  1  0
 26 21  1  0
  4 31  1  0
  5 32  1  0
  6 33  1  0
  6 34  1  0
  7 35  1  0
  7 36  1  0
  8 37  1  0
  8 38  1  0
  9 39  1  0
  9 40  1  0
 11 41  1  0
 12 42  1  0
 18 43  1  0
 18 44  1  0
 19 45  1  0
 19 46  1  0
 22 47  1  0
 23 48  1  0
 24 49  1  0
 25 50  1  0
 26 51  1  0
 27 52  1  0
 27 53  1  0
 28 54  1  0
 28 55  1  0
 29 56  1  0
 30 57  1  0
M  END
$$$$
