
     RDKit          3D

 46 48  0  0  0  0  0  0  0  0999 V2000
    7.3085    1.4486   -0.1718 C   0  0  0  0  0  0  0  0  0  0  0  0
    6.1808    0.8368    0.4420 O   0  0  0  0  0  0  0  0  0  0  0  0
    6.2007   -0.5891    0.3496 C   0  0  0  0  0  0  0  0  0  0  0  0
    5.5271   -1.0836   -0.9391 C   0  0  0  0  0  0  0  0  0  0  0  0
    4.1028   -0.7371   -0.9856 N   0  0  0  0  0  0  0  0  0  0  0  0
    3.2292   -1.4678   -0.1990 C   0  0  0  0  0  0  0  0  0  0  0  0
    3.5288   -2.4240    0.5044 O   0  0  0  0  0  0  0  0  0  0  0  0
    1.8498   -0.9333   -0.3225 C   0  0  0  0  0  0  0  0  0  0  0  0
    0.8230   -1.4682    0.3507 C   0  0  0  0  0  0  0  0  0  0  0  0
   -0.5638   -0.9927    0.2933 C   0  0  0  0  0  0  0  0  0  0  0  0
   -1.3778   -1.4135   -0.7600 C   0  0  0  0  0  0  0  0  0  0  0  0
   -2.7054   -0.9777   -0.8529 C   0  0  0  0  0  0  0  0  0  0  0  0
   -3.2722   -0.1113    0.0910 C   0  0  0  0  0  0  0  0  0  0  0  0
   -4.5761    0.3145   -0.0055 N   0  0  0  0  0  0  0  0  0  0  0  0
   -5.2577    1.1186    1.0056 C   0  0  0  0  0  0  0  0  0  0  0  0
   -6.7208    1.0895    0.5714 C   0  0  0  0  0  0  0  0  0  0  0  0
   -6.6259    0.9983   -0.9412 C   0  0  0  0  0  0  0  0  0  0  0  0
   -5.4394    0.0619   -1.1570 C   0  0  0  0  0  0  0  0  0  0  0  0
   -2.4331    0.2948    1.1426 C   0  0  0  0  0  0  0  0  0  0  0  0
   -1.0936   -0.1313    1.2640 C   0  0  0  0  0  0  0  0  0  0  0  0
   -0.2649    0.3681    2.4161 C   0  0  0  0  0  0  0  0  0  0  0  0
    1.8279    0.4053   -1.3955 S   0  0  0  0  0  0  0  0  0  0  0  0
    3.5593    0.3077   -1.7042 C   0  0  0  0  0  0  0  0  0  0  0  0
    4.3201    1.3520   -2.7609 S   0  0  0  0  0  0  0  0  0  0  0  0
    8.2229    1.1747    0.3632 H   0  0  0  0  0  0  0  0  0  0  0  0
    7.3918    1.1616   -1.2233 H   0  0  0  0  0  0  0  0  0  0  0  0
    7.1845    2.5333   -0.1136 H   0  0  0  0  0  0  0  0  0  0  0  0
    5.6651   -0.9691    1.2255 H   0  0  0  0  0  0  0  0  0  0  0  0
    7.2292   -0.9639    0.4141 H   0  0  0  0  0  0  0  0  0  0  0  0
    5.6108   -2.1760   -0.9827 H   0  0  0  0  0  0  0  0  0  0  0  0
    6.0406   -0.6813   -1.8155 H   0  0  0  0  0  0  0  0  0  0  0  0
    0.9844   -2.3165    1.0132 H   0  0  0  0  0  0  0  0  0  0  0  0
   -0.9918   -2.0851   -1.5232 H   0  0  0  0  0  0  0  0  0  0  0  0
   -3.2941   -1.3436   -1.6889 H   0  0  0  0  0  0  0  0  0  0  0  0
   -4.8743    2.1453    0.9927 H   0  0  0  0  0  0  0  0  0  0  0  0
   -5.1554    0.7044    2.0143 H   0  0  0  0  0  0  0  0  0  0  0  0
   -7.2140    0.1943    0.9693 H   0  0  0  0  0  0  0  0  0  0  0  0
   -7.2764    1.9675    0.9122 H   0  0  0  0  0  0  0  0  0  0  0  0
   -6.4057    1.9871   -1.3616 H   0  0  0  0  0  0  0  0  0  0  0  0
   -7.5433    0.6254   -1.4050 H   0  0  0  0  0  0  0  0  0  0  0  0
   -5.7696   -0.9832   -1.1567 H   0  0  0  0  0  0  0  0  0  0  0  0
   -4.9509    0.2885   -2.1108 H   0  0  0  0  0  0  0  0  0  0  0  0
   -2.8181    0.9759    1.8972 H   0  0  0  0  0  0  0  0  0  0  0  0
   -0.8667    0.9501    3.1222 H   0  0  0  0  0  0  0  0  0  0  0  0
    0.5394    1.0153    2.0522 H   0  0  0  0  0  0  0  0  0  0  0  0
    0.1643   -0.4713    2.9727 H   0  0  0  0  0  0  0  0  0  0  0  0
  1  2  1  0
  2  3  1  0
  3  4  1  0
  4  5  1  0
  5  6  1  0
  6  7  2  0
  6  8  1  0
  8  9  2  3
  9 10  1  0
 10 11  2  0
 11 12  1  0
 12 13  2  0
 13 14  1  0
 14 15  1  0
 15 16  1  0
 16 17  1  0
 17 18  1  0
 13 19  1  0
 19 20  2  0
 20 21  1  0
  8 22  1  0
 22 23  1  0
 23 24  2  0
 23  5  1  0
 20 10  1  0
 18 14  1  0
  1 25  1  0
  1 26  1  0
  1 27  1  0
  3 28  1  0
  3 29  1  0
  4 30  1  0
  4 31  1  0
  9 32  1  0
 11 33  1  0
 12 34  1  0
 15 35  1  0
 15 36  1  0
 16 37  1  0
 16 38  1  0
 17 39  1  0
 17 40  1  0
 18 41  1  0
 18 42  1  0
 19 43  1  0
 21 44  1  0
 21 45  1  0
 21 46  1  0
M  END
$$$$
