
     RDKit          3D

 52 55  0  0  0  0  0  0  0  0999 V2000
   -3.5239   -1.9267    1.0545 C   0  0  0  0  0  0  0  0  0  0  0  0
   -3.2580   -0.5372    1.2313 O   0  0  0  0  0  0  0  0  0  0  0  0
   -4.2792    0.1508    1.8601 C   0  0  0  0  0  0  0  0  0  0  0  0
   -5.3899   -0.5488    2.2101 N   0  0  0  0  0  0  0  0  0  0  0  0
   -6.3875    0.1303    2.8146 C   0  0  0  0  0  0  0  0  0  0  0  0
   -6.3352    1.4833    3.0904 C   0  0  0  0  0  0  0  0  0  0  0  0
   -5.1890    2.1829    2.7239 C   0  0  0  0  0  0  0  0  0  0  0  0
   -4.1256    1.5181    2.0956 C   0  0  0  0  0  0  0  0  0  0  0  0
   -2.9290    2.3273    1.7260 C   0  0  0  0  0  0  0  0  0  0  0  0
   -2.9536    3.5481    1.8571 O   0  0  0  0  0  0  0  0  0  0  0  0
   -1.8249    1.6651    1.2475 N   0  0  0  0  0  0  0  0  0  0  0  0
   -0.6532    2.3646    0.7601 C   0  0  0  0  0  0  0  0  0  0  0  0
   -0.8732    2.8890   -0.6777 C   0  0  0  0  0  0  0  0  0  0  0  0
   -0.8136    1.7559   -1.7198 C   0  0  0  0  0  0  0  0  0  0  0  0
    0.5486    1.0337   -1.7250 C   0  0  0  0  0  0  0  0  0  0  0  0
    1.0235    0.7890   -0.3333 C   0  0  0  0  0  0  0  0  0  0  0  0
    0.4767    1.3933    0.7863 C   0  0  0  0  0  0  0  0  0  0  0  0
    1.1806    0.8544    1.8652 C   0  0  0  0  0  0  0  0  0  0  0  0
    2.0949   -0.0308    1.4784 N   0  0  0  0  0  0  0  0  0  0  0  0
    2.0484   -0.0391    0.1114 N   0  0  0  0  0  0  0  0  0  0  0  0
    2.9929   -0.8422   -0.6042 C   0  0  0  0  0  0  0  0  0  0  0  0
    3.1640   -0.7616   -1.9906 C   0  0  0  0  0  0  0  0  0  0  0  0
    4.1032   -1.5735   -2.6496 C   0  0  0  0  0  0  0  0  0  0  0  0
    4.2559   -1.5023   -4.1416 C   0  0  0  0  0  0  0  0  0  0  0  0
    4.8669   -2.4849   -1.9120 C   0  0  0  0  0  0  0  0  0  0  0  0
    4.7337   -2.5640   -0.5234 C   0  0  0  0  0  0  0  0  0  0  0  0
    5.5503   -3.5345    0.2771 C   0  0  0  0  0  0  0  0  0  0  0  0
    3.7975   -1.7422    0.1200 C   0  0  0  0  0  0  0  0  0  0  0  0
   -2.6538   -2.3704    0.5613 H   0  0  0  0  0  0  0  0  0  0  0  0
   -3.6534   -2.4335    2.0176 H   0  0  0  0  0  0  0  0  0  0  0  0
   -4.3910   -2.0836    0.4033 H   0  0  0  0  0  0  0  0  0  0  0  0
   -7.2588   -0.4624    3.0802 H   0  0  0  0  0  0  0  0  0  0  0  0
   -7.1637    1.9852    3.5775 H   0  0  0  0  0  0  0  0  0  0  0  0
   -5.1246    3.2494    2.9327 H   0  0  0  0  0  0  0  0  0  0  0  0
   -1.8898    0.6656    1.0797 H   0  0  0  0  0  0  0  0  0  0  0  0
   -0.4483    3.2114    1.4250 H   0  0  0  0  0  0  0  0  0  0  0  0
   -1.8343    3.4098   -0.7577 H   0  0  0  0  0  0  0  0  0  0  0  0
   -0.0913    3.6214   -0.9175 H   0  0  0  0  0  0  0  0  0  0  0  0
   -1.6105    1.0308   -1.5104 H   0  0  0  0  0  0  0  0  0  0  0  0
   -1.0109    2.1604   -2.7191 H   0  0  0  0  0  0  0  0  0  0  0  0
    0.4384    0.0963   -2.2788 H   0  0  0  0  0  0  0  0  0  0  0  0
    1.2738    1.6701   -2.2450 H   0  0  0  0  0  0  0  0  0  0  0  0
    1.0527    1.0517    2.9220 H   0  0  0  0  0  0  0  0  0  0  0  0
    2.6127   -0.0567   -2.5966 H   0  0  0  0  0  0  0  0  0  0  0  0
    3.6225   -2.2564   -4.6189 H   0  0  0  0  0  0  0  0  0  0  0  0
    5.2970   -1.6743   -4.4336 H   0  0  0  0  0  0  0  0  0  0  0  0
    3.9728   -0.5141   -4.5195 H   0  0  0  0  0  0  0  0  0  0  0  0
    5.5792   -3.1292   -2.4239 H   0  0  0  0  0  0  0  0  0  0  0  0
    6.0170   -3.0275    1.1283 H   0  0  0  0  0  0  0  0  0  0  0  0
    6.3528   -3.9735   -0.3251 H   0  0  0  0  0  0  0  0  0  0  0  0
    4.9154   -4.3460    0.6464 H   0  0  0  0  0  0  0  0  0  0  0  0
    3.6945   -1.8223    1.2022 H   0  0  0  0  0  0  0  0  0  0  0  0
  1  2  1  0
  2  3  1  0
  3  4  2  0
  4  5  1  0
  5  6  2  0
  6  7  1  0
  7  8  2  0
  8  9  1  0
  9 10  2  0
  9 11  1  0
 11 12  1  0
 12 13  1  0
 13 14  1  0
 14 15  1  0
 15 16  1  0
 16 17  2  0
 17 18  1  0
 18 19  2  0
 19 20  1  0
 20 21  1  0
 21 22  2  0
 22 23  1  0
 23 24  1  0
 23 25  2  0
 25 26  1  0
 26 27  1  0
 26 28  2  0
  8  3  1  0
 17 12  1  0
 28 21  1  0
 20 16  1  0
  1 29  1  0
  1 30  1  0
  1 31  1  0
  5 32  1  0
  6 33  1  0
  7 34  1  0
 11 35  1  0
 12 36  1  0
 13 37  1  0
 13 38  1  0
 14 39  1  0
 14 40  1  0
 15 41  1  0
 15 42  1  0
 18 43  1  0
 22 44  1  0
 24 45  1  0
 24 46  1  0
 24 47  1  0
 25 48  1  0
 27 49  1  0
 27 50  1  0
 27 51  1  0
 28 52  1  0
M  END
$$$$
