
     RDKit          3D

 47 49  0  0  0  0  0  0  0  0999 V2000
    5.6511   -0.6698    1.4499 C   0  0  0  0  0  0  0  0  0  0  0  0
    5.1724   -2.1191    1.4327 C   0  0  0  0  0  0  0  0  0  0  0  0
    3.8130   -2.3534    0.9451 N   0  0  0  0  0  0  0  0  0  0  0  0
    2.7662   -1.8844    1.8670 C   0  0  0  0  0  0  0  0  0  0  0  0
    1.3730   -1.7808    1.2063 C   0  0  0  0  0  0  0  0  0  0  0  0
    1.3695   -0.7966    0.0940 N   0  0  0  0  0  0  0  0  0  0  0  0
    0.2543    0.0113   -0.1993 C   0  0  0  0  0  0  0  0  0  0  0  0
   -1.0034   -0.3033    0.1800 C   0  0  0  0  0  0  0  0  0  0  0  0
   -2.1713    0.5392   -0.0298 C   0  0  0  0  0  0  0  0  0  0  0  0
   -3.4100    0.0860    0.2422 C   0  0  0  0  0  0  0  0  0  0  0  0
   -4.6279    0.8889    0.0792 C   0  0  0  0  0  0  0  0  0  0  0  0
   -5.8769    0.3761    0.2233 C   0  0  0  0  0  0  0  0  0  0  0  0
   -6.1069   -0.9980    0.5295 C   0  0  0  0  0  0  0  0  0  0  0  0
   -6.2832   -2.1170    0.7827 N   0  0  0  0  0  0  0  0  0  0  0  0
   -7.0375    1.1936    0.0866 C   0  0  0  0  0  0  0  0  0  0  0  0
   -7.9733    1.8710   -0.0256 N   0  0  0  0  0  0  0  0  0  0  0  0
   -4.3748    2.3553   -0.2507 C   0  0  0  0  0  0  0  0  0  0  0  0
   -3.1780    2.5362   -1.1828 C   0  0  0  0  0  0  0  0  0  0  0  0
   -1.9140    1.9317   -0.5604 C   0  0  0  0  0  0  0  0  0  0  0  0
   -0.7728    1.9147   -1.5771 C   0  0  0  0  0  0  0  0  0  0  0  0
    0.4939    1.3033   -0.9735 C   0  0  0  0  0  0  0  0  0  0  0  0
    2.6783   -0.6526   -0.5872 C   0  0  0  0  0  0  0  0  0  0  0  0
    3.5670   -1.9100   -0.4364 C   0  0  0  0  0  0  0  0  0  0  0  0
    5.0399   -0.0432    2.1054 H   0  0  0  0  0  0  0  0  0  0  0  0
    6.6800   -0.6270    1.8230 H   0  0  0  0  0  0  0  0  0  0  0  0
    5.6484   -0.2287    0.4488 H   0  0  0  0  0  0  0  0  0  0  0  0
    5.8660   -2.7040    0.8155 H   0  0  0  0  0  0  0  0  0  0  0  0
    5.2667   -2.5352    2.4437 H   0  0  0  0  0  0  0  0  0  0  0  0
    3.0121   -0.8965    2.2742 H   0  0  0  0  0  0  0  0  0  0  0  0
    2.7062   -2.5775    2.7140 H   0  0  0  0  0  0  0  0  0  0  0  0
    0.6656   -1.4804    1.9883 H   0  0  0  0  0  0  0  0  0  0  0  0
    1.0548   -2.7583    0.8244 H   0  0  0  0  0  0  0  0  0  0  0  0
   -1.1841   -1.2505    0.6808 H   0  0  0  0  0  0  0  0  0  0  0  0
   -3.5159   -0.9368    0.6028 H   0  0  0  0  0  0  0  0  0  0  0  0
   -5.2412    2.8236   -0.7296 H   0  0  0  0  0  0  0  0  0  0  0  0
   -4.1943    2.8996    0.6856 H   0  0  0  0  0  0  0  0  0  0  0  0
   -3.0213    3.6040   -1.3779 H   0  0  0  0  0  0  0  0  0  0  0  0
   -3.3948    2.0652   -2.1512 H   0  0  0  0  0  0  0  0  0  0  0  0
   -1.6128    2.5615    0.2893 H   0  0  0  0  0  0  0  0  0  0  0  0
   -0.5550    2.9320   -1.9242 H   0  0  0  0  0  0  0  0  0  0  0  0
   -1.0648    1.3350   -2.4637 H   0  0  0  0  0  0  0  0  0  0  0  0
    0.9609    2.0273   -0.2937 H   0  0  0  0  0  0  0  0  0  0  0  0
    1.1907    1.1464   -1.8023 H   0  0  0  0  0  0  0  0  0  0  0  0
    2.5250   -0.4996   -1.6611 H   0  0  0  0  0  0  0  0  0  0  0  0
    3.1967    0.2266   -0.1875 H   0  0  0  0  0  0  0  0  0  0  0  0
    4.5045   -1.7668   -0.9875 H   0  0  0  0  0  0  0  0  0  0  0  0
    3.0579   -2.7391   -0.9459 H   0  0  0  0  0  0  0  0  0  0  0  0
  1  2  1  0
  2  3  1  0
  3  4  1  0
  4  5  1  0
  5  6  1  0
  6  7  1  0
  7  8  2  0
  8  9  1  0
  9 10  2  0
 10 11  1  0
 11 12  2  3
 12 13  1  0
 13 14  3  0
 12 15  1  0
 15 16  3  0
 11 17  1  0
 17 18  1  0
 18 19  1  0
 19 20  1  0
 20 21  1  0
  6 22  1  0
 22 23  1  0
 23  3  1  0
 21  7  1  0
 19  9  1  0
  1 24  1  0
  1 25  1  0
  1 26  1  0
  2 27  1  0
  2 28  1  0
  4 29  1  0
  4 30  1  0
  5 31  1  0
  5 32  1  0
  8 33  1  0
 10 34  1  0
 17 35  1  0
 17 36  1  0
 18 37  1  0
 18 38  1  0
 19 39  1  0
 20 40  1  0
 20 41  1  0
 21 42  1  0
 21 43  1  0
 22 44  1  0
 22 45  1  0
 23 46  1  0
 23 47  1  0
M  END
$$$$
