
     RDKit          3D

 51 53  0  0  0  0  0  0  0  0999 V2000
   -5.8976    1.6445    0.3210 C   0  0  0  0  0  0  0  0  0  0  0  0
   -4.7584    1.6938   -0.5249 O   0  0  0  0  0  0  0  0  0  0  0  0
   -3.7105    0.8559   -0.2334 C   0  0  0  0  0  0  0  0  0  0  0  0
   -3.6963   -0.0552    0.8271 C   0  0  0  0  0  0  0  0  0  0  0  0
   -2.5823   -0.8805    1.0521 C   0  0  0  0  0  0  0  0  0  0  0  0
   -1.4475   -0.7782    0.2272 C   0  0  0  0  0  0  0  0  0  0  0  0
   -1.4812    0.1242   -0.8532 C   0  0  0  0  0  0  0  0  0  0  0  0
   -2.5906    0.9483   -1.0792 C   0  0  0  0  0  0  0  0  0  0  0  0
   -2.6801    1.8543   -2.1081 O   0  0  0  0  0  0  0  0  0  0  0  0
   -1.4804    2.1795   -2.7962 C   0  0  0  0  0  0  0  0  0  0  0  0
   -0.2393   -1.6940    0.4453 C   0  0  0  0  0  0  0  0  0  0  0  0
    1.1026   -0.9897    0.2558 C   0  0  0  0  0  0  0  0  0  0  0  0
    1.4838    0.0629    1.1108 C   0  0  0  0  0  0  0  0  0  0  0  0
    2.7015    0.7227    0.9385 C   0  0  0  0  0  0  0  0  0  0  0  0
    3.1505    1.7558    1.7200 O   0  0  0  0  0  0  0  0  0  0  0  0
    2.3731    2.0938    2.8606 C   0  0  0  0  0  0  0  0  0  0  0  0
    3.5408    0.3257   -0.1158 C   0  0  0  0  0  0  0  0  0  0  0  0
    4.7644    0.9408   -0.2761 O   0  0  0  0  0  0  0  0  0  0  0  0
    4.6254    2.0730   -1.1321 C   0  0  0  0  0  0  0  0  0  0  0  0
    3.1964   -0.7405   -0.9646 C   0  0  0  0  0  0  0  0  0  0  0  0
    4.0999   -1.0508   -1.9485 O   0  0  0  0  0  0  0  0  0  0  0  0
    3.8974   -2.2620   -2.6624 C   0  0  0  0  0  0  0  0  0  0  0  0
    1.9722   -1.3864   -0.7763 C   0  0  0  0  0  0  0  0  0  0  0  0
   -0.2324   -2.3521    1.7659 N   0  0  0  0  0  0  0  0  0  0  0  0
   -1.5359   -2.9391    2.0623 C   0  0  0  0  0  0  0  0  0  0  0  0
   -2.5917   -1.8429    2.2144 C   0  0  0  0  0  0  0  0  0  0  0  0
   -6.6214    2.3768   -0.0498 H   0  0  0  0  0  0  0  0  0  0  0  0
   -5.6403    1.9234    1.3481 H   0  0  0  0  0  0  0  0  0  0  0  0
   -6.3744    0.6595    0.2848 H   0  0  0  0  0  0  0  0  0  0  0  0
   -4.5442   -0.1471    1.4982 H   0  0  0  0  0  0  0  0  0  0  0  0
   -0.6236    0.1694   -1.5168 H   0  0  0  0  0  0  0  0  0  0  0  0
   -1.1400    1.3371   -3.4068 H   0  0  0  0  0  0  0  0  0  0  0  0
   -0.6978    2.5097   -2.1047 H   0  0  0  0  0  0  0  0  0  0  0  0
   -1.6983    3.0117   -3.4726 H   0  0  0  0  0  0  0  0  0  0  0  0
   -0.3269   -2.4851   -0.3134 H   0  0  0  0  0  0  0  0  0  0  0  0
    0.7978    0.3415    1.9062 H   0  0  0  0  0  0  0  0  0  0  0  0
    2.2725    1.2412    3.5404 H   0  0  0  0  0  0  0  0  0  0  0  0
    1.3936    2.4852    2.5668 H   0  0  0  0  0  0  0  0  0  0  0  0
    2.8990    2.8878    3.3997 H   0  0  0  0  0  0  0  0  0  0  0  0
    5.6144    2.5259   -1.2505 H   0  0  0  0  0  0  0  0  0  0  0  0
    3.9602    2.8262   -0.6961 H   0  0  0  0  0  0  0  0  0  0  0  0
    4.2671    1.7815   -2.1256 H   0  0  0  0  0  0  0  0  0  0  0  0
    3.8350   -3.1200   -1.9846 H   0  0  0  0  0  0  0  0  0  0  0  0
    4.7631   -2.4151   -3.3139 H   0  0  0  0  0  0  0  0  0  0  0  0
    3.0099   -2.1961   -3.2999 H   0  0  0  0  0  0  0  0  0  0  0  0
    1.6665   -2.1986   -1.4278 H   0  0  0  0  0  0  0  0  0  0  0  0
    0.4841   -3.0757    1.7586 H   0  0  0  0  0  0  0  0  0  0  0  0
   -1.4729   -3.5057    2.9979 H   0  0  0  0  0  0  0  0  0  0  0  0
   -1.8224   -3.6506    1.2773 H   0  0  0  0  0  0  0  0  0  0  0  0
   -3.5782   -2.3133    2.3026 H   0  0  0  0  0  0  0  0  0  0  0  0
   -2.4067   -1.2734    3.1339 H   0  0  0  0  0  0  0  0  0  0  0  0
  1  2  1  0
  2  3  1  0
  3  4  2  0
  4  5  1  0
  5  6  2  0
  6  7  1  0
  7  8  2  0
  8  9  1  0
  9 10  1  0
  6 11  1  0
 11 12  1  0
 12 13  2  0
 13 14  1  0
 14 15  1  0
 15 16  1  0
 14 17  2  0
 17 18  1  0
 18 19  1  0
 17 20  1  0
 20 21  1  0
 21 22  1  0
 20 23  2  0
 11 24  1  0
 24 25  1  0
 25 26  1  0
  8  3  1  0
 23 12  1  0
 26  5  1  0
  1 27  1  0
  1 28  1  0
  1 29  1  0
  4 30  1  0
  7 31  1  0
 10 32  1  0
 10 33  1  0
 10 34  1  0
 11 35  1  0
 13 36  1  0
 16 37  1  0
 16 38  1  0
 16 39  1  0
 19 40  1  0
 19 41  1  0
 19 42  1  0
 22 43  1  0
 22 44  1  0
 22 45  1  0
 23 46  1  0
 24 47  1  0
 25 48  1  0
 25 49  1  0
 26 50  1  0
 26 51  1  0
M  END
$$$$
