
     RDKit          3D

 39 40  0  0  0  0  0  0  0  0999 V2000
   -6.6415    0.7351    1.5152 C   0  0  0  0  0  0  0  0  0  0  0  0
   -5.7808    1.1194    0.4529 O   0  0  0  0  0  0  0  0  0  0  0  0
   -4.4369    0.8789    0.5977 C   0  0  0  0  0  0  0  0  0  0  0  0
   -3.8609    0.2656    1.7177 C   0  0  0  0  0  0  0  0  0  0  0  0
   -2.4811    0.0602    1.7784 C   0  0  0  0  0  0  0  0  0  0  0  0
   -1.6769    0.4733    0.7165 C   0  0  0  0  0  0  0  0  0  0  0  0
   -0.2059    0.2619    0.7728 C   0  0  0  0  0  0  0  0  0  0  0  0
    0.5949    1.2674    0.5878 N   0  0  0  0  0  0  0  0  0  0  0  0
    0.2517   -1.0152    1.0033 N   0  0  0  0  0  0  0  0  0  0  0  0
    1.5661   -1.0573    1.4874 O   0  0  0  0  0  0  0  0  0  0  0  0
    2.4914   -1.2958    0.4992 C   0  0  0  0  0  0  0  0  0  0  0  0
    2.2384   -1.6378   -0.6506 O   0  0  0  0  0  0  0  0  0  0  0  0
    3.7522   -1.1338    1.0568 O   0  0  0  0  0  0  0  0  0  0  0  0
    4.8030   -1.2813    0.1484 C   0  0  0  0  0  0  0  0  0  0  0  0
    5.0389   -0.3084   -0.8227 C   0  0  0  0  0  0  0  0  0  0  0  0
    6.1266   -0.4553   -1.6824 C   0  0  0  0  0  0  0  0  0  0  0  0
    6.9743   -1.5582   -1.5549 C   0  0  0  0  0  0  0  0  0  0  0  0
    6.7401   -2.5151   -0.5644 C   0  0  0  0  0  0  0  0  0  0  0  0
    5.6535   -2.3747    0.2981 C   0  0  0  0  0  0  0  0  0  0  0  0
   -2.2350    1.0884   -0.4083 C   0  0  0  0  0  0  0  0  0  0  0  0
   -3.6165    1.2911   -0.4756 C   0  0  0  0  0  0  0  0  0  0  0  0
   -4.2616    1.8804   -1.5348 O   0  0  0  0  0  0  0  0  0  0  0  0
   -3.4800    2.2523   -2.6616 C   0  0  0  0  0  0  0  0  0  0  0  0
   -7.6634    1.0058    1.2325 H   0  0  0  0  0  0  0  0  0  0  0  0
   -6.6160   -0.3483    1.6716 H   0  0  0  0  0  0  0  0  0  0  0  0
   -6.3977    1.2747    2.4362 H   0  0  0  0  0  0  0  0  0  0  0  0
   -4.4607   -0.0580    2.5621 H   0  0  0  0  0  0  0  0  0  0  0  0
   -2.0452   -0.3954    2.6635 H   0  0  0  0  0  0  0  0  0  0  0  0
    0.0701    2.1368    0.4475 H   0  0  0  0  0  0  0  0  0  0  0  0
   -0.3673   -1.7112    1.4000 H   0  0  0  0  0  0  0  0  0  0  0  0
    4.3813    0.5514   -0.9156 H   0  0  0  0  0  0  0  0  0  0  0  0
    6.3144    0.2895   -2.4513 H   0  0  0  0  0  0  0  0  0  0  0  0
    7.8212   -1.6703   -2.2274 H   0  0  0  0  0  0  0  0  0  0  0  0
    7.4065   -3.3678   -0.4651 H   0  0  0  0  0  0  0  0  0  0  0  0
    5.4735   -3.1109    1.0752 H   0  0  0  0  0  0  0  0  0  0  0  0
   -1.5747    1.3816   -1.2181 H   0  0  0  0  0  0  0  0  0  0  0  0
   -2.7503    3.0246   -2.3973 H   0  0  0  0  0  0  0  0  0  0  0  0
   -4.1549    2.6759   -3.4116 H   0  0  0  0  0  0  0  0  0  0  0  0
   -2.9908    1.3807   -3.1090 H   0  0  0  0  0  0  0  0  0  0  0  0
  1  2  1  0
  2  3  1  0
  3  4  2  0
  4  5  1  0
  5  6  2  0
  6  7  1  0
  7  8  2  3
  7  9  1  0
  9 10  1  0
 10 11  1  0
 11 12  2  0
 11 13  1  0
 13 14  1  0
 14 15  2  0
 15 16  1  0
 16 17  2  0
 17 18  1  0
 18 19  2  0
  6 20  1  0
 20 21  2  0
 21 22  1  0
 22 23  1  0
 21  3  1  0
 19 14  1  0
  1 24  1  0
  1 25  1  0
  1 26  1  0
  4 27  1  0
  5 28  1  0
  8 29  1  0
  9 30  1  0
 15 31  1  0
 16 32  1  0
 17 33  1  0
 18 34  1  0
 19 35  1  0
 20 36  1  0
 23 37  1  0
 23 38  1  0
 23 39  1  0
M  END
$$$$
