
     RDKit          3D

 39 41  0  0  0  0  0  0  0  0999 V2000
   -4.0040    1.6943    1.3557 O   0  0  0  0  0  0  0  0  0  0  0  0
   -4.7835    1.0100    0.7173 C   0  0  0  0  0  0  0  0  0  0  0  0
   -6.0662    1.3788    0.5312 O   0  0  0  0  0  0  0  0  0  0  0  0
   -4.4852   -0.3046    0.1098 C   0  0  0  0  0  0  0  0  0  0  0  0
   -5.4083   -1.2990    0.3024 N   0  0  0  0  0  0  0  0  0  0  0  0
   -5.0557   -2.5191   -0.1611 C   0  0  0  0  0  0  0  0  0  0  0  0
   -3.8335   -2.7594   -0.7685 C   0  0  0  0  0  0  0  0  0  0  0  0
   -2.9106   -1.7878   -0.9558 N   0  0  0  0  0  0  0  0  0  0  0  0
   -3.2676   -0.5423   -0.5087 C   0  0  0  0  0  0  0  0  0  0  0  0
   -2.3479    0.5741   -0.8443 C   0  0  0  0  0  0  0  0  0  0  0  0
   -2.8310    1.5696   -1.3832 O   0  0  0  0  0  0  0  0  0  0  0  0
   -0.9871    0.4407   -0.5811 N   0  0  0  0  0  0  0  0  0  0  0  0
   -0.0791    1.5102   -0.9957 C   0  0  0  0  0  0  0  0  0  0  0  0
    1.3524    1.0134   -1.2676 C   0  0  0  0  0  0  0  0  0  0  0  0
    1.9068    0.2678   -0.1216 N   0  0  0  0  0  0  0  0  0  0  0  0
    3.2738    0.2433    0.1128 C   0  0  0  0  0  0  0  0  0  0  0  0
    3.8088    0.0131    1.3911 C   0  0  0  0  0  0  0  0  0  0  0  0
    5.1898   -0.0150    1.6255 C   0  0  0  0  0  0  0  0  0  0  0  0
    6.0794    0.1836    0.5773 C   0  0  0  0  0  0  0  0  0  0  0  0
    5.5850    0.4090   -0.7008 C   0  0  0  0  0  0  0  0  0  0  0  0
    4.2025    0.4369   -0.9241 C   0  0  0  0  0  0  0  0  0  0  0  0
    0.9481   -0.2895    0.8448 C   0  0  0  0  0  0  0  0  0  0  0  0
   -0.3834   -0.6684    0.1668 C   0  0  0  0  0  0  0  0  0  0  0  0
   -6.1393    2.2486    0.9745 H   0  0  0  0  0  0  0  0  0  0  0  0
   -5.7865   -3.3093   -0.0247 H   0  0  0  0  0  0  0  0  0  0  0  0
   -3.5659   -3.7469   -1.1299 H   0  0  0  0  0  0  0  0  0  0  0  0
   -0.4723    2.0109   -1.8872 H   0  0  0  0  0  0  0  0  0  0  0  0
   -0.0702    2.2468   -0.1827 H   0  0  0  0  0  0  0  0  0  0  0  0
    1.9656    1.8923   -1.5003 H   0  0  0  0  0  0  0  0  0  0  0  0
    1.3493    0.3554   -2.1450 H   0  0  0  0  0  0  0  0  0  0  0  0
    3.1559   -0.1265    2.2475 H   0  0  0  0  0  0  0  0  0  0  0  0
    5.5633   -0.1882    2.6311 H   0  0  0  0  0  0  0  0  0  0  0  0
    7.1506    0.1619    0.7552 H   0  0  0  0  0  0  0  0  0  0  0  0
    6.2692    0.5587   -1.5315 H   0  0  0  0  0  0  0  0  0  0  0  0
    3.8635    0.5910   -1.9448 H   0  0  0  0  0  0  0  0  0  0  0  0
    1.3464   -1.1976    1.3128 H   0  0  0  0  0  0  0  0  0  0  0  0
    0.7618    0.4501    1.6331 H   0  0  0  0  0  0  0  0  0  0  0  0
   -0.2087   -1.4760   -0.5542 H   0  0  0  0  0  0  0  0  0  0  0  0
   -1.0861   -1.0310    0.9238 H   0  0  0  0  0  0  0  0  0  0  0  0
  1  2  2  0
  2  3  1  0
  2  4  1  0
  4  5  2  0
  5  6  1  0
  6  7  2  0
  7  8  1  0
  8  9  2  0
  9 10  1  0
 10 11  2  0
 10 12  1  0
 12 13  1  0
 13 14  1  0
 14 15  1  0
 15 16  1  0
 16 17  2  0
 17 18  1  0
 18 19  2  0
 19 20  1  0
 20 21  2  0
 15 22  1  0
 22 23  1  0
  9  4  1  0
 23 12  1  0
 21 16  1  0
  3 24  1  0
  6 25  1  0
  7 26  1  0
 13 27  1  0
 13 28  1  0
 14 29  1  0
 14 30  1  0
 17 31  1  0
 18 32  1  0
 19 33  1  0
 20 34  1  0
 21 35  1  0
 22 36  1  0
 22 37  1  0
 23 38  1  0
 23 39  1  0
M  END
$$$$
