
     RDKit          3D

 60 64  0  0  0  0  0  0  0  0999 V2000
    3.3791   -2.0416   -0.8422 O   0  0  0  0  0  0  0  0  0  0  0  0
    2.9712   -0.8969   -0.6922 C   0  0  0  0  0  0  0  0  0  0  0  0
    3.7172    0.2149   -0.3490 N   0  0  0  0  0  0  0  0  0  0  0  0
    5.1176    0.2805   -0.1825 C   0  0  0  0  0  0  0  0  0  0  0  0
    5.6500    1.4881    0.2872 C   0  0  0  0  0  0  0  0  0  0  0  0
    7.0275    1.6333    0.4812 C   0  0  0  0  0  0  0  0  0  0  0  0
    7.8914    0.5703    0.2067 C   0  0  0  0  0  0  0  0  0  0  0  0
    9.3506    0.7332    0.4279 C   0  0  0  0  0  0  0  0  0  0  0  0
    9.8781    1.9096    0.6665 N   0  0  0  0  0  0  0  0  0  0  0  0
   11.3353    1.6438    0.8170 C   0  0  0  0  0  0  0  0  0  0  0  0
   11.4817    0.1299    0.9689 C   0  0  0  0  0  0  0  0  0  0  0  0
   10.2239   -0.3320    0.4258 N   0  0  0  0  0  0  0  0  0  0  0  0
    7.3685   -0.6300   -0.2799 C   0  0  0  0  0  0  0  0  0  0  0  0
    5.9878   -0.7723   -0.4716 C   0  0  0  0  0  0  0  0  0  0  0  0
    1.5061   -0.6621   -0.8376 C   0  0  0  0  0  0  0  0  0  0  0  0
    0.9906    0.5429   -1.3339 C   0  0  0  0  0  0  0  0  0  0  0  0
   -0.3941    0.7159   -1.4654 C   0  0  0  0  0  0  0  0  0  0  0  0
   -1.2871   -0.3052   -1.0998 C   0  0  0  0  0  0  0  0  0  0  0  0
   -2.7331   -0.0404   -1.3250 C   0  0  0  0  0  0  0  0  0  0  0  0
   -3.0305    0.4918   -2.3879 O   0  0  0  0  0  0  0  0  0  0  0  0
   -3.5877   -0.3731   -0.2946 N   0  0  0  0  0  0  0  0  0  0  0  0
   -4.9921   -0.2206   -0.2668 C   0  0  0  0  0  0  0  0  0  0  0  0
   -5.6568   -0.6724    0.8820 C   0  0  0  0  0  0  0  0  0  0  0  0
   -7.0473   -0.5630    0.9968 C   0  0  0  0  0  0  0  0  0  0  0  0
   -7.7905    0.0049   -0.0401 C   0  0  0  0  0  0  0  0  0  0  0  0
   -9.2665    0.1308    0.0639 C   0  0  0  0  0  0  0  0  0  0  0  0
  -10.0049    0.4187   -0.9804 N   0  0  0  0  0  0  0  0  0  0  0  0
  -11.3998    0.4310   -0.4627 C   0  0  0  0  0  0  0  0  0  0  0  0
  -11.2896    0.4608    1.0613 C   0  0  0  0  0  0  0  0  0  0  0  0
   -9.9394   -0.0191    1.2571 N   0  0  0  0  0  0  0  0  0  0  0  0
   -7.1345    0.4475   -1.1915 C   0  0  0  0  0  0  0  0  0  0  0  0
   -5.7425    0.3372   -1.3027 C   0  0  0  0  0  0  0  0  0  0  0  0
   -0.7500   -1.5088   -0.6377 C   0  0  0  0  0  0  0  0  0  0  0  0
   -1.6057   -2.6099   -0.2741 N   0  0  0  0  0  4  0  0  0  0  0  0
   -2.2169   -2.4922    0.7983 O   0  0  0  0  0  0  0  0  0  0  0  0
   -1.6403   -3.5806   -1.0358 O   0  0  0  0  0  1  0  0  0  0  0  0
    0.6317   -1.7026   -0.5034 C   0  0  0  0  0  0  0  0  0  0  0  0
    3.2165    1.0608   -0.1142 H   0  0  0  0  0  0  0  0  0  0  0  0
    5.0072    2.3343    0.5145 H   0  0  0  0  0  0  0  0  0  0  0  0
    7.4239    2.5774    0.8490 H   0  0  0  0  0  0  0  0  0  0  0  0
   11.7343    2.1712    1.6888 H   0  0  0  0  0  0  0  0  0  0  0  0
   11.8555    2.0044   -0.0774 H   0  0  0  0  0  0  0  0  0  0  0  0
   12.3413   -0.2652    0.4213 H   0  0  0  0  0  0  0  0  0  0  0  0
   11.5622   -0.1507    2.0245 H   0  0  0  0  0  0  0  0  0  0  0  0
    9.8726   -1.2060    0.7989 H   0  0  0  0  0  0  0  0  0  0  0  0
    8.0190   -1.4605   -0.5369 H   0  0  0  0  0  0  0  0  0  0  0  0
    5.6279   -1.7195   -0.8616 H   0  0  0  0  0  0  0  0  0  0  0  0
    1.6487    1.3435   -1.6648 H   0  0  0  0  0  0  0  0  0  0  0  0
   -0.7781    1.6508   -1.8760 H   0  0  0  0  0  0  0  0  0  0  0  0
   -3.1962   -0.7993    0.5424 H   0  0  0  0  0  0  0  0  0  0  0  0
   -5.1047   -1.1311    1.6991 H   0  0  0  0  0  0  0  0  0  0  0  0
   -7.5354   -0.9486    1.8866 H   0  0  0  0  0  0  0  0  0  0  0  0
  -11.9440    1.3026   -0.8395 H   0  0  0  0  0  0  0  0  0  0  0  0
  -11.9125   -0.4750   -0.8047 H   0  0  0  0  0  0  0  0  0  0  0  0
  -12.0315   -0.1759    1.5491 H   0  0  0  0  0  0  0  0  0  0  0  0
  -11.3839    1.4842    1.4392 H   0  0  0  0  0  0  0  0  0  0  0  0
   -9.4651    0.3197    2.0857 H   0  0  0  0  0  0  0  0  0  0  0  0
   -7.7019    0.8799   -2.0130 H   0  0  0  0  0  0  0  0  0  0  0  0
   -5.2824    0.6948   -2.2181 H   0  0  0  0  0  0  0  0  0  0  0  0
    1.0275   -2.6539   -0.1484 H   0  0  0  0  0  0  0  0  0  0  0  0
  1  2  2  0
  2  3  1  0
  3  4  1  0
  4  5  2  0
  5  6  1  0
  6  7  2  0
  7  8  1  0
  8  9  2  0
  9 10  1  0
 10 11  1  0
 11 12  1  0
  7 13  1  0
 13 14  2  0
  2 15  1  0
 15 16  2  0
 16 17  1  0
 17 18  2  0
 18 19  1  0
 19 20  2  0
 19 21  1  0
 21 22  1  0
 22 23  2  0
 23 24  1  0
 24 25  2  0
 25 26  1  0
 26 27  2  0
 27 28  1  0
 28 29  1  0
 29 30  1  0
 25 31  1  0
 31 32  2  0
 18 33  1  0
 33 34  1  0
 34 35  2  0
 34 36  1  0
 33 37  2  0
 14  4  1  0
 37 15  1  0
 12  8  1  0
 32 22  1  0
 30 26  1  0
  3 38  1  0
  5 39  1  0
  6 40  1  0
 10 41  1  0
 10 42  1  0
 11 43  1  0
 11 44  1  0
 12 45  1  0
 13 46  1  0
 14 47  1  0
 16 48  1  0
 17 49  1  0
 21 50  1  0
 23 51  1  0
 24 52  1  0
 28 53  1  0
 28 54  1  0
 29 55  1  0
 29 56  1  0
 30 57  1  0
 31 58  1  0
 32 59  1  0
 37 60  1  0
M  CHG  2  34   1  36  -1
M  END
$$$$
