
     RDKit          3D

 39 40  0  0  0  0  0  0  0  0999 V2000
   -6.9679   -1.8526    1.4975 N   0  0  0  0  0  0  0  0  0  0  0  0
   -6.6760   -0.2865    0.9494 S   0  0  0  0  0  6  0  0  0  0  0  0
   -7.4573   -0.0812   -0.2469 O   0  0  0  0  0  0  0  0  0  0  0  0
   -6.7958    0.5625    2.1122 O   0  0  0  0  0  0  0  0  0  0  0  0
   -4.9656   -0.3860    0.4953 C   0  0  0  0  0  0  0  0  0  0  0  0
   -4.6225   -0.7889   -0.7978 C   0  0  0  0  0  0  0  0  0  0  0  0
   -3.2770   -0.8639   -1.1606 C   0  0  0  0  0  0  0  0  0  0  0  0
   -2.2743   -0.5353   -0.2372 C   0  0  0  0  0  0  0  0  0  0  0  0
   -0.8183   -0.5940   -0.6309 C   0  0  0  0  0  0  0  0  0  0  0  0
   -0.2792    0.7852   -1.0230 C   0  0  0  0  0  0  0  0  0  0  0  0
    1.1140    0.7439   -1.4341 N   0  0  0  0  0  0  0  0  0  0  0  0
    2.1161    0.6058   -0.4936 C   0  0  0  0  0  0  0  0  0  0  0  0
    1.8872    0.5418    0.7060 O   0  0  0  0  0  0  0  0  0  0  0  0
    3.3523    0.5698   -1.1004 N   0  0  0  0  0  0  0  0  0  0  0  0
    4.6012    0.3496   -0.4860 C   0  0  0  0  0  0  0  0  0  0  0  0
    5.7432    0.5393   -1.2735 C   0  0  0  0  0  0  0  0  0  0  0  0
    7.0188    0.3321   -0.7403 C   0  0  0  0  0  0  0  0  0  0  0  0
    7.1663   -0.0732    0.5872 C   0  0  0  0  0  0  0  0  0  0  0  0
    8.7704   -0.3134    1.1808 Cl  0  0  0  0  0  0  0  0  0  0  0  0
    6.0312   -0.2724    1.3785 C   0  0  0  0  0  0  0  0  0  0  0  0
    6.1371   -0.7846    3.0269 Cl  0  0  0  0  0  0  0  0  0  0  0  0
    4.7542   -0.0625    0.8406 C   0  0  0  0  0  0  0  0  0  0  0  0
   -2.6363   -0.1185    1.0532 C   0  0  0  0  0  0  0  0  0  0  0  0
   -3.9799   -0.0391    1.4213 C   0  0  0  0  0  0  0  0  0  0  0  0
   -7.1941   -1.8144    2.4930 H   0  0  0  0  0  0  0  0  0  0  0  0
   -6.1979   -2.4931    1.3078 H   0  0  0  0  0  0  0  0  0  0  0  0
   -5.3931   -1.0388   -1.5248 H   0  0  0  0  0  0  0  0  0  0  0  0
   -3.0169   -1.1761   -2.1702 H   0  0  0  0  0  0  0  0  0  0  0  0
   -0.6864   -1.2952   -1.4652 H   0  0  0  0  0  0  0  0  0  0  0  0
   -0.2403   -1.0181    0.1996 H   0  0  0  0  0  0  0  0  0  0  0  0
   -0.8461    1.1946   -1.8666 H   0  0  0  0  0  0  0  0  0  0  0  0
   -0.3719    1.4887   -0.1871 H   0  0  0  0  0  0  0  0  0  0  0  0
    1.3056    0.3737   -2.3529 H   0  0  0  0  0  0  0  0  0  0  0  0
    3.3660    0.8915   -2.0567 H   0  0  0  0  0  0  0  0  0  0  0  0
    5.6597    0.8549   -2.3109 H   0  0  0  0  0  0  0  0  0  0  0  0
    7.8936    0.4890   -1.3670 H   0  0  0  0  0  0  0  0  0  0  0  0
    3.8918   -0.2345    1.4780 H   0  0  0  0  0  0  0  0  0  0  0  0
   -1.8677    0.1532    1.7763 H   0  0  0  0  0  0  0  0  0  0  0  0
   -4.2443    0.2966    2.4219 H   0  0  0  0  0  0  0  0  0  0  0  0
  1  2  1  0
  2  3  2  0
  2  4  2  0
  2  5  1  0
  5  6  2  0
  6  7  1  0
  7  8  2  0
  8  9  1  0
  9 10  1  0
 10 11  1  0
 11 12  1  0
 12 13  2  0
 12 14  1  0
 14 15  1  0
 15 16  2  0
 16 17  1  0
 17 18  2  0
 18 19  1  0
 18 20  1  0
 20 21  1  0
 20 22  2  0
  8 23  1  0
 23 24  2  0
 24  5  1  0
 22 15  1  0
  1 25  1  0
  1 26  1  0
  6 27  1  0
  7 28  1  0
  9 29  1  0
  9 30  1  0
 10 31  1  0
 10 32  1  0
 11 33  1  0
 14 34  1  0
 16 35  1  0
 17 36  1  0
 22 37  1  0
 23 38  1  0
 24 39  1  0
M  END
$$$$
