
     RDKit          3D

 42 45  0  0  0  0  0  0  0  0999 V2000
    5.3455   -0.8499    1.5928 C   0  0  0  0  0  0  0  0  0  0  0  0
    5.3925    0.1897    0.5781 N   0  0  0  0  0  0  0  0  0  0  0  0
    5.1463    1.5458    1.0416 C   0  0  0  0  0  0  0  0  0  0  0  0
    5.2809   -0.0611   -0.7922 C   0  0  0  0  0  0  0  0  0  0  0  0
    5.1949    0.8640   -1.6056 O   0  0  0  0  0  0  0  0  0  0  0  0
    5.3234   -1.5184   -1.2560 C   0  0  0  0  0  0  0  0  0  0  0  0
    4.2753   -1.7899   -2.7187 S   0  0  0  0  0  0  0  0  0  0  0  0
    2.7084   -1.3964   -2.0414 C   0  0  0  0  0  0  0  0  0  0  0  0
    2.4780   -1.4794   -0.7510 N   0  0  0  0  0  0  0  0  0  0  0  0
    1.1723   -1.1038   -0.4914 C   0  0  0  0  0  0  0  0  0  0  0  0
    0.5626   -1.0476    0.7709 C   0  0  0  0  0  0  0  0  0  0  0  0
   -0.7795   -0.6456    0.8829 C   0  0  0  0  0  0  0  0  0  0  0  0
   -1.5538   -0.2925   -0.2327 C   0  0  0  0  0  0  0  0  0  0  0  0
   -2.9219    0.1151   -0.0926 N   0  0  0  0  0  0  0  0  0  0  0  0
   -3.7704    0.4243   -1.1404 C   0  0  0  0  0  0  0  0  0  0  0  0
   -3.6116    0.4267   -2.3481 O   0  0  0  0  0  0  0  0  0  0  0  0
   -5.0596    0.7892   -0.5642 C   0  0  0  0  0  0  0  0  0  0  0  0
   -6.2362    1.1784   -1.1775 C   0  0  0  0  0  0  0  0  0  0  0  0
   -7.3260    1.4684   -0.3509 C   0  0  0  0  0  0  0  0  0  0  0  0
   -7.2150    1.3636    1.0500 C   0  0  0  0  0  0  0  0  0  0  0  0
   -6.0127    0.9671    1.6436 C   0  0  0  0  0  0  0  0  0  0  0  0
   -4.9514    0.6863    0.8028 C   0  0  0  0  0  0  0  0  0  0  0  0
   -3.5914    0.2573    1.1095 C   0  0  0  0  0  0  0  0  0  0  0  0
   -3.2408    0.0974    2.2653 O   0  0  0  0  0  0  0  0  0  0  0  0
   -0.9354   -0.3533   -1.4965 C   0  0  0  0  0  0  0  0  0  0  0  0
    0.4127   -0.7554   -1.6047 C   0  0  0  0  0  0  0  0  0  0  0  0
    1.3902   -0.9094   -3.0151 S   0  0  0  0  0  0  0  0  0  0  0  0
    5.7225   -0.4605    2.5431 H   0  0  0  0  0  0  0  0  0  0  0  0
    5.9726   -1.6967    1.3040 H   0  0  0  0  0  0  0  0  0  0  0  0
    4.3098   -1.1797    1.7137 H   0  0  0  0  0  0  0  0  0  0  0  0
    4.1044    1.6185    1.3677 H   0  0  0  0  0  0  0  0  0  0  0  0
    5.8116    1.7659    1.8816 H   0  0  0  0  0  0  0  0  0  0  0  0
    5.3236    2.2860    0.2569 H   0  0  0  0  0  0  0  0  0  0  0  0
    4.9950   -2.2190   -0.4877 H   0  0  0  0  0  0  0  0  0  0  0  0
    6.3597   -1.7567   -1.5143 H   0  0  0  0  0  0  0  0  0  0  0  0
    1.1303   -1.3153    1.6568 H   0  0  0  0  0  0  0  0  0  0  0  0
   -1.1839   -0.6302    1.8911 H   0  0  0  0  0  0  0  0  0  0  0  0
   -6.3073    1.2546   -2.2581 H   0  0  0  0  0  0  0  0  0  0  0  0
   -8.2714    1.7789   -0.7928 H   0  0  0  0  0  0  0  0  0  0  0  0
   -8.0759    1.5943    1.6752 H   0  0  0  0  0  0  0  0  0  0  0  0
   -5.9128    0.8824    2.7212 H   0  0  0  0  0  0  0  0  0  0  0  0
   -1.4556   -0.0931   -2.4113 H   0  0  0  0  0  0  0  0  0  0  0  0
  1  2  1  0
  2  3  1  0
  2  4  1  0
  4  5  2  0
  4  6  1  0
  6  7  1  0
  7  8  1  0
  8  9  2  0
  9 10  1  0
 10 11  2  0
 11 12  1  0
 12 13  2  0
 13 14  1  0
 14 15  1  0
 15 16  2  0
 15 17  1  0
 17 18  2  0
 18 19  1  0
 19 20  2  0
 20 21  1  0
 21 22  2  0
 22 23  1  0
 23 24  2  0
 13 25  1  0
 25 26  2  0
 26 27  1  0
 27  8  1  0
 26 10  1  0
 23 14  1  0
 22 17  1  0
  1 28  1  0
  1 29  1  0
  1 30  1  0
  3 31  1  0
  3 32  1  0
  3 33  1  0
  6 34  1  0
  6 35  1  0
 11 36  1  0
 12 37  1  0
 18 38  1  0
 19 39  1  0
 20 40  1  0
 21 41  1  0
 25 42  1  0
M  END
$$$$
