
     RDKit          3D

 51 54  0  0  0  0  0  0  0  0999 V2000
    0.7335    2.8406    5.3834 C   0  0  0  0  0  0  0  0  0  0  0  0
    0.3598    2.2548    4.0336 C   0  0  0  0  0  0  0  0  0  0  0  0
    1.4978    1.5639    3.5253 O   0  0  0  0  0  0  0  0  0  0  0  0
    1.3741    0.9166    2.3212 C   0  0  0  0  0  0  0  0  0  0  0  0
    0.2200    0.9349    1.5271 C   0  0  0  0  0  0  0  0  0  0  0  0
    0.1539    0.2338    0.3069 C   0  0  0  0  0  0  0  0  0  0  0  0
   -1.1591    0.2531   -0.4764 C   0  0  0  0  0  0  0  0  0  0  0  0
   -2.0399   -0.9875   -0.2699 C   0  0  0  0  0  0  0  0  0  0  0  0
   -2.2987   -1.2522    1.1913 C   0  0  0  0  0  0  0  0  0  0  0  0
   -2.7062   -0.3535    1.9293 O   0  0  0  0  0  0  0  0  0  0  0  0
   -2.0342   -2.6350    1.7301 C   0  0  0  0  0  0  0  0  0  0  0  0
   -2.4096   -3.6700    0.6840 C   0  0  0  0  0  0  0  0  0  0  0  0
   -1.5065   -3.5459   -0.5295 C   0  0  0  0  0  0  0  0  0  0  0  0
   -1.4869   -2.1414   -1.0912 C   0  0  0  0  0  0  0  0  0  0  0  0
   -0.9939   -1.9786   -2.2850 N   0  0  0  0  0  0  0  0  0  0  0  0
   -0.9198   -0.7062   -2.7543 C   0  0  0  0  0  0  0  0  0  0  0  0
   -0.7817   -0.2561   -3.9783 N   0  0  0  0  0  0  0  0  0  0  0  0
   -0.7532    1.1290   -3.8446 C   0  0  0  0  0  0  0  0  0  0  0  0
   -0.6157    2.0527   -4.9883 C   0  0  0  0  0  0  0  0  0  0  0  0
   -0.6078    3.2776   -4.8930 O   0  0  0  0  0  0  0  0  0  0  0  0
   -0.4987    1.3885   -6.1815 O   0  0  0  0  0  0  0  0  0  0  0  0
   -0.3613    2.2435   -7.3145 C   0  0  0  0  0  0  0  0  0  0  0  0
   -0.8777    1.5445   -2.5650 N   0  0  0  0  0  0  0  0  0  0  0  0
   -0.9328    0.3769   -1.9131 N   0  0  0  0  0  0  0  0  0  0  0  0
    1.2855   -0.4863   -0.1004 C   0  0  0  0  0  0  0  0  0  0  0  0
    2.4469   -0.5003    0.6795 C   0  0  0  0  0  0  0  0  0  0  0  0
    2.5023    0.1974    1.8882 C   0  0  0  0  0  0  0  0  0  0  0  0
    3.5949    0.2252    2.7182 O   0  0  0  0  0  0  0  0  0  0  0  0
    4.8012   -0.3498    2.2373 C   0  0  0  0  0  0  0  0  0  0  0  0
    1.5838    3.5238    5.2852 H   0  0  0  0  0  0  0  0  0  0  0  0
   -0.1091    3.3853    5.8188 H   0  0  0  0  0  0  0  0  0  0  0  0
    1.0390    2.0491    6.0758 H   0  0  0  0  0  0  0  0  0  0  0  0
   -0.4801    1.5629    4.1654 H   0  0  0  0  0  0  0  0  0  0  0  0
    0.0768    3.0694    3.3572 H   0  0  0  0  0  0  0  0  0  0  0  0
   -0.6572    1.4905    1.8504 H   0  0  0  0  0  0  0  0  0  0  0  0
   -1.7284    1.1495   -0.1932 H   0  0  0  0  0  0  0  0  0  0  0  0
   -3.0343   -0.7990   -0.7046 H   0  0  0  0  0  0  0  0  0  0  0  0
   -0.9779   -2.7075    2.0087 H   0  0  0  0  0  0  0  0  0  0  0  0
   -2.6427   -2.7817    2.6286 H   0  0  0  0  0  0  0  0  0  0  0  0
   -3.4560   -3.5356    0.3822 H   0  0  0  0  0  0  0  0  0  0  0  0
   -2.3178   -4.6766    1.1071 H   0  0  0  0  0  0  0  0  0  0  0  0
   -0.4759   -3.8091   -0.2634 H   0  0  0  0  0  0  0  0  0  0  0  0
   -1.8334   -4.2382   -1.3132 H   0  0  0  0  0  0  0  0  0  0  0  0
   -1.2428    2.8832   -7.4230 H   0  0  0  0  0  0  0  0  0  0  0  0
   -0.2799    1.6150   -8.2057 H   0  0  0  0  0  0  0  0  0  0  0  0
    0.5486    2.8461   -7.2330 H   0  0  0  0  0  0  0  0  0  0  0  0
    1.3049   -1.0451   -1.0342 H   0  0  0  0  0  0  0  0  0  0  0  0
    3.2943   -1.0711    0.3130 H   0  0  0  0  0  0  0  0  0  0  0  0
    4.7008   -1.4343    2.1251 H   0  0  0  0  0  0  0  0  0  0  0  0
    5.5806   -0.1645    2.9827 H   0  0  0  0  0  0  0  0  0  0  0  0
    5.1201    0.1177    1.2996 H   0  0  0  0  0  0  0  0  0  0  0  0
  1  2  1  0
  2  3  1  0
  3  4  1  0
  4  5  2  0
  5  6  1  0
  6  7  1  0
  7  8  1  0
  8  9  1  0
  9 10  2  0
  9 11  1  0
 11 12  1  0
 12 13  1  0
 13 14  1  0
 14 15  2  0
 15 16  1  0
 16 17  2  0
 17 18  1  0
 18 19  1  0
 19 20  2  0
 19 21  1  0
 21 22  1  0
 18 23  2  0
 23 24  1  0
  6 25  2  0
 25 26  1  0
 26 27  2  0
 27 28  1  0
 28 29  1  0
 27  4  1  0
 24  7  1  0
 14  8  1  0
 24 16  1  0
  1 30  1  0
  1 31  1  0
  1 32  1  0
  2 33  1  0
  2 34  1  0
  5 35  1  0
  7 36  1  0
  8 37  1  0
 11 38  1  0
 11 39  1  0
 12 40  1  0
 12 41  1  0
 13 42  1  0
 13 43  1  0
 22 44  1  0
 22 45  1  0
 22 46  1  0
 25 47  1  0
 26 48  1  0
 29 49  1  0
 29 50  1  0
 29 51  1  0
M  END
$$$$
