
     RDKit          3D

 43 46  0  0  0  0  0  0  0  0999 V2000
   -5.1175   -2.7824    1.4673 C   0  0  0  0  0  0  0  0  0  0  0  0
   -3.6939   -2.2779    1.3337 C   0  0  0  0  0  0  0  0  0  0  0  0
   -3.7383   -0.9563    0.7863 O   0  0  0  0  0  0  0  0  0  0  0  0
   -2.5156   -0.3846    0.6013 C   0  0  0  0  0  0  0  0  0  0  0  0
   -1.4492   -0.9151    0.8879 O   0  0  0  0  0  0  0  0  0  0  0  0
   -2.6670    0.9421    0.0294 C   0  0  0  0  0  0  0  0  0  0  0  0
   -3.8448    1.6146   -0.2771 C   0  0  0  0  0  0  0  0  0  0  0  0
   -3.4694    2.8667   -0.8331 C   0  0  0  0  0  0  0  0  0  0  0  0
   -4.2160    4.2918   -1.4727 S   0  0  0  0  0  0  0  0  0  0  0  0
   -2.6625    4.9614   -1.7808 C   0  0  0  0  0  0  0  0  0  0  0  0
   -1.6125    4.1475   -1.4119 C   0  0  0  0  0  0  0  0  0  0  0  0
   -2.1095    2.9342   -0.8578 C   0  0  0  0  0  0  0  0  0  0  0  0
   -1.6094    1.7649   -0.3237 N   0  0  0  0  0  0  0  0  0  0  0  0
   -0.1862    1.5005   -0.1568 C   0  0  0  0  0  0  0  0  0  0  0  0
    0.3594    0.5378   -1.1932 C   0  0  0  0  0  0  0  0  0  0  0  0
   -0.1757    0.3580   -2.2867 O   0  0  0  0  0  0  0  0  0  0  0  0
    1.6247   -0.1941   -0.8874 C   0  0  0  0  0  0  0  0  0  0  0  0
    1.9700   -1.2910   -1.6923 C   0  0  0  0  0  0  0  0  0  0  0  0
    3.1493   -2.0016   -1.4557 C   0  0  0  0  0  0  0  0  0  0  0  0
    3.9931   -1.6148   -0.4190 C   0  0  0  0  0  0  0  0  0  0  0  0
    3.6449   -0.5351    0.3985 C   0  0  0  0  0  0  0  0  0  0  0  0
    2.4739    0.1860    0.1585 C   0  0  0  0  0  0  0  0  0  0  0  0
    4.4142   -0.1155    1.4547 O   0  0  0  0  0  0  0  0  0  0  0  0
    5.3792   -1.1089    1.8233 C   0  0  0  0  0  0  0  0  0  0  0  0
    6.0770   -1.6616    0.5916 C   0  0  0  0  0  0  0  0  0  0  0  0
    5.1439   -2.3412   -0.2560 O   0  0  0  0  0  0  0  0  0  0  0  0
   -5.6161   -2.7920    0.4923 H   0  0  0  0  0  0  0  0  0  0  0  0
   -5.1359   -3.7934    1.8836 H   0  0  0  0  0  0  0  0  0  0  0  0
   -5.7012   -2.1216    2.1167 H   0  0  0  0  0  0  0  0  0  0  0  0
   -3.2163   -2.2543    2.3195 H   0  0  0  0  0  0  0  0  0  0  0  0
   -3.1294   -2.9375    0.6650 H   0  0  0  0  0  0  0  0  0  0  0  0
   -4.8522    1.2491   -0.1271 H   0  0  0  0  0  0  0  0  0  0  0  0
   -2.6008    5.9424   -2.2317 H   0  0  0  0  0  0  0  0  0  0  0  0
   -0.5705    4.4089   -1.5398 H   0  0  0  0  0  0  0  0  0  0  0  0
    0.3533    2.4495   -0.2387 H   0  0  0  0  0  0  0  0  0  0  0  0
   -0.0564    1.1191    0.8598 H   0  0  0  0  0  0  0  0  0  0  0  0
    1.3197   -1.5983   -2.5101 H   0  0  0  0  0  0  0  0  0  0  0  0
    3.4114   -2.8469   -2.0865 H   0  0  0  0  0  0  0  0  0  0  0  0
    2.2543    1.0316    0.8018 H   0  0  0  0  0  0  0  0  0  0  0  0
    6.1062   -0.6335    2.4891 H   0  0  0  0  0  0  0  0  0  0  0  0
    4.8675   -1.9005    2.3848 H   0  0  0  0  0  0  0  0  0  0  0  0
    6.8462   -2.3832    0.8839 H   0  0  0  0  0  0  0  0  0  0  0  0
    6.5582   -0.8646    0.0113 H   0  0  0  0  0  0  0  0  0  0  0  0
  1  2  1  0
  2  3  1  0
  3  4  1  0
  4  5  2  0
  4  6  1  0
  6  7  2  0
  7  8  1  0
  8  9  1  0
  9 10  1  0
 10 11  2  0
 11 12  1  0
 12 13  1  0
 13 14  1  0
 14 15  1  0
 15 16  2  0
 15 17  1  0
 17 18  2  0
 18 19  1  0
 19 20  2  0
 20 21  1  0
 21 22  2  0
 21 23  1  0
 23 24  1  0
 24 25  1  0
 25 26  1  0
 13  6  1  0
 22 17  1  0
 12  8  2  0
 26 20  1  0
  1 27  1  0
  1 28  1  0
  1 29  1  0
  2 30  1  0
  2 31  1  0
  7 32  1  0
 10 33  1  0
 11 34  1  0
 14 35  1  0
 14 36  1  0
 18 37  1  0
 19 38  1  0
 22 39  1  0
 24 40  1  0
 24 41  1  0
 25 42  1  0
 25 43  1  0
M  END
$$$$
