
     RDKit          3D

 51 54  0  0  0  0  0  0  0  0999 V2000
   -0.9618   -2.6489    2.2873 O   0  0  0  0  0  0  0  0  0  0  0  0
   -0.6957   -1.5312    1.8375 C   0  0  0  0  0  0  0  0  0  0  0  0
    0.7098   -1.0920    1.7869 C   0  0  0  0  0  0  0  0  0  0  0  0
    1.8441   -1.9434    1.8865 C   0  0  0  0  0  0  0  0  0  0  0  0
    2.9258   -1.1010    1.8392 C   0  0  0  0  0  0  0  0  0  0  0  0
    4.3906   -1.3001    1.8792 C   0  0  0  0  0  0  0  0  0  0  0  0
    4.7773   -2.0256    0.7099 O   0  0  0  0  0  0  0  0  0  0  0  0
    5.2028   -1.3379   -0.3915 C   0  0  0  0  0  0  0  0  0  0  0  0
    5.7792   -2.1392   -1.3810 C   0  0  0  0  0  0  0  0  0  0  0  0
    6.2648   -1.5789   -2.5609 C   0  0  0  0  0  0  0  0  0  0  0  0
    6.1749   -0.2040   -2.7625 C   0  0  0  0  0  0  0  0  0  0  0  0
    5.5817    0.6180   -1.7912 C   0  0  0  0  0  0  0  0  0  0  0  0
    5.5172    2.1114   -1.9954 C   0  0  0  0  0  0  0  0  0  0  0  0
    5.3400    2.4654   -3.2992 F   0  0  0  0  0  0  0  0  0  0  0  0
    6.6614    2.7310   -1.5892 F   0  0  0  0  0  0  0  0  0  0  0  0
    4.5034    2.7100   -1.3088 F   0  0  0  0  0  0  0  0  0  0  0  0
    5.0962    0.0374   -0.6045 C   0  0  0  0  0  0  0  0  0  0  0  0
    2.4836    0.1789    1.7412 O   0  0  0  0  0  0  0  0  0  0  0  0
    1.1046    0.1912    1.7146 N   0  0  0  0  0  0  0  0  0  0  0  0
   -1.7184   -0.6813    1.3888 N   0  0  0  0  0  0  0  0  0  0  0  0
   -3.1015   -1.0893    1.6197 C   0  0  0  0  0  0  0  0  0  0  0  0
   -4.0212    0.1143    1.8083 C   0  0  0  0  0  0  0  0  0  0  0  0
   -3.9472    1.1118    0.6339 C   0  0  0  0  0  0  0  0  0  0  0  0
   -5.2297    1.1624   -0.1772 C   0  0  0  0  0  0  0  0  0  0  0  0
   -5.7688    0.0243   -0.7851 C   0  0  0  0  0  0  0  0  0  0  0  0
   -6.9442    0.1426   -1.5109 C   0  0  0  0  0  0  0  0  0  0  0  0
   -7.6125    1.3022   -1.6724 N   0  0  0  0  0  0  0  0  0  0  0  0
   -7.0782    2.3944   -1.0849 C   0  0  0  0  0  0  0  0  0  0  0  0
   -5.9085    2.3745   -0.3397 C   0  0  0  0  0  0  0  0  0  0  0  0
   -2.7315    0.8610   -0.2739 C   0  0  0  0  0  0  0  0  0  0  0  0
   -1.4985    0.5002    0.5506 C   0  0  0  0  0  0  0  0  0  0  0  0
    1.8496   -3.0204    1.9722 H   0  0  0  0  0  0  0  0  0  0  0  0
    4.9545   -0.3718    2.0138 H   0  0  0  0  0  0  0  0  0  0  0  0
    4.6366   -1.9361    2.7383 H   0  0  0  0  0  0  0  0  0  0  0  0
    5.8584   -3.2134   -1.2265 H   0  0  0  0  0  0  0  0  0  0  0  0
    6.7202   -2.2169   -3.3172 H   0  0  0  0  0  0  0  0  0  0  0  0
    6.5663    0.2272   -3.6833 H   0  0  0  0  0  0  0  0  0  0  0  0
    4.6342    0.6896    0.1292 H   0  0  0  0  0  0  0  0  0  0  0  0
   -3.4156   -1.6927    0.7585 H   0  0  0  0  0  0  0  0  0  0  0  0
   -3.1620   -1.7333    2.5041 H   0  0  0  0  0  0  0  0  0  0  0  0
   -3.7074    0.6362    2.7221 H   0  0  0  0  0  0  0  0  0  0  0  0
   -5.0458   -0.2255    1.9948 H   0  0  0  0  0  0  0  0  0  0  0  0
   -3.8081    2.1054    1.0867 H   0  0  0  0  0  0  0  0  0  0  0  0
   -5.2932   -0.9436   -0.7002 H   0  0  0  0  0  0  0  0  0  0  0  0
   -7.3930   -0.7204   -1.9918 H   0  0  0  0  0  0  0  0  0  0  0  0
   -7.6322    3.3207   -1.2296 H   0  0  0  0  0  0  0  0  0  0  0  0
   -5.5417    3.2937    0.1031 H   0  0  0  0  0  0  0  0  0  0  0  0
   -2.5280    1.7510   -0.8818 H   0  0  0  0  0  0  0  0  0  0  0  0
   -2.9332    0.0456   -0.9809 H   0  0  0  0  0  0  0  0  0  0  0  0
   -0.6618    0.3142   -0.1305 H   0  0  0  0  0  0  0  0  0  0  0  0
   -1.2373    1.3324    1.2151 H   0  0  0  0  0  0  0  0  0  0  0  0
  1  2  2  0
  2  3  1  0
  3  4  1  0
  4  5  2  0
  5  6  1  0
  6  7  1  0
  7  8  1  0
  8  9  2  0
  9 10  1  0
 10 11  2  0
 11 12  1  0
 12 13  1  0
 13 14  1  0
 13 15  1  0
 13 16  1  0
 12 17  2  0
  5 18  1  0
 18 19  1  0
  2 20  1  0
 20 21  1  0
 21 22  1  0
 22 23  1  0
 23 24  1  0
 24 25  2  0
 25 26  1  0
 26 27  2  0
 27 28  1  0
 28 29  2  0
 23 30  1  0
 30 31  1  0
 19  3  2  0
 31 20  1  0
 17  8  1  0
 29 24  1  0
  4 32  1  0
  6 33  1  0
  6 34  1  0
  9 35  1  0
 10 36  1  0
 11 37  1  0
 17 38  1  0
 21 39  1  0
 21 40  1  0
 22 41  1  0
 22 42  1  0
 23 43  1  0
 25 44  1  0
 26 45  1  0
 28 46  1  0
 29 47  1  0
 30 48  1  0
 30 49  1  0
 31 50  1  0
 31 51  1  0
M  END
$$$$
