
     RDKit          3D

 49 52  0  0  0  0  0  0  0  0999 V2000
    7.1064   -0.7876    2.1295 C   0  0  0  0  0  0  0  0  0  0  0  0
    6.0521   -1.4299    1.3460 N   0  0  0  0  0  0  0  0  0  0  0  0
    6.3680   -2.7666    0.8441 C   0  0  0  0  0  0  0  0  0  0  0  0
    5.1612   -0.6286    0.6211 C   0  0  0  0  0  0  0  0  0  0  0  0
    5.0397    0.7539    0.8514 C   0  0  0  0  0  0  0  0  0  0  0  0
    4.1349    1.5583    0.1416 C   0  0  0  0  0  0  0  0  0  0  0  0
    3.3007    0.9980   -0.8209 C   0  0  0  0  0  0  0  0  0  0  0  0
    2.3567    1.8442   -1.5515 C   0  0  0  0  0  0  0  0  0  0  0  0
    1.0261    1.7887   -1.4084 C   0  0  0  0  0  0  0  0  0  0  0  0
    0.2222    0.9671   -0.5696 C   0  0  0  0  0  0  0  0  0  0  0  0
   -1.0366    1.3285   -0.8180 C   0  0  0  0  0  0  0  0  0  0  0  0
   -2.2686    0.7882   -0.2210 C   0  0  0  0  0  0  0  0  0  0  0  0
   -2.2435    0.0369    0.9652 C   0  0  0  0  0  0  0  0  0  0  0  0
   -3.4214   -0.4625    1.5309 C   0  0  0  0  0  0  0  0  0  0  0  0
   -4.6484   -0.2279    0.9118 C   0  0  0  0  0  0  0  0  0  0  0  0
   -4.6958    0.5249   -0.2703 C   0  0  0  0  0  0  0  0  0  0  0  0
   -3.5135    1.0340   -0.8227 C   0  0  0  0  0  0  0  0  0  0  0  0
   -6.0432    0.8089   -0.8790 C   0  0  0  0  0  0  0  0  0  0  0  0
   -6.9257   -0.4407   -0.8737 C   0  0  0  0  0  0  0  0  0  0  0  0
   -6.8739   -1.2645    0.4222 C   0  0  0  0  0  0  0  0  0  0  0  0
   -5.9461   -0.7076    1.5036 C   0  0  0  0  0  0  0  0  0  0  0  0
   -1.1789    2.3513   -1.7825 O   0  0  0  0  0  0  0  0  0  0  0  0
    0.1040    2.6697   -2.1705 C   0  0  0  0  0  0  0  0  0  0  0  0
    0.4131    3.5163   -2.9906 O   0  0  0  0  0  0  0  0  0  0  0  0
    3.3890   -0.3695   -1.0686 C   0  0  0  0  0  0  0  0  0  0  0  0
    4.2984   -1.1630   -0.3530 C   0  0  0  0  0  0  0  0  0  0  0  0
    7.7661   -0.1919    1.4889 H   0  0  0  0  0  0  0  0  0  0  0  0
    7.7271   -1.5301    2.6438 H   0  0  0  0  0  0  0  0  0  0  0  0
    6.6853   -0.1538    2.9172 H   0  0  0  0  0  0  0  0  0  0  0  0
    6.8047   -2.7179   -0.1596 H   0  0  0  0  0  0  0  0  0  0  0  0
    7.0897   -3.2750    1.4936 H   0  0  0  0  0  0  0  0  0  0  0  0
    5.4783   -3.4051    0.8291 H   0  0  0  0  0  0  0  0  0  0  0  0
    5.6498    1.2521    1.5985 H   0  0  0  0  0  0  0  0  0  0  0  0
    4.0891    2.6223    0.3621 H   0  0  0  0  0  0  0  0  0  0  0  0
    2.8047    2.5638   -2.2344 H   0  0  0  0  0  0  0  0  0  0  0  0
    0.5800    0.2148    0.1128 H   0  0  0  0  0  0  0  0  0  0  0  0
   -1.3075   -0.1613    1.4815 H   0  0  0  0  0  0  0  0  0  0  0  0
   -3.3704   -1.0294    2.4573 H   0  0  0  0  0  0  0  0  0  0  0  0
   -3.5716    1.6254   -1.7347 H   0  0  0  0  0  0  0  0  0  0  0  0
   -6.5226    1.6102   -0.3032 H   0  0  0  0  0  0  0  0  0  0  0  0
   -5.9388    1.1697   -1.9088 H   0  0  0  0  0  0  0  0  0  0  0  0
   -6.6165   -1.0928   -1.7018 H   0  0  0  0  0  0  0  0  0  0  0  0
   -7.9617   -0.1550   -1.0920 H   0  0  0  0  0  0  0  0  0  0  0  0
   -6.5437   -2.2800    0.1645 H   0  0  0  0  0  0  0  0  0  0  0  0
   -7.8846   -1.3765    0.8328 H   0  0  0  0  0  0  0  0  0  0  0  0
   -5.7682   -1.4830    2.2578 H   0  0  0  0  0  0  0  0  0  0  0  0
   -6.4280    0.1352    2.0144 H   0  0  0  0  0  0  0  0  0  0  0  0
    2.7555   -0.8388   -1.8177 H   0  0  0  0  0  0  0  0  0  0  0  0
    4.3065   -2.2235   -0.5852 H   0  0  0  0  0  0  0  0  0  0  0  0
  1  2  1  0
  2  3  1  0
  2  4  1  0
  4  5  2  0
  5  6  1  0
  6  7  2  0
  7  8  1  0
  8  9  2  3
  9 10  1  0
 10 11  2  0
 11 12  1  0
 12 13  2  0
 13 14  1  0
 14 15  2  0
 15 16  1  0
 16 17  2  0
 16 18  1  0
 18 19  1  0
 19 20  1  0
 20 21  1  0
 11 22  1  0
 22 23  1  0
 23 24  2  0
  7 25  1  0
 25 26  2  0
 26  4  1  0
 23  9  1  0
 17 12  1  0
 21 15  1  0
  1 27  1  0
  1 28  1  0
  1 29  1  0
  3 30  1  0
  3 31  1  0
  3 32  1  0
  5 33  1  0
  6 34  1  0
  8 35  1  0
 10 36  1  0
 13 37  1  0
 14 38  1  0
 17 39  1  0
 18 40  1  0
 18 41  1  0
 19 42  1  0
 19 43  1  0
 20 44  1  0
 20 45  1  0
 21 46  1  0
 21 47  1  0
 25 48  1  0
 26 49  1  0
M  END
$$$$
