
     RDKit          3D

 42 44  0  0  0  0  0  0  0  0999 V2000
    4.7104    0.5947    0.9321 C   0  0  0  0  0  0  0  0  0  0  0  0
    3.4146   -0.1702    0.7100 C   0  0  0  0  0  0  0  0  0  0  0  0
    2.6583    0.3596   -0.5090 C   0  0  0  0  0  0  0  0  0  0  0  0
    1.3701   -0.4165   -0.8027 C   0  0  0  0  0  0  0  0  0  0  0  0
    0.2304   -0.3141    0.2475 C   0  0  0  0  0  0  0  0  0  0  0  0
   -0.7929   -1.3868   -0.0785 C   0  0  0  0  0  0  0  0  0  0  0  0
   -1.9607   -1.0976   -0.6803 C   0  0  0  0  0  0  0  0  0  0  0  0
   -2.9792   -2.1211   -1.0892 C   0  0  0  0  0  0  0  0  0  0  0  0
   -2.3740   -3.5167   -1.1881 C   0  0  0  0  0  0  0  0  0  0  0  0
   -1.5600   -3.8485    0.0519 C   0  0  0  0  0  0  0  0  0  0  0  0
   -0.5048   -2.7956    0.3159 C   0  0  0  0  0  0  0  0  0  0  0  0
    0.5421   -3.0788    0.8946 O   0  0  0  0  0  0  0  0  0  0  0  0
   -2.3142    0.2082   -0.9965 O   0  0  0  0  0  0  0  0  0  0  0  0
   -1.6191    1.2487   -0.3902 C   0  0  0  0  0  0  0  0  0  0  0  0
   -0.4383    1.0479    0.2275 C   0  0  0  0  0  0  0  0  0  0  0  0
    0.1757    2.1828    0.9742 C   0  0  0  0  0  0  0  0  0  0  0  0
    1.1353    2.0012    1.7192 O   0  0  0  0  0  0  0  0  0  0  0  0
   -0.3914    3.5688    0.7611 C   0  0  0  0  0  0  0  0  0  0  0  0
   -1.9054    3.5148    0.6599 C   0  0  0  0  0  0  0  0  0  0  0  0
   -2.3439    2.5634   -0.4462 C   0  0  0  0  0  0  0  0  0  0  0  0
    5.2393    0.1988    1.8047 H   0  0  0  0  0  0  0  0  0  0  0  0
    5.3726    0.5063    0.0650 H   0  0  0  0  0  0  0  0  0  0  0  0
    4.5128    1.6571    1.1077 H   0  0  0  0  0  0  0  0  0  0  0  0
    2.8019   -0.0913    1.6130 H   0  0  0  0  0  0  0  0  0  0  0  0
    3.6451   -1.2327    0.5694 H   0  0  0  0  0  0  0  0  0  0  0  0
    2.4525    1.4289   -0.4044 H   0  0  0  0  0  0  0  0  0  0  0  0
    3.3106    0.2674   -1.3875 H   0  0  0  0  0  0  0  0  0  0  0  0
    0.9913   -0.0757   -1.7771 H   0  0  0  0  0  0  0  0  0  0  0  0
    1.6506   -1.4679   -0.9507 H   0  0  0  0  0  0  0  0  0  0  0  0
    0.6084   -0.5068    1.2579 H   0  0  0  0  0  0  0  0  0  0  0  0
   -3.4084   -1.8537   -2.0620 H   0  0  0  0  0  0  0  0  0  0  0  0
   -3.7988   -2.1163   -0.3608 H   0  0  0  0  0  0  0  0  0  0  0  0
   -1.7271   -3.5694   -2.0737 H   0  0  0  0  0  0  0  0  0  0  0  0
   -3.1678   -4.2591   -1.3275 H   0  0  0  0  0  0  0  0  0  0  0  0
   -2.2026   -3.9191    0.9364 H   0  0  0  0  0  0  0  0  0  0  0  0
   -1.0612   -4.8131   -0.0917 H   0  0  0  0  0  0  0  0  0  0  0  0
    0.0560    3.9915   -0.1451 H   0  0  0  0  0  0  0  0  0  0  0  0
   -0.1066    4.1993    1.6104 H   0  0  0  0  0  0  0  0  0  0  0  0
   -2.3232    3.1745    1.6165 H   0  0  0  0  0  0  0  0  0  0  0  0
   -2.3081    4.5164    0.4729 H   0  0  0  0  0  0  0  0  0  0  0  0
   -2.1654    3.0205   -1.4270 H   0  0  0  0  0  0  0  0  0  0  0  0
   -3.4248    2.4001   -0.3595 H   0  0  0  0  0  0  0  0  0  0  0  0
  1  2  1  0
  2  3  1  0
  3  4  1  0
  4  5  1  0
  5  6  1  0
  6  7  2  0
  7  8  1  0
  8  9  1  0
  9 10  1  0
 10 11  1  0
 11 12  2  0
  7 13  1  0
 13 14  1  0
 14 15  2  0
 15 16  1  0
 16 17  2  0
 16 18  1  0
 18 19  1  0
 19 20  1  0
 15  5  1  0
 11  6  1  0
 20 14  1  0
  1 21  1  0
  1 22  1  0
  1 23  1  0
  2 24  1  0
  2 25  1  0
  3 26  1  0
  3 27  1  0
  4 28  1  0
  4 29  1  0
  5 30  1  0
  8 31  1  0
  8 32  1  0
  9 33  1  0
  9 34  1  0
 10 35  1  0
 10 36  1  0
 18 37  1  0
 18 38  1  0
 19 39  1  0
 19 40  1  0
 20 41  1  0
 20 42  1  0
M  END
$$$$
