
     RDKit          3D

 55 58  0  0  0  0  0  0  0  0999 V2000
   -5.6821   -4.0290    1.0490 C   0  0  0  0  0  0  0  0  0  0  0  0
   -6.5836   -2.8256    0.7976 C   0  0  0  0  0  0  0  0  0  0  0  0
   -7.4833   -3.0683   -0.4084 C   0  0  0  0  0  0  0  0  0  0  0  0
   -5.7748   -1.6731    0.4966 O   0  0  0  0  0  0  0  0  0  0  0  0
   -5.2945   -0.9858    1.5629 C   0  0  0  0  0  0  0  0  0  0  0  0
   -5.4953   -1.2517    2.7375 O   0  0  0  0  0  0  0  0  0  0  0  0
   -4.4686    0.1675    1.1115 C   0  0  0  0  0  0  0  0  0  0  0  0
   -4.2544    0.4557   -0.2427 C   0  0  0  0  0  0  0  0  0  0  0  0
   -3.4690    1.5517   -0.6128 C   0  0  0  0  0  0  0  0  0  0  0  0
   -2.8939    2.3793    0.3624 C   0  0  0  0  0  0  0  0  0  0  0  0
   -2.0287    3.5458   -0.0413 C   0  0  0  0  0  0  0  0  0  0  0  0
   -0.6983    3.0571   -0.2240 O   0  0  0  0  0  0  0  0  0  0  0  0
    0.1854    4.0092   -0.6019 C   0  0  0  0  0  0  0  0  0  0  0  0
   -0.0716    5.1877   -0.7894 O   0  0  0  0  0  0  0  0  0  0  0  0
    1.5459    3.4283   -0.7646 C   0  0  0  0  0  0  0  0  0  0  0  0
    2.5833    4.2827   -1.1584 C   0  0  0  0  0  0  0  0  0  0  0  0
    3.8765    3.7887   -1.3219 C   0  0  0  0  0  0  0  0  0  0  0  0
    4.1412    2.4370   -1.0916 C   0  0  0  0  0  0  0  0  0  0  0  0
    3.1182    1.5608   -0.6963 C   0  0  0  0  0  0  0  0  0  0  0  0
    3.3719    0.1465   -0.4495 C   0  0  0  0  0  0  0  0  0  0  0  0
    2.5374   -0.8178   -0.1189 N   0  0  0  0  0  0  0  0  0  0  0  0
    3.2929   -1.9667   -0.0006 N   0  0  0  0  0  0  0  0  0  0  0  0
    4.5387   -1.6262   -0.2642 C   0  0  0  0  0  0  0  0  0  0  0  0
    5.7493   -2.4373   -0.2808 C   0  0  0  0  0  0  0  0  0  0  0  0
    7.0065   -1.8892   -0.5793 C   0  0  0  0  0  0  0  0  0  0  0  0
    8.1518   -2.6907   -0.5858 C   0  0  0  0  0  0  0  0  0  0  0  0
    8.0548   -4.0495   -0.2940 C   0  0  0  0  0  0  0  0  0  0  0  0
    6.8149   -4.6092    0.0042 C   0  0  0  0  0  0  0  0  0  0  0  0
    5.6700   -3.8080    0.0107 C   0  0  0  0  0  0  0  0  0  0  0  0
    4.6657   -0.2930   -0.5618 O   0  0  0  0  0  0  0  0  0  0  0  0
    1.8185    2.0706   -0.5366 C   0  0  0  0  0  0  0  0  0  0  0  0
   -3.0996    2.0805    1.7161 C   0  0  0  0  0  0  0  0  0  0  0  0
   -3.8846    0.9856    2.0878 C   0  0  0  0  0  0  0  0  0  0  0  0
   -5.0190   -4.2060    0.1948 H   0  0  0  0  0  0  0  0  0  0  0  0
   -5.0367   -3.8590    1.9165 H   0  0  0  0  0  0  0  0  0  0  0  0
   -6.2706   -4.9336    1.2308 H   0  0  0  0  0  0  0  0  0  0  0  0
   -7.2182   -2.6330    1.6714 H   0  0  0  0  0  0  0  0  0  0  0  0
   -8.1287   -3.9385   -0.2552 H   0  0  0  0  0  0  0  0  0  0  0  0
   -8.1161   -2.1932   -0.5931 H   0  0  0  0  0  0  0  0  0  0  0  0
   -6.8906   -3.2244   -1.3173 H   0  0  0  0  0  0  0  0  0  0  0  0
   -4.6879   -0.1661   -1.0225 H   0  0  0  0  0  0  0  0  0  0  0  0
   -3.3042    1.7539   -1.6697 H   0  0  0  0  0  0  0  0  0  0  0  0
   -2.0457    4.3158    0.7397 H   0  0  0  0  0  0  0  0  0  0  0  0
   -2.4057    3.9842   -0.9735 H   0  0  0  0  0  0  0  0  0  0  0  0
    2.3872    5.3385   -1.3390 H   0  0  0  0  0  0  0  0  0  0  0  0
    4.6785    4.4567   -1.6281 H   0  0  0  0  0  0  0  0  0  0  0  0
    5.1593    2.0755   -1.2257 H   0  0  0  0  0  0  0  0  0  0  0  0
    7.1097   -0.8310   -0.8096 H   0  0  0  0  0  0  0  0  0  0  0  0
    9.1195   -2.2532   -0.8183 H   0  0  0  0  0  0  0  0  0  0  0  0
    8.9457   -4.6726   -0.2984 H   0  0  0  0  0  0  0  0  0  0  0  0
    6.7362   -5.6693    0.2327 H   0  0  0  0  0  0  0  0  0  0  0  0
    4.7087   -4.2627    0.2467 H   0  0  0  0  0  0  0  0  0  0  0  0
    1.0192    1.3966   -0.2293 H   0  0  0  0  0  0  0  0  0  0  0  0
   -2.6465    2.6961    2.4913 H   0  0  0  0  0  0  0  0  0  0  0  0
   -4.0347    0.7707    3.1447 H   0  0  0  0  0  0  0  0  0  0  0  0
  1  2  1  0
  2  3  1  0
  2  4  1  0
  4  5  1  0
  5  6  2  0
  5  7  1  0
  7  8  2  0
  8  9  1  0
  9 10  2  0
 10 11  1  0
 11 12  1  0
 12 13  1  0
 13 14  2  0
 13 15  1  0
 15 16  2  0
 16 17  1  0
 17 18  2  0
 18 19  1  0
 19 20  1  0
 20 21  2  0
 21 22  1  0
 22 23  2  0
 23 24  1  0
 24 25  2  0
 25 26  1  0
 26 27  2  0
 27 28  1  0
 28 29  2  0
 23 30  1  0
 19 31  2  0
 10 32  1  0
 32 33  2  0
 33  7  1  0
 31 15  1  0
 30 20  1  0
 29 24  1  0
  1 34  1  0
  1 35  1  0
  1 36  1  0
  2 37  1  0
  3 38  1  0
  3 39  1  0
  3 40  1  0
  8 41  1  0
  9 42  1  0
 11 43  1  0
 11 44  1  0
 16 45  1  0
 17 46  1  0
 18 47  1  0
 25 48  1  0
 26 49  1  0
 27 50  1  0
 28 51  1  0
 29 52  1  0
 31 53  1  0
 32 54  1  0
 33 55  1  0
M  END
$$$$
