
     RDKit          3D

 53 56  0  0  0  0  0  0  0  0999 V2000
   -7.8547    1.5422    1.1848 C   0  0  0  0  0  0  0  0  0  0  0  0
   -6.4550    1.1328    0.8369 C   0  0  0  0  0  0  0  0  0  0  0  0
   -6.0689    0.9493   -0.4939 C   0  0  0  0  0  0  0  0  0  0  0  0
   -4.7662    0.5472   -0.8110 C   0  0  0  0  0  0  0  0  0  0  0  0
   -3.8249    0.3356    0.1957 C   0  0  0  0  0  0  0  0  0  0  0  0
   -2.5034   -0.1093   -0.0351 N   0  0  0  0  0  0  0  0  0  0  0  0
   -1.6897   -0.0205   -1.1603 C   0  0  0  0  0  0  0  0  0  0  0  0
   -1.8545    1.1798   -2.3316 S   0  0  0  0  0  0  0  0  0  0  0  0
   -0.6685   -1.0055   -1.1787 N   0  0  0  0  0  0  0  0  0  0  0  0
   -0.6620   -2.1430   -0.2373 C   0  0  0  0  0  0  0  0  0  0  0  0
    0.0018   -1.8048    1.0732 C   0  0  0  0  0  0  0  0  0  0  0  0
    0.5911   -0.6341    1.5172 C   0  0  0  0  0  0  0  0  0  0  0  0
    1.0973   -0.7403    2.8448 C   0  0  0  0  0  0  0  0  0  0  0  0
    0.8725   -1.9861    3.3825 C   0  0  0  0  0  0  0  0  0  0  0  0
    0.0619   -3.0189    2.2905 S   0  0  0  0  0  0  0  0  0  0  0  0
    0.3501   -1.0898   -2.2522 C   0  0  0  0  0  0  0  0  0  0  0  0
    1.6895   -0.6259   -1.7588 C   0  0  0  0  0  0  0  0  0  0  0  0
    2.0622    0.6659   -1.7370 C   0  0  0  0  0  0  0  0  0  0  0  0
    3.3765    1.0665   -1.2372 C   0  0  0  0  0  0  0  0  0  0  0  0
    3.7452    2.4128   -1.1927 C   0  0  0  0  0  0  0  0  0  0  0  0
    4.9997    2.7743   -0.7058 C   0  0  0  0  0  0  0  0  0  0  0  0
    5.8879    1.7939   -0.2591 C   0  0  0  0  0  0  0  0  0  0  0  0
    5.5368    0.4354   -0.2927 C   0  0  0  0  0  0  0  0  0  0  0  0
    6.5196   -0.5912    0.1931 C   0  0  0  0  0  0  0  0  0  0  0  0
    4.2715    0.0825   -0.7896 C   0  0  0  0  0  0  0  0  0  0  0  0
    3.8714   -1.2602   -0.8592 N   0  0  0  0  0  0  0  0  0  0  0  0
    2.6571   -1.6779   -1.3310 C   0  0  0  0  0  0  0  0  0  0  0  0
    2.3838   -2.8730   -1.3980 O   0  0  0  0  0  0  0  0  0  0  0  0
   -4.2227    0.4859    1.5296 C   0  0  0  0  0  0  0  0  0  0  0  0
   -5.5239    0.8867    1.8481 C   0  0  0  0  0  0  0  0  0  0  0  0
   -8.3923    0.6986    1.6292 H   0  0  0  0  0  0  0  0  0  0  0  0
   -8.4067    1.8725    0.2975 H   0  0  0  0  0  0  0  0  0  0  0  0
   -7.8425    2.3759    1.8949 H   0  0  0  0  0  0  0  0  0  0  0  0
   -6.7802    1.1098   -1.3010 H   0  0  0  0  0  0  0  0  0  0  0  0
   -4.5294    0.3734   -1.8550 H   0  0  0  0  0  0  0  0  0  0  0  0
   -2.0080   -0.3629    0.8092 H   0  0  0  0  0  0  0  0  0  0  0  0
   -0.1663   -3.0018   -0.7034 H   0  0  0  0  0  0  0  0  0  0  0  0
   -1.6989   -2.4520   -0.0554 H   0  0  0  0  0  0  0  0  0  0  0  0
    0.6640    0.2665    0.9194 H   0  0  0  0  0  0  0  0  0  0  0  0
    1.6010    0.0580    3.3761 H   0  0  0  0  0  0  0  0  0  0  0  0
    1.1463   -2.3422    4.3665 H   0  0  0  0  0  0  0  0  0  0  0  0
    0.3759   -2.1185   -2.6304 H   0  0  0  0  0  0  0  0  0  0  0  0
    0.0651   -0.4946   -3.1232 H   0  0  0  0  0  0  0  0  0  0  0  0
    1.3860    1.4478   -2.0682 H   0  0  0  0  0  0  0  0  0  0  0  0
    3.0636    3.1876   -1.5354 H   0  0  0  0  0  0  0  0  0  0  0  0
    5.2875    3.8224   -0.6731 H   0  0  0  0  0  0  0  0  0  0  0  0
    6.8618    2.1015    0.1166 H   0  0  0  0  0  0  0  0  0  0  0  0
    6.8105   -1.2559   -0.6265 H   0  0  0  0  0  0  0  0  0  0  0  0
    7.4304   -0.1238    0.5810 H   0  0  0  0  0  0  0  0  0  0  0  0
    6.0838   -1.1819    1.0057 H   0  0  0  0  0  0  0  0  0  0  0  0
    4.4947   -1.9971   -0.5632 H   0  0  0  0  0  0  0  0  0  0  0  0
   -3.5234    0.3034    2.3421 H   0  0  0  0  0  0  0  0  0  0  0  0
   -5.8043    1.0030    2.8923 H   0  0  0  0  0  0  0  0  0  0  0  0
  1  2  1  0
  2  3  2  0
  3  4  1  0
  4  5  2  0
  5  6  1  0
  6  7  1  0
  7  8  2  0
  7  9  1  0
  9 10  1  0
 10 11  1  0
 11 12  2  0
 12 13  1  0
 13 14  2  0
 14 15  1  0
  9 16  1  0
 16 17  1  0
 17 18  2  0
 18 19  1  0
 19 20  2  0
 20 21  1  0
 21 22  2  0
 22 23  1  0
 23 24  1  0
 23 25  2  0
 25 26  1  0
 26 27  1  0
 27 28  2  0
  5 29  1  0
 29 30  2  0
 30  2  1  0
 15 11  1  0
 27 17  1  0
 25 19  1  0
  1 31  1  0
  1 32  1  0
  1 33  1  0
  3 34  1  0
  4 35  1  0
  6 36  1  0
 10 37  1  0
 10 38  1  0
 12 39  1  0
 13 40  1  0
 14 41  1  0
 16 42  1  0
 16 43  1  0
 18 44  1  0
 20 45  1  0
 21 46  1  0
 22 47  1  0
 24 48  1  0
 24 49  1  0
 24 50  1  0
 26 51  1  0
 29 52  1  0
 30 53  1  0
M  END
$$$$
