
     RDKit          3D

 66 68  0  0  0  0  0  0  0  0999 V2000
   -3.0372    5.0714    3.8626 C   0  0  0  0  0  0  0  0  0  0  0  0
   -3.3278    4.6250    2.5464 O   0  0  0  0  0  0  0  0  0  0  0  0
   -2.4574    5.2305    1.5853 C   0  0  0  0  0  0  0  0  0  0  0  0
   -2.7519    4.6624    0.1944 C   0  0  0  0  0  0  0  0  0  0  0  0
   -2.5657    3.2093    0.1555 N   0  0  0  0  0  0  0  0  0  0  0  0
   -2.4409    2.4138   -0.9627 C   0  0  0  0  0  0  0  0  0  0  0  0
   -2.4349    3.0401   -2.5264 S   0  0  0  0  0  0  0  0  0  0  0  0
   -2.3274    1.0465   -0.6649 N   0  0  0  0  0  0  0  0  0  0  0  0
   -2.7759    0.4708    0.6084 C   0  0  0  0  0  0  0  0  0  0  0  0
   -3.6279   -0.7688    0.3674 C   0  0  0  0  0  0  0  0  0  0  0  0
   -2.8759   -1.7851   -0.4478 C   0  0  0  0  0  0  0  0  0  0  0  0
   -3.2121   -3.1473   -0.3360 C   0  0  0  0  0  0  0  0  0  0  0  0
   -2.5298   -4.1146   -1.0773 C   0  0  0  0  0  0  0  0  0  0  0  0
   -2.7726   -5.4608   -1.0106 O   0  0  0  0  0  0  0  0  0  0  0  0
   -4.0403   -5.8553   -0.5050 C   0  0  0  0  0  0  0  0  0  0  0  0
   -1.4954   -3.7038   -1.9261 C   0  0  0  0  0  0  0  0  0  0  0  0
   -0.8193   -4.6477   -2.6655 O   0  0  0  0  0  0  0  0  0  0  0  0
    0.5418   -4.7389   -2.2430 C   0  0  0  0  0  0  0  0  0  0  0  0
   -1.1977   -2.3471   -2.0884 C   0  0  0  0  0  0  0  0  0  0  0  0
   -1.8751   -1.3654   -1.3435 C   0  0  0  0  0  0  0  0  0  0  0  0
   -1.5602    0.1206   -1.5535 C   0  0  0  0  0  0  0  0  0  0  0  0
   -0.0377    0.4325   -1.4685 C   0  0  0  0  0  0  0  0  0  0  0  0
    0.4837    0.0705   -0.1819 O   0  0  0  0  0  0  0  0  0  0  0  0
    1.8454    0.1291   -0.0480 C   0  0  0  0  0  0  0  0  0  0  0  0
    2.7221    0.7761   -0.9196 C   0  0  0  0  0  0  0  0  0  0  0  0
    4.0990    0.7577   -0.6762 C   0  0  0  0  0  0  0  0  0  0  0  0
    4.6253    0.1036    0.4459 C   0  0  0  0  0  0  0  0  0  0  0  0
    6.1192    0.0641    0.7136 C   0  0  0  0  0  0  0  0  0  0  0  0
    6.8538   -0.7411   -0.3636 C   0  0  0  0  0  0  0  0  0  0  0  0
    6.7119    1.4705    0.8415 C   0  0  0  0  0  0  0  0  0  0  0  0
    3.7351   -0.5329    1.3214 C   0  0  0  0  0  0  0  0  0  0  0  0
    2.3585   -0.5161    1.0767 C   0  0  0  0  0  0  0  0  0  0  0  0
   -3.1579    6.1578    3.9381 H   0  0  0  0  0  0  0  0  0  0  0  0
   -2.0193    4.7855    4.1466 H   0  0  0  0  0  0  0  0  0  0  0  0
   -3.7329    4.5878    4.5532 H   0  0  0  0  0  0  0  0  0  0  0  0
   -1.4145    5.0226    1.8552 H   0  0  0  0  0  0  0  0  0  0  0  0
   -2.6181    6.3138    1.5838 H   0  0  0  0  0  0  0  0  0  0  0  0
   -3.7912    4.8562   -0.0895 H   0  0  0  0  0  0  0  0  0  0  0  0
   -2.0864    5.1347   -0.5362 H   0  0  0  0  0  0  0  0  0  0  0  0
   -2.2359    2.8130    1.0242 H   0  0  0  0  0  0  0  0  0  0  0  0
   -3.3832    1.1796    1.1776 H   0  0  0  0  0  0  0  0  0  0  0  0
   -1.8826    0.2404    1.1983 H   0  0  0  0  0  0  0  0  0  0  0  0
   -4.5428   -0.4978   -0.1726 H   0  0  0  0  0  0  0  0  0  0  0  0
   -3.9185   -1.1951    1.3345 H   0  0  0  0  0  0  0  0  0  0  0  0
   -4.0103   -3.4273    0.3484 H   0  0  0  0  0  0  0  0  0  0  0  0
   -4.1556   -6.9266   -0.6874 H   0  0  0  0  0  0  0  0  0  0  0  0
   -4.8535   -5.3429   -1.0291 H   0  0  0  0  0  0  0  0  0  0  0  0
   -4.0982   -5.6951    0.5754 H   0  0  0  0  0  0  0  0  0  0  0  0
    1.1435   -3.9557   -2.7204 H   0  0  0  0  0  0  0  0  0  0  0  0
    0.6420   -4.6726   -1.1503 H   0  0  0  0  0  0  0  0  0  0  0  0
    0.9286   -5.7117   -2.5659 H   0  0  0  0  0  0  0  0  0  0  0  0
   -0.4376   -2.0686   -2.8135 H   0  0  0  0  0  0  0  0  0  0  0  0
   -1.8786    0.3314   -2.5809 H   0  0  0  0  0  0  0  0  0  0  0  0
    0.4944   -0.1161   -2.2543 H   0  0  0  0  0  0  0  0  0  0  0  0
    0.1281    1.5048   -1.6263 H   0  0  0  0  0  0  0  0  0  0  0  0
    2.3769    1.3193   -1.7912 H   0  0  0  0  0  0  0  0  0  0  0  0
    4.7595    1.2660   -1.3749 H   0  0  0  0  0  0  0  0  0  0  0  0
    6.2929   -0.4453    1.6708 H   0  0  0  0  0  0  0  0  0  0  0  0
    6.7194   -0.3087   -1.3637 H   0  0  0  0  0  0  0  0  0  0  0  0
    7.9292   -0.7764   -0.1554 H   0  0  0  0  0  0  0  0  0  0  0  0
    6.4826   -1.7730   -0.3953 H   0  0  0  0  0  0  0  0  0  0  0  0
    6.5794    2.0560   -0.0777 H   0  0  0  0  0  0  0  0  0  0  0  0
    7.7893    1.4242    1.0494 H   0  0  0  0  0  0  0  0  0  0  0  0
    6.2324    2.0159    1.6612 H   0  0  0  0  0  0  0  0  0  0  0  0
    4.1053   -1.0474    2.2067 H   0  0  0  0  0  0  0  0  0  0  0  0
    1.6809   -1.0178    1.7628 H   0  0  0  0  0  0  0  0  0  0  0  0
  1  2  1  0
  2  3  1  0
  3  4  1  0
  4  5  1  0
  5  6  1  0
  6  7  2  0
  6  8  1  0
  8  9  1  0
  9 10  1  0
 10 11  1  0
 11 12  2  0
 12 13  1  0
 13 14  1  0
 14 15  1  0
 13 16  2  0
 16 17  1  0
 17 18  1  0
 16 19  1  0
 19 20  2  0
 20 21  1  0
 21 22  1  0
 22 23  1  0
 23 24  1  0
 24 25  2  0
 25 26  1  0
 26 27  2  0
 27 28  1  0
 28 29  1  0
 28 30  1  0
 27 31  1  0
 31 32  2  0
 21  8  1  0
 32 24  1  0
 20 11  1  0
  1 33  1  0
  1 34  1  0
  1 35  1  0
  3 36  1  0
  3 37  1  0
  4 38  1  0
  4 39  1  0
  5 40  1  0
  9 41  1  0
  9 42  1  0
 10 43  1  0
 10 44  1  0
 12 45  1  0
 15 46  1  0
 15 47  1  0
 15 48  1  0
 18 49  1  0
 18 50  1  0
 18 51  1  0
 19 52  1  0
 21 53  1  0
 22 54  1  0
 22 55  1  0
 25 56  1  0
 26 57  1  0
 28 58  1  0
 29 59  1  0
 29 60  1  0
 29 61  1  0
 30 62  1  0
 30 63  1  0
 30 64  1  0
 31 65  1  0
 32 66  1  0
M  END
$$$$
