
     RDKit          3D

 49 52  0  0  0  0  0  0  0  0999 V2000
   -6.6920    3.6023    0.0524 C   0  0  0  0  0  0  0  0  0  0  0  0
   -5.5302    2.7621    0.5516 C   0  0  0  0  0  0  0  0  0  0  0  0
   -5.1497    1.8716   -0.4955 O   0  0  0  0  0  0  0  0  0  0  0  0
   -4.0931    1.0389   -0.2496 C   0  0  0  0  0  0  0  0  0  0  0  0
   -3.7289    0.2262   -1.3254 C   0  0  0  0  0  0  0  0  0  0  0  0
   -2.6646   -0.6723   -1.2136 C   0  0  0  0  0  0  0  0  0  0  0  0
   -1.9561   -0.7745   -0.0124 C   0  0  0  0  0  0  0  0  0  0  0  0
   -0.8423   -1.7069    0.1107 C   0  0  0  0  0  0  0  0  0  0  0  0
    0.5264   -1.4722    0.0796 C   0  0  0  0  0  0  0  0  0  0  0  0
    1.2384   -0.2037   -0.0628 C   0  0  0  0  0  0  0  0  0  0  0  0
    0.6672    0.8797   -0.1296 O   0  0  0  0  0  0  0  0  0  0  0  0
    2.6155   -0.3826   -0.1032 N   0  0  0  0  0  0  0  0  0  0  0  0
    3.4556    0.6835   -0.2269 N   0  0  0  0  0  0  0  0  0  0  0  0
    4.7177    0.3961   -0.2581 C   0  0  0  0  0  0  0  0  0  0  0  0
    5.7503    1.4428   -0.3892 C   0  0  0  0  0  0  0  0  0  0  0  0
    7.0961    1.0646   -0.4132 C   0  0  0  0  0  0  0  0  0  0  0  0
    8.0865    2.0408   -0.5367 C   0  0  0  0  0  0  0  0  0  0  0  0
    7.7327    3.3873   -0.6357 C   0  0  0  0  0  0  0  0  0  0  0  0
    6.3891    3.7626   -0.6116 C   0  0  0  0  0  0  0  0  0  0  0  0
    5.3949    2.7912   -0.4883 C   0  0  0  0  0  0  0  0  0  0  0  0
    1.1947   -2.6647    0.1969 N   0  0  0  0  0  0  0  0  0  0  0  0
    0.3034   -3.6315    0.3081 N   0  0  0  0  0  0  0  0  0  0  0  0
   -0.9526   -3.0897    0.2849 N   0  0  0  0  0  0  0  0  0  0  0  0
   -2.1054   -3.8999    0.4507 C   0  0  0  0  0  0  0  0  0  0  0  0
   -3.3252   -3.3669    0.5210 N   0  0  0  0  0  0  0  0  0  0  0  0
   -4.1670   -4.4614    0.7034 O   0  0  0  0  0  0  0  0  0  0  0  0
   -3.4459   -5.6499    0.7510 N   0  0  0  0  0  0  0  0  0  0  0  0
   -2.1709   -5.2996    0.5880 C   0  0  0  0  0  0  0  0  0  0  0  0
   -1.1437   -6.1706    0.5623 N   0  0  0  0  0  0  0  0  0  0  0  0
   -2.3159    0.0442    1.0632 C   0  0  0  0  0  0  0  0  0  0  0  0
   -3.3809    0.9457    0.9459 C   0  0  0  0  0  0  0  0  0  0  0  0
   -6.4041    4.1660   -0.8412 H   0  0  0  0  0  0  0  0  0  0  0  0
   -7.0239    4.3050    0.8218 H   0  0  0  0  0  0  0  0  0  0  0  0
   -7.5354    2.9641   -0.2314 H   0  0  0  0  0  0  0  0  0  0  0  0
   -5.8516    2.1962    1.4336 H   0  0  0  0  0  0  0  0  0  0  0  0
   -4.6960    3.4241    0.8114 H   0  0  0  0  0  0  0  0  0  0  0  0
   -4.2768    0.2974   -2.2617 H   0  0  0  0  0  0  0  0  0  0  0  0
   -2.4008   -1.2845   -2.0719 H   0  0  0  0  0  0  0  0  0  0  0  0
    2.9891   -1.3248   -0.0394 H   0  0  0  0  0  0  0  0  0  0  0  0
    5.0767   -0.6467   -0.1878 H   0  0  0  0  0  0  0  0  0  0  0  0
    7.3858    0.0203   -0.3374 H   0  0  0  0  0  0  0  0  0  0  0  0
    9.1351    1.7540   -0.5563 H   0  0  0  0  0  0  0  0  0  0  0  0
    8.5052    4.1467   -0.7321 H   0  0  0  0  0  0  0  0  0  0  0  0
    6.1140    4.8116   -0.6891 H   0  0  0  0  0  0  0  0  0  0  0  0
    4.3486    3.0902   -0.4706 H   0  0  0  0  0  0  0  0  0  0  0  0
   -0.1804   -5.8512    0.6474 H   0  0  0  0  0  0  0  0  0  0  0  0
   -1.3013   -7.1213    0.8806 H   0  0  0  0  0  0  0  0  0  0  0  0
   -1.7669   -0.0018    2.0008 H   0  0  0  0  0  0  0  0  0  0  0  0
   -3.6214    1.5617    1.8054 H   0  0  0  0  0  0  0  0  0  0  0  0
  1  2  1  0
  2  3  1  0
  3  4  1  0
  4  5  2  0
  5  6  1  0
  6  7  2  0
  7  8  1  0
  8  9  2  0
  9 10  1  0
 10 11  2  0
 10 12  1  0
 12 13  1  0
 13 14  2  3
 14 15  1  0
 15 16  2  0
 16 17  1  0
 17 18  2  0
 18 19  1  0
 19 20  2  0
  9 21  1  0
 21 22  2  0
 22 23  1  0
 23 24  1  0
 24 25  2  0
 25 26  1  0
 26 27  1  0
 27 28  2  0
 28 29  1  0
  7 30  1  0
 30 31  2  0
 31  4  1  0
 23  8  1  0
 28 24  1  0
 20 15  1  0
  1 32  1  0
  1 33  1  0
  1 34  1  0
  2 35  1  0
  2 36  1  0
  5 37  1  0
  6 38  1  0
 12 39  1  0
 14 40  1  0
 16 41  1  0
 17 42  1  0
 18 43  1  0
 19 44  1  0
 20 45  1  0
 29 46  1  0
 29 47  1  0
 30 48  1  0
 31 49  1  0
M  END
$$$$
