
     RDKit          3D

 35 37  0  0  0  0  0  0  0  0999 V2000
    5.3543    0.9190    1.1557 C   0  0  0  0  0  0  0  0  0  0  0  0
    4.0452    0.1791    1.2068 C   0  0  0  0  0  0  0  0  0  0  0  0
    3.1749    0.3976    2.2858 C   0  0  0  0  0  0  0  0  0  0  0  0
    1.9567   -0.2783    2.3675 C   0  0  0  0  0  0  0  0  0  0  0  0
    1.5822   -1.1755    1.3695 C   0  0  0  0  0  0  0  0  0  0  0  0
    0.3519   -1.8405    1.4420 N   0  0  0  0  0  0  0  0  0  0  0  0
   -0.6779   -1.3028    0.8856 C   0  0  0  0  0  0  0  0  0  0  0  0
   -0.7355   -0.1287    0.2089 N   0  0  0  0  0  0  0  0  0  0  0  0
   -1.9437    0.2679   -0.2899 C   0  0  0  0  0  0  0  0  0  0  0  0
   -2.1021    1.3237   -0.8793 O   0  0  0  0  0  0  0  0  0  0  0  0
   -2.9854   -0.7603    0.0122 C   0  0  0  0  0  0  0  0  0  0  0  0
   -4.2932   -0.7830   -0.2825 C   0  0  0  0  0  0  0  0  0  0  0  0
   -5.0005    0.2041   -1.0238 C   0  0  0  0  0  0  0  0  0  0  0  0
   -4.6875    0.8639   -2.1998 C   0  0  0  0  0  0  0  0  0  0  0  0
   -5.7019    1.7725   -2.6219 C   0  0  0  0  0  0  0  0  0  0  0  0
   -6.7800    1.7697   -1.7694 C   0  0  0  0  0  0  0  0  0  0  0  0
   -6.5701    0.6739   -0.4777 S   0  0  0  0  0  0  0  0  0  0  0  0
   -2.2484   -2.0527    0.9227 S   0  0  0  0  0  0  0  0  0  0  0  0
    2.4538   -1.4169    0.3048 C   0  0  0  0  0  0  0  0  0  0  0  0
    3.6842   -0.7460    0.2068 C   0  0  0  0  0  0  0  0  0  0  0  0
    4.5897   -1.0364   -0.9588 C   0  0  0  0  0  0  0  0  0  0  0  0
    5.4462    1.6308    1.9831 H   0  0  0  0  0  0  0  0  0  0  0  0
    6.1901    0.2159    1.2279 H   0  0  0  0  0  0  0  0  0  0  0  0
    5.4346    1.4888    0.2246 H   0  0  0  0  0  0  0  0  0  0  0  0
    3.4439    1.0931    3.0783 H   0  0  0  0  0  0  0  0  0  0  0  0
    1.2994   -0.1074    3.2158 H   0  0  0  0  0  0  0  0  0  0  0  0
    0.0707    0.4649    0.0942 H   0  0  0  0  0  0  0  0  0  0  0  0
   -4.8919   -1.6141    0.0886 H   0  0  0  0  0  0  0  0  0  0  0  0
   -3.7617    0.7126   -2.7422 H   0  0  0  0  0  0  0  0  0  0  0  0
   -5.6399    2.3934   -3.5070 H   0  0  0  0  0  0  0  0  0  0  0  0
   -7.6858    2.3553   -1.8451 H   0  0  0  0  0  0  0  0  0  0  0  0
    2.1655   -2.1433   -0.4519 H   0  0  0  0  0  0  0  0  0  0  0  0
    4.1586   -1.7915   -1.6247 H   0  0  0  0  0  0  0  0  0  0  0  0
    5.5525   -1.4198   -0.6065 H   0  0  0  0  0  0  0  0  0  0  0  0
    4.7509   -0.1293   -1.5497 H   0  0  0  0  0  0  0  0  0  0  0  0
  1  2  1  0
  2  3  2  0
  3  4  1  0
  4  5  2  0
  5  6  1  0
  6  7  2  3
  7  8  1  0
  8  9  1  0
  9 10  2  0
  9 11  1  0
 11 12  2  3
 12 13  1  0
 13 14  2  0
 14 15  1  0
 15 16  2  0
 16 17  1  0
 11 18  1  0
  5 19  1  0
 19 20  2  0
 20 21  1  0
 20  2  1  0
 18  7  1  0
 17 13  1  0
  1 22  1  0
  1 23  1  0
  1 24  1  0
  3 25  1  0
  4 26  1  0
  8 27  1  0
 12 28  1  0
 14 29  1  0
 15 30  1  0
 16 31  1  0
 19 32  1  0
 21 33  1  0
 21 34  1  0
 21 35  1  0
M  END
$$$$
