
     RDKit          3D

 41 44  0  0  0  0  0  0  0  0999 V2000
    1.2885    1.1959    0.9096 O   0  0  0  0  0  0  0  0  0  0  0  0
    1.1988    0.7244   -0.2210 C   0  0  0  0  0  0  0  0  0  0  0  0
   -0.0717    0.8856   -1.0743 C   0  0  0  0  0  0  0  0  0  0  0  0
   -1.2965    0.5062   -0.3370 N   0  0  0  0  0  0  0  0  0  0  0  0
   -2.0519    1.5285    0.2870 C   0  0  0  0  0  0  0  0  0  0  0  0
   -1.5530    2.8158    0.5536 C   0  0  0  0  0  0  0  0  0  0  0  0
   -2.3418    3.8019    1.1621 C   0  0  0  0  0  0  0  0  0  0  0  0
   -3.6525    3.5247    1.5309 C   0  0  0  0  0  0  0  0  0  0  0  0
   -4.1692    2.2543    1.3060 C   0  0  0  0  0  0  0  0  0  0  0  0
   -3.3718    1.2695    0.7015 C   0  0  0  0  0  0  0  0  0  0  0  0
   -3.9405   -0.0793    0.5013 C   0  0  0  0  0  0  0  0  0  0  0  0
   -5.1147   -0.3115    0.7746 O   0  0  0  0  0  0  0  0  0  0  0  0
   -3.0642   -1.1483   -0.0210 C   0  0  0  0  0  0  0  0  0  0  0  0
   -3.5701   -2.4554   -0.1004 C   0  0  0  0  0  0  0  0  0  0  0  0
   -2.7649   -3.4845   -0.5733 C   0  0  0  0  0  0  0  0  0  0  0  0
   -1.4590   -3.2060   -0.9577 C   0  0  0  0  0  0  0  0  0  0  0  0
   -0.9610   -1.8978   -0.8810 C   0  0  0  0  0  0  0  0  0  0  0  0
   -1.7540   -0.8298   -0.4251 C   0  0  0  0  0  0  0  0  0  0  0  0
    2.2098    0.0418   -0.8831 N   0  0  0  0  0  0  0  0  0  0  0  0
    3.4881   -0.3005   -0.3872 C   0  0  0  0  0  0  0  0  0  0  0  0
    3.9411   -0.0236    0.9022 C   0  0  0  0  0  0  0  0  0  0  0  0
    5.2291   -0.4112    1.2943 C   0  0  0  0  0  0  0  0  0  0  0  0
    6.0721   -1.0783    0.4043 C   0  0  0  0  0  0  0  0  0  0  0  0
    5.6292   -1.3624   -0.8842 C   0  0  0  0  0  0  0  0  0  0  0  0
    4.3484   -0.9740   -1.2655 C   0  0  0  0  0  0  0  0  0  0  0  0
    3.9274   -1.2545   -2.5101 F   0  0  0  0  0  0  0  0  0  0  0  0
   -0.1030    1.9228   -1.4296 H   0  0  0  0  0  0  0  0  0  0  0  0
    0.0095    0.3069   -2.0029 H   0  0  0  0  0  0  0  0  0  0  0  0
   -0.5244    3.0842    0.3309 H   0  0  0  0  0  0  0  0  0  0  0  0
   -1.9194    4.7848    1.3582 H   0  0  0  0  0  0  0  0  0  0  0  0
   -4.2637    4.2874    2.0058 H   0  0  0  0  0  0  0  0  0  0  0  0
   -5.1887    2.0242    1.6081 H   0  0  0  0  0  0  0  0  0  0  0  0
   -4.5901   -2.6675    0.2136 H   0  0  0  0  0  0  0  0  0  0  0  0
   -3.1519   -4.4985   -0.6303 H   0  0  0  0  0  0  0  0  0  0  0  0
   -0.8171   -4.0096   -1.3118 H   0  0  0  0  0  0  0  0  0  0  0  0
    0.0744   -1.7584   -1.1691 H   0  0  0  0  0  0  0  0  0  0  0  0
    2.0487   -0.2488   -1.8424 H   0  0  0  0  0  0  0  0  0  0  0  0
    3.3206    0.4881    1.6315 H   0  0  0  0  0  0  0  0  0  0  0  0
    5.5711   -0.1899    2.3034 H   0  0  0  0  0  0  0  0  0  0  0  0
    7.0697   -1.3754    0.7184 H   0  0  0  0  0  0  0  0  0  0  0  0
    6.2689   -1.8817   -1.5903 H   0  0  0  0  0  0  0  0  0  0  0  0
  1  2  2  0
  2  3  1  0
  3  4  1  0
  4  5  1  0
  5  6  2  0
  6  7  1  0
  7  8  2  0
  8  9  1  0
  9 10  2  0
 10 11  1  0
 11 12  2  0
 11 13  1  0
 13 14  2  0
 14 15  1  0
 15 16  2  0
 16 17  1  0
 17 18  2  0
  2 19  1  0
 19 20  1  0
 20 21  2  0
 21 22  1  0
 22 23  2  0
 23 24  1  0
 24 25  2  0
 25 26  1  0
 18  4  1  0
 25 20  1  0
 10  5  1  0
 18 13  1  0
  3 27  1  0
  3 28  1  0
  6 29  1  0
  7 30  1  0
  8 31  1  0
  9 32  1  0
 14 33  1  0
 15 34  1  0
 16 35  1  0
 17 36  1  0
 19 37  1  0
 21 38  1  0
 22 39  1  0
 23 40  1  0
 24 41  1  0
M  END
$$$$
