
     RDKit          3D

 39 40  0  0  0  0  0  0  0  0999 V2000
   -2.9134    2.3943    0.7598 C   0  0  0  0  0  0  0  0  0  0  0  0
   -3.4532    1.0060    0.4495 C   0  0  0  0  0  0  0  0  0  0  0  0
   -2.4852    0.1640   -0.2633 N   0  0  0  0  0  0  0  0  0  0  0  0
   -2.3093    0.4296   -1.6941 C   0  0  0  0  0  0  0  0  0  0  0  0
   -3.2402   -0.4213   -2.5448 C   0  0  0  0  0  0  0  0  0  0  0  0
   -1.7606   -0.8818    0.2911 C   0  0  0  0  0  0  0  0  0  0  0  0
   -0.9857   -1.5732   -0.3841 O   0  0  0  0  0  0  0  0  0  0  0  0
   -1.8977   -1.2086    1.7664 C   0  0  0  0  0  0  0  0  0  0  0  0
   -0.8866   -0.1800    2.8568 S   0  0  0  0  0  0  0  0  0  0  0  0
    0.4283    0.3514    1.8642 C   0  0  0  0  0  0  0  0  0  0  0  0
    0.7210    1.6073    1.6277 N   0  0  0  0  0  0  0  0  0  0  0  0
    1.8436    1.6269    0.8350 N   0  0  0  0  0  0  0  0  0  0  0  0
    2.2213    0.3790    0.5912 C   0  0  0  0  0  0  0  0  0  0  0  0
    3.3829    0.0032   -0.2196 C   0  0  0  0  0  0  0  0  0  0  0  0
    4.4763    0.8741   -0.2796 C   0  0  0  0  0  0  0  0  0  0  0  0
    5.5692    0.5270   -1.0561 C   0  0  0  0  0  0  0  0  0  0  0  0
    5.6453   -0.6117   -1.7743 N   0  0  0  0  0  0  0  0  0  0  0  0
    4.5762   -1.4323   -1.7190 C   0  0  0  0  0  0  0  0  0  0  0  0
    3.4377   -1.1713   -0.9720 C   0  0  0  0  0  0  0  0  0  0  0  0
    1.3548   -0.4673    1.2620 N   0  0  0  0  0  0  0  0  0  0  0  0
    1.4075   -1.9081    1.3245 N   0  0  0  0  0  0  0  0  0  0  0  0
   -2.0134    2.3451    1.3769 H   0  0  0  0  0  0  0  0  0  0  0  0
   -3.6647    2.9774    1.3017 H   0  0  0  0  0  0  0  0  0  0  0  0
   -2.6593    2.9418   -0.1526 H   0  0  0  0  0  0  0  0  0  0  0  0
   -4.3517    1.0866   -0.1729 H   0  0  0  0  0  0  0  0  0  0  0  0
   -3.7653    0.5343    1.3822 H   0  0  0  0  0  0  0  0  0  0  0  0
   -2.4853    1.4914   -1.8927 H   0  0  0  0  0  0  0  0  0  0  0  0
   -1.2711    0.2210   -1.9770 H   0  0  0  0  0  0  0  0  0  0  0  0
   -4.2888   -0.2193   -2.3041 H   0  0  0  0  0  0  0  0  0  0  0  0
   -3.0608   -1.4890   -2.3819 H   0  0  0  0  0  0  0  0  0  0  0  0
   -3.0860   -0.2071   -3.6067 H   0  0  0  0  0  0  0  0  0  0  0  0
   -2.9427   -1.1904    2.0830 H   0  0  0  0  0  0  0  0  0  0  0  0
   -1.5783   -2.2489    1.9017 H   0  0  0  0  0  0  0  0  0  0  0  0
    4.4790    1.8106    0.2704 H   0  0  0  0  0  0  0  0  0  0  0  0
    6.4364    1.1777   -1.1227 H   0  0  0  0  0  0  0  0  0  0  0  0
    4.6561   -2.3366   -2.3159 H   0  0  0  0  0  0  0  0  0  0  0  0
    2.6150   -1.8759   -1.0031 H   0  0  0  0  0  0  0  0  0  0  0  0
    0.7193   -2.2882    0.6661 H   0  0  0  0  0  0  0  0  0  0  0  0
    1.1297   -2.2376    2.2469 H   0  0  0  0  0  0  0  0  0  0  0  0
  1  2  1  0
  2  3  1  0
  3  4  1  0
  4  5  1  0
  3  6  1  0
  6  7  2  0
  6  8  1  0
  8  9  1  0
  9 10  1  0
 10 11  2  0
 11 12  1  0
 12 13  2  0
 13 14  1  0
 14 15  2  0
 15 16  1  0
 16 17  2  0
 17 18  1  0
 18 19  2  0
 13 20  1  0
 20 21  1  0
 20 10  1  0
 19 14  1  0
  1 22  1  0
  1 23  1  0
  1 24  1  0
  2 25  1  0
  2 26  1  0
  4 27  1  0
  4 28  1  0
  5 29  1  0
  5 30  1  0
  5 31  1  0
  8 32  1  0
  8 33  1  0
 15 34  1  0
 16 35  1  0
 18 36  1  0
 19 37  1  0
 21 38  1  0
 21 39  1  0
M  END
$$$$
