
     RDKit          3D

 53 56  0  0  0  0  0  0  0  0999 V2000
    6.0131   -1.5491    2.6718 C   0  0  0  0  0  0  0  0  0  0  0  0
    6.7260   -0.6082    1.8758 O   0  0  0  0  0  0  0  0  0  0  0  0
    6.0318   -0.0173    0.8565 C   0  0  0  0  0  0  0  0  0  0  0  0
    6.7498    0.9300    0.1315 C   0  0  0  0  0  0  0  0  0  0  0  0
    6.1558    1.6186   -0.9298 C   0  0  0  0  0  0  0  0  0  0  0  0
    4.8247    1.3682   -1.2869 C   0  0  0  0  0  0  0  0  0  0  0  0
    4.1855    2.0304   -2.3047 O   0  0  0  0  0  0  0  0  0  0  0  0
    4.7578    3.2562   -2.7449 C   0  0  0  0  0  0  0  0  0  0  0  0
    4.0965    0.3882   -0.5805 C   0  0  0  0  0  0  0  0  0  0  0  0
    2.7071    0.0333   -0.8782 C   0  0  0  0  0  0  0  0  0  0  0  0
    2.1416    0.0067   -2.1407 C   0  0  0  0  0  0  0  0  0  0  0  0
    0.4997   -0.4869   -2.0410 S   0  0  0  0  0  0  0  0  0  0  0  0
    0.6771   -0.6547   -0.3515 C   0  0  0  0  0  0  0  0  0  0  0  0
   -0.4585   -1.0636    0.2857 N   0  0  0  0  0  0  0  0  0  0  0  0
   -0.5308   -1.2247    1.6535 C   0  0  0  0  0  0  0  0  0  0  0  0
    0.4173   -1.1447    2.4365 O   0  0  0  0  0  0  0  0  0  0  0  0
   -1.8973   -1.6259    2.1815 C   0  0  0  0  0  0  0  0  0  0  0  0
   -3.0167   -1.1220    1.3979 N   0  0  0  0  0  0  0  0  0  0  0  0
   -3.5291    0.1493    1.4860 C   0  0  0  0  0  0  0  0  0  0  0  0
   -3.0015    1.0314    2.3227 O   0  0  0  0  0  0  0  0  0  0  0  0
   -4.5790    0.2406    0.5973 C   0  0  0  0  0  0  0  0  0  0  0  0
   -4.7007   -1.0262   -0.0502 C   0  0  0  0  0  0  0  0  0  0  0  0
   -3.6997   -1.8366    0.4413 C   0  0  0  0  0  0  0  0  0  0  0  0
   -3.3355   -3.0736    0.1315 O   0  0  0  0  0  0  0  0  0  0  0  0
   -5.7290   -1.3074   -1.0950 C   0  0  0  0  0  0  0  0  0  0  0  0
   -6.8444   -0.2498   -1.0844 C   0  0  0  0  0  0  0  0  0  0  0  0
   -6.2799    1.1746   -0.9874 C   0  0  0  0  0  0  0  0  0  0  0  0
   -5.4878    1.3900    0.3118 C   0  0  0  0  0  0  0  0  0  0  0  0
    1.8542   -0.3774    0.1391 N   0  0  0  0  0  0  0  0  0  0  0  0
    4.7118   -0.2827    0.4982 C   0  0  0  0  0  0  0  0  0  0  0  0
    5.1561   -1.0815    3.1688 H   0  0  0  0  0  0  0  0  0  0  0  0
    5.7031   -2.4137    2.0758 H   0  0  0  0  0  0  0  0  0  0  0  0
    6.6933   -1.9095    3.4492 H   0  0  0  0  0  0  0  0  0  0  0  0
    7.7829    1.1393    0.3989 H   0  0  0  0  0  0  0  0  0  0  0  0
    6.7642    2.3446   -1.4588 H   0  0  0  0  0  0  0  0  0  0  0  0
    4.9422    3.9369   -1.9072 H   0  0  0  0  0  0  0  0  0  0  0  0
    4.0392    3.7394   -3.4135 H   0  0  0  0  0  0  0  0  0  0  0  0
    5.6712    3.0753   -3.3182 H   0  0  0  0  0  0  0  0  0  0  0  0
    2.5911    0.2446   -3.0932 H   0  0  0  0  0  0  0  0  0  0  0  0
   -1.2717   -1.2048   -0.2962 H   0  0  0  0  0  0  0  0  0  0  0  0
   -1.9573   -2.7181    2.2218 H   0  0  0  0  0  0  0  0  0  0  0  0
   -2.0166   -1.2411    3.2003 H   0  0  0  0  0  0  0  0  0  0  0  0
   -3.5021    1.8604    2.2312 H   0  0  0  0  0  0  0  0  0  0  0  0
   -3.9881   -3.4188   -0.5038 H   0  0  0  0  0  0  0  0  0  0  0  0
   -5.2405   -1.3146   -2.0779 H   0  0  0  0  0  0  0  0  0  0  0  0
   -6.1681   -2.2998   -0.9406 H   0  0  0  0  0  0  0  0  0  0  0  0
   -7.5082   -0.4277   -0.2295 H   0  0  0  0  0  0  0  0  0  0  0  0
   -7.4522   -0.3513   -1.9916 H   0  0  0  0  0  0  0  0  0  0  0  0
   -5.6274    1.3597   -1.8496 H   0  0  0  0  0  0  0  0  0  0  0  0
   -7.0951    1.9050   -1.0415 H   0  0  0  0  0  0  0  0  0  0  0  0
   -4.9138    2.3201    0.2364 H   0  0  0  0  0  0  0  0  0  0  0  0
   -6.1859    1.5036    1.1503 H   0  0  0  0  0  0  0  0  0  0  0  0
    4.1237   -1.0148    1.0457 H   0  0  0  0  0  0  0  0  0  0  0  0
  1  2  1  0
  2  3  1  0
  3  4  2  0
  4  5  1  0
  5  6  2  0
  6  7  1  0
  7  8  1  0
  6  9  1  0
  9 10  1  0
 10 11  2  0
 11 12  1  0
 12 13  1  0
 13 14  1  0
 14 15  1  0
 15 16  2  0
 15 17  1  0
 17 18  1  0
 18 19  1  0
 19 20  1  0
 19 21  2  0
 21 22  1  0
 22 23  2  0
 23 24  1  0
 22 25  1  0
 25 26  1  0
 26 27  1  0
 27 28  1  0
 13 29  2  0
  9 30  2  0
 30  3  1  0
 29 10  1  0
 23 18  1  0
 28 21  1  0
  1 31  1  0
  1 32  1  0
  1 33  1  0
  4 34  1  0
  5 35  1  0
  8 36  1  0
  8 37  1  0
  8 38  1  0
 11 39  1  0
 14 40  1  0
 17 41  1  0
 17 42  1  0
 20 43  1  0
 24 44  1  0
 25 45  1  0
 25 46  1  0
 26 47  1  0
 26 48  1  0
 27 49  1  0
 27 50  1  0
 28 51  1  0
 28 52  1  0
 30 53  1  0
M  END
$$$$
