
     RDKit          3D

 45 47  0  0  0  0  0  0  0  0999 V2000
   -3.2009    2.2353    0.7672 O   0  0  0  0  0  0  0  0  0  0  0  0
   -2.6796    1.7373   -0.2294 C   0  0  0  0  0  0  0  0  0  0  0  0
   -1.4627    2.3670   -0.9167 C   0  0  0  0  0  0  0  0  0  0  0  0
   -0.5230    2.8948    0.0177 O   0  0  0  0  0  0  0  0  0  0  0  0
    0.1129    1.9380    0.7545 C   0  0  0  0  0  0  0  0  0  0  0  0
   -0.0223    0.7308    0.5889 O   0  0  0  0  0  0  0  0  0  0  0  0
    0.9984    2.5573    1.8076 C   0  0  0  0  0  0  0  0  0  0  0  0
    2.4605    3.3602    1.0711 S   0  0  0  0  0  0  0  0  0  0  0  0
    3.2329    1.9596    0.2759 C   0  0  0  0  0  0  0  0  0  0  0  0
    3.4298    1.9908   -1.1071 C   0  0  0  0  0  0  0  0  0  0  0  0
    4.0303    0.9098   -1.7589 C   0  0  0  0  0  0  0  0  0  0  0  0
    4.4526   -0.2180   -1.0361 C   0  0  0  0  0  0  0  0  0  0  0  0
    5.0576   -1.3133   -1.6758 C   0  0  0  0  0  0  0  0  0  0  0  0
    5.4780   -2.4241   -0.9416 C   0  0  0  0  0  0  0  0  0  0  0  0
    5.2955   -2.4561    0.4394 C   0  0  0  0  0  0  0  0  0  0  0  0
    4.6933   -1.3776    1.0903 C   0  0  0  0  0  0  0  0  0  0  0  0
    4.2679   -0.2495    0.3668 C   0  0  0  0  0  0  0  0  0  0  0  0
    3.6624    0.8459    1.0082 C   0  0  0  0  0  0  0  0  0  0  0  0
   -3.1303    0.5727   -0.8246 N   0  0  0  0  0  0  0  0  0  0  0  0
   -4.1665   -0.2154   -0.1921 C   0  0  0  0  0  0  0  0  0  0  0  0
   -3.6365   -1.0765    0.9553 C   0  0  0  0  0  0  0  0  0  0  0  0
   -4.6429   -2.2177    1.0910 C   0  0  0  0  0  0  0  0  0  0  0  0
   -5.4753   -2.2140   -0.1918 C   0  0  0  0  0  0  0  0  0  0  0  0
   -4.7729   -1.2483   -1.1358 C   0  0  0  0  0  0  0  0  0  0  0  0
   -1.8296    3.2002   -1.5243 H   0  0  0  0  0  0  0  0  0  0  0  0
   -0.9669    1.6644   -1.5956 H   0  0  0  0  0  0  0  0  0  0  0  0
    0.4166    3.2992    2.3655 H   0  0  0  0  0  0  0  0  0  0  0  0
    1.2984    1.7862    2.5232 H   0  0  0  0  0  0  0  0  0  0  0  0
    3.1105    2.8527   -1.6932 H   0  0  0  0  0  0  0  0  0  0  0  0
    4.1666    0.9556   -2.8385 H   0  0  0  0  0  0  0  0  0  0  0  0
    5.2087   -1.3082   -2.7537 H   0  0  0  0  0  0  0  0  0  0  0  0
    5.9482   -3.2636   -1.4487 H   0  0  0  0  0  0  0  0  0  0  0  0
    5.6219   -3.3229    1.0129 H   0  0  0  0  0  0  0  0  0  0  0  0
    4.5599   -1.4217    2.1699 H   0  0  0  0  0  0  0  0  0  0  0  0
    3.5333    0.8262    2.0896 H   0  0  0  0  0  0  0  0  0  0  0  0
   -2.4657    0.0702   -1.4033 H   0  0  0  0  0  0  0  0  0  0  0  0
   -4.9508    0.4570    0.1814 H   0  0  0  0  0  0  0  0  0  0  0  0
   -3.5277   -0.5095    1.8870 H   0  0  0  0  0  0  0  0  0  0  0  0
   -2.6489   -1.4888    0.7094 H   0  0  0  0  0  0  0  0  0  0  0  0
   -5.2895   -2.0666    1.9617 H   0  0  0  0  0  0  0  0  0  0  0  0
   -4.1274   -3.1748    1.2280 H   0  0  0  0  0  0  0  0  0  0  0  0
   -5.5733   -3.2145   -0.6269 H   0  0  0  0  0  0  0  0  0  0  0  0
   -6.4869   -1.8508    0.0289 H   0  0  0  0  0  0  0  0  0  0  0  0
   -5.4638   -0.8037   -1.8592 H   0  0  0  0  0  0  0  0  0  0  0  0
   -3.9931   -1.7758   -1.7004 H   0  0  0  0  0  0  0  0  0  0  0  0
  1  2  2  0
  2  3  1  0
  3  4  1  0
  4  5  1  0
  5  6  2  0
  5  7  1  0
  7  8  1  0
  8  9  1  0
  9 10  2  0
 10 11  1  0
 11 12  2  0
 12 13  1  0
 13 14  2  0
 14 15  1  0
 15 16  2  0
 16 17  1  0
 17 18  2  0
  2 19  1  0
 19 20  1  0
 20 21  1  0
 21 22  1  0
 22 23  1  0
 23 24  1  0
 18  9  1  0
 24 20  1  0
 17 12  1  0
  3 25  1  0
  3 26  1  0
  7 27  1  0
  7 28  1  0
 10 29  1  0
 11 30  1  0
 13 31  1  0
 14 32  1  0
 15 33  1  0
 16 34  1  0
 18 35  1  0
 19 36  1  0
 20 37  1  0
 21 38  1  0
 21 39  1  0
 22 40  1  0
 22 41  1  0
 23 42  1  0
 23 43  1  0
 24 44  1  0
 24 45  1  0
M  END
$$$$
