
     RDKit          3D

 69 71  0  0  0  0  0  0  0  0999 V2000
   -8.5478    0.9329   -1.2382 C   0  0  0  0  0  0  0  0  0  0  0  0
   -7.4521    0.1485   -0.5355 C   0  0  0  0  0  0  0  0  0  0  0  0
   -6.5597    1.0620    0.3052 C   0  0  0  0  0  0  0  0  0  0  0  0
   -5.5033    0.3031    0.9792 N   0  0  0  0  0  0  0  0  0  0  0  0
   -5.7900   -0.1802    2.3319 C   0  0  0  0  0  0  0  0  0  0  0  0
   -5.4562    0.8714    3.3906 C   0  0  0  0  0  0  0  0  0  0  0  0
   -5.7562    0.3635    4.7919 C   0  0  0  0  0  0  0  0  0  0  0  0
   -4.2936    0.1188    0.3064 C   0  0  0  0  0  0  0  0  0  0  0  0
   -4.1251    0.5470   -0.8387 O   0  0  0  0  0  0  0  0  0  0  0  0
   -3.2067   -0.7009    1.0200 C   0  0  0  0  0  0  0  0  0  0  0  0
   -1.9069   -0.5566    0.3626 N   0  0  0  0  0  0  0  0  0  0  0  0
   -1.0988    0.5068    0.7803 C   0  0  0  0  0  0  0  0  0  0  0  0
   -1.4482    1.2405    1.7105 O   0  0  0  0  0  0  0  0  0  0  0  0
    0.1241    0.6908    0.1210 N   0  0  0  0  0  0  0  0  0  0  0  0
    0.9706    1.7917    0.5792 C   0  0  0  0  0  0  0  0  0  0  0  0
    1.7983    1.4381    1.8258 C   0  0  0  0  0  0  0  0  0  0  0  0
    2.8860    0.3830    1.5994 C   0  0  0  0  0  0  0  0  0  0  0  0
    4.0597    0.9028    0.7654 C   0  0  0  0  0  0  0  0  0  0  0  0
    4.9890   -0.2351    0.3459 C   0  0  0  0  0  0  0  0  0  0  0  0
    6.1883    0.2692   -0.4454 C   0  0  0  0  0  0  0  0  0  0  0  0
    6.6005    1.4182   -0.3309 O   0  0  0  0  0  0  0  0  0  0  0  0
    6.7396   -0.7312   -1.2299 N   0  0  0  0  0  0  0  0  0  0  0  0
    7.8649   -0.6418   -2.0752 C   0  0  0  0  0  0  0  0  0  0  0  0
    8.6595    0.4984   -2.2020 C   0  0  0  0  0  0  0  0  0  0  0  0
    9.7592    0.5038   -3.0667 C   0  0  0  0  0  0  0  0  0  0  0  0
   10.0735   -0.6302   -3.8123 C   0  0  0  0  0  0  0  0  0  0  0  0
    9.2895   -1.7738   -3.6916 C   0  0  0  0  0  0  0  0  0  0  0  0
    8.1916   -1.7795   -2.8264 C   0  0  0  0  0  0  0  0  0  0  0  0
    0.6019   -0.1080   -0.9259 C   0  0  0  0  0  0  0  0  0  0  0  0
    1.7061    0.0585   -1.4424 O   0  0  0  0  0  0  0  0  0  0  0  0
   -0.3088   -1.1476   -1.3143 C   0  0  0  0  0  0  0  0  0  0  0  0
    0.0074   -2.2376   -2.5781 S   0  0  0  0  0  0  0  0  0  0  0  0
   -1.5045   -3.0089   -2.3511 C   0  0  0  0  0  0  0  0  0  0  0  0
   -2.2217   -2.4412   -1.3173 C   0  0  0  0  0  0  0  0  0  0  0  0
   -1.5163   -1.3622   -0.7069 C   0  0  0  0  0  0  0  0  0  0  0  0
   -8.1228    1.6843   -1.9115 H   0  0  0  0  0  0  0  0  0  0  0  0
   -9.1738    0.2598   -1.8326 H   0  0  0  0  0  0  0  0  0  0  0  0
   -9.1905    1.4436   -0.5136 H   0  0  0  0  0  0  0  0  0  0  0  0
   -6.8493   -0.3809   -1.2831 H   0  0  0  0  0  0  0  0  0  0  0  0
   -7.9085   -0.6188    0.1007 H   0  0  0  0  0  0  0  0  0  0  0  0
   -6.1039    1.8254   -0.3362 H   0  0  0  0  0  0  0  0  0  0  0  0
   -7.1517    1.5937    1.0593 H   0  0  0  0  0  0  0  0  0  0  0  0
   -5.2231   -1.0965    2.5222 H   0  0  0  0  0  0  0  0  0  0  0  0
   -6.8506   -0.4537    2.3824 H   0  0  0  0  0  0  0  0  0  0  0  0
   -6.0335    1.7855    3.2080 H   0  0  0  0  0  0  0  0  0  0  0  0
   -4.3988    1.1534    3.3257 H   0  0  0  0  0  0  0  0  0  0  0  0
   -5.1728   -0.5352    5.0175 H   0  0  0  0  0  0  0  0  0  0  0  0
   -6.8185    0.1218    4.9017 H   0  0  0  0  0  0  0  0  0  0  0  0
   -5.5039    1.1274    5.5338 H   0  0  0  0  0  0  0  0  0  0  0  0
   -3.5003   -1.7554    1.0290 H   0  0  0  0  0  0  0  0  0  0  0  0
   -3.1155   -0.3722    2.0586 H   0  0  0  0  0  0  0  0  0  0  0  0
    0.3244    2.6431    0.8261 H   0  0  0  0  0  0  0  0  0  0  0  0
    1.6176    2.1333   -0.2343 H   0  0  0  0  0  0  0  0  0  0  0  0
    1.1281    1.0753    2.6143 H   0  0  0  0  0  0  0  0  0  0  0  0
    2.2636    2.3540    2.2097 H   0  0  0  0  0  0  0  0  0  0  0  0
    3.2722    0.0695    2.5776 H   0  0  0  0  0  0  0  0  0  0  0  0
    2.4529   -0.5138    1.1438 H   0  0  0  0  0  0  0  0  0  0  0  0
    3.7073    1.4145   -0.1363 H   0  0  0  0  0  0  0  0  0  0  0  0
    4.6116    1.6496    1.3497 H   0  0  0  0  0  0  0  0  0  0  0  0
    4.4273   -0.9555   -0.2608 H   0  0  0  0  0  0  0  0  0  0  0  0
    5.3713   -0.7593    1.2298 H   0  0  0  0  0  0  0  0  0  0  0  0
    6.2549   -1.6193   -1.2366 H   0  0  0  0  0  0  0  0  0  0  0  0
    8.4546    1.4033   -1.6376 H   0  0  0  0  0  0  0  0  0  0  0  0
   10.3682    1.4002   -3.1533 H   0  0  0  0  0  0  0  0  0  0  0  0
   10.9276   -0.6202   -4.4844 H   0  0  0  0  0  0  0  0  0  0  0  0
    9.5295   -2.6612   -4.2719 H   0  0  0  0  0  0  0  0  0  0  0  0
    7.5949   -2.6845   -2.7521 H   0  0  0  0  0  0  0  0  0  0  0  0
   -1.7957   -3.8340   -2.9874 H   0  0  0  0  0  0  0  0  0  0  0  0
   -3.2066   -2.7913   -1.0372 H   0  0  0  0  0  0  0  0  0  0  0  0
  1  2  1  0
  2  3  1  0
  3  4  1  0
  4  5  1  0
  5  6  1  0
  6  7  1  0
  4  8  1  0
  8  9  2  0
  8 10  1  0
 10 11  1  0
 11 12  1  0
 12 13  2  0
 12 14  1  0
 14 15  1  0
 15 16  1  0
 16 17  1  0
 17 18  1  0
 18 19  1  0
 19 20  1  0
 20 21  2  0
 20 22  1  0
 22 23  1  0
 23 24  2  0
 24 25  1  0
 25 26  2  0
 26 27  1  0
 27 28  2  0
 14 29  1  0
 29 30  2  0
 29 31  1  0
 31 32  1  0
 32 33  1  0
 33 34  2  0
 34 35  1  0
 35 11  1  0
 28 23  1  0
 35 31  2  0
  1 36  1  0
  1 37  1  0
  1 38  1  0
  2 39  1  0
  2 40  1  0
  3 41  1  0
  3 42  1  0
  5 43  1  0
  5 44  1  0
  6 45  1  0
  6 46  1  0
  7 47  1  0
  7 48  1  0
  7 49  1  0
 10 50  1  0
 10 51  1  0
 15 52  1  0
 15 53  1  0
 16 54  1  0
 16 55  1  0
 17 56  1  0
 17 57  1  0
 18 58  1  0
 18 59  1  0
 19 60  1  0
 19 61  1  0
 22 62  1  0
 24 63  1  0
 25 64  1  0
 26 65  1  0
 27 66  1  0
 28 67  1  0
 33 68  1  0
 34 69  1  0
M  END
$$$$
