
     RDKit          3D

 31 32  0  0  0  0  0  0  0  0999 V2000
   -0.2615    2.4518    2.5763 S   0  0  0  0  0  0  0  0  0  0  0  0
   -0.0002    1.2278    1.4540 C   0  0  0  0  0  0  0  0  0  0  0  0
    1.2128    0.6030    1.5199 N   0  0  0  0  0  0  0  0  0  0  0  0
    2.0471    0.1041    0.4914 C   0  0  0  0  0  0  0  0  0  0  0  0
    2.9814   -0.8600    0.9042 C   0  0  0  0  0  0  0  0  0  0  0  0
    3.8512   -1.4573   -0.0109 C   0  0  0  0  0  0  0  0  0  0  0  0
    3.8120   -1.0758   -1.3471 C   0  0  0  0  0  0  0  0  0  0  0  0
    4.8806   -1.8105   -2.4766 Cl  0  0  0  0  0  0  0  0  0  0  0  0
    2.9292   -0.0871   -1.7704 C   0  0  0  0  0  0  0  0  0  0  0  0
    2.0569    0.5174   -0.8548 C   0  0  0  0  0  0  0  0  0  0  0  0
    1.1556    1.8652   -1.4575 Cl  0  0  0  0  0  0  0  0  0  0  0  0
   -0.9529    0.7450    0.5679 N   0  0  0  0  0  0  0  0  0  0  0  0
   -0.9797   -0.6672    0.1542 C   0  0  0  0  0  0  0  0  0  0  0  0
   -2.4022   -1.2168    0.1003 C   0  0  0  0  0  0  0  0  0  0  0  0
   -3.2765   -0.4343   -0.8789 C   0  0  0  0  0  0  0  0  0  0  0  0
   -2.8332    1.0198   -1.0342 C   0  0  0  0  0  0  0  0  0  0  0  0
   -2.1452    1.5371    0.2235 C   0  0  0  0  0  0  0  0  0  0  0  0
    1.6694    0.7234    2.4183 H   0  0  0  0  0  0  0  0  0  0  0  0
    3.0170   -1.1833    1.9430 H   0  0  0  0  0  0  0  0  0  0  0  0
    4.5510   -2.2181    0.3261 H   0  0  0  0  0  0  0  0  0  0  0  0
    2.9380    0.2352   -2.8089 H   0  0  0  0  0  0  0  0  0  0  0  0
   -0.5243   -0.7366   -0.8391 H   0  0  0  0  0  0  0  0  0  0  0  0
   -0.3895   -1.2748    0.8475 H   0  0  0  0  0  0  0  0  0  0  0  0
   -2.3919   -2.2766   -0.1777 H   0  0  0  0  0  0  0  0  0  0  0  0
   -2.8466   -1.1577    1.1022 H   0  0  0  0  0  0  0  0  0  0  0  0
   -3.2603   -0.9166   -1.8637 H   0  0  0  0  0  0  0  0  0  0  0  0
   -4.3169   -0.4744   -0.5348 H   0  0  0  0  0  0  0  0  0  0  0  0
   -3.6966    1.6466   -1.2833 H   0  0  0  0  0  0  0  0  0  0  0  0
   -2.1372    1.0920   -1.8797 H   0  0  0  0  0  0  0  0  0  0  0  0
   -2.8364    1.4960    1.0743 H   0  0  0  0  0  0  0  0  0  0  0  0
   -1.8510    2.5823    0.0773 H   0  0  0  0  0  0  0  0  0  0  0  0
  1  2  2  0
  2  3  1  0
  3  4  1  0
  4  5  2  0
  5  6  1  0
  6  7  2  0
  7  8  1  0
  7  9  1  0
  9 10  2  0
 10 11  1  0
  2 12  1  0
 12 13  1  0
 13 14  1  0
 14 15  1  0
 15 16  1  0
 16 17  1  0
 10  4  1  0
 17 12  1  0
  3 18  1  0
  5 19  1  0
  6 20  1  0
  9 21  1  0
 13 22  1  0
 13 23  1  0
 14 24  1  0
 14 25  1  0
 15 26  1  0
 15 27  1  0
 16 28  1  0
 16 29  1  0
 17 30  1  0
 17 31  1  0
M  END
$$$$
