
     RDKit          3D

 39 41  0  0  0  0  0  0  0  0999 V2000
    0.2051   -0.3255   -2.3568 O   0  0  0  0  0  0  0  0  0  0  0  0
    0.0862    0.0667   -1.1995 C   0  0  0  0  0  0  0  0  0  0  0  0
    1.1567    0.4872   -0.4434 N   0  0  0  0  0  0  0  0  0  0  0  0
    2.5347    0.3512   -0.8914 C   0  0  0  0  0  0  0  0  0  0  0  0
    3.4354    1.3689   -0.1718 C   0  0  0  0  0  0  0  0  0  0  0  0
    4.0599    0.7817    1.0890 C   0  0  0  0  0  0  0  0  0  0  0  0
    4.9400   -0.4304    0.7758 C   0  0  0  0  0  0  0  0  0  0  0  0
    4.5120   -1.1871   -0.4828 C   0  0  0  0  0  0  0  0  0  0  0  0
    3.0079   -1.1023   -0.7059 C   0  0  0  0  0  0  0  0  0  0  0  0
   -1.2639    0.1031   -0.5497 C   0  0  0  0  0  0  0  0  0  0  0  0
   -2.3686   -0.1903   -1.3673 C   0  0  0  0  0  0  0  0  0  0  0  0
   -3.6788   -0.1839   -0.8614 C   0  0  0  0  0  0  0  0  0  0  0  0
   -4.7800   -0.4757   -1.6821 C   0  0  0  0  0  0  0  0  0  0  0  0
   -6.0767   -0.4653   -1.1665 C   0  0  0  0  0  0  0  0  0  0  0  0
   -6.2886   -0.1634    0.1752 C   0  0  0  0  0  0  0  0  0  0  0  0
   -5.2042    0.1285    1.0041 C   0  0  0  0  0  0  0  0  0  0  0  0
   -3.8928    0.1223    0.5003 C   0  0  0  0  0  0  0  0  0  0  0  0
   -2.7908    0.4124    1.3206 C   0  0  0  0  0  0  0  0  0  0  0  0
   -1.4908    0.4015    0.8014 C   0  0  0  0  0  0  0  0  0  0  0  0
   -0.4473    0.6818    1.6482 O   0  0  0  0  0  0  0  0  0  0  0  0
    0.9761    0.6568    0.5429 H   0  0  0  0  0  0  0  0  0  0  0  0
    2.5498    0.5912   -1.9624 H   0  0  0  0  0  0  0  0  0  0  0  0
    2.8766    2.2797    0.0748 H   0  0  0  0  0  0  0  0  0  0  0  0
    4.2437    1.6734   -0.8494 H   0  0  0  0  0  0  0  0  0  0  0  0
    4.6551    1.5421    1.6072 H   0  0  0  0  0  0  0  0  0  0  0  0
    3.2634    0.4841    1.7826 H   0  0  0  0  0  0  0  0  0  0  0  0
    5.9825   -0.1114    0.6556 H   0  0  0  0  0  0  0  0  0  0  0  0
    4.9260   -1.1067    1.6392 H   0  0  0  0  0  0  0  0  0  0  0  0
    5.0298   -0.7682   -1.3549 H   0  0  0  0  0  0  0  0  0  0  0  0
    4.8270   -2.2340   -0.4070 H   0  0  0  0  0  0  0  0  0  0  0  0
    2.7254   -1.6946   -1.5846 H   0  0  0  0  0  0  0  0  0  0  0  0
    2.4980   -1.5656    0.1497 H   0  0  0  0  0  0  0  0  0  0  0  0
   -2.2023   -0.4259   -2.4183 H   0  0  0  0  0  0  0  0  0  0  0  0
   -4.6340   -0.7142   -2.7339 H   0  0  0  0  0  0  0  0  0  0  0  0
   -6.9196   -0.6932   -1.8139 H   0  0  0  0  0  0  0  0  0  0  0  0
   -7.2984   -0.1552    0.5774 H   0  0  0  0  0  0  0  0  0  0  0  0
   -5.3936    0.3614    2.0496 H   0  0  0  0  0  0  0  0  0  0  0  0
   -2.9598    0.6451    2.3688 H   0  0  0  0  0  0  0  0  0  0  0  0
   -0.8011    0.8537    2.5387 H   0  0  0  0  0  0  0  0  0  0  0  0
  1  2  2  0
  2  3  1  0
  3  4  1  0
  4  5  1  0
  5  6  1  0
  6  7  1  0
  7  8  1  0
  8  9  1  0
  2 10  1  0
 10 11  2  0
 11 12  1  0
 12 13  2  0
 13 14  1  0
 14 15  2  0
 15 16  1  0
 16 17  2  0
 17 18  1  0
 18 19  2  0
 19 20  1  0
  9  4  1  0
 19 10  1  0
 17 12  1  0
  3 21  1  0
  4 22  1  0
  5 23  1  0
  5 24  1  0
  6 25  1  0
  6 26  1  0
  7 27  1  0
  7 28  1  0
  8 29  1  0
  8 30  1  0
  9 31  1  0
  9 32  1  0
 11 33  1  0
 13 34  1  0
 14 35  1  0
 15 36  1  0
 16 37  1  0
 18 38  1  0
 20 39  1  0
M  END
$$$$
