
     RDKit          3D

 57 60  0  0  0  0  0  0  0  0999 V2000
   -7.2848   -0.3719   -2.8155 C   0  0  0  0  0  0  0  0  0  0  0  0
   -6.0071   -0.2509   -2.0425 C   0  0  0  0  0  0  0  0  0  0  0  0
   -5.8233   -0.9481   -0.8420 C   0  0  0  0  0  0  0  0  0  0  0  0
   -4.6306   -0.8242   -0.1195 C   0  0  0  0  0  0  0  0  0  0  0  0
   -3.6006   -0.0116   -0.6053 C   0  0  0  0  0  0  0  0  0  0  0  0
   -2.3847    0.1486    0.1249 N   0  0  0  0  0  0  0  0  0  0  0  0
   -2.2696    0.4039    1.4905 C   0  0  0  0  0  0  0  0  0  0  0  0
   -3.4066    0.4939    2.4433 C   0  0  0  0  0  0  0  0  0  0  0  0
   -0.9465    0.7172    1.7456 C   0  0  0  0  0  0  0  0  0  0  0  0
   -0.2078    0.5392    0.5549 C   0  0  0  0  0  0  0  0  0  0  0  0
    1.2208    0.7179    0.3830 C   0  0  0  0  0  0  0  0  0  0  0  0
    1.4296    1.7181   -0.3589 O   0  0  0  0  0  1  0  0  0  0  0  0
    2.1067   -0.1180    0.9951 C   0  0  0  0  0  0  0  0  0  0  0  0
    3.6436    0.0346    0.8311 C   0  0  0  0  0  0  0  0  0  0  0  0
    4.6912   -0.9649    1.7040 S   0  0  0  0  0  0  0  0  0  0  0  0
    4.0091    1.0203   -0.0806 N   0  0  0  0  0  0  0  0  0  0  0  0
    5.2147    1.4479   -0.6717 C   0  0  0  0  0  0  0  0  0  0  0  0
    5.1016    2.5413   -1.5581 C   0  0  0  0  0  0  0  0  0  0  0  0
    6.2102    3.0382   -2.2519 C   0  0  0  0  0  0  0  0  0  0  0  0
    7.4459    2.4377   -2.0639 C   0  0  0  0  0  0  0  0  0  0  0  0
    8.4977    2.9011   -2.7486 F   0  0  0  0  0  0  0  0  0  0  0  0
    7.5793    1.3596   -1.1834 C   0  0  0  0  0  0  0  0  0  0  0  0
    9.1106    0.5988   -0.9713 Cl  0  0  0  0  0  0  0  0  0  0  0  0
    6.4683    0.8688   -0.4865 C   0  0  0  0  0  0  0  0  0  0  0  0
    1.5492   -1.2555    1.8138 N   0  0  0  0  0  4  0  0  0  0  0  0
    1.0562   -2.3403    1.1807 C   0  0  0  0  0  0  0  0  0  0  0  0
    0.5168   -3.3937    1.9119 C   0  0  0  0  0  0  0  0  0  0  0  0
    0.4853   -3.3132    3.2970 C   0  0  0  0  0  0  0  0  0  0  0  0
    0.9933   -2.1840    3.9278 C   0  0  0  0  0  0  0  0  0  0  0  0
    1.5288   -1.1588    3.1564 C   0  0  0  0  0  0  0  0  0  0  0  0
   -1.1005    0.1200   -0.4250 C   0  0  0  0  0  0  0  0  0  0  0  0
   -0.7980   -0.2878   -1.8315 C   0  0  0  0  0  0  0  0  0  0  0  0
   -3.7762    0.6826   -1.8156 C   0  0  0  0  0  0  0  0  0  0  0  0
   -4.9729    0.5618   -2.5250 C   0  0  0  0  0  0  0  0  0  0  0  0
   -7.1015   -0.8921   -3.7629 H   0  0  0  0  0  0  0  0  0  0  0  0
   -7.6923    0.6221   -3.0201 H   0  0  0  0  0  0  0  0  0  0  0  0
   -8.0472   -0.9311   -2.2559 H   0  0  0  0  0  0  0  0  0  0  0  0
   -6.6112   -1.5946   -0.4607 H   0  0  0  0  0  0  0  0  0  0  0  0
   -4.5103   -1.4058    0.7900 H   0  0  0  0  0  0  0  0  0  0  0  0
   -3.7789   -0.5064    2.6959 H   0  0  0  0  0  0  0  0  0  0  0  0
   -3.0807    0.9617    3.3867 H   0  0  0  0  0  0  0  0  0  0  0  0
   -4.2275    1.0965    2.0433 H   0  0  0  0  0  0  0  0  0  0  0  0
   -0.5640    1.0735    2.6929 H   0  0  0  0  0  0  0  0  0  0  0  0
    3.1794    1.5356   -0.4326 H   0  0  0  0  0  0  0  0  0  0  0  0
    4.1357    3.0171   -1.7225 H   0  0  0  0  0  0  0  0  0  0  0  0
    6.1098    3.8646   -2.9434 H   0  0  0  0  0  0  0  0  0  0  0  0
    6.6265    0.0171    0.1645 H   0  0  0  0  0  0  0  0  0  0  0  0
    1.0961   -2.3428    0.0972 H   0  0  0  0  0  0  0  0  0  0  0  0
    0.1123   -4.2589    1.3967 H   0  0  0  0  0  0  0  0  0  0  0  0
    0.0535   -4.1190    3.8860 H   0  0  0  0  0  0  0  0  0  0  0  0
    0.9610   -2.0910    5.0094 H   0  0  0  0  0  0  0  0  0  0  0  0
    1.9234   -0.2488    3.5923 H   0  0  0  0  0  0  0  0  0  0  0  0
   -0.7744    0.5863   -2.4878 H   0  0  0  0  0  0  0  0  0  0  0  0
   -1.5281   -1.0091   -2.2139 H   0  0  0  0  0  0  0  0  0  0  0  0
    0.1798   -0.7802   -1.8906 H   0  0  0  0  0  0  0  0  0  0  0  0
   -3.0127    1.3585   -2.1851 H   0  0  0  0  0  0  0  0  0  0  0  0
   -5.0985    1.1180   -3.4532 H   0  0  0  0  0  0  0  0  0  0  0  0
  1  2  1  0
  2  3  2  0
  3  4  1  0
  4  5  2  0
  5  6  1  0
  6  7  1  0
  7  8  1  0
  7  9  2  0
  9 10  1  0
 10 11  1  0
 11 12  1  0
 11 13  2  3
 13 14  1  0
 14 15  2  0
 14 16  1  0
 16 17  1  0
 17 18  2  0
 18 19  1  0
 19 20  2  0
 20 21  1  0
 20 22  1  0
 22 23  1  0
 22 24  2  0
 13 25  1  0
 25 26  2  0
 26 27  1  0
 27 28  2  0
 28 29  1  0
 29 30  2  0
 10 31  2  0
 31 32  1  0
  5 33  1  0
 33 34  2  0
 34  2  1  0
 31  6  1  0
 24 17  1  0
 30 25  1  0
  1 35  1  0
  1 36  1  0
  1 37  1  0
  3 38  1  0
  4 39  1  0
  8 40  1  0
  8 41  1  0
  8 42  1  0
  9 43  1  0
 16 44  1  0
 18 45  1  0
 19 46  1  0
 24 47  1  0
 26 48  1  0
 27 49  1  0
 28 50  1  0
 29 51  1  0
 30 52  1  0
 32 53  1  0
 32 54  1  0
 32 55  1  0
 33 56  1  0
 34 57  1  0
M  CHG  2  12  -1  25   1
M  END
$$$$
