
     RDKit          3D

 39 40  0  0  0  0  0  0  0  0999 V2000
   -7.0552    0.8504    0.0521 N   0  0  0  0  0  0  0  0  0  0  0  0
   -6.6965   -0.6775   -0.5460 S   0  0  0  0  0  6  0  0  0  0  0  0
   -7.3884   -1.6087    0.3147 O   0  0  0  0  0  0  0  0  0  0  0  0
   -6.9363   -0.6128   -1.9687 O   0  0  0  0  0  0  0  0  0  0  0  0
   -4.9572   -0.7870   -0.2498 C   0  0  0  0  0  0  0  0  0  0  0  0
   -4.0632   -0.3123   -1.2122 C   0  0  0  0  0  0  0  0  0  0  0  0
   -2.6900   -0.4224   -0.9886 C   0  0  0  0  0  0  0  0  0  0  0  0
   -2.2061   -1.0166    0.1866 C   0  0  0  0  0  0  0  0  0  0  0  0
   -0.7190   -1.1146    0.4272 C   0  0  0  0  0  0  0  0  0  0  0  0
   -0.1712    0.1543    1.0868 C   0  0  0  0  0  0  0  0  0  0  0  0
    1.2558    0.0748    1.3576 N   0  0  0  0  0  0  0  0  0  0  0  0
    2.1604    0.2021    0.3181 C   0  0  0  0  0  0  0  0  0  0  0  0
    1.8137    0.3277   -0.8477 O   0  0  0  0  0  0  0  0  0  0  0  0
    3.4521    0.1445    0.7952 N   0  0  0  0  0  0  0  0  0  0  0  0
    4.6446    0.3118    0.0637 C   0  0  0  0  0  0  0  0  0  0  0  0
    4.6864    0.7398   -1.2646 C   0  0  0  0  0  0  0  0  0  0  0  0
    5.9114    0.8917   -1.9247 C   0  0  0  0  0  0  0  0  0  0  0  0
    7.1086    0.6213   -1.2610 C   0  0  0  0  0  0  0  0  0  0  0  0
    8.5830    0.8313   -2.1347 Cl  0  0  0  0  0  0  0  0  0  0  0  0
    7.0764    0.1990    0.0704 C   0  0  0  0  0  0  0  0  0  0  0  0
    8.5129   -0.1516    0.9661 Cl  0  0  0  0  0  0  0  0  0  0  0  0
    5.8488    0.0476    0.7278 C   0  0  0  0  0  0  0  0  0  0  0  0
   -3.1158   -1.4958    1.1401 C   0  0  0  0  0  0  0  0  0  0  0  0
   -4.4905   -1.3877    0.9220 C   0  0  0  0  0  0  0  0  0  0  0  0
   -7.7044    0.7691    0.8349 H   0  0  0  0  0  0  0  0  0  0  0  0
   -7.3946    1.4444   -0.7049 H   0  0  0  0  0  0  0  0  0  0  0  0
   -4.4244    0.1397   -2.1332 H   0  0  0  0  0  0  0  0  0  0  0  0
   -1.9952   -0.0481   -1.7393 H   0  0  0  0  0  0  0  0  0  0  0  0
   -0.5034   -1.9862    1.0589 H   0  0  0  0  0  0  0  0  0  0  0  0
   -0.2122   -1.3137   -0.5249 H   0  0  0  0  0  0  0  0  0  0  0  0
   -0.3583    1.0360    0.4622 H   0  0  0  0  0  0  0  0  0  0  0  0
   -0.6656    0.3218    2.0507 H   0  0  0  0  0  0  0  0  0  0  0  0
    1.5570    0.5026    2.2209 H   0  0  0  0  0  0  0  0  0  0  0  0
    3.5397   -0.2005    1.7398 H   0  0  0  0  0  0  0  0  0  0  0  0
    3.7803    0.9697   -1.8187 H   0  0  0  0  0  0  0  0  0  0  0  0
    5.9176    1.2239   -2.9605 H   0  0  0  0  0  0  0  0  0  0  0  0
    5.8433   -0.2818    1.7638 H   0  0  0  0  0  0  0  0  0  0  0  0
   -2.7587   -1.9631    2.0556 H   0  0  0  0  0  0  0  0  0  0  0  0
   -5.1856   -1.7737    1.6641 H   0  0  0  0  0  0  0  0  0  0  0  0
  1  2  1  0
  2  3  2  0
  2  4  2  0
  2  5  1  0
  5  6  2  0
  6  7  1  0
  7  8  2  0
  8  9  1  0
  9 10  1  0
 10 11  1  0
 11 12  1  0
 12 13  2  0
 12 14  1  0
 14 15  1  0
 15 16  2  0
 16 17  1  0
 17 18  2  0
 18 19  1  0
 18 20  1  0
 20 21  1  0
 20 22  2  0
  8 23  1  0
 23 24  2  0
 24  5  1  0
 22 15  1  0
  1 25  1  0
  1 26  1  0
  6 27  1  0
  7 28  1  0
  9 29  1  0
  9 30  1  0
 10 31  1  0
 10 32  1  0
 11 33  1  0
 14 34  1  0
 16 35  1  0
 17 36  1  0
 22 37  1  0
 23 38  1  0
 24 39  1  0
M  END
$$$$
