
     RDKit          3D

 48 50  0  0  0  0  0  0  0  0999 V2000
   -4.4692   -4.6166    2.6485 C   0  0  0  0  0  0  0  0  0  0  0  0
   -4.3068   -3.2946    3.3752 C   0  0  0  0  0  0  0  0  0  0  0  0
   -4.2417   -2.2128    2.4310 O   0  0  0  0  0  0  0  0  0  0  0  0
   -3.0126   -1.9504    1.9192 C   0  0  0  0  0  0  0  0  0  0  0  0
   -1.9809   -2.5361    2.1917 O   0  0  0  0  0  0  0  0  0  0  0  0
   -3.1133   -0.8356    0.9680 C   0  0  0  0  0  0  0  0  0  0  0  0
   -4.0563    0.1585    1.1031 C   0  0  0  0  0  0  0  0  0  0  0  0
   -4.1587    1.2169    0.2691 N   0  0  0  0  0  0  0  0  0  0  0  0
   -3.2769    1.2734   -0.7426 C   0  0  0  0  0  0  0  0  0  0  0  0
   -3.3405    2.6354   -1.8778 S   0  0  0  0  0  0  0  0  0  0  0  0
   -4.8941    3.4119   -1.3697 C   0  0  0  0  0  0  0  0  0  0  0  0
   -2.3215    0.3606   -0.9608 N   0  0  0  0  0  0  0  0  0  0  0  0
   -2.2521   -0.6797   -0.0966 C   0  0  0  0  0  0  0  0  0  0  0  0
   -1.3164   -1.6812   -0.3351 O   0  0  0  0  0  0  0  0  0  0  0  0
   -0.2791   -1.3632   -1.1769 C   0  0  0  0  0  0  0  0  0  0  0  0
   -0.2891   -1.8596   -2.4768 C   0  0  0  0  0  0  0  0  0  0  0  0
    0.7830   -1.5795   -3.3201 C   0  0  0  0  0  0  0  0  0  0  0  0
    1.8655   -0.8221   -2.8567 C   0  0  0  0  0  0  0  0  0  0  0  0
    1.8903   -0.3446   -1.5436 C   0  0  0  0  0  0  0  0  0  0  0  0
    2.9454    0.4215   -1.0026 N   0  0  0  0  0  0  0  0  0  0  0  0
    4.1418    0.7509   -1.6127 C   0  0  0  0  0  0  0  0  0  0  0  0
    4.5417    0.3732   -2.7070 O   0  0  0  0  0  0  0  0  0  0  0  0
    5.0355    1.6291   -0.8039 C   0  0  0  0  0  0  0  0  0  0  0  0
    4.5266    2.6479    0.0143 C   0  0  0  0  0  0  0  0  0  0  0  0
    5.4007    3.4523    0.7523 C   0  0  0  0  0  0  0  0  0  0  0  0
    6.7779    3.2455    0.6653 C   0  0  0  0  0  0  0  0  0  0  0  0
    7.8484    4.2384    1.5749 Cl  0  0  0  0  0  0  0  0  0  0  0  0
    7.2922    2.2468   -0.1602 C   0  0  0  0  0  0  0  0  0  0  0  0
    6.4214    1.4418   -0.8993 C   0  0  0  0  0  0  0  0  0  0  0  0
    0.8076   -0.6247   -0.7010 C   0  0  0  0  0  0  0  0  0  0  0  0
   -4.5840   -5.4387    3.3609 H   0  0  0  0  0  0  0  0  0  0  0  0
   -3.6031   -4.8250    2.0121 H   0  0  0  0  0  0  0  0  0  0  0  0
   -5.3467   -4.5904    1.9932 H   0  0  0  0  0  0  0  0  0  0  0  0
   -5.1810   -3.1125    4.0082 H   0  0  0  0  0  0  0  0  0  0  0  0
   -3.4290   -3.3014    4.0319 H   0  0  0  0  0  0  0  0  0  0  0  0
   -4.7823    0.1529    1.9123 H   0  0  0  0  0  0  0  0  0  0  0  0
   -5.0946    4.2630   -2.0260 H   0  0  0  0  0  0  0  0  0  0  0  0
   -5.7295    2.7100   -1.4563 H   0  0  0  0  0  0  0  0  0  0  0  0
   -4.8279    3.7817   -0.3409 H   0  0  0  0  0  0  0  0  0  0  0  0
   -1.1269   -2.4503   -2.8340 H   0  0  0  0  0  0  0  0  0  0  0  0
    0.7830   -1.9479   -4.3429 H   0  0  0  0  0  0  0  0  0  0  0  0
    2.6761   -0.6213   -3.5506 H   0  0  0  0  0  0  0  0  0  0  0  0
    2.8272    0.7007   -0.0379 H   0  0  0  0  0  0  0  0  0  0  0  0
    3.4596    2.8499    0.0623 H   0  0  0  0  0  0  0  0  0  0  0  0
    5.0044    4.2453    1.3814 H   0  0  0  0  0  0  0  0  0  0  0  0
    8.3656    2.0925   -0.2383 H   0  0  0  0  0  0  0  0  0  0  0  0
    6.8241    0.6679   -1.5512 H   0  0  0  0  0  0  0  0  0  0  0  0
    0.7961   -0.2797    0.3281 H   0  0  0  0  0  0  0  0  0  0  0  0
  1  2  1  0
  2  3  1  0
  3  4  1  0
  4  5  2  0
  4  6  1  0
  6  7  2  0
  7  8  1  0
  8  9  2  0
  9 10  1  0
 10 11  1  0
  9 12  1  0
 12 13  2  0
 13 14  1  0
 14 15  1  0
 15 16  2  0
 16 17  1  0
 17 18  2  0
 18 19  1  0
 19 20  1  0
 20 21  1  0
 21 22  2  0
 21 23  1  0
 23 24  2  0
 24 25  1  0
 25 26  2  0
 26 27  1  0
 26 28  1  0
 28 29  2  0
 19 30  2  0
 13  6  1  0
 30 15  1  0
 29 23  1  0
  1 31  1  0
  1 32  1  0
  1 33  1  0
  2 34  1  0
  2 35  1  0
  7 36  1  0
 11 37  1  0
 11 38  1  0
 11 39  1  0
 16 40  1  0
 17 41  1  0
 18 42  1  0
 20 43  1  0
 24 44  1  0
 25 45  1  0
 28 46  1  0
 29 47  1  0
 30 48  1  0
M  END
$$$$
