
     RDKit          3D

 48 50  0  0  0  0  0  0  0  0999 V2000
   -1.6020    3.9014   -1.0545 C   0  0  0  0  0  0  0  0  0  0  0  0
   -2.8170    3.1011   -1.4819 C   0  0  0  0  0  0  0  0  0  0  0  0
   -2.7432    1.8171   -0.8515 O   0  0  0  0  0  0  0  0  0  0  0  0
   -3.7396    0.9649   -1.1765 C   0  0  0  0  0  0  0  0  0  0  0  0
   -4.6594    1.1868   -1.9481 O   0  0  0  0  0  0  0  0  0  0  0  0
   -3.5367   -0.3391   -0.5401 C   0  0  0  0  0  0  0  0  0  0  0  0
   -3.9830   -1.4705   -1.1833 C   0  0  0  0  0  0  0  0  0  0  0  0
   -3.8341   -2.7219   -0.6944 N   0  0  0  0  0  0  0  0  0  0  0  0
   -3.2225   -2.8320    0.4975 C   0  0  0  0  0  0  0  0  0  0  0  0
   -3.0077   -4.4440    1.2072 S   0  0  0  0  0  0  0  0  0  0  0  0
   -3.0577   -5.4515   -0.2939 C   0  0  0  0  0  0  0  0  0  0  0  0
   -2.7775   -1.7955    1.2197 N   0  0  0  0  0  0  0  0  0  0  0  0
   -2.9297   -0.5646    0.6751 C   0  0  0  0  0  0  0  0  0  0  0  0
   -2.5442    0.5133    1.4567 O   0  0  0  0  0  0  0  0  0  0  0  0
   -1.2750    0.4232    1.9815 C   0  0  0  0  0  0  0  0  0  0  0  0
   -1.1348    0.4345    3.3667 C   0  0  0  0  0  0  0  0  0  0  0  0
    0.1396    0.3828    3.9241 C   0  0  0  0  0  0  0  0  0  0  0  0
    1.2642    0.3335    3.0935 C   0  0  0  0  0  0  0  0  0  0  0  0
    1.1280    0.3419    1.6977 C   0  0  0  0  0  0  0  0  0  0  0  0
    2.3132    0.3046    0.9309 N   0  0  0  0  0  0  0  0  0  0  0  0
    2.4148    0.2289   -0.4469 C   0  0  0  0  0  0  0  0  0  0  0  0
    1.4965    0.1170   -1.2499 O   0  0  0  0  0  0  0  0  0  0  0  0
    3.8083    0.2493   -0.9754 C   0  0  0  0  0  0  0  0  0  0  0  0
    4.1036   -0.5211   -2.1080 C   0  0  0  0  0  0  0  0  0  0  0  0
    5.3960   -0.5230   -2.6385 C   0  0  0  0  0  0  0  0  0  0  0  0
    6.3891    0.2538   -2.0435 C   0  0  0  0  0  0  0  0  0  0  0  0
    7.9802    0.2539   -2.6969 Cl  0  0  0  0  0  0  0  0  0  0  0  0
    6.1000    1.0382   -0.9268 C   0  0  0  0  0  0  0  0  0  0  0  0
    4.8078    1.0415   -0.3924 C   0  0  0  0  0  0  0  0  0  0  0  0
   -0.1518    0.4008    1.1464 C   0  0  0  0  0  0  0  0  0  0  0  0
   -1.5826    4.0219    0.0337 H   0  0  0  0  0  0  0  0  0  0  0  0
   -1.6026    4.8908   -1.5195 H   0  0  0  0  0  0  0  0  0  0  0  0
   -0.6801    3.3793   -1.3323 H   0  0  0  0  0  0  0  0  0  0  0  0
   -2.8169    2.9810   -2.5713 H   0  0  0  0  0  0  0  0  0  0  0  0
   -3.7321    3.6145   -1.1661 H   0  0  0  0  0  0  0  0  0  0  0  0
   -4.4860   -1.4131   -2.1463 H   0  0  0  0  0  0  0  0  0  0  0  0
   -2.2979   -5.1216   -1.0080 H   0  0  0  0  0  0  0  0  0  0  0  0
   -2.8508   -6.4926   -0.0302 H   0  0  0  0  0  0  0  0  0  0  0  0
   -4.0463   -5.4081   -0.7596 H   0  0  0  0  0  0  0  0  0  0  0  0
   -2.0135    0.4694    4.0045 H   0  0  0  0  0  0  0  0  0  0  0  0
    0.2590    0.3779    5.0043 H   0  0  0  0  0  0  0  0  0  0  0  0
    2.2463    0.2891    3.5568 H   0  0  0  0  0  0  0  0  0  0  0  0
    3.1728    0.2526    1.4613 H   0  0  0  0  0  0  0  0  0  0  0  0
    3.3264   -1.1233   -2.5767 H   0  0  0  0  0  0  0  0  0  0  0  0
    5.6175   -1.1269   -3.5150 H   0  0  0  0  0  0  0  0  0  0  0  0
    6.8730    1.6569   -0.4765 H   0  0  0  0  0  0  0  0  0  0  0  0
    4.5911    1.6877    0.4543 H   0  0  0  0  0  0  0  0  0  0  0  0
   -0.3030    0.4393    0.0737 H   0  0  0  0  0  0  0  0  0  0  0  0
  1  2  1  0
  2  3  1  0
  3  4  1  0
  4  5  2  0
  4  6  1  0
  6  7  2  0
  7  8  1  0
  8  9  2  0
  9 10  1  0
 10 11  1  0
  9 12  1  0
 12 13  2  0
 13 14  1  0
 14 15  1  0
 15 16  2  0
 16 17  1  0
 17 18  2  0
 18 19  1  0
 19 20  1  0
 20 21  1  0
 21 22  2  0
 21 23  1  0
 23 24  2  0
 24 25  1  0
 25 26  2  0
 26 27  1  0
 26 28  1  0
 28 29  2  0
 19 30  2  0
 13  6  1  0
 30 15  1  0
 29 23  1  0
  1 31  1  0
  1 32  1  0
  1 33  1  0
  2 34  1  0
  2 35  1  0
  7 36  1  0
 11 37  1  0
 11 38  1  0
 11 39  1  0
 16 40  1  0
 17 41  1  0
 18 42  1  0
 20 43  1  0
 24 44  1  0
 25 45  1  0
 28 46  1  0
 29 47  1  0
 30 48  1  0
M  END
$$$$
