
     RDKit          3D

 62 63  0  0  0  0  0  0  0  0999 V2000
   -6.9251   -1.1724    1.6644 C   0  0  0  0  0  0  0  0  0  0  0  0
   -6.6038    0.1931    1.0171 C   0  0  0  0  0  0  0  0  0  0  0  0
   -6.6206    1.2447    2.1481 C   0  0  0  0  0  0  0  0  0  0  0  0
   -7.7394    0.5031    0.0188 C   0  0  0  0  0  0  0  0  0  0  0  0
   -5.2481    0.2380    0.2876 C   0  0  0  0  0  0  0  0  0  0  0  0
   -4.8121    1.4312   -0.3187 C   0  0  0  0  0  0  0  0  0  0  0  0
   -3.5833    1.5119   -0.9803 C   0  0  0  0  0  0  0  0  0  0  0  0
   -2.7527    0.3963   -1.0445 C   0  0  0  0  0  0  0  0  0  0  0  0
   -1.5290    0.3793   -1.6693 O   0  0  0  0  0  0  0  0  0  0  0  0
   -0.8501    1.6360   -1.7568 C   0  0  0  0  0  0  0  0  0  0  0  0
    0.6352    1.3598   -1.9906 C   0  0  0  0  0  0  0  0  0  0  0  0
    1.1670    0.7887   -0.7941 O   0  0  0  0  0  0  0  0  0  0  0  0
    2.5168    0.5358   -0.7556 C   0  0  0  0  0  0  0  0  0  0  0  0
    3.3955    0.7089   -1.8232 C   0  0  0  0  0  0  0  0  0  0  0  0
    4.7589    0.4284   -1.6699 C   0  0  0  0  0  0  0  0  0  0  0  0
    5.2786   -0.0331   -0.4512 C   0  0  0  0  0  0  0  0  0  0  0  0
    6.7720   -0.3467   -0.2473 C   0  0  0  0  0  0  0  0  0  0  0  0
    7.6421   -0.0780   -1.4963 C   0  0  0  0  0  0  0  0  0  0  0  0
    7.3386    0.5251    0.8938 C   0  0  0  0  0  0  0  0  0  0  0  0
    6.9415   -1.8365    0.1173 C   0  0  0  0  0  0  0  0  0  0  0  0
    4.3718   -0.2122    0.6147 C   0  0  0  0  0  0  0  0  0  0  0  0
    3.0075    0.0642    0.4751 C   0  0  0  0  0  0  0  0  0  0  0  0
    2.0675   -0.1026    1.5164 N   0  0  0  0  0  0  0  0  0  0  0  0
    2.2859   -0.5334    2.7992 C   0  0  0  0  0  0  0  0  0  0  0  0
    3.3344   -0.8664    3.3333 O   0  0  0  0  0  0  0  0  0  0  0  0
   -3.1709   -0.8182   -0.4735 C   0  0  0  0  0  0  0  0  0  0  0  0
   -2.2933   -1.9175   -0.6019 N   0  0  0  0  0  0  0  0  0  0  0  0
   -2.4590   -3.1976   -0.1387 C   0  0  0  0  0  0  0  0  0  0  0  0
   -3.3839   -3.6721    0.5022 O   0  0  0  0  0  0  0  0  0  0  0  0
   -4.4041   -0.8846    0.1880 C   0  0  0  0  0  0  0  0  0  0  0  0
   -7.8919   -1.1472    2.1792 H   0  0  0  0  0  0  0  0  0  0  0  0
   -6.9803   -1.9718    0.9176 H   0  0  0  0  0  0  0  0  0  0  0  0
   -6.1701   -1.4507    2.4099 H   0  0  0  0  0  0  0  0  0  0  0  0
   -6.5130    2.2676    1.7692 H   0  0  0  0  0  0  0  0  0  0  0  0
   -5.8050    1.0685    2.8593 H   0  0  0  0  0  0  0  0  0  0  0  0
   -7.5636    1.2095    2.7071 H   0  0  0  0  0  0  0  0  0  0  0  0
   -7.7481   -0.2209   -0.8023 H   0  0  0  0  0  0  0  0  0  0  0  0
   -7.6434    1.4999   -0.4231 H   0  0  0  0  0  0  0  0  0  0  0  0
   -8.7184    0.4610    0.5089 H   0  0  0  0  0  0  0  0  0  0  0  0
   -5.4350    2.3236   -0.2867 H   0  0  0  0  0  0  0  0  0  0  0  0
   -3.3115    2.4531   -1.4447 H   0  0  0  0  0  0  0  0  0  0  0  0
   -0.9663    2.2029   -0.8259 H   0  0  0  0  0  0  0  0  0  0  0  0
   -1.2542    2.2013   -2.6023 H   0  0  0  0  0  0  0  0  0  0  0  0
    0.7548    0.6531   -2.8169 H   0  0  0  0  0  0  0  0  0  0  0  0
    1.1419    2.3036   -2.2105 H   0  0  0  0  0  0  0  0  0  0  0  0
    3.0598    1.0570   -2.7932 H   0  0  0  0  0  0  0  0  0  0  0  0
    5.3990    0.5826   -2.5348 H   0  0  0  0  0  0  0  0  0  0  0  0
    8.6967   -0.3087   -1.3025 H   0  0  0  0  0  0  0  0  0  0  0  0
    7.5944    0.9737   -1.8013 H   0  0  0  0  0  0  0  0  0  0  0  0
    7.3292   -0.6949   -2.3469 H   0  0  0  0  0  0  0  0  0  0  0  0
    8.4138    0.3541    1.0260 H   0  0  0  0  0  0  0  0  0  0  0  0
    6.8606    0.3105    1.8570 H   0  0  0  0  0  0  0  0  0  0  0  0
    7.1936    1.5924    0.6850 H   0  0  0  0  0  0  0  0  0  0  0  0
    6.5224   -2.4828   -0.6617 H   0  0  0  0  0  0  0  0  0  0  0  0
    6.4428   -2.0912    1.0580 H   0  0  0  0  0  0  0  0  0  0  0  0
    7.9995   -2.0991    0.2342 H   0  0  0  0  0  0  0  0  0  0  0  0
    4.7514   -0.5735    1.5655 H   0  0  0  0  0  0  0  0  0  0  0  0
    1.1149    0.1385    1.2595 H   0  0  0  0  0  0  0  0  0  0  0  0
    1.3370   -0.5563    3.3636 H   0  0  0  0  0  0  0  0  0  0  0  0
   -1.4426   -1.7131   -1.1183 H   0  0  0  0  0  0  0  0  0  0  0  0
   -1.5945   -3.8225   -0.4227 H   0  0  0  0  0  0  0  0  0  0  0  0
   -4.7120   -1.8259    0.6298 H   0  0  0  0  0  0  0  0  0  0  0  0
  1  2  1  0
  2  3  1  0
  2  4  1  0
  2  5  1  0
  5  6  2  0
  6  7  1  0
  7  8  2  0
  8  9  1  0
  9 10  1  0
 10 11  1  0
 11 12  1  0
 12 13  1  0
 13 14  2  0
 14 15  1  0
 15 16  2  0
 16 17  1  0
 17 18  1  0
 17 19  1  0
 17 20  1  0
 16 21  1  0
 21 22  2  0
 22 23  1  0
 23 24  1  0
 24 25  2  0
  8 26  1  0
 26 27  1  0
 27 28  1  0
 28 29  2  0
 26 30  2  0
 30  5  1  0
 22 13  1  0
  1 31  1  0
  1 32  1  0
  1 33  1  0
  3 34  1  0
  3 35  1  0
  3 36  1  0
  4 37  1  0
  4 38  1  0
  4 39  1  0
  6 40  1  0
  7 41  1  0
 10 42  1  0
 10 43  1  0
 11 44  1  0
 11 45  1  0
 14 46  1  0
 15 47  1  0
 18 48  1  0
 18 49  1  0
 18 50  1  0
 19 51  1  0
 19 52  1  0
 19 53  1  0
 20 54  1  0
 20 55  1  0
 20 56  1  0
 21 57  1  0
 23 58  1  0
 24 59  1  0
 27 60  1  0
 28 61  1  0
 30 62  1  0
M  END
$$$$
