
     RDKit          3D

 48 51  0  0  0  0  0  0  0  0999 V2000
    4.6799   -3.6012    1.3439 O   0  0  0  0  0  0  0  0  0  0  0  0
    5.2250   -2.3173    1.7256 S   0  0  0  0  0  6  0  0  0  0  0  0
    6.4977   -2.2109    2.4064 O   0  0  0  0  0  0  0  0  0  0  0  0
    4.1084   -1.4853    2.6760 N   0  0  0  0  0  0  0  0  0  0  0  0
    2.8475   -1.1213    2.1318 C   0  0  0  0  0  0  0  0  0  0  0  0
    1.9489   -2.0817    1.6815 C   0  0  0  0  0  0  0  0  0  0  0  0
    0.7333   -1.6883    1.1105 C   0  0  0  0  0  0  0  0  0  0  0  0
    0.3858   -0.3305    0.9723 C   0  0  0  0  0  0  0  0  0  0  0  0
   -0.8983    0.0600    0.3582 C   0  0  0  0  0  0  0  0  0  0  0  0
   -1.1074    1.2483   -0.3244 C   0  0  0  0  0  0  0  0  0  0  0  0
   -2.3658    1.5170   -0.8722 C   0  0  0  0  0  0  0  0  0  0  0  0
   -3.4065    0.6074   -0.7332 C   0  0  0  0  0  0  0  0  0  0  0  0
   -4.6584    0.8483   -1.2932 N   0  0  0  0  0  0  0  0  0  0  0  0
   -5.6229   -0.2618   -1.1947 C   0  0  0  0  0  0  0  0  0  0  0  0
   -6.9355    0.1438   -1.8833 C   0  0  0  0  0  0  0  0  0  0  0  0
   -7.5623    1.3026   -1.3090 O   0  0  0  0  0  0  0  0  0  0  0  0
   -6.6566    2.1307   -0.5681 C   0  0  0  0  0  0  0  0  0  0  0  0
   -5.2441    2.1959   -1.1747 C   0  0  0  0  0  0  0  0  0  0  0  0
   -3.1549   -0.5486   -0.0868 N   0  0  0  0  0  0  0  0  0  0  0  0
   -1.9110   -0.8224    0.4656 N   0  0  0  0  0  0  0  0  0  0  0  0
    1.3074    0.6185    1.4528 C   0  0  0  0  0  0  0  0  0  0  0  0
    2.5244    0.2295    2.0269 C   0  0  0  0  0  0  0  0  0  0  0  0
    5.3288   -1.3084    0.2622 C   0  0  0  0  0  0  0  0  0  0  0  0
    4.6365   -1.6818   -0.8930 C   0  0  0  0  0  0  0  0  0  0  0  0
    4.7203   -0.8801   -2.0328 C   0  0  0  0  0  0  0  0  0  0  0  0
    5.4991    0.2826   -2.0201 C   0  0  0  0  0  0  0  0  0  0  0  0
    5.5440    1.2336   -3.4614 Cl  0  0  0  0  0  0  0  0  0  0  0  0
    6.2048    0.6395   -0.8627 C   0  0  0  0  0  0  0  0  0  0  0  0
    7.1819    2.0617   -0.7771 Cl  0  0  0  0  0  0  0  0  0  0  0  0
    6.1266   -0.1605    0.2801 C   0  0  0  0  0  0  0  0  0  0  0  0
    4.5517   -0.8539    3.3410 H   0  0  0  0  0  0  0  0  0  0  0  0
    2.1703   -3.1424    1.7762 H   0  0  0  0  0  0  0  0  0  0  0  0
    0.0479   -2.4639    0.7675 H   0  0  0  0  0  0  0  0  0  0  0  0
   -0.3075    1.9661   -0.4678 H   0  0  0  0  0  0  0  0  0  0  0  0
   -2.5075    2.4332   -1.4356 H   0  0  0  0  0  0  0  0  0  0  0  0
   -5.2258   -1.1572   -1.6875 H   0  0  0  0  0  0  0  0  0  0  0  0
   -5.8241   -0.4974   -0.1417 H   0  0  0  0  0  0  0  0  0  0  0  0
   -7.6575   -0.6775   -1.8359 H   0  0  0  0  0  0  0  0  0  0  0  0
   -6.7557    0.3624   -2.9424 H   0  0  0  0  0  0  0  0  0  0  0  0
   -6.6157    1.7510    0.4598 H   0  0  0  0  0  0  0  0  0  0  0  0
   -7.0913    3.1345   -0.5249 H   0  0  0  0  0  0  0  0  0  0  0  0
   -4.6382    2.8671   -0.5556 H   0  0  0  0  0  0  0  0  0  0  0  0
   -5.3014    2.6237   -2.1822 H   0  0  0  0  0  0  0  0  0  0  0  0
    1.0838    1.6823    1.4040 H   0  0  0  0  0  0  0  0  0  0  0  0
    3.2086    0.9952    2.3822 H   0  0  0  0  0  0  0  0  0  0  0  0
    4.0280   -2.5846   -0.9126 H   0  0  0  0  0  0  0  0  0  0  0  0
    4.1750   -1.1675   -2.9295 H   0  0  0  0  0  0  0  0  0  0  0  0
    6.6826    0.1094    1.1755 H   0  0  0  0  0  0  0  0  0  0  0  0
  1  2  2  0
  2  3  2  0
  2  4  1  0
  4  5  1  0
  5  6  2  0
  6  7  1  0
  7  8  2  0
  8  9  1  0
  9 10  2  0
 10 11  1  0
 11 12  2  0
 12 13  1  0
 13 14  1  0
 14 15  1  0
 15 16  1  0
 16 17  1  0
 17 18  1  0
 12 19  1  0
 19 20  2  0
  8 21  1  0
 21 22  2  0
  2 23  1  0
 23 24  2  0
 24 25  1  0
 25 26  2  0
 26 27  1  0
 26 28  1  0
 28 29  1  0
 28 30  2  0
 22  5  1  0
 30 23  1  0
 20  9  1  0
 18 13  1  0
  4 31  1  0
  6 32  1  0
  7 33  1  0
 10 34  1  0
 11 35  1  0
 14 36  1  0
 14 37  1  0
 15 38  1  0
 15 39  1  0
 17 40  1  0
 17 41  1  0
 18 42  1  0
 18 43  1  0
 21 44  1  0
 22 45  1  0
 24 46  1  0
 25 47  1  0
 30 48  1  0
M  END
$$$$
