
     RDKit          3D

 48 49  0  0  0  0  0  0  0  0999 V2000
    0.9740    2.5271    2.2274 C   0  0  0  0  0  0  0  0  0  0  0  0
    1.6541    1.6811    1.3098 O   0  0  0  0  0  0  0  0  0  0  0  0
    0.9056    0.7514    0.6347 C   0  0  0  0  0  0  0  0  0  0  0  0
   -0.4193    0.4223    0.9440 C   0  0  0  0  0  0  0  0  0  0  0  0
   -1.1177   -0.5383    0.1920 C   0  0  0  0  0  0  0  0  0  0  0  0
   -2.5569   -0.8769    0.5169 C   0  0  0  0  0  0  0  0  0  0  0  0
   -3.4471   -0.2740   -0.4696 N   0  0  0  0  0  0  0  0  0  0  0  0
   -4.8990   -0.4428   -0.2394 C   0  0  0  0  0  0  0  0  0  0  0  0
   -5.2851   -1.9249   -0.0770 C   0  0  0  0  0  0  0  0  0  0  0  0
   -5.3591    0.3409    1.0050 C   0  0  0  0  0  0  0  0  0  0  0  0
   -5.6157    0.1390   -1.4965 C   0  0  0  0  0  0  0  0  0  0  0  0
   -7.0362    0.0649   -1.4074 O   0  0  0  0  0  0  0  0  0  0  0  0
   -0.4784   -1.1575   -0.8915 C   0  0  0  0  0  0  0  0  0  0  0  0
    0.8434   -0.8407   -1.2044 C   0  0  0  0  0  0  0  0  0  0  0  0
    1.6489   -1.7106   -2.6864 Br  0  0  0  0  0  0  0  0  0  0  0  0
    1.5431    0.0922   -0.4308 C   0  0  0  0  0  0  0  0  0  0  0  0
    2.8342    0.4191   -0.7733 O   0  0  0  0  0  0  0  0  0  0  0  0
    3.7639   -0.2393    0.0913 C   0  0  0  0  0  0  0  0  0  0  0  0
    5.1482   -0.0302   -0.4730 C   0  0  0  0  0  0  0  0  0  0  0  0
    5.7108   -0.9701   -1.3489 C   0  0  0  0  0  0  0  0  0  0  0  0
    6.9843   -0.7640   -1.8844 C   0  0  0  0  0  0  0  0  0  0  0  0
    7.6963    0.3870   -1.5538 C   0  0  0  0  0  0  0  0  0  0  0  0
    9.2654    0.6404   -2.2137 Cl  0  0  0  0  0  0  0  0  0  0  0  0
    7.1445    1.3368   -0.6969 C   0  0  0  0  0  0  0  0  0  0  0  0
    5.8711    1.1309   -0.1616 C   0  0  0  0  0  0  0  0  0  0  0  0
    0.1487    3.0598    1.7432 H   0  0  0  0  0  0  0  0  0  0  0  0
    0.6244    1.9602    3.0962 H   0  0  0  0  0  0  0  0  0  0  0  0
    1.6884    3.2749    2.5848 H   0  0  0  0  0  0  0  0  0  0  0  0
   -0.9350    0.9024    1.7701 H   0  0  0  0  0  0  0  0  0  0  0  0
   -2.6474   -1.9691    0.5204 H   0  0  0  0  0  0  0  0  0  0  0  0
   -2.7846   -0.5305    1.5305 H   0  0  0  0  0  0  0  0  0  0  0  0
   -3.2315    0.7217   -0.5383 H   0  0  0  0  0  0  0  0  0  0  0  0
   -4.8482   -2.3657    0.8256 H   0  0  0  0  0  0  0  0  0  0  0  0
   -6.3700   -2.0492    0.0124 H   0  0  0  0  0  0  0  0  0  0  0  0
   -4.9538   -2.5165   -0.9381 H   0  0  0  0  0  0  0  0  0  0  0  0
   -4.9200   -0.0566    1.9259 H   0  0  0  0  0  0  0  0  0  0  0  0
   -6.4472    0.2912    1.1266 H   0  0  0  0  0  0  0  0  0  0  0  0
   -5.0843    1.3995    0.9314 H   0  0  0  0  0  0  0  0  0  0  0  0
   -5.3035   -0.3839   -2.4088 H   0  0  0  0  0  0  0  0  0  0  0  0
   -5.3593    1.1973   -1.6247 H   0  0  0  0  0  0  0  0  0  0  0  0
   -7.2933   -0.8408   -1.6515 H   0  0  0  0  0  0  0  0  0  0  0  0
   -1.0267   -1.8787   -1.4946 H   0  0  0  0  0  0  0  0  0  0  0  0
    3.5521   -1.3151    0.1573 H   0  0  0  0  0  0  0  0  0  0  0  0
    3.7210    0.1741    1.1063 H   0  0  0  0  0  0  0  0  0  0  0  0
    5.1553   -1.8639   -1.6253 H   0  0  0  0  0  0  0  0  0  0  0  0
    7.4095   -1.4995   -2.5616 H   0  0  0  0  0  0  0  0  0  0  0  0
    7.6944    2.2400   -0.4478 H   0  0  0  0  0  0  0  0  0  0  0  0
    5.4378    1.8844    0.4933 H   0  0  0  0  0  0  0  0  0  0  0  0
  1  2  1  0
  2  3  1  0
  3  4  2  0
  4  5  1  0
  5  6  1  0
  6  7  1  0
  7  8  1  0
  8  9  1  0
  8 10  1  0
  8 11  1  0
 11 12  1  0
  5 13  2  0
 13 14  1  0
 14 15  1  0
 14 16  2  0
 16 17  1  0
 17 18  1  0
 18 19  1  0
 19 20  2  0
 20 21  1  0
 21 22  2  0
 22 23  1  0
 22 24  1  0
 24 25  2  0
 16  3  1  0
 25 19  1  0
  1 26  1  0
  1 27  1  0
  1 28  1  0
  4 29  1  0
  6 30  1  0
  6 31  1  0
  7 32  1  0
  9 33  1  0
  9 34  1  0
  9 35  1  0
 10 36  1  0
 10 37  1  0
 10 38  1  0
 11 39  1  0
 11 40  1  0
 12 41  1  0
 13 42  1  0
 18 43  1  0
 18 44  1  0
 20 45  1  0
 21 46  1  0
 24 47  1  0
 25 48  1  0
M  END
$$$$
