
     RDKit          3D

 34 36  0  0  0  0  0  0  0  0999 V2000
   -5.4112   -0.2501    0.4701 C   0  0  0  0  0  0  0  0  0  0  0  0
   -4.0729    0.2007   -0.0038 C   0  0  0  0  0  0  0  0  0  0  0  0
   -2.8494   -0.4035    0.1814 C   0  0  0  0  0  0  0  0  0  0  0  0
   -1.7594    0.3231   -0.4202 C   0  0  0  0  0  0  0  0  0  0  0  0
   -0.3043   -0.1143   -0.3818 C   0  0  0  0  0  0  0  0  0  0  0  0
   -0.1189   -1.5457   -0.8400 C   0  0  0  0  0  0  0  0  0  0  0  0
    1.1681   -1.7142   -1.5788 C   0  0  0  0  0  0  0  0  0  0  0  0
    1.1773   -2.2927   -2.6716 O   0  0  0  0  0  0  0  0  0  0  0  0
    2.3620   -1.3022   -1.0957 N   0  0  0  0  0  0  0  0  0  0  0  0
    2.8149   -0.6515    0.0690 C   0  0  0  0  0  0  0  0  0  0  0  0
    4.2254   -0.5664    0.1353 C   0  0  0  0  0  0  0  0  0  0  0  0
    4.8876    0.0157    1.2161 C   0  0  0  0  0  0  0  0  0  0  0  0
    4.1503    0.5317    2.2653 C   0  0  0  0  0  0  0  0  0  0  0  0
    2.7587    0.4693    2.2167 C   0  0  0  0  0  0  0  0  0  0  0  0
    2.0663   -0.1059    1.1252 C   0  0  0  0  0  0  0  0  0  0  0  0
    0.2990    0.0006    1.3302 S   0  0  0  0  0  0  0  0  0  0  0  0
   -2.2302    1.4733   -1.0418 C   0  0  0  0  0  0  0  0  0  0  0  0
   -1.4529    2.5163   -1.7784 C   0  0  0  0  0  0  0  0  0  0  0  0
   -3.9268    1.6425   -0.8994 S   0  0  0  0  0  0  0  0  0  0  0  0
   -6.0871   -0.4167   -0.3751 H   0  0  0  0  0  0  0  0  0  0  0  0
   -5.3330   -1.1903    1.0260 H   0  0  0  0  0  0  0  0  0  0  0  0
   -5.8594    0.4953    1.1352 H   0  0  0  0  0  0  0  0  0  0  0  0
   -2.7302   -1.3305    0.7310 H   0  0  0  0  0  0  0  0  0  0  0  0
    0.2815    0.5782   -0.9976 H   0  0  0  0  0  0  0  0  0  0  0  0
   -0.1727   -2.2924   -0.0385 H   0  0  0  0  0  0  0  0  0  0  0  0
   -0.9103   -1.8123   -1.5548 H   0  0  0  0  0  0  0  0  0  0  0  0
    3.0863   -1.5783   -1.7514 H   0  0  0  0  0  0  0  0  0  0  0  0
    4.8424   -0.9713   -0.6660 H   0  0  0  0  0  0  0  0  0  0  0  0
    5.9736    0.0577    1.2350 H   0  0  0  0  0  0  0  0  0  0  0  0
    4.6472    0.9854    3.1188 H   0  0  0  0  0  0  0  0  0  0  0  0
    2.2053    0.8924    3.0558 H   0  0  0  0  0  0  0  0  0  0  0  0
   -0.9681    2.0751   -2.6556 H   0  0  0  0  0  0  0  0  0  0  0  0
   -0.6772    2.9376   -1.1302 H   0  0  0  0  0  0  0  0  0  0  0  0
   -2.0818    3.3432   -2.1242 H   0  0  0  0  0  0  0  0  0  0  0  0
  1  2  1  0
  2  3  2  0
  3  4  1  0
  4  5  1  0
  5  6  1  0
  6  7  1  0
  7  8  2  0
  7  9  1  0
  9 10  1  0
 10 11  2  0
 11 12  1  0
 12 13  2  0
 13 14  1  0
 14 15  2  0
 15 16  1  0
  4 17  2  0
 17 18  1  0
 17 19  1  0
 19  2  1  0
 16  5  1  0
 15 10  1  0
  1 20  1  0
  1 21  1  0
  1 22  1  0
  3 23  1  0
  5 24  1  0
  6 25  1  0
  6 26  1  0
  9 27  1  0
 11 28  1  0
 12 29  1  0
 13 30  1  0
 14 31  1  0
 18 32  1  0
 18 33  1  0
 18 34  1  0
M  END
$$$$
