
     RDKit          3D

 61 64  0  0  0  0  0  0  0  0999 V2000
    3.5486   -1.7113   -3.6736 C   0  0  0  0  0  0  0  0  0  0  0  0
    3.9325   -0.8572   -2.4964 C   0  0  0  0  0  0  0  0  0  0  0  0
    4.1223    0.5227   -2.6537 C   0  0  0  0  0  0  0  0  0  0  0  0
    4.5676    1.3136   -1.5867 C   0  0  0  0  0  0  0  0  0  0  0  0
    4.8273    0.7378   -0.3371 C   0  0  0  0  0  0  0  0  0  0  0  0
    5.3058    1.5782    0.8310 C   0  0  0  0  0  0  0  0  0  0  0  0
    4.2200    1.8620    1.7588 N   0  0  0  0  0  0  0  0  0  0  0  0
    3.3897    3.0374    1.6486 C   0  0  0  0  0  0  0  0  0  0  0  0
    2.2605    2.7931    2.6368 C   0  0  0  0  0  0  0  0  0  0  0  0
    0.9393    2.5442    1.9292 C   0  0  0  0  0  0  0  0  0  0  0  0
   -0.0132    3.2823    2.1775 O   0  0  0  0  0  0  0  0  0  0  0  0
    0.9430    1.4803    1.0409 N   0  0  0  0  0  0  0  0  0  0  0  0
   -0.1430    1.0136    0.2652 C   0  0  0  0  0  0  0  0  0  0  0  0
    0.1032   -0.0702   -0.5968 C   0  0  0  0  0  0  0  0  0  0  0  0
   -0.9265   -0.6157   -1.3727 C   0  0  0  0  0  0  0  0  0  0  0  0
   -2.2076   -0.0593   -1.2933 C   0  0  0  0  0  0  0  0  0  0  0  0
   -3.5596   -0.7913   -2.1845 S   0  0  0  0  0  6  0  0  0  0  0  0
   -4.1737    0.2597   -2.9678 O   0  0  0  0  0  0  0  0  0  0  0  0
   -3.0928   -2.0188   -2.7973 O   0  0  0  0  0  0  0  0  0  0  0  0
   -4.6370   -1.2219   -0.9340 N   0  0  0  0  0  0  0  0  0  0  0  0
   -4.1587   -2.2141    0.0535 C   0  0  0  0  0  0  0  0  0  0  0  0
   -4.9777   -2.0607    1.3384 C   0  0  0  0  0  0  0  0  0  0  0  0
   -6.4673   -1.8211    1.0768 C   0  0  0  0  0  0  0  0  0  0  0  0
   -6.8550   -2.2274   -0.3387 C   0  0  0  0  0  0  0  0  0  0  0  0
   -6.0348   -1.4707   -1.3889 C   0  0  0  0  0  0  0  0  0  0  0  0
   -2.4638    1.0308   -0.4599 C   0  0  0  0  0  0  0  0  0  0  0  0
   -1.4278    1.5689    0.3120 C   0  0  0  0  0  0  0  0  0  0  0  0
    2.6901    1.6222    3.5229 C   0  0  0  0  0  0  0  0  0  0  0  0
    3.9013    1.0488    2.8294 C   0  0  0  0  0  0  0  0  0  0  0  0
    4.4869    0.0311    3.1666 O   0  0  0  0  0  0  0  0  0  0  0  0
    4.6151   -0.6406   -0.1764 C   0  0  0  0  0  0  0  0  0  0  0  0
    4.1782   -1.4317   -1.2463 C   0  0  0  0  0  0  0  0  0  0  0  0
    3.1430   -2.6807   -3.3574 H   0  0  0  0  0  0  0  0  0  0  0  0
    4.4347   -1.8971   -4.2979 H   0  0  0  0  0  0  0  0  0  0  0  0
    2.7776   -1.2198   -4.2805 H   0  0  0  0  0  0  0  0  0  0  0  0
    3.9405    0.9905   -3.6201 H   0  0  0  0  0  0  0  0  0  0  0  0
    4.7023    2.3831   -1.7394 H   0  0  0  0  0  0  0  0  0  0  0  0
    5.7477    2.5252    0.4911 H   0  0  0  0  0  0  0  0  0  0  0  0
    6.0972    1.0342    1.3629 H   0  0  0  0  0  0  0  0  0  0  0  0
    3.0509    3.1567    0.6089 H   0  0  0  0  0  0  0  0  0  0  0  0
    3.9812    3.9277    1.9335 H   0  0  0  0  0  0  0  0  0  0  0  0
    2.1107    3.6859    3.2654 H   0  0  0  0  0  0  0  0  0  0  0  0
    1.8175    0.9762    0.9055 H   0  0  0  0  0  0  0  0  0  0  0  0
    1.0960   -0.5209   -0.6591 H   0  0  0  0  0  0  0  0  0  0  0  0
   -0.7151   -1.4506   -2.0388 H   0  0  0  0  0  0  0  0  0  0  0  0
   -4.2482   -3.2406   -0.3434 H   0  0  0  0  0  0  0  0  0  0  0  0
   -3.1030   -2.0552    0.3095 H   0  0  0  0  0  0  0  0  0  0  0  0
   -4.5790   -1.2265    1.9330 H   0  0  0  0  0  0  0  0  0  0  0  0
   -4.8456   -2.9625    1.9514 H   0  0  0  0  0  0  0  0  0  0  0  0
   -7.0657   -2.3750    1.8116 H   0  0  0  0  0  0  0  0  0  0  0  0
   -6.6961   -0.7568    1.2228 H   0  0  0  0  0  0  0  0  0  0  0  0
   -7.9227   -2.0501   -0.5062 H   0  0  0  0  0  0  0  0  0  0  0  0
   -6.6989   -3.3079   -0.4596 H   0  0  0  0  0  0  0  0  0  0  0  0
   -6.0514   -2.0354   -2.3317 H   0  0  0  0  0  0  0  0  0  0  0  0
   -6.5054   -0.4914   -1.5674 H   0  0  0  0  0  0  0  0  0  0  0  0
   -3.4610    1.4754   -0.4119 H   0  0  0  0  0  0  0  0  0  0  0  0
   -1.6712    2.4035    0.9634 H   0  0  0  0  0  0  0  0  0  0  0  0
    1.9237    0.8399    3.6137 H   0  0  0  0  0  0  0  0  0  0  0  0
    2.9885    1.9736    4.5188 H   0  0  0  0  0  0  0  0  0  0  0  0
    4.8105   -1.1138    0.7868 H   0  0  0  0  0  0  0  0  0  0  0  0
    4.0480   -2.5026   -1.0999 H   0  0  0  0  0  0  0  0  0  0  0  0
  1  2  1  0
  2  3  2  0
  3  4  1  0
  4  5  2  0
  5  6  1  0
  6  7  1  0
  7  8  1  0
  8  9  1  0
  9 10  1  0
 10 11  2  0
 10 12  1  0
 12 13  1  0
 13 14  2  0
 14 15  1  0
 15 16  2  0
 16 17  1  0
 17 18  2  0
 17 19  2  0
 17 20  1  0
 20 21  1  0
 21 22  1  0
 22 23  1  0
 23 24  1  0
 24 25  1  0
 16 26  1  0
 26 27  2  0
  9 28  1  0
 28 29  1  0
 29 30  2  0
  5 31  1  0
 31 32  2  0
 32  2  1  0
 29  7  1  0
 27 13  1  0
 25 20  1  0
  1 33  1  0
  1 34  1  0
  1 35  1  0
  3 36  1  0
  4 37  1  0
  6 38  1  0
  6 39  1  0
  8 40  1  0
  8 41  1  0
  9 42  1  0
 12 43  1  0
 14 44  1  0
 15 45  1  0
 21 46  1  0
 21 47  1  0
 22 48  1  0
 22 49  1  0
 23 50  1  0
 23 51  1  0
 24 52  1  0
 24 53  1  0
 25 54  1  0
 25 55  1  0
 26 56  1  0
 27 57  1  0
 28 58  1  0
 28 59  1  0
 31 60  1  0
 32 61  1  0
M  END
$$$$
