
     RDKit          3D

 49 50  0  0  0  0  0  0  0  0999 V2000
   -2.7467    0.9766    3.6266 C   0  0  0  0  0  0  0  0  0  0  0  0
   -3.8116    1.5237    2.8574 O   0  0  0  0  0  0  0  0  0  0  0  0
   -3.9030    1.1311    1.5493 C   0  0  0  0  0  0  0  0  0  0  0  0
   -2.8357    0.5982    0.8146 C   0  0  0  0  0  0  0  0  0  0  0  0
   -3.0093    0.1835   -0.5160 C   0  0  0  0  0  0  0  0  0  0  0  0
   -1.8506   -0.3463   -1.2502 C   0  0  0  0  0  0  0  0  0  0  0  0
   -1.9272   -1.3627   -2.1237 C   0  0  0  0  0  0  0  0  0  0  0  0
   -0.7799   -1.9143   -2.8733 C   0  0  0  0  0  0  0  0  0  0  0  0
   -0.9161   -2.7955   -3.7075 O   0  0  0  0  0  0  0  0  0  0  0  0
    0.3893   -1.3326   -2.5150 O   0  0  0  0  0  0  0  0  0  0  0  0
    1.5169   -1.8368   -3.2396 C   0  0  0  0  0  0  0  0  0  0  0  0
    2.8220   -1.1974   -2.7673 C   0  0  0  0  0  0  0  0  0  0  0  0
    3.9027   -1.4560   -3.2889 O   0  0  0  0  0  0  0  0  0  0  0  0
    2.6823   -0.3268   -1.7108 N   0  0  0  0  0  0  0  0  0  0  0  0
    3.8001    0.3686   -1.1026 C   0  0  0  0  0  0  0  0  0  0  0  0
    4.4759   -0.4321    0.0141 C   0  0  0  0  0  0  0  0  0  0  0  0
    5.3913   -1.5471   -0.4660 C   0  0  0  0  0  0  0  0  0  0  0  0
    6.3436   -1.6806    0.6956 C   0  0  0  0  0  0  0  0  0  0  0  0
    6.5264   -0.2382    1.1141 C   0  0  0  0  0  0  0  0  0  0  0  0
    5.2967    0.4413    0.8180 O   0  0  0  0  0  0  0  0  0  0  0  0
   -4.2649    0.3315   -1.1157 C   0  0  0  0  0  0  0  0  0  0  0  0
   -5.3304    0.8734   -0.3958 C   0  0  0  0  0  0  0  0  0  0  0  0
   -5.1469    1.2959    0.9214 C   0  0  0  0  0  0  0  0  0  0  0  0
   -6.2689    1.7804    1.5429 O   0  0  0  0  0  0  0  0  0  0  0  0
   -6.0959    3.0649    2.1616 C   0  0  0  0  0  0  0  0  0  0  0  0
   -6.3666    3.0003    3.6072 C   0  0  0  0  0  0  0  0  0  0  0  0
   -6.5857    2.9850    4.7485 N   0  0  0  0  0  0  0  0  0  0  0  0
   -2.7032   -0.1141    3.5353 H   0  0  0  0  0  0  0  0  0  0  0  0
   -2.9368    1.2164    4.6771 H   0  0  0  0  0  0  0  0  0  0  0  0
   -1.7927    1.4351    3.3480 H   0  0  0  0  0  0  0  0  0  0  0  0
   -1.8549    0.4913    1.2683 H   0  0  0  0  0  0  0  0  0  0  0  0
   -0.9005    0.1333   -1.0306 H   0  0  0  0  0  0  0  0  0  0  0  0
   -2.8653   -1.8629   -2.3425 H   0  0  0  0  0  0  0  0  0  0  0  0
    1.4007   -1.6048   -4.3041 H   0  0  0  0  0  0  0  0  0  0  0  0
    1.6069   -2.9177   -3.0836 H   0  0  0  0  0  0  0  0  0  0  0  0
    1.7524   -0.2028   -1.3275 H   0  0  0  0  0  0  0  0  0  0  0  0
    3.4033    1.3060   -0.6965 H   0  0  0  0  0  0  0  0  0  0  0  0
    4.5266    0.6444   -1.8757 H   0  0  0  0  0  0  0  0  0  0  0  0
    3.7125   -0.8437    0.6869 H   0  0  0  0  0  0  0  0  0  0  0  0
    5.9486   -1.2426   -1.3599 H   0  0  0  0  0  0  0  0  0  0  0  0
    4.8549   -2.4729   -0.6915 H   0  0  0  0  0  0  0  0  0  0  0  0
    5.8671   -2.2484    1.5037 H   0  0  0  0  0  0  0  0  0  0  0  0
    7.2849   -2.1735    0.4388 H   0  0  0  0  0  0  0  0  0  0  0  0
    7.3206    0.2448    0.5351 H   0  0  0  0  0  0  0  0  0  0  0  0
    6.7575   -0.1350    2.1779 H   0  0  0  0  0  0  0  0  0  0  0  0
   -4.4313    0.0379   -2.1495 H   0  0  0  0  0  0  0  0  0  0  0  0
   -6.3053    0.9731   -0.8668 H   0  0  0  0  0  0  0  0  0  0  0  0
   -5.1184    3.5190    1.9579 H   0  0  0  0  0  0  0  0  0  0  0  0
   -6.8354    3.7289    1.6987 H   0  0  0  0  0  0  0  0  0  0  0  0
  1  2  1  0
  2  3  1  0
  3  4  2  0
  4  5  1  0
  5  6  1  0
  6  7  2  3
  7  8  1  0
  8  9  2  0
  8 10  1  0
 10 11  1  0
 11 12  1  0
 12 13  2  0
 12 14  1  0
 14 15  1  0
 15 16  1  0
 16 17  1  0
 17 18  1  0
 18 19  1  0
 19 20  1  0
  5 21  2  0
 21 22  1  0
 22 23  2  0
 23 24  1  0
 24 25  1  0
 25 26  1  0
 26 27  3  0
 23  3  1  0
 20 16  1  0
  1 28  1  0
  1 29  1  0
  1 30  1  0
  4 31  1  0
  6 32  1  0
  7 33  1  0
 11 34  1  0
 11 35  1  0
 14 36  1  0
 15 37  1  0
 15 38  1  0
 16 39  1  0
 17 40  1  0
 17 41  1  0
 18 42  1  0
 18 43  1  0
 19 44  1  0
 19 45  1  0
 21 46  1  0
 22 47  1  0
 25 48  1  0
 25 49  1  0
M  END
$$$$
