
     RDKit          3D

 60 65  0  0  0  0  0  0  0  0999 V2000
    3.0197   -2.2750   -1.7972 O   0  0  0  0  0  0  0  0  0  0  0  0
    2.5634   -1.1502   -1.6110 C   0  0  0  0  0  0  0  0  0  0  0  0
    1.1455   -0.9296   -1.0888 C   0  0  0  0  0  0  0  0  0  0  0  0
    0.7776   -2.0677    0.2911 S   0  0  0  0  0  0  0  0  0  0  0  0
   -0.8524   -1.5487    0.7169 C   0  0  0  0  0  0  0  0  0  0  0  0
   -1.3934   -0.6650   -0.0542 N   0  0  0  0  0  0  0  0  0  0  0  0
   -2.6242   -0.1332    0.3061 C   0  0  0  0  0  0  0  0  0  0  0  0
   -3.1280    0.7533   -0.5783 N   0  0  0  0  0  0  0  0  0  0  0  0
   -4.3060    1.3573   -0.2736 C   0  0  0  0  0  0  0  0  0  0  0  0
   -5.0128    1.0883    0.9027 C   0  0  0  0  0  0  0  0  0  0  0  0
   -4.4569    0.1765    1.8052 C   0  0  0  0  0  0  0  0  0  0  0  0
   -3.2457   -0.4412    1.4930 C   0  0  0  0  0  0  0  0  0  0  0  0
   -2.6073   -1.4250    2.3713 C   0  0  0  0  0  0  0  0  0  0  0  0
   -3.1627   -1.6575    3.4471 O   0  0  0  0  0  0  0  0  0  0  0  0
   -1.4361   -2.0278    1.8918 N   0  0  0  0  0  0  0  0  0  0  0  0
   -0.9089   -3.1395    2.6379 C   0  0  0  0  0  0  0  0  0  0  0  0
   -0.5889   -4.3500    2.0017 C   0  0  0  0  0  0  0  0  0  0  0  0
   -0.0889   -5.4349    2.7293 C   0  0  0  0  0  0  0  0  0  0  0  0
    0.0833   -5.3303    4.1035 C   0  0  0  0  0  0  0  0  0  0  0  0
   -0.2536   -4.1470    4.7539 C   0  0  0  0  0  0  0  0  0  0  0  0
   -0.7514   -3.0615    4.0268 C   0  0  0  0  0  0  0  0  0  0  0  0
   -6.3019    1.7873    1.2412 C   0  0  0  0  0  0  0  0  0  0  0  0
   -6.9363    2.5081    0.0529 C   0  0  0  0  0  0  0  0  0  0  0  0
   -5.8919    3.2710   -0.7436 C   0  0  0  0  0  0  0  0  0  0  0  0
   -4.8500    2.3067   -1.3097 C   0  0  0  0  0  0  0  0  0  0  0  0
    3.2174    0.0472   -1.8845 N   0  0  0  0  0  0  0  0  0  0  0  0
    4.5674    0.2314   -2.2886 C   0  0  0  0  0  0  0  0  0  0  0  0
    5.4917   -0.8210   -2.2158 C   0  0  0  0  0  0  0  0  0  0  0  0
    6.8207   -0.6371   -2.5882 C   0  0  0  0  0  0  0  0  0  0  0  0
    7.2497    0.6058   -3.0370 C   0  0  0  0  0  0  0  0  0  0  0  0
    6.3586    1.6847   -3.1203 C   0  0  0  0  0  0  0  0  0  0  0  0
    6.8267    2.9258   -3.5862 C   0  0  0  0  0  0  0  0  0  0  0  0
    5.9754    4.0217   -3.6971 C   0  0  0  0  0  0  0  0  0  0  0  0
    4.6424    3.8902   -3.3395 C   0  0  0  0  0  0  0  0  0  0  0  0
    4.1615    2.6633   -2.8701 C   0  0  0  0  0  0  0  0  0  0  0  0
    4.9972    1.5208   -2.7444 C   0  0  0  0  0  0  0  0  0  0  0  0
    1.0444    0.0973   -0.7132 H   0  0  0  0  0  0  0  0  0  0  0  0
    0.4511   -1.0812   -1.9248 H   0  0  0  0  0  0  0  0  0  0  0  0
   -4.9580   -0.0510    2.7444 H   0  0  0  0  0  0  0  0  0  0  0  0
   -0.7445   -4.4781    0.9347 H   0  0  0  0  0  0  0  0  0  0  0  0
    0.1605   -6.3627    2.2235 H   0  0  0  0  0  0  0  0  0  0  0  0
    0.4770   -6.1705    4.6712 H   0  0  0  0  0  0  0  0  0  0  0  0
   -0.1310   -4.0635    5.8301 H   0  0  0  0  0  0  0  0  0  0  0  0
   -0.9992   -2.1493    4.5644 H   0  0  0  0  0  0  0  0  0  0  0  0
   -6.0969    2.5156    2.0364 H   0  0  0  0  0  0  0  0  0  0  0  0
   -7.0232    1.0602    1.6311 H   0  0  0  0  0  0  0  0  0  0  0  0
   -7.7188    3.1901    0.4075 H   0  0  0  0  0  0  0  0  0  0  0  0
   -7.4244    1.7727   -0.5973 H   0  0  0  0  0  0  0  0  0  0  0  0
   -6.3684    3.8169   -1.5550 H   0  0  0  0  0  0  0  0  0  0  0  0
   -5.4128    4.0102   -0.1001 H   0  0  0  0  0  0  0  0  0  0  0  0
   -4.0253    2.8795   -1.7534 H   0  0  0  0  0  0  0  0  0  0  0  0
   -5.3025    1.7060   -2.1099 H   0  0  0  0  0  0  0  0  0  0  0  0
    2.6506    0.8833   -1.8456 H   0  0  0  0  0  0  0  0  0  0  0  0
    5.2108   -1.8033   -1.8503 H   0  0  0  0  0  0  0  0  0  0  0  0
    7.5191   -1.4661   -2.5218 H   0  0  0  0  0  0  0  0  0  0  0  0
    8.2934    0.7229   -3.3243 H   0  0  0  0  0  0  0  0  0  0  0  0
    7.8683    3.0476   -3.8756 H   0  0  0  0  0  0  0  0  0  0  0  0
    6.3527    4.9698   -4.0722 H   0  0  0  0  0  0  0  0  0  0  0  0
    3.9687    4.7338   -3.4368 H   0  0  0  0  0  0  0  0  0  0  0  0
    3.1075    2.6227   -2.6172 H   0  0  0  0  0  0  0  0  0  0  0  0
  1  2  2  0
  2  3  1  0
  3  4  1  0
  4  5  1  0
  5  6  2  0
  6  7  1  0
  7  8  2  0
  8  9  1  0
  9 10  2  0
 10 11  1  0
 11 12  2  0
 12 13  1  0
 13 14  2  0
 13 15  1  0
 15 16  1  0
 16 17  2  0
 17 18  1  0
 18 19  2  0
 19 20  1  0
 20 21  2  0
 10 22  1  0
 22 23  1  0
 23 24  1  0
 24 25  1  0
  2 26  1  0
 26 27  1  0
 27 28  2  0
 28 29  1  0
 29 30  2  0
 30 31  1  0
 31 32  2  0
 32 33  1  0
 33 34  2  0
 34 35  1  0
 35 36  2  0
 15  5  1  0
 21 16  1  0
 36 27  1  0
 12  7  1  0
 36 31  1  0
 25  9  1  0
  3 37  1  0
  3 38  1  0
 11 39  1  0
 17 40  1  0
 18 41  1  0
 19 42  1  0
 20 43  1  0
 21 44  1  0
 22 45  1  0
 22 46  1  0
 23 47  1  0
 23 48  1  0
 24 49  1  0
 24 50  1  0
 25 51  1  0
 25 52  1  0
 26 53  1  0
 28 54  1  0
 29 55  1  0
 30 56  1  0
 32 57  1  0
 33 58  1  0
 34 59  1  0
 35 60  1  0
M  END
$$$$
