
     RDKit          3D

 48 50  0  0  0  0  0  0  0  0999 V2000
   -4.1914    4.3287   -1.8923 C   0  0  0  0  0  0  0  0  0  0  0  0
   -4.1854    3.7337   -0.4970 C   0  0  0  0  0  0  0  0  0  0  0  0
   -3.6693    2.3940   -0.5347 O   0  0  0  0  0  0  0  0  0  0  0  0
   -4.5728    1.4176   -0.7780 C   0  0  0  0  0  0  0  0  0  0  0  0
   -5.7603    1.5671   -1.0147 O   0  0  0  0  0  0  0  0  0  0  0  0
   -3.9190    0.1078   -0.8198 C   0  0  0  0  0  0  0  0  0  0  0  0
   -4.3996   -0.8488   -1.6845 C   0  0  0  0  0  0  0  0  0  0  0  0
   -3.8648   -2.0831   -1.8087 N   0  0  0  0  0  0  0  0  0  0  0  0
   -2.8221   -2.3716   -1.0143 C   0  0  0  0  0  0  0  0  0  0  0  0
   -2.1020   -3.9823   -1.1944 S   0  0  0  0  0  0  0  0  0  0  0  0
   -1.0260   -4.0184    0.2620 C   0  0  0  0  0  0  0  0  0  0  0  0
   -2.2925   -1.5191   -0.1275 N   0  0  0  0  0  0  0  0  0  0  0  0
   -2.8510   -0.2882   -0.0445 C   0  0  0  0  0  0  0  0  0  0  0  0
   -2.3763    0.5889    0.9250 O   0  0  0  0  0  0  0  0  0  0  0  0
   -1.1737    0.2885    1.5193 C   0  0  0  0  0  0  0  0  0  0  0  0
   -1.1562    0.1453    2.9037 C   0  0  0  0  0  0  0  0  0  0  0  0
    0.0485   -0.1221    3.5489 C   0  0  0  0  0  0  0  0  0  0  0  0
    1.2331   -0.2318    2.8120 C   0  0  0  0  0  0  0  0  0  0  0  0
    1.2266   -0.0631    1.4253 C   0  0  0  0  0  0  0  0  0  0  0  0
    2.3764   -0.1656    0.6131 N   0  0  0  0  0  0  0  0  0  0  0  0
    3.6827   -0.3463    1.0294 C   0  0  0  0  0  0  0  0  0  0  0  0
    4.0929   -0.3681    2.1832 O   0  0  0  0  0  0  0  0  0  0  0  0
    4.6769   -0.4829   -0.0727 C   0  0  0  0  0  0  0  0  0  0  0  0
    4.3764   -1.1741   -1.2550 C   0  0  0  0  0  0  0  0  0  0  0  0
    5.3401   -1.2837   -2.2624 C   0  0  0  0  0  0  0  0  0  0  0  0
    6.6004   -0.7121   -2.0849 C   0  0  0  0  0  0  0  0  0  0  0  0
    7.7815   -0.8494   -3.3277 Cl  0  0  0  0  0  0  0  0  0  0  0  0
    6.9117   -0.0383   -0.9049 C   0  0  0  0  0  0  0  0  0  0  0  0
    5.9517    0.0719    0.1044 C   0  0  0  0  0  0  0  0  0  0  0  0
    0.0128    0.2099    0.7825 C   0  0  0  0  0  0  0  0  0  0  0  0
   -4.8513    3.7628   -2.5575 H   0  0  0  0  0  0  0  0  0  0  0  0
   -4.5273    5.3694   -1.8692 H   0  0  0  0  0  0  0  0  0  0  0  0
   -3.1886    4.2905   -2.3309 H   0  0  0  0  0  0  0  0  0  0  0  0
   -5.1830    3.7631   -0.0438 H   0  0  0  0  0  0  0  0  0  0  0  0
   -3.5195    4.3150    0.1493 H   0  0  0  0  0  0  0  0  0  0  0  0
   -5.2513   -0.6529   -2.3325 H   0  0  0  0  0  0  0  0  0  0  0  0
   -0.5373   -4.9953    0.3163 H   0  0  0  0  0  0  0  0  0  0  0  0
   -1.6055   -3.8745    1.1783 H   0  0  0  0  0  0  0  0  0  0  0  0
   -0.2493   -3.2518    0.1910 H   0  0  0  0  0  0  0  0  0  0  0  0
   -2.0739    0.2336    3.4778 H   0  0  0  0  0  0  0  0  0  0  0  0
    0.0733   -0.2467    4.6287 H   0  0  0  0  0  0  0  0  0  0  0  0
    2.1476   -0.4506    3.3551 H   0  0  0  0  0  0  0  0  0  0  0  0
    2.2240   -0.0282   -0.3775 H   0  0  0  0  0  0  0  0  0  0  0  0
    3.4134   -1.6590   -1.3940 H   0  0  0  0  0  0  0  0  0  0  0  0
    5.1073   -1.8240   -3.1768 H   0  0  0  0  0  0  0  0  0  0  0  0
    7.8973    0.3971   -0.7605 H   0  0  0  0  0  0  0  0  0  0  0  0
    6.1981    0.5906    1.0295 H   0  0  0  0  0  0  0  0  0  0  0  0
   -0.0234    0.3567   -0.2925 H   0  0  0  0  0  0  0  0  0  0  0  0
  1  2  1  0
  2  3  1  0
  3  4  1  0
  4  5  2  0
  4  6  1  0
  6  7  2  0
  7  8  1  0
  8  9  2  0
  9 10  1  0
 10 11  1  0
  9 12  1  0
 12 13  2  0
 13 14  1  0
 14 15  1  0
 15 16  2  0
 16 17  1  0
 17 18  2  0
 18 19  1  0
 19 20  1  0
 20 21  1  0
 21 22  2  0
 21 23  1  0
 23 24  2  0
 24 25  1  0
 25 26  2  0
 26 27  1  0
 26 28  1  0
 28 29  2  0
 19 30  2  0
 13  6  1  0
 30 15  1  0
 29 23  1  0
  1 31  1  0
  1 32  1  0
  1 33  1  0
  2 34  1  0
  2 35  1  0
  7 36  1  0
 11 37  1  0
 11 38  1  0
 11 39  1  0
 16 40  1  0
 17 41  1  0
 18 42  1  0
 20 43  1  0
 24 44  1  0
 25 45  1  0
 28 46  1  0
 29 47  1  0
 30 48  1  0
M  END
$$$$
