
     RDKit          3D

 57 61  0  0  0  0  0  0  0  0999 V2000
    6.3266    1.2769   -2.2746 C   0  0  0  0  0  0  0  0  0  0  0  0
    5.5151    0.0280   -2.0971 C   0  0  0  0  0  0  0  0  0  0  0  0
    6.1089   -1.1366   -1.5987 C   0  0  0  0  0  0  0  0  0  0  0  0
    5.3489   -2.2916   -1.4014 C   0  0  0  0  0  0  0  0  0  0  0  0
    3.9783   -2.3005   -1.6940 C   0  0  0  0  0  0  0  0  0  0  0  0
    3.1550   -3.5435   -1.4688 C   0  0  0  0  0  0  0  0  0  0  0  0
    2.7542   -3.6707   -0.0835 N   0  0  0  0  0  0  0  0  0  0  0  0
    3.4567   -4.4505    0.7768 N   0  0  0  0  0  0  0  0  0  0  0  0
    2.8546   -4.3892    1.9648 N   0  0  0  0  0  0  0  0  0  0  0  0
    1.7673   -3.5840    1.8250 C   0  0  0  0  0  0  0  0  0  0  0  0
    0.7715   -3.1724    2.7753 C   0  0  0  0  0  0  0  0  0  0  0  0
    0.7243   -3.4945    3.9571 O   0  0  0  0  0  0  0  0  0  0  0  0
   -0.1805   -2.3349    2.2057 N   0  0  0  0  0  0  0  0  0  0  0  0
   -0.1805   -1.9433    0.8710 C   0  0  0  0  0  0  0  0  0  0  0  0
   -1.3077   -1.0198    0.4342 C   0  0  0  0  0  0  0  0  0  0  0  0
   -1.2338    0.3404    1.1480 C   0  0  0  0  0  0  0  0  0  0  0  0
   -2.6055    0.8536    1.5831 C   0  0  0  0  0  0  0  0  0  0  0  0
   -3.5589    0.6506    0.4705 N   0  0  0  0  0  0  0  0  0  0  0  0
   -4.9953    1.5780    0.5426 S   0  0  0  0  0  6  0  0  0  0  0  0
   -5.5204    1.4381    1.8844 O   0  0  0  0  0  0  0  0  0  0  0  0
   -5.7938    1.2629   -0.6217 O   0  0  0  0  0  0  0  0  0  0  0  0
   -4.3983    3.2378    0.3348 C   0  0  0  0  0  0  0  0  0  0  0  0
   -3.7578    3.5802   -0.8627 C   0  0  0  0  0  0  0  0  0  0  0  0
   -3.2825    4.8799   -1.0366 C   0  0  0  0  0  0  0  0  0  0  0  0
   -3.4557    5.8160   -0.0205 C   0  0  0  0  0  0  0  0  0  0  0  0
   -2.9968    7.0626   -0.1900 F   0  0  0  0  0  0  0  0  0  0  0  0
   -4.0985    5.4801    1.1685 C   0  0  0  0  0  0  0  0  0  0  0  0
   -4.5775    4.1823    1.3516 C   0  0  0  0  0  0  0  0  0  0  0  0
   -3.8047   -0.7821    0.1394 C   0  0  0  0  0  0  0  0  0  0  0  0
   -2.6718   -1.6872    0.6207 C   0  0  0  0  0  0  0  0  0  0  0  0
    0.7158   -2.3172   -0.0003 N   0  0  0  0  0  0  0  0  0  0  0  0
    1.6640   -3.1266    0.5336 C   0  0  0  0  0  0  0  0  0  0  0  0
    3.3807   -1.1256   -2.1703 C   0  0  0  0  0  0  0  0  0  0  0  0
    4.1425    0.0285   -2.3676 C   0  0  0  0  0  0  0  0  0  0  0  0
    7.3583    1.0353   -2.5513 H   0  0  0  0  0  0  0  0  0  0  0  0
    6.3346    1.8534   -1.3444 H   0  0  0  0  0  0  0  0  0  0  0  0
    5.9142    1.9014   -3.0742 H   0  0  0  0  0  0  0  0  0  0  0  0
    7.1693   -1.1517   -1.3560 H   0  0  0  0  0  0  0  0  0  0  0  0
    5.8336   -3.1830   -1.0060 H   0  0  0  0  0  0  0  0  0  0  0  0
    3.7217   -4.4397   -1.7477 H   0  0  0  0  0  0  0  0  0  0  0  0
    2.2478   -3.5360   -2.0840 H   0  0  0  0  0  0  0  0  0  0  0  0
   -0.8931   -2.0227    2.8476 H   0  0  0  0  0  0  0  0  0  0  0  0
   -1.1726   -0.8396   -0.6422 H   0  0  0  0  0  0  0  0  0  0  0  0
   -0.7876    1.0641    0.4525 H   0  0  0  0  0  0  0  0  0  0  0  0
   -0.5671    0.3194    2.0178 H   0  0  0  0  0  0  0  0  0  0  0  0
   -2.9514    0.3258    2.4794 H   0  0  0  0  0  0  0  0  0  0  0  0
   -2.5111    1.9130    1.8388 H   0  0  0  0  0  0  0  0  0  0  0  0
   -3.6341    2.8432   -1.6535 H   0  0  0  0  0  0  0  0  0  0  0  0
   -2.7838    5.1715   -1.9559 H   0  0  0  0  0  0  0  0  0  0  0  0
   -4.2249    6.2331    1.9407 H   0  0  0  0  0  0  0  0  0  0  0  0
   -5.0862    3.9196    2.2765 H   0  0  0  0  0  0  0  0  0  0  0  0
   -3.8891   -0.8589   -0.9509 H   0  0  0  0  0  0  0  0  0  0  0  0
   -4.7460   -1.1316    0.5782 H   0  0  0  0  0  0  0  0  0  0  0  0
   -2.8354   -1.9320    1.6781 H   0  0  0  0  0  0  0  0  0  0  0  0
   -2.7108   -2.6435    0.0849 H   0  0  0  0  0  0  0  0  0  0  0  0
    2.3135   -1.0972   -2.3823 H   0  0  0  0  0  0  0  0  0  0  0  0
    3.6559    0.9305   -2.7320 H   0  0  0  0  0  0  0  0  0  0  0  0
  1  2  1  0
  2  3  2  0
  3  4  1  0
  4  5  2  0
  5  6  1  0
  6  7  1  0
  7  8  1  0
  8  9  2  0
  9 10  1  0
 10 11  1  0
 11 12  2  0
 11 13  1  0
 13 14  1  0
 14 15  1  0
 15 16  1  0
 16 17  1  0
 17 18  1  0
 18 19  1  0
 19 20  2  0
 19 21  2  0
 19 22  1  0
 22 23  2  0
 23 24  1  0
 24 25  2  0
 25 26  1  0
 25 27  1  0
 27 28  2  0
 18 29  1  0
 29 30  1  0
 14 31  2  0
 31 32  1  0
  5 33  1  0
 33 34  2  0
 34  2  1  0
 32  7  1  0
 32 10  2  0
 30 15  1  0
 28 22  1  0
  1 35  1  0
  1 36  1  0
  1 37  1  0
  3 38  1  0
  4 39  1  0
  6 40  1  0
  6 41  1  0
 13 42  1  0
 15 43  1  0
 16 44  1  0
 16 45  1  0
 17 46  1  0
 17 47  1  0
 23 48  1  0
 24 49  1  0
 27 50  1  0
 28 51  1  0
 29 52  1  0
 29 53  1  0
 30 54  1  0
 30 55  1  0
 33 56  1  0
 34 57  1  0
M  END
$$$$
