
     RDKit          3D

 63 67  0  0  0  0  0  0  0  0999 V2000
    9.6265   -0.5209   -1.8658 C   0  0  0  0  0  0  0  0  0  0  0  0
    9.0266   -0.0477   -0.6687 O   0  0  0  0  0  0  0  0  0  0  0  0
    7.6557   -0.0515   -0.5959 C   0  0  0  0  0  0  0  0  0  0  0  0
    6.8125   -0.5186   -1.6070 C   0  0  0  0  0  0  0  0  0  0  0  0
    5.4241   -0.4828   -1.4432 C   0  0  0  0  0  0  0  0  0  0  0  0
    4.8476    0.0211   -0.2700 C   0  0  0  0  0  0  0  0  0  0  0  0
    3.3867    0.0614   -0.1038 C   0  0  0  0  0  0  0  0  0  0  0  0
    2.6158   -1.1105   -0.1995 C   0  0  0  0  0  0  0  0  0  0  0  0
    1.2260   -1.0788   -0.0366 C   0  0  0  0  0  0  0  0  0  0  0  0
    0.5777    0.1328    0.2169 C   0  0  0  0  0  0  0  0  0  0  0  0
    1.3352    1.2894    0.3282 C   0  0  0  0  0  0  0  0  0  0  0  0
    2.7250    1.2698    0.1633 C   0  0  0  0  0  0  0  0  0  0  0  0
    0.5283    2.7992    0.6966 S   0  0  0  0  0  6  0  0  0  0  0  0
    0.5535    2.9553    2.1357 O   0  0  0  0  0  0  0  0  0  0  0  0
    1.0898    3.7979   -0.1923 O   0  0  0  0  0  0  0  0  0  0  0  0
   -1.1560    2.6176    0.2356 C   0  0  0  0  0  0  0  0  0  0  0  0
   -1.9230    3.7686    0.0119 C   0  0  0  0  0  0  0  0  0  0  0  0
   -3.2499    3.6442   -0.3936 C   0  0  0  0  0  0  0  0  0  0  0  0
   -3.7938    2.3764   -0.5960 C   0  0  0  0  0  0  0  0  0  0  0  0
   -3.0122    1.2315   -0.3699 C   0  0  0  0  0  0  0  0  0  0  0  0
   -3.5910   -0.0693   -0.7510 C   0  0  0  0  0  0  0  0  0  0  0  0
   -3.1438   -0.6482   -1.7320 O   0  0  0  0  0  0  0  0  0  0  0  0
   -4.6421   -0.4888    0.0287 N   0  0  0  0  0  0  0  0  0  0  0  0
   -5.3693   -1.7198   -0.2546 C   0  0  0  0  0  0  0  0  0  0  0  0
   -6.5462   -1.4442   -1.2107 C   0  0  0  0  0  0  0  0  0  0  0  0
   -7.8468   -1.1961   -0.4504 C   0  0  0  0  0  0  0  0  0  0  0  0
   -8.2467   -2.4051    0.4004 C   0  0  0  0  0  0  0  0  0  0  0  0
   -7.0563   -3.2383    0.8750 C   0  0  0  0  0  0  0  0  0  0  0  0
   -5.8117   -2.3807    1.0641 C   0  0  0  0  0  0  0  0  0  0  0  0
   -1.6848    1.3406    0.0642 C   0  0  0  0  0  0  0  0  0  0  0  0
   -0.8887    0.1371    0.3928 C   0  0  0  0  0  0  0  0  0  0  0  0
   -1.4353   -0.8550    0.8578 O   0  0  0  0  0  0  0  0  0  0  0  0
    5.7025    0.4883    0.7436 C   0  0  0  0  0  0  0  0  0  0  0  0
    7.0959    0.4552    0.5930 C   0  0  0  0  0  0  0  0  0  0  0  0
    7.9890    0.8903    1.5414 O   0  0  0  0  0  0  0  0  0  0  0  0
    7.4648    1.4134    2.7538 C   0  0  0  0  0  0  0  0  0  0  0  0
    9.3291    0.0883   -2.7252 H   0  0  0  0  0  0  0  0  0  0  0  0
   10.7118   -0.4303   -1.7557 H   0  0  0  0  0  0  0  0  0  0  0  0
    9.3974   -1.5788   -2.0307 H   0  0  0  0  0  0  0  0  0  0  0  0
    7.2014   -0.9158   -2.5383 H   0  0  0  0  0  0  0  0  0  0  0  0
    4.7919   -0.8448   -2.2521 H   0  0  0  0  0  0  0  0  0  0  0  0
    3.0990   -2.0685   -0.3885 H   0  0  0  0  0  0  0  0  0  0  0  0
    0.6539   -2.0034   -0.1085 H   0  0  0  0  0  0  0  0  0  0  0  0
    3.2926    2.1970    0.2415 H   0  0  0  0  0  0  0  0  0  0  0  0
   -1.4878    4.7582    0.1470 H   0  0  0  0  0  0  0  0  0  0  0  0
   -3.8500    4.5322   -0.5794 H   0  0  0  0  0  0  0  0  0  0  0  0
   -4.8134    2.2797   -0.9649 H   0  0  0  0  0  0  0  0  0  0  0  0
   -4.9422    0.0847    0.8060 H   0  0  0  0  0  0  0  0  0  0  0  0
   -4.6782   -2.3996   -0.7722 H   0  0  0  0  0  0  0  0  0  0  0  0
   -6.6868   -2.3163   -1.8636 H   0  0  0  0  0  0  0  0  0  0  0  0
   -6.3305   -0.5940   -1.8693 H   0  0  0  0  0  0  0  0  0  0  0  0
   -8.6561   -0.9560   -1.1510 H   0  0  0  0  0  0  0  0  0  0  0  0
   -7.7252   -0.3191    0.1991 H   0  0  0  0  0  0  0  0  0  0  0  0
   -8.8207   -2.0495    1.2634 H   0  0  0  0  0  0  0  0  0  0  0  0
   -8.9215   -3.0531   -0.1692 H   0  0  0  0  0  0  0  0  0  0  0  0
   -7.3128   -3.7474    1.8093 H   0  0  0  0  0  0  0  0  0  0  0  0
   -6.8446   -4.0235    0.1402 H   0  0  0  0  0  0  0  0  0  0  0  0
   -6.0234   -1.6206    1.8305 H   0  0  0  0  0  0  0  0  0  0  0  0
   -4.9875   -2.9895    1.4597 H   0  0  0  0  0  0  0  0  0  0  0  0
    5.2539    0.8669    1.6570 H   0  0  0  0  0  0  0  0  0  0  0  0
    8.3095    1.7052    3.3856 H   0  0  0  0  0  0  0  0  0  0  0  0
    6.8916    0.6545    3.2973 H   0  0  0  0  0  0  0  0  0  0  0  0
    6.8630    2.3099    2.5696 H   0  0  0  0  0  0  0  0  0  0  0  0
  1  2  1  0
  2  3  1  0
  3  4  2  0
  4  5  1  0
  5  6  2  0
  6  7  1  0
  7  8  2  0
  8  9  1  0
  9 10  2  0
 10 11  1  0
 11 12  2  0
 11 13  1  0
 13 14  2  0
 13 15  2  0
 13 16  1  0
 16 17  2  0
 17 18  1  0
 18 19  2  0
 19 20  1  0
 20 21  1  0
 21 22  2  0
 21 23  1  0
 23 24  1  0
 24 25  1  0
 25 26  1  0
 26 27  1  0
 27 28  1  0
 28 29  1  0
 20 30  2  0
 30 31  1  0
 31 32  2  0
  6 33  1  0
 33 34  2  0
 34 35  1  0
 35 36  1  0
 34  3  1  0
 12  7  1  0
 30 16  1  0
 31 10  1  0
 29 24  1  0
  1 37  1  0
  1 38  1  0
  1 39  1  0
  4 40  1  0
  5 41  1  0
  8 42  1  0
  9 43  1  0
 12 44  1  0
 17 45  1  0
 18 46  1  0
 19 47  1  0
 23 48  1  0
 24 49  1  0
 25 50  1  0
 25 51  1  0
 26 52  1  0
 26 53  1  0
 27 54  1  0
 27 55  1  0
 28 56  1  0
 28 57  1  0
 29 58  1  0
 29 59  1  0
 33 60  1  0
 36 61  1  0
 36 62  1  0
 36 63  1  0
M  END
$$$$
