
     RDKit          3D

 47 49  0  0  0  0  0  0  0  0999 V2000
    2.7655    0.6450   -3.4816 C   0  0  0  0  0  0  0  0  0  0  0  0
    2.5463    0.5157   -2.0817 O   0  0  0  0  0  0  0  0  0  0  0  0
    3.5922    0.8590   -1.2531 C   0  0  0  0  0  0  0  0  0  0  0  0
    4.8487    1.2922   -1.6880 C   0  0  0  0  0  0  0  0  0  0  0  0
    5.8389    1.6149   -0.7576 C   0  0  0  0  0  0  0  0  0  0  0  0
    5.5801    1.5038    0.6061 C   0  0  0  0  0  0  0  0  0  0  0  0
    4.3294    1.0703    1.0503 C   0  0  0  0  0  0  0  0  0  0  0  0
    3.3286    0.7510    0.1307 C   0  0  0  0  0  0  0  0  0  0  0  0
    2.0428    0.2962    0.5004 N   0  0  0  0  0  0  0  0  0  0  0  0
    1.4742    0.2588    1.7511 C   0  0  0  0  0  0  0  0  0  0  0  0
    1.9910    0.7153    2.7674 O   0  0  0  0  0  0  0  0  0  0  0  0
    0.2116   -0.3442    1.7877 N   0  0  0  0  0  0  0  0  0  0  0  0
   -0.5140   -0.3279    3.0549 C   0  0  0  0  0  0  0  0  0  0  0  0
   -2.0160   -0.2426    2.8277 C   0  0  0  0  0  0  0  0  0  0  0  0
   -2.5314   -1.4339    2.0188 C   0  0  0  0  0  0  0  0  0  0  0  0
   -3.8528   -1.0960    1.3308 C   0  0  0  0  0  0  0  0  0  0  0  0
   -4.9239   -1.1647    1.9323 O   0  0  0  0  0  0  0  0  0  0  0  0
   -3.8914   -0.6789   -0.0888 C   0  0  0  0  0  0  0  0  0  0  0  0
   -4.6902   -1.4204   -0.9698 C   0  0  0  0  0  0  0  0  0  0  0  0
   -4.7628   -1.0549   -2.3145 C   0  0  0  0  0  0  0  0  0  0  0  0
   -4.0526    0.0544   -2.7617 C   0  0  0  0  0  0  0  0  0  0  0  0
   -4.1210    0.4045   -4.0524 F   0  0  0  0  0  0  0  0  0  0  0  0
   -3.2775    0.8113   -1.8878 C   0  0  0  0  0  0  0  0  0  0  0  0
   -3.2009    0.4498   -0.5407 C   0  0  0  0  0  0  0  0  0  0  0  0
   -1.4632   -2.0883    1.1304 C   0  0  0  0  0  0  0  0  0  0  0  0
   -0.3404   -1.1489    0.6996 C   0  0  0  0  0  0  0  0  0  0  0  0
    3.5589   -0.0295   -3.8202 H   0  0  0  0  0  0  0  0  0  0  0  0
    1.8418    0.3544   -3.9916 H   0  0  0  0  0  0  0  0  0  0  0  0
    2.9821    1.6835   -3.7538 H   0  0  0  0  0  0  0  0  0  0  0  0
    5.0924    1.3893   -2.7401 H   0  0  0  0  0  0  0  0  0  0  0  0
    6.8153    1.9521   -1.0971 H   0  0  0  0  0  0  0  0  0  0  0  0
    6.3518    1.7517    1.3308 H   0  0  0  0  0  0  0  0  0  0  0  0
    4.1669    0.9849    2.1201 H   0  0  0  0  0  0  0  0  0  0  0  0
    1.4412    0.1355   -0.2938 H   0  0  0  0  0  0  0  0  0  0  0  0
   -0.1933    0.5227    3.6666 H   0  0  0  0  0  0  0  0  0  0  0  0
   -0.2505   -1.2414    3.6017 H   0  0  0  0  0  0  0  0  0  0  0  0
   -2.2516    0.7035    2.3279 H   0  0  0  0  0  0  0  0  0  0  0  0
   -2.5329   -0.2086    3.7944 H   0  0  0  0  0  0  0  0  0  0  0  0
   -2.8110   -2.2203    2.7371 H   0  0  0  0  0  0  0  0  0  0  0  0
   -5.2578   -2.2757   -0.6084 H   0  0  0  0  0  0  0  0  0  0  0  0
   -5.3734   -1.6205   -3.0118 H   0  0  0  0  0  0  0  0  0  0  0  0
   -2.7491    1.6843   -2.2597 H   0  0  0  0  0  0  0  0  0  0  0  0
   -2.6169    1.0655    0.1375 H   0  0  0  0  0  0  0  0  0  0  0  0
   -1.9031   -2.5745    0.2525 H   0  0  0  0  0  0  0  0  0  0  0  0
   -1.0001   -2.8977    1.7131 H   0  0  0  0  0  0  0  0  0  0  0  0
    0.4656   -1.7433    0.2533 H   0  0  0  0  0  0  0  0  0  0  0  0
   -0.6875   -0.4542   -0.0692 H   0  0  0  0  0  0  0  0  0  0  0  0
  1  2  1  0
  2  3  1  0
  3  4  2  0
  4  5  1  0
  5  6  2  0
  6  7  1  0
  7  8  2  0
  8  9  1  0
  9 10  1  0
 10 11  2  0
 10 12  1  0
 12 13  1  0
 13 14  1  0
 14 15  1  0
 15 16  1  0
 16 17  2  0
 16 18  1  0
 18 19  2  0
 19 20  1  0
 20 21  2  0
 21 22  1  0
 21 23  1  0
 23 24  2  0
 15 25  1  0
 25 26  1  0
  8  3  1  0
 26 12  1  0
 24 18  1  0
  1 27  1  0
  1 28  1  0
  1 29  1  0
  4 30  1  0
  5 31  1  0
  6 32  1  0
  7 33  1  0
  9 34  1  0
 13 35  1  0
 13 36  1  0
 14 37  1  0
 14 38  1  0
 15 39  1  0
 19 40  1  0
 20 41  1  0
 23 42  1  0
 24 43  1  0
 25 44  1  0
 25 45  1  0
 26 46  1  0
 26 47  1  0
M  END
$$$$
