
     RDKit          3D

 52 56  0  0  0  0  0  0  0  0999 V2000
    6.3843   -1.9278   -1.2528 C   0  0  0  0  0  0  0  0  0  0  0  0
    5.0144   -1.3928   -0.8763 C   0  0  0  0  0  0  0  0  0  0  0  0
    5.1480   -0.6567    0.3388 O   0  0  0  0  0  0  0  0  0  0  0  0
    4.0207   -0.0761    0.8463 C   0  0  0  0  0  0  0  0  0  0  0  0
    4.2148    0.6492    2.0195 C   0  0  0  0  0  0  0  0  0  0  0  0
    3.1416    1.2945    2.6420 C   0  0  0  0  0  0  0  0  0  0  0  0
    1.8600    1.2355    2.1182 C   0  0  0  0  0  0  0  0  0  0  0  0
    0.8591    1.8669    2.7487 N   0  0  0  0  0  0  0  0  0  0  0  0
   -0.3765    1.7996    2.2076 C   0  0  0  0  0  0  0  0  0  0  0  0
   -1.5481    2.6325    3.1549 Cl  0  0  0  0  0  0  0  0  0  0  0  0
   -0.6965    1.1200    1.0381 C   0  0  0  0  0  0  0  0  0  0  0  0
   -2.1092    1.0752    0.4931 C   0  0  0  0  0  0  0  0  0  0  0  0
   -2.8397   -0.1853    0.9484 C   0  0  0  0  0  0  0  0  0  0  0  0
   -2.8988   -0.9468   -0.3490 C   0  0  0  0  0  0  0  0  0  0  0  0
   -3.3583   -2.3540   -0.4094 C   0  0  0  0  0  0  0  0  0  0  0  0
   -3.8110   -3.0266    0.7313 C   0  0  0  0  0  0  0  0  0  0  0  0
   -4.2339   -4.3553    0.6372 C   0  0  0  0  0  0  0  0  0  0  0  0
   -4.2083   -5.0140   -0.5915 C   0  0  0  0  0  0  0  0  0  0  0  0
   -3.7617   -4.3472   -1.7307 C   0  0  0  0  0  0  0  0  0  0  0  0
   -3.3379   -3.0201   -1.6413 C   0  0  0  0  0  0  0  0  0  0  0  0
   -2.5448   -0.2705   -1.3999 N   0  0  0  0  0  0  0  0  0  0  0  0
   -2.1643    0.9846   -0.9733 N   0  0  0  0  0  0  0  0  0  0  0  0
   -1.7886    1.9540   -1.9122 C   0  0  0  0  0  0  0  0  0  0  0  0
   -1.7290    1.7205   -3.1197 O   0  0  0  0  0  0  0  0  0  0  0  0
   -1.4021    3.2498   -1.3819 C   0  0  0  0  0  0  0  0  0  0  0  0
   -0.1342    3.7937   -1.3224 C   0  0  0  0  0  0  0  0  0  0  0  0
   -0.1348    5.0940   -0.7395 C   0  0  0  0  0  0  0  0  0  0  0  0
   -1.4064    5.5124   -0.4148 C   0  0  0  0  0  0  0  0  0  0  0  0
   -2.5906    4.3473   -0.8250 S   0  0  0  0  0  0  0  0  0  0  0  0
    0.3614    0.4470    0.4090 C   0  0  0  0  0  0  0  0  0  0  0  0
    1.6603    0.5019    0.9332 C   0  0  0  0  0  0  0  0  0  0  0  0
    2.7395   -0.1500    0.3039 C   0  0  0  0  0  0  0  0  0  0  0  0
    6.7785   -2.5708   -0.4588 H   0  0  0  0  0  0  0  0  0  0  0  0
    7.0970   -1.1064   -1.3811 H   0  0  0  0  0  0  0  0  0  0  0  0
    6.3366   -2.5026   -2.1819 H   0  0  0  0  0  0  0  0  0  0  0  0
    4.6521   -0.7398   -1.6788 H   0  0  0  0  0  0  0  0  0  0  0  0
    4.3272   -2.2352   -0.7363 H   0  0  0  0  0  0  0  0  0  0  0  0
    5.2085    0.7161    2.4566 H   0  0  0  0  0  0  0  0  0  0  0  0
    3.3143    1.8559    3.5572 H   0  0  0  0  0  0  0  0  0  0  0  0
   -2.6734    1.9613    0.7915 H   0  0  0  0  0  0  0  0  0  0  0  0
   -2.3245   -0.7424    1.7352 H   0  0  0  0  0  0  0  0  0  0  0  0
   -3.8633    0.0459    1.2626 H   0  0  0  0  0  0  0  0  0  0  0  0
   -3.8502   -2.5419    1.7019 H   0  0  0  0  0  0  0  0  0  0  0  0
   -4.5867   -4.8780    1.5233 H   0  0  0  0  0  0  0  0  0  0  0  0
   -4.5396   -6.0474   -0.6624 H   0  0  0  0  0  0  0  0  0  0  0  0
   -3.7445   -4.8577   -2.6906 H   0  0  0  0  0  0  0  0  0  0  0  0
   -2.9948   -2.5103   -2.5402 H   0  0  0  0  0  0  0  0  0  0  0  0
    0.7525    3.2750   -1.6683 H   0  0  0  0  0  0  0  0  0  0  0  0
    0.7510    5.6963   -0.5770 H   0  0  0  0  0  0  0  0  0  0  0  0
   -1.7004    6.4540    0.0291 H   0  0  0  0  0  0  0  0  0  0  0  0
    0.1793   -0.1211   -0.5035 H   0  0  0  0  0  0  0  0  0  0  0  0
    2.5510   -0.7065   -0.6091 H   0  0  0  0  0  0  0  0  0  0  0  0
  1  2  1  0
  2  3  1  0
  3  4  1  0
  4  5  2  0
  5  6  1  0
  6  7  2  0
  7  8  1  0
  8  9  2  0
  9 10  1  0
  9 11  1  0
 11 12  1  0
 12 13  1  0
 13 14  1  0
 14 15  1  0
 15 16  2  0
 16 17  1  0
 17 18  2  0
 18 19  1  0
 19 20  2  0
 14 21  2  0
 21 22  1  0
 22 23  1  0
 23 24  2  0
 23 25  1  0
 25 26  2  0
 26 27  1  0
 27 28  2  0
 28 29  1  0
 11 30  2  0
 30 31  1  0
 31 32  2  0
 32  4  1  0
 31  7  1  0
 22 12  1  0
 29 25  1  0
 20 15  1  0
  1 33  1  0
  1 34  1  0
  1 35  1  0
  2 36  1  0
  2 37  1  0
  5 38  1  0
  6 39  1  0
 12 40  1  0
 13 41  1  0
 13 42  1  0
 16 43  1  0
 17 44  1  0
 18 45  1  0
 19 46  1  0
 20 47  1  0
 26 48  1  0
 27 49  1  0
 28 50  1  0
 30 51  1  0
 32 52  1  0
M  END
$$$$
