
     RDKit          3D

 46 48  0  0  0  0  0  0  0  0999 V2000
   -0.9839   -1.2732    0.5054 O   0  0  0  0  0  0  0  0  0  0  0  0
   -0.6551   -0.1874    0.0432 C   0  0  0  0  0  0  0  0  0  0  0  0
    0.7993    0.2359   -0.0761 C   0  0  0  0  0  0  0  0  0  0  0  0
    1.7481   -0.8983    0.3188 C   0  0  0  0  0  0  0  0  0  0  0  0
    3.1633   -0.5031    0.1579 N   0  0  0  0  0  0  0  0  0  0  0  0
    3.6325    0.3535    1.2524 C   0  0  0  0  0  0  0  0  0  0  0  0
    4.5721    1.4343    0.7113 C   0  0  0  0  0  0  0  0  0  0  0  0
    5.9669    0.9609    0.3112 C   0  0  0  0  0  0  0  0  0  0  0  0
    6.0052   -0.2229   -0.6529 C   0  0  0  0  0  0  0  0  0  0  0  0
    5.5127   -1.5115   -0.0008 C   0  0  0  0  0  0  0  0  0  0  0  0
    3.9924   -1.7028   -0.0294 C   0  0  0  0  0  0  0  0  0  0  0  0
   -1.5071    0.8068   -0.4143 N   0  0  0  0  0  0  0  0  0  0  0  0
   -2.9171    0.7838   -0.4538 C   0  0  0  0  0  0  0  0  0  0  0  0
   -3.5560    1.9205   -0.9715 C   0  0  0  0  0  0  0  0  0  0  0  0
   -4.9499    1.9826   -1.0550 C   0  0  0  0  0  0  0  0  0  0  0  0
   -5.7164    0.9059   -0.6235 C   0  0  0  0  0  0  0  0  0  0  0  0
   -5.0907   -0.2194   -0.0811 C   0  0  0  0  0  0  0  0  0  0  0  0
   -3.6965   -0.2870   -0.0101 C   0  0  0  0  0  0  0  0  0  0  0  0
   -5.7849   -1.3039    0.3952 O   0  0  0  0  0  0  0  0  0  0  0  0
   -7.1678   -0.9931    0.5950 C   0  0  0  0  0  0  0  0  0  0  0  0
   -7.7257   -0.2435   -0.6032 C   0  0  0  0  0  0  0  0  0  0  0  0
   -7.0759    1.0242   -0.7542 O   0  0  0  0  0  0  0  0  0  0  0  0
    0.9897    0.5317   -1.1152 H   0  0  0  0  0  0  0  0  0  0  0  0
    0.9420    1.1149    0.5618 H   0  0  0  0  0  0  0  0  0  0  0  0
    1.5258   -1.7488   -0.3404 H   0  0  0  0  0  0  0  0  0  0  0  0
    1.5536   -1.2425    1.3432 H   0  0  0  0  0  0  0  0  0  0  0  0
    4.0980   -0.2207    2.0631 H   0  0  0  0  0  0  0  0  0  0  0  0
    2.7926    0.8830    1.7178 H   0  0  0  0  0  0  0  0  0  0  0  0
    4.1007    1.9323   -0.1465 H   0  0  0  0  0  0  0  0  0  0  0  0
    4.6871    2.2091    1.4801 H   0  0  0  0  0  0  0  0  0  0  0  0
    6.5323    0.7090    1.2174 H   0  0  0  0  0  0  0  0  0  0  0  0
    6.4950    1.8045   -0.1505 H   0  0  0  0  0  0  0  0  0  0  0  0
    5.4449   -0.0018   -1.5686 H   0  0  0  0  0  0  0  0  0  0  0  0
    7.0504   -0.3710   -0.9523 H   0  0  0  0  0  0  0  0  0  0  0  0
    5.8753   -1.5688    1.0332 H   0  0  0  0  0  0  0  0  0  0  0  0
    5.9638   -2.3637   -0.5250 H   0  0  0  0  0  0  0  0  0  0  0  0
    3.7354   -2.1334   -1.0062 H   0  0  0  0  0  0  0  0  0  0  0  0
    3.7410   -2.4641    0.7216 H   0  0  0  0  0  0  0  0  0  0  0  0
   -1.0680    1.6473   -0.7696 H   0  0  0  0  0  0  0  0  0  0  0  0
   -2.9801    2.7730   -1.3221 H   0  0  0  0  0  0  0  0  0  0  0  0
   -5.4343    2.8640   -1.4657 H   0  0  0  0  0  0  0  0  0  0  0  0
   -3.2527   -1.1852    0.4060 H   0  0  0  0  0  0  0  0  0  0  0  0
   -7.2643   -0.4063    1.5169 H   0  0  0  0  0  0  0  0  0  0  0  0
   -7.7035   -1.9373    0.7338 H   0  0  0  0  0  0  0  0  0  0  0  0
   -8.7949   -0.0536   -0.4667 H   0  0  0  0  0  0  0  0  0  0  0  0
   -7.5954   -0.8146   -1.5308 H   0  0  0  0  0  0  0  0  0  0  0  0
  1  2  2  0
  2  3  1  0
  3  4  1  0
  4  5  1  0
  5  6  1  0
  6  7  1  0
  7  8  1  0
  8  9  1  0
  9 10  1  0
 10 11  1  0
  2 12  1  0
 12 13  1  0
 13 14  2  0
 14 15  1  0
 15 16  2  0
 16 17  1  0
 17 18  2  0
 17 19  1  0
 19 20  1  0
 20 21  1  0
 21 22  1  0
 11  5  1  0
 18 13  1  0
 22 16  1  0
  3 23  1  0
  3 24  1  0
  4 25  1  0
  4 26  1  0
  6 27  1  0
  6 28  1  0
  7 29  1  0
  7 30  1  0
  8 31  1  0
  8 32  1  0
  9 33  1  0
  9 34  1  0
 10 35  1  0
 10 36  1  0
 11 37  1  0
 11 38  1  0
 12 39  1  0
 14 40  1  0
 15 41  1  0
 18 42  1  0
 20 43  1  0
 20 44  1  0
 21 45  1  0
 21 46  1  0
M  END
$$$$
