
     RDKit          3D

 49 51  0  0  0  0  0  0  0  0999 V2000
    4.0958    1.6653   -3.3849 C   0  0  0  0  0  0  0  0  0  0  0  0
    4.3538    1.8762   -2.0049 O   0  0  0  0  0  0  0  0  0  0  0  0
    3.5362    1.2463   -1.0987 C   0  0  0  0  0  0  0  0  0  0  0  0
    2.4664    0.4133   -1.4439 C   0  0  0  0  0  0  0  0  0  0  0  0
    1.6825   -0.1986   -0.4533 C   0  0  0  0  0  0  0  0  0  0  0  0
    1.9532    0.0476    0.9014 C   0  0  0  0  0  0  0  0  0  0  0  0
    3.0329    0.8784    1.2458 C   0  0  0  0  0  0  0  0  0  0  0  0
    3.8240    1.4792    0.2596 C   0  0  0  0  0  0  0  0  0  0  0  0
    4.8914    2.3041    0.5170 O   0  0  0  0  0  0  0  0  0  0  0  0
    5.2165    2.5608    1.8752 C   0  0  0  0  0  0  0  0  0  0  0  0
    1.1404   -0.5948    2.0052 C   0  0  0  0  0  0  0  0  0  0  0  0
   -0.1053   -1.2157    1.5412 N   0  0  0  0  0  0  0  0  0  0  0  0
   -1.0878   -1.5967    2.4465 C   0  0  0  0  0  0  0  0  0  0  0  0
   -0.8477   -1.8314    4.0940 S   0  0  0  0  0  0  0  0  0  0  0  0
   -2.3341   -1.8902    1.9676 N   0  0  0  0  0  0  0  0  0  0  0  0
   -3.0571   -1.3481    0.8826 C   0  0  0  0  0  0  0  0  0  0  0  0
   -4.0177   -2.2017    0.3194 C   0  0  0  0  0  0  0  0  0  0  0  0
   -4.7646   -1.8142   -0.7945 C   0  0  0  0  0  0  0  0  0  0  0  0
   -4.5733   -0.5557   -1.3622 C   0  0  0  0  0  0  0  0  0  0  0  0
   -5.3850   -0.1218   -2.5463 C   0  0  0  0  0  0  0  0  0  0  0  0
   -3.6687    0.3254   -0.7584 C   0  0  0  0  0  0  0  0  0  0  0  0
   -2.9246   -0.0414    0.3825 C   0  0  0  0  0  0  0  0  0  0  0  0
   -2.0953    1.0362    1.0260 C   0  0  0  0  0  0  0  0  0  0  0  0
    0.0481   -1.9641    0.2879 C   0  0  0  0  0  0  0  0  0  0  0  0
    0.5163   -1.0669   -0.8542 C   0  0  0  0  0  0  0  0  0  0  0  0
    3.1049    2.0385   -3.6637 H   0  0  0  0  0  0  0  0  0  0  0  0
    4.2119    0.6099   -3.6525 H   0  0  0  0  0  0  0  0  0  0  0  0
    4.8365    2.2351   -3.9545 H   0  0  0  0  0  0  0  0  0  0  0  0
    2.2180    0.2219   -2.4828 H   0  0  0  0  0  0  0  0  0  0  0  0
    3.2341    1.0430    2.2999 H   0  0  0  0  0  0  0  0  0  0  0  0
    5.4953    1.6388    2.3960 H   0  0  0  0  0  0  0  0  0  0  0  0
    4.3961    3.0739    2.3878 H   0  0  0  0  0  0  0  0  0  0  0  0
    6.0854    3.2261    1.8913 H   0  0  0  0  0  0  0  0  0  0  0  0
    0.8878    0.1667    2.7524 H   0  0  0  0  0  0  0  0  0  0  0  0
    1.7514   -1.3718    2.4811 H   0  0  0  0  0  0  0  0  0  0  0  0
   -2.8628   -2.5109    2.5706 H   0  0  0  0  0  0  0  0  0  0  0  0
   -4.1668   -3.2020    0.7198 H   0  0  0  0  0  0  0  0  0  0  0  0
   -5.4875   -2.5069   -1.2191 H   0  0  0  0  0  0  0  0  0  0  0  0
   -5.6133   -0.9741   -3.1952 H   0  0  0  0  0  0  0  0  0  0  0  0
   -4.8360    0.6081   -3.1506 H   0  0  0  0  0  0  0  0  0  0  0  0
   -6.3239    0.3305   -2.2117 H   0  0  0  0  0  0  0  0  0  0  0  0
   -3.5599    1.3312   -1.1631 H   0  0  0  0  0  0  0  0  0  0  0  0
   -1.1078    1.0976    0.5647 H   0  0  0  0  0  0  0  0  0  0  0  0
   -1.9985    0.8883    2.1044 H   0  0  0  0  0  0  0  0  0  0  0  0
   -2.5802    2.0124    0.9055 H   0  0  0  0  0  0  0  0  0  0  0  0
    0.7931   -2.7482    0.4815 H   0  0  0  0  0  0  0  0  0  0  0  0
   -0.8649   -2.4913    0.0020 H   0  0  0  0  0  0  0  0  0  0  0  0
    0.7928   -1.6965   -1.7080 H   0  0  0  0  0  0  0  0  0  0  0  0
   -0.3017   -0.4120   -1.1745 H   0  0  0  0  0  0  0  0  0  0  0  0
  1  2  1  0
  2  3  1  0
  3  4  2  0
  4  5  1  0
  5  6  2  0
  6  7  1  0
  7  8  2  0
  8  9  1  0
  9 10  1  0
  6 11  1  0
 11 12  1  0
 12 13  1  0
 13 14  2  0
 13 15  1  0
 15 16  1  0
 16 17  2  0
 17 18  1  0
 18 19  2  0
 19 20  1  0
 19 21  1  0
 21 22  2  0
 22 23  1  0
 12 24  1  0
 24 25  1  0
  8  3  1  0
 22 16  1  0
 25  5  1  0
  1 26  1  0
  1 27  1  0
  1 28  1  0
  4 29  1  0
  7 30  1  0
 10 31  1  0
 10 32  1  0
 10 33  1  0
 11 34  1  0
 11 35  1  0
 15 36  1  0
 17 37  1  0
 18 38  1  0
 20 39  1  0
 20 40  1  0
 20 41  1  0
 21 42  1  0
 23 43  1  0
 23 44  1  0
 23 45  1  0
 24 46  1  0
 24 47  1  0
 25 48  1  0
 25 49  1  0
M  END
$$$$
