
     RDKit          3D

 42 44  0  0  0  0  0  0  0  0999 V2000
   -2.6928   -2.1053   -0.6489 C   0  0  0  0  0  0  0  0  0  0  0  0
   -2.8761   -1.3198    0.6394 C   0  0  0  0  0  0  0  0  0  0  0  0
   -2.3304    0.0206    0.5724 N   0  0  0  0  0  0  0  0  0  0  0  0
   -1.0337    0.4025    0.7913 C   0  0  0  0  0  0  0  0  0  0  0  0
    0.2695   -0.6950    1.0742 S   0  0  0  0  0  0  0  0  0  0  0  0
    1.5251    0.4549    1.7053 C   0  0  0  0  0  0  0  0  0  0  0  0
    2.8117   -0.2996    1.9617 C   0  0  0  0  0  0  0  0  0  0  0  0
    3.0185   -0.8558    3.0418 O   0  0  0  0  0  0  0  0  0  0  0  0
    3.8552   -0.3752    0.8914 C   0  0  0  0  0  0  0  0  0  0  0  0
    3.6202    0.0247   -0.4290 C   0  0  0  0  0  0  0  0  0  0  0  0
    4.6376   -0.0691   -1.3854 C   0  0  0  0  0  0  0  0  0  0  0  0
    5.9026   -0.5556   -1.0370 C   0  0  0  0  0  0  0  0  0  0  0  0
    6.9797   -0.6855   -2.0734 C   0  0  0  0  0  0  0  0  0  0  0  0
    6.1300   -0.9753    0.2772 C   0  0  0  0  0  0  0  0  0  0  0  0
    5.1159   -0.8827    1.2342 C   0  0  0  0  0  0  0  0  0  0  0  0
   -0.9390    1.7088    0.7486 N   0  0  0  0  0  0  0  0  0  0  0  0
   -2.1953    2.2082    0.5170 N   0  0  0  0  0  0  0  0  0  0  0  0
   -3.0348    1.1958    0.3956 C   0  0  0  0  0  0  0  0  0  0  0  0
   -4.4700    1.3215    0.1754 C   0  0  0  0  0  0  0  0  0  0  0  0
   -5.2538    1.9925    1.1149 C   0  0  0  0  0  0  0  0  0  0  0  0
   -6.6144    2.0957    0.8841 C   0  0  0  0  0  0  0  0  0  0  0  0
   -7.2292    1.5874   -0.2048 N   0  0  0  0  0  0  0  0  0  0  0  0
   -6.4469    0.9707   -1.1147 C   0  0  0  0  0  0  0  0  0  0  0  0
   -5.0781    0.8150   -0.9733 C   0  0  0  0  0  0  0  0  0  0  0  0
   -3.1648   -1.6008   -1.4968 H   0  0  0  0  0  0  0  0  0  0  0  0
   -3.1423   -3.0985   -0.5515 H   0  0  0  0  0  0  0  0  0  0  0  0
   -1.6344   -2.2375   -0.8932 H   0  0  0  0  0  0  0  0  0  0  0  0
   -2.4000   -1.8396    1.4779 H   0  0  0  0  0  0  0  0  0  0  0  0
   -3.9399   -1.2503    0.8884 H   0  0  0  0  0  0  0  0  0  0  0  0
    1.1903    0.8837    2.6567 H   0  0  0  0  0  0  0  0  0  0  0  0
    1.6956    1.2938    1.0251 H   0  0  0  0  0  0  0  0  0  0  0  0
    2.6549    0.4012   -0.7539 H   0  0  0  0  0  0  0  0  0  0  0  0
    4.4338    0.2399   -2.4090 H   0  0  0  0  0  0  0  0  0  0  0  0
    6.9181   -1.6657   -2.5560 H   0  0  0  0  0  0  0  0  0  0  0  0
    6.8819    0.0927   -2.8376 H   0  0  0  0  0  0  0  0  0  0  0  0
    7.9713   -0.5744   -1.6222 H   0  0  0  0  0  0  0  0  0  0  0  0
    7.0982   -1.3779    0.5679 H   0  0  0  0  0  0  0  0  0  0  0  0
    5.3174   -1.2121    2.2523 H   0  0  0  0  0  0  0  0  0  0  0  0
   -4.8145    2.4300    2.0059 H   0  0  0  0  0  0  0  0  0  0  0  0
   -7.2647    2.6071    1.5883 H   0  0  0  0  0  0  0  0  0  0  0  0
   -6.9661    0.5976   -1.9931 H   0  0  0  0  0  0  0  0  0  0  0  0
   -4.5064    0.3314   -1.7566 H   0  0  0  0  0  0  0  0  0  0  0  0
  1  2  1  0
  2  3  1  0
  3  4  1  0
  4  5  1  0
  5  6  1  0
  6  7  1  0
  7  8  2  0
  7  9  1  0
  9 10  2  0
 10 11  1  0
 11 12  2  0
 12 13  1  0
 12 14  1  0
 14 15  2  0
  4 16  2  0
 16 17  1  0
 17 18  2  0
 18 19  1  0
 19 20  2  0
 20 21  1  0
 21 22  2  0
 22 23  1  0
 23 24  2  0
 18  3  1  0
 24 19  1  0
 15  9  1  0
  1 25  1  0
  1 26  1  0
  1 27  1  0
  2 28  1  0
  2 29  1  0
  6 30  1  0
  6 31  1  0
 10 32  1  0
 11 33  1  0
 13 34  1  0
 13 35  1  0
 13 36  1  0
 14 37  1  0
 15 38  1  0
 20 39  1  0
 21 40  1  0
 23 41  1  0
 24 42  1  0
M  END
$$$$
