
     RDKit          3D

 60 61  0  0  0  0  0  0  0  0999 V2000
    0.7808   -4.8416   -2.5063 C   0  0  0  0  0  0  0  0  0  0  0  0
    0.3621   -3.9203   -1.5084 O   0  0  0  0  0  0  0  0  0  0  0  0
    1.1068   -2.7822   -1.3325 C   0  0  0  0  0  0  0  0  0  0  0  0
    2.2819   -2.4967   -2.0356 C   0  0  0  0  0  0  0  0  0  0  0  0
    2.9746   -1.3027   -1.8124 C   0  0  0  0  0  0  0  0  0  0  0  0
    2.4987   -0.3742   -0.8811 C   0  0  0  0  0  0  0  0  0  0  0  0
    3.2006    0.9181   -0.6483 C   0  0  0  0  0  0  0  0  0  0  0  0
    3.0798    1.4611    0.4454 O   0  0  0  0  0  0  0  0  0  0  0  0
    3.9436    1.5300   -1.7880 C   0  0  0  0  0  0  0  0  0  0  0  0
    4.8550    2.5121   -1.7066 C   0  0  0  0  0  0  0  0  0  0  0  0
    5.3372    3.1827   -0.4984 C   0  0  0  0  0  0  0  0  0  0  0  0
    4.5597    4.1544    0.1416 C   0  0  0  0  0  0  0  0  0  0  0  0
    5.0483    4.8135    1.2714 C   0  0  0  0  0  0  0  0  0  0  0  0
    6.3128    4.5023    1.7567 C   0  0  0  0  0  0  0  0  0  0  0  0
    6.7516    5.1710    2.8615 O   0  0  0  0  0  0  0  0  0  0  0  0
    7.1007    3.5412    1.1307 C   0  0  0  0  0  0  0  0  0  0  0  0
    6.6115    2.8830   -0.0010 C   0  0  0  0  0  0  0  0  0  0  0  0
    1.3427   -0.6794   -0.1412 C   0  0  0  0  0  0  0  0  0  0  0  0
    0.8713    0.1757    0.8259 O   0  0  0  0  0  0  0  0  0  0  0  0
    0.6271   -1.8713   -0.3664 C   0  0  0  0  0  0  0  0  0  0  0  0
   -0.6611   -2.1508    0.3875 C   0  0  0  0  0  0  0  0  0  0  0  0
   -1.8804   -1.7392   -0.4004 C   0  0  0  0  0  0  0  0  0  0  0  0
   -2.7909   -0.7878   -0.1063 C   0  0  0  0  0  0  0  0  0  0  0  0
   -2.7258    0.1054    1.1030 C   0  0  0  0  0  0  0  0  0  0  0  0
   -3.9411   -0.5184   -1.0629 C   0  0  0  0  0  0  0  0  0  0  0  0
   -5.2945   -1.0945   -0.6181 C   0  0  0  0  0  0  0  0  0  0  0  0
   -6.0233   -0.2284    0.3762 C   0  0  0  0  0  0  0  0  0  0  0  0
   -6.4374   -0.5515    1.6174 C   0  0  0  0  0  0  0  0  0  0  0  0
   -7.1822    0.4512    2.4604 C   0  0  0  0  0  0  0  0  0  0  0  0
   -6.2146   -1.8770    2.2921 C   0  0  0  0  0  0  0  0  0  0  0  0
    0.7839   -4.3774   -3.4981 H   0  0  0  0  0  0  0  0  0  0  0  0
    0.0578   -5.6629   -2.5272 H   0  0  0  0  0  0  0  0  0  0  0  0
    1.7598   -5.2674   -2.2638 H   0  0  0  0  0  0  0  0  0  0  0  0
    2.6887   -3.1864   -2.7687 H   0  0  0  0  0  0  0  0  0  0  0  0
    3.8933   -1.1300   -2.3659 H   0  0  0  0  0  0  0  0  0  0  0  0
    3.7012    1.1479   -2.7744 H   0  0  0  0  0  0  0  0  0  0  0  0
    5.3213    2.8704   -2.6223 H   0  0  0  0  0  0  0  0  0  0  0  0
    3.5651    4.3949   -0.2258 H   0  0  0  0  0  0  0  0  0  0  0  0
    4.4405    5.5608    1.7733 H   0  0  0  0  0  0  0  0  0  0  0  0
    7.6219    4.8191    3.1096 H   0  0  0  0  0  0  0  0  0  0  0  0
    8.0894    3.2936    1.5032 H   0  0  0  0  0  0  0  0  0  0  0  0
    7.2303    2.1344   -0.4894 H   0  0  0  0  0  0  0  0  0  0  0  0
    1.5611    0.8547    1.0037 H   0  0  0  0  0  0  0  0  0  0  0  0
   -0.7341   -3.2249    0.6023 H   0  0  0  0  0  0  0  0  0  0  0  0
   -0.6285   -1.6917    1.3799 H   0  0  0  0  0  0  0  0  0  0  0  0
   -2.0186   -2.3198   -1.3126 H   0  0  0  0  0  0  0  0  0  0  0  0
   -2.8913    1.1488    0.8149 H   0  0  0  0  0  0  0  0  0  0  0  0
   -3.4882   -0.1797    1.8322 H   0  0  0  0  0  0  0  0  0  0  0  0
   -1.7605    0.0745    1.6111 H   0  0  0  0  0  0  0  0  0  0  0  0
   -3.7039   -0.9577   -2.0415 H   0  0  0  0  0  0  0  0  0  0  0  0
   -4.0193    0.5609   -1.2473 H   0  0  0  0  0  0  0  0  0  0  0  0
   -5.1675   -2.1246   -0.2720 H   0  0  0  0  0  0  0  0  0  0  0  0
   -5.9398   -1.1579   -1.5053 H   0  0  0  0  0  0  0  0  0  0  0  0
   -6.2472    0.7725    0.0044 H   0  0  0  0  0  0  0  0  0  0  0  0
   -7.3230    1.4065    1.9439 H   0  0  0  0  0  0  0  0  0  0  0  0
   -8.1729    0.0650    2.7206 H   0  0  0  0  0  0  0  0  0  0  0  0
   -6.6319    0.6525    3.3852 H   0  0  0  0  0  0  0  0  0  0  0  0
   -5.5744   -2.5561    1.7254 H   0  0  0  0  0  0  0  0  0  0  0  0
   -7.1734   -2.3795    2.4552 H   0  0  0  0  0  0  0  0  0  0  0  0
   -5.7355   -1.7262    3.2654 H   0  0  0  0  0  0  0  0  0  0  0  0
  1  2  1  0
  2  3  1  0
  3  4  2  0
  4  5  1  0
  5  6  2  0
  6  7  1  0
  7  8  2  0
  7  9  1  0
  9 10  2  3
 10 11  1  0
 11 12  2  0
 12 13  1  0
 13 14  2  0
 14 15  1  0
 14 16  1  0
 16 17  2  0
  6 18  1  0
 18 19  1  0
 18 20  2  0
 20 21  1  0
 21 22  1  0
 22 23  2  3
 23 24  1  0
 23 25  1  0
 25 26  1  0
 26 27  1  0
 27 28  2  3
 28 29  1  0
 28 30  1  0
 20  3  1  0
 17 11  1  0
  1 31  1  0
  1 32  1  0
  1 33  1  0
  4 34  1  0
  5 35  1  0
  9 36  1  0
 10 37  1  0
 12 38  1  0
 13 39  1  0
 15 40  1  0
 16 41  1  0
 17 42  1  0
 19 43  1  0
 21 44  1  0
 21 45  1  0
 22 46  1  0
 24 47  1  0
 24 48  1  0
 24 49  1  0
 25 50  1  0
 25 51  1  0
 26 52  1  0
 26 53  1  0
 27 54  1  0
 29 55  1  0
 29 56  1  0
 29 57  1  0
 30 58  1  0
 30 59  1  0
 30 60  1  0
M  END
$$$$
