
     RDKit          3D

 44 47  0  0  0  0  0  0  0  0999 V2000
    6.6127    0.4684   -1.0866 C   0  0  0  0  0  0  0  0  0  0  0  0
    5.1956    0.3433   -1.0764 O   0  0  0  0  0  0  0  0  0  0  0  0
    4.6270   -0.1434    0.0666 C   0  0  0  0  0  0  0  0  0  0  0  0
    5.2988   -0.5268    1.2192 C   0  0  0  0  0  0  0  0  0  0  0  0
    4.5764   -1.0066    2.3181 C   0  0  0  0  0  0  0  0  0  0  0  0
    3.1933   -1.1184    2.3026 C   0  0  0  0  0  0  0  0  0  0  0  0
    2.5800   -1.5867    3.4019 N   0  0  0  0  0  0  0  0  0  0  0  0
    1.2368   -1.6966    3.3841 C   0  0  0  0  0  0  0  0  0  0  0  0
    0.4532   -1.3536    2.3022 C   0  0  0  0  0  0  0  0  0  0  0  0
    1.0842   -0.8622    1.1584 C   0  0  0  0  0  0  0  0  0  0  0  0
    0.2554   -0.5136   -0.0057 C   0  0  0  0  0  0  0  0  0  0  0  0
   -0.6454    0.4802    0.0311 C   0  0  0  0  0  0  0  0  0  0  0  0
   -1.4655    0.8379   -1.1375 C   0  0  0  0  0  0  0  0  0  0  0  0
   -0.8170    1.2926   -2.2875 C   0  0  0  0  0  0  0  0  0  0  0  0
   -1.5864    1.6491   -3.3747 C   0  0  0  0  0  0  0  0  0  0  0  0
   -2.9322    1.5873   -3.3918 N   0  0  0  0  0  0  0  0  0  0  0  0
   -3.5626    1.1552   -2.2877 C   0  0  0  0  0  0  0  0  0  0  0  0
   -4.9472    1.0943   -2.3072 C   0  0  0  0  0  0  0  0  0  0  0  0
   -5.6802    0.6544   -1.2025 C   0  0  0  0  0  0  0  0  0  0  0  0
   -5.0293    0.2593   -0.0398 C   0  0  0  0  0  0  0  0  0  0  0  0
   -5.8541   -0.1530    0.9680 O   0  0  0  0  0  0  0  0  0  0  0  0
   -5.2385   -0.5624    2.1825 C   0  0  0  0  0  0  0  0  0  0  0  0
   -3.6367    0.3123    0.0018 C   0  0  0  0  0  0  0  0  0  0  0  0
   -2.8811    0.7621   -1.1145 C   0  0  0  0  0  0  0  0  0  0  0  0
    2.4955   -0.7365    1.1375 C   0  0  0  0  0  0  0  0  0  0  0  0
    3.2352   -0.2487    0.0314 C   0  0  0  0  0  0  0  0  0  0  0  0
    7.0957   -0.5070   -0.9664 H   0  0  0  0  0  0  0  0  0  0  0  0
    6.9518    1.1752   -0.3222 H   0  0  0  0  0  0  0  0  0  0  0  0
    6.9059    0.8672   -2.0626 H   0  0  0  0  0  0  0  0  0  0  0  0
    6.3784   -0.4678    1.3058 H   0  0  0  0  0  0  0  0  0  0  0  0
    5.1127   -1.3028    3.2173 H   0  0  0  0  0  0  0  0  0  0  0  0
    0.7934   -2.0856    4.2964 H   0  0  0  0  0  0  0  0  0  0  0  0
   -0.6229   -1.4775    2.3504 H   0  0  0  0  0  0  0  0  0  0  0  0
    0.4255   -1.1009   -0.9051 H   0  0  0  0  0  0  0  0  0  0  0  0
   -0.8102    1.0706    0.9292 H   0  0  0  0  0  0  0  0  0  0  0  0
    0.2633    1.3781   -2.3373 H   0  0  0  0  0  0  0  0  0  0  0  0
   -1.1282    2.0097   -4.2913 H   0  0  0  0  0  0  0  0  0  0  0  0
   -5.4743    1.3974   -3.2089 H   0  0  0  0  0  0  0  0  0  0  0  0
   -6.7655    0.6205   -1.2565 H   0  0  0  0  0  0  0  0  0  0  0  0
   -4.5962   -1.4351    2.0246 H   0  0  0  0  0  0  0  0  0  0  0  0
   -4.6812    0.2617    2.6400 H   0  0  0  0  0  0  0  0  0  0  0  0
   -6.0316   -0.8543    2.8777 H   0  0  0  0  0  0  0  0  0  0  0  0
   -3.1076    0.0020    0.8962 H   0  0  0  0  0  0  0  0  0  0  0  0
    2.7230    0.0609   -0.8767 H   0  0  0  0  0  0  0  0  0  0  0  0
  1  2  1  0
  2  3  1  0
  3  4  2  0
  4  5  1  0
  5  6  2  0
  6  7  1  0
  7  8  2  0
  8  9  1  0
  9 10  2  0
 10 11  1  0
 11 12  2  3
 12 13  1  0
 13 14  2  0
 14 15  1  0
 15 16  2  0
 16 17  1  0
 17 18  2  0
 18 19  1  0
 19 20  2  0
 20 21  1  0
 21 22  1  0
 20 23  1  0
 23 24  2  0
 10 25  1  0
 25 26  2  0
 26  3  1  0
 25  6  1  0
 24 13  1  0
 24 17  1  0
  1 27  1  0
  1 28  1  0
  1 29  1  0
  4 30  1  0
  5 31  1  0
  8 32  1  0
  9 33  1  0
 11 34  1  0
 12 35  1  0
 14 36  1  0
 15 37  1  0
 18 38  1  0
 19 39  1  0
 22 40  1  0
 22 41  1  0
 22 42  1  0
 23 43  1  0
 26 44  1  0
M  END
$$$$
