
     RDKit          3D

 43 45  0  0  0  0  0  0  0  0999 V2000
    2.5763   -0.3494    4.4041 C   0  0  0  0  0  0  0  0  0  0  0  0
    2.2543   -0.7471    3.0347 N   0  0  0  0  0  0  0  0  0  0  0  0
    0.8878   -0.3158    2.6765 C   0  0  0  0  0  0  0  0  0  0  0  0
    0.5158   -0.6968    1.2310 C   0  0  0  0  0  0  0  0  0  0  0  0
    1.5212   -0.2459    0.2636 N   0  0  0  0  0  0  0  0  0  0  0  0
    1.2391    0.0473   -1.0631 C   0  0  0  0  0  0  0  0  0  0  0  0
    2.0700    0.2253   -1.9467 O   0  0  0  0  0  0  0  0  0  0  0  0
   -0.2160    0.1776   -1.4651 C   0  0  0  0  0  0  0  0  0  0  0  0
   -0.6687    1.5977   -1.7379 C   0  0  0  0  0  0  0  0  0  0  0  0
   -0.8249    2.3511   -0.4493 C   0  0  0  0  0  0  0  0  0  0  0  0
   -1.9193    2.3939    0.3929 C   0  0  0  0  0  0  0  0  0  0  0  0
   -1.6970    3.2173    1.5338 C   0  0  0  0  0  0  0  0  0  0  0  0
   -0.4455    3.7892    1.5203 C   0  0  0  0  0  0  0  0  0  0  0  0
    0.4504    3.3382    0.1374 S   0  0  0  0  0  0  0  0  0  0  0  0
   -0.8889   -0.9317   -1.5761 N   0  0  0  0  0  0  0  0  0  0  0  0
   -2.2094   -0.8641   -1.9346 C   0  0  0  0  0  0  0  0  0  0  0  0
   -3.0370   -0.1694   -1.3579 O   0  0  0  0  0  0  0  0  0  0  0  0
   -2.4935   -1.7394   -3.0541 C   0  0  0  0  0  0  0  0  0  0  0  0
   -1.7047   -2.6099   -3.7892 C   0  0  0  0  0  0  0  0  0  0  0  0
   -2.5389   -3.1928   -4.7734 C   0  0  0  0  0  0  0  0  0  0  0  0
   -3.7858   -2.6474   -4.5865 C   0  0  0  0  0  0  0  0  0  0  0  0
   -3.7710   -1.7680   -3.5534 O   0  0  0  0  0  0  0  0  0  0  0  0
    2.9047   -0.5423    0.6258 C   0  0  0  0  0  0  0  0  0  0  0  0
    3.2210   -0.1610    2.0830 C   0  0  0  0  0  0  0  0  0  0  0  0
    1.8778   -0.8102    5.1112 H   0  0  0  0  0  0  0  0  0  0  0  0
    2.5394    0.7374    4.5417 H   0  0  0  0  0  0  0  0  0  0  0  0
    3.5780   -0.6978    4.6789 H   0  0  0  0  0  0  0  0  0  0  0  0
    0.7922    0.7721    2.7925 H   0  0  0  0  0  0  0  0  0  0  0  0
    0.1621   -0.7830    3.3529 H   0  0  0  0  0  0  0  0  0  0  0  0
    0.4427   -1.7869    1.1332 H   0  0  0  0  0  0  0  0  0  0  0  0
   -0.4661   -0.2799    0.9966 H   0  0  0  0  0  0  0  0  0  0  0  0
    0.0751    2.0781   -2.3853 H   0  0  0  0  0  0  0  0  0  0  0  0
   -1.6054    1.6164   -2.3017 H   0  0  0  0  0  0  0  0  0  0  0  0
   -2.8421    1.8561    0.2031 H   0  0  0  0  0  0  0  0  0  0  0  0
   -2.4230    3.3868    2.3197 H   0  0  0  0  0  0  0  0  0  0  0  0
   -0.0153    4.4590    2.2523 H   0  0  0  0  0  0  0  0  0  0  0  0
   -0.6517   -2.7972   -3.6255 H   0  0  0  0  0  0  0  0  0  0  0  0
   -2.2658   -3.9204   -5.5249 H   0  0  0  0  0  0  0  0  0  0  0  0
   -4.7406   -2.7732   -5.0784 H   0  0  0  0  0  0  0  0  0  0  0  0
    3.0550   -1.6185    0.4742 H   0  0  0  0  0  0  0  0  0  0  0  0
    3.5923   -0.0178   -0.0466 H   0  0  0  0  0  0  0  0  0  0  0  0
    3.2224    0.9339    2.1714 H   0  0  0  0  0  0  0  0  0  0  0  0
    4.2328   -0.5115    2.3191 H   0  0  0  0  0  0  0  0  0  0  0  0
  1  2  1  0
  2  3  1  0
  3  4  1  0
  4  5  1  0
  5  6  1  0
  6  7  2  0
  6  8  1  0
  8  9  1  0
  9 10  1  0
 10 11  2  0
 11 12  1  0
 12 13  2  0
 13 14  1  0
  8 15  2  3
 15 16  1  0
 16 17  2  0
 16 18  1  0
 18 19  2  0
 19 20  1  0
 20 21  2  0
 21 22  1  0
  5 23  1  0
 23 24  1  0
 24  2  1  0
 14 10  1  0
 22 18  1  0
  1 25  1  0
  1 26  1  0
  1 27  1  0
  3 28  1  0
  3 29  1  0
  4 30  1  0
  4 31  1  0
  9 32  1  0
  9 33  1  0
 11 34  1  0
 12 35  1  0
 13 36  1  0
 19 37  1  0
 20 38  1  0
 21 39  1  0
 23 40  1  0
 23 41  1  0
 24 42  1  0
 24 43  1  0
M  END
$$$$
