
     RDKit          3D

 48 51  0  0  0  0  0  0  0  0999 V2000
    2.5562    1.0437   -0.9243 O   0  0  0  0  0  0  0  0  0  0  0  0
    3.4334    0.5305   -0.2420 C   0  0  0  0  0  0  0  0  0  0  0  0
    3.4111    0.3292    1.1367 N   0  0  0  0  0  0  0  0  0  0  0  0
    2.3620   -0.1790    1.8615 C   0  0  0  0  0  0  0  0  0  0  0  0
    2.7834   -1.3715    2.9738 S   0  0  0  0  0  0  0  0  0  0  0  0
    1.0891    0.3052    1.6687 N   0  0  0  0  0  0  0  0  0  0  0  0
   -0.1039   -0.4181    2.1515 C   0  0  0  0  0  0  0  0  0  0  0  0
   -1.4436    0.2806    1.8219 C   0  0  0  0  0  0  0  0  0  0  0  0
   -1.4531    0.8142    0.4543 N   0  0  0  0  0  0  0  0  0  0  0  0
   -2.7410    1.3922    0.0588 C   0  0  0  0  0  0  0  0  0  0  0  0
   -3.8486    0.3648   -0.0594 C   0  0  0  0  0  0  0  0  0  0  0  0
   -5.0393    0.5070    0.6908 C   0  0  0  0  0  0  0  0  0  0  0  0
   -6.0736   -0.4286    0.5834 C   0  0  0  0  0  0  0  0  0  0  0  0
   -5.8933   -1.4881   -0.2785 C   0  0  0  0  0  0  0  0  0  0  0  0
   -4.7425   -1.6347   -1.0159 C   0  0  0  0  0  0  0  0  0  0  0  0
   -3.7066   -0.7293   -0.9316 C   0  0  0  0  0  0  0  0  0  0  0  0
   -4.7678   -2.7440   -1.8020 O   0  0  0  0  0  0  0  0  0  0  0  0
   -6.0653   -3.2798   -1.4723 C   0  0  0  0  0  0  0  0  0  0  0  0
   -6.7877   -2.4867   -0.5074 O   0  0  0  0  0  0  0  0  0  0  0  0
   -0.3454    1.7750    0.2417 C   0  0  0  0  0  0  0  0  0  0  0  0
    0.8074    1.6869    1.2673 C   0  0  0  0  0  0  0  0  0  0  0  0
    4.7302    0.2054   -0.9005 C   0  0  0  0  0  0  0  0  0  0  0  0
    5.4604   -0.9420   -0.5596 C   0  0  0  0  0  0  0  0  0  0  0  0
    6.6698   -1.2150   -1.2062 C   0  0  0  0  0  0  0  0  0  0  0  0
    7.1411   -0.3515   -2.1955 C   0  0  0  0  0  0  0  0  0  0  0  0
    8.6295   -0.6923   -2.9870 Cl  0  0  0  0  0  0  0  0  0  0  0  0
    6.4100    0.7803   -2.5528 C   0  0  0  0  0  0  0  0  0  0  0  0
    5.2007    1.0561   -1.9098 C   0  0  0  0  0  0  0  0  0  0  0  0
    4.2740   -0.0480    1.5049 H   0  0  0  0  0  0  0  0  0  0  0  0
   -0.0310   -0.5358    3.2386 H   0  0  0  0  0  0  0  0  0  0  0  0
   -0.0836   -1.4168    1.6985 H   0  0  0  0  0  0  0  0  0  0  0  0
   -1.6201    1.0907    2.5421 H   0  0  0  0  0  0  0  0  0  0  0  0
   -2.2424   -0.4546    1.9718 H   0  0  0  0  0  0  0  0  0  0  0  0
   -3.0320    2.1890    0.7559 H   0  0  0  0  0  0  0  0  0  0  0  0
   -2.6503    1.8631   -0.9296 H   0  0  0  0  0  0  0  0  0  0  0  0
   -5.1617    1.3516    1.3656 H   0  0  0  0  0  0  0  0  0  0  0  0
   -6.9874   -0.3260    1.1573 H   0  0  0  0  0  0  0  0  0  0  0  0
   -2.8025   -0.8649   -1.5169 H   0  0  0  0  0  0  0  0  0  0  0  0
   -5.9350   -4.2902   -1.0678 H   0  0  0  0  0  0  0  0  0  0  0  0
   -6.6617   -3.3435   -2.3898 H   0  0  0  0  0  0  0  0  0  0  0  0
    0.0469    1.5912   -0.7642 H   0  0  0  0  0  0  0  0  0  0  0  0
   -0.7086    2.8109    0.2540 H   0  0  0  0  0  0  0  0  0  0  0  0
    0.5084    2.2090    2.1868 H   0  0  0  0  0  0  0  0  0  0  0  0
    1.6947    2.2210    0.9222 H   0  0  0  0  0  0  0  0  0  0  0  0
    5.0910   -1.6495    0.1789 H   0  0  0  0  0  0  0  0  0  0  0  0
    7.2331   -2.1075   -0.9437 H   0  0  0  0  0  0  0  0  0  0  0  0
    6.7703    1.4468   -3.3324 H   0  0  0  0  0  0  0  0  0  0  0  0
    4.6254    1.9345   -2.1976 H   0  0  0  0  0  0  0  0  0  0  0  0
  1  2  2  0
  2  3  1  0
  3  4  1  0
  4  5  2  0
  4  6  1  0
  6  7  1  0
  7  8  1  0
  8  9  1  0
  9 10  1  0
 10 11  1  0
 11 12  2  0
 12 13  1  0
 13 14  2  0
 14 15  1  0
 15 16  2  0
 15 17  1  0
 17 18  1  0
 18 19  1  0
  9 20  1  0
 20 21  1  0
  2 22  1  0
 22 23  2  0
 23 24  1  0
 24 25  2  0
 25 26  1  0
 25 27  1  0
 27 28  2  0
 21  6  1  0
 28 22  1  0
 16 11  1  0
 19 14  1  0
  3 29  1  0
  7 30  1  0
  7 31  1  0
  8 32  1  0
  8 33  1  0
 10 34  1  0
 10 35  1  0
 12 36  1  0
 13 37  1  0
 16 38  1  0
 18 39  1  0
 18 40  1  0
 20 41  1  0
 20 42  1  0
 21 43  1  0
 21 44  1  0
 23 45  1  0
 24 46  1  0
 27 47  1  0
 28 48  1  0
M  END
$$$$
