
     RDKit          3D

 54 57  0  0  0  0  0  0  0  0999 V2000
    7.3450   -3.4574   -0.2441 C   0  0  0  0  0  0  0  0  0  0  0  0
    5.9877   -3.0352   -0.2934 O   0  0  0  0  0  0  0  0  0  0  0  0
    5.7438   -1.7097   -0.0575 C   0  0  0  0  0  0  0  0  0  0  0  0
    6.6999   -0.7397    0.2342 C   0  0  0  0  0  0  0  0  0  0  0  0
    6.3049    0.5815    0.4520 C   0  0  0  0  0  0  0  0  0  0  0  0
    4.9560    0.9401    0.3807 C   0  0  0  0  0  0  0  0  0  0  0  0
    3.9881   -0.0208    0.0929 C   0  0  0  0  0  0  0  0  0  0  0  0
    2.6072    0.2518   -0.0041 N   0  0  0  0  0  0  0  0  0  0  0  0
    1.9705    1.4596    0.2127 C   0  0  0  0  0  0  0  0  0  0  0  0
    2.4847    2.5074    0.5853 O   0  0  0  0  0  0  0  0  0  0  0  0
    0.5015    1.3819   -0.0185 C   0  0  0  0  0  0  0  0  0  0  0  0
   -0.3092    2.0378    0.8276 C   0  0  0  0  0  0  0  0  0  0  0  0
   -1.7592    1.9408    0.7538 C   0  0  0  0  0  0  0  0  0  0  0  0
   -2.5952    2.7118    1.7176 C   0  0  0  0  0  0  0  0  0  0  0  0
   -2.0555    3.4311    2.5610 O   0  0  0  0  0  0  0  0  0  0  0  0
   -3.9643    2.5539    1.5960 N   0  0  0  0  0  0  0  0  0  0  0  0
   -4.8132    3.2478    2.4522 C   0  0  0  0  0  0  0  0  0  0  0  0
   -6.1440    3.1227    2.3795 C   0  0  0  0  0  0  0  0  0  0  0  0
   -6.7281    2.2506    1.3962 C   0  0  0  0  0  0  0  0  0  0  0  0
   -5.9485    1.5629    0.5533 C   0  0  0  0  0  0  0  0  0  0  0  0
   -4.4662    1.7008    0.6316 C   0  0  0  0  0  0  0  0  0  0  0  0
   -3.7386    1.0228   -0.1958 N   0  0  0  0  0  0  0  0  0  0  0  0
   -2.3672    1.1365   -0.1490 C   0  0  0  0  0  0  0  0  0  0  0  0
   -1.5598    0.4102   -1.0623 N   0  0  0  0  0  0  0  0  0  0  0  0
   -2.2073   -0.4689   -2.0568 C   0  0  0  0  0  0  0  0  0  0  0  0
   -2.5789   -1.8383   -1.4528 C   0  0  0  0  0  0  0  0  0  0  0  0
   -3.4435   -2.6230   -2.4423 C   0  0  0  0  0  0  0  0  0  0  0  0
   -1.3443   -2.6617   -1.0804 C   0  0  0  0  0  0  0  0  0  0  0  0
   -0.1674    0.5657   -1.0887 C   0  0  0  0  0  0  0  0  0  0  0  0
    0.5460    0.0152   -2.0315 N   0  0  0  0  0  0  0  0  0  0  0  0
    4.3946   -1.3437   -0.1268 C   0  0  0  0  0  0  0  0  0  0  0  0
    7.7696   -3.3056    0.7538 H   0  0  0  0  0  0  0  0  0  0  0  0
    7.3689   -4.5307   -0.4559 H   0  0  0  0  0  0  0  0  0  0  0  0
    7.9433   -2.9534   -1.0103 H   0  0  0  0  0  0  0  0  0  0  0  0
    7.7569   -0.9743    0.2994 H   0  0  0  0  0  0  0  0  0  0  0  0
    7.0500    1.3405    0.6788 H   0  0  0  0  0  0  0  0  0  0  0  0
    4.6985    1.9802    0.5544 H   0  0  0  0  0  0  0  0  0  0  0  0
    2.0189   -0.5519   -0.2080 H   0  0  0  0  0  0  0  0  0  0  0  0
    0.1087    2.6415    1.6319 H   0  0  0  0  0  0  0  0  0  0  0  0
   -4.3491    3.9007    3.1877 H   0  0  0  0  0  0  0  0  0  0  0  0
   -6.7981    3.6689    3.0516 H   0  0  0  0  0  0  0  0  0  0  0  0
   -7.8092    2.1650    1.3552 H   0  0  0  0  0  0  0  0  0  0  0  0
   -6.3479    0.8966   -0.2010 H   0  0  0  0  0  0  0  0  0  0  0  0
   -1.5768   -0.6126   -2.9430 H   0  0  0  0  0  0  0  0  0  0  0  0
   -3.1093    0.0240   -2.4434 H   0  0  0  0  0  0  0  0  0  0  0  0
   -3.1696   -1.6891   -0.5407 H   0  0  0  0  0  0  0  0  0  0  0  0
   -4.3569   -2.0694   -2.6845 H   0  0  0  0  0  0  0  0  0  0  0  0
   -3.7422   -3.5878   -2.0187 H   0  0  0  0  0  0  0  0  0  0  0  0
   -2.9045   -2.8149   -3.3763 H   0  0  0  0  0  0  0  0  0  0  0  0
   -1.6360   -3.6465   -0.6996 H   0  0  0  0  0  0  0  0  0  0  0  0
   -0.6924   -2.8157   -1.9467 H   0  0  0  0  0  0  0  0  0  0  0  0
   -0.7613   -2.1704   -0.2953 H   0  0  0  0  0  0  0  0  0  0  0  0
    1.5347    0.2861   -1.9846 H   0  0  0  0  0  0  0  0  0  0  0  0
    3.6646   -2.1160   -0.3574 H   0  0  0  0  0  0  0  0  0  0  0  0
  1  2  1  0
  2  3  1  0
  3  4  2  0
  4  5  1  0
  5  6  2  0
  6  7  1  0
  7  8  1  0
  8  9  1  0
  9 10  2  0
  9 11  1  0
 11 12  2  0
 12 13  1  0
 13 14  1  0
 14 15  2  0
 14 16  1  0
 16 17  1  0
 17 18  2  0
 18 19  1  0
 19 20  2  0
 20 21  1  0
 21 22  2  0
 22 23  1  0
 23 24  1  0
 24 25  1  0
 25 26  1  0
 26 27  1  0
 26 28  1  0
 24 29  1  0
 29 30  2  3
  7 31  2  0
 31  3  1  0
 29 11  1  0
 23 13  2  0
 21 16  1  0
  1 32  1  0
  1 33  1  0
  1 34  1  0
  4 35  1  0
  5 36  1  0
  6 37  1  0
  8 38  1  0
 12 39  1  0
 17 40  1  0
 18 41  1  0
 19 42  1  0
 20 43  1  0
 25 44  1  0
 25 45  1  0
 26 46  1  0
 27 47  1  0
 27 48  1  0
 27 49  1  0
 28 50  1  0
 28 51  1  0
 28 52  1  0
 30 53  1  0
 31 54  1  0
M  END
$$$$
