
     RDKit          3D

 44 46  0  0  0  0  0  0  0  0999 V2000
    0.9602   -2.5830    2.2325 C   0  0  0  0  0  0  0  0  0  0  0  0
    1.5407   -2.0094    1.0684 O   0  0  0  0  0  0  0  0  0  0  0  0
    0.7050   -1.3646    0.1951 C   0  0  0  0  0  0  0  0  0  0  0  0
   -0.6665   -1.1705    0.4037 C   0  0  0  0  0  0  0  0  0  0  0  0
   -1.4551   -0.5189   -0.5611 C   0  0  0  0  0  0  0  0  0  0  0  0
   -2.8946   -0.3063   -0.3555 C   0  0  0  0  0  0  0  0  0  0  0  0
   -3.4508    0.4740    0.6002 C   0  0  0  0  0  0  0  0  0  0  0  0
   -2.6389    1.1928    1.5339 C   0  0  0  0  0  0  0  0  0  0  0  0
   -2.0053    1.7861    2.3084 N   0  0  0  0  0  0  0  0  0  0  0  0
   -4.9307    0.6118    0.6708 C   0  0  0  0  0  0  0  0  0  0  0  0
   -5.5509    1.6532    1.3656 C   0  0  0  0  0  0  0  0  0  0  0  0
   -6.9436    1.7342    1.3765 C   0  0  0  0  0  0  0  0  0  0  0  0
   -7.6879    0.7758    0.7029 C   0  0  0  0  0  0  0  0  0  0  0  0
   -7.0060   -0.2297    0.0429 C   0  0  0  0  0  0  0  0  0  0  0  0
   -5.6583   -0.3301    0.0129 N   0  0  0  0  0  0  0  0  0  0  0  0
   -0.8739   -0.0839   -1.7524 C   0  0  0  0  0  0  0  0  0  0  0  0
    0.4891   -0.2727   -1.9717 C   0  0  0  0  0  0  0  0  0  0  0  0
    1.2801   -0.8852   -0.9959 C   0  0  0  0  0  0  0  0  0  0  0  0
    2.6034   -1.0257   -1.3334 O   0  0  0  0  0  0  0  0  0  0  0  0
    3.5013   -0.5472   -0.3238 C   0  0  0  0  0  0  0  0  0  0  0  0
    4.6609    0.1255   -1.0233 C   0  0  0  0  0  0  0  0  0  0  0  0
    5.6429   -0.6409   -1.6687 C   0  0  0  0  0  0  0  0  0  0  0  0
    6.6918   -0.0195   -2.3500 C   0  0  0  0  0  0  0  0  0  0  0  0
    6.7666    1.3692   -2.3864 C   0  0  0  0  0  0  0  0  0  0  0  0
    8.0468    2.1369   -3.2369 Cl  0  0  0  0  0  0  0  0  0  0  0  0
    5.7991    2.1445   -1.7508 C   0  0  0  0  0  0  0  0  0  0  0  0
    4.7436    1.5241   -1.0770 C   0  0  0  0  0  0  0  0  0  0  0  0
    0.5153   -1.8155    2.8755 H   0  0  0  0  0  0  0  0  0  0  0  0
    0.2266   -3.3522    1.9656 H   0  0  0  0  0  0  0  0  0  0  0  0
    1.7612   -3.0652    2.8012 H   0  0  0  0  0  0  0  0  0  0  0  0
   -1.1470   -1.5233    1.3116 H   0  0  0  0  0  0  0  0  0  0  0  0
   -3.5219   -0.8277   -1.0781 H   0  0  0  0  0  0  0  0  0  0  0  0
   -4.9809    2.4145    1.8893 H   0  0  0  0  0  0  0  0  0  0  0  0
   -7.4418    2.5454    1.9043 H   0  0  0  0  0  0  0  0  0  0  0  0
   -8.7702    0.8142    0.6886 H   0  0  0  0  0  0  0  0  0  0  0  0
   -7.5394   -1.0072   -0.4990 H   0  0  0  0  0  0  0  0  0  0  0  0
   -1.4708    0.4138   -2.5156 H   0  0  0  0  0  0  0  0  0  0  0  0
    0.9449    0.0709   -2.8960 H   0  0  0  0  0  0  0  0  0  0  0  0
    3.8810   -1.3921    0.2650 H   0  0  0  0  0  0  0  0  0  0  0  0
    3.0268    0.1689    0.3603 H   0  0  0  0  0  0  0  0  0  0  0  0
    5.5774   -1.7262   -1.6589 H   0  0  0  0  0  0  0  0  0  0  0  0
    7.4391   -0.6255   -2.8569 H   0  0  0  0  0  0  0  0  0  0  0  0
    5.8517    3.2302   -1.7861 H   0  0  0  0  0  0  0  0  0  0  0  0
    3.9786    2.1364   -0.6039 H   0  0  0  0  0  0  0  0  0  0  0  0
  1  2  1  0
  2  3  1  0
  3  4  2  0
  4  5  1  0
  5  6  1  0
  6  7  2  3
  7  8  1  0
  8  9  3  0
  7 10  1  0
 10 11  2  0
 11 12  1  0
 12 13  2  0
 13 14  1  0
 14 15  2  0
  5 16  2  0
 16 17  1  0
 17 18  2  0
 18 19  1  0
 19 20  1  0
 20 21  1  0
 21 22  2  0
 22 23  1  0
 23 24  2  0
 24 25  1  0
 24 26  1  0
 26 27  2  0
 18  3  1  0
 27 21  1  0
 15 10  1  0
  1 28  1  0
  1 29  1  0
  1 30  1  0
  4 31  1  0
  6 32  1  0
 11 33  1  0
 12 34  1  0
 13 35  1  0
 14 36  1  0
 16 37  1  0
 17 38  1  0
 20 39  1  0
 20 40  1  0
 22 41  1  0
 23 42  1  0
 26 43  1  0
 27 44  1  0
M  END
$$$$
