
     RDKit          3D

 44 46  0  0  0  0  0  0  0  0999 V2000
    1.7180   -0.9908    2.3732 C   0  0  0  0  0  0  0  0  0  0  0  0
    1.4706    0.2672    1.7439 O   0  0  0  0  0  0  0  0  0  0  0  0
    0.6706    0.0892    0.6429 C   0  0  0  0  0  0  0  0  0  0  0  0
   -0.6930    0.3539    0.7806 C   0  0  0  0  0  0  0  0  0  0  0  0
   -1.5443    0.2084   -0.3177 C   0  0  0  0  0  0  0  0  0  0  0  0
   -2.9853    0.4637   -0.2034 C   0  0  0  0  0  0  0  0  0  0  0  0
   -3.8641   -0.2797    0.5058 C   0  0  0  0  0  0  0  0  0  0  0  0
   -3.4266   -1.4352    1.2260 C   0  0  0  0  0  0  0  0  0  0  0  0
   -3.0994   -2.3740    1.8268 N   0  0  0  0  0  0  0  0  0  0  0  0
   -5.3084    0.0866    0.5305 C   0  0  0  0  0  0  0  0  0  0  0  0
   -6.2381   -0.5845    1.3304 C   0  0  0  0  0  0  0  0  0  0  0  0
   -7.5764   -0.1905    1.3061 C   0  0  0  0  0  0  0  0  0  0  0  0
   -7.9633    0.8610    0.4887 C   0  0  0  0  0  0  0  0  0  0  0  0
   -6.9911    1.4783   -0.2755 C   0  0  0  0  0  0  0  0  0  0  0  0
   -5.6881    1.1166   -0.2716 N   0  0  0  0  0  0  0  0  0  0  0  0
   -1.0114   -0.1728   -1.5540 C   0  0  0  0  0  0  0  0  0  0  0  0
    0.3608   -0.4096   -1.6951 C   0  0  0  0  0  0  0  0  0  0  0  0
    1.2139   -0.2605   -0.5995 C   0  0  0  0  0  0  0  0  0  0  0  0
    2.5645   -0.4800   -0.6509 O   0  0  0  0  0  0  0  0  0  0  0  0
    3.2004   -0.0909   -1.8713 C   0  0  0  0  0  0  0  0  0  0  0  0
    4.6843    0.0943   -1.6379 C   0  0  0  0  0  0  0  0  0  0  0  0
    5.1658    0.6545   -0.4436 C   0  0  0  0  0  0  0  0  0  0  0  0
    6.5340    0.8586   -0.2526 C   0  0  0  0  0  0  0  0  0  0  0  0
    7.4294    0.5180   -1.2615 C   0  0  0  0  0  0  0  0  0  0  0  0
    9.1150    0.7730   -1.0304 Cl  0  0  0  0  0  0  0  0  0  0  0  0
    6.9685   -0.0222   -2.4600 C   0  0  0  0  0  0  0  0  0  0  0  0
    5.6002   -0.2296   -2.6498 C   0  0  0  0  0  0  0  0  0  0  0  0
    2.3950   -0.8156    3.2162 H   0  0  0  0  0  0  0  0  0  0  0  0
    0.7879   -1.4160    2.7676 H   0  0  0  0  0  0  0  0  0  0  0  0
    2.2031   -1.7014    1.6943 H   0  0  0  0  0  0  0  0  0  0  0  0
   -1.0755    0.6711    1.7463 H   0  0  0  0  0  0  0  0  0  0  0  0
   -3.3221    1.3295   -0.7709 H   0  0  0  0  0  0  0  0  0  0  0  0
   -5.9526   -1.4082    1.9791 H   0  0  0  0  0  0  0  0  0  0  0  0
   -8.3089   -0.7041    1.9239 H   0  0  0  0  0  0  0  0  0  0  0  0
   -8.9955    1.1909    0.4484 H   0  0  0  0  0  0  0  0  0  0  0  0
   -7.2385    2.3069   -0.9333 H   0  0  0  0  0  0  0  0  0  0  0  0
   -1.6613   -0.2941   -2.4182 H   0  0  0  0  0  0  0  0  0  0  0  0
    0.7344   -0.7234   -2.6655 H   0  0  0  0  0  0  0  0  0  0  0  0
    2.7978    0.8585   -2.2490 H   0  0  0  0  0  0  0  0  0  0  0  0
    3.0466   -0.8839   -2.6138 H   0  0  0  0  0  0  0  0  0  0  0  0
    4.4723    0.9318    0.3490 H   0  0  0  0  0  0  0  0  0  0  0  0
    6.8893    1.2837    0.6825 H   0  0  0  0  0  0  0  0  0  0  0  0
    7.6669   -0.2807   -3.2500 H   0  0  0  0  0  0  0  0  0  0  0  0
    5.2543   -0.6478   -3.5933 H   0  0  0  0  0  0  0  0  0  0  0  0
  1  2  1  0
  2  3  1  0
  3  4  2  0
  4  5  1  0
  5  6  1  0
  6  7  2  3
  7  8  1  0
  8  9  3  0
  7 10  1  0
 10 11  2  0
 11 12  1  0
 12 13  2  0
 13 14  1  0
 14 15  2  0
  5 16  2  0
 16 17  1  0
 17 18  2  0
 18 19  1  0
 19 20  1  0
 20 21  1  0
 21 22  2  0
 22 23  1  0
 23 24  2  0
 24 25  1  0
 24 26  1  0
 26 27  2  0
 18  3  1  0
 27 21  1  0
 15 10  1  0
  1 28  1  0
  1 29  1  0
  1 30  1  0
  4 31  1  0
  6 32  1  0
 11 33  1  0
 12 34  1  0
 13 35  1  0
 14 36  1  0
 16 37  1  0
 17 38  1  0
 20 39  1  0
 20 40  1  0
 22 41  1  0
 23 42  1  0
 26 43  1  0
 27 44  1  0
M  END
$$$$
