
     RDKit          3D

 74 78  0  0  0  0  0  0  0  0999 V2000
    0.7730   -2.8176    5.2152 C   0  0  0  0  0  0  0  0  0  0  0  0
    0.5694   -3.3408    3.7979 C   0  0  0  0  0  0  0  0  0  0  0  0
   -0.6733   -2.7992    3.1379 C   0  0  0  0  0  0  0  0  0  0  0  0
   -2.0346   -3.3714    3.4836 C   0  0  0  0  0  0  0  0  0  0  0  0
   -2.1250   -4.4963    4.4958 C   0  0  0  0  0  0  0  0  0  0  0  0
   -3.1680   -2.9746    2.9824 N   0  0  0  0  0  0  0  0  0  0  0  0
   -3.1143   -1.9917    2.0457 C   0  0  0  0  0  0  0  0  0  0  0  0
   -4.1138   -1.3667    1.3401 C   0  0  0  0  0  0  0  0  0  0  0  0
   -3.4690   -0.4492    0.4809 C   0  0  0  0  0  0  0  0  0  0  0  0
   -4.0697    0.4522   -0.5105 C   0  0  0  0  0  0  0  0  0  0  0  0
   -3.3033    1.4802   -1.0865 C   0  0  0  0  0  0  0  0  0  0  0  0
   -3.8479    2.3252   -2.0552 C   0  0  0  0  0  0  0  0  0  0  0  0
   -3.1910    3.3490   -2.6838 O   0  0  0  0  0  0  0  0  0  0  0  0
   -1.8751    3.6428   -2.2291 C   0  0  0  0  0  0  0  0  0  0  0  0
   -5.1718    2.1441   -2.4615 C   0  0  0  0  0  0  0  0  0  0  0  0
   -5.9547    1.1364   -1.8950 C   0  0  0  0  0  0  0  0  0  0  0  0
   -7.2607    0.8650   -2.2020 O   0  0  0  0  0  0  0  0  0  0  0  0
   -7.8324    1.6068   -3.2749 C   0  0  0  0  0  0  0  0  0  0  0  0
   -5.4005    0.2994   -0.9207 C   0  0  0  0  0  0  0  0  0  0  0  0
   -2.1415   -0.4912    0.6559 N   0  0  0  0  0  0  0  0  0  0  0  0
   -1.9137   -1.4337    1.6134 N   0  0  0  0  0  0  0  0  0  0  0  0
   -0.6654   -1.8471    2.1693 C   0  0  0  0  0  0  0  0  0  0  0  0
    0.5345   -1.2396    1.7103 N   0  0  0  0  0  0  0  0  0  0  0  0
    0.8169   -1.1474    0.2493 C   0  0  0  0  0  0  0  0  0  0  0  0
    0.9452    0.3118   -0.2557 C   0  0  0  0  0  0  0  0  0  0  0  0
    1.9005    1.1476    0.4894 N   0  0  0  0  0  0  0  0  0  0  0  0
    3.0060    1.6888   -0.3006 C   0  0  0  0  0  0  0  0  0  0  0  0
    4.0521    0.6789   -0.8413 C   0  0  0  0  0  0  0  0  0  0  0  0
    5.0226    1.3317   -1.7345 N   0  0  0  0  0  0  0  0  0  0  0  0
    6.2683    0.5568   -1.8786 C   0  0  0  0  0  0  0  0  0  0  0  0
    7.1372    1.1449   -3.0042 C   0  0  0  0  0  0  0  0  0  0  0  0
    6.5265    1.0644   -4.2977 O   0  0  0  0  0  0  0  0  0  0  0  0
    5.1032    0.9366   -4.2403 C   0  0  0  0  0  0  0  0  0  0  0  0
    4.4629    1.6874   -3.0568 C   0  0  0  0  0  0  0  0  0  0  0  0
    2.2747    0.5720    1.7833 C   0  0  0  0  0  0  0  0  0  0  0  0
    1.0623   -0.0804    2.4815 C   0  0  0  0  0  0  0  0  0  0  0  0
    0.7388   -1.7240    5.2511 H   0  0  0  0  0  0  0  0  0  0  0  0
    1.7480   -3.1402    5.5954 H   0  0  0  0  0  0  0  0  0  0  0  0
    0.0172   -3.1950    5.9095 H   0  0  0  0  0  0  0  0  0  0  0  0
    1.4601   -3.0791    3.2145 H   0  0  0  0  0  0  0  0  0  0  0  0
    0.5555   -4.4363    3.8008 H   0  0  0  0  0  0  0  0  0  0  0  0
   -3.1292   -4.9329    4.4816 H   0  0  0  0  0  0  0  0  0  0  0  0
   -1.9461   -4.1042    5.5002 H   0  0  0  0  0  0  0  0  0  0  0  0
   -1.4151   -5.2938    4.2635 H   0  0  0  0  0  0  0  0  0  0  0  0
   -5.1707   -1.5713    1.4386 H   0  0  0  0  0  0  0  0  0  0  0  0
   -2.2743    1.5950   -0.7635 H   0  0  0  0  0  0  0  0  0  0  0  0
   -1.8767    3.9241   -1.1695 H   0  0  0  0  0  0  0  0  0  0  0  0
   -1.1961    2.8021   -2.4157 H   0  0  0  0  0  0  0  0  0  0  0  0
   -1.5065    4.4996   -2.8030 H   0  0  0  0  0  0  0  0  0  0  0  0
   -5.5653    2.8156   -3.2188 H   0  0  0  0  0  0  0  0  0  0  0  0
   -7.8717    2.6788   -3.0433 H   0  0  0  0  0  0  0  0  0  0  0  0
   -8.8624    1.2588   -3.4076 H   0  0  0  0  0  0  0  0  0  0  0  0
   -7.2943    1.4236   -4.2106 H   0  0  0  0  0  0  0  0  0  0  0  0
   -6.0285   -0.4850   -0.5037 H   0  0  0  0  0  0  0  0  0  0  0  0
    1.7642   -1.6723    0.0679 H   0  0  0  0  0  0  0  0  0  0  0  0
    0.0645   -1.6850   -0.3395 H   0  0  0  0  0  0  0  0  0  0  0  0
    1.1623    0.3049   -1.3306 H   0  0  0  0  0  0  0  0  0  0  0  0
   -0.0239    0.8058   -0.1506 H   0  0  0  0  0  0  0  0  0  0  0  0
    3.5271    2.4393    0.3089 H   0  0  0  0  0  0  0  0  0  0  0  0
    2.5705    2.2583   -1.1304 H   0  0  0  0  0  0  0  0  0  0  0  0
    4.5897    0.2637    0.0198 H   0  0  0  0  0  0  0  0  0  0  0  0
    3.5668   -0.1607   -1.3506 H   0  0  0  0  0  0  0  0  0  0  0  0
    6.8279    0.5934   -0.9374 H   0  0  0  0  0  0  0  0  0  0  0  0
    6.0451   -0.4966   -2.1015 H   0  0  0  0  0  0  0  0  0  0  0  0
    7.3599    2.1998   -2.8104 H   0  0  0  0  0  0  0  0  0  0  0  0
    8.0955    0.6171   -3.0625 H   0  0  0  0  0  0  0  0  0  0  0  0
    4.8593   -0.1320   -4.1924 H   0  0  0  0  0  0  0  0  0  0  0  0
    4.6990    1.3188   -5.1846 H   0  0  0  0  0  0  0  0  0  0  0  0
    4.6319    2.7625   -3.1885 H   0  0  0  0  0  0  0  0  0  0  0  0
    3.3779    1.5342   -3.1014 H   0  0  0  0  0  0  0  0  0  0  0  0
    2.6701    1.3640    2.4296 H   0  0  0  0  0  0  0  0  0  0  0  0
    3.0637   -0.1825    1.6703 H   0  0  0  0  0  0  0  0  0  0  0  0
    0.2688    0.6669    2.6122 H   0  0  0  0  0  0  0  0  0  0  0  0
    1.3674   -0.4106    3.4771 H   0  0  0  0  0  0  0  0  0  0  0  0
  1  2  1  0
  2  3  1  0
  3  4  1  0
  4  5  1  0
  4  6  2  0
  6  7  1  0
  7  8  2  0
  8  9  1  0
  9 10  1  0
 10 11  2  0
 11 12  1  0
 12 13  1  0
 13 14  1  0
 12 15  2  0
 15 16  1  0
 16 17  1  0
 17 18  1  0
 16 19  2  0
  9 20  2  0
 20 21  1  0
 21 22  1  0
 22 23  1  0
 23 24  1  0
 24 25  1  0
 25 26  1  0
 26 27  1  0
 27 28  1  0
 28 29  1  0
 29 30  1  0
 30 31  1  0
 31 32  1  0
 32 33  1  0
 33 34  1  0
 26 35  1  0
 35 36  1  0
 22  3  2  0
 36 23  1  0
 21  7  1  0
 34 29  1  0
 19 10  1  0
  1 37  1  0
  1 38  1  0
  1 39  1  0
  2 40  1  0
  2 41  1  0
  5 42  1  0
  5 43  1  0
  5 44  1  0
  8 45  1  0
 11 46  1  0
 14 47  1  0
 14 48  1  0
 14 49  1  0
 15 50  1  0
 18 51  1  0
 18 52  1  0
 18 53  1  0
 19 54  1  0
 24 55  1  0
 24 56  1  0
 25 57  1  0
 25 58  1  0
 27 59  1  0
 27 60  1  0
 28 61  1  0
 28 62  1  0
 30 63  1  0
 30 64  1  0
 31 65  1  0
 31 66  1  0
 33 67  1  0
 33 68  1  0
 34 69  1  0
 34 70  1  0
 35 71  1  0
 35 72  1  0
 36 73  1  0
 36 74  1  0
M  END
$$$$
