
     RDKit          3D

 51 53  0  0  0  0  0  0  0  0999 V2000
   -5.5610    5.1942    0.0700 C   0  0  0  0  0  0  0  0  0  0  0  0
   -5.4172    3.9468   -0.7613 C   0  0  0  0  0  0  0  0  0  0  0  0
   -6.3875    3.6931   -1.7419 C   0  0  0  0  0  0  0  0  0  0  0  0
   -6.3104    2.5568   -2.5380 C   0  0  0  0  0  0  0  0  0  0  0  0
   -5.2593    1.6578   -2.3717 C   0  0  0  0  0  0  0  0  0  0  0  0
   -4.2695    1.8783   -1.4079 C   0  0  0  0  0  0  0  0  0  0  0  0
   -3.1980    0.9717   -1.2203 N   0  0  0  0  0  0  0  0  0  0  0  0
   -2.8724   -0.1467   -1.9749 C   0  0  0  0  0  0  0  0  0  0  0  0
   -3.4564   -0.5547   -2.9745 O   0  0  0  0  0  0  0  0  0  0  0  0
   -1.6717   -0.8969   -1.4189 C   0  0  0  0  0  0  0  0  0  0  0  0
   -0.1785    0.1355   -1.5524 S   0  0  0  0  0  0  0  0  0  0  0  0
    1.0128   -0.9940   -0.9583 C   0  0  0  0  0  0  0  0  0  0  0  0
    0.6598   -1.9690   -0.1974 N   0  0  0  0  0  0  0  0  0  0  0  0
    1.6388   -2.8364    0.2392 C   0  0  0  0  0  0  0  0  0  0  0  0
    1.3535   -3.8610    0.8504 O   0  0  0  0  0  0  0  0  0  0  0  0
    3.0901   -2.5131   -0.0479 C   0  0  0  0  0  0  0  0  0  0  0  0
    4.1014   -3.4424    0.5739 C   0  0  0  0  0  0  0  0  0  0  0  0
    4.5411   -3.0028    1.9547 C   0  0  0  0  0  0  0  0  0  0  0  0
    3.7661   -3.3171    3.0809 C   0  0  0  0  0  0  0  0  0  0  0  0
    4.1581   -2.8997    4.3545 C   0  0  0  0  0  0  0  0  0  0  0  0
    5.3295   -2.1637    4.5178 C   0  0  0  0  0  0  0  0  0  0  0  0
    6.1098   -1.8455    3.4080 C   0  0  0  0  0  0  0  0  0  0  0  0
    5.7181   -2.2611    2.1330 C   0  0  0  0  0  0  0  0  0  0  0  0
    3.3444   -1.4716   -0.8694 C   0  0  0  0  0  0  0  0  0  0  0  0
    4.7098   -1.0211   -1.3103 C   0  0  0  0  0  0  0  0  0  0  0  0
    2.2867   -0.7341   -1.3445 N   0  0  0  0  0  0  0  0  0  0  0  0
   -4.3460    3.0342   -0.5841 C   0  0  0  0  0  0  0  0  0  0  0  0
   -3.2961    3.2838    0.4738 C   0  0  0  0  0  0  0  0  0  0  0  0
   -6.4462    5.7729   -0.2178 H   0  0  0  0  0  0  0  0  0  0  0  0
   -4.6918    5.8444   -0.0669 H   0  0  0  0  0  0  0  0  0  0  0  0
   -5.6708    4.9363    1.1279 H   0  0  0  0  0  0  0  0  0  0  0  0
   -7.2173    4.3811   -1.8909 H   0  0  0  0  0  0  0  0  0  0  0  0
   -7.0702    2.3646   -3.2916 H   0  0  0  0  0  0  0  0  0  0  0  0
   -5.2496    0.7825   -3.0133 H   0  0  0  0  0  0  0  0  0  0  0  0
   -2.5340    1.2009   -0.4930 H   0  0  0  0  0  0  0  0  0  0  0  0
   -1.8754   -1.1580   -0.3752 H   0  0  0  0  0  0  0  0  0  0  0  0
   -1.5391   -1.8197   -1.9932 H   0  0  0  0  0  0  0  0  0  0  0  0
    4.9836   -3.5441   -0.0706 H   0  0  0  0  0  0  0  0  0  0  0  0
    3.7123   -4.4680    0.6295 H   0  0  0  0  0  0  0  0  0  0  0  0
    2.8486   -3.8940    2.9749 H   0  0  0  0  0  0  0  0  0  0  0  0
    3.5474   -3.1513    5.2180 H   0  0  0  0  0  0  0  0  0  0  0  0
    5.6342   -1.8404    5.5098 H   0  0  0  0  0  0  0  0  0  0  0  0
    7.0260   -1.2745    3.5360 H   0  0  0  0  0  0  0  0  0  0  0  0
    6.3458   -2.0054    1.2834 H   0  0  0  0  0  0  0  0  0  0  0  0
    4.9102   -0.0103   -0.9367 H   0  0  0  0  0  0  0  0  0  0  0  0
    5.5185   -1.6671   -0.9645 H   0  0  0  0  0  0  0  0  0  0  0  0
    4.7623   -0.9978   -2.4049 H   0  0  0  0  0  0  0  0  0  0  0  0
    2.4665    0.0885   -1.9072 H   0  0  0  0  0  0  0  0  0  0  0  0
   -2.3040    3.3425    0.0131 H   0  0  0  0  0  0  0  0  0  0  0  0
   -3.4409    4.2191    1.0209 H   0  0  0  0  0  0  0  0  0  0  0  0
   -3.3119    2.4761    1.2133 H   0  0  0  0  0  0  0  0  0  0  0  0
  1  2  1  0
  2  3  2  0
  3  4  1  0
  4  5  2  0
  5  6  1  0
  6  7  1  0
  7  8  1  0
  8  9  2  0
  8 10  1  0
 10 11  1  0
 11 12  1  0
 12 13  2  0
 13 14  1  0
 14 15  2  0
 14 16  1  0
 16 17  1  0
 17 18  1  0
 18 19  2  0
 19 20  1  0
 20 21  2  0
 21 22  1  0
 22 23  2  0
 16 24  2  0
 24 25  1  0
 24 26  1  0
  6 27  2  0
 27 28  1  0
 27  2  1  0
 26 12  1  0
 23 18  1  0
  1 29  1  0
  1 30  1  0
  1 31  1  0
  3 32  1  0
  4 33  1  0
  5 34  1  0
  7 35  1  0
 10 36  1  0
 10 37  1  0
 17 38  1  0
 17 39  1  0
 19 40  1  0
 20 41  1  0
 21 42  1  0
 22 43  1  0
 23 44  1  0
 25 45  1  0
 25 46  1  0
 25 47  1  0
 26 48  1  0
 28 49  1  0
 28 50  1  0
 28 51  1  0
M  END
$$$$
