
     RDKit          3D

 61 63  0  0  0  0  0  0  0  0999 V2000
   -1.0445   -2.1705   -3.0001 C   0  0  0  0  0  0  0  0  0  0  0  0
   -1.5339   -0.8249   -2.5001 C   0  0  0  0  0  0  0  0  0  0  0  0
   -1.4617   -0.7783   -1.0690 O   0  0  0  0  0  0  0  0  0  0  0  0
   -0.2734   -0.3949   -0.5290 C   0  0  0  0  0  0  0  0  0  0  0  0
    0.7140   -0.0846   -1.1921 O   0  0  0  0  0  0  0  0  0  0  0  0
   -0.2598   -0.4116    0.9365 C   0  0  0  0  0  0  0  0  0  0  0  0
   -1.3704   -0.6466    1.8354 C   0  0  0  0  0  0  0  0  0  0  0  0
   -2.7665   -0.8904    1.5116 C   0  0  0  0  0  0  0  0  0  0  0  0
   -3.6005    0.1727    1.1566 C   0  0  0  0  0  0  0  0  0  0  0  0
   -4.9398   -0.0667    0.8311 C   0  0  0  0  0  0  0  0  0  0  0  0
   -5.4725   -1.3675    0.8553 C   0  0  0  0  0  0  0  0  0  0  0  0
   -6.8805   -1.6167    0.5029 C   0  0  0  0  0  0  0  0  0  0  0  0
   -7.2260   -2.5715   -0.4686 C   0  0  0  0  0  0  0  0  0  0  0  0
   -8.5615   -2.8040   -0.8089 C   0  0  0  0  0  0  0  0  0  0  0  0
   -9.5761   -2.0856   -0.1816 C   0  0  0  0  0  0  0  0  0  0  0  0
   -9.2566   -1.1358    0.7852 C   0  0  0  0  0  0  0  0  0  0  0  0
   -7.9203   -0.9036    1.1234 C   0  0  0  0  0  0  0  0  0  0  0  0
   -4.6200   -2.4224    1.2223 C   0  0  0  0  0  0  0  0  0  0  0  0
   -3.2800   -2.1894    1.5481 C   0  0  0  0  0  0  0  0  0  0  0  0
   -0.9808   -0.6121    3.1594 C   0  0  0  0  0  0  0  0  0  0  0  0
    0.6816   -0.2954    3.3326 S   0  0  0  0  0  0  0  0  0  0  0  0
    0.9140   -0.2027    1.6552 C   0  0  0  0  0  0  0  0  0  0  0  0
    2.1626    0.0690    1.1130 N   0  0  0  0  0  0  0  0  0  0  0  0
    3.3739    0.1752    1.7816 C   0  0  0  0  0  0  0  0  0  0  0  0
    3.5843    0.0051    2.9784 O   0  0  0  0  0  0  0  0  0  0  0  0
    4.5211    0.5195    0.8182 C   0  0  0  0  0  0  0  0  0  0  0  0
    4.3963    1.9154    0.3679 N   0  0  0  0  0  0  0  0  0  0  0  0
    5.3661    2.2629   -0.6818 C   0  0  0  0  0  0  0  0  0  0  0  0
    6.8456    2.2357   -0.2264 C   0  0  0  0  0  0  0  0  0  0  0  0
    7.7887    2.6543   -1.2864 N   0  0  0  0  0  0  0  0  0  0  0  0
    7.7398    4.1028   -1.5066 C   0  0  0  0  0  0  0  0  0  0  0  0
    9.1539    2.2668   -0.9165 C   0  0  0  0  0  0  0  0  0  0  0  0
    0.0103   -2.3210   -2.7480 H   0  0  0  0  0  0  0  0  0  0  0  0
   -1.6032   -2.9866   -2.5282 H   0  0  0  0  0  0  0  0  0  0  0  0
   -1.1559   -2.2473   -4.0851 H   0  0  0  0  0  0  0  0  0  0  0  0
   -0.9752    0.0005   -2.9548 H   0  0  0  0  0  0  0  0  0  0  0  0
   -2.5859   -0.6912   -2.7724 H   0  0  0  0  0  0  0  0  0  0  0  0
   -3.2176    1.1904    1.1238 H   0  0  0  0  0  0  0  0  0  0  0  0
   -5.5669    0.7739    0.5414 H   0  0  0  0  0  0  0  0  0  0  0  0
   -6.4493   -3.1361   -0.9805 H   0  0  0  0  0  0  0  0  0  0  0  0
   -8.8064   -3.5440   -1.5662 H   0  0  0  0  0  0  0  0  0  0  0  0
  -10.6150   -2.2658   -0.4452 H   0  0  0  0  0  0  0  0  0  0  0  0
  -10.0465   -0.5753    1.2794 H   0  0  0  0  0  0  0  0  0  0  0  0
   -7.6947   -0.1649    1.8899 H   0  0  0  0  0  0  0  0  0  0  0  0
   -4.9998   -3.4414    1.2655 H   0  0  0  0  0  0  0  0  0  0  0  0
   -2.6456   -3.0280    1.8249 H   0  0  0  0  0  0  0  0  0  0  0  0
   -1.5961   -0.7509    4.0391 H   0  0  0  0  0  0  0  0  0  0  0  0
    2.1829    0.1410    0.0966 H   0  0  0  0  0  0  0  0  0  0  0  0
    5.4595    0.3652    1.3607 H   0  0  0  0  0  0  0  0  0  0  0  0
    4.4893   -0.1794   -0.0260 H   0  0  0  0  0  0  0  0  0  0  0  0
    3.4558    2.0818    0.0105 H   0  0  0  0  0  0  0  0  0  0  0  0
    5.2287    1.6052   -1.5501 H   0  0  0  0  0  0  0  0  0  0  0  0
    5.1074    3.2743   -1.0131 H   0  0  0  0  0  0  0  0  0  0  0  0
    7.0848    1.2024    0.0537 H   0  0  0  0  0  0  0  0  0  0  0  0
    6.9757    2.8491    0.6757 H   0  0  0  0  0  0  0  0  0  0  0  0
    8.4494    4.3971   -2.2893 H   0  0  0  0  0  0  0  0  0  0  0  0
    6.7540    4.4199   -1.8616 H   0  0  0  0  0  0  0  0  0  0  0  0
    7.9758    4.6695   -0.5987 H   0  0  0  0  0  0  0  0  0  0  0  0
    9.4708    2.7152    0.0331 H   0  0  0  0  0  0  0  0  0  0  0  0
    9.8647    2.5660   -1.6952 H   0  0  0  0  0  0  0  0  0  0  0  0
    9.2315    1.1762   -0.8299 H   0  0  0  0  0  0  0  0  0  0  0  0
  1  2  1  0
  2  3  1  0
  3  4  1  0
  4  5  2  0
  4  6  1  0
  6  7  1  0
  7  8  1  0
  8  9  2  0
  9 10  1  0
 10 11  2  0
 11 12  1  0
 12 13  2  0
 13 14  1  0
 14 15  2  0
 15 16  1  0
 16 17  2  0
 11 18  1  0
 18 19  2  0
  7 20  2  0
 20 21  1  0
 21 22  1  0
 22 23  1  0
 23 24  1  0
 24 25  2  0
 24 26  1  0
 26 27  1  0
 27 28  1  0
 28 29  1  0
 29 30  1  0
 30 31  1  0
 30 32  1  0
 22  6  2  0
 19  8  1  0
 17 12  1  0
  1 33  1  0
  1 34  1  0
  1 35  1  0
  2 36  1  0
  2 37  1  0
  9 38  1  0
 10 39  1  0
 13 40  1  0
 14 41  1  0
 15 42  1  0
 16 43  1  0
 17 44  1  0
 18 45  1  0
 19 46  1  0
 20 47  1  0
 23 48  1  0
 26 49  1  0
 26 50  1  0
 27 51  1  0
 28 52  1  0
 28 53  1  0
 29 54  1  0
 29 55  1  0
 31 56  1  0
 31 57  1  0
 31 58  1  0
 32 59  1  0
 32 60  1  0
 32 61  1  0
M  END
$$$$
