
     RDKit          3D

 55 57  0  0  0  0  0  0  0  0999 V2000
    5.7155    1.1592   -3.9915 C   0  0  0  0  0  0  0  0  0  0  0  0
    5.8285    1.2622   -2.5780 O   0  0  0  0  0  0  0  0  0  0  0  0
    4.6890    1.0502   -1.8521 C   0  0  0  0  0  0  0  0  0  0  0  0
    4.8491    1.1500   -0.4696 C   0  0  0  0  0  0  0  0  0  0  0  0
    3.7657    0.9559    0.3916 C   0  0  0  0  0  0  0  0  0  0  0  0
    2.4919    0.6627   -0.1167 C   0  0  0  0  0  0  0  0  0  0  0  0
    1.3309    0.4307    0.8453 C   0  0  0  0  0  0  0  0  0  0  0  0
   -0.0366    1.6081    0.4894 S   0  0  0  0  0  0  0  0  0  0  0  0
   -1.3111    0.9074    1.5237 C   0  0  0  0  0  0  0  0  0  0  0  0
   -1.7915    1.7146    2.5665 C   0  0  0  0  0  0  0  0  0  0  0  0
   -2.8496    1.2895    3.3684 C   0  0  0  0  0  0  0  0  0  0  0  0
   -3.4483    0.0591    3.1256 C   0  0  0  0  0  0  0  0  0  0  0  0
   -2.9881   -0.7462    2.0817 C   0  0  0  0  0  0  0  0  0  0  0  0
   -1.9145   -0.3411    1.2701 C   0  0  0  0  0  0  0  0  0  0  0  0
   -1.4778   -1.2138    0.2244 N   0  0  0  0  0  0  0  0  0  0  0  0
   -2.4908   -1.7066   -0.7245 C   0  0  0  0  0  0  0  0  0  0  0  0
   -2.6545   -0.8005   -1.9690 C   0  0  0  0  0  0  0  0  0  0  0  0
   -3.2044    0.5404   -1.6839 N   0  0  0  0  0  0  0  0  0  0  0  0
   -2.9778    1.4352   -2.8198 C   0  0  0  0  0  0  0  0  0  0  0  0
   -4.6293    0.4946   -1.3593 C   0  0  0  0  0  0  0  0  0  0  0  0
   -0.1376   -1.4546   -0.0894 C   0  0  0  0  0  0  0  0  0  0  0  0
    0.1871   -2.0256   -1.1384 O   0  0  0  0  0  0  0  0  0  0  0  0
    0.9486   -1.0616    0.9225 C   0  0  0  0  0  0  0  0  0  0  0  0
    0.5261   -1.4660    2.2480 O   0  0  0  0  0  0  0  0  0  0  0  0
    1.5002   -1.5641    3.1870 C   0  0  0  0  0  0  0  0  0  0  0  0
    0.9128   -2.0059    4.4915 C   0  0  0  0  0  0  0  0  0  0  0  0
    2.6822   -1.3135    3.0069 O   0  0  0  0  0  0  0  0  0  0  0  0
    2.3418    0.5556   -1.5086 C   0  0  0  0  0  0  0  0  0  0  0  0
    3.4298    0.7504   -2.3684 C   0  0  0  0  0  0  0  0  0  0  0  0
    5.4132    0.1504   -4.2914 H   0  0  0  0  0  0  0  0  0  0  0  0
    6.7037    1.3513   -4.4206 H   0  0  0  0  0  0  0  0  0  0  0  0
    5.0283    1.9135   -4.3889 H   0  0  0  0  0  0  0  0  0  0  0  0
    5.8291    1.3762   -0.0566 H   0  0  0  0  0  0  0  0  0  0  0  0
    3.9318    1.0269    1.4652 H   0  0  0  0  0  0  0  0  0  0  0  0
    1.6664    0.7519    1.8384 H   0  0  0  0  0  0  0  0  0  0  0  0
   -1.3523    2.6931    2.7511 H   0  0  0  0  0  0  0  0  0  0  0  0
   -3.2119    1.9254    4.1722 H   0  0  0  0  0  0  0  0  0  0  0  0
   -4.2743   -0.2768    3.7475 H   0  0  0  0  0  0  0  0  0  0  0  0
   -3.4578   -1.7153    1.9368 H   0  0  0  0  0  0  0  0  0  0  0  0
   -2.1690   -2.6979   -1.0695 H   0  0  0  0  0  0  0  0  0  0  0  0
   -3.4533   -1.8700   -0.2326 H   0  0  0  0  0  0  0  0  0  0  0  0
   -1.6655   -0.6892   -2.4311 H   0  0  0  0  0  0  0  0  0  0  0  0
   -3.2835   -1.3170   -2.7059 H   0  0  0  0  0  0  0  0  0  0  0  0
   -3.3478    2.4425   -2.5978 H   0  0  0  0  0  0  0  0  0  0  0  0
   -3.4712    1.0781   -3.7310 H   0  0  0  0  0  0  0  0  0  0  0  0
   -1.9059    1.5371   -3.0231 H   0  0  0  0  0  0  0  0  0  0  0  0
   -4.8164   -0.1017   -0.4615 H   0  0  0  0  0  0  0  0  0  0  0  0
   -5.0044    1.5006   -1.1386 H   0  0  0  0  0  0  0  0  0  0  0  0
   -5.2261    0.0794   -2.1794 H   0  0  0  0  0  0  0  0  0  0  0  0
    1.8165   -1.6910    0.6764 H   0  0  0  0  0  0  0  0  0  0  0  0
    0.2025   -1.2564    4.8496 H   0  0  0  0  0  0  0  0  0  0  0  0
    0.4211   -2.9742    4.3680 H   0  0  0  0  0  0  0  0  0  0  0  0
    1.7116   -2.1141    5.2307 H   0  0  0  0  0  0  0  0  0  0  0  0
    1.3731    0.3196   -1.9465 H   0  0  0  0  0  0  0  0  0  0  0  0
    3.2548    0.6574   -3.4348 H   0  0  0  0  0  0  0  0  0  0  0  0
  1  2  1  0
  2  3  1  0
  3  4  2  0
  4  5  1  0
  5  6  2  0
  6  7  1  0
  7  8  1  0
  8  9  1  0
  9 10  2  0
 10 11  1  0
 11 12  2  0
 12 13  1  0
 13 14  2  0
 14 15  1  0
 15 16  1  0
 16 17  1  0
 17 18  1  0
 18 19  1  0
 18 20  1  0
 15 21  1  0
 21 22  2  0
 21 23  1  0
 23 24  1  0
 24 25  1  0
 25 26  1  0
 25 27  2  0
  6 28  1  0
 28 29  2  0
 29  3  1  0
 23  7  1  0
 14  9  1  0
  1 30  1  0
  1 31  1  0
  1 32  1  0
  4 33  1  0
  5 34  1  0
  7 35  1  0
 10 36  1  0
 11 37  1  0
 12 38  1  0
 13 39  1  0
 16 40  1  0
 16 41  1  0
 17 42  1  0
 17 43  1  0
 19 44  1  0
 19 45  1  0
 19 46  1  0
 20 47  1  0
 20 48  1  0
 20 49  1  0
 23 50  1  0
 26 51  1  0
 26 52  1  0
 26 53  1  0
 28 54  1  0
 29 55  1  0
M  END
$$$$
