
     RDKit          3D

 47 49  0  0  0  0  0  0  0  0999 V2000
   -0.0620    1.4917    1.9016 C   0  0  0  0  0  0  0  0  0  0  0  0
   -0.7094    1.8947    0.6444 N   0  0  0  0  0  0  0  0  0  0  0  0
   -0.9112    3.3484    0.5625 C   0  0  0  0  0  0  0  0  0  0  0  0
   -0.5037    1.1497   -0.5592 C   0  0  0  0  0  0  0  0  0  0  0  0
   -1.6969    1.1431   -1.5418 C   0  0  0  0  0  0  0  0  0  0  0  0
   -2.8447    0.2897   -1.2060 N   0  0  0  0  0  0  0  0  0  0  0  0
   -3.5822    0.6900    0.0037 C   0  0  0  0  0  0  0  0  0  0  0  0
   -3.4884   -0.2961    1.1814 C   0  0  0  0  0  0  0  0  0  0  0  0
   -3.8479   -1.6559    0.7829 N   0  0  0  0  0  0  0  0  0  0  0  0
   -4.3103   -2.5606    1.7069 C   0  0  0  0  0  0  0  0  0  0  0  0
   -4.4650   -2.3462    2.9021 O   0  0  0  0  0  0  0  0  0  0  0  0
   -3.6313   -2.0184   -0.6147 C   0  0  0  0  0  0  0  0  0  0  0  0
   -2.5403   -1.1484   -1.2645 C   0  0  0  0  0  0  0  0  0  0  0  0
    0.6571    0.5098   -0.8588 C   0  0  0  0  0  0  0  0  0  0  0  0
    1.7926    0.5405   -0.0735 N   0  0  0  0  0  0  0  0  0  0  0  0
    2.6438   -0.1667   -0.7399 C   0  0  0  0  0  0  0  0  0  0  0  0
    4.0338   -0.4622   -0.3592 C   0  0  0  0  0  0  0  0  0  0  0  0
    4.5310    0.0614    0.8407 C   0  0  0  0  0  0  0  0  0  0  0  0
    5.8458   -0.2025    1.2285 C   0  0  0  0  0  0  0  0  0  0  0  0
    6.6666   -0.9885    0.4206 C   0  0  0  0  0  0  0  0  0  0  0  0
    6.1763   -1.5121   -0.7755 C   0  0  0  0  0  0  0  0  0  0  0  0
    4.8614   -1.2510   -1.1679 C   0  0  0  0  0  0  0  0  0  0  0  0
    2.2343   -0.7004   -1.9084 O   0  0  0  0  0  0  0  0  0  0  0  0
    0.9356   -0.3235   -2.0739 C   0  0  0  0  0  0  0  0  0  0  0  0
    0.2234   -0.6442   -3.0029 O   0  0  0  0  0  0  0  0  0  0  0  0
   -0.0049    0.4013    1.9884 H   0  0  0  0  0  0  0  0  0  0  0  0
   -0.6534    1.8440    2.7542 H   0  0  0  0  0  0  0  0  0  0  0  0
    0.9423    1.9197    1.9863 H   0  0  0  0  0  0  0  0  0  0  0  0
   -1.2096    3.7560    1.5348 H   0  0  0  0  0  0  0  0  0  0  0  0
   -1.7013    3.6133   -0.1448 H   0  0  0  0  0  0  0  0  0  0  0  0
    0.0160    3.8421    0.2523 H   0  0  0  0  0  0  0  0  0  0  0  0
   -2.0649    2.1697   -1.6577 H   0  0  0  0  0  0  0  0  0  0  0  0
   -1.3783    0.9083   -2.5605 H   0  0  0  0  0  0  0  0  0  0  0  0
   -4.6390    0.7476   -0.2901 H   0  0  0  0  0  0  0  0  0  0  0  0
   -3.3308    1.7017    0.3369 H   0  0  0  0  0  0  0  0  0  0  0  0
   -2.4661   -0.3372    1.5723 H   0  0  0  0  0  0  0  0  0  0  0  0
   -4.1410    0.0269    2.0000 H   0  0  0  0  0  0  0  0  0  0  0  0
   -4.5450   -3.5421    1.2622 H   0  0  0  0  0  0  0  0  0  0  0  0
   -4.5871   -1.8875   -1.1360 H   0  0  0  0  0  0  0  0  0  0  0  0
   -3.3650   -3.0795   -0.6757 H   0  0  0  0  0  0  0  0  0  0  0  0
   -1.5997   -1.3695   -0.7462 H   0  0  0  0  0  0  0  0  0  0  0  0
   -2.4205   -1.4502   -2.3109 H   0  0  0  0  0  0  0  0  0  0  0  0
    3.8997    0.6764    1.4789 H   0  0  0  0  0  0  0  0  0  0  0  0
    6.2295    0.2050    2.1608 H   0  0  0  0  0  0  0  0  0  0  0  0
    7.6908   -1.1936    0.7238 H   0  0  0  0  0  0  0  0  0  0  0  0
    6.8192   -2.1249   -1.4032 H   0  0  0  0  0  0  0  0  0  0  0  0
    4.5002   -1.6695   -2.1041 H   0  0  0  0  0  0  0  0  0  0  0  0
  1  2  1  0
  2  3  1  0
  2  4  1  0
  4  5  1  0
  5  6  1  0
  6  7  1  0
  7  8  1  0
  8  9  1  0
  9 10  1  0
 10 11  2  0
  9 12  1  0
 12 13  1  0
  4 14  2  3
 14 15  1  0
 15 16  2  0
 16 17  1  0
 17 18  2  0
 18 19  1  0
 19 20  2  0
 20 21  1  0
 21 22  2  0
 16 23  1  0
 23 24  1  0
 24 25  2  0
 13  6  1  0
 24 14  1  0
 22 17  1  0
  1 26  1  0
  1 27  1  0
  1 28  1  0
  3 29  1  0
  3 30  1  0
  3 31  1  0
  5 32  1  0
  5 33  1  0
  7 34  1  0
  7 35  1  0
  8 36  1  0
  8 37  1  0
 10 38  1  0
 12 39  1  0
 12 40  1  0
 13 41  1  0
 13 42  1  0
 18 43  1  0
 19 44  1  0
 20 45  1  0
 21 46  1  0
 22 47  1  0
M  END
$$$$
