
     RDKit          3D

 50 53  0  0  0  0  0  0  0  0999 V2000
    6.7887    1.8423    0.2545 C   0  0  0  0  0  0  0  0  0  0  0  0
    6.2868    1.2321    1.5542 C   0  0  0  0  0  0  0  0  0  0  0  0
    5.4340    0.0620    1.3050 N   0  0  0  0  0  0  0  0  0  0  0  0
    6.1220   -1.2283    1.1510 C   0  0  0  0  0  0  0  0  0  0  0  0
    6.0874   -1.7198   -0.2900 C   0  0  0  0  0  0  0  0  0  0  0  0
    4.0487    0.1732    1.2345 C   0  0  0  0  0  0  0  0  0  0  0  0
    3.2014   -0.9455    1.3146 C   0  0  0  0  0  0  0  0  0  0  0  0
    1.8034   -0.8419    1.2435 C   0  0  0  0  0  0  0  0  0  0  0  0
    1.1968    0.4002    1.0790 C   0  0  0  0  0  0  0  0  0  0  0  0
   -0.2595    0.5426    1.0133 C   0  0  0  0  0  0  0  0  0  0  0  0
   -1.0509    0.0819    0.0344 C   0  0  0  0  0  0  0  0  0  0  0  0
   -0.5676   -0.7840   -1.4036 S   0  0  0  0  0  0  0  0  0  0  0  0
   -2.2084   -0.8554   -1.8970 C   0  0  0  0  0  0  0  0  0  0  0  0
   -2.8325   -1.3772   -2.9119 N   0  0  0  0  0  0  0  0  0  0  0  0
   -4.1754   -1.0988   -2.7105 N   0  0  0  0  0  0  0  0  0  0  0  0
   -4.3145   -0.4086   -1.5814 C   0  0  0  0  0  0  0  0  0  0  0  0
   -5.5773    0.0612   -1.0120 C   0  0  0  0  0  0  0  0  0  0  0  0
   -5.7337    1.4199   -0.6894 C   0  0  0  0  0  0  0  0  0  0  0  0
   -6.9355    1.9007   -0.1672 C   0  0  0  0  0  0  0  0  0  0  0  0
   -8.0034    1.0326    0.0282 C   0  0  0  0  0  0  0  0  0  0  0  0
   -7.8713   -0.3163   -0.2979 C   0  0  0  0  0  0  0  0  0  0  0  0
   -6.6641   -0.8186   -0.8142 C   0  0  0  0  0  0  0  0  0  0  0  0
   -6.5830   -2.2807   -1.1677 C   0  0  0  0  0  0  0  0  0  0  0  0
   -3.0631   -0.2518   -1.0400 N   0  0  0  0  0  0  0  0  0  0  0  0
   -2.5251    0.3111    0.0915 C   0  0  0  0  0  0  0  0  0  0  0  0
   -3.1852    0.8786    0.9406 O   0  0  0  0  0  0  0  0  0  0  0  0
    2.0051    1.5309    1.0064 C   0  0  0  0  0  0  0  0  0  0  0  0
    3.4016    1.4117    1.0805 C   0  0  0  0  0  0  0  0  0  0  0  0
    5.9644    2.1245   -0.4073 H   0  0  0  0  0  0  0  0  0  0  0  0
    7.3807    2.7390    0.4632 H   0  0  0  0  0  0  0  0  0  0  0  0
    7.4279    1.1398   -0.2892 H   0  0  0  0  0  0  0  0  0  0  0  0
    5.7728    1.9873    2.1600 H   0  0  0  0  0  0  0  0  0  0  0  0
    7.1522    0.9369    2.1611 H   0  0  0  0  0  0  0  0  0  0  0  0
    5.7095   -1.9812    1.8317 H   0  0  0  0  0  0  0  0  0  0  0  0
    7.1750   -1.1305    1.4437 H   0  0  0  0  0  0  0  0  0  0  0  0
    5.0667   -1.9069   -0.6360 H   0  0  0  0  0  0  0  0  0  0  0  0
    6.6475   -2.6561   -0.3805 H   0  0  0  0  0  0  0  0  0  0  0  0
    6.5385   -0.9897   -0.9689 H   0  0  0  0  0  0  0  0  0  0  0  0
    3.6075   -1.9432    1.4493 H   0  0  0  0  0  0  0  0  0  0  0  0
    1.2072   -1.7475    1.3232 H   0  0  0  0  0  0  0  0  0  0  0  0
   -0.6934    1.0949    1.8465 H   0  0  0  0  0  0  0  0  0  0  0  0
   -4.9208    2.1257   -0.8457 H   0  0  0  0  0  0  0  0  0  0  0  0
   -7.0370    2.9539    0.0817 H   0  0  0  0  0  0  0  0  0  0  0  0
   -8.9422    1.4054    0.4296 H   0  0  0  0  0  0  0  0  0  0  0  0
   -8.7217   -0.9785   -0.1478 H   0  0  0  0  0  0  0  0  0  0  0  0
   -7.4293   -2.8382   -0.7518 H   0  0  0  0  0  0  0  0  0  0  0  0
   -6.5984   -2.4087   -2.2544 H   0  0  0  0  0  0  0  0  0  0  0  0
   -5.6742   -2.7311   -0.7555 H   0  0  0  0  0  0  0  0  0  0  0  0
    1.5688    2.5192    0.8822 H   0  0  0  0  0  0  0  0  0  0  0  0
    3.9727    2.3309    0.9918 H   0  0  0  0  0  0  0  0  0  0  0  0
  1  2  1  0
  2  3  1  0
  3  4  1  0
  4  5  1  0
  3  6  1  0
  6  7  2  0
  7  8  1  0
  8  9  2  0
  9 10  1  0
 10 11  2  3
 11 12  1  0
 12 13  1  0
 13 14  2  0
 14 15  1  0
 15 16  2  0
 16 17  1  0
 17 18  2  0
 18 19  1  0
 19 20  2  0
 20 21  1  0
 21 22  2  0
 22 23  1  0
 16 24  1  0
 24 25  1  0
 25 26  2  0
  9 27  1  0
 27 28  2  0
 28  6  1  0
 25 11  1  0
 24 13  1  0
 22 17  1  0
  1 29  1  0
  1 30  1  0
  1 31  1  0
  2 32  1  0
  2 33  1  0
  4 34  1  0
  4 35  1  0
  5 36  1  0
  5 37  1  0
  5 38  1  0
  7 39  1  0
  8 40  1  0
 10 41  1  0
 18 42  1  0
 19 43  1  0
 20 44  1  0
 21 45  1  0
 23 46  1  0
 23 47  1  0
 23 48  1  0
 27 49  1  0
 28 50  1  0
M  END
$$$$
