
     RDKit          3D

 40 42  0  0  0  0  0  0  0  0999 V2000
    3.9382    2.9938    0.5660 C   0  0  0  0  0  0  0  0  0  0  0  0
    3.1649    2.2554    1.6422 C   0  0  0  0  0  0  0  0  0  0  0  0
    2.2495    1.3287    1.0446 O   0  0  0  0  0  0  0  0  0  0  0  0
    2.7481    0.0933    0.7578 C   0  0  0  0  0  0  0  0  0  0  0  0
    3.8982   -0.2663    0.9692 O   0  0  0  0  0  0  0  0  0  0  0  0
    1.6789   -0.7682    0.1408 C   0  0  0  0  0  0  0  0  0  0  0  0
    0.4666   -0.2270   -0.0625 N   0  0  0  0  0  0  0  0  0  0  0  0
   -0.4717   -1.0160   -0.6094 C   0  0  0  0  0  0  0  0  0  0  0  0
   -1.7672   -0.4760   -0.8598 N   0  0  0  0  0  0  0  0  0  0  0  0
   -2.1990    0.8104   -0.4445 C   0  0  0  0  0  0  0  0  0  0  0  0
   -2.4999    1.7709   -1.4266 C   0  0  0  0  0  0  0  0  0  0  0  0
   -2.8896    3.0640   -1.0746 C   0  0  0  0  0  0  0  0  0  0  0  0
   -2.9785    3.4193    0.2661 C   0  0  0  0  0  0  0  0  0  0  0  0
   -2.6859    2.4796    1.2534 C   0  0  0  0  0  0  0  0  0  0  0  0
   -2.3085    1.1678    0.9148 C   0  0  0  0  0  0  0  0  0  0  0  0
   -2.0164    0.2002    2.0288 C   0  0  0  0  0  0  0  0  0  0  0  0
   -0.2179   -2.3601   -0.9459 C   0  0  0  0  0  0  0  0  0  0  0  0
   -1.1695   -3.2605   -1.4917 C   0  0  0  0  0  0  0  0  0  0  0  0
   -0.8185   -4.5733   -1.7985 C   0  0  0  0  0  0  0  0  0  0  0  0
    0.4793   -5.0037   -1.5618 C   0  0  0  0  0  0  0  0  0  0  0  0
    1.4132   -4.1209   -1.0136 C   0  0  0  0  0  0  0  0  0  0  0  0
    1.0865   -2.8081   -0.6971 C   0  0  0  0  0  0  0  0  0  0  0  0
    2.0297   -2.0306   -0.1661 N   0  0  0  0  0  0  0  0  0  0  0  0
    3.2522    3.4905   -0.1279 H   0  0  0  0  0  0  0  0  0  0  0  0
    4.5979    3.7452    1.0088 H   0  0  0  0  0  0  0  0  0  0  0  0
    4.5447    2.3017   -0.0267 H   0  0  0  0  0  0  0  0  0  0  0  0
    3.8377    1.7540    2.3473 H   0  0  0  0  0  0  0  0  0  0  0  0
    2.5674    2.9681    2.2202 H   0  0  0  0  0  0  0  0  0  0  0  0
   -1.9736   -0.6180   -1.8440 H   0  0  0  0  0  0  0  0  0  0  0  0
   -2.4147    1.5252   -2.4816 H   0  0  0  0  0  0  0  0  0  0  0  0
   -3.1110    3.7950   -1.8474 H   0  0  0  0  0  0  0  0  0  0  0  0
   -3.2714    4.4277    0.5456 H   0  0  0  0  0  0  0  0  0  0  0  0
   -2.7563    2.7737    2.2985 H   0  0  0  0  0  0  0  0  0  0  0  0
   -2.3083   -0.8199    1.7604 H   0  0  0  0  0  0  0  0  0  0  0  0
   -2.5874    0.4590    2.9275 H   0  0  0  0  0  0  0  0  0  0  0  0
   -0.9525    0.2212    2.2823 H   0  0  0  0  0  0  0  0  0  0  0  0
   -2.1960   -2.9437   -1.6637 H   0  0  0  0  0  0  0  0  0  0  0  0
   -1.5557   -5.2562   -2.2134 H   0  0  0  0  0  0  0  0  0  0  0  0
    0.7700   -6.0255   -1.7935 H   0  0  0  0  0  0  0  0  0  0  0  0
    2.4266   -4.4709   -0.8239 H   0  0  0  0  0  0  0  0  0  0  0  0
  1  2  1  0
  2  3  1  0
  3  4  1  0
  4  5  2  0
  4  6  1  0
  6  7  2  0
  7  8  1  0
  8  9  1  0
  9 10  1  0
 10 11  2  0
 11 12  1  0
 12 13  2  0
 13 14  1  0
 14 15  2  0
 15 16  1  0
  8 17  2  0
 17 18  1  0
 18 19  2  0
 19 20  1  0
 20 21  2  0
 21 22  1  0
 22 23  2  0
 23  6  1  0
 15 10  1  0
 22 17  1  0
  1 24  1  0
  1 25  1  0
  1 26  1  0
  2 27  1  0
  2 28  1  0
  9 29  1  0
 11 30  1  0
 12 31  1  0
 13 32  1  0
 14 33  1  0
 16 34  1  0
 16 35  1  0
 16 36  1  0
 18 37  1  0
 19 38  1  0
 20 39  1  0
 21 40  1  0
M  END
$$$$
