
     RDKit          3D

 39 39  0  0  0  0  0  0  0  0999 V2000
   -4.1173   -2.9751    0.4729 C   0  0  0  0  0  0  0  0  0  0  0  0
   -3.5954   -1.7449   -0.0318 O   0  0  0  0  0  0  0  0  0  0  0  0
   -2.7024   -1.1385    0.7968 C   0  0  0  0  0  0  0  0  0  0  0  0
   -2.4117   -1.5405    1.9219 O   0  0  0  0  0  0  0  0  0  0  0  0
   -2.1479    0.1729    0.2101 C   0  0  0  0  0  0  0  0  0  0  0  0
   -2.3080    0.3614   -1.3107 C   0  0  0  0  0  0  0  0  0  0  0  0
   -3.6809    0.9475   -1.6503 C   0  0  0  0  0  0  0  0  0  0  0  0
   -3.9833    1.0712   -3.4439 S   0  0  0  0  0  0  0  0  0  0  0  0
   -2.7895    2.3627   -3.8687 C   0  0  0  0  0  0  0  0  0  0  0  0
   -0.7616    0.3329    0.6692 N   0  0  0  0  0  0  0  0  0  0  0  0
    0.2409   -0.4593    0.1678 C   0  0  0  0  0  0  0  0  0  0  0  0
    0.1018   -1.2408   -0.7640 O   0  0  0  0  0  0  0  0  0  0  0  0
    1.4234   -0.2386    0.8045 N   0  0  0  0  0  0  0  0  0  0  0  0
    2.6012   -1.0256    0.5052 C   0  0  0  0  0  0  0  0  0  0  0  0
    3.8319   -0.4199    1.1393 C   0  0  0  0  0  0  0  0  0  0  0  0
    5.0174   -0.3074    0.4178 C   0  0  0  0  0  0  0  0  0  0  0  0
    6.1301    0.2473    1.0425 C   0  0  0  0  0  0  0  0  0  0  0  0
    6.0372    0.6665    2.3642 C   0  0  0  0  0  0  0  0  0  0  0  0
    4.8230    0.5213    3.0119 C   0  0  0  0  0  0  0  0  0  0  0  0
    3.7208   -0.0069    2.4343 N   0  0  0  0  0  0  0  0  0  0  0  0
   -3.3093   -3.6970    0.6401 H   0  0  0  0  0  0  0  0  0  0  0  0
   -4.6771   -2.7990    1.4003 H   0  0  0  0  0  0  0  0  0  0  0  0
   -4.8072   -3.3909   -0.2711 H   0  0  0  0  0  0  0  0  0  0  0  0
   -2.6968    0.9755    0.7193 H   0  0  0  0  0  0  0  0  0  0  0  0
   -1.5300    1.0475   -1.6692 H   0  0  0  0  0  0  0  0  0  0  0  0
   -2.1656   -0.5896   -1.8354 H   0  0  0  0  0  0  0  0  0  0  0  0
   -3.7952    1.9404   -1.2007 H   0  0  0  0  0  0  0  0  0  0  0  0
   -4.4779    0.3218   -1.2414 H   0  0  0  0  0  0  0  0  0  0  0  0
   -1.7691    1.9771   -3.8150 H   0  0  0  0  0  0  0  0  0  0  0  0
   -2.9717    2.7103   -4.8857 H   0  0  0  0  0  0  0  0  0  0  0  0
   -2.8983    3.2110   -3.1933 H   0  0  0  0  0  0  0  0  0  0  0  0
   -0.6666    0.5009    1.6632 H   0  0  0  0  0  0  0  0  0  0  0  0
    1.4501    0.2793    1.6709 H   0  0  0  0  0  0  0  0  0  0  0  0
    2.4474   -2.0328    0.9105 H   0  0  0  0  0  0  0  0  0  0  0  0
    2.7053   -1.1031   -0.5825 H   0  0  0  0  0  0  0  0  0  0  0  0
    5.0768   -0.6335   -0.6166 H   0  0  0  0  0  0  0  0  0  0  0  0
    7.0665    0.3536    0.4998 H   0  0  0  0  0  0  0  0  0  0  0  0
    6.8880    1.1008    2.8744 H   0  0  0  0  0  0  0  0  0  0  0  0
    4.7009    0.8368    4.0436 H   0  0  0  0  0  0  0  0  0  0  0  0
  1  2  1  0
  2  3  1  0
  3  4  2  0
  3  5  1  0
  5  6  1  0
  6  7  1  0
  7  8  1  0
  8  9  1  0
  5 10  1  0
 10 11  1  0
 11 12  2  0
 11 13  1  0
 13 14  1  0
 14 15  1  0
 15 16  2  0
 16 17  1  0
 17 18  2  0
 18 19  1  0
 19 20  2  0
 20 15  1  0
  1 21  1  0
  1 22  1  0
  1 23  1  0
  5 24  1  0
  6 25  1  0
  6 26  1  0
  7 27  1  0
  7 28  1  0
  9 29  1  0
  9 30  1  0
  9 31  1  0
 10 32  1  0
 13 33  1  0
 14 34  1  0
 14 35  1  0
 16 36  1  0
 17 37  1  0
 18 38  1  0
 19 39  1  0
M  END
$$$$
