
     RDKit          3D

 48 50  0  0  0  0  0  0  0  0999 V2000
    4.4277   -4.2528   -2.0366 C   0  0  0  0  0  0  0  0  0  0  0  0
    4.0288   -3.0950   -1.1750 C   0  0  0  0  0  0  0  0  0  0  0  0
    4.9573   -2.4680   -0.3390 C   0  0  0  0  0  0  0  0  0  0  0  0
    4.6168   -1.3655    0.4717 C   0  0  0  0  0  0  0  0  0  0  0  0
    5.6724   -0.7502    1.3481 C   0  0  0  0  0  0  0  0  0  0  0  0
    3.2930   -0.8772    0.3557 C   0  0  0  0  0  0  0  0  0  0  0  0
    2.5421    0.4752    1.1268 S   0  0  0  0  0  0  0  0  0  0  0  0
    1.0622    0.1257    0.3434 C   0  0  0  0  0  0  0  0  0  0  0  0
   -0.0527    0.9574    0.4858 N   0  0  0  0  0  0  0  0  0  0  0  0
   -1.2715    0.6397   -0.2776 C   0  0  0  0  0  0  0  0  0  0  0  0
   -2.0299   -0.5512    0.3250 C   0  0  0  0  0  0  0  0  0  0  0  0
   -3.2337   -0.9594   -0.5303 C   0  0  0  0  0  0  0  0  0  0  0  0
   -4.2553    0.0926   -0.6718 N   0  0  0  0  0  0  0  0  0  0  0  0
   -5.2011   -0.2811   -1.7258 C   0  0  0  0  0  0  0  0  0  0  0  0
   -4.9890    0.3002    0.5782 C   0  0  0  0  0  0  0  0  0  0  0  0
   -0.1452    1.8254    1.5828 C   0  0  0  0  0  0  0  0  0  0  0  0
    0.2398    1.5161    2.7133 O   0  0  0  0  0  0  0  0  0  0  0  0
   -0.7081    3.1425    1.2891 C   0  0  0  0  0  0  0  0  0  0  0  0
   -0.6839    3.8644    0.1055 C   0  0  0  0  0  0  0  0  0  0  0  0
   -1.3041    5.1457    0.2299 C   0  0  0  0  0  0  0  0  0  0  0  0
   -1.7600    5.3480    1.5066 C   0  0  0  0  0  0  0  0  0  0  0  0
   -2.6229    6.9590    2.0653 Br  0  0  0  0  0  0  0  0  0  0  0  0
   -1.4693    4.0401    2.5427 S   0  0  0  0  0  0  0  0  0  0  0  0
    1.0975   -0.8888   -0.4893 N   0  0  0  0  0  0  0  0  0  0  0  0
    2.3489   -1.4768   -0.4798 C   0  0  0  0  0  0  0  0  0  0  0  0
    2.7231   -2.5961   -1.2418 C   0  0  0  0  0  0  0  0  0  0  0  0
    5.3256   -4.7458   -1.6544 H   0  0  0  0  0  0  0  0  0  0  0  0
    4.6259   -3.9107   -3.0577 H   0  0  0  0  0  0  0  0  0  0  0  0
    3.6324   -5.0005   -2.0634 H   0  0  0  0  0  0  0  0  0  0  0  0
    5.9792   -2.8490   -0.3015 H   0  0  0  0  0  0  0  0  0  0  0  0
    6.2629   -1.5312    1.8362 H   0  0  0  0  0  0  0  0  0  0  0  0
    6.3385   -0.1268    0.7469 H   0  0  0  0  0  0  0  0  0  0  0  0
    5.2396   -0.1331    2.1390 H   0  0  0  0  0  0  0  0  0  0  0  0
   -0.9831    0.4360   -1.3156 H   0  0  0  0  0  0  0  0  0  0  0  0
   -1.9378    1.5078   -0.2967 H   0  0  0  0  0  0  0  0  0  0  0  0
   -1.3630   -1.4209    0.3970 H   0  0  0  0  0  0  0  0  0  0  0  0
   -2.3321   -0.3261    1.3573 H   0  0  0  0  0  0  0  0  0  0  0  0
   -3.6762   -1.8746   -0.1192 H   0  0  0  0  0  0  0  0  0  0  0  0
   -2.8481   -1.2211   -1.5237 H   0  0  0  0  0  0  0  0  0  0  0  0
   -4.6766   -0.3817   -2.6840 H   0  0  0  0  0  0  0  0  0  0  0  0
   -5.9577    0.5005   -1.8631 H   0  0  0  0  0  0  0  0  0  0  0  0
   -5.7142   -1.2209   -1.5055 H   0  0  0  0  0  0  0  0  0  0  0  0
   -5.4781   -0.6174    0.9222 H   0  0  0  0  0  0  0  0  0  0  0  0
   -5.7549    1.0729    0.4477 H   0  0  0  0  0  0  0  0  0  0  0  0
   -4.3259    0.6631    1.3726 H   0  0  0  0  0  0  0  0  0  0  0  0
   -0.2260    3.5034   -0.8093 H   0  0  0  0  0  0  0  0  0  0  0  0
   -1.3889    5.8698   -0.5738 H   0  0  0  0  0  0  0  0  0  0  0  0
    1.9757   -3.0634   -1.8807 H   0  0  0  0  0  0  0  0  0  0  0  0
  1  2  1  0
  2  3  2  0
  3  4  1  0
  4  5  1  0
  4  6  2  0
  6  7  1  0
  7  8  1  0
  8  9  1  0
  9 10  1  0
 10 11  1  0
 11 12  1  0
 12 13  1  0
 13 14  1  0
 13 15  1  0
  9 16  1  0
 16 17  2  0
 16 18  1  0
 18 19  2  0
 19 20  1  0
 20 21  2  0
 21 22  1  0
 21 23  1  0
  8 24  2  0
 24 25  1  0
 25 26  2  0
 26  2  1  0
 25  6  1  0
 23 18  1  0
  1 27  1  0
  1 28  1  0
  1 29  1  0
  3 30  1  0
  5 31  1  0
  5 32  1  0
  5 33  1  0
 10 34  1  0
 10 35  1  0
 11 36  1  0
 11 37  1  0
 12 38  1  0
 12 39  1  0
 14 40  1  0
 14 41  1  0
 14 42  1  0
 15 43  1  0
 15 44  1  0
 15 45  1  0
 19 46  1  0
 20 47  1  0
 26 48  1  0
M  END
$$$$
