
     RDKit          3D

 44 46  0  0  0  0  0  0  0  0999 V2000
   -6.2459    0.8188   -1.9632 C   0  0  0  0  0  0  0  0  0  0  0  0
   -5.4092    0.0955   -0.9487 C   0  0  0  0  0  0  0  0  0  0  0  0
   -5.9616   -0.9353   -0.1849 C   0  0  0  0  0  0  0  0  0  0  0  0
   -5.1757   -1.6282    0.7349 C   0  0  0  0  0  0  0  0  0  0  0  0
   -3.8220   -1.3048    0.9040 C   0  0  0  0  0  0  0  0  0  0  0  0
   -2.9904   -2.0764    1.8916 C   0  0  0  0  0  0  0  0  0  0  0  0
   -3.2541   -0.2809    0.1256 C   0  0  0  0  0  0  0  0  0  0  0  0
   -1.9215   -0.0466    0.3414 O   0  0  0  0  0  0  0  0  0  0  0  0
   -1.3205    1.0414   -0.3566 C   0  0  0  0  0  0  0  0  0  0  0  0
    0.0896    1.1277    0.0895 C   0  0  0  0  0  0  0  0  0  0  0  0
    0.8695    0.4539    0.9959 C   0  0  0  0  0  0  0  0  0  0  0  0
    2.1538    1.0575    0.9031 C   0  0  0  0  0  0  0  0  0  0  0  0
    3.3312    0.6869    1.7081 C   0  0  0  0  0  0  0  0  0  0  0  0
    3.1556    0.1018    2.7806 O   0  0  0  0  0  0  0  0  0  0  0  0
    4.6317    0.9867    1.2603 N   0  0  0  0  0  0  0  0  0  0  0  0
    5.7353    0.4680    2.0512 C   0  0  0  0  0  0  0  0  0  0  0  0
    4.9516    1.3474   -0.1259 C   0  0  0  0  0  0  0  0  0  0  0  0
    4.6757    0.2151   -1.0811 C   0  0  0  0  0  0  0  0  0  0  0  0
    4.5586   -1.0576   -0.7502 N   0  0  0  0  0  0  0  0  0  0  0  0
    4.2809   -1.8107   -1.8720 C   0  0  0  0  0  0  0  0  0  0  0  0
    4.2081   -1.1099   -3.0553 C   0  0  0  0  0  0  0  0  0  0  0  0
    4.4978    0.5525   -2.7633 S   0  0  0  0  0  0  0  0  0  0  0  0
    2.1225    2.0638    0.0124 N   0  0  0  0  0  0  0  0  0  0  0  0
    0.8427    2.0918   -0.5024 O   0  0  0  0  0  0  0  0  0  0  0  0
   -4.0495    0.4071   -0.7983 C   0  0  0  0  0  0  0  0  0  0  0  0
   -6.1698    0.3207   -2.9347 H   0  0  0  0  0  0  0  0  0  0  0  0
   -7.2977    0.8417   -1.6584 H   0  0  0  0  0  0  0  0  0  0  0  0
   -5.9171    1.8582   -2.0693 H   0  0  0  0  0  0  0  0  0  0  0  0
   -7.0088   -1.2070   -0.2998 H   0  0  0  0  0  0  0  0  0  0  0  0
   -5.6267   -2.4266    1.3201 H   0  0  0  0  0  0  0  0  0  0  0  0
   -2.4668   -1.3943    2.5696 H   0  0  0  0  0  0  0  0  0  0  0  0
   -2.2588   -2.6960    1.3636 H   0  0  0  0  0  0  0  0  0  0  0  0
   -3.6098   -2.7352    2.5087 H   0  0  0  0  0  0  0  0  0  0  0  0
   -1.3446    0.8583   -1.4369 H   0  0  0  0  0  0  0  0  0  0  0  0
   -1.8310    1.9810   -0.1149 H   0  0  0  0  0  0  0  0  0  0  0  0
    0.5728   -0.3660    1.6334 H   0  0  0  0  0  0  0  0  0  0  0  0
    6.0019   -0.5280    1.6860 H   0  0  0  0  0  0  0  0  0  0  0  0
    5.4725    0.3988    3.1103 H   0  0  0  0  0  0  0  0  0  0  0  0
    6.5954    1.1381    1.9584 H   0  0  0  0  0  0  0  0  0  0  0  0
    4.4123    2.2562   -0.4019 H   0  0  0  0  0  0  0  0  0  0  0  0
    6.0165    1.6049   -0.1800 H   0  0  0  0  0  0  0  0  0  0  0  0
    4.1385   -2.8800   -1.7696 H   0  0  0  0  0  0  0  0  0  0  0  0
    4.0047   -1.4844   -4.0476 H   0  0  0  0  0  0  0  0  0  0  0  0
   -3.6378    1.1942   -1.4218 H   0  0  0  0  0  0  0  0  0  0  0  0
  1  2  1  0
  2  3  2  0
  3  4  1  0
  4  5  2  0
  5  6  1  0
  5  7  1  0
  7  8  1  0
  8  9  1  0
  9 10  1  0
 10 11  2  0
 11 12  1  0
 12 13  1  0
 13 14  2  0
 13 15  1  0
 15 16  1  0
 15 17  1  0
 17 18  1  0
 18 19  2  0
 19 20  1  0
 20 21  2  0
 21 22  1  0
 12 23  2  0
 23 24  1  0
  7 25  2  0
 25  2  1  0
 24 10  1  0
 22 18  1  0
  1 26  1  0
  1 27  1  0
  1 28  1  0
  3 29  1  0
  4 30  1  0
  6 31  1  0
  6 32  1  0
  6 33  1  0
  9 34  1  0
  9 35  1  0
 11 36  1  0
 16 37  1  0
 16 38  1  0
 16 39  1  0
 17 40  1  0
 17 41  1  0
 20 42  1  0
 21 43  1  0
 25 44  1  0
M  END
$$$$
