
     RDKit          3D

 40 42  0  0  0  0  0  0  0  0999 V2000
    2.4734    3.1623    2.4924 C   0  0  0  0  0  0  0  0  0  0  0  0
    1.7292    3.9101    1.3989 C   0  0  0  0  0  0  0  0  0  0  0  0
   -0.0603    3.5567    1.4309 S   0  0  0  0  0  0  0  0  0  0  0  0
   -0.1198    1.9181    0.7175 C   0  0  0  0  0  0  0  0  0  0  0  0
   -1.2918    1.2012    0.8199 C   0  0  0  0  0  0  0  0  0  0  0  0
   -1.3205   -0.0554    0.2480 C   0  0  0  0  0  0  0  0  0  0  0  0
   -2.4887   -0.8394    0.3406 N   0  0  0  0  0  0  0  0  0  0  0  0
   -2.2992   -2.2298   -0.1350 C   0  0  0  0  0  0  0  0  0  0  0  0
   -3.5894   -3.0342    0.0847 C   0  0  0  0  0  0  0  0  0  0  0  0
   -4.7069   -2.4218   -0.5798 O   0  0  0  0  0  0  0  0  0  0  0  0
   -4.9114   -1.0928   -0.0765 C   0  0  0  0  0  0  0  0  0  0  0  0
   -3.6715   -0.2075   -0.2889 C   0  0  0  0  0  0  0  0  0  0  0  0
   -0.2292   -0.5548   -0.3548 N   0  0  0  0  0  0  0  0  0  0  0  0
    0.8737    0.2136   -0.4189 C   0  0  0  0  0  0  0  0  0  0  0  0
    2.0634   -0.3447   -1.0963 C   0  0  0  0  0  0  0  0  0  0  0  0
    2.0513   -1.6372   -1.6590 C   0  0  0  0  0  0  0  0  0  0  0  0
    3.1764   -2.1694   -2.3001 C   0  0  0  0  0  0  0  0  0  0  0  0
    4.3408   -1.4147   -2.3913 C   0  0  0  0  0  0  0  0  0  0  0  0
    5.7250   -2.0651   -3.1779 Cl  0  0  0  0  0  0  0  0  0  0  0  0
    4.3892   -0.1356   -1.8477 C   0  0  0  0  0  0  0  0  0  0  0  0
    3.2609    0.3910   -1.2075 C   0  0  0  0  0  0  0  0  0  0  0  0
    0.9677    1.4500    0.0915 N   0  0  0  0  0  0  0  0  0  0  0  0
    2.0861    3.4162    3.4849 H   0  0  0  0  0  0  0  0  0  0  0  0
    2.4140    2.0770    2.3651 H   0  0  0  0  0  0  0  0  0  0  0  0
    3.5334    3.4371    2.4722 H   0  0  0  0  0  0  0  0  0  0  0  0
    2.1529    3.6964    0.4129 H   0  0  0  0  0  0  0  0  0  0  0  0
    1.8463    4.9862    1.5656 H   0  0  0  0  0  0  0  0  0  0  0  0
   -2.1456    1.5987    1.3516 H   0  0  0  0  0  0  0  0  0  0  0  0
   -1.4850   -2.7200    0.4122 H   0  0  0  0  0  0  0  0  0  0  0  0
   -2.0612   -2.2302   -1.2071 H   0  0  0  0  0  0  0  0  0  0  0  0
   -3.4730   -4.0427   -0.3245 H   0  0  0  0  0  0  0  0  0  0  0  0
   -3.8187   -3.1301    1.1528 H   0  0  0  0  0  0  0  0  0  0  0  0
   -5.1743   -1.1520    0.9866 H   0  0  0  0  0  0  0  0  0  0  0  0
   -5.7672   -0.6653   -0.6086 H   0  0  0  0  0  0  0  0  0  0  0  0
   -3.8805    0.7793    0.1377 H   0  0  0  0  0  0  0  0  0  0  0  0
   -3.4913   -0.0891   -1.3654 H   0  0  0  0  0  0  0  0  0  0  0  0
    1.1506   -2.2470   -1.6001 H   0  0  0  0  0  0  0  0  0  0  0  0
    3.1319   -3.1695   -2.7225 H   0  0  0  0  0  0  0  0  0  0  0  0
    5.2959    0.4594   -1.9157 H   0  0  0  0  0  0  0  0  0  0  0  0
    3.3235    1.3951   -0.7899 H   0  0  0  0  0  0  0  0  0  0  0  0
  1  2  1  0
  2  3  1  0
  3  4  1  0
  4  5  2  0
  5  6  1  0
  6  7  1  0
  7  8  1  0
  8  9  1  0
  9 10  1  0
 10 11  1  0
 11 12  1  0
  6 13  2  0
 13 14  1  0
 14 15  1  0
 15 16  2  0
 16 17  1  0
 17 18  2  0
 18 19  1  0
 18 20  1  0
 20 21  2  0
 14 22  2  0
 22  4  1  0
 12  7  1  0
 21 15  1  0
  1 23  1  0
  1 24  1  0
  1 25  1  0
  2 26  1  0
  2 27  1  0
  5 28  1  0
  8 29  1  0
  8 30  1  0
  9 31  1  0
  9 32  1  0
 11 33  1  0
 11 34  1  0
 12 35  1  0
 12 36  1  0
 16 37  1  0
 17 38  1  0
 20 39  1  0
 21 40  1  0
M  END
$$$$
