
     RDKit          3D

 47 49  0  0  0  0  0  0  0  0999 V2000
   -5.2076   -0.7741   -3.6997 C   0  0  0  0  0  0  0  0  0  0  0  0
   -5.3488   -0.1520   -2.4311 O   0  0  0  0  0  0  0  0  0  0  0  0
   -4.6171   -0.6637   -1.3878 C   0  0  0  0  0  0  0  0  0  0  0  0
   -3.8274   -1.8151   -1.4669 C   0  0  0  0  0  0  0  0  0  0  0  0
   -3.1201   -2.2661   -0.3492 C   0  0  0  0  0  0  0  0  0  0  0  0
   -3.1881   -1.5680    0.8578 C   0  0  0  0  0  0  0  0  0  0  0  0
   -2.4814   -2.0454    2.0497 C   0  0  0  0  0  0  0  0  0  0  0  0
   -1.1531   -2.0896    2.2278 C   0  0  0  0  0  0  0  0  0  0  0  0
   -0.4425   -2.6748    3.6884 S   0  0  0  0  0  0  0  0  0  0  0  0
    1.1979   -2.3877    3.1274 C   0  0  0  0  0  0  0  0  0  0  0  0
    2.5275   -2.7073    4.0822 S   0  0  0  0  0  0  0  0  0  0  0  0
    1.1704   -1.8832    1.8451 N   0  0  0  0  0  0  0  0  0  0  0  0
    2.3569   -1.5021    1.0711 C   0  0  0  0  0  0  0  0  0  0  0  0
    2.7126   -0.0328    1.2676 C   0  0  0  0  0  0  0  0  0  0  0  0
    3.9343    0.3445    0.4589 C   0  0  0  0  0  0  0  0  0  0  0  0
    4.5436   -0.4708   -0.2308 O   0  0  0  0  0  0  0  0  0  0  0  0
    4.2811    1.6607    0.6177 N   0  0  0  0  0  0  0  0  0  0  0  0
    5.0231    2.2022   -0.2771 C   0  0  0  0  0  0  0  0  0  0  0  0
    5.5627    1.7052   -1.4289 N   0  0  0  0  0  0  0  0  0  0  0  0
    6.6814    2.4588   -1.9541 C   0  0  0  0  0  0  0  0  0  0  0  0
    6.3832    3.9234   -1.6504 C   0  0  0  0  0  0  0  0  0  0  0  0
    5.5116    3.8824   -0.0509 S   0  0  0  0  0  0  0  0  0  0  0  0
   -0.0796   -1.6558    1.2884 C   0  0  0  0  0  0  0  0  0  0  0  0
   -0.2733   -1.1529    0.1913 O   0  0  0  0  0  0  0  0  0  0  0  0
   -3.9857   -0.4201    0.9458 C   0  0  0  0  0  0  0  0  0  0  0  0
   -4.6976    0.0405   -0.1694 C   0  0  0  0  0  0  0  0  0  0  0  0
   -5.5017    1.1544   -0.1697 O   0  0  0  0  0  0  0  0  0  0  0  0
   -5.5149    1.9588    1.0004 C   0  0  0  0  0  0  0  0  0  0  0  0
   -4.1692   -0.7393   -4.0459 H   0  0  0  0  0  0  0  0  0  0  0  0
   -5.8151   -0.2133   -4.4166 H   0  0  0  0  0  0  0  0  0  0  0  0
   -5.5846   -1.8018   -3.6785 H   0  0  0  0  0  0  0  0  0  0  0  0
   -3.7397   -2.3869   -2.3842 H   0  0  0  0  0  0  0  0  0  0  0  0
   -2.5120   -3.1634   -0.4369 H   0  0  0  0  0  0  0  0  0  0  0  0
   -3.1455   -2.3755    2.8471 H   0  0  0  0  0  0  0  0  0  0  0  0
    2.1563   -1.6964    0.0098 H   0  0  0  0  0  0  0  0  0  0  0  0
    3.2003   -2.1431    1.3491 H   0  0  0  0  0  0  0  0  0  0  0  0
    1.8796    0.6066    0.9536 H   0  0  0  0  0  0  0  0  0  0  0  0
    2.9183    0.1739    2.3237 H   0  0  0  0  0  0  0  0  0  0  0  0
    5.6124    0.6870   -1.4637 H   0  0  0  0  0  0  0  0  0  0  0  0
    6.7974    2.2929   -3.0293 H   0  0  0  0  0  0  0  0  0  0  0  0
    7.6069    2.1402   -1.4597 H   0  0  0  0  0  0  0  0  0  0  0  0
    5.7076    4.3462   -2.4009 H   0  0  0  0  0  0  0  0  0  0  0  0
    7.2910    4.5302   -1.6022 H   0  0  0  0  0  0  0  0  0  0  0  0
   -4.0380    0.1016    1.8955 H   0  0  0  0  0  0  0  0  0  0  0  0
   -6.1531    2.8256    0.8033 H   0  0  0  0  0  0  0  0  0  0  0  0
   -4.5130    2.3315    1.2380 H   0  0  0  0  0  0  0  0  0  0  0  0
   -5.9468    1.4147    1.8466 H   0  0  0  0  0  0  0  0  0  0  0  0
  1  2  1  0
  2  3  1  0
  3  4  2  0
  4  5  1  0
  5  6  2  0
  6  7  1  0
  7  8  2  3
  8  9  1  0
  9 10  1  0
 10 11  2  0
 10 12  1  0
 12 13  1  0
 13 14  1  0
 14 15  1  0
 15 16  2  0
 15 17  1  0
 17 18  2  3
 18 19  1  0
 19 20  1  0
 20 21  1  0
 21 22  1  0
 12 23  1  0
 23 24  2  0
  6 25  1  0
 25 26  2  0
 26 27  1  0
 27 28  1  0
 26  3  1  0
 23  8  1  0
 22 18  1  0
  1 29  1  0
  1 30  1  0
  1 31  1  0
  4 32  1  0
  5 33  1  0
  7 34  1  0
 13 35  1  0
 13 36  1  0
 14 37  1  0
 14 38  1  0
 19 39  1  0
 20 40  1  0
 20 41  1  0
 21 42  1  0
 21 43  1  0
 25 44  1  0
 28 45  1  0
 28 46  1  0
 28 47  1  0
M  END
$$$$
