
     RDKit          3D

 48 48  0  0  0  0  0  0  0  0999 V2000
    3.2031    0.1329   -1.6595 C   0  0  0  0  0  0  0  0  0  0  0  0
    3.3328    0.2593   -0.1367 C   0  0  0  0  0  0  0  0  0  0  0  0
    2.5605    1.4899    0.3753 C   0  0  0  0  0  0  0  0  0  0  0  0
    1.1245    1.3604    0.2140 N   0  0  0  0  0  0  0  0  0  0  0  0
    0.3665    0.6359    1.1125 C   0  0  0  0  0  0  0  0  0  0  0  0
    0.8304    0.1116    2.1189 O   0  0  0  0  0  0  0  0  0  0  0  0
   -1.0758    0.4757    0.7804 C   0  0  0  0  0  0  0  0  0  0  0  0
   -1.7796    1.4273    0.0384 C   0  0  0  0  0  0  0  0  0  0  0  0
   -3.1375    1.2349   -0.2506 C   0  0  0  0  0  0  0  0  0  0  0  0
   -3.8277    0.0954    0.1972 C   0  0  0  0  0  0  0  0  0  0  0  0
   -5.3184   -0.1454   -0.1029 C   0  0  0  0  0  0  0  0  0  0  0  0
   -5.9715    0.9653   -0.9562 C   0  0  0  0  0  0  0  0  0  0  0  0
   -6.1073   -0.2276    1.2217 C   0  0  0  0  0  0  0  0  0  0  0  0
   -5.4851   -1.4712   -0.8767 C   0  0  0  0  0  0  0  0  0  0  0  0
   -3.1014   -0.8417    0.9582 C   0  0  0  0  0  0  0  0  0  0  0  0
   -1.7466   -0.6539    1.2508 C   0  0  0  0  0  0  0  0  0  0  0  0
    4.8114    0.3796    0.3014 C   0  0  0  0  0  0  0  0  0  0  0  0
    5.6838   -0.7210   -0.1491 N   0  0  0  0  0  0  0  0  0  0  0  0
    7.0850   -0.3985    0.1350 C   0  0  0  0  0  0  0  0  0  0  0  0
    5.3331   -1.9911    0.4924 C   0  0  0  0  0  0  0  0  0  0  0  0
    3.7125   -0.7627   -2.0290 H   0  0  0  0  0  0  0  0  0  0  0  0
    3.6351    1.0022   -2.1668 H   0  0  0  0  0  0  0  0  0  0  0  0
    2.1537    0.0525   -1.9613 H   0  0  0  0  0  0  0  0  0  0  0  0
    2.8927   -0.6363    0.3176 H   0  0  0  0  0  0  0  0  0  0  0  0
    2.8646    2.3943   -0.1634 H   0  0  0  0  0  0  0  0  0  0  0  0
    2.7672    1.6500    1.4400 H   0  0  0  0  0  0  0  0  0  0  0  0
    0.7328    1.5769   -0.6922 H   0  0  0  0  0  0  0  0  0  0  0  0
   -1.2996    2.3406   -0.3009 H   0  0  0  0  0  0  0  0  0  0  0  0
   -3.6381    2.0081   -0.8276 H   0  0  0  0  0  0  0  0  0  0  0  0
   -5.4816    1.0651   -1.9318 H   0  0  0  0  0  0  0  0  0  0  0  0
   -7.0289    0.7464   -1.1474 H   0  0  0  0  0  0  0  0  0  0  0  0
   -5.9310    1.9381   -0.4523 H   0  0  0  0  0  0  0  0  0  0  0  0
   -5.7811   -1.0657    1.8471 H   0  0  0  0  0  0  0  0  0  0  0  0
   -5.9857    0.6892    1.8107 H   0  0  0  0  0  0  0  0  0  0  0  0
   -7.1790   -0.3648    1.0356 H   0  0  0  0  0  0  0  0  0  0  0  0
   -4.9099   -1.4580   -1.8101 H   0  0  0  0  0  0  0  0  0  0  0  0
   -5.1482   -2.3363   -0.2951 H   0  0  0  0  0  0  0  0  0  0  0  0
   -6.5357   -1.6489   -1.1348 H   0  0  0  0  0  0  0  0  0  0  0  0
   -3.5844   -1.7384    1.3415 H   0  0  0  0  0  0  0  0  0  0  0  0
   -1.2171   -1.3955    1.8458 H   0  0  0  0  0  0  0  0  0  0  0  0
    5.1992    1.3219   -0.1100 H   0  0  0  0  0  0  0  0  0  0  0  0
    4.8617    0.4744    1.3948 H   0  0  0  0  0  0  0  0  0  0  0  0
    7.7458   -1.1903   -0.2355 H   0  0  0  0  0  0  0  0  0  0  0  0
    7.3818    0.5206   -0.3826 H   0  0  0  0  0  0  0  0  0  0  0  0
    7.2702   -0.2670    1.2074 H   0  0  0  0  0  0  0  0  0  0  0  0
    6.0167   -2.7851    0.1702 H   0  0  0  0  0  0  0  0  0  0  0  0
    4.3318   -2.3214    0.1995 H   0  0  0  0  0  0  0  0  0  0  0  0
    5.3743   -1.9276    1.5858 H   0  0  0  0  0  0  0  0  0  0  0  0
  1  2  1  0
  2  3  1  0
  3  4  1  0
  4  5  1  0
  5  6  2  0
  5  7  1  0
  7  8  2  0
  8  9  1  0
  9 10  2  0
 10 11  1  0
 11 12  1  0
 11 13  1  0
 11 14  1  0
 10 15  1  0
 15 16  2  0
  2 17  1  0
 17 18  1  0
 18 19  1  0
 18 20  1  0
 16  7  1  0
  1 21  1  0
  1 22  1  0
  1 23  1  0
  2 24  1  0
  3 25  1  0
  3 26  1  0
  4 27  1  0
  8 28  1  0
  9 29  1  0
 12 30  1  0
 12 31  1  0
 12 32  1  0
 13 33  1  0
 13 34  1  0
 13 35  1  0
 14 36  1  0
 14 37  1  0
 14 38  1  0
 15 39  1  0
 16 40  1  0
 17 41  1  0
 17 42  1  0
 19 43  1  0
 19 44  1  0
 19 45  1  0
 20 46  1  0
 20 47  1  0
 20 48  1  0
M  END
$$$$
