
     RDKit          3D

 63 66  0  0  0  0  0  0  0  0999 V2000
    7.7881   -1.1263   -2.0721 C   0  0  0  0  0  0  0  0  0  0  0  0
    6.4628   -0.7275   -1.4163 C   0  0  0  0  0  0  0  0  0  0  0  0
    6.0319    0.6810   -1.8751 C   0  0  0  0  0  0  0  0  0  0  0  0
    4.7098    1.0436   -1.3903 N   0  0  0  0  0  0  0  0  0  0  0  0
    3.5711    0.6148   -2.0409 C   0  0  0  0  0  0  0  0  0  0  0  0
    3.5961   -0.0014   -3.1008 O   0  0  0  0  0  0  0  0  0  0  0  0
    2.2700    0.8998   -1.3700 C   0  0  0  0  0  0  0  0  0  0  0  0
    2.1182    1.9222   -0.4284 C   0  0  0  0  0  0  0  0  0  0  0  0
    0.8714    2.1425    0.1660 C   0  0  0  0  0  0  0  0  0  0  0  0
   -0.2376    1.3621   -0.1754 C   0  0  0  0  0  0  0  0  0  0  0  0
   -1.3849    1.6984    0.4846 O   0  0  0  0  0  0  0  0  0  0  0  0
   -2.6012    1.0059    0.1801 C   0  0  0  0  0  0  0  0  0  0  0  0
   -3.5301    1.1550    1.3962 C   0  0  0  0  0  0  0  0  0  0  0  0
   -5.0159    1.1289    1.0245 C   0  0  0  0  0  0  0  0  0  0  0  0
   -5.2292    0.2974   -0.1653 N   0  0  0  0  0  0  0  0  0  0  0  0
   -6.6677    0.0621   -0.4188 C   0  0  0  0  0  0  0  0  0  0  0  0
   -7.3454   -0.8269    0.6100 C   0  0  0  0  0  0  0  0  0  0  0  0
   -6.8874   -2.1269    0.8259 C   0  0  0  0  0  0  0  0  0  0  0  0
   -7.5358   -2.9222    1.7658 C   0  0  0  0  0  0  0  0  0  0  0  0
   -8.6208   -2.4051    2.4620 C   0  0  0  0  0  0  0  0  0  0  0  0
   -9.0122   -1.1051    2.1903 C   0  0  0  0  0  0  0  0  0  0  0  0
   -8.4040   -0.3080    1.2844 N   0  0  0  0  0  0  0  0  0  0  0  0
   -4.6014    0.9043   -1.3515 C   0  0  0  0  0  0  0  0  0  0  0  0
   -3.2762    1.6095   -1.0491 C   0  0  0  0  0  0  0  0  0  0  0  0
   -0.0895    0.3534   -1.1257 C   0  0  0  0  0  0  0  0  0  0  0  0
    1.1574    0.1255   -1.7215 C   0  0  0  0  0  0  0  0  0  0  0  0
    6.5389   -0.8201    0.1022 C   0  0  0  0  0  0  0  0  0  0  0  0
    7.4944   -0.1054    0.8413 C   0  0  0  0  0  0  0  0  0  0  0  0
    7.5243   -0.1888    2.2350 C   0  0  0  0  0  0  0  0  0  0  0  0
    6.5993   -0.9838    2.9075 C   0  0  0  0  0  0  0  0  0  0  0  0
    5.6440   -1.6967    2.1876 C   0  0  0  0  0  0  0  0  0  0  0  0
    5.6133   -1.6156    0.7943 C   0  0  0  0  0  0  0  0  0  0  0  0
    7.6809   -1.1604   -3.1618 H   0  0  0  0  0  0  0  0  0  0  0  0
    8.1093   -2.1185   -1.7358 H   0  0  0  0  0  0  0  0  0  0  0  0
    8.5911   -0.4186   -1.8415 H   0  0  0  0  0  0  0  0  0  0  0  0
    5.7102   -1.4466   -1.7675 H   0  0  0  0  0  0  0  0  0  0  0  0
    6.7231    1.4489   -1.5107 H   0  0  0  0  0  0  0  0  0  0  0  0
    6.0257    0.7334   -2.9700 H   0  0  0  0  0  0  0  0  0  0  0  0
    4.6436    1.2792   -0.4091 H   0  0  0  0  0  0  0  0  0  0  0  0
    2.9432    2.5748   -0.1600 H   0  0  0  0  0  0  0  0  0  0  0  0
    0.7589    2.9400    0.8977 H   0  0  0  0  0  0  0  0  0  0  0  0
   -2.4182   -0.0672    0.0436 H   0  0  0  0  0  0  0  0  0  0  0  0
   -3.3139    2.0811    1.9427 H   0  0  0  0  0  0  0  0  0  0  0  0
   -3.3081    0.3403    2.0967 H   0  0  0  0  0  0  0  0  0  0  0  0
   -5.3775    2.1516    0.8500 H   0  0  0  0  0  0  0  0  0  0  0  0
   -5.5659    0.7468    1.8925 H   0  0  0  0  0  0  0  0  0  0  0  0
   -6.7923   -0.4392   -1.3882 H   0  0  0  0  0  0  0  0  0  0  0  0
   -7.2066    1.0166   -0.4887 H   0  0  0  0  0  0  0  0  0  0  0  0
   -6.0337   -2.5080    0.2745 H   0  0  0  0  0  0  0  0  0  0  0  0
   -7.1956   -3.9370    1.9521 H   0  0  0  0  0  0  0  0  0  0  0  0
   -9.1475   -2.9998    3.1997 H   0  0  0  0  0  0  0  0  0  0  0  0
   -9.8542   -0.6556    2.7087 H   0  0  0  0  0  0  0  0  0  0  0  0
   -4.4203    0.1072   -2.0830 H   0  0  0  0  0  0  0  0  0  0  0  0
   -5.2681    1.6323   -1.8321 H   0  0  0  0  0  0  0  0  0  0  0  0
   -2.6222    1.5650   -1.9267 H   0  0  0  0  0  0  0  0  0  0  0  0
   -3.4533    2.6790   -0.8716 H   0  0  0  0  0  0  0  0  0  0  0  0
   -0.9170   -0.2748   -1.4363 H   0  0  0  0  0  0  0  0  0  0  0  0
    1.2571   -0.6630   -2.4658 H   0  0  0  0  0  0  0  0  0  0  0  0
    8.2250    0.5249    0.3411 H   0  0  0  0  0  0  0  0  0  0  0  0
    8.2705    0.3675    2.7962 H   0  0  0  0  0  0  0  0  0  0  0  0
    6.6248   -1.0497    3.9921 H   0  0  0  0  0  0  0  0  0  0  0  0
    4.9216   -2.3182    2.7096 H   0  0  0  0  0  0  0  0  0  0  0  0
    4.8576   -2.1789    0.2503 H   0  0  0  0  0  0  0  0  0  0  0  0
  1  2  1  0
  2  3  1  0
  3  4  1  0
  4  5  1  0
  5  6  2  0
  5  7  1  0
  7  8  2  0
  8  9  1  0
  9 10  2  0
 10 11  1  0
 11 12  1  0
 12 13  1  0
 13 14  1  0
 14 15  1  0
 15 16  1  0
 16 17  1  0
 17 18  2  0
 18 19  1  0
 19 20  2  0
 20 21  1  0
 21 22  2  0
 15 23  1  0
 23 24  1  0
 10 25  1  0
 25 26  2  0
  2 27  1  0
 27 28  2  0
 28 29  1  0
 29 30  2  0
 30 31  1  0
 31 32  2  0
 26  7  1  0
 32 27  1  0
 24 12  1  0
 22 17  1  0
  1 33  1  0
  1 34  1  0
  1 35  1  0
  2 36  1  0
  3 37  1  0
  3 38  1  0
  4 39  1  0
  8 40  1  0
  9 41  1  0
 12 42  1  0
 13 43  1  0
 13 44  1  0
 14 45  1  0
 14 46  1  0
 16 47  1  0
 16 48  1  0
 18 49  1  0
 19 50  1  0
 20 51  1  0
 21 52  1  0
 23 53  1  0
 23 54  1  0
 24 55  1  0
 24 56  1  0
 25 57  1  0
 26 58  1  0
 28 59  1  0
 29 60  1  0
 30 61  1  0
 31 62  1  0
 32 63  1  0
M  END
$$$$
