
     RDKit          3D

 51 53  0  0  0  0  0  0  0  0999 V2000
   -7.1399    2.6052   -1.8544 C   0  0  0  0  0  0  0  0  0  0  0  0
   -5.8846    1.7855   -1.7192 C   0  0  0  0  0  0  0  0  0  0  0  0
   -5.8909    0.4817   -2.2363 C   0  0  0  0  0  0  0  0  0  0  0  0
   -4.7626   -0.3215   -2.1446 C   0  0  0  0  0  0  0  0  0  0  0  0
   -3.6087    0.1632   -1.5333 C   0  0  0  0  0  0  0  0  0  0  0  0
   -3.5654    1.4558   -0.9998 C   0  0  0  0  0  0  0  0  0  0  0  0
   -2.3914    1.9739   -0.3975 N   0  0  0  0  0  0  0  0  0  0  0  0
   -1.2322    1.2914   -0.0664 C   0  0  0  0  0  0  0  0  0  0  0  0
   -1.0463    0.0780   -0.1548 O   0  0  0  0  0  0  0  0  0  0  0  0
   -0.1523    2.1910    0.5232 C   0  0  0  0  0  0  0  0  0  0  0  0
   -0.0656    1.9111    2.3111 S   0  0  0  0  0  0  0  0  0  0  0  0
    1.1077    0.6134    2.3392 C   0  0  0  0  0  0  0  0  0  0  0  0
    2.2428    0.8520    2.8967 N   0  0  0  0  0  0  0  0  0  0  0  0
    3.1693   -0.1666    2.9425 C   0  0  0  0  0  0  0  0  0  0  0  0
    4.2238   -0.0443    3.5593 O   0  0  0  0  0  0  0  0  0  0  0  0
    2.8844   -1.4551    2.2004 C   0  0  0  0  0  0  0  0  0  0  0  0
    4.0025   -2.4657    2.1893 C   0  0  0  0  0  0  0  0  0  0  0  0
    4.9492   -2.2949    1.0196 C   0  0  0  0  0  0  0  0  0  0  0  0
    4.7945   -3.0571   -0.1478 C   0  0  0  0  0  0  0  0  0  0  0  0
    5.6610   -2.8826   -1.2286 C   0  0  0  0  0  0  0  0  0  0  0  0
    6.6885   -1.9432   -1.1572 C   0  0  0  0  0  0  0  0  0  0  0  0
    6.8521   -1.1780   -0.0047 C   0  0  0  0  0  0  0  0  0  0  0  0
    5.9886   -1.3526    1.0771 C   0  0  0  0  0  0  0  0  0  0  0  0
    1.6565   -1.6024    1.6610 C   0  0  0  0  0  0  0  0  0  0  0  0
    1.1687   -2.8108    0.9130 C   0  0  0  0  0  0  0  0  0  0  0  0
    0.7537   -0.5712    1.7768 N   0  0  0  0  0  0  0  0  0  0  0  0
   -4.7186    2.2818   -1.0846 C   0  0  0  0  0  0  0  0  0  0  0  0
   -4.7032    3.6774   -0.5091 C   0  0  0  0  0  0  0  0  0  0  0  0
   -6.9345    3.5315   -2.4007 H   0  0  0  0  0  0  0  0  0  0  0  0
   -7.9148    2.0665   -2.4110 H   0  0  0  0  0  0  0  0  0  0  0  0
   -7.5502    2.8369   -0.8667 H   0  0  0  0  0  0  0  0  0  0  0  0
   -6.7812    0.0815   -2.7195 H   0  0  0  0  0  0  0  0  0  0  0  0
   -4.7772   -1.3296   -2.5518 H   0  0  0  0  0  0  0  0  0  0  0  0
   -2.7497   -0.4978   -1.5068 H   0  0  0  0  0  0  0  0  0  0  0  0
   -2.4384    2.9383   -0.0992 H   0  0  0  0  0  0  0  0  0  0  0  0
    0.8015    1.9782    0.0312 H   0  0  0  0  0  0  0  0  0  0  0  0
   -0.3827    3.2456    0.3432 H   0  0  0  0  0  0  0  0  0  0  0  0
    3.6014   -3.4865    2.1817 H   0  0  0  0  0  0  0  0  0  0  0  0
    4.5751   -2.4282    3.1258 H   0  0  0  0  0  0  0  0  0  0  0  0
    4.0026   -3.7971   -0.2260 H   0  0  0  0  0  0  0  0  0  0  0  0
    5.5351   -3.4802   -2.1275 H   0  0  0  0  0  0  0  0  0  0  0  0
    7.3621   -1.8081   -1.9980 H   0  0  0  0  0  0  0  0  0  0  0  0
    7.6509   -0.4439    0.0545 H   0  0  0  0  0  0  0  0  0  0  0  0
    6.1329   -0.7465    1.9699 H   0  0  0  0  0  0  0  0  0  0  0  0
    0.9681   -2.5500   -0.1323 H   0  0  0  0  0  0  0  0  0  0  0  0
    1.8739   -3.6444    0.9177 H   0  0  0  0  0  0  0  0  0  0  0  0
    0.2381   -3.1773    1.3588 H   0  0  0  0  0  0  0  0  0  0  0  0
   -0.1079   -0.6289    1.2329 H   0  0  0  0  0  0  0  0  0  0  0  0
   -4.0242    4.3113   -1.0898 H   0  0  0  0  0  0  0  0  0  0  0  0
   -5.6841    4.1595   -0.5112 H   0  0  0  0  0  0  0  0  0  0  0  0
   -4.3786    3.6537    0.5373 H   0  0  0  0  0  0  0  0  0  0  0  0
  1  2  1  0
  2  3  2  0
  3  4  1  0
  4  5  2  0
  5  6  1  0
  6  7  1  0
  7  8  1  0
  8  9  2  0
  8 10  1  0
 10 11  1  0
 11 12  1  0
 12 13  2  0
 13 14  1  0
 14 15  2  0
 14 16  1  0
 16 17  1  0
 17 18  1  0
 18 19  2  0
 19 20  1  0
 20 21  2  0
 21 22  1  0
 22 23  2  0
 16 24  2  0
 24 25  1  0
 24 26  1  0
  6 27  2  0
 27 28  1  0
 27  2  1  0
 26 12  1  0
 23 18  1  0
  1 29  1  0
  1 30  1  0
  1 31  1  0
  3 32  1  0
  4 33  1  0
  5 34  1  0
  7 35  1  0
 10 36  1  0
 10 37  1  0
 17 38  1  0
 17 39  1  0
 19 40  1  0
 20 41  1  0
 21 42  1  0
 22 43  1  0
 23 44  1  0
 25 45  1  0
 25 46  1  0
 25 47  1  0
 26 48  1  0
 28 49  1  0
 28 50  1  0
 28 51  1  0
M  END
$$$$
