
     RDKit          3D

 56 59  0  0  0  0  0  0  0  0999 V2000
    4.9323   -3.3855    1.8588 C   0  0  0  0  0  0  0  0  0  0  0  0
    4.0817   -3.5455    0.7301 O   0  0  0  0  0  0  0  0  0  0  0  0
    3.6933   -2.4073    0.0807 C   0  0  0  0  0  0  0  0  0  0  0  0
    2.8092   -2.6088   -0.9812 C   0  0  0  0  0  0  0  0  0  0  0  0
    2.3362   -1.5297   -1.7379 C   0  0  0  0  0  0  0  0  0  0  0  0
    2.7146   -0.2269   -1.4193 C   0  0  0  0  0  0  0  0  0  0  0  0
    2.3376    0.9165   -2.1965 N   0  0  0  0  0  0  0  0  0  0  0  0
    0.7441    1.0972   -2.7559 S   0  0  0  0  0  6  0  0  0  0  0  0
    0.3953   -0.0619   -3.5515 O   0  0  0  0  0  0  0  0  0  0  0  0
    0.6371    2.4219   -3.3350 O   0  0  0  0  0  0  0  0  0  0  0  0
   -0.2174    1.0756   -1.2553 C   0  0  0  0  0  0  0  0  0  0  0  0
   -1.2671    0.1385   -1.1745 C   0  0  0  0  0  0  0  0  0  0  0  0
   -2.0400    0.0423   -0.0212 C   0  0  0  0  0  0  0  0  0  0  0  0
   -3.1103   -0.8609    0.1456 N   0  0  0  0  0  0  0  0  0  0  0  0
   -3.5832   -1.7706   -0.7784 C   0  0  0  0  0  0  0  0  0  0  0  0
   -3.1575   -2.0143   -1.8979 O   0  0  0  0  0  0  0  0  0  0  0  0
   -4.7256   -2.5547   -0.3027 C   0  0  0  0  0  0  0  0  0  0  0  0
   -4.5046   -3.7936    0.3028 C   0  0  0  0  0  0  0  0  0  0  0  0
   -5.6024   -4.5291    0.7427 C   0  0  0  0  0  0  0  0  0  0  0  0
   -6.8725   -3.9969    0.5549 C   0  0  0  0  0  0  0  0  0  0  0  0
   -7.1113   -2.8020   -0.0338 N   0  0  0  0  0  0  0  0  0  0  0  0
   -6.0286   -2.1092   -0.4637 C   0  0  0  0  0  0  0  0  0  0  0  0
   -6.4321   -0.6004   -1.1843 Cl  0  0  0  0  0  0  0  0  0  0  0  0
   -1.7550    0.8933    1.0476 C   0  0  0  0  0  0  0  0  0  0  0  0
   -0.7150    1.8269    0.9633 C   0  0  0  0  0  0  0  0  0  0  0  0
    0.0887    1.9394   -0.1844 C   0  0  0  0  0  0  0  0  0  0  0  0
    1.1160    2.9044   -0.2643 N   0  0  0  0  0  0  0  0  0  0  0  0
    1.9412    3.1181    0.9447 C   0  0  0  0  0  0  0  0  0  0  0  0
    1.6661    4.5500    1.3842 C   0  0  0  0  0  0  0  0  0  0  0  0
    1.4035    5.2499    0.0665 C   0  0  0  0  0  0  0  0  0  0  0  0
    0.5731    4.2225   -0.6932 C   0  0  0  0  0  0  0  0  0  0  0  0
    3.6407   -0.0326   -0.3886 C   0  0  0  0  0  0  0  0  0  0  0  0
    4.1163   -1.1116    0.3698 C   0  0  0  0  0  0  0  0  0  0  0  0
    4.4449   -2.7877    2.6361 H   0  0  0  0  0  0  0  0  0  0  0  0
    5.1268   -4.3781    2.2747 H   0  0  0  0  0  0  0  0  0  0  0  0
    5.8964   -2.9507    1.5703 H   0  0  0  0  0  0  0  0  0  0  0  0
    2.4919   -3.6176   -1.2381 H   0  0  0  0  0  0  0  0  0  0  0  0
    1.6868   -1.7479   -2.5812 H   0  0  0  0  0  0  0  0  0  0  0  0
    2.6005    1.8207   -1.7931 H   0  0  0  0  0  0  0  0  0  0  0  0
   -1.4595   -0.5059   -2.0276 H   0  0  0  0  0  0  0  0  0  0  0  0
   -3.5794   -0.8254    1.0415 H   0  0  0  0  0  0  0  0  0  0  0  0
   -3.4963   -4.1847    0.4174 H   0  0  0  0  0  0  0  0  0  0  0  0
   -5.4744   -5.4970    1.2226 H   0  0  0  0  0  0  0  0  0  0  0  0
   -7.7591   -4.5364    0.8803 H   0  0  0  0  0  0  0  0  0  0  0  0
   -2.3425    0.8562    1.9612 H   0  0  0  0  0  0  0  0  0  0  0  0
   -0.5571    2.4853    1.8131 H   0  0  0  0  0  0  0  0  0  0  0  0
    1.7759    2.3938    1.7494 H   0  0  0  0  0  0  0  0  0  0  0  0
    2.9924    3.0303    0.6484 H   0  0  0  0  0  0  0  0  0  0  0  0
    0.7771    4.5931    2.0261 H   0  0  0  0  0  0  0  0  0  0  0  0
    2.5091    4.9836    1.9314 H   0  0  0  0  0  0  0  0  0  0  0  0
    0.8841    6.2042    0.1917 H   0  0  0  0  0  0  0  0  0  0  0  0
    2.3483    5.4374   -0.4579 H   0  0  0  0  0  0  0  0  0  0  0  0
   -0.4845    4.3414   -0.4214 H   0  0  0  0  0  0  0  0  0  0  0  0
    0.6727    4.3717   -1.7719 H   0  0  0  0  0  0  0  0  0  0  0  0
    4.0115    0.9635   -0.1632 H   0  0  0  0  0  0  0  0  0  0  0  0
    4.8296   -0.9052    1.1639 H   0  0  0  0  0  0  0  0  0  0  0  0
  1  2  1  0
  2  3  1  0
  3  4  2  0
  4  5  1  0
  5  6  2  0
  6  7  1  0
  7  8  1  0
  8  9  2  0
  8 10  2  0
  8 11  1  0
 11 12  2  0
 12 13  1  0
 13 14  1  0
 14 15  1  0
 15 16  2  0
 15 17  1  0
 17 18  2  0
 18 19  1  0
 19 20  2  0
 20 21  1  0
 21 22  2  0
 22 23  1  0
 13 24  2  0
 24 25  1  0
 25 26  2  0
 26 27  1  0
 27 28  1  0
 28 29  1  0
 29 30  1  0
 30 31  1  0
  6 32  1  0
 32 33  2  0
 33  3  1  0
 26 11  1  0
 31 27  1  0
 22 17  1  0
  1 34  1  0
  1 35  1  0
  1 36  1  0
  4 37  1  0
  5 38  1  0
  7 39  1  0
 12 40  1  0
 14 41  1  0
 18 42  1  0
 19 43  1  0
 20 44  1  0
 24 45  1  0
 25 46  1  0
 28 47  1  0
 28 48  1  0
 29 49  1  0
 29 50  1  0
 30 51  1  0
 30 52  1  0
 31 53  1  0
 31 54  1  0
 32 55  1  0
 33 56  1  0
M  END
$$$$
