
     RDKit          3D

 45 47  0  0  0  0  0  0  0  0999 V2000
    2.8185    2.3814    1.4617 O   0  0  0  0  0  0  0  0  0  0  0  0
    2.3390    1.8420    0.4668 C   0  0  0  0  0  0  0  0  0  0  0  0
    3.1292    1.2910   -0.5255 N   0  0  0  0  0  0  0  0  0  0  0  0
    4.5073    1.1774   -0.2373 N   0  0  0  0  0  0  0  0  0  0  0  0
    5.1238   -0.0271   -0.5525 C   0  0  0  0  0  0  0  0  0  0  0  0
    4.5296   -0.8548   -1.2485 O   0  0  0  0  0  0  0  0  0  0  0  0
    6.4574   -0.2067    0.0053 C   0  0  0  0  0  0  0  0  0  0  0  0
    7.2814    0.6904    0.6651 C   0  0  0  0  0  0  0  0  0  0  0  0
    8.5239    0.1092    1.0585 C   0  0  0  0  0  0  0  0  0  0  0  0
    8.6159   -1.2111    0.6845 C   0  0  0  0  0  0  0  0  0  0  0  0
    7.2164   -1.7422   -0.1377 S   0  0  0  0  0  0  0  0  0  0  0  0
    0.8643    1.7161    0.2971 C   0  0  0  0  0  0  0  0  0  0  0  0
    0.0540    1.8414    1.4366 C   0  0  0  0  0  0  0  0  0  0  0  0
   -1.3347    1.7306    1.3340 C   0  0  0  0  0  0  0  0  0  0  0  0
   -1.9112    1.4959    0.0841 C   0  0  0  0  0  0  0  0  0  0  0  0
   -3.6760    1.3557   -0.0771 S   0  0  0  0  0  6  0  0  0  0  0  0
   -4.2690    1.4413    1.2407 O   0  0  0  0  0  0  0  0  0  0  0  0
   -4.0735    2.2493   -1.1436 O   0  0  0  0  0  0  0  0  0  0  0  0
   -3.8671   -0.2525   -0.6210 N   0  0  0  0  0  0  0  0  0  0  0  0
   -3.4457   -1.3241    0.3270 C   0  0  0  0  0  0  0  0  0  0  0  0
   -4.6352   -2.1201    0.8460 C   0  0  0  0  0  0  0  0  0  0  0  0
   -5.4044   -2.7908   -0.2900 C   0  0  0  0  0  0  0  0  0  0  0  0
   -5.3567   -1.9781   -1.5821 C   0  0  0  0  0  0  0  0  0  0  0  0
   -5.1720   -0.4930   -1.2985 C   0  0  0  0  0  0  0  0  0  0  0  0
   -1.1179    1.3897   -1.0628 C   0  0  0  0  0  0  0  0  0  0  0  0
    0.2712    1.5017   -0.9562 C   0  0  0  0  0  0  0  0  0  0  0  0
    2.7676    0.5621   -1.1413 H   0  0  0  0  0  0  0  0  0  0  0  0
    4.8166    1.7232    0.5650 H   0  0  0  0  0  0  0  0  0  0  0  0
    7.0257    1.7250    0.8589 H   0  0  0  0  0  0  0  0  0  0  0  0
    9.3108    0.6354    1.5857 H   0  0  0  0  0  0  0  0  0  0  0  0
    9.4400   -1.8918    0.8502 H   0  0  0  0  0  0  0  0  0  0  0  0
    0.5048    2.0278    2.4106 H   0  0  0  0  0  0  0  0  0  0  0  0
   -1.9514    1.8327    2.2246 H   0  0  0  0  0  0  0  0  0  0  0  0
   -2.7474   -1.9831   -0.2029 H   0  0  0  0  0  0  0  0  0  0  0  0
   -2.8935   -0.9112    1.1768 H   0  0  0  0  0  0  0  0  0  0  0  0
   -5.3102   -1.4492    1.3926 H   0  0  0  0  0  0  0  0  0  0  0  0
   -4.3016   -2.8794    1.5622 H   0  0  0  0  0  0  0  0  0  0  0  0
   -6.4447   -2.9377    0.0240 H   0  0  0  0  0  0  0  0  0  0  0  0
   -4.9965   -3.7903   -0.4828 H   0  0  0  0  0  0  0  0  0  0  0  0
   -6.2733   -2.1464   -2.1584 H   0  0  0  0  0  0  0  0  0  0  0  0
   -4.5245   -2.3356   -2.2021 H   0  0  0  0  0  0  0  0  0  0  0  0
   -5.1792    0.0503   -2.2498 H   0  0  0  0  0  0  0  0  0  0  0  0
   -5.9981   -0.1208   -0.6813 H   0  0  0  0  0  0  0  0  0  0  0  0
   -1.5795    1.2308   -2.0360 H   0  0  0  0  0  0  0  0  0  0  0  0
    0.8661    1.4456   -1.8641 H   0  0  0  0  0  0  0  0  0  0  0  0
  1  2  2  0
  2  3  1  0
  3  4  1  0
  4  5  1  0
  5  6  2  0
  5  7  1  0
  7  8  2  0
  8  9  1  0
  9 10  2  0
 10 11  1  0
  2 12  1  0
 12 13  2  0
 13 14  1  0
 14 15  2  0
 15 16  1  0
 16 17  2  0
 16 18  2  0
 16 19  1  0
 19 20  1  0
 20 21  1  0
 21 22  1  0
 22 23  1  0
 23 24  1  0
 15 25  1  0
 25 26  2  0
 11  7  1  0
 26 12  1  0
 24 19  1  0
  3 27  1  0
  4 28  1  0
  8 29  1  0
  9 30  1  0
 10 31  1  0
 13 32  1  0
 14 33  1  0
 20 34  1  0
 20 35  1  0
 21 36  1  0
 21 37  1  0
 22 38  1  0
 22 39  1  0
 23 40  1  0
 23 41  1  0
 24 42  1  0
 24 43  1  0
 25 44  1  0
 26 45  1  0
M  END
$$$$
