
     RDKit          3D

 46 48  0  0  0  0  0  0  0  0999 V2000
    5.2146   -0.0492   -3.0171 C   0  0  0  0  0  0  0  0  0  0  0  0
    4.9036   -1.0886   -2.0976 O   0  0  0  0  0  0  0  0  0  0  0  0
    3.8660   -0.8611   -1.2371 C   0  0  0  0  0  0  0  0  0  0  0  0
    3.1026    0.3003   -1.1590 C   0  0  0  0  0  0  0  0  0  0  0  0
    2.0635    0.3971   -0.2257 C   0  0  0  0  0  0  0  0  0  0  0  0
    1.7556   -0.6672    0.6426 C   0  0  0  0  0  0  0  0  0  0  0  0
    0.6234   -0.5055    1.6549 C   0  0  0  0  0  0  0  0  0  0  0  0
    0.3784   -1.6626    2.6310 C   0  0  0  0  0  0  0  0  0  0  0  0
   -0.6539   -0.0790    1.0262 N   0  0  0  0  0  0  0  0  0  0  0  0
   -1.4089    1.0134    1.4742 C   0  0  0  0  0  0  0  0  0  0  0  0
   -1.0863    1.7556    2.7292 C   0  0  0  0  0  0  0  0  0  0  0  0
   -2.4014    1.2188    0.5346 C   0  0  0  0  0  0  0  0  0  0  0  0
   -3.3558    2.2561    0.4909 C   0  0  0  0  0  0  0  0  0  0  0  0
   -3.5602    3.4148    1.4008 C   0  0  0  0  0  0  0  0  0  0  0  0
   -4.1981    2.1225   -0.5818 N   0  0  0  0  0  0  0  0  0  0  0  0
   -4.1142    1.0448   -1.5704 N   0  0  0  0  0  0  0  0  0  0  0  0
   -3.1827    0.0400   -1.5419 C   0  0  0  0  0  0  0  0  0  0  0  0
   -3.2164   -0.9794   -2.6248 C   0  0  0  0  0  0  0  0  0  0  0  0
   -2.3191    0.1633   -0.4341 C   0  0  0  0  0  0  0  0  0  0  0  0
   -1.2745   -0.6705   -0.0776 C   0  0  0  0  0  0  0  0  0  0  0  0
   -0.8016   -1.9339   -0.7162 C   0  0  0  0  0  0  0  0  0  0  0  0
    2.5431   -1.8242    0.5611 C   0  0  0  0  0  0  0  0  0  0  0  0
    3.5818   -1.9174   -0.3714 C   0  0  0  0  0  0  0  0  0  0  0  0
    5.5355    0.8574   -2.4936 H   0  0  0  0  0  0  0  0  0  0  0  0
    6.0505   -0.3895   -3.6359 H   0  0  0  0  0  0  0  0  0  0  0  0
    4.3694    0.1557   -3.6826 H   0  0  0  0  0  0  0  0  0  0  0  0
    3.2847    1.1511   -1.8071 H   0  0  0  0  0  0  0  0  0  0  0  0
    1.4829    1.3185   -0.1895 H   0  0  0  0  0  0  0  0  0  0  0  0
    0.9553    0.3408    2.2693 H   0  0  0  0  0  0  0  0  0  0  0  0
   -0.4209   -1.4149    3.3387 H   0  0  0  0  0  0  0  0  0  0  0  0
    1.2794   -1.8771    3.2162 H   0  0  0  0  0  0  0  0  0  0  0  0
    0.0830   -2.5852    2.1230 H   0  0  0  0  0  0  0  0  0  0  0  0
   -0.6749    1.0969    3.4996 H   0  0  0  0  0  0  0  0  0  0  0  0
   -1.9784    2.2020    3.1739 H   0  0  0  0  0  0  0  0  0  0  0  0
   -0.3639    2.5515    2.5240 H   0  0  0  0  0  0  0  0  0  0  0  0
   -3.9664    3.0768    2.3582 H   0  0  0  0  0  0  0  0  0  0  0  0
   -4.2693    4.1270    0.9665 H   0  0  0  0  0  0  0  0  0  0  0  0
   -2.6186    3.9450    1.5689 H   0  0  0  0  0  0  0  0  0  0  0  0
   -2.2281   -1.0945   -3.0785 H   0  0  0  0  0  0  0  0  0  0  0  0
   -3.9121   -0.6804   -3.4156 H   0  0  0  0  0  0  0  0  0  0  0  0
   -3.5512   -1.9420   -2.2286 H   0  0  0  0  0  0  0  0  0  0  0  0
   -0.2007   -1.7101   -1.6031 H   0  0  0  0  0  0  0  0  0  0  0  0
   -1.6491   -2.5547   -1.0200 H   0  0  0  0  0  0  0  0  0  0  0  0
   -0.2099   -2.5581   -0.0467 H   0  0  0  0  0  0  0  0  0  0  0  0
    2.3662   -2.6779    1.2098 H   0  0  0  0  0  0  0  0  0  0  0  0
    4.1769   -2.8265   -0.4232 H   0  0  0  0  0  0  0  0  0  0  0  0
  1  2  1  0
  2  3  1  0
  3  4  2  0
  4  5  1  0
  5  6  2  0
  6  7  1  0
  7  8  1  0
  7  9  1  0
  9 10  1  0
 10 11  1  0
 10 12  2  0
 12 13  1  0
 13 14  1  0
 13 15  2  0
 15 16  1  0
 16 17  2  0
 17 18  1  0
 17 19  1  0
 19 20  2  0
 20 21  1  0
  6 22  1  0
 22 23  2  0
 23  3  1  0
 20  9  1  0
 19 12  1  0
  1 24  1  0
  1 25  1  0
  1 26  1  0
  4 27  1  0
  5 28  1  0
  7 29  1  0
  8 30  1  0
  8 31  1  0
  8 32  1  0
 11 33  1  0
 11 34  1  0
 11 35  1  0
 14 36  1  0
 14 37  1  0
 14 38  1  0
 18 39  1  0
 18 40  1  0
 18 41  1  0
 21 42  1  0
 21 43  1  0
 21 44  1  0
 22 45  1  0
 23 46  1  0
M  END
$$$$
