
     RDKit          3D

 49 52  0  0  0  0  0  0  0  0999 V2000
   -0.3449    3.4436   -2.9851 C   0  0  0  0  0  0  0  0  0  0  0  0
   -0.6083    3.2992   -1.5153 C   0  0  0  0  0  0  0  0  0  0  0  0
   -0.9018    4.4196   -0.7321 C   0  0  0  0  0  0  0  0  0  0  0  0
   -1.1721    4.2773    0.6281 C   0  0  0  0  0  0  0  0  0  0  0  0
   -1.1598    3.0123    1.2163 C   0  0  0  0  0  0  0  0  0  0  0  0
   -0.8753    1.8701    0.4508 C   0  0  0  0  0  0  0  0  0  0  0  0
   -0.9034    0.5007    1.1137 C   0  0  0  0  0  0  0  0  0  0  0  0
   -2.2561   -0.1809    0.8996 C   0  0  0  0  0  0  0  0  0  0  0  0
   -1.8548   -1.2955   -0.0267 C   0  0  0  0  0  0  0  0  0  0  0  0
   -2.8588   -2.1713   -0.6753 C   0  0  0  0  0  0  0  0  0  0  0  0
   -4.2258   -2.0443   -0.4036 C   0  0  0  0  0  0  0  0  0  0  0  0
   -5.1454   -2.8870   -1.0341 C   0  0  0  0  0  0  0  0  0  0  0  0
   -4.7052   -3.8566   -1.9343 C   0  0  0  0  0  0  0  0  0  0  0  0
   -3.3449   -3.9881   -2.2070 C   0  0  0  0  0  0  0  0  0  0  0  0
   -2.4230   -3.1484   -1.5792 C   0  0  0  0  0  0  0  0  0  0  0  0
   -0.5743   -1.4448   -0.1853 N   0  0  0  0  0  0  0  0  0  0  0  0
    0.0402   -0.4566    0.5301 N   0  0  0  0  0  0  0  0  0  0  0  0
    1.4263   -0.4349    0.6716 C   0  0  0  0  0  0  0  0  0  0  0  0
    2.2268   -1.4073    0.0413 C   0  0  0  0  0  0  0  0  0  0  0  0
    3.6204   -1.4164    0.1624 C   0  0  0  0  0  0  0  0  0  0  0  0
    4.2418   -0.4416    0.9375 C   0  0  0  0  0  0  0  0  0  0  0  0
    6.0041   -0.4406    1.1095 S   0  0  0  0  0  6  0  0  0  0  0  0
    6.2040   -1.4041    2.4784 N   0  0  0  0  0  0  0  0  0  0  0  0
    6.4366    0.8954    1.4436 O   0  0  0  0  0  0  0  0  0  0  0  0
    6.5768   -1.1939    0.0176 O   0  0  0  0  0  0  0  0  0  0  0  0
    3.4865    0.5467    1.5658 C   0  0  0  0  0  0  0  0  0  0  0  0
    2.0924    0.5414    1.4318 C   0  0  0  0  0  0  0  0  0  0  0  0
   -0.6142    2.0300   -0.9210 C   0  0  0  0  0  0  0  0  0  0  0  0
    0.0934    4.4216   -3.2102 H   0  0  0  0  0  0  0  0  0  0  0  0
   -1.2795    3.3382   -3.5446 H   0  0  0  0  0  0  0  0  0  0  0  0
    0.3637    2.6835   -3.3306 H   0  0  0  0  0  0  0  0  0  0  0  0
   -0.9182    5.4116   -1.1779 H   0  0  0  0  0  0  0  0  0  0  0  0
   -1.3938    5.1552    1.2296 H   0  0  0  0  0  0  0  0  0  0  0  0
   -1.3761    2.9261    2.2788 H   0  0  0  0  0  0  0  0  0  0  0  0
   -0.7176    0.6055    2.1904 H   0  0  0  0  0  0  0  0  0  0  0  0
   -3.0199    0.4658    0.4590 H   0  0  0  0  0  0  0  0  0  0  0  0
   -2.6278   -0.6169    1.8331 H   0  0  0  0  0  0  0  0  0  0  0  0
   -4.6004   -1.3021    0.2943 H   0  0  0  0  0  0  0  0  0  0  0  0
   -6.2075   -2.7876   -0.8230 H   0  0  0  0  0  0  0  0  0  0  0  0
   -5.4227   -4.5108   -2.4238 H   0  0  0  0  0  0  0  0  0  0  0  0
   -2.9995   -4.7435   -2.9084 H   0  0  0  0  0  0  0  0  0  0  0  0
   -1.3637   -3.2604   -1.8014 H   0  0  0  0  0  0  0  0  0  0  0  0
    1.7534   -2.1750   -0.5685 H   0  0  0  0  0  0  0  0  0  0  0  0
    4.1976   -2.1799   -0.3534 H   0  0  0  0  0  0  0  0  0  0  0  0
    5.3239   -1.6137    2.9483 H   0  0  0  0  0  0  0  0  0  0  0  0
    6.7021   -2.2539    2.2083 H   0  0  0  0  0  0  0  0  0  0  0  0
    3.9669    1.3265    2.1535 H   0  0  0  0  0  0  0  0  0  0  0  0
    1.5381    1.3316    1.9299 H   0  0  0  0  0  0  0  0  0  0  0  0
   -0.4003    1.1541   -1.5337 H   0  0  0  0  0  0  0  0  0  0  0  0
  1  2  1  0
  2  3  2  0
  3  4  1  0
  4  5  2  0
  5  6  1  0
  6  7  1  0
  7  8  1  0
  8  9  1  0
  9 10  1  0
 10 11  2  0
 11 12  1  0
 12 13  2  0
 13 14  1  0
 14 15  2  0
  9 16  2  0
 16 17  1  0
 17 18  1  0
 18 19  2  0
 19 20  1  0
 20 21  2  0
 21 22  1  0
 22 23  1  0
 22 24  2  0
 22 25  2  0
 21 26  1  0
 26 27  2  0
  6 28  2  0
 28  2  1  0
 17  7  1  0
 27 18  1  0
 15 10  1  0
  1 29  1  0
  1 30  1  0
  1 31  1  0
  3 32  1  0
  4 33  1  0
  5 34  1  0
  7 35  1  0
  8 36  1  0
  8 37  1  0
 11 38  1  0
 12 39  1  0
 13 40  1  0
 14 41  1  0
 15 42  1  0
 19 43  1  0
 20 44  1  0
 23 45  1  0
 23 46  1  0
 26 47  1  0
 27 48  1  0
 28 49  1  0
M  END
$$$$
