
     RDKit          3D

 34 35  0  0  0  0  0  0  0  0999 V2000
   -0.3459   -1.2616   -1.3780 C   0  0  0  0  0  0  0  0  0  0  0  0
   -0.8451   -0.3729   -0.2562 C   0  0  0  0  0  0  0  0  0  0  0  0
   -0.0766    0.4483    0.4178 N   0  0  0  0  0  0  0  0  0  0  0  0
    1.2637    0.4303    0.1371 N   0  0  0  0  0  0  0  0  0  0  0  0
    2.0527   -0.6099    0.8029 C   0  0  0  0  0  0  0  0  0  0  0  0
    3.3671   -0.8370    0.0578 C   0  0  0  0  0  0  0  0  0  0  0  0
    3.9554    0.4496   -0.5326 C   0  0  0  0  0  0  0  0  0  0  0  0
    3.4215    1.6922    0.1699 C   0  0  0  0  0  0  0  0  0  0  0  0
    1.8934    1.7562    0.1135 C   0  0  0  0  0  0  0  0  0  0  0  0
   -2.3026   -0.4044    0.0728 C   0  0  0  0  0  0  0  0  0  0  0  0
   -2.9003    0.6942    0.5690 C   0  0  0  0  0  0  0  0  0  0  0  0
   -2.2720    1.8771    0.8675 O   0  0  0  0  0  0  0  0  0  0  0  0
   -4.2331    0.7272    0.8353 N   0  0  0  0  0  0  0  0  0  0  0  0
   -5.0807   -0.3176    0.6209 C   0  0  0  0  0  0  0  0  0  0  0  0
   -6.2760   -0.2640    0.8859 O   0  0  0  0  0  0  0  0  0  0  0  0
   -4.5029   -1.4369    0.0951 N   0  0  0  0  0  0  0  0  0  0  0  0
   -3.1641   -1.5960   -0.1423 C   0  0  0  0  0  0  0  0  0  0  0  0
   -2.7100   -2.6805   -0.4940 O   0  0  0  0  0  0  0  0  0  0  0  0
    0.0133   -2.2074   -0.9642 H   0  0  0  0  0  0  0  0  0  0  0  0
    0.4653   -0.7767   -1.9282 H   0  0  0  0  0  0  0  0  0  0  0  0
   -1.1423   -1.4608   -2.1002 H   0  0  0  0  0  0  0  0  0  0  0  0
    2.2350   -0.2870    1.8352 H   0  0  0  0  0  0  0  0  0  0  0  0
    1.4849   -1.5449    0.8464 H   0  0  0  0  0  0  0  0  0  0  0  0
    4.0867   -1.3037    0.7407 H   0  0  0  0  0  0  0  0  0  0  0  0
    3.2109   -1.5524   -0.7592 H   0  0  0  0  0  0  0  0  0  0  0  0
    3.6996    0.5057   -1.5984 H   0  0  0  0  0  0  0  0  0  0  0  0
    5.0493    0.4182   -0.4760 H   0  0  0  0  0  0  0  0  0  0  0  0
    3.8485    2.6008   -0.2687 H   0  0  0  0  0  0  0  0  0  0  0  0
    3.7444    1.6709    1.2187 H   0  0  0  0  0  0  0  0  0  0  0  0
    1.5216    2.3427    0.9620 H   0  0  0  0  0  0  0  0  0  0  0  0
    1.5638    2.2446   -0.8102 H   0  0  0  0  0  0  0  0  0  0  0  0
   -1.3014    1.7187    0.8001 H   0  0  0  0  0  0  0  0  0  0  0  0
   -4.6253    1.5779    1.2193 H   0  0  0  0  0  0  0  0  0  0  0  0
   -5.0985   -2.2408   -0.0304 H   0  0  0  0  0  0  0  0  0  0  0  0
  1  2  1  0
  2  3  2  3
  3  4  1  0
  4  5  1  0
  5  6  1  0
  6  7  1  0
  7  8  1  0
  8  9  1  0
  2 10  1  0
 10 11  2  0
 11 12  1  0
 11 13  1  0
 13 14  1  0
 14 15  2  0
 14 16  1  0
 16 17  1  0
 17 18  2  0
  9  4  1  0
 17 10  1  0
  1 19  1  0
  1 20  1  0
  1 21  1  0
  5 22  1  0
  5 23  1  0
  6 24  1  0
  6 25  1  0
  7 26  1  0
  7 27  1  0
  8 28  1  0
  8 29  1  0
  9 30  1  0
  9 31  1  0
 12 32  1  0
 13 33  1  0
 16 34  1  0
M  END
$$$$
