
     RDKit          3D

 49 51  0  0  0  0  0  0  0  0999 V2000
    5.8930    2.6973   -2.2311 C   0  0  0  0  0  0  0  0  0  0  0  0
    5.9853    1.8858   -1.0698 O   0  0  0  0  0  0  0  0  0  0  0  0
    4.8170    1.4080   -0.5288 C   0  0  0  0  0  0  0  0  0  0  0  0
    3.5422    1.6675   -1.0442 C   0  0  0  0  0  0  0  0  0  0  0  0
    2.3967    1.1451   -0.4242 C   0  0  0  0  0  0  0  0  0  0  0  0
    2.5264    0.3294    0.7099 C   0  0  0  0  0  0  0  0  0  0  0  0
    3.8074    0.0750    1.2288 C   0  0  0  0  0  0  0  0  0  0  0  0
    4.9508    0.6055    0.6202 C   0  0  0  0  0  0  0  0  0  0  0  0
    6.2334    0.4005    1.0665 O   0  0  0  0  0  0  0  0  0  0  0  0
    6.4127   -0.4269    2.2065 C   0  0  0  0  0  0  0  0  0  0  0  0
    1.3213   -0.2632    1.4112 C   0  0  0  0  0  0  0  0  0  0  0  0
    0.0533   -0.0816    0.6881 N   0  0  0  0  0  0  0  0  0  0  0  0
   -1.0964   -0.8338    1.0283 C   0  0  0  0  0  0  0  0  0  0  0  0
   -1.1849   -1.8413    2.3732 S   0  0  0  0  0  0  0  0  0  0  0  0
   -2.0889   -0.7065    0.0636 N   0  0  0  0  0  0  0  0  0  0  0  0
   -3.4803   -0.9594    0.1221 C   0  0  0  0  0  0  0  0  0  0  0  0
   -4.2019   -0.8457    1.3148 C   0  0  0  0  0  0  0  0  0  0  0  0
   -5.5838   -1.0551    1.3452 C   0  0  0  0  0  0  0  0  0  0  0  0
   -6.2767   -1.3752    0.1781 C   0  0  0  0  0  0  0  0  0  0  0  0
   -7.7634   -1.5692    0.2030 C   0  0  0  0  0  0  0  0  0  0  0  0
   -5.5695   -1.4477   -1.0265 C   0  0  0  0  0  0  0  0  0  0  0  0
   -4.1773   -1.2422   -1.0713 C   0  0  0  0  0  0  0  0  0  0  0  0
   -3.4836   -1.3467   -2.4031 C   0  0  0  0  0  0  0  0  0  0  0  0
   -0.0684    1.2248    0.0260 C   0  0  0  0  0  0  0  0  0  0  0  0
    1.0350    1.4154   -1.0103 C   0  0  0  0  0  0  0  0  0  0  0  0
    6.9086    2.9851   -2.5197 H   0  0  0  0  0  0  0  0  0  0  0  0
    5.4554    2.1423   -3.0674 H   0  0  0  0  0  0  0  0  0  0  0  0
    5.3330    3.6160   -2.0281 H   0  0  0  0  0  0  0  0  0  0  0  0
    3.4116    2.2777   -1.9320 H   0  0  0  0  0  0  0  0  0  0  0  0
    3.8845   -0.5480    2.1147 H   0  0  0  0  0  0  0  0  0  0  0  0
    6.0517   -1.4434    2.0185 H   0  0  0  0  0  0  0  0  0  0  0  0
    5.9328    0.0080    3.0894 H   0  0  0  0  0  0  0  0  0  0  0  0
    7.4862   -0.4885    2.4094 H   0  0  0  0  0  0  0  0  0  0  0  0
    1.2143    0.2144    2.3930 H   0  0  0  0  0  0  0  0  0  0  0  0
    1.4974   -1.3355    1.5509 H   0  0  0  0  0  0  0  0  0  0  0  0
   -1.6997   -0.6288   -0.8651 H   0  0  0  0  0  0  0  0  0  0  0  0
   -3.7175   -0.5552    2.2416 H   0  0  0  0  0  0  0  0  0  0  0  0
   -6.1120   -0.9570    2.2910 H   0  0  0  0  0  0  0  0  0  0  0  0
   -8.0764   -2.2847   -0.5646 H   0  0  0  0  0  0  0  0  0  0  0  0
   -8.2685   -0.6148    0.0249 H   0  0  0  0  0  0  0  0  0  0  0  0
   -8.0898   -1.9673    1.1696 H   0  0  0  0  0  0  0  0  0  0  0  0
   -6.1111   -1.6712   -1.9444 H   0  0  0  0  0  0  0  0  0  0  0  0
   -4.1756   -1.6445   -3.1981 H   0  0  0  0  0  0  0  0  0  0  0  0
   -3.0554   -0.3791   -2.6841 H   0  0  0  0  0  0  0  0  0  0  0  0
   -2.6920   -2.1020   -2.3624 H   0  0  0  0  0  0  0  0  0  0  0  0
    0.0018    1.9881    0.8125 H   0  0  0  0  0  0  0  0  0  0  0  0
   -1.0443    1.3643   -0.4468 H   0  0  0  0  0  0  0  0  0  0  0  0
    0.9860    2.4392   -1.3987 H   0  0  0  0  0  0  0  0  0  0  0  0
    0.8795    0.7251   -1.8484 H   0  0  0  0  0  0  0  0  0  0  0  0
  1  2  1  0
  2  3  1  0
  3  4  2  0
  4  5  1  0
  5  6  2  0
  6  7  1  0
  7  8  2  0
  8  9  1  0
  9 10  1  0
  6 11  1  0
 11 12  1  0
 12 13  1  0
 13 14  2  0
 13 15  1  0
 15 16  1  0
 16 17  2  0
 17 18  1  0
 18 19  2  0
 19 20  1  0
 19 21  1  0
 21 22  2  0
 22 23  1  0
 12 24  1  0
 24 25  1  0
  8  3  1  0
 22 16  1  0
 25  5  1  0
  1 26  1  0
  1 27  1  0
  1 28  1  0
  4 29  1  0
  7 30  1  0
 10 31  1  0
 10 32  1  0
 10 33  1  0
 11 34  1  0
 11 35  1  0
 15 36  1  0
 17 37  1  0
 18 38  1  0
 20 39  1  0
 20 40  1  0
 20 41  1  0
 21 42  1  0
 23 43  1  0
 23 44  1  0
 23 45  1  0
 24 46  1  0
 24 47  1  0
 25 48  1  0
 25 49  1  0
M  END
$$$$
