
     RDKit          3D

 46 50  0  0  0  0  0  0  0  0999 V2000
   -7.1946    2.4337   -1.0910 C   0  0  0  0  0  0  0  0  0  0  0  0
   -5.9707    1.6742   -0.6506 C   0  0  0  0  0  0  0  0  0  0  0  0
   -4.7069    2.1143   -1.0943 C   0  0  0  0  0  0  0  0  0  0  0  0
   -3.5532    1.4236   -0.6981 C   0  0  0  0  0  0  0  0  0  0  0  0
   -2.2310    1.6763   -1.0100 N   0  0  0  0  0  0  0  0  0  0  0  0
   -1.5888    0.7328   -0.3797 C   0  0  0  0  0  0  0  0  0  0  0  0
    0.0784    0.3332   -0.2481 S   0  0  0  0  0  0  0  0  0  0  0  0
   -0.3207   -1.0180    0.7838 C   0  0  0  0  0  0  0  0  0  0  0  0
    0.4866   -1.9195    1.3606 C   0  0  0  0  0  0  0  0  0  0  0  0
    1.9059   -1.9476    1.2592 C   0  0  0  0  0  0  0  0  0  0  0  0
    2.7735   -2.9354    1.7114 C   0  0  0  0  0  0  0  0  0  0  0  0
    4.0959   -2.5346    1.4023 C   0  0  0  0  0  0  0  0  0  0  0  0
    3.9934   -1.3084    0.7853 C   0  0  0  0  0  0  0  0  0  0  0  0
    4.9407   -0.3523    0.2187 C   0  0  0  0  0  0  0  0  0  0  0  0
    4.5787    0.3557   -0.9432 C   0  0  0  0  0  0  0  0  0  0  0  0
    5.4715    1.2299   -1.5710 C   0  0  0  0  0  0  0  0  0  0  0  0
    6.7501    1.4122   -1.0532 C   0  0  0  0  0  0  0  0  0  0  0  0
    7.1300    0.7322    0.1017 C   0  0  0  0  0  0  0  0  0  0  0  0
    6.2259   -0.1306    0.7437 C   0  0  0  0  0  0  0  0  0  0  0  0
    6.7055   -0.7585    1.9861 C   0  0  0  0  0  0  0  0  0  0  0  0
    7.7298   -1.4012    2.1128 O   0  0  0  0  0  0  0  0  0  0  0  0
    5.9114   -0.4573    3.0268 O   0  0  0  0  0  0  0  0  0  0  0  0
    2.6785   -0.9638    0.6907 O   0  0  0  0  0  0  0  0  0  0  0  0
   -1.7924   -1.1351    1.0069 C   0  0  0  0  0  0  0  0  0  0  0  0
   -2.4187   -1.9494    1.6601 O   0  0  0  0  0  0  0  0  0  0  0  0
   -2.3925   -0.1086    0.3136 N   0  0  0  0  0  0  0  0  0  0  0  0
   -3.6859    0.3071    0.1321 C   0  0  0  0  0  0  0  0  0  0  0  0
   -4.9210   -0.1601    0.5908 C   0  0  0  0  0  0  0  0  0  0  0  0
   -6.0740    0.5410    0.1874 C   0  0  0  0  0  0  0  0  0  0  0  0
   -7.4169    0.0540    0.6699 C   0  0  0  0  0  0  0  0  0  0  0  0
   -6.9317    3.2869   -1.7257 H   0  0  0  0  0  0  0  0  0  0  0  0
   -7.8571    1.7831   -1.6710 H   0  0  0  0  0  0  0  0  0  0  0  0
   -7.7329    2.8249   -0.2217 H   0  0  0  0  0  0  0  0  0  0  0  0
   -4.6051    2.9806   -1.7402 H   0  0  0  0  0  0  0  0  0  0  0  0
    0.0381   -2.7080    1.9634 H   0  0  0  0  0  0  0  0  0  0  0  0
    2.4789   -3.8509    2.2065 H   0  0  0  0  0  0  0  0  0  0  0  0
    5.0072   -3.0801    1.6040 H   0  0  0  0  0  0  0  0  0  0  0  0
    3.5906    0.2175   -1.3804 H   0  0  0  0  0  0  0  0  0  0  0  0
    5.1659    1.7607   -2.4698 H   0  0  0  0  0  0  0  0  0  0  0  0
    7.4470    2.0866   -1.5445 H   0  0  0  0  0  0  0  0  0  0  0  0
    8.1270    0.8827    0.5115 H   0  0  0  0  0  0  0  0  0  0  0  0
    6.3475   -0.8688    3.8008 H   0  0  0  0  0  0  0  0  0  0  0  0
   -4.9837   -1.0334    1.2354 H   0  0  0  0  0  0  0  0  0  0  0  0
   -7.3187   -0.8335    1.3043 H   0  0  0  0  0  0  0  0  0  0  0  0
   -7.9112    0.8295    1.2637 H   0  0  0  0  0  0  0  0  0  0  0  0
   -8.0505   -0.2177   -0.1801 H   0  0  0  0  0  0  0  0  0  0  0  0
  1  2  1  0
  2  3  2  0
  3  4  1  0
  4  5  1  0
  5  6  2  0
  6  7  1  0
  7  8  1  0
  8  9  2  3
  9 10  1  0
 10 11  2  0
 11 12  1  0
 12 13  2  0
 13 14  1  0
 14 15  2  0
 15 16  1  0
 16 17  2  0
 17 18  1  0
 18 19  2  0
 19 20  1  0
 20 21  2  0
 20 22  1  0
 13 23  1  0
  8 24  1  0
 24 25  2  0
 24 26  1  0
 26 27  1  0
 27 28  1  0
 28 29  2  0
 29 30  1  0
 29  2  1  0
 27  4  2  0
 26  6  1  0
 23 10  1  0
 19 14  1  0
  1 31  1  0
  1 32  1  0
  1 33  1  0
  3 34  1  0
  9 35  1  0
 11 36  1  0
 12 37  1  0
 15 38  1  0
 16 39  1  0
 17 40  1  0
 18 41  1  0
 22 42  1  0
 28 43  1  0
 30 44  1  0
 30 45  1  0
 30 46  1  0
M  END
$$$$
