
     RDKit          3D

 38 40  0  0  0  0  0  0  0  0999 V2000
   -3.4512   -1.5997    1.7533 C   0  0  0  0  0  0  0  0  0  0  0  0
   -3.7665   -0.5470    0.7446 C   0  0  0  0  0  0  0  0  0  0  0  0
   -5.0248   -0.1150    0.3711 C   0  0  0  0  0  0  0  0  0  0  0  0
   -4.8719    0.7991   -0.6831 C   0  0  0  0  0  0  0  0  0  0  0  0
   -3.5199    0.9388   -0.9315 C   0  0  0  0  0  0  0  0  0  0  0  0
   -2.8868    1.8872   -1.8940 C   0  0  0  0  0  0  0  0  0  0  0  0
   -2.8251    0.1027   -0.0555 N   0  0  0  0  0  0  0  0  0  0  0  0
   -1.4145   -0.0547    0.0116 C   0  0  0  0  0  0  0  0  0  0  0  0
   -0.7452   -0.1241    1.2274 C   0  0  0  0  0  0  0  0  0  0  0  0
    0.6437   -0.2767    1.2329 C   0  0  0  0  0  0  0  0  0  0  0  0
    1.3527   -0.3504    0.0327 C   0  0  0  0  0  0  0  0  0  0  0  0
    2.7332   -0.5194    0.0293 N   0  0  0  0  0  0  0  0  0  0  0  0
    3.3481   -0.7471   -1.2894 C   0  0  0  0  0  0  0  0  0  0  0  0
    4.8608   -0.9526   -1.1140 C   0  0  0  0  0  0  0  0  0  0  0  0
    5.5385    0.1681   -0.5210 O   0  0  0  0  0  0  0  0  0  0  0  0
    4.6654    1.0260    0.2262 C   0  0  0  0  0  0  0  0  0  0  0  0
    3.5465    0.2740    0.9677 C   0  0  0  0  0  0  0  0  0  0  0  0
    0.6958   -0.3057   -1.1469 N   0  0  0  0  0  0  0  0  0  0  0  0
   -0.6526   -0.1572   -1.1397 C   0  0  0  0  0  0  0  0  0  0  0  0
   -4.3287   -2.2316    1.9311 H   0  0  0  0  0  0  0  0  0  0  0  0
   -3.1754   -1.1489    2.7111 H   0  0  0  0  0  0  0  0  0  0  0  0
   -2.6471   -2.2602    1.4154 H   0  0  0  0  0  0  0  0  0  0  0  0
   -5.9588   -0.4495    0.8053 H   0  0  0  0  0  0  0  0  0  0  0  0
   -5.6640    1.3273   -1.1993 H   0  0  0  0  0  0  0  0  0  0  0  0
   -3.5821    2.6963   -2.1444 H   0  0  0  0  0  0  0  0  0  0  0  0
   -1.9913    2.3556   -1.4747 H   0  0  0  0  0  0  0  0  0  0  0  0
   -2.6293    1.3782   -2.8274 H   0  0  0  0  0  0  0  0  0  0  0  0
   -1.2644   -0.0260    2.1747 H   0  0  0  0  0  0  0  0  0  0  0  0
    1.1609   -0.3529    2.1835 H   0  0  0  0  0  0  0  0  0  0  0  0
    2.9223   -1.6409   -1.7608 H   0  0  0  0  0  0  0  0  0  0  0  0
    3.1747    0.1160   -1.9450 H   0  0  0  0  0  0  0  0  0  0  0  0
    5.0537   -1.8237   -0.4770 H   0  0  0  0  0  0  0  0  0  0  0  0
    5.3315   -1.1448   -2.0834 H   0  0  0  0  0  0  0  0  0  0  0  0
    5.2830    1.5773    0.9425 H   0  0  0  0  0  0  0  0  0  0  0  0
    4.2398    1.7611   -0.4673 H   0  0  0  0  0  0  0  0  0  0  0  0
    2.9539    1.0094    1.5238 H   0  0  0  0  0  0  0  0  0  0  0  0
    3.9923   -0.4189    1.6907 H   0  0  0  0  0  0  0  0  0  0  0  0
   -1.0972   -0.1703   -2.1295 H   0  0  0  0  0  0  0  0  0  0  0  0
  1  2  1  0
  2  3  2  0
  3  4  1  0
  4  5  2  0
  5  6  1  0
  5  7  1  0
  7  8  1  0
  8  9  2  0
  9 10  1  0
 10 11  2  0
 11 12  1  0
 12 13  1  0
 13 14  1  0
 14 15  1  0
 15 16  1  0
 16 17  1  0
 11 18  1  0
 18 19  2  0
  7  2  1  0
 19  8  1  0
 17 12  1  0
  1 20  1  0
  1 21  1  0
  1 22  1  0
  3 23  1  0
  4 24  1  0
  6 25  1  0
  6 26  1  0
  6 27  1  0
  9 28  1  0
 10 29  1  0
 13 30  1  0
 13 31  1  0
 14 32  1  0
 14 33  1  0
 16 34  1  0
 16 35  1  0
 17 36  1  0
 17 37  1  0
 19 38  1  0
M  END
$$$$
