
     RDKit          3D

 40 41  0  0  0  0  0  0  0  0999 V2000
   -5.9426    0.3571   -0.5068 C   0  0  0  0  0  0  0  0  0  0  0  0
   -4.8430   -0.5215   -0.1183 N   0  0  0  0  0  0  0  0  0  0  0  0
   -4.0361    0.0893    0.9530 C   0  0  0  0  0  0  0  0  0  0  0  0
   -2.6789   -0.6095    1.1539 C   0  0  0  0  0  0  0  0  0  0  0  0
   -1.8680   -0.6159   -0.0694 N   0  0  0  0  0  0  0  0  0  0  0  0
   -0.4955   -0.8061   -0.1135 C   0  0  0  0  0  0  0  0  0  0  0  0
    0.1376   -0.7105   -1.1692 O   0  0  0  0  0  0  0  0  0  0  0  0
    0.2320   -1.1351    1.1829 C   0  0  0  0  0  0  0  0  0  0  0  0
    0.8747    0.3931    1.9529 S   0  0  0  0  0  0  0  0  0  0  0  0
    2.4308    0.5392    1.0847 C   0  0  0  0  0  0  0  0  0  0  0  0
    2.4478    1.2703   -0.1102 C   0  0  0  0  0  0  0  0  0  0  0  0
    3.6390    1.4663   -0.8226 C   0  0  0  0  0  0  0  0  0  0  0  0
    4.8560    0.9541   -0.3487 C   0  0  0  0  0  0  0  0  0  0  0  0
    6.1344    1.1527   -1.1291 C   0  0  0  0  0  0  0  0  0  0  0  0
    6.1223    2.2727   -1.9023 F   0  0  0  0  0  0  0  0  0  0  0  0
    7.2281    1.2647   -0.3261 F   0  0  0  0  0  0  0  0  0  0  0  0
    6.3899    0.1144   -1.9695 F   0  0  0  0  0  0  0  0  0  0  0  0
    4.8551    0.2225    0.8471 C   0  0  0  0  0  0  0  0  0  0  0  0
    3.6508    0.0260    1.5440 C   0  0  0  0  0  0  0  0  0  0  0  0
    3.7183   -0.7395    2.7728 N   0  0  0  0  0  4  0  0  0  0  0  0
    3.1434   -1.8364    2.7912 O   0  0  0  0  0  0  0  0  0  0  0  0
    4.3913   -0.2596    3.6946 O   0  0  0  0  0  1  0  0  0  0  0  0
   -2.5941   -0.3686   -1.3172 C   0  0  0  0  0  0  0  0  0  0  0  0
   -4.0271   -0.9334   -1.2793 C   0  0  0  0  0  0  0  0  0  0  0  0
   -5.5846    1.2869   -0.9631 H   0  0  0  0  0  0  0  0  0  0  0  0
   -6.5582    0.6128    0.3628 H   0  0  0  0  0  0  0  0  0  0  0  0
   -6.6032   -0.1470   -1.2209 H   0  0  0  0  0  0  0  0  0  0  0  0
   -4.5986    0.0506    1.8931 H   0  0  0  0  0  0  0  0  0  0  0  0
   -3.8456    1.1482    0.7304 H   0  0  0  0  0  0  0  0  0  0  0  0
   -2.1305   -0.1076    1.9557 H   0  0  0  0  0  0  0  0  0  0  0  0
   -2.8285   -1.6546    1.4501 H   0  0  0  0  0  0  0  0  0  0  0  0
    1.0429   -1.8360    0.9585 H   0  0  0  0  0  0  0  0  0  0  0  0
   -0.4275   -1.6459    1.8884 H   0  0  0  0  0  0  0  0  0  0  0  0
    1.5262    1.6905   -0.5131 H   0  0  0  0  0  0  0  0  0  0  0  0
    3.6071    2.0280   -1.7569 H   0  0  0  0  0  0  0  0  0  0  0  0
    5.7870   -0.1905    1.2340 H   0  0  0  0  0  0  0  0  0  0  0  0
   -2.0519   -0.8045   -2.1633 H   0  0  0  0  0  0  0  0  0  0  0  0
   -2.6185    0.7176   -1.4669 H   0  0  0  0  0  0  0  0  0  0  0  0
   -4.5284   -0.7070   -2.2285 H   0  0  0  0  0  0  0  0  0  0  0  0
   -3.9541   -2.0277   -1.2340 H   0  0  0  0  0  0  0  0  0  0  0  0
  1  2  1  0
  2  3  1  0
  3  4  1  0
  4  5  1  0
  5  6  1  0
  6  7  2  0
  6  8  1  0
  8  9  1  0
  9 10  1  0
 10 11  2  0
 11 12  1  0
 12 13  2  0
 13 14  1  0
 14 15  1  0
 14 16  1  0
 14 17  1  0
 13 18  1  0
 18 19  2  0
 19 20  1  0
 20 21  2  0
 20 22  1  0
  5 23  1  0
 23 24  1  0
 24  2  1  0
 19 10  1  0
  1 25  1  0
  1 26  1  0
  1 27  1  0
  3 28  1  0
  3 29  1  0
  4 30  1  0
  4 31  1  0
  8 32  1  0
  8 33  1  0
 11 34  1  0
 12 35  1  0
 18 36  1  0
 23 37  1  0
 23 38  1  0
 24 39  1  0
 24 40  1  0
M  CHG  2  20   1  22  -1
M  END
$$$$
