
     RDKit          3D

 54 54  0  0  0  0  0  0  0  0999 V2000
   10.2850   -1.2576    0.6666 C   0  0  0  0  0  0  0  0  0  0  0  0
    9.2427   -1.7016   -0.0499 C   0  0  0  0  0  0  0  0  0  0  0  0
    8.1636   -2.5958    0.4740 C   0  0  0  0  0  0  0  0  0  0  0  0
    6.9296   -1.8408    0.4620 N   0  0  0  0  0  0  0  0  0  0  0  0
    5.9324   -2.1287   -0.4448 C   0  0  0  0  0  0  0  0  0  0  0  0
    6.0480   -2.9547   -1.3454 O   0  0  0  0  0  0  0  0  0  0  0  0
    4.8361   -1.3241   -0.2441 N   0  0  0  0  0  0  0  0  0  0  0  0
    3.7287   -1.4982   -1.0422 C   0  0  0  0  0  0  0  0  0  0  0  0
    3.0624   -2.5335   -1.0771 O   0  0  0  0  0  0  0  0  0  0  0  0
    3.2737   -0.2364   -1.7781 C   0  0  0  0  0  0  0  0  0  0  0  0
    1.8960    0.0487   -1.5243 O   0  0  0  0  0  0  0  0  0  0  0  0
    1.6299    0.4113   -0.2402 C   0  0  0  0  0  0  0  0  0  0  0  0
    2.4989    0.6531    0.5869 O   0  0  0  0  0  0  0  0  0  0  0  0
    0.1702    0.4783    0.0361 C   0  0  0  0  0  0  0  0  0  0  0  0
   -0.2058    0.8126    1.3720 C   0  0  0  0  0  0  0  0  0  0  0  0
   -0.5123    1.1005    2.4560 N   0  0  0  0  0  0  0  0  0  0  0  0
   -0.7336    0.2054   -0.9296 C   0  0  0  0  0  0  0  0  0  0  0  0
   -2.1553    0.2045   -0.7998 C   0  0  0  0  0  0  0  0  0  0  0  0
   -2.9858   -0.8993   -1.1015 C   0  0  0  0  0  0  0  0  0  0  0  0
   -4.2936   -0.5139   -0.8837 C   0  0  0  0  0  0  0  0  0  0  0  0
   -5.5334   -1.3147   -1.0826 C   0  0  0  0  0  0  0  0  0  0  0  0
   -4.2713    0.7898   -0.4196 N   0  0  0  0  0  0  0  0  0  0  0  0
   -5.4430    1.5646   -0.0178 C   0  0  0  0  0  0  0  0  0  0  0  0
   -5.6202    1.6948    1.5089 C   0  0  0  0  0  0  0  0  0  0  0  0
   -6.7026    2.7323    1.8186 C   0  0  0  0  0  0  0  0  0  0  0  0
   -5.9830    0.3614    2.1680 C   0  0  0  0  0  0  0  0  0  0  0  0
   -2.9667    1.2684   -0.4416 C   0  0  0  0  0  0  0  0  0  0  0  0
   -2.6262    2.6877   -0.1233 C   0  0  0  0  0  0  0  0  0  0  0  0
   10.4087   -1.5150    1.7133 H   0  0  0  0  0  0  0  0  0  0  0  0
   11.0418   -0.6206    0.2124 H   0  0  0  0  0  0  0  0  0  0  0  0
    9.1706   -1.4286   -1.1005 H   0  0  0  0  0  0  0  0  0  0  0  0
    8.0894   -3.4992   -0.1387 H   0  0  0  0  0  0  0  0  0  0  0  0
    8.3519   -2.9022    1.5086 H   0  0  0  0  0  0  0  0  0  0  0  0
    6.6268   -1.4666    1.3532 H   0  0  0  0  0  0  0  0  0  0  0  0
    5.0977   -0.3741   -0.0138 H   0  0  0  0  0  0  0  0  0  0  0  0
    3.8953    0.6364   -1.5452 H   0  0  0  0  0  0  0  0  0  0  0  0
    3.3811   -0.4327   -2.8519 H   0  0  0  0  0  0  0  0  0  0  0  0
   -0.3840   -0.0956   -1.9208 H   0  0  0  0  0  0  0  0  0  0  0  0
   -2.6733   -1.8825   -1.4430 H   0  0  0  0  0  0  0  0  0  0  0  0
   -5.2969   -2.2986   -1.5070 H   0  0  0  0  0  0  0  0  0  0  0  0
   -6.2137   -0.8133   -1.7795 H   0  0  0  0  0  0  0  0  0  0  0  0
   -6.0532   -1.4813   -0.1332 H   0  0  0  0  0  0  0  0  0  0  0  0
   -6.3322    1.1115   -0.4720 H   0  0  0  0  0  0  0  0  0  0  0  0
   -5.3376    2.5538   -0.4815 H   0  0  0  0  0  0  0  0  0  0  0  0
   -4.6838    2.0439    1.9608 H   0  0  0  0  0  0  0  0  0  0  0  0
   -6.8356    2.8442    2.8982 H   0  0  0  0  0  0  0  0  0  0  0  0
   -7.6668    2.4420    1.3896 H   0  0  0  0  0  0  0  0  0  0  0  0
   -6.4297    3.7125    1.4156 H   0  0  0  0  0  0  0  0  0  0  0  0
   -6.0966    0.4850    3.2490 H   0  0  0  0  0  0  0  0  0  0  0  0
   -5.1993   -0.3865    2.0074 H   0  0  0  0  0  0  0  0  0  0  0  0
   -6.9240   -0.0325    1.7735 H   0  0  0  0  0  0  0  0  0  0  0  0
   -3.2205    3.3778   -0.7293 H   0  0  0  0  0  0  0  0  0  0  0  0
   -2.8082    2.8996    0.9345 H   0  0  0  0  0  0  0  0  0  0  0  0
   -1.5719    2.9088   -0.3309 H   0  0  0  0  0  0  0  0  0  0  0  0
  1  2  2  0
  2  3  1  0
  3  4  1  0
  4  5  1  0
  5  6  2  0
  5  7  1  0
  7  8  1  0
  8  9  2  0
  8 10  1  0
 10 11  1  0
 11 12  1  0
 12 13  2  0
 12 14  1  0
 14 15  1  0
 15 16  3  0
 14 17  2  3
 17 18  1  0
 18 19  1  0
 19 20  2  0
 20 21  1  0
 20 22  1  0
 22 23  1  0
 23 24  1  0
 24 25  1  0
 24 26  1  0
 22 27  1  0
 27 28  1  0
 27 18  2  0
  1 29  1  0
  1 30  1  0
  2 31  1  0
  3 32  1  0
  3 33  1  0
  4 34  1  0
  7 35  1  0
 10 36  1  0
 10 37  1  0
 17 38  1  0
 19 39  1  0
 21 40  1  0
 21 41  1  0
 21 42  1  0
 23 43  1  0
 23 44  1  0
 24 45  1  0
 25 46  1  0
 25 47  1  0
 25 48  1  0
 26 49  1  0
 26 50  1  0
 26 51  1  0
 28 52  1  0
 28 53  1  0
 28 54  1  0
M  END
$$$$
