
     RDKit          3D

 53 56  0  0  0  0  0  0  0  0999 V2000
   -2.9005    5.3516    2.5293 C   0  0  0  0  0  0  0  0  0  0  0  0
   -2.4690    4.0269    2.8119 O   0  0  0  0  0  0  0  0  0  0  0  0
   -2.0363    3.2774    1.7534 C   0  0  0  0  0  0  0  0  0  0  0  0
   -2.0356    3.6690    0.4156 C   0  0  0  0  0  0  0  0  0  0  0  0
   -1.5641    2.7973   -0.5740 C   0  0  0  0  0  0  0  0  0  0  0  0
   -1.0798    1.5209   -0.2434 C   0  0  0  0  0  0  0  0  0  0  0  0
   -0.6042    0.5923   -1.3514 C   0  0  0  0  0  0  0  0  0  0  0  0
   -1.7195   -0.3646   -1.7793 C   0  0  0  0  0  0  0  0  0  0  0  0
   -1.2162   -1.6432   -1.1649 C   0  0  0  0  0  0  0  0  0  0  0  0
   -2.0635   -2.8537   -1.0793 C   0  0  0  0  0  0  0  0  0  0  0  0
   -3.0345   -3.0535   -2.0752 C   0  0  0  0  0  0  0  0  0  0  0  0
   -3.8399   -4.1926   -2.0648 C   0  0  0  0  0  0  0  0  0  0  0  0
   -3.6829   -5.1430   -1.0635 C   0  0  0  0  0  0  0  0  0  0  0  0
   -2.7255   -4.9505   -0.0674 C   0  0  0  0  0  0  0  0  0  0  0  0
   -1.9063   -3.8017   -0.0502 C   0  0  0  0  0  0  0  0  0  0  0  0
   -0.9193   -3.6322    1.0835 C   0  0  0  0  0  0  0  0  0  0  0  0
   -1.1615   -4.5115    2.1065 F   0  0  0  0  0  0  0  0  0  0  0  0
    0.3716   -3.8673    0.7277 F   0  0  0  0  0  0  0  0  0  0  0  0
   -0.9713   -2.4070    1.6739 F   0  0  0  0  0  0  0  0  0  0  0  0
    0.0128   -1.6068   -0.7589 N   0  0  0  0  0  0  0  0  0  0  0  0
    0.4588   -0.3289   -0.9426 N   0  0  0  0  0  0  0  0  0  0  0  0
    1.7805    0.0117   -0.6617 C   0  0  0  0  0  0  0  0  0  0  0  0
    2.2733    1.3176   -0.8243 C   0  0  0  0  0  0  0  0  0  0  0  0
    3.6062    1.6430   -0.5409 C   0  0  0  0  0  0  0  0  0  0  0  0
    4.4776    0.6516   -0.0942 C   0  0  0  0  0  0  0  0  0  0  0  0
    6.1524    1.0561    0.2927 S   0  0  0  0  0  6  0  0  0  0  0  0
    6.9492    0.6331   -1.1243 N   0  0  0  0  0  0  0  0  0  0  0  0
    6.2882    2.4905    0.4015 O   0  0  0  0  0  0  0  0  0  0  0  0
    6.6432    0.1536    1.3077 O   0  0  0  0  0  0  0  0  0  0  0  0
    4.0225   -0.6512    0.0907 C   0  0  0  0  0  0  0  0  0  0  0  0
    2.6886   -0.9593   -0.1978 C   0  0  0  0  0  0  0  0  0  0  0  0
   -1.0931    1.1363    1.1047 C   0  0  0  0  0  0  0  0  0  0  0  0
   -1.5648    2.0080    2.0895 C   0  0  0  0  0  0  0  0  0  0  0  0
   -2.0922    5.9464    2.0911 H   0  0  0  0  0  0  0  0  0  0  0  0
   -3.1828    5.8207    3.4768 H   0  0  0  0  0  0  0  0  0  0  0  0
   -3.7846    5.3483    1.8833 H   0  0  0  0  0  0  0  0  0  0  0  0
   -2.3961    4.6444    0.1070 H   0  0  0  0  0  0  0  0  0  0  0  0
   -1.5779    3.1288   -1.6103 H   0  0  0  0  0  0  0  0  0  0  0  0
   -0.2819    1.1842   -2.2175 H   0  0  0  0  0  0  0  0  0  0  0  0
   -1.7285   -0.4774   -2.8687 H   0  0  0  0  0  0  0  0  0  0  0  0
   -2.7175   -0.0986   -1.4207 H   0  0  0  0  0  0  0  0  0  0  0  0
   -3.1662   -2.3420   -2.8862 H   0  0  0  0  0  0  0  0  0  0  0  0
   -4.5835   -4.3422   -2.8443 H   0  0  0  0  0  0  0  0  0  0  0  0
   -4.3054   -6.0350   -1.0548 H   0  0  0  0  0  0  0  0  0  0  0  0
   -2.6242   -5.7062    0.7121 H   0  0  0  0  0  0  0  0  0  0  0  0
    1.6242    2.1175   -1.1677 H   0  0  0  0  0  0  0  0  0  0  0  0
    3.9463    2.6679   -0.6689 H   0  0  0  0  0  0  0  0  0  0  0  0
    7.6077   -0.1227   -0.9355 H   0  0  0  0  0  0  0  0  0  0  0  0
    7.3750    1.4613   -1.5399 H   0  0  0  0  0  0  0  0  0  0  0  0
    4.6852   -1.4308    0.4576 H   0  0  0  0  0  0  0  0  0  0  0  0
    2.3486   -1.9831   -0.0479 H   0  0  0  0  0  0  0  0  0  0  0  0
   -0.7250    0.1561    1.4053 H   0  0  0  0  0  0  0  0  0  0  0  0
   -1.5582    1.6921    3.1301 H   0  0  0  0  0  0  0  0  0  0  0  0
  1  2  1  0
  2  3  1  0
  3  4  2  0
  4  5  1  0
  5  6  2  0
  6  7  1  0
  7  8  1  0
  8  9  1  0
  9 10  1  0
 10 11  2  0
 11 12  1  0
 12 13  2  0
 13 14  1  0
 14 15  2  0
 15 16  1  0
 16 17  1  0
 16 18  1  0
 16 19  1  0
  9 20  2  0
 20 21  1  0
 21 22  1  0
 22 23  2  0
 23 24  1  0
 24 25  2  0
 25 26  1  0
 26 27  1  0
 26 28  2  0
 26 29  2  0
 25 30  1  0
 30 31  2  0
  6 32  1  0
 32 33  2  0
 33  3  1  0
 21  7  1  0
 31 22  1  0
 15 10  1  0
  1 34  1  0
  1 35  1  0
  1 36  1  0
  4 37  1  0
  5 38  1  0
  7 39  1  0
  8 40  1  0
  8 41  1  0
 11 42  1  0
 12 43  1  0
 13 44  1  0
 14 45  1  0
 23 46  1  0
 24 47  1  0
 27 48  1  0
 27 49  1  0
 30 50  1  0
 31 51  1  0
 32 52  1  0
 33 53  1  0
M  END
$$$$
