
     RDKit          3D

 40 44  0  0  0  0  0  0  0  0999 V2000
    8.8574    0.4990   -0.7166 O   0  0  0  0  0  0  0  0  0  0  0  0
    7.7678    0.6127   -0.1867 C   0  0  0  0  0  0  0  0  0  0  0  0
    7.6288    1.2440    0.9926 O   0  0  0  0  0  0  0  0  0  0  0  0
    6.4829    0.1025   -0.7230 C   0  0  0  0  0  0  0  0  0  0  0  0
    6.5005   -0.5742   -1.9468 C   0  0  0  0  0  0  0  0  0  0  0  0
    5.3147   -1.0687   -2.4846 C   0  0  0  0  0  0  0  0  0  0  0  0
    4.1097   -0.8880   -1.8005 C   0  0  0  0  0  0  0  0  0  0  0  0
    4.0671   -0.2121   -0.5703 C   0  0  0  0  0  0  0  0  0  0  0  0
    2.8074   -0.0221    0.1465 C   0  0  0  0  0  0  0  0  0  0  0  0
    2.4518    0.5741    1.3347 C   0  0  0  0  0  0  0  0  0  0  0  0
    1.0502    0.4097    1.4632 C   0  0  0  0  0  0  0  0  0  0  0  0
    0.5886   -0.2671    0.3409 C   0  0  0  0  0  0  0  0  0  0  0  0
   -0.7027   -0.7131   -0.0561 C   0  0  0  0  0  0  0  0  0  0  0  0
   -1.8813   -0.1700    0.2762 C   0  0  0  0  0  0  0  0  0  0  0  0
   -2.2187    1.2367    1.2524 S   0  0  0  0  0  0  0  0  0  0  0  0
   -3.9039    1.0294    0.9791 C   0  0  0  0  0  0  0  0  0  0  0  0
   -4.9555    1.6884    1.3771 N   0  0  0  0  0  0  0  0  0  0  0  0
   -6.0024    0.9952    0.8001 C   0  0  0  0  0  0  0  0  0  0  0  0
   -7.3809    1.2432    0.8764 C   0  0  0  0  0  0  0  0  0  0  0  0
   -8.2589    0.3891    0.1965 C   0  0  0  0  0  0  0  0  0  0  0  0
   -7.7780   -0.6923   -0.5460 C   0  0  0  0  0  0  0  0  0  0  0  0
   -6.4079   -0.9612   -0.6378 C   0  0  0  0  0  0  0  0  0  0  0  0
   -5.5493   -0.0964    0.0481 C   0  0  0  0  0  0  0  0  0  0  0  0
   -4.1876   -0.0363    0.1928 N   0  0  0  0  0  0  0  0  0  0  0  0
   -3.1295   -0.7877   -0.2662 C   0  0  0  0  0  0  0  0  0  0  0  0
   -3.2719   -1.7647   -0.9777 O   0  0  0  0  0  0  0  0  0  0  0  0
    1.6910   -0.5365   -0.4424 O   0  0  0  0  0  0  0  0  0  0  0  0
    5.2699    0.2810   -0.0405 C   0  0  0  0  0  0  0  0  0  0  0  0
    8.5423    1.5206    1.2173 H   0  0  0  0  0  0  0  0  0  0  0  0
    7.4364   -0.7175   -2.4836 H   0  0  0  0  0  0  0  0  0  0  0  0
    5.3252   -1.5951   -3.4360 H   0  0  0  0  0  0  0  0  0  0  0  0
    3.1965   -1.2836   -2.2419 H   0  0  0  0  0  0  0  0  0  0  0  0
    3.1141    1.0621    2.0354 H   0  0  0  0  0  0  0  0  0  0  0  0
    0.4546    0.7438    2.3009 H   0  0  0  0  0  0  0  0  0  0  0  0
   -0.6961   -1.5679   -0.7320 H   0  0  0  0  0  0  0  0  0  0  0  0
   -7.7525    2.0834    1.4533 H   0  0  0  0  0  0  0  0  0  0  0  0
   -9.3300    0.5726    0.2489 H   0  0  0  0  0  0  0  0  0  0  0  0
   -8.4830   -1.3399   -1.0645 H   0  0  0  0  0  0  0  0  0  0  0  0
   -6.0348   -1.8021   -1.2154 H   0  0  0  0  0  0  0  0  0  0  0  0
    5.2681    0.8089    0.9098 H   0  0  0  0  0  0  0  0  0  0  0  0
  1  2  2  0
  2  3  1  0
  2  4  1  0
  4  5  2  0
  5  6  1  0
  6  7  2  0
  7  8  1  0
  8  9  1  0
  9 10  2  0
 10 11  1  0
 11 12  2  0
 12 13  1  0
 13 14  2  3
 14 15  1  0
 15 16  1  0
 16 17  2  0
 17 18  1  0
 18 19  2  0
 19 20  1  0
 20 21  2  0
 21 22  1  0
 22 23  2  0
 23 24  1  0
 24 25  1  0
 25 26  2  0
 12 27  1  0
  8 28  2  0
 28  4  1  0
 27  9  1  0
 25 14  1  0
 24 16  1  0
 23 18  1  0
  3 29  1  0
  5 30  1  0
  6 31  1  0
  7 32  1  0
 10 33  1  0
 11 34  1  0
 13 35  1  0
 19 36  1  0
 20 37  1  0
 21 38  1  0
 22 39  1  0
 28 40  1  0
M  END
$$$$
