
     RDKit          3D

 37 40  0  0  0  0  0  0  0  0999 V2000
   -2.8642    3.7246   -1.1089 C   0  0  0  0  0  0  0  0  0  0  0  0
   -2.0814    2.9930   -0.1741 O   0  0  0  0  0  0  0  0  0  0  0  0
   -2.2445    1.6369   -0.1562 C   0  0  0  0  0  0  0  0  0  0  0  0
   -3.1144    0.9061   -0.9520 C   0  0  0  0  0  0  0  0  0  0  0  0
   -3.1749   -0.4849   -0.8165 C   0  0  0  0  0  0  0  0  0  0  0  0
   -2.3880   -1.1754    0.0938 C   0  0  0  0  0  0  0  0  0  0  0  0
   -2.5239   -2.5098    0.1537 N   0  0  0  0  0  0  0  0  0  0  0  0
   -1.7801   -3.2068    1.0384 C   0  0  0  0  0  0  0  0  0  0  0  0
   -1.9724   -4.6930    1.0785 C   0  0  0  0  0  0  0  0  0  0  0  0
   -0.8699   -2.5980    1.8837 C   0  0  0  0  0  0  0  0  0  0  0  0
   -0.7097   -1.2118    1.8145 C   0  0  0  0  0  0  0  0  0  0  0  0
    0.4949   -0.4910    2.9376 S   0  0  0  0  0  0  0  0  0  0  0  0
    1.7493   -0.1444    1.7596 C   0  0  0  0  0  0  0  0  0  0  0  0
    2.0425    1.0960    1.4476 N   0  0  0  0  0  0  0  0  0  0  0  0
    3.0518    1.1108    0.5008 C   0  0  0  0  0  0  0  0  0  0  0  0
    3.6150    2.2611   -0.0879 C   0  0  0  0  0  0  0  0  0  0  0  0
    4.6354    2.1296   -1.0354 C   0  0  0  0  0  0  0  0  0  0  0  0
    5.0995    0.8699   -1.4010 C   0  0  0  0  0  0  0  0  0  0  0  0
    4.5584   -0.2872   -0.8317 C   0  0  0  0  0  0  0  0  0  0  0  0
    3.5335   -0.1433    0.1182 C   0  0  0  0  0  0  0  0  0  0  0  0
    2.6772   -1.3586    0.9872 S   0  0  0  0  0  0  0  0  0  0  0  0
   -1.4931   -0.4536    0.9077 C   0  0  0  0  0  0  0  0  0  0  0  0
   -1.4434    0.9586    0.7653 C   0  0  0  0  0  0  0  0  0  0  0  0
   -2.6107    4.7836   -1.0011 H   0  0  0  0  0  0  0  0  0  0  0  0
   -3.9334    3.6150   -0.8993 H   0  0  0  0  0  0  0  0  0  0  0  0
   -2.6302    3.4289   -2.1370 H   0  0  0  0  0  0  0  0  0  0  0  0
   -3.7614    1.3763   -1.6844 H   0  0  0  0  0  0  0  0  0  0  0  0
   -3.8631   -1.0486   -1.4432 H   0  0  0  0  0  0  0  0  0  0  0  0
   -1.0334   -5.2022    0.8403 H   0  0  0  0  0  0  0  0  0  0  0  0
   -2.7257   -5.0085    0.3494 H   0  0  0  0  0  0  0  0  0  0  0  0
   -2.3089   -5.0041    2.0723 H   0  0  0  0  0  0  0  0  0  0  0  0
   -0.2920   -3.1969    2.5811 H   0  0  0  0  0  0  0  0  0  0  0  0
    3.2489    3.2418    0.1999 H   0  0  0  0  0  0  0  0  0  0  0  0
    5.0661    3.0200   -1.4875 H   0  0  0  0  0  0  0  0  0  0  0  0
    5.8938    0.7821   -2.1396 H   0  0  0  0  0  0  0  0  0  0  0  0
    4.9217   -1.2694   -1.1184 H   0  0  0  0  0  0  0  0  0  0  0  0
   -0.7689    1.5531    1.3791 H   0  0  0  0  0  0  0  0  0  0  0  0
  1  2  1  0
  2  3  1  0
  3  4  2  0
  4  5  1  0
  5  6  2  0
  6  7  1  0
  7  8  2  0
  8  9  1  0
  8 10  1  0
 10 11  2  0
 11 12  1  0
 12 13  1  0
 13 14  2  0
 14 15  1  0
 15 16  2  0
 16 17  1  0
 17 18  2  0
 18 19  1  0
 19 20  2  0
 20 21  1  0
 11 22  1  0
 22 23  2  0
 23  3  1  0
 22  6  1  0
 21 13  1  0
 20 15  1  0
  1 24  1  0
  1 25  1  0
  1 26  1  0
  4 27  1  0
  5 28  1  0
  9 29  1  0
  9 30  1  0
  9 31  1  0
 10 32  1  0
 16 33  1  0
 17 34  1  0
 18 35  1  0
 19 36  1  0
 23 37  1  0
M  END
$$$$
