
     RDKit          3D

 44 47  0  0  0  0  0  0  0  0999 V2000
    7.6561   -2.1706    0.0725 C   0  0  0  0  0  0  0  0  0  0  0  0
    7.4730   -0.6686    0.2027 C   0  0  0  0  0  0  0  0  0  0  0  0
    6.6173   -0.1730   -0.8247 O   0  0  0  0  0  0  0  0  0  0  0  0
    5.2670   -0.1078   -0.6127 C   0  0  0  0  0  0  0  0  0  0  0  0
    4.6059   -0.6339    0.5003 C   0  0  0  0  0  0  0  0  0  0  0  0
    3.2161   -0.5160    0.6209 C   0  0  0  0  0  0  0  0  0  0  0  0
    2.4686    0.1345   -0.3667 C   0  0  0  0  0  0  0  0  0  0  0  0
    0.9916    0.2313   -0.1936 C   0  0  0  0  0  0  0  0  0  0  0  0
    0.4216   -0.6833    0.3872 O   0  0  0  0  0  0  0  0  0  0  0  0
    0.4197    1.3909   -0.6842 N   0  0  0  0  0  0  0  0  0  0  0  0
   -0.9506    1.7312   -0.6976 C   0  0  0  0  0  0  0  0  0  0  0  0
   -1.2814    3.0090   -1.1648 C   0  0  0  0  0  0  0  0  0  0  0  0
   -2.6114    3.4256   -1.2166 C   0  0  0  0  0  0  0  0  0  0  0  0
   -3.6269    2.5642   -0.8038 C   0  0  0  0  0  0  0  0  0  0  0  0
   -3.3245    1.2770   -0.3366 C   0  0  0  0  0  0  0  0  0  0  0  0
   -4.3725    0.3526    0.0965 C   0  0  0  0  0  0  0  0  0  0  0  0
   -4.2543   -0.8871    0.5420 N   0  0  0  0  0  0  0  0  0  0  0  0
   -5.5472   -1.2607    0.7940 C   0  0  0  0  0  0  0  0  0  0  0  0
   -6.0951   -2.4514    1.2808 C   0  0  0  0  0  0  0  0  0  0  0  0
   -7.4849   -2.4960    1.4199 C   0  0  0  0  0  0  0  0  0  0  0  0
   -8.2420   -1.3778    1.0748 C   0  0  0  0  0  0  0  0  0  0  0  0
   -7.7569   -0.2054    0.6002 N   0  0  0  0  0  0  0  0  0  0  0  0
   -6.4161   -0.2206    0.4876 C   0  0  0  0  0  0  0  0  0  0  0  0
   -5.6616    0.8210    0.0374 O   0  0  0  0  0  0  0  0  0  0  0  0
   -1.9770    0.8735   -0.2901 C   0  0  0  0  0  0  0  0  0  0  0  0
    3.1143    0.6407   -1.4970 C   0  0  0  0  0  0  0  0  0  0  0  0
    4.5034    0.5212   -1.6125 C   0  0  0  0  0  0  0  0  0  0  0  0
    5.2460    1.1776   -3.0321 Cl  0  0  0  0  0  0  0  0  0  0  0  0
    8.0284   -2.4254   -0.9253 H   0  0  0  0  0  0  0  0  0  0  0  0
    6.7091   -2.7028    0.2018 H   0  0  0  0  0  0  0  0  0  0  0  0
    8.3673   -2.5391    0.8173 H   0  0  0  0  0  0  0  0  0  0  0  0
    7.1455   -0.3706    1.2046 H   0  0  0  0  0  0  0  0  0  0  0  0
    8.4467   -0.1886    0.0519 H   0  0  0  0  0  0  0  0  0  0  0  0
    5.1340   -1.1557    1.2916 H   0  0  0  0  0  0  0  0  0  0  0  0
    2.7155   -0.9383    1.4917 H   0  0  0  0  0  0  0  0  0  0  0  0
    1.0480    2.1131   -1.0107 H   0  0  0  0  0  0  0  0  0  0  0  0
   -0.5098    3.7008   -1.4929 H   0  0  0  0  0  0  0  0  0  0  0  0
   -2.8580    4.4206   -1.5786 H   0  0  0  0  0  0  0  0  0  0  0  0
   -4.6586    2.9080   -0.8526 H   0  0  0  0  0  0  0  0  0  0  0  0
   -5.4637   -3.2942    1.5356 H   0  0  0  0  0  0  0  0  0  0  0  0
   -7.9715   -3.3920    1.7929 H   0  0  0  0  0  0  0  0  0  0  0  0
   -9.3253   -1.4036    1.1799 H   0  0  0  0  0  0  0  0  0  0  0  0
   -1.7564   -0.1293    0.0678 H   0  0  0  0  0  0  0  0  0  0  0  0
    2.5507    1.0989   -2.3045 H   0  0  0  0  0  0  0  0  0  0  0  0
  1  2  1  0
  2  3  1  0
  3  4  1  0
  4  5  2  0
  5  6  1  0
  6  7  2  0
  7  8  1  0
  8  9  2  0
  8 10  1  0
 10 11  1  0
 11 12  2  0
 12 13  1  0
 13 14  2  0
 14 15  1  0
 15 16  1  0
 16 17  2  0
 17 18  1  0
 18 19  2  0
 19 20  1  0
 20 21  2  0
 21 22  1  0
 22 23  2  0
 23 24  1  0
 15 25  2  0
  7 26  1  0
 26 27  2  0
 27 28  1  0
 27  4  1  0
 25 11  1  0
 24 16  1  0
 23 18  1  0
  1 29  1  0
  1 30  1  0
  1 31  1  0
  2 32  1  0
  2 33  1  0
  5 34  1  0
  6 35  1  0
 10 36  1  0
 12 37  1  0
 13 38  1  0
 14 39  1  0
 19 40  1  0
 20 41  1  0
 21 42  1  0
 25 43  1  0
 26 44  1  0
M  END
$$$$
