
     RDKit          3D

 46 48  0  0  0  0  0  0  0  0999 V2000
    5.1718    3.0434   -0.4130 C   0  0  0  0  0  0  0  0  0  0  0  0
    4.1391    2.7471   -1.3428 O   0  0  0  0  0  0  0  0  0  0  0  0
    4.6609    2.4120   -2.6295 C   0  0  0  0  0  0  0  0  0  0  0  0
    3.5065    2.1007   -3.5785 C   0  0  0  0  0  0  0  0  0  0  0  0
    2.8596    0.8878   -3.1525 O   0  0  0  0  0  0  0  0  0  0  0  0
    1.6632    1.0279   -2.5120 C   0  0  0  0  0  0  0  0  0  0  0  0
    1.0556    2.0855   -2.3986 O   0  0  0  0  0  0  0  0  0  0  0  0
    1.1494   -0.2308   -1.9932 C   0  0  0  0  0  0  0  0  0  0  0  0
    1.7117   -1.4932   -2.1278 C   0  0  0  0  0  0  0  0  0  0  0  0
    2.9361   -2.0115   -2.7778 C   0  0  0  0  0  0  0  0  0  0  0  0
    0.9345   -2.4321   -1.5177 O   0  0  0  0  0  0  0  0  0  0  0  0
   -0.1301   -1.7875   -0.9769 C   0  0  0  0  0  0  0  0  0  0  0  0
   -1.1595   -2.3960   -0.2625 C   0  0  0  0  0  0  0  0  0  0  0  0
   -2.1685   -1.5553    0.2188 C   0  0  0  0  0  0  0  0  0  0  0  0
   -2.1302   -0.1795   -0.0172 C   0  0  0  0  0  0  0  0  0  0  0  0
   -3.1455    0.6564    0.5273 N   0  0  0  0  0  0  0  0  0  0  0  0
   -2.9579    1.1876    2.1244 S   0  0  0  0  0  6  0  0  0  0  0  0
   -3.8853    2.2869    2.2928 O   0  0  0  0  0  0  0  0  0  0  0  0
   -1.5518    1.3409    2.4256 O   0  0  0  0  0  0  0  0  0  0  0  0
   -3.5979   -0.1780    3.0648 C   0  0  0  0  0  0  0  0  0  0  0  0
   -4.9815   -0.3893    3.1094 C   0  0  0  0  0  0  0  0  0  0  0  0
   -5.4872   -1.4536    3.8563 C   0  0  0  0  0  0  0  0  0  0  0  0
   -4.6114   -2.2832    4.5516 C   0  0  0  0  0  0  0  0  0  0  0  0
   -5.1011   -3.3046    5.2660 F   0  0  0  0  0  0  0  0  0  0  0  0
   -3.2361   -2.0686    4.5195 C   0  0  0  0  0  0  0  0  0  0  0  0
   -2.7212   -1.0063    3.7758 C   0  0  0  0  0  0  0  0  0  0  0  0
   -1.0766    0.4045   -0.7339 C   0  0  0  0  0  0  0  0  0  0  0  0
   -0.0520   -0.4256   -1.2343 C   0  0  0  0  0  0  0  0  0  0  0  0
    4.7107    3.2924    0.5464 H   0  0  0  0  0  0  0  0  0  0  0  0
    5.7583    3.9023   -0.7530 H   0  0  0  0  0  0  0  0  0  0  0  0
    5.8220    2.1744   -0.2734 H   0  0  0  0  0  0  0  0  0  0  0  0
    5.2413    3.2558   -3.0180 H   0  0  0  0  0  0  0  0  0  0  0  0
    5.3101    1.5345   -2.5310 H   0  0  0  0  0  0  0  0  0  0  0  0
    3.8957    1.9170   -4.5850 H   0  0  0  0  0  0  0  0  0  0  0  0
    2.8094    2.9431   -3.6386 H   0  0  0  0  0  0  0  0  0  0  0  0
    3.0170   -3.0974   -2.6646 H   0  0  0  0  0  0  0  0  0  0  0  0
    2.9276   -1.7868   -3.8487 H   0  0  0  0  0  0  0  0  0  0  0  0
    3.8280   -1.5614   -2.3313 H   0  0  0  0  0  0  0  0  0  0  0  0
   -1.1718   -3.4659   -0.0930 H   0  0  0  0  0  0  0  0  0  0  0  0
   -2.9959   -1.9949    0.7701 H   0  0  0  0  0  0  0  0  0  0  0  0
   -3.4720    1.4265   -0.0573 H   0  0  0  0  0  0  0  0  0  0  0  0
   -5.6610    0.2679    2.5709 H   0  0  0  0  0  0  0  0  0  0  0  0
   -6.5558   -1.6395    3.9058 H   0  0  0  0  0  0  0  0  0  0  0  0
   -2.5766   -2.7270    5.0768 H   0  0  0  0  0  0  0  0  0  0  0  0
   -1.6471   -0.8331    3.7526 H   0  0  0  0  0  0  0  0  0  0  0  0
   -1.0346    1.4784   -0.8928 H   0  0  0  0  0  0  0  0  0  0  0  0
  1  2  1  0
  2  3  1  0
  3  4  1  0
  4  5  1  0
  5  6  1  0
  6  7  2  0
  6  8  1  0
  8  9  2  0
  9 10  1  0
  9 11  1  0
 11 12  1  0
 12 13  2  0
 13 14  1  0
 14 15  2  0
 15 16  1  0
 16 17  1  0
 17 18  2  0
 17 19  2  0
 17 20  1  0
 20 21  2  0
 21 22  1  0
 22 23  2  0
 23 24  1  0
 23 25  1  0
 25 26  2  0
 15 27  1  0
 27 28  2  0
 28  8  1  0
 28 12  1  0
 26 20  1  0
  1 29  1  0
  1 30  1  0
  1 31  1  0
  3 32  1  0
  3 33  1  0
  4 34  1  0
  4 35  1  0
 10 36  1  0
 10 37  1  0
 10 38  1  0
 13 39  1  0
 14 40  1  0
 16 41  1  0
 21 42  1  0
 22 43  1  0
 25 44  1  0
 26 45  1  0
 27 46  1  0
M  END
$$$$
