
     RDKit          3D

 60 65  0  0  0  0  0  0  0  0999 V2000
    0.6938   -2.3491   -1.4233 O   0  0  0  0  0  0  0  0  0  0  0  0
    1.7245   -2.0372   -0.8322 C   0  0  0  0  0  0  0  0  0  0  0  0
    2.2601   -2.9259    0.2806 C   0  0  0  0  0  0  0  0  0  0  0  0
    1.9413   -2.2300    1.9277 S   0  0  0  0  0  0  0  0  0  0  0  0
    0.3385   -1.5523    1.6410 C   0  0  0  0  0  0  0  0  0  0  0  0
    0.3385   -0.2690    1.5053 N   0  0  0  0  0  0  0  0  0  0  0  0
   -0.8418    0.3428    1.1039 C   0  0  0  0  0  0  0  0  0  0  0  0
   -0.7626    1.6852    0.9899 N   0  0  0  0  0  0  0  0  0  0  0  0
   -1.8560    2.3516    0.5388 C   0  0  0  0  0  0  0  0  0  0  0  0
   -3.0571    1.7094    0.2172 C   0  0  0  0  0  0  0  0  0  0  0  0
   -3.1093    0.3192    0.3506 C   0  0  0  0  0  0  0  0  0  0  0  0
   -1.9824   -0.3675    0.8020 C   0  0  0  0  0  0  0  0  0  0  0  0
   -1.9694   -1.8219    1.0041 C   0  0  0  0  0  0  0  0  0  0  0  0
   -3.0221   -2.4318    0.7938 O   0  0  0  0  0  0  0  0  0  0  0  0
   -0.7726   -2.3774    1.4777 N   0  0  0  0  0  0  0  0  0  0  0  0
   -0.7687   -3.7752    1.8029 C   0  0  0  0  0  0  0  0  0  0  0  0
   -1.2834   -4.7191    0.9013 C   0  0  0  0  0  0  0  0  0  0  0  0
   -1.2726   -6.0820    1.2103 C   0  0  0  0  0  0  0  0  0  0  0  0
   -0.7608   -6.5188    2.4304 C   0  0  0  0  0  0  0  0  0  0  0  0
   -0.2681   -5.5924    3.3460 C   0  0  0  0  0  0  0  0  0  0  0  0
   -0.2763   -4.2291    3.0364 C   0  0  0  0  0  0  0  0  0  0  0  0
   -4.2465    2.4607   -0.3219 C   0  0  0  0  0  0  0  0  0  0  0  0
   -4.1721    3.9662   -0.0642 C   0  0  0  0  0  0  0  0  0  0  0  0
   -2.7890    4.5029   -0.4186 C   0  0  0  0  0  0  0  0  0  0  0  0
   -1.7266    3.8513    0.4644 C   0  0  0  0  0  0  0  0  0  0  0  0
    2.4870   -0.8994   -1.0324 N   0  0  0  0  0  0  0  0  0  0  0  0
    2.2975    0.1204   -2.0049 C   0  0  0  0  0  0  0  0  0  0  0  0
    1.3687   -0.0370   -3.0426 C   0  0  0  0  0  0  0  0  0  0  0  0
    1.1960    0.9507   -4.0090 C   0  0  0  0  0  0  0  0  0  0  0  0
    1.9581    2.1122   -3.9598 C   0  0  0  0  0  0  0  0  0  0  0  0
    2.9023    2.3062   -2.9447 C   0  0  0  0  0  0  0  0  0  0  0  0
    3.6599    3.4895   -2.9311 C   0  0  0  0  0  0  0  0  0  0  0  0
    4.6069    3.7265   -1.9397 C   0  0  0  0  0  0  0  0  0  0  0  0
    4.8049    2.7831   -0.9435 C   0  0  0  0  0  0  0  0  0  0  0  0
    4.0591    1.6003   -0.9429 C   0  0  0  0  0  0  0  0  0  0  0  0
    3.0891    1.3155   -1.9417 C   0  0  0  0  0  0  0  0  0  0  0  0
    1.7955   -3.9130    0.1988 H   0  0  0  0  0  0  0  0  0  0  0  0
    3.3374   -3.0639    0.1499 H   0  0  0  0  0  0  0  0  0  0  0  0
   -4.0167   -0.2262    0.1065 H   0  0  0  0  0  0  0  0  0  0  0  0
   -1.6799   -4.4059   -0.0630 H   0  0  0  0  0  0  0  0  0  0  0  0
   -1.6680   -6.8005    0.4959 H   0  0  0  0  0  0  0  0  0  0  0  0
   -0.7567   -7.5796    2.6718 H   0  0  0  0  0  0  0  0  0  0  0  0
    0.1144   -5.9284    4.3070 H   0  0  0  0  0  0  0  0  0  0  0  0
    0.0786   -3.5284    3.7891 H   0  0  0  0  0  0  0  0  0  0  0  0
   -4.2976    2.2828   -1.4063 H   0  0  0  0  0  0  0  0  0  0  0  0
   -5.1724    2.0694    0.1233 H   0  0  0  0  0  0  0  0  0  0  0  0
   -4.9408    4.4783   -0.6542 H   0  0  0  0  0  0  0  0  0  0  0  0
   -4.3860    4.1741    0.9932 H   0  0  0  0  0  0  0  0  0  0  0  0
   -2.5744    4.3004   -1.4756 H   0  0  0  0  0  0  0  0  0  0  0  0
   -2.7607    5.5901   -0.2871 H   0  0  0  0  0  0  0  0  0  0  0  0
   -1.8113    4.2440    1.4860 H   0  0  0  0  0  0  0  0  0  0  0  0
   -0.7286    4.1190    0.0935 H   0  0  0  0  0  0  0  0  0  0  0  0
    3.1662   -0.7061   -0.3101 H   0  0  0  0  0  0  0  0  0  0  0  0
    0.7595   -0.9305   -3.1383 H   0  0  0  0  0  0  0  0  0  0  0  0
    0.4673    0.8089   -4.8038 H   0  0  0  0  0  0  0  0  0  0  0  0
    1.8062    2.8685   -4.7286 H   0  0  0  0  0  0  0  0  0  0  0  0
    3.5133    4.2446   -3.7013 H   0  0  0  0  0  0  0  0  0  0  0  0
    5.1799    4.6476   -1.9423 H   0  0  0  0  0  0  0  0  0  0  0  0
    5.5339    2.9655   -0.1584 H   0  0  0  0  0  0  0  0  0  0  0  0
    4.2518    0.9109   -0.1278 H   0  0  0  0  0  0  0  0  0  0  0  0
  1  2  2  0
  2  3  1  0
  3  4  1  0
  4  5  1  0
  5  6  2  0
  6  7  1  0
  7  8  2  0
  8  9  1  0
  9 10  2  0
 10 11  1  0
 11 12  2  0
 12 13  1  0
 13 14  2  0
 13 15  1  0
 15 16  1  0
 16 17  2  0
 17 18  1  0
 18 19  2  0
 19 20  1  0
 20 21  2  0
 10 22  1  0
 22 23  1  0
 23 24  1  0
 24 25  1  0
  2 26  1  0
 26 27  1  0
 27 28  2  0
 28 29  1  0
 29 30  2  0
 30 31  1  0
 31 32  2  0
 32 33  1  0
 33 34  2  0
 34 35  1  0
 35 36  2  0
 15  5  1  0
 21 16  1  0
 36 27  1  0
 12  7  1  0
 36 31  1  0
 25  9  1  0
  3 37  1  0
  3 38  1  0
 11 39  1  0
 17 40  1  0
 18 41  1  0
 19 42  1  0
 20 43  1  0
 21 44  1  0
 22 45  1  0
 22 46  1  0
 23 47  1  0
 23 48  1  0
 24 49  1  0
 24 50  1  0
 25 51  1  0
 25 52  1  0
 26 53  1  0
 28 54  1  0
 29 55  1  0
 30 56  1  0
 32 57  1  0
 33 58  1  0
 34 59  1  0
 35 60  1  0
M  END
$$$$
