
     RDKit          3D

 40 41  0  0  0  0  0  0  0  0999 V2000
    5.2786    1.2262    0.6499 C   0  0  0  0  0  0  0  0  0  0  0  0
    4.8798    0.2374   -0.4295 C   0  0  0  0  0  0  0  0  0  0  0  0
    3.5534   -0.2518   -0.1877 O   0  0  0  0  0  0  0  0  0  0  0  0
    2.5343    0.5070   -0.6886 C   0  0  0  0  0  0  0  0  0  0  0  0
    2.7119    1.5458   -1.3162 O   0  0  0  0  0  0  0  0  0  0  0  0
    1.2075   -0.0492   -0.4001 C   0  0  0  0  0  0  0  0  0  0  0  0
    0.0024    0.5912   -0.6920 C   0  0  0  0  0  0  0  0  0  0  0  0
   -0.2268    1.9414   -1.2906 C   0  0  0  0  0  0  0  0  0  0  0  0
   -1.0278   -0.2545   -0.3324 N   0  0  0  0  0  0  0  0  0  0  0  0
   -2.4463   -0.0158   -0.5846 C   0  0  0  0  0  0  0  0  0  0  0  0
   -2.9574    0.7825    0.4781 O   0  0  0  0  0  0  0  0  0  0  0  0
   -4.3407    1.0804    0.3248 C   0  0  0  0  0  0  0  0  0  0  0  0
   -4.5728    2.2627   -0.6141 C   0  0  0  0  0  0  0  0  0  0  0  0
   -5.9568    2.5749   -0.6981 O   0  0  0  0  0  0  0  0  0  0  0  0
   -0.5249   -1.3935    0.2676 C   0  0  0  0  0  0  0  0  0  0  0  0
   -1.1847   -2.4972    0.8400 C   0  0  0  0  0  0  0  0  0  0  0  0
   -0.4136   -3.5371    1.3612 C   0  0  0  0  0  0  0  0  0  0  0  0
    0.9676   -3.4745    1.3128 C   0  0  0  0  0  0  0  0  0  0  0  0
    1.6671   -4.5238    1.8365 O   0  0  0  0  0  0  0  0  0  0  0  0
    1.6253   -2.3780    0.7531 C   0  0  0  0  0  0  0  0  0  0  0  0
    0.8705   -1.3033    0.2216 C   0  0  0  0  0  0  0  0  0  0  0  0
    6.3108    1.5589    0.5087 H   0  0  0  0  0  0  0  0  0  0  0  0
    4.6243    2.1037    0.6415 H   0  0  0  0  0  0  0  0  0  0  0  0
    5.1868    0.7701    1.6412 H   0  0  0  0  0  0  0  0  0  0  0  0
    5.5491   -0.6285   -0.3979 H   0  0  0  0  0  0  0  0  0  0  0  0
    4.9696    0.6746   -1.4305 H   0  0  0  0  0  0  0  0  0  0  0  0
   -1.2312    2.3245   -1.0908 H   0  0  0  0  0  0  0  0  0  0  0  0
   -0.0835    1.9013   -2.3748 H   0  0  0  0  0  0  0  0  0  0  0  0
    0.4703    2.6744   -0.8728 H   0  0  0  0  0  0  0  0  0  0  0  0
   -2.5385    0.4849   -1.5532 H   0  0  0  0  0  0  0  0  0  0  0  0
   -2.9650   -0.9780   -0.6358 H   0  0  0  0  0  0  0  0  0  0  0  0
   -4.9026    0.1967   -0.0020 H   0  0  0  0  0  0  0  0  0  0  0  0
   -4.7314    1.3357    1.3164 H   0  0  0  0  0  0  0  0  0  0  0  0
   -4.0224    3.1468   -0.2749 H   0  0  0  0  0  0  0  0  0  0  0  0
   -4.2176    2.0344   -1.6231 H   0  0  0  0  0  0  0  0  0  0  0  0
   -6.2222    2.9591    0.1562 H   0  0  0  0  0  0  0  0  0  0  0  0
   -2.2673   -2.5512    0.8917 H   0  0  0  0  0  0  0  0  0  0  0  0
   -0.8997   -4.3995    1.8094 H   0  0  0  0  0  0  0  0  0  0  0  0
    2.6156   -4.3338    1.7501 H   0  0  0  0  0  0  0  0  0  0  0  0
    2.7084   -2.3450    0.7290 H   0  0  0  0  0  0  0  0  0  0  0  0
  1  2  1  0
  2  3  1  0
  3  4  1  0
  4  5  2  0
  4  6  1  0
  6  7  2  0
  7  8  1  0
  7  9  1  0
  9 10  1  0
 10 11  1  0
 11 12  1  0
 12 13  1  0
 13 14  1  0
  9 15  1  0
 15 16  2  0
 16 17  1  0
 17 18  2  0
 18 19  1  0
 18 20  1  0
 20 21  2  0
 21  6  1  0
 21 15  1  0
  1 22  1  0
  1 23  1  0
  1 24  1  0
  2 25  1  0
  2 26  1  0
  8 27  1  0
  8 28  1  0
  8 29  1  0
 10 30  1  0
 10 31  1  0
 12 32  1  0
 12 33  1  0
 13 34  1  0
 13 35  1  0
 14 36  1  0
 16 37  1  0
 17 38  1  0
 19 39  1  0
 20 40  1  0
M  END
$$$$
