
     RDKit          3D

 52 55  0  0  0  0  0  0  0  0999 V2000
   -6.0132    0.5203    2.1623 C   0  0  0  0  0  0  0  0  0  0  0  0
   -5.7890    1.1289    0.8046 C   0  0  0  0  0  0  0  0  0  0  0  0
   -6.6222    2.1916    0.4094 C   0  0  0  0  0  0  0  0  0  0  0  0
   -6.4835    2.7914   -0.8446 C   0  0  0  0  0  0  0  0  0  0  0  0
   -5.5064    2.3244   -1.7290 C   0  0  0  0  0  0  0  0  0  0  0  0
   -5.3537    2.9623   -3.0426 N   0  0  0  0  0  4  0  0  0  0  0  0
   -6.2097    3.7913   -3.3823 O   0  0  0  0  0  0  0  0  0  0  0  0
   -4.3727    2.6427   -3.7274 O   0  0  0  0  0  1  0  0  0  0  0  0
   -4.6725    1.2608   -1.3700 C   0  0  0  0  0  0  0  0  0  0  0  0
   -4.8135    0.6667   -0.1039 C   0  0  0  0  0  0  0  0  0  0  0  0
   -3.7306   -0.7046    0.2831 S   0  0  0  0  0  6  0  0  0  0  0  0
   -2.9666   -1.0325   -0.9003 O   0  0  0  0  0  0  0  0  0  0  0  0
   -4.5264   -1.7130    0.9494 O   0  0  0  0  0  0  0  0  0  0  0  0
   -2.6973   -0.0503    1.4546 N   0  0  0  0  0  0  0  0  0  0  0  0
   -1.5820    0.7111    1.0039 C   0  0  0  0  0  0  0  0  0  0  0  0
   -1.7430    2.0509    0.6701 C   0  0  0  0  0  0  0  0  0  0  0  0
   -0.6585    2.7693    0.1771 C   0  0  0  0  0  0  0  0  0  0  0  0
    0.5855    2.1465    0.0221 C   0  0  0  0  0  0  0  0  0  0  0  0
    0.7814    0.7926    0.3588 C   0  0  0  0  0  0  0  0  0  0  0  0
    2.0900    0.1156    0.2131 C   0  0  0  0  0  0  0  0  0  0  0  0
    3.3060    0.7663    0.0692 C   0  0  0  0  0  0  0  0  0  0  0  0
    4.4839    0.0203   -0.0560 C   0  0  0  0  0  0  0  0  0  0  0  0
    4.4491   -1.3665   -0.0392 C   0  0  0  0  0  0  0  0  0  0  0  0
    5.5960   -2.1267   -0.1429 N   0  0  0  0  0  0  0  0  0  0  0  0
    6.7613   -1.6825   -0.9016 C   0  0  0  0  0  0  0  0  0  0  0  0
    7.3721   -2.9727   -1.4525 C   0  0  0  0  0  0  0  0  0  0  0  0
    6.8800   -4.0442   -0.4926 C   0  0  0  0  0  0  0  0  0  0  0  0
    5.4611   -3.5800   -0.1818 C   0  0  0  0  0  0  0  0  0  0  0  0
    3.2535   -1.9642    0.1306 N   0  0  0  0  0  0  0  0  0  0  0  0
    2.0777   -1.2315    0.2482 N   0  0  0  0  0  0  0  0  0  0  0  0
   -0.3413    0.0884    0.8422 C   0  0  0  0  0  0  0  0  0  0  0  0
   -5.0719    0.3951    2.7036 H   0  0  0  0  0  0  0  0  0  0  0  0
   -6.6424    1.1658    2.7854 H   0  0  0  0  0  0  0  0  0  0  0  0
   -6.5225   -0.4431    2.0673 H   0  0  0  0  0  0  0  0  0  0  0  0
   -7.3953    2.5619    1.0827 H   0  0  0  0  0  0  0  0  0  0  0  0
   -7.1440    3.6141   -1.1135 H   0  0  0  0  0  0  0  0  0  0  0  0
   -3.9171    0.8938   -2.0644 H   0  0  0  0  0  0  0  0  0  0  0  0
   -2.5147   -0.7452    2.1795 H   0  0  0  0  0  0  0  0  0  0  0  0
   -2.6991    2.5478    0.8008 H   0  0  0  0  0  0  0  0  0  0  0  0
   -0.7772    3.8162   -0.0925 H   0  0  0  0  0  0  0  0  0  0  0  0
    1.3967    2.7448   -0.3859 H   0  0  0  0  0  0  0  0  0  0  0  0
    3.3773    1.8475    0.0701 H   0  0  0  0  0  0  0  0  0  0  0  0
    5.4281    0.5462   -0.1452 H   0  0  0  0  0  0  0  0  0  0  0  0
    7.4651   -1.1778   -0.2306 H   0  0  0  0  0  0  0  0  0  0  0  0
    6.5110   -1.0077   -1.7280 H   0  0  0  0  0  0  0  0  0  0  0  0
    6.9824   -3.1682   -2.4590 H   0  0  0  0  0  0  0  0  0  0  0  0
    8.4628   -2.9250   -1.5151 H   0  0  0  0  0  0  0  0  0  0  0  0
    7.4898   -4.0402    0.4189 H   0  0  0  0  0  0  0  0  0  0  0  0
    6.9088   -5.0483   -0.9245 H   0  0  0  0  0  0  0  0  0  0  0  0
    4.7821   -3.8929   -0.9850 H   0  0  0  0  0  0  0  0  0  0  0  0
    5.1104   -3.9893    0.7714 H   0  0  0  0  0  0  0  0  0  0  0  0
   -0.2458   -0.9685    1.0879 H   0  0  0  0  0  0  0  0  0  0  0  0
  1  2  1  0
  2  3  2  0
  3  4  1  0
  4  5  2  0
  5  6  1  0
  6  7  2  0
  6  8  1  0
  5  9  1  0
  9 10  2  0
 10 11  1  0
 11 12  2  0
 11 13  2  0
 11 14  1  0
 14 15  1  0
 15 16  2  0
 16 17  1  0
 17 18  2  0
 18 19  1  0
 19 20  1  0
 20 21  2  0
 21 22  1  0
 22 23  2  0
 23 24  1  0
 24 25  1  0
 25 26  1  0
 26 27  1  0
 27 28  1  0
 23 29  1  0
 29 30  2  0
 19 31  2  0
 10  2  1  0
 31 15  1  0
 30 20  1  0
 28 24  1  0
  1 32  1  0
  1 33  1  0
  1 34  1  0
  3 35  1  0
  4 36  1  0
  9 37  1  0
 14 38  1  0
 16 39  1  0
 17 40  1  0
 18 41  1  0
 21 42  1  0
 22 43  1  0
 25 44  1  0
 25 45  1  0
 26 46  1  0
 26 47  1  0
 27 48  1  0
 27 49  1  0
 28 50  1  0
 28 51  1  0
 31 52  1  0
M  CHG  2   6   1   8  -1
M  END
$$$$
