
     RDKit          3D

 42 44  0  0  0  0  0  0  0  0999 V2000
   -1.5053    3.7388   -0.0680 C   0  0  0  0  0  0  0  0  0  0  0  0
   -2.4635    2.7085    0.4992 C   0  0  0  0  0  0  0  0  0  0  0  0
   -2.6927    1.7174   -0.5127 O   0  0  0  0  0  0  0  0  0  0  0  0
   -3.4094    0.6651    0.0123 C   0  0  0  0  0  0  0  0  0  0  0  0
   -4.7876    0.7913    0.1926 C   0  0  0  0  0  0  0  0  0  0  0  0
   -5.5100   -0.2802    0.7122 C   0  0  0  0  0  0  0  0  0  0  0  0
   -4.8546   -1.4697    1.0270 C   0  0  0  0  0  0  0  0  0  0  0  0
   -3.4753   -1.5993    0.8197 C   0  0  0  0  0  0  0  0  0  0  0  0
   -2.7351   -0.5317    0.3155 C   0  0  0  0  0  0  0  0  0  0  0  0
   -1.3529   -0.5728    0.0203 N   0  0  0  0  0  0  0  0  0  0  0  0
   -0.3259   -1.3831    0.4791 C   0  0  0  0  0  0  0  0  0  0  0  0
   -0.3502   -2.3860    1.8163 S   0  0  0  0  0  0  0  0  0  0  0  0
    0.7877   -1.2114   -0.3344 N   0  0  0  0  0  0  0  0  0  0  0  0
    2.1240   -1.7565   -0.1282 C   0  0  0  0  0  0  0  0  0  0  0  0
    2.9780   -1.7501   -1.4147 C   0  0  0  0  0  0  0  0  0  0  0  0
    4.2327   -0.9633   -0.9944 C   0  0  0  0  0  0  0  0  0  0  0  0
    3.8624    0.5232   -0.8596 C   0  0  0  0  0  0  0  0  0  0  0  0
    3.0322    0.5553    0.4313 C   0  0  0  0  0  0  0  0  0  0  0  0
    2.9893   -0.9264    0.8531 C   0  0  0  0  0  0  0  0  0  0  0  0
    4.3977   -1.3836    0.4660 C   0  0  0  0  0  0  0  0  0  0  0  0
   -0.5666    3.2648   -0.3718 H   0  0  0  0  0  0  0  0  0  0  0  0
   -1.2876    4.5173    0.6691 H   0  0  0  0  0  0  0  0  0  0  0  0
   -1.9304    4.2069   -0.9611 H   0  0  0  0  0  0  0  0  0  0  0  0
   -3.4044    3.2009    0.7689 H   0  0  0  0  0  0  0  0  0  0  0  0
   -2.0213    2.2530    1.3933 H   0  0  0  0  0  0  0  0  0  0  0  0
   -5.2951    1.7123   -0.0748 H   0  0  0  0  0  0  0  0  0  0  0  0
   -6.5832   -0.1937    0.8617 H   0  0  0  0  0  0  0  0  0  0  0  0
   -5.4191   -2.3121    1.4203 H   0  0  0  0  0  0  0  0  0  0  0  0
   -3.0224   -2.5626    1.0241 H   0  0  0  0  0  0  0  0  0  0  0  0
   -1.0501    0.2503   -0.4882 H   0  0  0  0  0  0  0  0  0  0  0  0
    0.6599   -0.6338   -1.1527 H   0  0  0  0  0  0  0  0  0  0  0  0
    2.0379   -2.7899    0.2281 H   0  0  0  0  0  0  0  0  0  0  0  0
    3.2512   -2.7788   -1.6806 H   0  0  0  0  0  0  0  0  0  0  0  0
    2.4749   -1.3028   -2.2777 H   0  0  0  0  0  0  0  0  0  0  0  0
    5.0962   -1.1438   -1.6379 H   0  0  0  0  0  0  0  0  0  0  0  0
    4.7591    1.1420   -0.7461 H   0  0  0  0  0  0  0  0  0  0  0  0
    3.2968    0.8936   -1.7198 H   0  0  0  0  0  0  0  0  0  0  0  0
    2.0436    0.9973    0.2772 H   0  0  0  0  0  0  0  0  0  0  0  0
    3.5482    1.1544    1.1910 H   0  0  0  0  0  0  0  0  0  0  0  0
    2.7275   -1.0662    1.9039 H   0  0  0  0  0  0  0  0  0  0  0  0
    5.1895   -0.8341    0.9866 H   0  0  0  0  0  0  0  0  0  0  0  0
    4.5540   -2.4605    0.5917 H   0  0  0  0  0  0  0  0  0  0  0  0
  1  2  1  0
  2  3  1  0
  3  4  1  0
  4  5  2  0
  5  6  1  0
  6  7  2  0
  7  8  1  0
  8  9  2  0
  9 10  1  0
 10 11  1  0
 11 12  2  0
 11 13  1  0
 13 14  1  0
 14 15  1  0
 15 16  1  0
 16 17  1  0
 17 18  1  0
 18 19  1  0
 19 20  1  0
  9  4  1  0
 19 14  1  0
 20 16  1  0
  1 21  1  0
  1 22  1  0
  1 23  1  0
  2 24  1  0
  2 25  1  0
  5 26  1  0
  6 27  1  0
  7 28  1  0
  8 29  1  0
 10 30  1  0
 13 31  1  0
 14 32  1  0
 15 33  1  0
 15 34  1  0
 16 35  1  0
 17 36  1  0
 17 37  1  0
 18 38  1  0
 18 39  1  0
 19 40  1  0
 20 41  1  0
 20 42  1  0
M  END
$$$$
