
     RDKit          3D

 71 75  0  0  0  0  0  0  0  0999 V2000
    0.3578    2.6665    4.7621 C   0  0  0  0  0  0  0  0  0  0  0  0
    0.5215    1.1664    4.9594 C   0  0  0  0  0  0  0  0  0  0  0  0
    0.4984    0.4567    3.6675 N   0  0  0  0  0  0  0  0  0  0  0  0
    1.6848    0.1485    3.0118 C   0  0  0  0  0  0  0  0  0  0  0  0
    1.8171   -0.4954    1.8431 C   0  0  0  0  0  0  0  0  0  0  0  0
    3.1887   -0.7528    1.3161 C   0  0  0  0  0  0  0  0  0  0  0  0
    4.1939   -0.3890    1.9209 O   0  0  0  0  0  0  0  0  0  0  0  0
    3.2367   -1.4243    0.1212 N   0  0  0  0  0  0  0  0  0  0  0  0
    4.4740   -1.7349   -0.5607 C   0  0  0  0  0  0  0  0  0  0  0  0
    5.0031   -0.5403   -1.3501 C   0  0  0  0  0  0  0  0  0  0  0  0
    6.2656   -0.9245   -2.1258 C   0  0  0  0  0  0  0  0  0  0  0  0
    6.7694    0.1800   -2.9475 N   0  0  0  0  0  0  0  0  0  0  0  0
    7.3120    1.2919   -2.1614 C   0  0  0  0  0  0  0  0  0  0  0  0
    8.1470    2.0692   -3.1708 C   0  0  0  0  0  0  0  0  0  0  0  0
    8.4598    1.0765   -4.2837 C   0  0  0  0  0  0  0  0  0  0  0  0
    7.8760   -0.2429   -3.8093 C   0  0  0  0  0  0  0  0  0  0  0  0
    0.5649   -0.9077    1.1687 C   0  0  0  0  0  0  0  0  0  0  0  0
    0.5773   -1.4605    0.0710 O   0  0  0  0  0  0  0  0  0  0  0  0
   -0.7220   -0.6271    1.8526 C   0  0  0  0  0  0  0  0  0  0  0  0
   -1.9057   -1.0697    1.2451 C   0  0  0  0  0  0  0  0  0  0  0  0
   -3.1264   -0.8157    1.8639 C   0  0  0  0  0  0  0  0  0  0  0  0
   -4.6145   -1.4370    1.1160 S   0  0  0  0  0  6  0  0  0  0  0  0
   -4.3538   -2.8233    0.7920 O   0  0  0  0  0  0  0  0  0  0  0  0
   -5.7235   -1.0616    1.9654 O   0  0  0  0  0  0  0  0  0  0  0  0
   -4.6945   -0.5458   -0.3219 N   0  0  0  0  0  0  0  0  0  0  0  0
   -4.9053    0.9204   -0.2384 C   0  0  0  0  0  0  0  0  0  0  0  0
   -6.3657    1.2865    0.0276 C   0  0  0  0  0  0  0  0  0  0  0  0
   -7.3296    0.5225   -0.8447 C   0  0  0  0  0  0  0  0  0  0  0  0
   -8.6561    0.9618   -0.9636 C   0  0  0  0  0  0  0  0  0  0  0  0
   -9.5693    0.2484   -1.7388 C   0  0  0  0  0  0  0  0  0  0  0  0
   -9.1689   -0.9120   -2.3958 C   0  0  0  0  0  0  0  0  0  0  0  0
   -7.8554   -1.3638   -2.2760 C   0  0  0  0  0  0  0  0  0  0  0  0
   -6.9281   -0.6600   -1.4918 C   0  0  0  0  0  0  0  0  0  0  0  0
   -5.5047   -1.1585   -1.4022 C   0  0  0  0  0  0  0  0  0  0  0  0
   -3.1740   -0.1239    3.0719 C   0  0  0  0  0  0  0  0  0  0  0  0
   -1.9836    0.3136    3.6693 C   0  0  0  0  0  0  0  0  0  0  0  0
   -0.7279    0.0652    3.0854 C   0  0  0  0  0  0  0  0  0  0  0  0
   -0.6013    2.9114    4.2966 H   0  0  0  0  0  0  0  0  0  0  0  0
    0.4070    3.1801    5.7266 H   0  0  0  0  0  0  0  0  0  0  0  0
    1.1512    3.0668    4.1225 H   0  0  0  0  0  0  0  0  0  0  0  0
    1.4808    0.9877    5.4622 H   0  0  0  0  0  0  0  0  0  0  0  0
   -0.2304    0.7771    5.6545 H   0  0  0  0  0  0  0  0  0  0  0  0
    2.5718    0.4808    3.5490 H   0  0  0  0  0  0  0  0  0  0  0  0
    2.3549   -1.6504   -0.3420 H   0  0  0  0  0  0  0  0  0  0  0  0
    5.2132   -2.0603    0.1803 H   0  0  0  0  0  0  0  0  0  0  0  0
    4.2643   -2.5770   -1.2290 H   0  0  0  0  0  0  0  0  0  0  0  0
    4.2298   -0.1873   -2.0442 H   0  0  0  0  0  0  0  0  0  0  0  0
    5.2102    0.2867   -0.6608 H   0  0  0  0  0  0  0  0  0  0  0  0
    7.0373   -1.2842   -1.4332 H   0  0  0  0  0  0  0  0  0  0  0  0
    6.0137   -1.7655   -2.7854 H   0  0  0  0  0  0  0  0  0  0  0  0
    7.9556    0.9353   -1.3475 H   0  0  0  0  0  0  0  0  0  0  0  0
    6.5266    1.9229   -1.7340 H   0  0  0  0  0  0  0  0  0  0  0  0
    9.0617    2.4605   -2.7133 H   0  0  0  0  0  0  0  0  0  0  0  0
    7.5838    2.9186   -3.5749 H   0  0  0  0  0  0  0  0  0  0  0  0
    9.5356    1.0004   -4.4705 H   0  0  0  0  0  0  0  0  0  0  0  0
    7.9849    1.4009   -5.2179 H   0  0  0  0  0  0  0  0  0  0  0  0
    8.6337   -0.8070   -3.2495 H   0  0  0  0  0  0  0  0  0  0  0  0
    7.5342   -0.8563   -4.6493 H   0  0  0  0  0  0  0  0  0  0  0  0
   -1.8732   -1.6175    0.3051 H   0  0  0  0  0  0  0  0  0  0  0  0
   -4.5841    1.3566   -1.1943 H   0  0  0  0  0  0  0  0  0  0  0  0
   -4.2552    1.3653    0.5214 H   0  0  0  0  0  0  0  0  0  0  0  0
   -6.6217    1.0971    1.0756 H   0  0  0  0  0  0  0  0  0  0  0  0
   -6.4891    2.3629   -0.1431 H   0  0  0  0  0  0  0  0  0  0  0  0
   -8.9872    1.8597   -0.4461 H   0  0  0  0  0  0  0  0  0  0  0  0
  -10.5968    0.5934   -1.8245 H   0  0  0  0  0  0  0  0  0  0  0  0
   -9.8821   -1.4690   -2.9969 H   0  0  0  0  0  0  0  0  0  0  0  0
   -7.5609   -2.2751   -2.7929 H   0  0  0  0  0  0  0  0  0  0  0  0
   -5.5024   -2.2512   -1.3188 H   0  0  0  0  0  0  0  0  0  0  0  0
   -5.0045   -0.9288   -2.3529 H   0  0  0  0  0  0  0  0  0  0  0  0
   -4.1247    0.0686    3.5668 H   0  0  0  0  0  0  0  0  0  0  0  0
   -2.0757    0.8454    4.6119 H   0  0  0  0  0  0  0  0  0  0  0  0
  1  2  1  0
  2  3  1  0
  3  4  1  0
  4  5  2  0
  5  6  1  0
  6  7  2  0
  6  8  1  0
  8  9  1  0
  9 10  1  0
 10 11  1  0
 11 12  1  0
 12 13  1  0
 13 14  1  0
 14 15  1  0
 15 16  1  0
  5 17  1  0
 17 18  2  0
 17 19  1  0
 19 20  2  0
 20 21  1  0
 21 22  1  0
 22 23  2  0
 22 24  2  0
 22 25  1  0
 25 26  1  0
 26 27  1  0
 27 28  1  0
 28 29  2  0
 29 30  1  0
 30 31  2  0
 31 32  1  0
 32 33  2  0
 33 34  1  0
 21 35  2  0
 35 36  1  0
 36 37  2  0
 37  3  1  0
 16 12  1  0
 37 19  1  0
 34 25  1  0
 33 28  1  0
  1 38  1  0
  1 39  1  0
  1 40  1  0
  2 41  1  0
  2 42  1  0
  4 43  1  0
  8 44  1  0
  9 45  1  0
  9 46  1  0
 10 47  1  0
 10 48  1  0
 11 49  1  0
 11 50  1  0
 13 51  1  0
 13 52  1  0
 14 53  1  0
 14 54  1  0
 15 55  1  0
 15 56  1  0
 16 57  1  0
 16 58  1  0
 20 59  1  0
 26 60  1  0
 26 61  1  0
 27 62  1  0
 27 63  1  0
 29 64  1  0
 30 65  1  0
 31 66  1  0
 32 67  1  0
 34 68  1  0
 34 69  1  0
 35 70  1  0
 36 71  1  0
M  END
$$$$
