
     RDKit          3D

 52 55  0  0  0  0  0  0  0  0999 V2000
   -3.3832    4.7604   -1.3923 C   0  0  0  0  0  0  0  0  0  0  0  0
   -3.5937    3.3634   -0.8914 C   0  0  0  0  0  0  0  0  0  0  0  0
   -2.8465    2.8555    0.1794 C   0  0  0  0  0  0  0  0  0  0  0  0
   -3.0698    1.5448    0.6241 C   0  0  0  0  0  0  0  0  0  0  0  0
   -2.1148    0.8979    1.9759 S   0  0  0  0  0  6  0  0  0  0  0  0
   -3.0209    0.1985    2.8582 O   0  0  0  0  0  0  0  0  0  0  0  0
   -1.2182    1.9272    2.4553 O   0  0  0  0  0  0  0  0  0  0  0  0
   -1.1851   -0.2792    1.2150 N   0  0  0  0  0  0  0  0  0  0  0  0
    0.0102    0.1672    0.4688 C   0  0  0  0  0  0  0  0  0  0  0  0
    0.6352   -1.0152   -0.3379 C   0  0  0  0  0  0  0  0  0  0  0  0
    1.1785   -2.1650    0.5250 C   0  0  0  0  0  0  0  0  0  0  0  0
    1.2349   -3.4670   -0.0445 C   0  0  0  0  0  0  0  0  0  0  0  0
    1.7243   -4.5623    0.6755 C   0  0  0  0  0  0  0  0  0  0  0  0
    2.1598   -4.3364    1.9612 C   0  0  0  0  0  0  0  0  0  0  0  0
    2.1263   -3.0824    2.5239 C   0  0  0  0  0  0  0  0  0  0  0  0
    1.6527   -1.9813    1.8373 C   0  0  0  0  0  0  0  0  0  0  0  0
    2.6054   -3.0711    3.7982 O   0  0  0  0  0  0  0  0  0  0  0  0
    2.9310   -4.4662    3.9767 C   0  0  0  0  0  0  0  0  0  0  0  0
    2.6647   -5.2729    2.8078 O   0  0  0  0  0  0  0  0  0  0  0  0
    1.6314   -0.6241   -1.3576 N   0  0  0  0  0  0  0  0  0  0  0  0
    2.8648   -0.0123   -0.8296 C   0  0  0  0  0  0  0  0  0  0  0  0
    3.6792    0.6400   -1.9575 C   0  0  0  0  0  0  0  0  0  0  0  0
    2.9894    1.7347   -2.5792 O   0  0  0  0  0  0  0  0  0  0  0  0
    1.5640    1.6029   -2.5459 C   0  0  0  0  0  0  0  0  0  0  0  0
    1.0789    0.1436   -2.4893 C   0  0  0  0  0  0  0  0  0  0  0  0
   -4.0423    0.7358    0.0244 C   0  0  0  0  0  0  0  0  0  0  0  0
   -4.7872    1.2417   -1.0413 C   0  0  0  0  0  0  0  0  0  0  0  0
   -4.5580    2.5425   -1.4890 C   0  0  0  0  0  0  0  0  0  0  0  0
   -5.2835    3.0095   -2.5158 F   0  0  0  0  0  0  0  0  0  0  0  0
   -2.5777    5.2641   -0.8475 H   0  0  0  0  0  0  0  0  0  0  0  0
   -3.1094    4.7453   -2.4532 H   0  0  0  0  0  0  0  0  0  0  0  0
   -4.2982    5.3488   -1.2628 H   0  0  0  0  0  0  0  0  0  0  0  0
   -2.0975    3.4798    0.6658 H   0  0  0  0  0  0  0  0  0  0  0  0
   -1.0995   -1.1216    1.7871 H   0  0  0  0  0  0  0  0  0  0  0  0
    0.7358    0.6005    1.1648 H   0  0  0  0  0  0  0  0  0  0  0  0
   -0.3000    0.9549   -0.2263 H   0  0  0  0  0  0  0  0  0  0  0  0
   -0.2091   -1.4691   -0.8816 H   0  0  0  0  0  0  0  0  0  0  0  0
    0.8981   -3.6206   -1.0695 H   0  0  0  0  0  0  0  0  0  0  0  0
    1.7631   -5.5527    0.2361 H   0  0  0  0  0  0  0  0  0  0  0  0
    1.6677   -1.0132    2.3271 H   0  0  0  0  0  0  0  0  0  0  0  0
    2.3424   -4.8578    4.8148 H   0  0  0  0  0  0  0  0  0  0  0  0
    3.9965   -4.5496    4.2246 H   0  0  0  0  0  0  0  0  0  0  0  0
    2.6334    0.7597   -0.0846 H   0  0  0  0  0  0  0  0  0  0  0  0
    3.4843   -0.7781   -0.3465 H   0  0  0  0  0  0  0  0  0  0  0  0
    4.6238    1.0290   -1.5636 H   0  0  0  0  0  0  0  0  0  0  0  0
    3.9259   -0.0905   -2.7368 H   0  0  0  0  0  0  0  0  0  0  0  0
    1.1689    2.0941   -3.4420 H   0  0  0  0  0  0  0  0  0  0  0  0
    1.1958    2.1685   -1.6824 H   0  0  0  0  0  0  0  0  0  0  0  0
    1.4142   -0.3612   -3.4041 H   0  0  0  0  0  0  0  0  0  0  0  0
   -0.0173    0.1167   -2.5117 H   0  0  0  0  0  0  0  0  0  0  0  0
   -4.2208   -0.2770    0.3822 H   0  0  0  0  0  0  0  0  0  0  0  0
   -5.5479    0.6350   -1.5256 H   0  0  0  0  0  0  0  0  0  0  0  0
  1  2  1  0
  2  3  2  0
  3  4  1  0
  4  5  1  0
  5  6  2  0
  5  7  2  0
  5  8  1  0
  8  9  1  0
  9 10  1  0
 10 11  1  0
 11 12  2  0
 12 13  1  0
 13 14  2  0
 14 15  1  0
 15 16  2  0
 15 17  1  0
 17 18  1  0
 18 19  1  0
 10 20  1  0
 20 21  1  0
 21 22  1  0
 22 23  1  0
 23 24  1  0
 24 25  1  0
  4 26  2  0
 26 27  1  0
 27 28  2  0
 28 29  1  0
 28  2  1  0
 16 11  1  0
 25 20  1  0
 19 14  1  0
  1 30  1  0
  1 31  1  0
  1 32  1  0
  3 33  1  0
  8 34  1  0
  9 35  1  0
  9 36  1  0
 10 37  1  0
 12 38  1  0
 13 39  1  0
 16 40  1  0
 18 41  1  0
 18 42  1  0
 21 43  1  0
 21 44  1  0
 22 45  1  0
 22 46  1  0
 24 47  1  0
 24 48  1  0
 25 49  1  0
 25 50  1  0
 26 51  1  0
 27 52  1  0
M  END
$$$$
