
     RDKit          3D

 49 51  0  0  0  0  0  0  0  0999 V2000
    6.5305    2.2477   -0.1341 C   0  0  0  0  0  0  0  0  0  0  0  0
    6.2247    0.7946    0.0870 C   0  0  0  0  0  0  0  0  0  0  0  0
    7.2651   -0.1309    0.2362 C   0  0  0  0  0  0  0  0  0  0  0  0
    6.9867   -1.4734    0.4953 C   0  0  0  0  0  0  0  0  0  0  0  0
    5.6668   -1.8989    0.6078 C   0  0  0  0  0  0  0  0  0  0  0  0
    5.4750   -3.2246    0.8926 O   0  0  0  0  0  0  0  0  0  0  0  0
    4.6096   -0.9950    0.4388 C   0  0  0  0  0  0  0  0  0  0  0  0
    3.2112   -1.4830    0.5449 C   0  0  0  0  0  0  0  0  0  0  0  0
    2.9815   -2.4756    1.2358 O   0  0  0  0  0  0  0  0  0  0  0  0
    2.0879   -0.8393   -0.1635 C   0  0  0  0  0  0  0  0  0  0  0  0
    2.2152   -0.3379   -1.4519 C   0  0  0  0  0  0  0  0  0  0  0  0
    1.2010    0.2465   -2.1342 N   0  0  0  0  0  0  0  0  0  0  0  0
    0.0066    0.3120   -1.5110 C   0  0  0  0  0  0  0  0  0  0  0  0
   -0.2314   -0.1907   -0.2440 C   0  0  0  0  0  0  0  0  0  0  0  0
    0.8305   -0.7885    0.4396 C   0  0  0  0  0  0  0  0  0  0  0  0
   -1.6224   -0.1639    0.2914 C   0  0  0  0  0  0  0  0  0  0  0  0
   -2.4692    0.8234   -0.3580 N   0  0  0  0  0  0  0  0  0  0  0  0
   -3.7777    1.0879    0.2367 C   0  0  0  0  0  0  0  0  0  0  0  0
   -4.8021   -0.0029   -0.0941 C   0  0  0  0  0  0  0  0  0  0  0  0
   -6.2285    0.3382    0.3736 C   0  0  0  0  0  0  0  0  0  0  0  0
   -7.2060   -0.7325   -0.1171 C   0  0  0  0  0  0  0  0  0  0  0  0
   -6.3270    0.4697    1.8940 C   0  0  0  0  0  0  0  0  0  0  0  0
   -2.2478    1.2121   -1.6659 C   0  0  0  0  0  0  0  0  0  0  0  0
   -3.0731    1.8251   -2.3401 O   0  0  0  0  0  0  0  0  0  0  0  0
   -1.0293    0.9182   -2.1926 N   0  0  0  0  0  0  0  0  0  0  0  0
    4.8963    0.3591    0.2088 C   0  0  0  0  0  0  0  0  0  0  0  0
    6.6099    2.7635    0.8277 H   0  0  0  0  0  0  0  0  0  0  0  0
    7.4713    2.3705   -0.6808 H   0  0  0  0  0  0  0  0  0  0  0  0
    5.7448    2.7249   -0.7291 H   0  0  0  0  0  0  0  0  0  0  0  0
    8.3027    0.1895    0.1636 H   0  0  0  0  0  0  0  0  0  0  0  0
    7.7982   -2.1853    0.6223 H   0  0  0  0  0  0  0  0  0  0  0  0
    4.5338   -3.3418    1.1531 H   0  0  0  0  0  0  0  0  0  0  0  0
    3.1487   -0.3982   -2.0051 H   0  0  0  0  0  0  0  0  0  0  0  0
    0.6811   -1.2193    1.4275 H   0  0  0  0  0  0  0  0  0  0  0  0
   -2.0800   -1.1497    0.1512 H   0  0  0  0  0  0  0  0  0  0  0  0
   -1.5982    0.0689    1.3621 H   0  0  0  0  0  0  0  0  0  0  0  0
   -3.6383    1.1869    1.3183 H   0  0  0  0  0  0  0  0  0  0  0  0
   -4.1406    2.0548   -0.1316 H   0  0  0  0  0  0  0  0  0  0  0  0
   -4.8138   -0.1644   -1.1798 H   0  0  0  0  0  0  0  0  0  0  0  0
   -4.4838   -0.9536    0.3518 H   0  0  0  0  0  0  0  0  0  0  0  0
   -6.5264    1.2948   -0.0741 H   0  0  0  0  0  0  0  0  0  0  0  0
   -6.9620   -1.7153    0.3006 H   0  0  0  0  0  0  0  0  0  0  0  0
   -8.2325   -0.4857    0.1741 H   0  0  0  0  0  0  0  0  0  0  0  0
   -7.1804   -0.8121   -1.2091 H   0  0  0  0  0  0  0  0  0  0  0  0
   -5.9774   -0.4396    2.3946 H   0  0  0  0  0  0  0  0  0  0  0  0
   -7.3631    0.6476    2.2019 H   0  0  0  0  0  0  0  0  0  0  0  0
   -5.7320    1.3115    2.2606 H   0  0  0  0  0  0  0  0  0  0  0  0
   -0.8340    1.2604   -3.1212 H   0  0  0  0  0  0  0  0  0  0  0  0
    4.0977    1.0941    0.1375 H   0  0  0  0  0  0  0  0  0  0  0  0
  1  2  1  0
  2  3  2  0
  3  4  1  0
  4  5  2  0
  5  6  1  0
  5  7  1  0
  7  8  1  0
  8  9  2  0
  8 10  1  0
 10 11  2  0
 11 12  1  0
 12 13  2  0
 13 14  1  0
 14 15  2  0
 14 16  1  0
 16 17  1  0
 17 18  1  0
 18 19  1  0
 19 20  1  0
 20 21  1  0
 20 22  1  0
 17 23  1  0
 23 24  2  0
 23 25  1  0
  7 26  2  0
 26  2  1  0
 15 10  1  0
 25 13  1  0
  1 27  1  0
  1 28  1  0
  1 29  1  0
  3 30  1  0
  4 31  1  0
  6 32  1  0
 11 33  1  0
 15 34  1  0
 16 35  1  0
 16 36  1  0
 18 37  1  0
 18 38  1  0
 19 39  1  0
 19 40  1  0
 20 41  1  0
 21 42  1  0
 21 43  1  0
 21 44  1  0
 22 45  1  0
 22 46  1  0
 22 47  1  0
 25 48  1  0
 26 49  1  0
M  END
$$$$
