
     RDKit          3D

 42 44  0  0  0  0  0  0  0  0999 V2000
   -1.8898   -5.4553   -0.9419 C   0  0  0  0  0  0  0  0  0  0  0  0
   -1.2967   -4.0839   -0.6688 C   0  0  0  0  0  0  0  0  0  0  0  0
   -2.6309   -2.8944   -0.3140 S   0  0  0  0  0  0  0  0  0  0  0  0
   -1.6803   -1.4060   -0.0275 C   0  0  0  0  0  0  0  0  0  0  0  0
   -2.3546   -0.2514    0.3079 C   0  0  0  0  0  0  0  0  0  0  0  0
   -1.6050    0.8862    0.5194 C   0  0  0  0  0  0  0  0  0  0  0  0
   -2.1872    2.0819    0.8712 N   0  0  0  0  0  0  0  0  0  0  0  0
   -1.3577    3.2706    1.0327 C   0  0  0  0  0  0  0  0  0  0  0  0
   -2.3774    4.3609    1.3462 C   0  0  0  0  0  0  0  0  0  0  0  0
   -3.5693    3.9553    0.4940 C   0  0  0  0  0  0  0  0  0  0  0  0
   -3.5745    2.4286    0.5846 C   0  0  0  0  0  0  0  0  0  0  0  0
   -0.2658    0.8406    0.4173 N   0  0  0  0  0  0  0  0  0  0  0  0
    0.3179   -0.3258    0.0853 C   0  0  0  0  0  0  0  0  0  0  0  0
    1.7912   -0.3508   -0.0299 C   0  0  0  0  0  0  0  0  0  0  0  0
    2.4833   -1.5228   -0.3892 C   0  0  0  0  0  0  0  0  0  0  0  0
    3.8789   -1.5481   -0.4993 C   0  0  0  0  0  0  0  0  0  0  0  0
    4.6291   -0.3939   -0.2626 C   0  0  0  0  0  0  0  0  0  0  0  0
    6.1258   -0.4263   -0.3463 C   0  0  0  0  0  0  0  0  0  0  0  0
    3.9642    0.7765    0.1101 C   0  0  0  0  0  0  0  0  0  0  0  0
    2.5684    0.7961    0.2187 C   0  0  0  0  0  0  0  0  0  0  0  0
   -0.3482   -1.4658   -0.1496 N   0  0  0  0  0  0  0  0  0  0  0  0
   -1.0888   -6.1711   -1.1547 H   0  0  0  0  0  0  0  0  0  0  0  0
   -2.4484   -5.8316   -0.0780 H   0  0  0  0  0  0  0  0  0  0  0  0
   -2.5578   -5.4393   -1.8098 H   0  0  0  0  0  0  0  0  0  0  0  0
   -0.6185   -4.1440    0.1886 H   0  0  0  0  0  0  0  0  0  0  0  0
   -0.7295   -3.7514   -1.5442 H   0  0  0  0  0  0  0  0  0  0  0  0
   -3.4304   -0.2505    0.4131 H   0  0  0  0  0  0  0  0  0  0  0  0
   -0.6323    3.1664    1.8466 H   0  0  0  0  0  0  0  0  0  0  0  0
   -0.8283    3.5062    0.1012 H   0  0  0  0  0  0  0  0  0  0  0  0
   -2.6493    4.3317    2.4083 H   0  0  0  0  0  0  0  0  0  0  0  0
   -2.0070    5.3625    1.1115 H   0  0  0  0  0  0  0  0  0  0  0  0
   -4.5089    4.3976    0.8369 H   0  0  0  0  0  0  0  0  0  0  0  0
   -3.4059    4.2663   -0.5452 H   0  0  0  0  0  0  0  0  0  0  0  0
   -4.2166    2.0917    1.4058 H   0  0  0  0  0  0  0  0  0  0  0  0
   -3.9408    2.0009   -0.3553 H   0  0  0  0  0  0  0  0  0  0  0  0
    1.9316   -2.4405   -0.5866 H   0  0  0  0  0  0  0  0  0  0  0  0
    4.3715   -2.4785   -0.7726 H   0  0  0  0  0  0  0  0  0  0  0  0
    6.5497   -0.6843    0.6290 H   0  0  0  0  0  0  0  0  0  0  0  0
    6.4605   -1.1634   -1.0838 H   0  0  0  0  0  0  0  0  0  0  0  0
    6.5204    0.5466   -0.6581 H   0  0  0  0  0  0  0  0  0  0  0  0
    4.5239    1.6852    0.3195 H   0  0  0  0  0  0  0  0  0  0  0  0
    2.0832    1.7276    0.5071 H   0  0  0  0  0  0  0  0  0  0  0  0
  1  2  1  0
  2  3  1  0
  3  4  1  0
  4  5  2  0
  5  6  1  0
  6  7  1  0
  7  8  1  0
  8  9  1  0
  9 10  1  0
 10 11  1  0
  6 12  2  0
 12 13  1  0
 13 14  1  0
 14 15  2  0
 15 16  1  0
 16 17  2  0
 17 18  1  0
 17 19  1  0
 19 20  2  0
 13 21  2  0
 21  4  1  0
 11  7  1  0
 20 14  1  0
  1 22  1  0
  1 23  1  0
  1 24  1  0
  2 25  1  0
  2 26  1  0
  5 27  1  0
  8 28  1  0
  8 29  1  0
  9 30  1  0
  9 31  1  0
 10 32  1  0
 10 33  1  0
 11 34  1  0
 11 35  1  0
 15 36  1  0
 16 37  1  0
 18 38  1  0
 18 39  1  0
 18 40  1  0
 19 41  1  0
 20 42  1  0
M  END
$$$$
