
     RDKit          3D

 28 29  0  0  0  0  0  0  0  0999 V2000
    5.4904   -0.4586    0.1450 O   0  0  0  0  0  0  0  0  0  0  0  0
    4.4159   -0.1108    0.5984 C   0  0  0  0  0  0  0  0  0  0  0  0
    4.3367    0.6202    1.7241 O   0  0  0  0  0  0  0  0  0  0  0  0
    3.0878   -0.4196    0.0167 C   0  0  0  0  0  0  0  0  0  0  0  0
    3.0396   -1.1846   -1.1522 C   0  0  0  0  0  0  0  0  0  0  0  0
    1.8099   -1.4916   -1.7296 C   0  0  0  0  0  0  0  0  0  0  0  0
    0.6274   -1.0331   -1.1420 C   0  0  0  0  0  0  0  0  0  0  0  0
    0.6507   -0.2711    0.0323 C   0  0  0  0  0  0  0  0  0  0  0  0
   -0.5099    0.2480    0.6360 N   0  0  0  0  0  0  0  0  0  0  0  0
   -1.8032    0.5122    0.1380 C   0  0  0  0  0  0  0  0  0  0  0  0
   -1.9983    0.8467   -1.2089 C   0  0  0  0  0  0  0  0  0  0  0  0
   -3.2837    1.0596   -1.6888 C   0  0  0  0  0  0  0  0  0  0  0  0
   -4.3935    0.9559   -0.9300 N   0  0  0  0  0  0  0  0  0  0  0  0
   -4.2098    0.6318    0.3708 C   0  0  0  0  0  0  0  0  0  0  0  0
   -2.9584    0.4100    0.9341 C   0  0  0  0  0  0  0  0  0  0  0  0
   -2.8998    0.0794    2.3481 N   0  0  0  0  0  4  0  0  0  0  0  0
   -1.8510    0.3366    2.9601 O   0  0  0  0  0  0  0  0  0  0  0  0
   -3.9054   -0.4287    2.8634 O   0  0  0  0  0  1  0  0  0  0  0  0
    1.8965    0.0347    0.6007 C   0  0  0  0  0  0  0  0  0  0  0  0
    5.2720    0.7419    1.9918 H   0  0  0  0  0  0  0  0  0  0  0  0
    3.9574   -1.5443   -1.6135 H   0  0  0  0  0  0  0  0  0  0  0  0
    1.7694   -2.0933   -2.6344 H   0  0  0  0  0  0  0  0  0  0  0  0
   -0.3167   -1.3147   -1.6007 H   0  0  0  0  0  0  0  0  0  0  0  0
   -0.4200    0.3637    1.6498 H   0  0  0  0  0  0  0  0  0  0  0  0
   -1.1583    0.9760   -1.8841 H   0  0  0  0  0  0  0  0  0  0  0  0
   -3.4541    1.3305   -2.7277 H   0  0  0  0  0  0  0  0  0  0  0  0
   -5.1291    0.5621    0.9481 H   0  0  0  0  0  0  0  0  0  0  0  0
    1.9375    0.6415    1.5027 H   0  0  0  0  0  0  0  0  0  0  0  0
  1  2  2  0
  2  3  1  0
  2  4  1  0
  4  5  2  0
  5  6  1  0
  6  7  2  0
  7  8  1  0
  8  9  1  0
  9 10  1  0
 10 11  2  0
 11 12  1  0
 12 13  2  0
 13 14  1  0
 14 15  2  0
 15 16  1  0
 16 17  2  0
 16 18  1  0
  8 19  2  0
 19  4  1  0
 15 10  1  0
  3 20  1  0
  5 21  1  0
  6 22  1  0
  7 23  1  0
  9 24  1  0
 11 25  1  0
 12 26  1  0
 14 27  1  0
 19 28  1  0
M  CHG  2  16   1  18  -1
M  END
$$$$
