
     RDKit          3D

 42 45  0  0  0  0  0  0  0  0999 V2000
    7.3495   -0.2029   -2.0757 O   0  0  0  0  0  0  0  0  0  0  0  0
    6.9609    0.7596   -1.4379 C   0  0  0  0  0  0  0  0  0  0  0  0
    7.7152    1.8717   -1.3455 O   0  0  0  0  0  0  0  0  0  0  0  0
    5.6460    0.9108   -0.7274 C   0  0  0  0  0  0  0  0  0  0  0  0
    4.9345   -0.4417   -0.6055 C   0  0  0  0  0  0  0  0  0  0  0  0
    5.3929   -1.2406    0.6170 C   0  0  0  0  0  0  0  0  0  0  0  0
    4.7142   -2.0331    1.2542 O   0  0  0  0  0  0  0  0  0  0  0  0
    6.6885   -1.0618    0.9390 O   0  0  0  0  0  0  0  0  0  0  0  0
    3.4586   -0.3118   -0.4988 N   0  0  0  0  0  0  0  0  0  0  0  0
    2.9191    0.5264    0.4624 C   0  0  0  0  0  0  0  0  0  0  0  0
    3.5575    1.2376    1.2271 O   0  0  0  0  0  0  0  0  0  0  0  0
    1.4341    0.4444    0.4693 C   0  0  0  0  0  0  0  0  0  0  0  0
    0.7234    1.2060    1.3121 C   0  0  0  0  0  0  0  0  0  0  0  0
   -0.6961    1.2264    1.4188 C   0  0  0  0  0  0  0  0  0  0  0  0
   -1.4712    1.9560    2.3116 C   0  0  0  0  0  0  0  0  0  0  0  0
   -2.8297    1.6645    2.0473 C   0  0  0  0  0  0  0  0  0  0  0  0
   -2.8538    0.7650    0.9990 C   0  0  0  0  0  0  0  0  0  0  0  0
   -3.9988    0.1682    0.3676 C   0  0  0  0  0  0  0  0  0  0  0  0
   -5.2303    0.4439    0.7430 N   0  0  0  0  0  0  0  0  0  0  0  0
   -6.1275   -0.2705   -0.0336 C   0  0  0  0  0  0  0  0  0  0  0  0
   -7.5322   -0.2312    0.0799 C   0  0  0  0  0  0  0  0  0  0  0  0
   -8.3219   -1.0088   -0.7737 C   0  0  0  0  0  0  0  0  0  0  0  0
   -7.7300   -1.8217   -1.7352 C   0  0  0  0  0  0  0  0  0  0  0  0
   -6.3392   -1.8786   -1.8685 C   0  0  0  0  0  0  0  0  0  0  0  0
   -5.5560   -1.0935   -1.0060 C   0  0  0  0  0  0  0  0  0  0  0  0
   -3.8432   -0.9485   -0.9238 S   0  0  0  0  0  0  0  0  0  0  0  0
   -1.5608    0.5108    0.6274 O   0  0  0  0  0  0  0  0  0  0  0  0
    0.9167   -0.7075   -0.6886 S   0  0  0  0  0  0  0  0  0  0  0  0
    2.5569   -1.1074   -1.1780 C   0  0  0  0  0  0  0  0  0  0  0  0
    2.8642   -2.2724   -2.3317 S   0  0  0  0  0  0  0  0  0  0  0  0
    8.5326    1.6579   -1.8433 H   0  0  0  0  0  0  0  0  0  0  0  0
    5.0425    1.6082   -1.3199 H   0  0  0  0  0  0  0  0  0  0  0  0
    5.8404    1.3536    0.2555 H   0  0  0  0  0  0  0  0  0  0  0  0
    5.1704   -1.0650   -1.4715 H   0  0  0  0  0  0  0  0  0  0  0  0
    6.8349   -1.6623    1.7018 H   0  0  0  0  0  0  0  0  0  0  0  0
    1.2598    1.8735    1.9845 H   0  0  0  0  0  0  0  0  0  0  0  0
   -1.0925    2.6251    3.0727 H   0  0  0  0  0  0  0  0  0  0  0  0
   -3.7006    2.0570    2.5553 H   0  0  0  0  0  0  0  0  0  0  0  0
   -7.9903    0.4039    0.8316 H   0  0  0  0  0  0  0  0  0  0  0  0
   -9.4051   -0.9756   -0.6824 H   0  0  0  0  0  0  0  0  0  0  0  0
   -8.3556   -2.4219   -2.3928 H   0  0  0  0  0  0  0  0  0  0  0  0
   -5.8780   -2.5134   -2.6192 H   0  0  0  0  0  0  0  0  0  0  0  0
  1  2  2  0
  2  3  1  0
  2  4  1  0
  4  5  1  0
  5  6  1  0
  6  7  2  0
  6  8  1  0
  5  9  1  0
  9 10  1  0
 10 11  2  0
 10 12  1  0
 12 13  2  3
 13 14  1  0
 14 15  2  0
 15 16  1  0
 16 17  2  0
 17 18  1  0
 18 19  2  0
 19 20  1  0
 20 21  2  0
 21 22  1  0
 22 23  2  0
 23 24  1  0
 24 25  2  0
 25 26  1  0
 17 27  1  0
 12 28  1  0
 28 29  1  0
 29 30  2  0
 29  9  1  0
 27 14  1  0
 26 18  1  0
 25 20  1  0
  3 31  1  0
  4 32  1  0
  4 33  1  0
  5 34  1  0
  8 35  1  0
 13 36  1  0
 15 37  1  0
 16 38  1  0
 21 39  1  0
 22 40  1  0
 23 41  1  0
 24 42  1  0
M  END
$$$$
