
     RDKit          3D

 62 65  0  0  0  0  0  0  0  0999 V2000
   -2.1988   -2.3480    0.3486 O   0  0  0  0  0  0  0  0  0  0  0  0
   -1.5714   -1.3206    0.1075 C   0  0  0  0  0  0  0  0  0  0  0  0
   -2.1269   -0.2328   -0.5250 N   0  0  0  0  0  0  0  0  0  0  0  0
   -3.5326   -0.1959   -0.8893 C   0  0  0  0  0  0  0  0  0  0  0  0
   -4.4154    0.2475    0.2840 C   0  0  0  0  0  0  0  0  0  0  0  0
   -5.8850    0.4990   -0.0068 C   0  0  0  0  0  0  0  0  0  0  0  0
   -6.4999    0.2237   -1.1738 C   0  0  0  0  0  0  0  0  0  0  0  0
   -7.9498    0.5095   -1.4483 C   0  0  0  0  0  0  0  0  0  0  0  0
   -8.5805    1.4555   -0.4294 C   0  0  0  0  0  0  0  0  0  0  0  0
   -8.1707    1.0748    0.9878 C   0  0  0  0  0  0  0  0  0  0  0  0
   -6.6493    1.1030    1.1539 C   0  0  0  0  0  0  0  0  0  0  0  0
   -0.1044   -1.1745    0.5049 C   0  0  0  0  0  0  0  0  0  0  0  0
    0.0744   -0.1207    1.6045 C   0  0  0  0  0  0  0  0  0  0  0  0
    1.5028    0.4086    1.6331 C   0  0  0  0  0  0  0  0  0  0  0  0
    1.8345    1.1628    0.3351 C   0  0  0  0  0  0  0  0  0  0  0  0
    3.3407    1.4660    0.2151 C   0  0  0  0  0  0  0  0  0  0  0  0
    4.1370    0.2499    0.1330 N   0  0  0  0  0  0  0  0  0  0  0  0
    5.5251    0.1759    0.1265 C   0  0  0  0  0  0  0  0  0  0  0  0
    6.2565    1.2927    0.4344 N   0  0  0  0  0  0  0  0  0  0  0  0
    7.6244    1.3794    0.4586 C   0  0  0  0  0  0  0  0  0  0  0  0
    8.3049    2.8598    0.8649 S   0  0  0  0  0  0  0  0  0  0  0  0
    8.3555    0.2698    0.1445 N   0  0  0  0  0  0  0  0  0  0  0  0
    7.7036   -0.8111   -0.1456 C   0  0  0  0  0  0  0  0  0  0  0  0
    8.4790   -2.0337   -0.5016 C   0  0  0  0  0  0  0  0  0  0  0  0
    7.8556   -3.1808   -0.8009 C   0  0  0  0  0  0  0  0  0  0  0  0
    6.4188   -3.3003   -0.7779 C   0  0  0  0  0  0  0  0  0  0  0  0
    5.6367   -2.2537   -0.4775 C   0  0  0  0  0  0  0  0  0  0  0  0
    6.2081   -0.9538   -0.1670 C   0  0  0  0  0  0  0  0  0  0  0  0
    1.2459    0.4922   -0.9225 C   0  0  0  0  0  0  0  0  0  0  0  0
    0.8124   -0.9584   -0.7115 C   0  0  0  0  0  0  0  0  0  0  0  0
   -1.6185    0.6381   -0.5485 H   0  0  0  0  0  0  0  0  0  0  0  0
   -3.8323   -1.1882   -1.2396 H   0  0  0  0  0  0  0  0  0  0  0  0
   -3.6153    0.5052   -1.7241 H   0  0  0  0  0  0  0  0  0  0  0  0
   -4.3460   -0.5037    1.0825 H   0  0  0  0  0  0  0  0  0  0  0  0
   -3.9905    1.1742    0.6956 H   0  0  0  0  0  0  0  0  0  0  0  0
   -5.9630   -0.2418   -1.9938 H   0  0  0  0  0  0  0  0  0  0  0  0
   -8.0542    0.9417   -2.4503 H   0  0  0  0  0  0  0  0  0  0  0  0
   -8.4917   -0.4437   -1.4513 H   0  0  0  0  0  0  0  0  0  0  0  0
   -9.6717    1.4296   -0.5274 H   0  0  0  0  0  0  0  0  0  0  0  0
   -8.2663    2.4877   -0.6347 H   0  0  0  0  0  0  0  0  0  0  0  0
   -8.5463    0.0705    1.2199 H   0  0  0  0  0  0  0  0  0  0  0  0
   -8.6326    1.7596    1.7081 H   0  0  0  0  0  0  0  0  0  0  0  0
   -6.3957    0.5732    2.0799 H   0  0  0  0  0  0  0  0  0  0  0  0
   -6.3197    2.1424    1.2784 H   0  0  0  0  0  0  0  0  0  0  0  0
    0.1757   -2.1493    0.9309 H   0  0  0  0  0  0  0  0  0  0  0  0
   -0.1694   -0.5702    2.5760 H   0  0  0  0  0  0  0  0  0  0  0  0
   -0.6205    0.7196    1.4808 H   0  0  0  0  0  0  0  0  0  0  0  0
    2.1917   -0.4300    1.7920 H   0  0  0  0  0  0  0  0  0  0  0  0
    1.6290    1.0814    2.4904 H   0  0  0  0  0  0  0  0  0  0  0  0
    1.3462    2.1463    0.4065 H   0  0  0  0  0  0  0  0  0  0  0  0
    3.5215    2.0842   -0.6745 H   0  0  0  0  0  0  0  0  0  0  0  0
    3.6468    2.0530    1.0924 H   0  0  0  0  0  0  0  0  0  0  0  0
    3.6998   -0.4974   -0.3975 H   0  0  0  0  0  0  0  0  0  0  0  0
    5.7705    2.1403    0.6798 H   0  0  0  0  0  0  0  0  0  0  0  0
    9.5588   -1.9441   -0.5107 H   0  0  0  0  0  0  0  0  0  0  0  0
    8.4329   -4.0634   -1.0629 H   0  0  0  0  0  0  0  0  0  0  0  0
    5.9857   -4.2700   -1.0028 H   0  0  0  0  0  0  0  0  0  0  0  0
    4.5622   -2.3880   -0.4482 H   0  0  0  0  0  0  0  0  0  0  0  0
    0.3732    1.0720   -1.2463 H   0  0  0  0  0  0  0  0  0  0  0  0
    1.9516    0.5438   -1.7611 H   0  0  0  0  0  0  0  0  0  0  0  0
    0.3399   -1.3334   -1.6274 H   0  0  0  0  0  0  0  0  0  0  0  0
    1.7168   -1.5645   -0.5717 H   0  0  0  0  0  0  0  0  0  0  0  0
  1  2  2  0
  2  3  1  0
  3  4  1  0
  4  5  1  0
  5  6  1  0
  6  7  2  0
  7  8  1  0
  8  9  1  0
  9 10  1  0
 10 11  1  0
  2 12  1  0
 12 13  1  0
 13 14  1  0
 14 15  1  0
 15 16  1  0
 16 17  1  0
 17 18  1  0
 18 19  1  0
 19 20  1  0
 20 21  2  0
 20 22  1  0
 22 23  2  0
 23 24  1  0
 24 25  2  0
 25 26  1  0
 26 27  2  0
 27 28  1  0
 15 29  1  0
 29 30  1  0
 11  6  1  0
 30 12  1  0
 28 18  2  0
 28 23  1  0
  3 31  1  0
  4 32  1  0
  4 33  1  0
  5 34  1  0
  5 35  1  0
  7 36  1  0
  8 37  1  0
  8 38  1  0
  9 39  1  0
  9 40  1  0
 10 41  1  0
 10 42  1  0
 11 43  1  0
 11 44  1  0
 12 45  1  0
 13 46  1  0
 13 47  1  0
 14 48  1  0
 14 49  1  0
 15 50  1  0
 16 51  1  0
 16 52  1  0
 17 53  1  0
 19 54  1  0
 24 55  1  0
 25 56  1  0
 26 57  1  0
 27 58  1  0
 29 59  1  0
 29 60  1  0
 30 61  1  0
 30 62  1  0
M  END
$$$$
