
     RDKit          3D

 38 39  0  0  0  0  0  0  0  0999 V2000
    6.6714    0.2300    1.1326 C   0  0  0  0  0  0  0  0  0  0  0  0
    5.1980    0.2218    0.8564 C   0  0  0  0  0  0  0  0  0  0  0  0
    4.3541    1.1530    1.4635 C   0  0  0  0  0  0  0  0  0  0  0  0
    2.9846    1.1593    1.1758 C   0  0  0  0  0  0  0  0  0  0  0  0
    2.4197    0.2480    0.2688 C   0  0  0  0  0  0  0  0  0  0  0  0
    1.0421    0.3105    0.0318 N   0  0  0  0  0  0  0  0  0  0  0  0
    0.1642   -0.3983   -0.7851 C   0  0  0  0  0  0  0  0  0  0  0  0
    0.5748   -1.3785   -1.5679 N   0  0  0  0  0  0  0  0  0  0  0  0
   -0.3929   -1.9352   -2.2749 C   0  0  0  0  0  0  0  0  0  0  0  0
    0.0770   -3.2161   -3.3052 Cl  0  0  0  0  0  0  0  0  0  0  0  0
   -1.6814   -1.6341   -2.2772 N   0  0  0  0  0  0  0  0  0  0  0  0
   -1.9912   -0.6446   -1.4635 C   0  0  0  0  0  0  0  0  0  0  0  0
   -3.3258   -0.2930   -1.4554 N   0  0  0  0  0  0  0  0  0  0  0  0
   -3.9982    0.2432   -0.2679 C   0  0  0  0  0  0  0  0  0  0  0  0
   -3.8204   -0.6800    0.9460 C   0  0  0  0  0  0  0  0  0  0  0  0
   -5.5023    0.3088   -0.6088 C   0  0  0  0  0  0  0  0  0  0  0  0
   -3.5287    1.6706    0.0493 C   0  0  0  0  0  0  0  0  0  0  0  0
   -1.1072   -0.0087   -0.7059 N   0  0  0  0  0  0  0  0  0  0  0  0
    3.2791   -0.6691   -0.3418 C   0  0  0  0  0  0  0  0  0  0  0  0
    4.6512   -0.6810   -0.0582 C   0  0  0  0  0  0  0  0  0  0  0  0
    6.8760    0.5744    2.1519 H   0  0  0  0  0  0  0  0  0  0  0  0
    7.0918   -0.7769    1.0401 H   0  0  0  0  0  0  0  0  0  0  0  0
    7.1811    0.8927    0.4264 H   0  0  0  0  0  0  0  0  0  0  0  0
    4.7531    1.8811    2.1659 H   0  0  0  0  0  0  0  0  0  0  0  0
    2.3580    1.8962    1.6726 H   0  0  0  0  0  0  0  0  0  0  0  0
    0.5298    1.0236    0.5308 H   0  0  0  0  0  0  0  0  0  0  0  0
   -3.8225   -1.0428   -1.9276 H   0  0  0  0  0  0  0  0  0  0  0  0
   -2.7795   -0.7195    1.2836 H   0  0  0  0  0  0  0  0  0  0  0  0
   -4.4220   -0.3346    1.7945 H   0  0  0  0  0  0  0  0  0  0  0  0
   -4.1280   -1.7057    0.7118 H   0  0  0  0  0  0  0  0  0  0  0  0
   -6.0853    0.7105    0.2277 H   0  0  0  0  0  0  0  0  0  0  0  0
   -5.6823    0.9471   -1.4820 H   0  0  0  0  0  0  0  0  0  0  0  0
   -5.8996   -0.6854   -0.8454 H   0  0  0  0  0  0  0  0  0  0  0  0
   -3.5665    2.3071   -0.8423 H   0  0  0  0  0  0  0  0  0  0  0  0
   -2.5042    1.6988    0.4315 H   0  0  0  0  0  0  0  0  0  0  0  0
   -4.1622    2.1306    0.8166 H   0  0  0  0  0  0  0  0  0  0  0  0
    2.9080   -1.3972   -1.0560 H   0  0  0  0  0  0  0  0  0  0  0  0
    5.2863   -1.4066   -0.5619 H   0  0  0  0  0  0  0  0  0  0  0  0
  1  2  1  0
  2  3  2  0
  3  4  1  0
  4  5  2  0
  5  6  1  0
  6  7  1  0
  7  8  2  0
  8  9  1  0
  9 10  1  0
  9 11  2  0
 11 12  1  0
 12 13  1  0
 13 14  1  0
 14 15  1  0
 14 16  1  0
 14 17  1  0
 12 18  2  0
  5 19  1  0
 19 20  2  0
 20  2  1  0
 18  7  1  0
  1 21  1  0
  1 22  1  0
  1 23  1  0
  3 24  1  0
  4 25  1  0
  6 26  1  0
 13 27  1  0
 15 28  1  0
 15 29  1  0
 15 30  1  0
 16 31  1  0
 16 32  1  0
 16 33  1  0
 17 34  1  0
 17 35  1  0
 17 36  1  0
 19 37  1  0
 20 38  1  0
M  END
$$$$
