
     RDKit          3D

 48 50  0  0  0  0  0  0  0  0999 V2000
    0.7642   -4.0353   -0.5973 C   0  0  0  0  0  0  0  0  0  0  0  0
    0.8083   -2.8059   -1.4922 C   0  0  0  0  0  0  0  0  0  0  0  0
    1.6424   -1.7153   -0.8938 C   0  0  0  0  0  0  0  0  0  0  0  0
    1.2579   -0.5578   -0.3599 C   0  0  0  0  0  0  0  0  0  0  0  0
   -0.1209   -0.0967   -0.2177 C   0  0  0  0  0  0  0  0  0  0  0  0
   -0.8770   -0.4850    0.8972 C   0  0  0  0  0  0  0  0  0  0  0  0
   -2.2035   -0.0714    1.0329 C   0  0  0  0  0  0  0  0  0  0  0  0
   -3.0191   -0.3919    2.0871 O   0  0  0  0  0  0  0  0  0  0  0  0
   -2.4201   -1.0251    3.2093 C   0  0  0  0  0  0  0  0  0  0  0  0
   -2.7751    0.7148    0.0181 C   0  0  0  0  0  0  0  0  0  0  0  0
   -4.0696    1.1650    0.1627 O   0  0  0  0  0  0  0  0  0  0  0  0
   -4.9743    0.2330   -0.4270 C   0  0  0  0  0  0  0  0  0  0  0  0
   -2.0298    1.1160   -1.1038 C   0  0  0  0  0  0  0  0  0  0  0  0
   -2.6850    1.8921   -2.0245 O   0  0  0  0  0  0  0  0  0  0  0  0
   -1.9040    2.4864   -3.0521 C   0  0  0  0  0  0  0  0  0  0  0  0
   -0.7055    0.6897   -1.2200 C   0  0  0  0  0  0  0  0  0  0  0  0
    2.4527    0.2094    0.0956 C   0  0  0  0  0  0  0  0  0  0  0  0
    2.5464    0.4736    1.6110 C   0  0  0  0  0  0  0  0  0  0  0  0
    2.7814    1.9769    1.7490 C   0  0  0  0  0  0  0  0  0  0  0  0
    3.4391    2.3839    0.4421 C   0  0  0  0  0  0  0  0  0  0  0  0
    2.6826    1.5629   -0.5950 C   0  0  0  0  0  0  0  0  0  0  0  0
    3.5385   -0.7829   -0.3344 C   0  0  0  0  0  0  0  0  0  0  0  0
    4.7431   -0.6082   -0.1900 O   0  0  0  0  0  0  0  0  0  0  0  0
    3.0201   -1.9161   -0.9138 O   0  0  0  0  0  0  0  0  0  0  0  0
    1.7660   -4.4471   -0.4355 H   0  0  0  0  0  0  0  0  0  0  0  0
    0.1502   -4.8156   -1.0584 H   0  0  0  0  0  0  0  0  0  0  0  0
    0.3309   -3.7976    0.3802 H   0  0  0  0  0  0  0  0  0  0  0  0
    1.2228   -3.0791   -2.4699 H   0  0  0  0  0  0  0  0  0  0  0  0
   -0.2157   -2.4636   -1.6778 H   0  0  0  0  0  0  0  0  0  0  0  0
   -0.4102   -1.1177    1.6455 H   0  0  0  0  0  0  0  0  0  0  0  0
   -2.0804   -2.0340    2.9541 H   0  0  0  0  0  0  0  0  0  0  0  0
   -3.1836   -1.1188    3.9875 H   0  0  0  0  0  0  0  0  0  0  0  0
   -1.6013   -0.4228    3.6170 H   0  0  0  0  0  0  0  0  0  0  0  0
   -4.7897    0.1201   -1.5009 H   0  0  0  0  0  0  0  0  0  0  0  0
   -5.9880    0.6247   -0.2991 H   0  0  0  0  0  0  0  0  0  0  0  0
   -4.9244   -0.7419    0.0701 H   0  0  0  0  0  0  0  0  0  0  0  0
   -2.5558    3.1541   -3.6238 H   0  0  0  0  0  0  0  0  0  0  0  0
   -1.5208    1.7266   -3.7407 H   0  0  0  0  0  0  0  0  0  0  0  0
   -1.0906    3.0906   -2.6364 H   0  0  0  0  0  0  0  0  0  0  0  0
   -0.1093    0.9513   -2.0884 H   0  0  0  0  0  0  0  0  0  0  0  0
    1.6500    0.1838    2.1675 H   0  0  0  0  0  0  0  0  0  0  0  0
    3.3864   -0.0681    2.0629 H   0  0  0  0  0  0  0  0  0  0  0  0
    1.8201    2.4930    1.8603 H   0  0  0  0  0  0  0  0  0  0  0  0
    3.3977    2.2210    2.6191 H   0  0  0  0  0  0  0  0  0  0  0  0
    4.5012    2.1137    0.4478 H   0  0  0  0  0  0  0  0  0  0  0  0
    3.3610    3.4588    0.2555 H   0  0  0  0  0  0  0  0  0  0  0  0
    1.7386    2.0701   -0.8216 H   0  0  0  0  0  0  0  0  0  0  0  0
    3.2522    1.4866   -1.5276 H   0  0  0  0  0  0  0  0  0  0  0  0
  1  2  1  0
  2  3  1  0
  3  4  2  0
  4  5  1  0
  5  6  2  0
  6  7  1  0
  7  8  1  0
  8  9  1  0
  7 10  2  0
 10 11  1  0
 11 12  1  0
 10 13  1  0
 13 14  1  0
 14 15  1  0
 13 16  2  0
  4 17  1  0
 17 18  1  0
 18 19  1  0
 19 20  1  0
 20 21  1  0
 17 22  1  0
 22 23  2  0
 22 24  1  0
 24  3  1  0
 16  5  1  0
 21 17  1  0
  1 25  1  0
  1 26  1  0
  1 27  1  0
  2 28  1  0
  2 29  1  0
  6 30  1  0
  9 31  1  0
  9 32  1  0
  9 33  1  0
 12 34  1  0
 12 35  1  0
 12 36  1  0
 15 37  1  0
 15 38  1  0
 15 39  1  0
 16 40  1  0
 18 41  1  0
 18 42  1  0
 19 43  1  0
 19 44  1  0
 20 45  1  0
 20 46  1  0
 21 47  1  0
 21 48  1  0
M  END
$$$$
