
     RDKit          3D

 49 51  0  0  0  0  0  0  0  0999 V2000
   -3.1854    3.1715   -1.0143 C   0  0  0  0  0  0  0  0  0  0  0  0
   -3.5658    2.4982    0.2968 C   0  0  0  0  0  0  0  0  0  0  0  0
   -2.8751    1.2440    0.5167 N   0  0  0  0  0  0  0  0  0  0  0  0
   -1.6129    1.0697    1.0193 C   0  0  0  0  0  0  0  0  0  0  0  0
   -0.5184    2.3493    1.4072 S   0  0  0  0  0  0  0  0  0  0  0  0
    0.8394    1.4173    2.1646 C   0  0  0  0  0  0  0  0  0  0  0  0
    1.7478    0.8065    1.1125 C   0  0  0  0  0  0  0  0  0  0  0  0
    2.6791    1.4434    0.6198 O   0  0  0  0  0  0  0  0  0  0  0  0
    1.4305   -0.5228    0.8199 N   0  0  0  0  0  0  0  0  0  0  0  0
    2.0970   -1.2705   -0.1208 N   0  0  0  0  0  0  0  0  0  0  0  0
    3.3931   -1.2156   -0.0959 C   0  0  0  0  0  0  0  0  0  0  0  0
    4.2495   -1.9704   -1.0584 C   0  0  0  0  0  0  0  0  0  0  0  0
    3.5230   -2.9240   -1.9637 C   0  0  0  0  0  0  0  0  0  0  0  0
    5.5907   -1.8552   -1.0860 C   0  0  0  0  0  0  0  0  0  0  0  0
    6.3588   -0.9374   -0.3192 C   0  0  0  0  0  0  0  0  0  0  0  0
    6.2096    0.4359   -0.1374 C   0  0  0  0  0  0  0  0  0  0  0  0
    7.2628    0.8833    0.6967 C   0  0  0  0  0  0  0  0  0  0  0  0
    8.0151   -0.2301    0.9790 C   0  0  0  0  0  0  0  0  0  0  0  0
    7.4940   -1.3208    0.3638 O   0  0  0  0  0  0  0  0  0  0  0  0
   -1.3681   -0.2068    1.1849 N   0  0  0  0  0  0  0  0  0  0  0  0
   -2.4840   -0.8950    0.7963 N   0  0  0  0  0  0  0  0  0  0  0  0
   -3.3987   -0.0299    0.3908 C   0  0  0  0  0  0  0  0  0  0  0  0
   -4.7500   -0.3901   -0.0370 C   0  0  0  0  0  0  0  0  0  0  0  0
   -5.2758    0.0240   -1.2678 C   0  0  0  0  0  0  0  0  0  0  0  0
   -6.5678   -0.3496   -1.6474 C   0  0  0  0  0  0  0  0  0  0  0  0
   -7.3406   -1.1504   -0.8074 C   0  0  0  0  0  0  0  0  0  0  0  0
   -6.8240   -1.5811    0.4115 C   0  0  0  0  0  0  0  0  0  0  0  0
   -5.5323   -1.2083    0.7916 C   0  0  0  0  0  0  0  0  0  0  0  0
   -3.7717    4.0906   -1.1471 H   0  0  0  0  0  0  0  0  0  0  0  0
   -3.3735    2.5221   -1.8731 H   0  0  0  0  0  0  0  0  0  0  0  0
   -2.1243    3.4432   -1.0356 H   0  0  0  0  0  0  0  0  0  0  0  0
   -3.3562    3.1589    1.1426 H   0  0  0  0  0  0  0  0  0  0  0  0
   -4.6470    2.3094    0.3260 H   0  0  0  0  0  0  0  0  0  0  0  0
    0.4633    0.6542    2.8507 H   0  0  0  0  0  0  0  0  0  0  0  0
    1.4436    2.1021    2.7670 H   0  0  0  0  0  0  0  0  0  0  0  0
    0.4433   -0.7833    0.9194 H   0  0  0  0  0  0  0  0  0  0  0  0
    3.9255   -0.6467    0.6851 H   0  0  0  0  0  0  0  0  0  0  0  0
    2.9544   -3.6524   -1.3784 H   0  0  0  0  0  0  0  0  0  0  0  0
    4.2090   -3.4809   -2.6122 H   0  0  0  0  0  0  0  0  0  0  0  0
    2.8291   -2.3751   -2.6130 H   0  0  0  0  0  0  0  0  0  0  0  0
    6.1694   -2.5173   -1.7284 H   0  0  0  0  0  0  0  0  0  0  0  0
    5.4200    1.0441   -0.5631 H   0  0  0  0  0  0  0  0  0  0  0  0
    7.4490    1.8919    1.0437 H   0  0  0  0  0  0  0  0  0  0  0  0
    8.9084   -0.4032    1.5666 H   0  0  0  0  0  0  0  0  0  0  0  0
   -4.6817    0.6229   -1.9576 H   0  0  0  0  0  0  0  0  0  0  0  0
   -6.9612   -0.0333   -2.6087 H   0  0  0  0  0  0  0  0  0  0  0  0
   -8.3416   -1.4480   -1.1112 H   0  0  0  0  0  0  0  0  0  0  0  0
   -7.4172   -2.2186    1.0609 H   0  0  0  0  0  0  0  0  0  0  0  0
   -5.1317   -1.5659    1.7355 H   0  0  0  0  0  0  0  0  0  0  0  0
  1  2  1  0
  2  3  1  0
  3  4  1  0
  4  5  1  0
  5  6  1  0
  6  7  1  0
  7  8  2  0
  7  9  1  0
  9 10  1  0
 10 11  2  3
 11 12  1  0
 12 13  1  0
 12 14  2  3
 14 15  1  0
 15 16  2  0
 16 17  1  0
 17 18  2  0
 18 19  1  0
  4 20  2  0
 20 21  1  0
 21 22  2  0
 22 23  1  0
 23 24  2  0
 24 25  1  0
 25 26  2  0
 26 27  1  0
 27 28  2  0
 22  3  1  0
 28 23  1  0
 19 15  1  0
  1 29  1  0
  1 30  1  0
  1 31  1  0
  2 32  1  0
  2 33  1  0
  6 34  1  0
  6 35  1  0
  9 36  1  0
 11 37  1  0
 13 38  1  0
 13 39  1  0
 13 40  1  0
 14 41  1  0
 16 42  1  0
 17 43  1  0
 18 44  1  0
 24 45  1  0
 25 46  1  0
 26 47  1  0
 27 48  1  0
 28 49  1  0
M  END
$$$$
