
     RDKit          3D

 41 43  0  0  0  0  0  0  0  0999 V2000
    3.0608   -3.5232   -1.0150 Cl  0  0  0  0  0  0  0  0  0  0  0  0
    3.3314   -2.1071   -1.9632 C   0  0  0  0  0  0  0  0  0  0  0  0
    2.8372   -2.1124   -3.2723 C   0  0  0  0  0  0  0  0  0  0  0  0
    3.0164   -1.0047   -4.0993 C   0  0  0  0  0  0  0  0  0  0  0  0
    3.6936    0.1121   -3.6215 C   0  0  0  0  0  0  0  0  0  0  0  0
    4.1871    0.1222   -2.3160 C   0  0  0  0  0  0  0  0  0  0  0  0
    4.0105   -0.9850   -1.4614 C   0  0  0  0  0  0  0  0  0  0  0  0
    4.5390   -0.8985   -0.0474 C   0  0  0  0  0  0  0  0  0  0  0  0
    3.5342    0.2137    0.9877 S   0  0  0  0  0  0  0  0  0  0  0  0
    2.2518   -0.8602    1.4171 C   0  0  0  0  0  0  0  0  0  0  0  0
    2.2984   -1.7935    2.3404 N   0  0  0  0  0  0  0  0  0  0  0  0
    1.0841   -2.4513    2.3262 N   0  0  0  0  0  0  0  0  0  0  0  0
    0.3433   -1.8987    1.3901 C   0  0  0  0  0  0  0  0  0  0  0  0
    1.0209   -0.8651    0.8094 N   0  0  0  0  0  0  0  0  0  0  0  0
    0.5411   -0.0582   -0.2820 N   0  0  0  0  0  0  0  0  0  0  0  0
    0.0190    1.2279    0.1797 C   0  0  0  0  0  0  0  0  0  0  0  0
   -1.2857    1.0930    0.9068 C   0  0  0  0  0  0  0  0  0  0  0  0
   -2.4645    1.5112    0.4165 C   0  0  0  0  0  0  0  0  0  0  0  0
   -3.7428    1.4091    1.1349 C   0  0  0  0  0  0  0  0  0  0  0  0
   -4.7066    2.4084    0.9451 C   0  0  0  0  0  0  0  0  0  0  0  0
   -5.9454    2.3355    1.5876 C   0  0  0  0  0  0  0  0  0  0  0  0
   -6.2379    1.2562    2.4182 C   0  0  0  0  0  0  0  0  0  0  0  0
   -5.2948    0.2477    2.6026 C   0  0  0  0  0  0  0  0  0  0  0  0
   -4.0557    0.3208    1.9603 C   0  0  0  0  0  0  0  0  0  0  0  0
    2.3101   -2.9834   -3.6558 H   0  0  0  0  0  0  0  0  0  0  0  0
    2.6320   -1.0172   -5.1164 H   0  0  0  0  0  0  0  0  0  0  0  0
    3.8411    0.9759   -4.2659 H   0  0  0  0  0  0  0  0  0  0  0  0
    4.7150    1.0077   -1.9629 H   0  0  0  0  0  0  0  0  0  0  0  0
    5.5547   -0.4864   -0.0844 H   0  0  0  0  0  0  0  0  0  0  0  0
    4.6423   -1.8758    0.4328 H   0  0  0  0  0  0  0  0  0  0  0  0
   -0.6548   -2.1892    1.0993 H   0  0  0  0  0  0  0  0  0  0  0  0
    1.2992    0.1209   -0.9405 H   0  0  0  0  0  0  0  0  0  0  0  0
   -0.1177    1.8655   -0.7026 H   0  0  0  0  0  0  0  0  0  0  0  0
    0.7404    1.7518    0.8178 H   0  0  0  0  0  0  0  0  0  0  0  0
   -1.2353    0.6692    1.9071 H   0  0  0  0  0  0  0  0  0  0  0  0
   -2.5132    1.9705   -0.5684 H   0  0  0  0  0  0  0  0  0  0  0  0
   -4.4985    3.2596    0.3010 H   0  0  0  0  0  0  0  0  0  0  0  0
   -6.6811    3.1214    1.4383 H   0  0  0  0  0  0  0  0  0  0  0  0
   -7.2013    1.1984    2.9178 H   0  0  0  0  0  0  0  0  0  0  0  0
   -5.5234   -0.6003    3.2431 H   0  0  0  0  0  0  0  0  0  0  0  0
   -3.3447   -0.4883    2.1061 H   0  0  0  0  0  0  0  0  0  0  0  0
  1  2  1  0
  2  3  2  0
  3  4  1  0
  4  5  2  0
  5  6  1  0
  6  7  2  0
  7  8  1  0
  8  9  1  0
  9 10  1  0
 10 11  2  0
 11 12  1  0
 12 13  2  0
 13 14  1  0
 14 15  1  0
 15 16  1  0
 16 17  1  0
 17 18  2  3
 18 19  1  0
 19 20  2  0
 20 21  1  0
 21 22  2  0
 22 23  1  0
 23 24  2  0
  7  2  1  0
 14 10  1  0
 24 19  1  0
  3 25  1  0
  4 26  1  0
  5 27  1  0
  6 28  1  0
  8 29  1  0
  8 30  1  0
 13 31  1  0
 15 32  1  0
 16 33  1  0
 16 34  1  0
 17 35  1  0
 18 36  1  0
 20 37  1  0
 21 38  1  0
 22 39  1  0
 23 40  1  0
 24 41  1  0
M  END
$$$$
