
     RDKit          3D

 52 55  0  0  0  0  0  0  0  0999 V2000
    6.7688   -1.3175    3.4884 C   0  0  0  0  0  0  0  0  0  0  0  0
    5.5168   -1.0943    2.6876 C   0  0  0  0  0  0  0  0  0  0  0  0
    4.4903   -2.0498    2.7031 C   0  0  0  0  0  0  0  0  0  0  0  0
    3.3247   -1.8849    1.9453 C   0  0  0  0  0  0  0  0  0  0  0  0
    3.2436   -0.7308    1.1715 C   0  0  0  0  0  0  0  0  0  0  0  0
    2.2018   -0.3959    0.3671 O   0  0  0  0  0  0  0  0  0  0  0  0
    2.4950    0.8113   -0.2101 C   0  0  0  0  0  0  0  0  0  0  0  0
    1.5667    1.3915   -1.1672 C   0  0  0  0  0  0  0  0  0  0  0  0
    1.9659    2.0801   -2.1088 O   0  0  0  0  0  0  0  0  0  0  0  0
    0.1946    1.1352   -1.0213 N   0  0  0  0  0  0  0  0  0  0  0  0
   -0.6898    1.5862   -2.0905 C   0  0  0  0  0  0  0  0  0  0  0  0
   -2.1364    1.1354   -1.8884 C   0  0  0  0  0  0  0  0  0  0  0  0
   -2.2147   -0.2748   -1.2688 C   0  0  0  0  0  0  0  0  0  0  0  0
   -1.6153   -1.1824   -2.2114 O   0  0  0  0  0  0  0  0  0  0  0  0
   -3.6800   -0.6734   -1.0637 C   0  0  0  0  0  0  0  0  0  0  0  0
   -4.2732   -1.7112   -1.8026 C   0  0  0  0  0  0  0  0  0  0  0  0
   -5.6135   -2.0569   -1.6196 C   0  0  0  0  0  0  0  0  0  0  0  0
   -6.3927   -1.3711   -0.6910 C   0  0  0  0  0  0  0  0  0  0  0  0
   -5.8372   -0.3324    0.0672 C   0  0  0  0  0  0  0  0  0  0  0  0
   -6.6743    0.4313    1.0638 C   0  0  0  0  0  0  0  0  0  0  0  0
   -7.1468    1.6029    0.5535 F   0  0  0  0  0  0  0  0  0  0  0  0
   -7.7658   -0.2576    1.4982 F   0  0  0  0  0  0  0  0  0  0  0  0
   -5.9780    0.7684    2.1873 F   0  0  0  0  0  0  0  0  0  0  0  0
   -4.4885    0.0127   -0.1360 C   0  0  0  0  0  0  0  0  0  0  0  0
   -1.4069   -0.3808    0.0521 C   0  0  0  0  0  0  0  0  0  0  0  0
   -0.4559    0.7985    0.2398 C   0  0  0  0  0  0  0  0  0  0  0  0
    3.7541    1.2340    0.2030 C   0  0  0  0  0  0  0  0  0  0  0  0
    4.4616    2.4698   -0.2208 C   0  0  0  0  0  0  0  0  0  0  0  0
    4.2326    0.2382    1.1093 C   0  0  0  0  0  0  0  0  0  0  0  0
    5.3987    0.0518    1.8782 C   0  0  0  0  0  0  0  0  0  0  0  0
    7.1893   -0.3645    3.8271 H   0  0  0  0  0  0  0  0  0  0  0  0
    7.5146   -1.8379    2.8790 H   0  0  0  0  0  0  0  0  0  0  0  0
    6.5613   -1.9158    4.3814 H   0  0  0  0  0  0  0  0  0  0  0  0
    4.5921   -2.9454    3.3142 H   0  0  0  0  0  0  0  0  0  0  0  0
    2.5270   -2.6184    1.9516 H   0  0  0  0  0  0  0  0  0  0  0  0
   -0.6419    2.6812   -2.1458 H   0  0  0  0  0  0  0  0  0  0  0  0
   -0.2974    1.1960   -3.0385 H   0  0  0  0  0  0  0  0  0  0  0  0
   -2.6507    1.1683   -2.8575 H   0  0  0  0  0  0  0  0  0  0  0  0
   -2.6431    1.8650   -1.2426 H   0  0  0  0  0  0  0  0  0  0  0  0
   -0.6523   -1.0336   -2.1896 H   0  0  0  0  0  0  0  0  0  0  0  0
   -3.6929   -2.2646   -2.5396 H   0  0  0  0  0  0  0  0  0  0  0  0
   -6.0491   -2.8640   -2.2061 H   0  0  0  0  0  0  0  0  0  0  0  0
   -7.4359   -1.6531   -0.5615 H   0  0  0  0  0  0  0  0  0  0  0  0
   -4.0681    0.8322    0.4485 H   0  0  0  0  0  0  0  0  0  0  0  0
   -2.0515   -0.4293    0.9376 H   0  0  0  0  0  0  0  0  0  0  0  0
   -0.8212   -1.3108    0.0547 H   0  0  0  0  0  0  0  0  0  0  0  0
    0.2480    0.6011    1.0493 H   0  0  0  0  0  0  0  0  0  0  0  0
   -1.0146    1.6885    0.5585 H   0  0  0  0  0  0  0  0  0  0  0  0
    5.0242    2.2863   -1.1402 H   0  0  0  0  0  0  0  0  0  0  0  0
    3.7586    3.2878   -0.4021 H   0  0  0  0  0  0  0  0  0  0  0  0
    5.1632    2.8064    0.5480 H   0  0  0  0  0  0  0  0  0  0  0  0
    6.1943    0.7912    1.8488 H   0  0  0  0  0  0  0  0  0  0  0  0
  1  2  1  0
  2  3  2  0
  3  4  1  0
  4  5  2  0
  5  6  1  0
  6  7  1  0
  7  8  1  0
  8  9  2  0
  8 10  1  0
 10 11  1  0
 11 12  1  0
 12 13  1  0
 13 14  1  0
 13 15  1  0
 15 16  2  0
 16 17  1  0
 17 18  2  0
 18 19  1  0
 19 20  1  0
 20 21  1  0
 20 22  1  0
 20 23  1  0
 19 24  2  0
 13 25  1  0
 25 26  1  0
  7 27  2  0
 27 28  1  0
 27 29  1  0
 29 30  2  0
 30  2  1  0
 29  5  1  0
 26 10  1  0
 24 15  1  0
  1 31  1  0
  1 32  1  0
  1 33  1  0
  3 34  1  0
  4 35  1  0
 11 36  1  0
 11 37  1  0
 12 38  1  0
 12 39  1  0
 14 40  1  0
 16 41  1  0
 17 42  1  0
 18 43  1  0
 24 44  1  0
 25 45  1  0
 25 46  1  0
 26 47  1  0
 26 48  1  0
 28 49  1  0
 28 50  1  0
 28 51  1  0
 30 52  1  0
M  END
$$$$
