
     RDKit          3D

 33 34  0  0  0  0  0  0  0  0999 V2000
    3.8142   -1.2047   -2.8947 C   0  0  0  0  0  0  0  0  0  0  0  0
    2.6246   -0.6893   -2.1025 C   0  0  0  0  0  0  0  0  0  0  0  0
    1.3250   -1.3886   -2.4917 C   0  0  0  0  0  0  0  0  0  0  0  0
    1.2158   -1.9461   -3.5867 O   0  0  0  0  0  0  0  0  0  0  0  0
    0.2220   -1.4318   -1.4413 C   0  0  0  0  0  0  0  0  0  0  0  0
   -0.9568   -2.1666   -1.9247 C   0  0  0  0  0  0  0  0  0  0  0  0
   -1.9209   -2.7589   -2.1892 N   0  0  0  0  0  0  0  0  0  0  0  0
   -0.1814   -0.0575   -1.0151 C   0  0  0  0  0  0  0  0  0  0  0  0
    0.1156    1.0694   -1.6310 N   0  0  0  0  0  0  0  0  0  0  0  0
   -0.4167    2.1094   -0.9214 N   0  0  0  0  0  0  0  0  0  0  0  0
   -1.0535    1.6146    0.1156 C   0  0  0  0  0  0  0  0  0  0  0  0
   -0.9237    0.2496    0.1048 N   0  0  0  0  0  0  0  0  0  0  0  0
   -1.4850   -0.6439    1.0954 C   0  0  0  0  0  0  0  0  0  0  0  0
   -0.9608   -0.3818    2.5059 C   0  0  0  0  0  0  0  0  0  0  0  0
   -1.5836    0.8405    3.1835 C   0  0  0  0  0  0  0  0  0  0  0  0
   -1.2215    2.1853    2.5490 C   0  0  0  0  0  0  0  0  0  0  0  0
   -1.7960    2.3826    1.1479 C   0  0  0  0  0  0  0  0  0  0  0  0
    3.6929   -1.0036   -3.9642 H   0  0  0  0  0  0  0  0  0  0  0  0
    3.9314   -2.2860   -2.7678 H   0  0  0  0  0  0  0  0  0  0  0  0
    4.7349   -0.7174   -2.5596 H   0  0  0  0  0  0  0  0  0  0  0  0
    2.8095   -0.8630   -1.0371 H   0  0  0  0  0  0  0  0  0  0  0  0
    2.5146    0.3858   -2.2690 H   0  0  0  0  0  0  0  0  0  0  0  0
    0.6441   -1.9707   -0.5835 H   0  0  0  0  0  0  0  0  0  0  0  0
   -2.5757   -0.5504    1.0439 H   0  0  0  0  0  0  0  0  0  0  0  0
   -1.2329   -1.6703    0.8157 H   0  0  0  0  0  0  0  0  0  0  0  0
   -1.1976   -1.2575    3.1231 H   0  0  0  0  0  0  0  0  0  0  0  0
    0.1322   -0.2872    2.4980 H   0  0  0  0  0  0  0  0  0  0  0  0
   -1.2452    0.8574    4.2271 H   0  0  0  0  0  0  0  0  0  0  0  0
   -2.6744    0.7290    3.2154 H   0  0  0  0  0  0  0  0  0  0  0  0
   -1.6254    2.9750    3.1951 H   0  0  0  0  0  0  0  0  0  0  0  0
   -0.1317    2.3122    2.5420 H   0  0  0  0  0  0  0  0  0  0  0  0
   -1.7349    3.4481    0.8940 H   0  0  0  0  0  0  0  0  0  0  0  0
   -2.8591    2.1164    1.1232 H   0  0  0  0  0  0  0  0  0  0  0  0
  1  2  1  0
  2  3  1  0
  3  4  2  0
  3  5  1  0
  5  6  1  0
  6  7  3  0
  5  8  1  0
  8  9  2  0
  9 10  1  0
 10 11  2  0
 11 12  1  0
 12 13  1  0
 13 14  1  0
 14 15  1  0
 15 16  1  0
 16 17  1  0
 12  8  1  0
 17 11  1  0
  1 18  1  0
  1 19  1  0
  1 20  1  0
  2 21  1  0
  2 22  1  0
  5 23  1  0
 13 24  1  0
 13 25  1  0
 14 26  1  0
 14 27  1  0
 15 28  1  0
 15 29  1  0
 16 30  1  0
 16 31  1  0
 17 32  1  0
 17 33  1  0
M  END
$$$$
