
     RDKit          3D

 50 52  0  0  0  0  0  0  0  0999 V2000
    3.5653   -1.4290   -3.2940 O   0  0  0  0  0  0  0  0  0  0  0  0
    3.0339   -1.1004   -2.2510 C   0  0  0  0  0  0  0  0  0  0  0  0
    1.9289   -1.7198   -1.8018 O   0  0  0  0  0  0  0  0  0  0  0  0
    3.4880   -0.0150   -1.3501 C   0  0  0  0  0  0  0  0  0  0  0  0
    2.8297    0.2686   -0.1480 C   0  0  0  0  0  0  0  0  0  0  0  0
    3.2919    1.2987    0.6696 C   0  0  0  0  0  0  0  0  0  0  0  0
    2.5855    1.6228    1.8612 N   0  0  0  0  0  0  0  0  0  0  0  0
    1.2809    2.6964    1.7358 S   0  0  0  0  0  6  0  0  0  0  0  0
    1.5422    3.6428    0.6742 O   0  0  0  0  0  0  0  0  0  0  0  0
    0.9876    3.1336    3.0832 O   0  0  0  0  0  0  0  0  0  0  0  0
   -0.0437    1.6280    1.2378 C   0  0  0  0  0  0  0  0  0  0  0  0
   -0.5529    1.6993   -0.0576 C   0  0  0  0  0  0  0  0  0  0  0  0
   -1.5957    0.8451   -0.4453 C   0  0  0  0  0  0  0  0  0  0  0  0
   -2.1619   -0.1004    0.4329 C   0  0  0  0  0  0  0  0  0  0  0  0
   -3.1698   -0.9553   -0.0065 N   0  0  0  0  0  0  0  0  0  0  0  0
   -3.0068   -2.4071    0.1903 C   0  0  0  0  0  0  0  0  0  0  0  0
   -3.4877   -3.1847   -1.0327 C   0  0  0  0  0  0  0  0  0  0  0  0
   -4.9455   -2.8762   -1.3703 C   0  0  0  0  0  0  0  0  0  0  0  0
   -5.3326   -1.4322   -1.0505 C   0  0  0  0  0  0  0  0  0  0  0  0
   -4.1167   -0.5100   -1.0370 C   0  0  0  0  0  0  0  0  0  0  0  0
   -1.6320   -0.1029    1.7421 C   0  0  0  0  0  0  0  0  0  0  0  0
   -2.2014   -0.9526    2.7662 N   0  0  0  0  0  4  0  0  0  0  0  0
   -3.2807   -0.6069    3.2640 O   0  0  0  0  0  0  0  0  0  0  0  0
   -1.5314   -1.9402    3.1029 O   0  0  0  0  0  1  0  0  0  0  0  0
   -0.5877    0.7384    2.1585 C   0  0  0  0  0  0  0  0  0  0  0  0
    4.3989    2.0591    0.2951 C   0  0  0  0  0  0  0  0  0  0  0  0
    5.0630    1.7757   -0.9046 C   0  0  0  0  0  0  0  0  0  0  0  0
    6.2448    2.5532   -1.3462 C   0  0  0  0  0  0  0  0  0  0  0  0
    6.8410    2.4055   -2.3957 O   0  0  0  0  0  0  0  0  0  0  0  0
    6.6286    3.4713   -0.4433 O   0  0  0  0  0  0  0  0  0  0  0  0
    4.6064    0.7381   -1.7270 C   0  0  0  0  0  0  0  0  0  0  0  0
    1.7501   -2.4039   -2.4820 H   0  0  0  0  0  0  0  0  0  0  0  0
    1.9690   -0.3211    0.1560 H   0  0  0  0  0  0  0  0  0  0  0  0
    3.1367    1.8356    2.6942 H   0  0  0  0  0  0  0  0  0  0  0  0
   -0.1450    2.4046   -0.7801 H   0  0  0  0  0  0  0  0  0  0  0  0
   -1.9409    0.9167   -1.4745 H   0  0  0  0  0  0  0  0  0  0  0  0
   -1.9556   -2.6668    0.3656 H   0  0  0  0  0  0  0  0  0  0  0  0
   -3.5839   -2.7190    1.0686 H   0  0  0  0  0  0  0  0  0  0  0  0
   -2.8580   -2.9249   -1.8936 H   0  0  0  0  0  0  0  0  0  0  0  0
   -3.3654   -4.2615   -0.8703 H   0  0  0  0  0  0  0  0  0  0  0  0
   -5.1134   -3.0817   -2.4342 H   0  0  0  0  0  0  0  0  0  0  0  0
   -5.6094   -3.5526   -0.8184 H   0  0  0  0  0  0  0  0  0  0  0  0
   -6.0734   -1.0775   -1.7758 H   0  0  0  0  0  0  0  0  0  0  0  0
   -5.8174   -1.4027   -0.0660 H   0  0  0  0  0  0  0  0  0  0  0  0
   -3.6420   -0.5098   -2.0259 H   0  0  0  0  0  0  0  0  0  0  0  0
   -4.4564    0.5106   -0.8222 H   0  0  0  0  0  0  0  0  0  0  0  0
   -0.2186    0.7028    3.1817 H   0  0  0  0  0  0  0  0  0  0  0  0
    4.7324    2.8800    0.9251 H   0  0  0  0  0  0  0  0  0  0  0  0
    7.4010    3.9080   -0.8618 H   0  0  0  0  0  0  0  0  0  0  0  0
    5.1205    0.5192   -2.6633 H   0  0  0  0  0  0  0  0  0  0  0  0
  1  2  2  0
  2  3  1  0
  2  4  1  0
  4  5  2  0
  5  6  1  0
  6  7  1  0
  7  8  1  0
  8  9  2  0
  8 10  2  0
  8 11  1  0
 11 12  2  0
 12 13  1  0
 13 14  2  0
 14 15  1  0
 15 16  1  0
 16 17  1  0
 17 18  1  0
 18 19  1  0
 19 20  1  0
 14 21  1  0
 21 22  1  0
 22 23  2  0
 22 24  1  0
 21 25  2  0
  6 26  2  0
 26 27  1  0
 27 28  1  0
 28 29  2  0
 28 30  1  0
 27 31  2  0
 31  4  1  0
 25 11  1  0
 20 15  1  0
  3 32  1  0
  5 33  1  0
  7 34  1  0
 12 35  1  0
 13 36  1  0
 16 37  1  0
 16 38  1  0
 17 39  1  0
 17 40  1  0
 18 41  1  0
 18 42  1  0
 19 43  1  0
 19 44  1  0
 20 45  1  0
 20 46  1  0
 25 47  1  0
 26 48  1  0
 30 49  1  0
 31 50  1  0
M  CHG  2  22   1  24  -1
M  END
$$$$
