
     RDKit          3D

 34 35  0  0  0  0  0  0  0  0999 V2000
   -0.8552    1.1963   -1.5694 C   0  0  0  0  0  0  0  0  0  0  0  0
   -0.9827    0.3262   -0.3358 C   0  0  0  0  0  0  0  0  0  0  0  0
    0.0201    0.0281    0.4543 N   0  0  0  0  0  0  0  0  0  0  0  0
    1.2752    0.4450    0.0946 N   0  0  0  0  0  0  0  0  0  0  0  0
    2.1453    0.7818    1.2285 C   0  0  0  0  0  0  0  0  0  0  0  0
    3.5538    1.1251    0.7641 C   0  0  0  0  0  0  0  0  0  0  0  0
    4.2030   -0.0515    0.0301 C   0  0  0  0  0  0  0  0  0  0  0  0
    3.1803   -0.9958   -0.6070 C   0  0  0  0  0  0  0  0  0  0  0  0
    1.9197   -0.2532   -1.0347 C   0  0  0  0  0  0  0  0  0  0  0  0
   -2.3397   -0.1837    0.0282 C   0  0  0  0  0  0  0  0  0  0  0  0
   -2.6490   -0.4008    1.3193 C   0  0  0  0  0  0  0  0  0  0  0  0
   -1.7928   -0.2463    2.3805 O   0  0  0  0  0  0  0  0  0  0  0  0
   -3.8864   -0.8159    1.7001 N   0  0  0  0  0  0  0  0  0  0  0  0
   -4.9169   -1.0368    0.8368 C   0  0  0  0  0  0  0  0  0  0  0  0
   -6.0178   -1.4271    1.2077 O   0  0  0  0  0  0  0  0  0  0  0  0
   -4.6355   -0.7999   -0.4778 N   0  0  0  0  0  0  0  0  0  0  0  0
   -3.4071   -0.4502   -0.9705 C   0  0  0  0  0  0  0  0  0  0  0  0
   -3.2062   -0.3856   -2.1794 O   0  0  0  0  0  0  0  0  0  0  0  0
   -0.5767    0.5784   -2.4270 H   0  0  0  0  0  0  0  0  0  0  0  0
   -1.7965    1.7099   -1.7833 H   0  0  0  0  0  0  0  0  0  0  0  0
   -0.0992    1.9720   -1.4197 H   0  0  0  0  0  0  0  0  0  0  0  0
    1.6941    1.6310    1.7529 H   0  0  0  0  0  0  0  0  0  0  0  0
    2.1679   -0.0743    1.9139 H   0  0  0  0  0  0  0  0  0  0  0  0
    4.1772    1.4223    1.6145 H   0  0  0  0  0  0  0  0  0  0  0  0
    3.5097    1.9875    0.0866 H   0  0  0  0  0  0  0  0  0  0  0  0
    4.8791    0.3411   -0.7390 H   0  0  0  0  0  0  0  0  0  0  0  0
    4.8286   -0.6254    0.7243 H   0  0  0  0  0  0  0  0  0  0  0  0
    2.9102   -1.7731    0.1194 H   0  0  0  0  0  0  0  0  0  0  0  0
    3.6320   -1.5078   -1.4638 H   0  0  0  0  0  0  0  0  0  0  0  0
    2.1695    0.5128   -1.7777 H   0  0  0  0  0  0  0  0  0  0  0  0
    1.2100   -0.9495   -1.4944 H   0  0  0  0  0  0  0  0  0  0  0  0
   -0.8901   -0.1044    2.0107 H   0  0  0  0  0  0  0  0  0  0  0  0
   -4.0576   -0.9752    2.6852 H   0  0  0  0  0  0  0  0  0  0  0  0
   -5.3661   -1.0007   -1.1431 H   0  0  0  0  0  0  0  0  0  0  0  0
  1  2  1  0
  2  3  2  3
  3  4  1  0
  4  5  1  0
  5  6  1  0
  6  7  1  0
  7  8  1  0
  8  9  1  0
  2 10  1  0
 10 11  2  0
 11 12  1  0
 11 13  1  0
 13 14  1  0
 14 15  2  0
 14 16  1  0
 16 17  1  0
 17 18  2  0
  9  4  1  0
 17 10  1  0
  1 19  1  0
  1 20  1  0
  1 21  1  0
  5 22  1  0
  5 23  1  0
  6 24  1  0
  6 25  1  0
  7 26  1  0
  7 27  1  0
  8 28  1  0
  8 29  1  0
  9 30  1  0
  9 31  1  0
 12 32  1  0
 13 33  1  0
 16 34  1  0
M  END
$$$$
