
     RDKit          3D

 66 69  0  0  0  0  0  0  0  0999 V2000
   -1.2455    7.3297    1.7494 C   0  0  0  0  0  0  0  0  0  0  0  0
   -1.0577    5.9449    1.4528 O   0  0  0  0  0  0  0  0  0  0  0  0
   -1.0743    5.6600    0.1269 C   0  0  0  0  0  0  0  0  0  0  0  0
   -1.2335    6.4662   -0.7766 O   0  0  0  0  0  0  0  0  0  0  0  0
   -0.8586    4.2050   -0.1021 C   0  0  0  0  0  0  0  0  0  0  0  0
   -0.7827    3.7487   -1.4236 C   0  0  0  0  0  0  0  0  0  0  0  0
   -0.5736    2.3937   -1.6942 C   0  0  0  0  0  0  0  0  0  0  0  0
   -0.4289    1.4701   -0.6470 C   0  0  0  0  0  0  0  0  0  0  0  0
   -0.2118   -0.0089   -0.9115 C   0  0  0  0  0  0  0  0  0  0  0  0
   -1.5265   -0.7106   -1.3176 C   0  0  0  0  0  0  0  0  0  0  0  0
   -2.2806   -1.2405   -0.1222 C   0  0  0  0  0  0  0  0  0  0  0  0
   -1.7422   -1.3314    0.9820 O   0  0  0  0  0  0  0  0  0  0  0  0
   -3.7132   -1.6572   -0.2603 C   0  0  0  0  0  0  0  0  0  0  0  0
   -4.4065   -1.6019   -1.4750 C   0  0  0  0  0  0  0  0  0  0  0  0
   -5.7445   -1.9948   -1.5335 C   0  0  0  0  0  0  0  0  0  0  0  0
   -6.3920   -2.4457   -0.3835 C   0  0  0  0  0  0  0  0  0  0  0  0
   -5.7134   -2.5141    0.8340 C   0  0  0  0  0  0  0  0  0  0  0  0
   -6.4610   -2.9823    1.8794 O   0  0  0  0  0  0  0  0  0  0  0  0
   -5.8013   -3.1270    3.1317 C   0  0  0  0  0  0  0  0  0  0  0  0
   -4.3768   -2.1162    0.8929 C   0  0  0  0  0  0  0  0  0  0  0  0
   -1.0028   -1.7832   -2.2160 C   0  0  0  0  0  0  0  0  0  0  0  0
   -1.5992   -2.7747   -2.5898 O   0  0  0  0  0  0  0  0  0  0  0  0
    0.4101   -1.4273   -2.6573 C   0  0  0  0  0  0  0  0  0  0  0  0
    1.0746   -2.0729   -3.4383 O   0  0  0  0  0  0  0  0  0  0  0  0
    0.7475   -0.2713   -1.9810 N   0  0  0  0  0  0  0  0  0  0  0  0
    2.1366    0.1731   -1.9169 C   0  0  0  0  0  0  0  0  0  0  0  0
    2.9760   -0.6380   -0.9259 C   0  0  0  0  0  0  0  0  0  0  0  0
    4.4318   -0.1524   -0.9253 C   0  0  0  0  0  0  0  0  0  0  0  0
    5.3559   -0.8740   -0.0489 N   0  0  0  0  0  0  0  0  0  0  0  0
    5.5264   -2.3025   -0.3703 C   0  0  0  0  0  0  0  0  0  0  0  0
    4.9141   -3.2418    0.6824 C   0  0  0  0  0  0  0  0  0  0  0  0
    5.4343   -3.0353    2.0032 O   0  0  0  0  0  0  0  0  0  0  0  0
    5.8781   -1.6908    2.2350 C   0  0  0  0  0  0  0  0  0  0  0  0
    5.1185   -0.6581    1.3877 C   0  0  0  0  0  0  0  0  0  0  0  0
   -0.5209    1.9313    0.6752 C   0  0  0  0  0  0  0  0  0  0  0  0
   -0.7309    3.2870    0.9471 C   0  0  0  0  0  0  0  0  0  0  0  0
   -1.2155    7.4503    2.8361 H   0  0  0  0  0  0  0  0  0  0  0  0
   -2.2213    7.6703    1.3898 H   0  0  0  0  0  0  0  0  0  0  0  0
   -0.4398    7.9276    1.3117 H   0  0  0  0  0  0  0  0  0  0  0  0
   -0.8826    4.4498   -2.2511 H   0  0  0  0  0  0  0  0  0  0  0  0
   -0.5123    2.0709   -2.7324 H   0  0  0  0  0  0  0  0  0  0  0  0
    0.2225   -0.4734   -0.0168 H   0  0  0  0  0  0  0  0  0  0  0  0
   -2.1535   -0.0335   -1.9065 H   0  0  0  0  0  0  0  0  0  0  0  0
   -3.9386   -1.2761   -2.3989 H   0  0  0  0  0  0  0  0  0  0  0  0
   -6.2832   -1.9600   -2.4780 H   0  0  0  0  0  0  0  0  0  0  0  0
   -7.4336   -2.7554   -0.4375 H   0  0  0  0  0  0  0  0  0  0  0  0
   -4.9528   -3.8163    3.0559 H   0  0  0  0  0  0  0  0  0  0  0  0
   -6.5169   -3.5596    3.8394 H   0  0  0  0  0  0  0  0  0  0  0  0
   -5.4890   -2.1531    3.5230 H   0  0  0  0  0  0  0  0  0  0  0  0
   -3.8273   -2.1572    1.8292 H   0  0  0  0  0  0  0  0  0  0  0  0
    2.5620    0.0686   -2.9223 H   0  0  0  0  0  0  0  0  0  0  0  0
    2.1558    1.2374   -1.6624 H   0  0  0  0  0  0  0  0  0  0  0  0
    2.9252   -1.6993   -1.1936 H   0  0  0  0  0  0  0  0  0  0  0  0
    2.5428   -0.5439    0.0748 H   0  0  0  0  0  0  0  0  0  0  0  0
    4.4562    0.9124   -0.6594 H   0  0  0  0  0  0  0  0  0  0  0  0
    4.8251   -0.2009   -1.9490 H   0  0  0  0  0  0  0  0  0  0  0  0
    6.6074   -2.4905   -0.4053 H   0  0  0  0  0  0  0  0  0  0  0  0
    5.1428   -2.5487   -1.3673 H   0  0  0  0  0  0  0  0  0  0  0  0
    3.8256   -3.1184    0.7258 H   0  0  0  0  0  0  0  0  0  0  0  0
    5.1110   -4.2848    0.4133 H   0  0  0  0  0  0  0  0  0  0  0  0
    5.7371   -1.4801    3.3002 H   0  0  0  0  0  0  0  0  0  0  0  0
    6.9555   -1.6460    2.0347 H   0  0  0  0  0  0  0  0  0  0  0  0
    5.4454    0.3511    1.6603 H   0  0  0  0  0  0  0  0  0  0  0  0
    4.0534   -0.7443    1.6297 H   0  0  0  0  0  0  0  0  0  0  0  0
   -0.4326    1.2360    1.5103 H   0  0  0  0  0  0  0  0  0  0  0  0
   -0.7943    3.6106    1.9836 H   0  0  0  0  0  0  0  0  0  0  0  0
  1  2  1  0
  2  3  1  0
  3  4  2  0
  3  5  1  0
  5  6  2  0
  6  7  1  0
  7  8  2  0
  8  9  1  0
  9 10  1  0
 10 11  1  0
 11 12  2  0
 11 13  1  0
 13 14  2  0
 14 15  1  0
 15 16  2  0
 16 17  1  0
 17 18  1  0
 18 19  1  0
 17 20  2  0
 10 21  1  0
 21 22  2  0
 21 23  1  0
 23 24  2  0
 23 25  1  0
 25 26  1  0
 26 27  1  0
 27 28  1  0
 28 29  1  0
 29 30  1  0
 30 31  1  0
 31 32  1  0
 32 33  1  0
 33 34  1  0
  8 35  1  0
 35 36  2  0
 36  5  1  0
 25  9  1  0
 34 29  1  0
 20 13  1  0
  1 37  1  0
  1 38  1  0
  1 39  1  0
  6 40  1  0
  7 41  1  0
  9 42  1  0
 10 43  1  0
 14 44  1  0
 15 45  1  0
 16 46  1  0
 19 47  1  0
 19 48  1  0
 19 49  1  0
 20 50  1  0
 26 51  1  0
 26 52  1  0
 27 53  1  0
 27 54  1  0
 28 55  1  0
 28 56  1  0
 30 57  1  0
 30 58  1  0
 31 59  1  0
 31 60  1  0
 33 61  1  0
 33 62  1  0
 34 63  1  0
 34 64  1  0
 35 65  1  0
 36 66  1  0
M  END
$$$$
