
     RDKit          3D

 52 54  0  0  0  0  0  0  0  0999 V2000
   -4.1975   -3.8252   -1.6678 C   0  0  0  0  0  0  0  0  0  0  0  0
   -3.8408   -3.7718   -0.1901 C   0  0  0  0  0  0  0  0  0  0  0  0
   -2.5704   -2.9735    0.1111 C   0  0  0  0  0  0  0  0  0  0  0  0
   -2.7768   -1.4904    0.4570 C   0  0  0  0  0  0  0  0  0  0  0  0
   -3.1893   -0.5946   -0.7359 C   0  0  0  0  0  0  0  0  0  0  0  0
   -4.7062   -0.3000   -0.6652 C   0  0  0  0  0  0  0  0  0  0  0  0
   -5.2762    0.2917   -1.9479 C   0  0  0  0  0  0  0  0  0  0  0  0
   -2.3876    0.7345   -0.7548 C   0  0  0  0  0  0  0  0  0  0  0  0
   -0.9638    0.5574   -1.0712 N   0  0  0  0  0  0  0  0  0  0  0  0
   -0.0273    0.6702   -0.0567 C   0  0  0  0  0  0  0  0  0  0  0  0
   -0.2629    0.9164    1.1190 O   0  0  0  0  0  0  0  0  0  0  0  0
    1.3474    0.4589   -0.5867 C   0  0  0  0  0  0  0  0  0  0  0  0
    2.4155    0.5326    0.2219 C   0  0  0  0  0  0  0  0  0  0  0  0
    3.8018    0.3749   -0.0909 C   0  0  0  0  0  0  0  0  0  0  0  0
    4.3477   -0.4735   -1.0265 C   0  0  0  0  0  0  0  0  0  0  0  0
    5.6932   -0.2662   -0.9848 N   0  0  0  0  0  0  0  0  0  0  0  0
    6.0704    0.6433   -0.0780 N   0  0  0  0  0  0  0  0  0  0  0  0
    4.9249    1.0314    0.5077 C   0  0  0  0  0  0  0  0  0  0  0  0
    4.9461    2.0254    1.5777 C   0  0  0  0  0  0  0  0  0  0  0  0
    4.3824    1.7475    2.8294 C   0  0  0  0  0  0  0  0  0  0  0  0
    4.4011    2.7115    3.8406 C   0  0  0  0  0  0  0  0  0  0  0  0
    4.9906    3.9540    3.6102 C   0  0  0  0  0  0  0  0  0  0  0  0
    5.5688    4.2331    2.3727 C   0  0  0  0  0  0  0  0  0  0  0  0
    5.5504    3.2708    1.3609 C   0  0  0  0  0  0  0  0  0  0  0  0
    1.2845    0.1868   -2.2782 S   0  0  0  0  0  0  0  0  0  0  0  0
   -0.4648    0.3537   -2.3424 C   0  0  0  0  0  0  0  0  0  0  0  0
   -1.2992    0.2721   -3.7858 S   0  0  0  0  0  0  0  0  0  0  0  0
   -5.0603   -4.4819   -1.8200 H   0  0  0  0  0  0  0  0  0  0  0  0
   -3.3653   -4.2229   -2.2576 H   0  0  0  0  0  0  0  0  0  0  0  0
   -4.4588   -2.8427   -2.0644 H   0  0  0  0  0  0  0  0  0  0  0  0
   -4.6875   -3.3938    0.3928 H   0  0  0  0  0  0  0  0  0  0  0  0
   -3.6768   -4.8057    0.1396 H   0  0  0  0  0  0  0  0  0  0  0  0
   -1.8435   -3.0736   -0.7038 H   0  0  0  0  0  0  0  0  0  0  0  0
   -2.1015   -3.4346    0.9910 H   0  0  0  0  0  0  0  0  0  0  0  0
   -1.8276   -1.1452    0.8768 H   0  0  0  0  0  0  0  0  0  0  0  0
   -3.5021   -1.4036    1.2759 H   0  0  0  0  0  0  0  0  0  0  0  0
   -2.9819   -1.1359   -1.6642 H   0  0  0  0  0  0  0  0  0  0  0  0
   -5.2550   -1.2244   -0.4555 H   0  0  0  0  0  0  0  0  0  0  0  0
   -4.9171    0.3801    0.1694 H   0  0  0  0  0  0  0  0  0  0  0  0
   -5.0476   -0.3431   -2.8097 H   0  0  0  0  0  0  0  0  0  0  0  0
   -6.3653    0.3729   -1.8689 H   0  0  0  0  0  0  0  0  0  0  0  0
   -4.8875    1.2945   -2.1431 H   0  0  0  0  0  0  0  0  0  0  0  0
   -2.7962    1.4207   -1.5024 H   0  0  0  0  0  0  0  0  0  0  0  0
   -2.4914    1.2372    0.2143 H   0  0  0  0  0  0  0  0  0  0  0  0
    2.2092    0.7787    1.2634 H   0  0  0  0  0  0  0  0  0  0  0  0
    3.9208   -1.1921   -1.7107 H   0  0  0  0  0  0  0  0  0  0  0  0
    6.4131   -0.7112   -1.5446 H   0  0  0  0  0  0  0  0  0  0  0  0
    3.9403    0.7755    3.0329 H   0  0  0  0  0  0  0  0  0  0  0  0
    3.9622    2.4897    4.8100 H   0  0  0  0  0  0  0  0  0  0  0  0
    5.0076    4.7023    4.3986 H   0  0  0  0  0  0  0  0  0  0  0  0
    6.0388    5.1968    2.1952 H   0  0  0  0  0  0  0  0  0  0  0  0
    6.0113    3.4912    0.4003 H   0  0  0  0  0  0  0  0  0  0  0  0
  1  2  1  0
  2  3  1  0
  3  4  1  0
  4  5  1  0
  5  6  1  0
  6  7  1  0
  5  8  1  0
  8  9  1  0
  9 10  1  0
 10 11  2  0
 10 12  1  0
 12 13  2  3
 13 14  1  0
 14 15  2  0
 15 16  1  0
 16 17  1  0
 17 18  2  0
 18 19  1  0
 19 20  2  0
 20 21  1  0
 21 22  2  0
 22 23  1  0
 23 24  2  0
 12 25  1  0
 25 26  1  0
 26 27  2  0
 26  9  1  0
 18 14  1  0
 24 19  1  0
  1 28  1  0
  1 29  1  0
  1 30  1  0
  2 31  1  0
  2 32  1  0
  3 33  1  0
  3 34  1  0
  4 35  1  0
  4 36  1  0
  5 37  1  0
  6 38  1  0
  6 39  1  0
  7 40  1  0
  7 41  1  0
  7 42  1  0
  8 43  1  0
  8 44  1  0
 13 45  1  0
 15 46  1  0
 16 47  1  0
 20 48  1  0
 21 49  1  0
 22 50  1  0
 23 51  1  0
 24 52  1  0
M  END
$$$$
