
     RDKit          3D

 33 33  0  0  0  0  0  0  0  0999 V2000
    5.2532    2.3120    3.3393 C   0  0  0  0  0  0  0  0  0  0  0  0
    3.9951    1.8770    3.4901 C   0  0  0  0  0  0  0  0  0  0  0  0
    3.4813    0.5708    2.9748 C   0  0  0  0  0  0  0  0  0  0  0  0
    2.5601    0.8613    1.8928 N   0  0  0  0  0  0  0  0  0  0  0  0
    1.7410   -0.0611    1.2734 C   0  0  0  0  0  0  0  0  0  0  0  0
    1.5360   -1.6513    1.7622 S   0  0  0  0  0  0  0  0  0  0  0  0
    1.0487    0.5111    0.2160 N   0  0  0  0  0  0  0  0  0  0  0  0
    0.3062   -0.2867   -0.6667 N   0  0  0  0  0  0  0  0  0  0  0  0
    0.3149    0.0429   -2.0065 C   0  0  0  0  0  0  0  0  0  0  0  0
    0.8122    1.0834   -2.4368 O   0  0  0  0  0  0  0  0  0  0  0  0
   -0.3160   -1.0096   -2.9161 C   0  0  0  0  0  0  0  0  0  0  0  0
   -1.2963   -1.8269   -2.2942 O   0  0  0  0  0  0  0  0  0  0  0  0
   -2.5560   -1.3242   -2.0975 C   0  0  0  0  0  0  0  0  0  0  0  0
   -2.9622   -0.0289   -2.4354 C   0  0  0  0  0  0  0  0  0  0  0  0
   -4.2747    0.3876   -2.1839 C   0  0  0  0  0  0  0  0  0  0  0  0
   -5.1854   -0.4855   -1.5938 C   0  0  0  0  0  0  0  0  0  0  0  0
   -6.7953    0.0376   -1.2900 Cl  0  0  0  0  0  0  0  0  0  0  0  0
   -4.8000   -1.7755   -1.2482 C   0  0  0  0  0  0  0  0  0  0  0  0
   -3.4901   -2.1902   -1.4991 C   0  0  0  0  0  0  0  0  0  0  0  0
   -3.0531   -3.8019   -1.0452 Cl  0  0  0  0  0  0  0  0  0  0  0  0
    5.5636    3.2677    3.7512 H   0  0  0  0  0  0  0  0  0  0  0  0
    6.0001    1.7293    2.8083 H   0  0  0  0  0  0  0  0  0  0  0  0
    3.2862    2.4919    4.0411 H   0  0  0  0  0  0  0  0  0  0  0  0
    2.9658    0.0295    3.7740 H   0  0  0  0  0  0  0  0  0  0  0  0
    4.2835   -0.0630    2.5817 H   0  0  0  0  0  0  0  0  0  0  0  0
    2.7440    1.7142    1.3838 H   0  0  0  0  0  0  0  0  0  0  0  0
    1.3625    1.3941   -0.1827 H   0  0  0  0  0  0  0  0  0  0  0  0
    0.0595   -1.2263   -0.3532 H   0  0  0  0  0  0  0  0  0  0  0  0
    0.4982   -1.6733   -3.2295 H   0  0  0  0  0  0  0  0  0  0  0  0
   -0.7036   -0.5416   -3.8281 H   0  0  0  0  0  0  0  0  0  0  0  0
   -2.2908    0.6920   -2.8921 H   0  0  0  0  0  0  0  0  0  0  0  0
   -4.5776    1.3979   -2.4505 H   0  0  0  0  0  0  0  0  0  0  0  0
   -5.5109   -2.4545   -0.7856 H   0  0  0  0  0  0  0  0  0  0  0  0
  1  2  2  0
  2  3  1  0
  3  4  1  0
  4  5  1  0
  5  6  2  0
  5  7  1  0
  7  8  1  0
  8  9  1  0
  9 10  2  0
  9 11  1  0
 11 12  1  0
 12 13  1  0
 13 14  2  0
 14 15  1  0
 15 16  2  0
 16 17  1  0
 16 18  1  0
 18 19  2  0
 19 20  1  0
 19 13  1  0
  1 21  1  0
  1 22  1  0
  2 23  1  0
  3 24  1  0
  3 25  1  0
  4 26  1  0
  7 27  1  0
  8 28  1  0
 11 29  1  0
 11 30  1  0
 14 31  1  0
 15 32  1  0
 18 33  1  0
M  END
$$$$
