
     RDKit          3D

 52 54  0  0  0  0  0  0  0  0999 V2000
    3.0517   -0.2629   -1.3311 O   0  0  0  0  0  0  0  0  0  0  0  0
    1.9534   -0.5100   -0.8497 C   0  0  0  0  0  0  0  0  0  0  0  0
    1.4185   -1.7496   -0.5625 N   0  0  0  0  0  0  0  0  0  0  0  0
    1.9976   -3.0152   -0.7621 C   0  0  0  0  0  0  0  0  0  0  0  0
    3.2614   -3.2144   -1.3195 C   0  0  0  0  0  0  0  0  0  0  0  0
    3.7649   -4.5087   -1.4855 C   0  0  0  0  0  0  0  0  0  0  0  0
    3.0091   -5.6119   -1.0959 C   0  0  0  0  0  0  0  0  0  0  0  0
    1.7470   -5.4230   -0.5395 C   0  0  0  0  0  0  0  0  0  0  0  0
    1.2437   -4.1303   -0.3736 C   0  0  0  0  0  0  0  0  0  0  0  0
    0.9817    0.5900   -0.4953 C   0  0  0  0  0  0  0  0  0  0  0  0
    1.3595    1.8726   -0.6244 C   0  0  0  0  0  0  0  0  0  0  0  0
    0.4670    3.0167   -0.2299 C   0  0  0  0  0  0  0  0  0  0  0  0
    1.1987    4.0894    0.5605 C   0  0  0  0  0  0  0  0  0  0  0  0
    1.1821    5.4216    0.1172 C   0  0  0  0  0  0  0  0  0  0  0  0
    1.8444    6.4205    0.8357 C   0  0  0  0  0  0  0  0  0  0  0  0
    2.5281    6.0948    2.0044 C   0  0  0  0  0  0  0  0  0  0  0  0
    3.4237    7.4465    2.9757 Br  0  0  0  0  0  0  0  0  0  0  0  0
    2.5557    4.7803    2.4620 C   0  0  0  0  0  0  0  0  0  0  0  0
    1.8931    3.7824    1.7434 C   0  0  0  0  0  0  0  0  0  0  0  0
   -0.7663    2.5141    0.5289 C   0  0  0  0  0  0  0  0  0  0  0  0
   -1.2681    1.2300   -0.1231 C   0  0  0  0  0  0  0  0  0  0  0  0
   -2.4391    0.8209    0.5873 O   0  0  0  0  0  0  0  0  0  0  0  0
   -3.3267   -0.0149   -0.1561 C   0  0  0  0  0  0  0  0  0  0  0  0
   -2.7465   -1.3947   -0.4661 C   0  0  0  0  0  0  0  0  0  0  0  0
   -3.7637   -2.3579   -1.0863 C   0  0  0  0  0  0  0  0  0  0  0  0
   -4.8545   -2.8204   -0.1273 C   0  0  0  0  0  0  0  0  0  0  0  0
   -4.2651   -3.4683    0.9896 O   0  0  0  0  0  0  0  0  0  0  0  0
   -0.2694    0.2082   -0.0441 O   0  0  0  0  0  0  0  0  0  0  0  0
    0.4928   -1.7312   -0.1461 H   0  0  0  0  0  0  0  0  0  0  0  0
    3.8827   -2.3819   -1.6339 H   0  0  0  0  0  0  0  0  0  0  0  0
    4.7513   -4.6499   -1.9197 H   0  0  0  0  0  0  0  0  0  0  0  0
    3.4044   -6.6158   -1.2257 H   0  0  0  0  0  0  0  0  0  0  0  0
    1.1533   -6.2803   -0.2332 H   0  0  0  0  0  0  0  0  0  0  0  0
    0.2557   -4.0085    0.0639 H   0  0  0  0  0  0  0  0  0  0  0  0
    2.3506    2.1140   -1.0053 H   0  0  0  0  0  0  0  0  0  0  0  0
    0.1213    3.4631   -1.1733 H   0  0  0  0  0  0  0  0  0  0  0  0
    0.6541    5.6949   -0.7940 H   0  0  0  0  0  0  0  0  0  0  0  0
    1.8213    7.4454    0.4751 H   0  0  0  0  0  0  0  0  0  0  0  0
    3.0887    4.5202    3.3726 H   0  0  0  0  0  0  0  0  0  0  0  0
    1.9261    2.7593    2.1142 H   0  0  0  0  0  0  0  0  0  0  0  0
   -1.5538    3.2781    0.5405 H   0  0  0  0  0  0  0  0  0  0  0  0
   -0.5299    2.3093    1.5821 H   0  0  0  0  0  0  0  0  0  0  0  0
   -1.5230    1.4152   -1.1759 H   0  0  0  0  0  0  0  0  0  0  0  0
   -3.6309    0.4986   -1.0758 H   0  0  0  0  0  0  0  0  0  0  0  0
   -4.2234   -0.1166    0.4617 H   0  0  0  0  0  0  0  0  0  0  0  0
   -1.9230   -1.2832   -1.1810 H   0  0  0  0  0  0  0  0  0  0  0  0
   -2.3015   -1.8253    0.4385 H   0  0  0  0  0  0  0  0  0  0  0  0
   -4.2216   -1.8995   -1.9702 H   0  0  0  0  0  0  0  0  0  0  0  0
   -3.2109   -3.2412   -1.4294 H   0  0  0  0  0  0  0  0  0  0  0  0
   -5.4620   -1.9834    0.2283 H   0  0  0  0  0  0  0  0  0  0  0  0
   -5.5141   -3.5340   -0.6316 H   0  0  0  0  0  0  0  0  0  0  0  0
   -4.9899   -3.7532    1.5727 H   0  0  0  0  0  0  0  0  0  0  0  0
  1  2  2  0
  2  3  1  0
  3  4  1  0
  4  5  2  0
  5  6  1  0
  6  7  2  0
  7  8  1  0
  8  9  2  0
  2 10  1  0
 10 11  2  0
 11 12  1  0
 12 13  1  0
 13 14  2  0
 14 15  1  0
 15 16  2  0
 16 17  1  0
 16 18  1  0
 18 19  2  0
 12 20  1  0
 20 21  1  0
 21 22  1  0
 22 23  1  0
 23 24  1  0
 24 25  1  0
 25 26  1  0
 26 27  1  0
 21 28  1  0
  9  4  1  0
 28 10  1  0
 19 13  1  0
  3 29  1  0
  5 30  1  0
  6 31  1  0
  7 32  1  0
  8 33  1  0
  9 34  1  0
 11 35  1  0
 12 36  1  0
 14 37  1  0
 15 38  1  0
 18 39  1  0
 19 40  1  0
 20 41  1  0
 20 42  1  0
 21 43  1  0
 23 44  1  0
 23 45  1  0
 24 46  1  0
 24 47  1  0
 25 48  1  0
 25 49  1  0
 26 50  1  0
 26 51  1  0
 27 52  1  0
M  END
$$$$
