
     RDKit          3D

 49 52  0  0  0  0  0  0  0  0999 V2000
   -2.2490   -4.3259    1.7239 N   0  0  0  0  0  0  0  0  0  0  0  0
   -1.6150   -3.5857    1.0892 C   0  0  0  0  0  0  0  0  0  0  0  0
   -0.8163   -2.6709    0.2601 C   0  0  0  0  0  0  0  0  0  0  0  0
    0.6325   -2.6835    0.7286 C   0  0  0  0  0  0  0  0  0  0  0  0
    1.5182   -3.2454    0.0840 O   0  0  0  0  0  0  0  0  0  0  0  0
    0.8878   -2.0214    1.9173 N   0  0  0  0  0  0  0  0  0  0  0  0
    2.2309   -1.6369    2.2812 C   0  0  0  0  0  0  0  0  0  0  0  0
    2.5776   -0.3155    1.6402 C   0  0  0  0  0  0  0  0  0  0  0  0
    2.0375    0.8810    2.1387 C   0  0  0  0  0  0  0  0  0  0  0  0
    2.3196    2.0982    1.5162 C   0  0  0  0  0  0  0  0  0  0  0  0
    3.1429    2.1326    0.3905 C   0  0  0  0  0  0  0  0  0  0  0  0
    3.6806    0.9501   -0.1168 C   0  0  0  0  0  0  0  0  0  0  0  0
    3.3948   -0.2696    0.5005 C   0  0  0  0  0  0  0  0  0  0  0  0
   -1.3522   -1.2535    0.2568 C   0  0  0  0  0  0  0  0  0  0  0  0
   -1.7377   -0.7272    1.4602 N   0  0  0  0  0  0  0  0  0  0  0  0
   -2.1777    0.5434    1.4604 C   0  0  0  0  0  0  0  0  0  0  0  0
   -2.6031    1.1238    2.6488 C   0  0  0  0  0  0  0  0  0  0  0  0
   -3.0611    2.4411    2.6886 C   0  0  0  0  0  0  0  0  0  0  0  0
   -3.0947    3.1896    1.5194 C   0  0  0  0  0  0  0  0  0  0  0  0
   -2.6692    2.6138    0.3218 C   0  0  0  0  0  0  0  0  0  0  0  0
   -2.2113    1.3031    0.2717 C   0  0  0  0  0  0  0  0  0  0  0  0
   -1.8019    0.7874   -0.9016 N   0  0  0  0  0  0  0  0  0  0  0  0
   -1.3581   -0.4903   -0.9195 C   0  0  0  0  0  0  0  0  0  0  0  0
   -0.8437   -1.0206   -2.1190 N   0  0  0  0  0  0  0  0  0  0  0  0
    0.5833   -0.6339   -2.2640 C   0  0  0  0  0  0  0  0  0  0  0  0
    0.7459   -0.2888   -3.7409 C   0  0  0  0  0  0  0  0  0  0  0  0
   -0.5896    0.3479   -4.0673 C   0  0  0  0  0  0  0  0  0  0  0  0
   -1.5671   -0.5546   -3.3237 C   0  0  0  0  0  0  0  0  0  0  0  0
   -0.8317   -3.0795   -0.7577 H   0  0  0  0  0  0  0  0  0  0  0  0
    0.1344   -1.4559    2.3037 H   0  0  0  0  0  0  0  0  0  0  0  0
    2.9409   -2.4176    1.9862 H   0  0  0  0  0  0  0  0  0  0  0  0
    2.2713   -1.5456    3.3717 H   0  0  0  0  0  0  0  0  0  0  0  0
    1.3882    0.8703    3.0124 H   0  0  0  0  0  0  0  0  0  0  0  0
    1.8951    3.0202    1.9077 H   0  0  0  0  0  0  0  0  0  0  0  0
    3.3644    3.0824   -0.0918 H   0  0  0  0  0  0  0  0  0  0  0  0
    4.3192    0.9760   -0.9971 H   0  0  0  0  0  0  0  0  0  0  0  0
    3.8048   -1.1890    0.0833 H   0  0  0  0  0  0  0  0  0  0  0  0
   -2.5839    0.5345    3.5623 H   0  0  0  0  0  0  0  0  0  0  0  0
   -3.3936    2.8750    3.6282 H   0  0  0  0  0  0  0  0  0  0  0  0
   -3.4524    4.2161    1.5334 H   0  0  0  0  0  0  0  0  0  0  0  0
   -2.6945    3.1984   -0.5949 H   0  0  0  0  0  0  0  0  0  0  0  0
    0.8455    0.2444   -1.6568 H   0  0  0  0  0  0  0  0  0  0  0  0
    1.2409   -1.4611   -1.9816 H   0  0  0  0  0  0  0  0  0  0  0  0
    0.8876   -1.2018   -4.3327 H   0  0  0  0  0  0  0  0  0  0  0  0
    1.5925    0.3787   -3.9254 H   0  0  0  0  0  0  0  0  0  0  0  0
   -0.6307    1.3662   -3.6635 H   0  0  0  0  0  0  0  0  0  0  0  0
   -0.7904    0.3931   -5.1411 H   0  0  0  0  0  0  0  0  0  0  0  0
   -1.7881   -1.4373   -3.9365 H   0  0  0  0  0  0  0  0  0  0  0  0
   -2.5235   -0.0554   -3.1297 H   0  0  0  0  0  0  0  0  0  0  0  0
  1  2  3  0
  2  3  1  0
  3  4  1  0
  4  5  2  0
  4  6  1  0
  6  7  1  0
  7  8  1  0
  8  9  2  0
  9 10  1  0
 10 11  2  0
 11 12  1  0
 12 13  2  0
  3 14  1  0
 14 15  2  0
 15 16  1  0
 16 17  2  0
 17 18  1  0
 18 19  2  0
 19 20  1  0
 20 21  2  0
 21 22  1  0
 22 23  2  0
 23 24  1  0
 24 25  1  0
 25 26  1  0
 26 27  1  0
 27 28  1  0
 13  8  1  0
 23 14  1  0
 28 24  1  0
 21 16  1  0
  3 29  1  0
  6 30  1  0
  7 31  1  0
  7 32  1  0
  9 33  1  0
 10 34  1  0
 11 35  1  0
 12 36  1  0
 13 37  1  0
 17 38  1  0
 18 39  1  0
 19 40  1  0
 20 41  1  0
 25 42  1  0
 25 43  1  0
 26 44  1  0
 26 45  1  0
 27 46  1  0
 27 47  1  0
 28 48  1  0
 28 49  1  0
M  END
$$$$
