
     RDKit          3D

 61 63  0  0  0  0  0  0  0  0999 V2000
   -0.3006   -0.2247    4.0439 C   0  0  0  0  0  0  0  0  0  0  0  0
   -1.5472    0.4625    3.5084 C   0  0  0  0  0  0  0  0  0  0  0  0
   -1.4402    0.8325    2.0299 C   0  0  0  0  0  0  0  0  0  0  0  0
   -0.4468    1.9592    1.7523 C   0  0  0  0  0  0  0  0  0  0  0  0
   -0.4236    2.3017    0.3416 N   0  0  0  0  0  0  0  0  0  0  0  0
    0.3145    1.5645   -0.5633 C   0  0  0  0  0  0  0  0  0  0  0  0
    1.0204    0.6147   -0.2284 O   0  0  0  0  0  0  0  0  0  0  0  0
    0.1689    1.9975   -2.0271 C   0  0  0  0  0  0  0  0  0  0  0  0
    0.8314    3.3604   -2.2920 C   0  0  0  0  0  0  0  0  0  0  0  0
    2.3292    3.4017   -2.0856 C   0  0  0  0  0  0  0  0  0  0  0  0
    2.8726    3.7275   -0.8354 C   0  0  0  0  0  0  0  0  0  0  0  0
    4.2558    3.7496   -0.6502 C   0  0  0  0  0  0  0  0  0  0  0  0
    5.1084    3.4469   -1.7099 C   0  0  0  0  0  0  0  0  0  0  0  0
    4.5794    3.1208   -2.9565 C   0  0  0  0  0  0  0  0  0  0  0  0
    3.1971    3.0988   -3.1444 C   0  0  0  0  0  0  0  0  0  0  0  0
    0.7408    0.9635   -2.9197 N   0  0  0  0  0  0  0  0  0  0  0  0
   -0.2724   -0.1627   -3.6274 S   0  0  0  0  0  6  0  0  0  0  0  0
   -1.3538    0.5677   -4.2534 O   0  0  0  0  0  0  0  0  0  0  0  0
    0.5552   -1.0810   -4.3738 O   0  0  0  0  0  0  0  0  0  0  0  0
   -0.9513   -1.0517   -2.2502 C   0  0  0  0  0  0  0  0  0  0  0  0
   -2.2782   -0.8512   -1.8719 C   0  0  0  0  0  0  0  0  0  0  0  0
   -2.7962   -1.5459   -0.7739 C   0  0  0  0  0  0  0  0  0  0  0  0
   -1.9983   -2.4434   -0.0427 C   0  0  0  0  0  0  0  0  0  0  0  0
   -0.6827   -2.6499   -0.4596 C   0  0  0  0  0  0  0  0  0  0  0  0
   -0.1553   -1.9699   -1.5675 C   0  0  0  0  0  0  0  0  0  0  0  0
    0.1699   -3.5897    0.2846 C   0  0  0  0  0  0  0  0  0  0  0  0
    1.3004   -3.8305   -0.1324 O   0  0  0  0  0  0  0  0  0  0  0  0
   -0.3779   -4.1578    1.4242 N   0  0  0  0  0  0  0  0  0  0  0  0
    0.4468   -5.0630    2.2035 C   0  0  0  0  0  0  0  0  0  0  0  0
   -1.6848   -3.9766    1.8587 C   0  0  0  0  0  0  0  0  0  0  0  0
   -2.1104   -4.5481    2.8658 O   0  0  0  0  0  0  0  0  0  0  0  0
   -2.4861   -3.1249    1.1038 N   0  0  0  0  0  0  0  0  0  0  0  0
   -3.8615   -2.9153    1.5371 C   0  0  0  0  0  0  0  0  0  0  0  0
    0.5651    0.4437    4.0294 H   0  0  0  0  0  0  0  0  0  0  0  0
   -0.0605   -1.1157    3.4550 H   0  0  0  0  0  0  0  0  0  0  0  0
   -0.4608   -0.5382    5.0807 H   0  0  0  0  0  0  0  0  0  0  0  0
   -1.7625    1.3556    4.1062 H   0  0  0  0  0  0  0  0  0  0  0  0
   -2.3975   -0.2179    3.6351 H   0  0  0  0  0  0  0  0  0  0  0  0
   -2.4321    1.1361    1.6715 H   0  0  0  0  0  0  0  0  0  0  0  0
   -1.1632   -0.0557    1.4531 H   0  0  0  0  0  0  0  0  0  0  0  0
    0.5655    1.6764    2.0580 H   0  0  0  0  0  0  0  0  0  0  0  0
   -0.7299    2.8653    2.2979 H   0  0  0  0  0  0  0  0  0  0  0  0
   -1.0850    2.9923    0.0098 H   0  0  0  0  0  0  0  0  0  0  0  0
   -0.9027    2.1101   -2.2325 H   0  0  0  0  0  0  0  0  0  0  0  0
    0.3715    4.1300   -1.6577 H   0  0  0  0  0  0  0  0  0  0  0  0
    0.6153    3.6688   -3.3242 H   0  0  0  0  0  0  0  0  0  0  0  0
    2.2271    3.9635    0.0073 H   0  0  0  0  0  0  0  0  0  0  0  0
    4.6693    3.9998    0.3235 H   0  0  0  0  0  0  0  0  0  0  0  0
    6.1854    3.4624   -1.5639 H   0  0  0  0  0  0  0  0  0  0  0  0
    5.2429    2.8809   -3.7832 H   0  0  0  0  0  0  0  0  0  0  0  0
    2.8005    2.8375   -4.1240 H   0  0  0  0  0  0  0  0  0  0  0  0
    1.6246    0.5655   -2.5848 H   0  0  0  0  0  0  0  0  0  0  0  0
   -2.9165   -0.1606   -2.4197 H   0  0  0  0  0  0  0  0  0  0  0  0
   -3.8319   -1.3559   -0.5069 H   0  0  0  0  0  0  0  0  0  0  0  0
    0.8766   -2.1390   -1.8721 H   0  0  0  0  0  0  0  0  0  0  0  0
    0.4493   -4.7374    3.2492 H   0  0  0  0  0  0  0  0  0  0  0  0
    1.4787   -5.1058    1.8458 H   0  0  0  0  0  0  0  0  0  0  0  0
    0.0105   -6.0663    2.1548 H   0  0  0  0  0  0  0  0  0  0  0  0
   -4.0021   -1.8610    1.7972 H   0  0  0  0  0  0  0  0  0  0  0  0
   -4.5453   -3.2054    0.7325 H   0  0  0  0  0  0  0  0  0  0  0  0
   -4.1157   -3.5120    2.4178 H   0  0  0  0  0  0  0  0  0  0  0  0
  1  2  1  0
  2  3  1  0
  3  4  1  0
  4  5  1  0
  5  6  1  0
  6  7  2  0
  6  8  1  0
  8  9  1  0
  9 10  1  0
 10 11  2  0
 11 12  1  0
 12 13  2  0
 13 14  1  0
 14 15  2  0
  8 16  1  0
 16 17  1  0
 17 18  2  0
 17 19  2  0
 17 20  1  0
 20 21  2  0
 21 22  1  0
 22 23  2  0
 23 24  1  0
 24 25  2  0
 24 26  1  0
 26 27  2  0
 26 28  1  0
 28 29  1  0
 28 30  1  0
 30 31  2  0
 30 32  1  0
 32 33  1  0
 15 10  1  0
 25 20  1  0
 32 23  1  0
  1 34  1  0
  1 35  1  0
  1 36  1  0
  2 37  1  0
  2 38  1  0
  3 39  1  0
  3 40  1  0
  4 41  1  0
  4 42  1  0
  5 43  1  0
  8 44  1  0
  9 45  1  0
  9 46  1  0
 11 47  1  0
 12 48  1  0
 13 49  1  0
 14 50  1  0
 15 51  1  0
 16 52  1  0
 21 53  1  0
 22 54  1  0
 25 55  1  0
 29 56  1  0
 29 57  1  0
 29 58  1  0
 33 59  1  0
 33 60  1  0
 33 61  1  0
M  END
$$$$
