
     RDKit          3D

 35 36  0  0  0  0  0  0  0  0999 V2000
    2.0632   -2.5695    1.0454 O   0  0  0  0  0  0  0  0  0  0  0  0
    1.9091   -1.5554    0.3718 C   0  0  0  0  0  0  0  0  0  0  0  0
    0.6822   -1.1689   -0.1200 N   0  0  0  0  0  0  0  0  0  0  0  0
   -0.5383   -1.8703    0.2147 C   0  0  0  0  0  0  0  0  0  0  0  0
   -1.1196   -1.4404    1.5612 C   0  0  0  0  0  0  0  0  0  0  0  0
   -1.3113    0.0694    1.7226 C   0  0  0  0  0  0  0  0  0  0  0  0
   -2.1934    0.6704    0.7359 N   0  0  0  0  0  0  0  0  0  0  0  0
   -3.6219    0.4833    0.7603 C   0  0  0  0  0  0  0  0  0  0  0  0
   -4.1124    1.4668   -0.2838 C   0  0  0  0  0  0  0  0  0  0  0  0
   -2.9824    1.5046   -1.3065 C   0  0  0  0  0  0  0  0  0  0  0  0
   -1.7608    1.1791   -0.4821 C   0  0  0  0  0  0  0  0  0  0  0  0
   -0.6026    1.2830   -0.8573 O   0  0  0  0  0  0  0  0  0  0  0  0
    3.0767   -0.6928    0.0576 C   0  0  0  0  0  0  0  0  0  0  0  0
    2.9867    0.6218   -0.4069 C   0  0  0  0  0  0  0  0  0  0  0  0
    4.1543    1.3408   -0.6657 C   0  0  0  0  0  0  0  0  0  0  0  0
    5.3753    0.7237   -0.4466 C   0  0  0  0  0  0  0  0  0  0  0  0
    5.5029   -0.5395    0.0099 N   0  0  0  0  0  0  0  0  0  0  0  0
    4.3508   -1.2165    0.2551 C   0  0  0  0  0  0  0  0  0  0  0  0
    0.5661   -0.2848   -0.6102 H   0  0  0  0  0  0  0  0  0  0  0  0
   -1.2527   -1.6835   -0.5935 H   0  0  0  0  0  0  0  0  0  0  0  0
   -0.3375   -2.9474    0.2313 H   0  0  0  0  0  0  0  0  0  0  0  0
   -0.4559   -1.7841    2.3643 H   0  0  0  0  0  0  0  0  0  0  0  0
   -2.0785   -1.9521    1.7062 H   0  0  0  0  0  0  0  0  0  0  0  0
   -1.7304    0.2844    2.7121 H   0  0  0  0  0  0  0  0  0  0  0  0
   -0.3411    0.5763    1.6693 H   0  0  0  0  0  0  0  0  0  0  0  0
   -3.8470   -0.5502    0.4773 H   0  0  0  0  0  0  0  0  0  0  0  0
   -4.0236    0.6970    1.7545 H   0  0  0  0  0  0  0  0  0  0  0  0
   -5.0736    1.1812   -0.7199 H   0  0  0  0  0  0  0  0  0  0  0  0
   -4.2286    2.4605    0.1670 H   0  0  0  0  0  0  0  0  0  0  0  0
   -2.8907    2.4882   -1.7728 H   0  0  0  0  0  0  0  0  0  0  0  0
   -3.1086    0.7308   -2.0699 H   0  0  0  0  0  0  0  0  0  0  0  0
    2.0327    1.1155   -0.5593 H   0  0  0  0  0  0  0  0  0  0  0  0
    4.1096    2.3629   -1.0262 H   0  0  0  0  0  0  0  0  0  0  0  0
    6.3094    1.2456   -0.6345 H   0  0  0  0  0  0  0  0  0  0  0  0
    4.4919   -2.2299    0.6246 H   0  0  0  0  0  0  0  0  0  0  0  0
  1  2  2  0
  2  3  1  0
  3  4  1  0
  4  5  1  0
  5  6  1  0
  6  7  1  0
  7  8  1  0
  8  9  1  0
  9 10  1  0
 10 11  1  0
 11 12  2  0
  2 13  1  0
 13 14  2  0
 14 15  1  0
 15 16  2  0
 16 17  1  0
 17 18  2  0
 11  7  1  0
 18 13  1  0
  3 19  1  0
  4 20  1  0
  4 21  1  0
  5 22  1  0
  5 23  1  0
  6 24  1  0
  6 25  1  0
  8 26  1  0
  8 27  1  0
  9 28  1  0
  9 29  1  0
 10 30  1  0
 10 31  1  0
 14 32  1  0
 15 33  1  0
 16 34  1  0
 18 35  1  0
M  END
$$$$
