
     RDKit          3D

 35 36  0  0  0  0  0  0  0  0999 V2000
    4.0258    0.2979   -2.5672 C   0  0  0  0  0  0  0  0  0  0  0  0
    4.0319   -0.5590   -1.3131 C   0  0  0  0  0  0  0  0  0  0  0  0
    3.7493    0.2151   -0.1142 N   0  0  0  0  0  0  0  0  0  0  0  0
    4.8058    0.7050    0.5758 N   0  0  0  0  0  0  0  0  0  0  0  0
    4.2511    1.3438    1.6025 C   0  0  0  0  0  0  0  0  0  0  0  0
    2.8556    1.2531    1.5741 C   0  0  0  0  0  0  0  0  0  0  0  0
    1.7738    2.0672    2.8720 Br  0  0  0  0  0  0  0  0  0  0  0  0
    2.5211    0.5103    0.4551 C   0  0  0  0  0  0  0  0  0  0  0  0
    1.2429    0.0954   -0.1032 C   0  0  0  0  0  0  0  0  0  0  0  0
    1.1609   -0.3760   -1.2322 O   0  0  0  0  0  0  0  0  0  0  0  0
    0.1631    0.2664    0.7424 N   0  0  0  0  0  0  0  0  0  0  0  0
   -1.1954   -0.0327    0.5049 C   0  0  0  0  0  0  0  0  0  0  0  0
   -1.6889   -0.5599   -0.6899 C   0  0  0  0  0  0  0  0  0  0  0  0
   -3.0574   -0.8319   -0.8447 C   0  0  0  0  0  0  0  0  0  0  0  0
   -3.5870   -1.3901   -2.1333 C   0  0  0  0  0  0  0  0  0  0  0  0
   -3.9370   -0.5654    0.2114 C   0  0  0  0  0  0  0  0  0  0  0  0
   -3.4626   -0.0389    1.4159 C   0  0  0  0  0  0  0  0  0  0  0  0
   -4.3975    0.2515    2.5526 C   0  0  0  0  0  0  0  0  0  0  0  0
   -2.0923    0.2261    1.5512 C   0  0  0  0  0  0  0  0  0  0  0  0
    3.0576    0.7860   -2.7182 H   0  0  0  0  0  0  0  0  0  0  0  0
    4.2402   -0.3162   -3.4474 H   0  0  0  0  0  0  0  0  0  0  0  0
    4.7860    1.0842   -2.5079 H   0  0  0  0  0  0  0  0  0  0  0  0
    3.3163   -1.3832   -1.3767 H   0  0  0  0  0  0  0  0  0  0  0  0
    5.0204   -1.0164   -1.1817 H   0  0  0  0  0  0  0  0  0  0  0  0
    4.8917    1.8436    2.3180 H   0  0  0  0  0  0  0  0  0  0  0  0
    0.3675    0.6527    1.6544 H   0  0  0  0  0  0  0  0  0  0  0  0
   -1.0289   -0.7694   -1.5255 H   0  0  0  0  0  0  0  0  0  0  0  0
   -4.1370   -2.3179   -1.9452 H   0  0  0  0  0  0  0  0  0  0  0  0
   -4.2549   -0.6658   -2.6104 H   0  0  0  0  0  0  0  0  0  0  0  0
   -2.7789   -1.6199   -2.8355 H   0  0  0  0  0  0  0  0  0  0  0  0
   -4.9989   -0.7718    0.0888 H   0  0  0  0  0  0  0  0  0  0  0  0
   -5.4228   -0.0534    2.3185 H   0  0  0  0  0  0  0  0  0  0  0  0
   -4.0839   -0.2944    3.4486 H   0  0  0  0  0  0  0  0  0  0  0  0
   -4.4049    1.3248    2.7686 H   0  0  0  0  0  0  0  0  0  0  0  0
   -1.7326    0.6393    2.4913 H   0  0  0  0  0  0  0  0  0  0  0  0
  1  2  1  0
  2  3  1  0
  3  4  1  0
  4  5  2  0
  5  6  1  0
  6  7  1  0
  6  8  2  0
  8  9  1  0
  9 10  2  0
  9 11  1  0
 11 12  1  0
 12 13  2  0
 13 14  1  0
 14 15  1  0
 14 16  2  0
 16 17  1  0
 17 18  1  0
 17 19  2  0
  8  3  1  0
 19 12  1  0
  1 20  1  0
  1 21  1  0
  1 22  1  0
  2 23  1  0
  2 24  1  0
  5 25  1  0
 11 26  1  0
 13 27  1  0
 15 28  1  0
 15 29  1  0
 15 30  1  0
 16 31  1  0
 18 32  1  0
 18 33  1  0
 18 34  1  0
 19 35  1  0
M  END
$$$$
