
     RDKit          3D

 46 49  0  0  0  0  0  0  0  0999 V2000
   -3.3013   -2.3149   -1.2689 C   0  0  0  0  0  0  0  0  0  0  0  0
   -2.0747   -1.5683   -1.5298 N   0  0  0  0  0  0  0  0  0  0  0  0
   -2.2902   -0.3985   -2.3764 C   0  0  0  0  0  0  0  0  0  0  0  0
   -1.3671   -1.2461   -0.3328 N   0  0  0  0  0  0  0  0  0  0  0  0
   -1.9691   -0.4215    0.6489 C   0  0  0  0  0  0  0  0  0  0  0  0
   -3.1383    0.1374    0.5168 N   0  0  0  0  0  0  0  0  0  0  0  0
   -1.1607   -0.2755    1.9501 C   0  0  0  0  0  0  0  0  0  0  0  0
   -1.6402    0.7889    2.8394 C   0  0  0  0  0  0  0  0  0  0  0  0
   -2.0581    1.6060    3.5497 N   0  0  0  0  0  0  0  0  0  0  0  0
    0.3549   -0.1545    1.6778 C   0  0  0  0  0  0  0  0  0  0  0  0
    0.8412    1.2344    1.2503 C   0  0  0  0  0  0  0  0  0  0  0  0
    1.9040    1.8366    1.9715 C   0  0  0  0  0  0  0  0  0  0  0  0
    2.3994    3.0987    1.6265 C   0  0  0  0  0  0  0  0  0  0  0  0
    1.8245    3.7400    0.5543 C   0  0  0  0  0  0  0  0  0  0  0  0
    0.8029    3.1672   -0.1624 C   0  0  0  0  0  0  0  0  0  0  0  0
    0.2931    1.9234    0.1533 C   0  0  0  0  0  0  0  0  0  0  0  0
    0.3827    3.9560   -1.1880 O   0  0  0  0  0  0  0  0  0  0  0  0
    1.2436    5.1015   -1.0179 C   0  0  0  0  0  0  0  0  0  0  0  0
    2.1753    4.9623    0.0744 O   0  0  0  0  0  0  0  0  0  0  0  0
    0.8009   -1.2103    0.6895 C   0  0  0  0  0  0  0  0  0  0  0  0
   -0.0390   -1.7094   -0.2432 C   0  0  0  0  0  0  0  0  0  0  0  0
    0.4186   -2.7742   -1.2288 C   0  0  0  0  0  0  0  0  0  0  0  0
    1.6718   -3.5214   -0.7834 C   0  0  0  0  0  0  0  0  0  0  0  0
    2.7464   -2.5561   -0.3262 C   0  0  0  0  0  0  0  0  0  0  0  0
    2.2126   -1.6854    0.7829 C   0  0  0  0  0  0  0  0  0  0  0  0
    2.9220   -1.3441    1.7269 O   0  0  0  0  0  0  0  0  0  0  0  0
   -3.1054   -3.1639   -0.6040 H   0  0  0  0  0  0  0  0  0  0  0  0
   -3.6827   -2.7355   -2.2062 H   0  0  0  0  0  0  0  0  0  0  0  0
   -4.1027   -1.7123   -0.8319 H   0  0  0  0  0  0  0  0  0  0  0  0
   -3.0161    0.3125   -1.9715 H   0  0  0  0  0  0  0  0  0  0  0  0
   -2.6541   -0.7158   -3.3602 H   0  0  0  0  0  0  0  0  0  0  0  0
   -1.3478    0.1329   -2.5509 H   0  0  0  0  0  0  0  0  0  0  0  0
   -3.4342    0.6885    1.3296 H   0  0  0  0  0  0  0  0  0  0  0  0
   -1.3276   -1.2290    2.4759 H   0  0  0  0  0  0  0  0  0  0  0  0
    0.8271   -0.3785    2.6464 H   0  0  0  0  0  0  0  0  0  0  0  0
    2.3637    1.3126    2.8098 H   0  0  0  0  0  0  0  0  0  0  0  0
    3.2115    3.5542    2.1818 H   0  0  0  0  0  0  0  0  0  0  0  0
   -0.5056    1.5201   -0.4576 H   0  0  0  0  0  0  0  0  0  0  0  0
    1.8100    5.2538   -1.9438 H   0  0  0  0  0  0  0  0  0  0  0  0
    0.6204    5.9852   -0.8377 H   0  0  0  0  0  0  0  0  0  0  0  0
   -0.3682   -3.5244   -1.3739 H   0  0  0  0  0  0  0  0  0  0  0  0
    0.6034   -2.2985   -2.2004 H   0  0  0  0  0  0  0  0  0  0  0  0
    2.0465   -4.1420   -1.6050 H   0  0  0  0  0  0  0  0  0  0  0  0
    1.4140   -4.2010    0.0397 H   0  0  0  0  0  0  0  0  0  0  0  0
    3.6073   -3.1191    0.0501 H   0  0  0  0  0  0  0  0  0  0  0  0
    3.0853   -1.9122   -1.1448 H   0  0  0  0  0  0  0  0  0  0  0  0
  1  2  1  0
  2  3  1  0
  2  4  1  0
  4  5  1  0
  5  6  2  3
  5  7  1  0
  7  8  1  0
  8  9  3  0
  7 10  1  0
 10 11  1  0
 11 12  2  0
 12 13  1  0
 13 14  2  0
 14 15  1  0
 15 16  2  0
 15 17  1  0
 17 18  1  0
 18 19  1  0
 10 20  1  0
 20 21  2  0
 21 22  1  0
 22 23  1  0
 23 24  1  0
 24 25  1  0
 25 26  2  0
 21  4  1  0
 16 11  1  0
 25 20  1  0
 19 14  1  0
  1 27  1  0
  1 28  1  0
  1 29  1  0
  3 30  1  0
  3 31  1  0
  3 32  1  0
  6 33  1  0
  7 34  1  0
 10 35  1  0
 12 36  1  0
 13 37  1  0
 16 38  1  0
 18 39  1  0
 18 40  1  0
 22 41  1  0
 22 42  1  0
 23 43  1  0
 23 44  1  0
 24 45  1  0
 24 46  1  0
M  END
$$$$
