
     RDKit          3D

 66 72  0  0  0  0  0  0  0  0999 V2000
    1.7598   -0.2647    1.7076 O   0  0  0  0  0  0  0  0  0  0  0  0
    1.8162   -0.3606    0.4870 C   0  0  0  0  0  0  0  0  0  0  0  0
    2.8113   -1.0072   -0.2602 N   0  0  0  0  0  0  0  0  0  0  0  0
    3.9311   -1.6975    0.3335 C   0  0  0  0  0  0  0  0  0  0  0  0
    5.1598   -0.8272    0.4702 C   0  0  0  0  0  0  0  0  0  0  0  0
    6.2866   -1.0411   -0.3368 C   0  0  0  0  0  0  0  0  0  0  0  0
    7.4178   -0.2328   -0.2059 C   0  0  0  0  0  0  0  0  0  0  0  0
    7.4371    0.7953    0.7343 C   0  0  0  0  0  0  0  0  0  0  0  0
    6.3261    1.0166    1.5451 C   0  0  0  0  0  0  0  0  0  0  0  0
    5.1944    0.2103    1.4147 C   0  0  0  0  0  0  0  0  0  0  0  0
    2.6058   -0.8240   -1.6381 C   0  0  0  0  0  0  0  0  0  0  0  0
    3.3734   -1.2775   -2.6958 C   0  0  0  0  0  0  0  0  0  0  0  0
    2.9708   -0.9445   -3.9930 C   0  0  0  0  0  0  0  0  0  0  0  0
    1.8205   -0.1697   -4.2126 C   0  0  0  0  0  0  0  0  0  0  0  0
    1.0512    0.2799   -3.1382 C   0  0  0  0  0  0  0  0  0  0  0  0
    1.4503   -0.0616   -1.8528 C   0  0  0  0  0  0  0  0  0  0  0  0
    0.8313    0.2685   -0.5297 C   0  0  0  0  0  0  0  0  0  0  0  0
    0.6355    1.7398   -0.2890 N   0  0  0  0  0  0  0  0  0  0  0  0
   -0.7971    1.9998    0.1079 C   0  0  2  0  0  0  0  0  0  0  0  0
   -0.8702    2.5079    1.5621 C   0  0  0  0  0  0  0  0  0  0  0  0
   -2.2430    2.9910    1.9703 C   0  0  0  0  0  0  0  0  0  0  0  0
   -2.7850    4.1568    1.4115 C   0  0  0  0  0  0  0  0  0  0  0  0
   -4.0639    4.5837    1.7707 C   0  0  0  0  0  0  0  0  0  0  0  0
   -4.8101    3.8541    2.6939 C   0  0  0  0  0  0  0  0  0  0  0  0
   -4.2767    2.6998    3.2629 C   0  0  0  0  0  0  0  0  0  0  0  0
   -2.9978    2.2708    2.9060 C   0  0  0  0  0  0  0  0  0  0  0  0
   -1.4531    0.6892   -0.1189 C   0  0  0  0  0  0  0  0  0  0  0  0
   -0.5246   -0.2899   -0.4600 C   0  0  0  0  0  0  0  0  0  0  0  0
   -1.1788   -1.4736   -0.6693 C   0  0  0  0  0  0  0  0  0  0  0  0
   -0.6692   -2.6260   -1.1036 O   0  0  0  0  0  0  0  0  0  0  0  0
   -2.5442   -1.2441   -0.4096 N   0  0  0  0  0  0  0  0  0  0  0  0
   -3.5719   -2.2410   -0.3882 C   0  0  0  0  0  0  0  0  0  0  0  0
   -3.2771   -3.5472    0.0332 C   0  0  0  0  0  0  0  0  0  0  0  0
   -4.2747   -4.5252    0.0516 C   0  0  0  0  0  0  0  0  0  0  0  0
   -5.5719   -4.2077   -0.3436 C   0  0  0  0  0  0  0  0  0  0  0  0
   -5.8759   -2.9102   -0.7496 C   0  0  0  0  0  0  0  0  0  0  0  0
   -4.8826   -1.9271   -0.7674 C   0  0  0  0  0  0  0  0  0  0  0  0
   -2.7070    0.1309   -0.1491 C   0  0  0  0  0  0  0  0  0  0  0  0
   -3.8980    0.6766    0.0842 O   0  0  0  0  0  0  0  0  0  0  0  0
    3.6431   -2.0456    1.3336 H   0  0  0  0  0  0  0  0  0  0  0  0
    4.1481   -2.6002   -0.2495 H   0  0  0  0  0  0  0  0  0  0  0  0
    6.2947   -1.8405   -1.0734 H   0  0  0  0  0  0  0  0  0  0  0  0
    8.2853   -0.4059   -0.8374 H   0  0  0  0  0  0  0  0  0  0  0  0
    8.3180    1.4234    0.8362 H   0  0  0  0  0  0  0  0  0  0  0  0
    6.3392    1.8161    2.2813 H   0  0  0  0  0  0  0  0  0  0  0  0
    4.3366    0.3927    2.0598 H   0  0  0  0  0  0  0  0  0  0  0  0
    4.2647   -1.8730   -2.5459 H   0  0  0  0  0  0  0  0  0  0  0  0
    3.5566   -1.2856   -4.8435 H   0  0  0  0  0  0  0  0  0  0  0  0
    1.5261    0.0822   -5.2288 H   0  0  0  0  0  0  0  0  0  0  0  0
    0.1611    0.8795   -3.3019 H   0  0  0  0  0  0  0  0  0  0  0  0
    1.2448    1.9892    0.4898 H   0  0  0  0  0  0  0  0  0  0  0  0
   -1.1996    2.7447   -0.5879 H   0  0  0  0  0  0  0  0  0  0  0  0
   -0.5302    1.7272    2.2560 H   0  0  0  0  0  0  0  0  0  0  0  0
   -0.1771    3.3498    1.6962 H   0  0  0  0  0  0  0  0  0  0  0  0
   -2.2140    4.7432    0.6945 H   0  0  0  0  0  0  0  0  0  0  0  0
   -4.4772    5.4893    1.3342 H   0  0  0  0  0  0  0  0  0  0  0  0
   -5.8058    4.1878    2.9749 H   0  0  0  0  0  0  0  0  0  0  0  0
   -4.8569    2.1308    3.9852 H   0  0  0  0  0  0  0  0  0  0  0  0
   -2.6007    1.3614    3.3535 H   0  0  0  0  0  0  0  0  0  0  0  0
   -1.3792   -3.1311   -1.5397 H   0  0  0  0  0  0  0  0  0  0  0  0
   -2.2903   -3.8148    0.4056 H   0  0  0  0  0  0  0  0  0  0  0  0
   -4.0420   -5.5314    0.3919 H   0  0  0  0  0  0  0  0  0  0  0  0
   -6.3489   -4.9674   -0.3251 H   0  0  0  0  0  0  0  0  0  0  0  0
   -6.8890   -2.6589   -1.0540 H   0  0  0  0  0  0  0  0  0  0  0  0
   -5.1515   -0.9321   -1.1116 H   0  0  0  0  0  0  0  0  0  0  0  0
   -3.7618    1.5986    0.3706 H   0  0  0  0  0  0  0  0  0  0  0  0
  1  2  2  0
  2  3  1  0
  3  4  1  0
  4  5  1  0
  5  6  2  0
  6  7  1  0
  7  8  2  0
  8  9  1  0
  9 10  2  0
  3 11  1  0
 11 12  2  0
 12 13  1  0
 13 14  2  0
 14 15  1  0
 15 16  2  0
 16 17  1  0
 17 18  1  0
 18 19  1  0
 19 20  1  0
 20 21  1  0
 21 22  2  0
 22 23  1  0
 23 24  2  0
 24 25  1  0
 25 26  2  0
 19 27  1  0
 27 28  1  0
 28 29  2  0
 29 30  1  0
 29 31  1  0
 31 32  1  0
 32 33  2  0
 33 34  1  0
 34 35  2  0
 35 36  1  0
 36 37  2  0
 31 38  1  0
 38 39  1  0
 17  2  1  0
 26 21  1  0
 38 27  2  0
 10  5  1  0
 16 11  1  0
 28 17  1  0
 37 32  1  0
  4 40  1  0
  4 41  1  0
  6 42  1  0
  7 43  1  0
  8 44  1  0
  9 45  1  0
 10 46  1  0
 12 47  1  0
 13 48  1  0
 14 49  1  0
 15 50  1  0
 18 51  1  0
 19 52  1  6
 20 53  1  0
 20 54  1  0
 22 55  1  0
 23 56  1  0
 24 57  1  0
 25 58  1  0
 26 59  1  0
 30 60  1  0
 33 61  1  0
 34 62  1  0
 35 63  1  0
 36 64  1  0
 37 65  1  0
 39 66  1  0
M  END
$$$$
