
     RDKit          3D

 43 45  0  0  0  0  0  0  0  0999 V2000
   -3.7804   -2.5154   -0.6809 C   0  0  0  0  0  0  0  0  0  0  0  0
   -2.6029   -3.0474   -1.4909 C   0  0  0  0  0  0  0  0  0  0  0  0
   -2.2638   -2.1447   -2.6736 C   0  0  0  0  0  0  0  0  0  0  0  0
   -1.1426   -3.4298   -0.4390 S   0  0  0  0  0  0  0  0  0  0  0  0
   -0.4551   -1.8144   -0.1307 C   0  0  0  0  0  0  0  0  0  0  0  0
    0.8654   -1.5810   -0.4441 C   0  0  0  0  0  0  0  0  0  0  0  0
    1.3694   -0.3256   -0.1687 C   0  0  0  0  0  0  0  0  0  0  0  0
    2.7072   -0.0228   -0.4957 N   0  0  0  0  0  0  0  0  0  0  0  0
    3.6896   -0.8821    0.2059 C   0  0  0  0  0  0  0  0  0  0  0  0
    5.1132   -0.5357   -0.2625 C   0  0  0  0  0  0  0  0  0  0  0  0
    5.4124    0.8550   -0.0676 O   0  0  0  0  0  0  0  0  0  0  0  0
    4.4798    1.6678   -0.7991 C   0  0  0  0  0  0  0  0  0  0  0  0
    3.0361    1.4134   -0.3394 C   0  0  0  0  0  0  0  0  0  0  0  0
    0.5824    0.6226    0.3653 N   0  0  0  0  0  0  0  0  0  0  0  0
   -0.6908    0.3034    0.6641 C   0  0  0  0  0  0  0  0  0  0  0  0
   -1.5342    1.3493    1.2809 C   0  0  0  0  0  0  0  0  0  0  0  0
   -1.0708    2.6716    1.4359 C   0  0  0  0  0  0  0  0  0  0  0  0
   -1.8670    3.6650    2.0185 C   0  0  0  0  0  0  0  0  0  0  0  0
   -3.1480    3.3524    2.4605 C   0  0  0  0  0  0  0  0  0  0  0  0
   -4.1291    4.5701    3.1764 Cl  0  0  0  0  0  0  0  0  0  0  0  0
   -3.6373    2.0577    2.3259 C   0  0  0  0  0  0  0  0  0  0  0  0
   -2.8363    1.0687    1.7423 C   0  0  0  0  0  0  0  0  0  0  0  0
   -1.2448   -0.8967    0.4397 N   0  0  0  0  0  0  0  0  0  0  0  0
   -4.0032   -3.1605    0.1758 H   0  0  0  0  0  0  0  0  0  0  0  0
   -3.6126   -1.4989   -0.3168 H   0  0  0  0  0  0  0  0  0  0  0  0
   -4.6803   -2.4833   -1.3058 H   0  0  0  0  0  0  0  0  0  0  0  0
   -2.9076   -4.0185   -1.8994 H   0  0  0  0  0  0  0  0  0  0  0  0
   -3.1227   -2.0733   -3.3506 H   0  0  0  0  0  0  0  0  0  0  0  0
   -1.4248   -2.5442   -3.2535 H   0  0  0  0  0  0  0  0  0  0  0  0
   -2.0167   -1.1250   -2.3615 H   0  0  0  0  0  0  0  0  0  0  0  0
    1.4720   -2.3427   -0.9147 H   0  0  0  0  0  0  0  0  0  0  0  0
    3.6133   -0.7138    1.2882 H   0  0  0  0  0  0  0  0  0  0  0  0
    3.5145   -1.9449    0.0075 H   0  0  0  0  0  0  0  0  0  0  0  0
    5.8434   -1.1151    0.3113 H   0  0  0  0  0  0  0  0  0  0  0  0
    5.2487   -0.7832   -1.3223 H   0  0  0  0  0  0  0  0  0  0  0  0
    4.5949    1.4655   -1.8707 H   0  0  0  0  0  0  0  0  0  0  0  0
    4.7462    2.7151   -0.6255 H   0  0  0  0  0  0  0  0  0  0  0  0
    2.3629    2.0337   -0.9435 H   0  0  0  0  0  0  0  0  0  0  0  0
    2.9443    1.7071    0.7147 H   0  0  0  0  0  0  0  0  0  0  0  0
   -0.0708    2.9401    1.0972 H   0  0  0  0  0  0  0  0  0  0  0  0
   -1.4780    4.6744    2.1218 H   0  0  0  0  0  0  0  0  0  0  0  0
   -4.6363    1.8056    2.6713 H   0  0  0  0  0  0  0  0  0  0  0  0
   -3.2397    0.0608    1.6531 H   0  0  0  0  0  0  0  0  0  0  0  0
  1  2  1  0
  2  3  1  0
  2  4  1  0
  4  5  1  0
  5  6  2  0
  6  7  1  0
  7  8  1  0
  8  9  1  0
  9 10  1  0
 10 11  1  0
 11 12  1  0
 12 13  1  0
  7 14  2  0
 14 15  1  0
 15 16  1  0
 16 17  2  0
 17 18  1  0
 18 19  2  0
 19 20  1  0
 19 21  1  0
 21 22  2  0
 15 23  2  0
 23  5  1  0
 13  8  1  0
 22 16  1  0
  1 24  1  0
  1 25  1  0
  1 26  1  0
  2 27  1  0
  3 28  1  0
  3 29  1  0
  3 30  1  0
  6 31  1  0
  9 32  1  0
  9 33  1  0
 10 34  1  0
 10 35  1  0
 12 36  1  0
 12 37  1  0
 13 38  1  0
 13 39  1  0
 17 40  1  0
 18 41  1  0
 21 42  1  0
 22 43  1  0
M  END
$$$$
