
     RDKit          3D

 47 50  0  0  0  0  0  0  0  0999 V2000
    1.0801    6.0800   -4.8210 C   0  0  0  0  0  0  0  0  0  0  0  0
    0.4614    5.0903   -3.8765 C   0  0  0  0  0  0  0  0  0  0  0  0
   -0.9290    5.0264   -3.7364 C   0  0  0  0  0  0  0  0  0  0  0  0
   -1.5346    4.1353   -2.8438 C   0  0  0  0  0  0  0  0  0  0  0  0
   -0.6997    3.3125   -2.0815 C   0  0  0  0  0  0  0  0  0  0  0  0
   -1.0175    2.3556   -1.1393 N   0  0  0  0  0  0  0  0  0  0  0  0
    0.1281    1.8061   -0.6421 C   0  0  0  0  0  0  0  0  0  0  0  0
    0.2659    0.7844    0.3519 C   0  0  0  0  0  0  0  0  0  0  0  0
   -0.6933    0.2704    0.9218 O   0  0  0  0  0  0  0  0  0  0  0  0
    1.6086    0.4516    0.6085 N   0  0  0  0  0  0  0  0  0  0  0  0
    1.8856   -0.5969    1.5730 C   0  0  0  0  0  0  0  0  0  0  0  0
    1.6209   -1.9811    0.9748 C   0  0  0  0  0  0  0  0  0  0  0  0
    1.5681   -2.2175   -0.2294 O   0  0  0  0  0  0  0  0  0  0  0  0
    1.4804   -2.9742    1.9315 N   0  0  0  0  0  0  0  0  0  0  0  0
    1.0904   -4.3219    1.5551 C   0  0  0  0  0  0  0  0  0  0  0  0
   -0.4014   -4.4450    1.2204 C   0  0  0  0  0  0  0  0  0  0  0  0
   -1.2919   -4.1104    2.3961 C   0  0  0  0  0  0  0  0  0  0  0  0
   -1.5169   -5.0505    3.4114 C   0  0  0  0  0  0  0  0  0  0  0  0
   -2.3206   -4.7273    4.5071 C   0  0  0  0  0  0  0  0  0  0  0  0
   -2.8999   -3.4628    4.5932 C   0  0  0  0  0  0  0  0  0  0  0  0
   -3.8855   -3.0651    5.9463 Cl  0  0  0  0  0  0  0  0  0  0  0  0
   -2.6839   -2.5188    3.5925 C   0  0  0  0  0  0  0  0  0  0  0  0
   -1.8822   -2.8420    2.4963 C   0  0  0  0  0  0  0  0  0  0  0  0
    2.7188    1.0587   -0.0069 N   0  0  0  0  0  0  0  0  0  0  0  0
    2.5246    1.9798   -0.9075 C   0  0  0  0  0  0  0  0  0  0  0  0
    1.1979    2.3978   -1.2653 C   0  0  0  0  0  0  0  0  0  0  0  0
    0.6957    3.3563   -2.1819 C   0  0  0  0  0  0  0  0  0  0  0  0
    1.2806    4.2633   -3.0889 C   0  0  0  0  0  0  0  0  0  0  0  0
    2.0343    5.7071   -5.2078 H   0  0  0  0  0  0  0  0  0  0  0  0
    0.4283    6.2578   -5.6828 H   0  0  0  0  0  0  0  0  0  0  0  0
    1.2536    7.0298   -4.3060 H   0  0  0  0  0  0  0  0  0  0  0  0
   -1.5646    5.6790   -4.3326 H   0  0  0  0  0  0  0  0  0  0  0  0
   -2.6151    4.0919   -2.7508 H   0  0  0  0  0  0  0  0  0  0  0  0
   -1.9536    2.0954   -0.8569 H   0  0  0  0  0  0  0  0  0  0  0  0
    1.2443   -0.4496    2.4490 H   0  0  0  0  0  0  0  0  0  0  0  0
    2.9336   -0.5426    1.8860 H   0  0  0  0  0  0  0  0  0  0  0  0
    1.2870   -2.6941    2.8854 H   0  0  0  0  0  0  0  0  0  0  0  0
    1.6844   -4.6254    0.6858 H   0  0  0  0  0  0  0  0  0  0  0  0
    1.3592   -4.9759    2.3917 H   0  0  0  0  0  0  0  0  0  0  0  0
   -0.6568   -3.7992    0.3712 H   0  0  0  0  0  0  0  0  0  0  0  0
   -0.6170   -5.4703    0.8945 H   0  0  0  0  0  0  0  0  0  0  0  0
   -1.0709   -6.0412    3.3538 H   0  0  0  0  0  0  0  0  0  0  0  0
   -2.4913   -5.4645    5.2870 H   0  0  0  0  0  0  0  0  0  0  0  0
   -3.1345   -1.5318    3.6551 H   0  0  0  0  0  0  0  0  0  0  0  0
   -1.7205   -2.0954    1.7193 H   0  0  0  0  0  0  0  0  0  0  0  0
    3.3872    2.4540   -1.4011 H   0  0  0  0  0  0  0  0  0  0  0  0
    2.3618    4.3198   -3.1801 H   0  0  0  0  0  0  0  0  0  0  0  0
  1  2  1  0
  2  3  2  0
  3  4  1  0
  4  5  2  0
  5  6  1  0
  6  7  1  0
  7  8  1  0
  8  9  2  0
  8 10  1  0
 10 11  1  0
 11 12  1  0
 12 13  2  0
 12 14  1  0
 14 15  1  0
 15 16  1  0
 16 17  1  0
 17 18  2  0
 18 19  1  0
 19 20  2  0
 20 21  1  0
 20 22  1  0
 22 23  2  0
 10 24  1  0
 24 25  2  0
 25 26  1  0
 26 27  1  0
 27 28  2  0
 28  2  1  0
 27  5  1  0
 26  7  2  0
 23 17  1  0
  1 29  1  0
  1 30  1  0
  1 31  1  0
  3 32  1  0
  4 33  1  0
  6 34  1  0
 11 35  1  0
 11 36  1  0
 14 37  1  0
 15 38  1  0
 15 39  1  0
 16 40  1  0
 16 41  1  0
 18 42  1  0
 19 43  1  0
 22 44  1  0
 23 45  1  0
 25 46  1  0
 28 47  1  0
M  END
$$$$
