
     RDKit          3D

 43 45  0  0  0  0  0  0  0  0999 V2000
    1.9493   -2.1650    0.1246 O   0  0  0  0  0  0  0  0  0  0  0  0
    1.1991   -1.1984    0.2537 C   0  0  0  0  0  0  0  0  0  0  0  0
    0.1869   -1.1389    1.4072 C   0  0  0  0  0  0  0  0  0  0  0  0
   -0.6616    0.0478    1.4416 N   0  0  0  0  0  0  0  0  0  0  0  0
   -1.8513    0.0668    0.7306 C   0  0  0  0  0  0  0  0  0  0  0  0
   -2.1102   -0.7588   -0.1390 O   0  0  0  0  0  0  0  0  0  0  0  0
   -2.7485    1.2750    1.0495 C   0  0  0  0  0  0  0  0  0  0  0  0
   -4.2222    0.9587    0.8255 C   0  0  0  0  0  0  0  0  0  0  0  0
   -4.7262    0.0354    1.7979 O   0  0  0  0  0  0  0  0  0  0  0  0
   -4.3110    0.3500    3.0628 C   0  0  0  0  0  0  0  0  0  0  0  0
   -4.9910   -0.2613    4.1143 C   0  0  0  0  0  0  0  0  0  0  0  0
   -4.6354    0.0241    5.4333 C   0  0  0  0  0  0  0  0  0  0  0  0
   -3.5980    0.9187    5.6987 C   0  0  0  0  0  0  0  0  0  0  0  0
   -2.9070    1.5190    4.6451 C   0  0  0  0  0  0  0  0  0  0  0  0
   -3.2545    1.2229    3.3276 C   0  0  0  0  0  0  0  0  0  0  0  0
   -2.5049    1.8207    2.3496 O   0  0  0  0  0  0  0  0  0  0  0  0
    1.1990   -0.0543   -0.5372 N   0  0  0  0  0  0  0  0  0  0  0  0
    2.1364    0.2621   -1.4850 N   0  0  0  0  0  0  0  0  0  0  0  0
    2.5915   -0.7019   -2.2232 C   0  0  0  0  0  0  0  0  0  0  0  0
    3.6355   -0.4702   -3.2424 C   0  0  0  0  0  0  0  0  0  0  0  0
    4.1828    0.8024   -3.4380 C   0  0  0  0  0  0  0  0  0  0  0  0
    5.1676    0.9939   -4.4094 C   0  0  0  0  0  0  0  0  0  0  0  0
    5.6047   -0.0825   -5.1833 C   0  0  0  0  0  0  0  0  0  0  0  0
    5.0521   -1.3444   -4.9775 C   0  0  0  0  0  0  0  0  0  0  0  0
    5.4524   -2.4213   -5.7125 O   0  0  0  0  0  0  0  0  0  0  0  0
    4.0710   -1.5498   -4.0134 C   0  0  0  0  0  0  0  0  0  0  0  0
    0.7546   -1.1478    2.3433 H   0  0  0  0  0  0  0  0  0  0  0  0
   -0.4441   -2.0327    1.3614 H   0  0  0  0  0  0  0  0  0  0  0  0
   -0.6718    0.5881    2.3025 H   0  0  0  0  0  0  0  0  0  0  0  0
   -2.4521    2.0508    0.3323 H   0  0  0  0  0  0  0  0  0  0  0  0
   -4.3923    0.5218   -0.1642 H   0  0  0  0  0  0  0  0  0  0  0  0
   -4.8254    1.8736    0.8894 H   0  0  0  0  0  0  0  0  0  0  0  0
   -5.8038   -0.9520    3.9061 H   0  0  0  0  0  0  0  0  0  0  0  0
   -5.1714   -0.4477    6.2532 H   0  0  0  0  0  0  0  0  0  0  0  0
   -3.3264    1.1456    6.7268 H   0  0  0  0  0  0  0  0  0  0  0  0
   -2.0965    2.2116    4.8547 H   0  0  0  0  0  0  0  0  0  0  0  0
    0.7039    0.7457   -0.1550 H   0  0  0  0  0  0  0  0  0  0  0  0
    2.2071   -1.7345   -2.1565 H   0  0  0  0  0  0  0  0  0  0  0  0
    3.8469    1.6444   -2.8376 H   0  0  0  0  0  0  0  0  0  0  0  0
    5.5927    1.9829   -4.5608 H   0  0  0  0  0  0  0  0  0  0  0  0
    6.3708    0.0809   -5.9349 H   0  0  0  0  0  0  0  0  0  0  0  0
    6.1425   -2.1367   -6.3340 H   0  0  0  0  0  0  0  0  0  0  0  0
    3.6587   -2.5446   -3.8710 H   0  0  0  0  0  0  0  0  0  0  0  0
  1  2  2  0
  2  3  1  0
  3  4  1  0
  4  5  1  0
  5  6  2  0
  5  7  1  0
  7  8  1  0
  8  9  1  0
  9 10  1  0
 10 11  2  0
 11 12  1  0
 12 13  2  0
 13 14  1  0
 14 15  2  0
 15 16  1  0
  2 17  1  0
 17 18  1  0
 18 19  2  3
 19 20  1  0
 20 21  2  0
 21 22  1  0
 22 23  2  0
 23 24  1  0
 24 25  1  0
 24 26  2  0
 16  7  1  0
 26 20  1  0
 15 10  1  0
  3 27  1  0
  3 28  1  0
  4 29  1  0
  7 30  1  0
  8 31  1  0
  8 32  1  0
 11 33  1  0
 12 34  1  0
 13 35  1  0
 14 36  1  0
 17 37  1  0
 19 38  1  0
 21 39  1  0
 22 40  1  0
 23 41  1  0
 25 42  1  0
 26 43  1  0
M  END
$$$$
