
     RDKit          3D

 49 52  0  0  0  0  0  0  0  0999 V2000
   -8.3786    1.2360   -0.9357 C   0  0  0  0  0  0  0  0  0  0  0  0
   -7.6277    1.1024    0.2640 O   0  0  0  0  0  0  0  0  0  0  0  0
   -6.6365    0.1601    0.2718 C   0  0  0  0  0  0  0  0  0  0  0  0
   -5.9312    0.0644    1.4729 C   0  0  0  0  0  0  0  0  0  0  0  0
   -4.8924   -0.8577    1.6185 C   0  0  0  0  0  0  0  0  0  0  0  0
   -4.5454   -1.7065    0.5604 C   0  0  0  0  0  0  0  0  0  0  0  0
   -3.4083   -2.6830    0.7114 C   0  0  0  0  0  0  0  0  0  0  0  0
   -2.1426   -2.0295    0.4872 N   0  0  0  0  0  0  0  0  0  0  0  0
   -1.3270   -1.6207    1.5201 C   0  0  0  0  0  0  0  0  0  0  0  0
   -1.5728   -1.9087    2.6898 O   0  0  0  0  0  0  0  0  0  0  0  0
   -0.1658   -0.8267    1.1342 C   0  0  0  0  0  0  0  0  0  0  0  0
    0.7982   -0.2980    1.9905 C   0  0  0  0  0  0  0  0  0  0  0  0
    1.7774    0.4179    1.2737 C   0  0  0  0  0  0  0  0  0  0  0  0
    1.5356    0.4121   -0.0664 C   0  0  0  0  0  0  0  0  0  0  0  0
    0.1689   -0.4242   -0.5223 S   0  0  0  0  0  0  0  0  0  0  0  0
    2.5603    1.1651   -0.8179 C   0  0  0  0  0  0  0  0  0  0  0  0
    3.2504    1.8770    0.2836 N   0  0  0  0  0  0  0  0  0  0  0  0
    4.5992    2.3511    0.0249 C   0  0  0  0  0  0  0  0  0  0  0  0
    5.6671    1.2988   -0.1809 C   0  0  0  0  0  0  0  0  0  0  0  0
    6.4045    0.8037    0.9052 C   0  0  0  0  0  0  0  0  0  0  0  0
    7.3922   -0.1644    0.7140 C   0  0  0  0  0  0  0  0  0  0  0  0
    7.6599   -0.6449   -0.5657 C   0  0  0  0  0  0  0  0  0  0  0  0
    6.9439   -0.1552   -1.6556 C   0  0  0  0  0  0  0  0  0  0  0  0
    5.9559    0.8128   -1.4652 C   0  0  0  0  0  0  0  0  0  0  0  0
    3.0152    1.1800    1.5727 C   0  0  0  0  0  0  0  0  0  0  0  0
   -5.2486   -1.6015   -0.6468 C   0  0  0  0  0  0  0  0  0  0  0  0
   -6.2900   -0.6765   -0.7892 C   0  0  0  0  0  0  0  0  0  0  0  0
   -9.1251    2.0203   -0.7773 H   0  0  0  0  0  0  0  0  0  0  0  0
   -7.7399    1.5480   -1.7686 H   0  0  0  0  0  0  0  0  0  0  0  0
   -8.9136    0.3102   -1.1721 H   0  0  0  0  0  0  0  0  0  0  0  0
   -6.1904    0.7161    2.3038 H   0  0  0  0  0  0  0  0  0  0  0  0
   -4.3510   -0.9079    2.5621 H   0  0  0  0  0  0  0  0  0  0  0  0
   -3.4945   -3.4855   -0.0294 H   0  0  0  0  0  0  0  0  0  0  0  0
   -3.4401   -3.1526    1.7009 H   0  0  0  0  0  0  0  0  0  0  0  0
   -1.9516   -1.6548   -0.4321 H   0  0  0  0  0  0  0  0  0  0  0  0
    0.7725   -0.4351    3.0653 H   0  0  0  0  0  0  0  0  0  0  0  0
    3.2089    0.4619   -1.3475 H   0  0  0  0  0  0  0  0  0  0  0  0
    2.1240    1.8779   -1.5233 H   0  0  0  0  0  0  0  0  0  0  0  0
    4.5826    3.0101   -0.8536 H   0  0  0  0  0  0  0  0  0  0  0  0
    4.9099    3.0101    0.8467 H   0  0  0  0  0  0  0  0  0  0  0  0
    6.2149    1.1723    1.9108 H   0  0  0  0  0  0  0  0  0  0  0  0
    7.9539   -0.5424    1.5644 H   0  0  0  0  0  0  0  0  0  0  0  0
    8.4288   -1.3985   -0.7140 H   0  0  0  0  0  0  0  0  0  0  0  0
    7.1558   -0.5258   -2.6551 H   0  0  0  0  0  0  0  0  0  0  0  0
    5.4122    1.1888   -2.3290 H   0  0  0  0  0  0  0  0  0  0  0  0
    3.8116    0.4776    1.8336 H   0  0  0  0  0  0  0  0  0  0  0  0
    2.8691    1.9010    2.3818 H   0  0  0  0  0  0  0  0  0  0  0  0
   -4.9925   -2.2408   -1.4889 H   0  0  0  0  0  0  0  0  0  0  0  0
   -6.8075   -0.6348   -1.7416 H   0  0  0  0  0  0  0  0  0  0  0  0
  1  2  1  0
  2  3  1  0
  3  4  2  0
  4  5  1  0
  5  6  2  0
  6  7  1  0
  7  8  1  0
  8  9  1  0
  9 10  2  0
  9 11  1  0
 11 12  2  0
 12 13  1  0
 13 14  2  0
 14 15  1  0
 14 16  1  0
 16 17  1  0
 17 18  1  0
 18 19  1  0
 19 20  2  0
 20 21  1  0
 21 22  2  0
 22 23  1  0
 23 24  2  0
 17 25  1  0
  6 26  1  0
 26 27  2  0
 27  3  1  0
 15 11  1  0
 24 19  1  0
 25 13  1  0
  1 28  1  0
  1 29  1  0
  1 30  1  0
  4 31  1  0
  5 32  1  0
  7 33  1  0
  7 34  1  0
  8 35  1  0
 12 36  1  0
 16 37  1  0
 16 38  1  0
 18 39  1  0
 18 40  1  0
 20 41  1  0
 21 42  1  0
 22 43  1  0
 23 44  1  0
 24 45  1  0
 25 46  1  0
 25 47  1  0
 26 48  1  0
 27 49  1  0
M  END
$$$$
