
     RDKit          3D

 40 41  0  0  0  0  0  0  0  0999 V2000
    7.4665   -2.6127    0.5656 C   0  0  0  0  0  0  0  0  0  0  0  0
    7.0661   -1.5195   -0.2507 O   0  0  0  0  0  0  0  0  0  0  0  0
    5.8699   -0.9298    0.0532 C   0  0  0  0  0  0  0  0  0  0  0  0
    5.0390   -1.2607    1.1227 C   0  0  0  0  0  0  0  0  0  0  0  0
    3.8370   -0.5714    1.3203 C   0  0  0  0  0  0  0  0  0  0  0  0
    3.4499    0.4584    0.4522 C   0  0  0  0  0  0  0  0  0  0  0  0
    2.1520    1.1993    0.6709 C   0  0  0  0  0  0  0  0  0  0  0  0
    0.9089    0.4309    0.2718 C   0  0  0  0  0  0  0  0  0  0  0  0
    0.8703   -0.7463   -0.0631 O   0  0  0  0  0  0  0  0  0  0  0  0
   -0.1633    1.2944    0.3767 O   0  0  0  0  0  0  0  0  0  0  0  0
   -1.3607    0.6109    0.0945 N   0  0  0  0  0  0  0  0  0  0  0  0
   -2.3919    1.4007    0.1573 C   0  0  0  0  0  0  0  0  0  0  0  0
   -2.2970    2.7467    0.4379 N   0  0  0  0  0  0  0  0  0  0  0  0
   -3.7444    0.8101   -0.1097 C   0  0  0  0  0  0  0  0  0  0  0  0
   -4.9065    1.4608    0.3211 C   0  0  0  0  0  0  0  0  0  0  0  0
   -6.1621    0.9040    0.0590 C   0  0  0  0  0  0  0  0  0  0  0  0
   -6.2722   -0.3036   -0.6408 C   0  0  0  0  0  0  0  0  0  0  0  0
   -7.6180   -0.9186   -0.8891 C   0  0  0  0  0  0  0  0  0  0  0  0
   -5.1070   -0.9637   -1.0483 C   0  0  0  0  0  0  0  0  0  0  0  0
   -3.8507   -0.4101   -0.7868 C   0  0  0  0  0  0  0  0  0  0  0  0
    4.2854    0.7823   -0.6230 C   0  0  0  0  0  0  0  0  0  0  0  0
    5.4861    0.0941   -0.8151 C   0  0  0  0  0  0  0  0  0  0  0  0
    6.7416   -3.4318    0.5144 H   0  0  0  0  0  0  0  0  0  0  0  0
    8.4192   -2.9871    0.1788 H   0  0  0  0  0  0  0  0  0  0  0  0
    7.6304   -2.2927    1.5999 H   0  0  0  0  0  0  0  0  0  0  0  0
    5.2908   -2.0525    1.8198 H   0  0  0  0  0  0  0  0  0  0  0  0
    3.1974   -0.8562    2.1536 H   0  0  0  0  0  0  0  0  0  0  0  0
    2.1721    2.1367    0.1015 H   0  0  0  0  0  0  0  0  0  0  0  0
    2.0694    1.4612    1.7327 H   0  0  0  0  0  0  0  0  0  0  0  0
   -1.3455    3.0858    0.3528 H   0  0  0  0  0  0  0  0  0  0  0  0
   -2.9525    3.3361   -0.0637 H   0  0  0  0  0  0  0  0  0  0  0  0
   -4.8508    2.3864    0.8865 H   0  0  0  0  0  0  0  0  0  0  0  0
   -7.0549    1.4154    0.4126 H   0  0  0  0  0  0  0  0  0  0  0  0
   -8.3857   -0.1457   -1.0008 H   0  0  0  0  0  0  0  0  0  0  0  0
   -7.6138   -1.5075   -1.8123 H   0  0  0  0  0  0  0  0  0  0  0  0
   -7.8911   -1.5709   -0.0539 H   0  0  0  0  0  0  0  0  0  0  0  0
   -5.1665   -1.9165   -1.5701 H   0  0  0  0  0  0  0  0  0  0  0  0
   -2.9574   -0.9390   -1.1135 H   0  0  0  0  0  0  0  0  0  0  0  0
    4.0132    1.5683   -1.3232 H   0  0  0  0  0  0  0  0  0  0  0  0
    6.1269    0.3540   -1.6541 H   0  0  0  0  0  0  0  0  0  0  0  0
  1  2  1  0
  2  3  1  0
  3  4  2  0
  4  5  1  0
  5  6  2  0
  6  7  1  0
  7  8  1  0
  8  9  2  0
  8 10  1  0
 10 11  1  0
 11 12  2  3
 12 13  1  0
 12 14  1  0
 14 15  2  0
 15 16  1  0
 16 17  2  0
 17 18  1  0
 17 19  1  0
 19 20  2  0
  6 21  1  0
 21 22  2  0
 22  3  1  0
 20 14  1  0
  1 23  1  0
  1 24  1  0
  1 25  1  0
  4 26  1  0
  5 27  1  0
  7 28  1  0
  7 29  1  0
 13 30  1  0
 13 31  1  0
 15 32  1  0
 16 33  1  0
 18 34  1  0
 18 35  1  0
 18 36  1  0
 19 37  1  0
 20 38  1  0
 21 39  1  0
 22 40  1  0
M  END
$$$$
