
     RDKit          3D

 36 38  0  0  0  0  0  0  0  0999 V2000
    3.4175   -2.1554    1.8852 C   0  0  0  0  0  0  0  0  0  0  0  0
    2.7738   -0.9149    1.2767 C   0  0  0  0  0  0  0  0  0  0  0  0
    3.6901   -0.3835    0.3268 O   0  0  0  0  0  0  0  0  0  0  0  0
    3.1331    0.6364   -0.4001 C   0  0  0  0  0  0  0  0  0  0  0  0
    4.0275    1.5760   -0.9154 C   0  0  0  0  0  0  0  0  0  0  0  0
    3.5542    2.6393   -1.6790 C   0  0  0  0  0  0  0  0  0  0  0  0
    2.1894    2.7545   -1.9310 C   0  0  0  0  0  0  0  0  0  0  0  0
    1.2963    1.7984   -1.4342 C   0  0  0  0  0  0  0  0  0  0  0  0
    1.7581    0.7188   -0.6709 C   0  0  0  0  0  0  0  0  0  0  0  0
    0.8999   -0.3110   -0.1948 N   0  0  0  0  0  0  0  0  0  0  0  0
   -0.4843   -0.4351   -0.6361 C   0  0  0  0  0  0  0  0  0  0  0  0
   -1.4354    0.3271    0.2855 C   0  0  0  0  0  0  0  0  0  0  0  0
   -1.0773    1.2868    0.9685 O   0  0  0  0  0  0  0  0  0  0  0  0
   -2.8730   -0.0800    0.3230 C   0  0  0  0  0  0  0  0  0  0  0  0
   -3.6760    0.4164    1.3633 C   0  0  0  0  0  0  0  0  0  0  0  0
   -5.0271    0.0722    1.4401 C   0  0  0  0  0  0  0  0  0  0  0  0
   -5.5751   -0.7633    0.4756 C   0  0  0  0  0  0  0  0  0  0  0  0
   -6.8707   -1.0936    0.5456 F   0  0  0  0  0  0  0  0  0  0  0  0
   -4.7978   -1.2589   -0.5654 C   0  0  0  0  0  0  0  0  0  0  0  0
   -3.4441   -0.9170   -0.6468 C   0  0  0  0  0  0  0  0  0  0  0  0
    1.3785   -1.2399    0.7252 C   0  0  0  0  0  0  0  0  0  0  0  0
    0.7053   -2.1910    1.1248 O   0  0  0  0  0  0  0  0  0  0  0  0
    4.4081   -1.9176    2.2878 H   0  0  0  0  0  0  0  0  0  0  0  0
    2.8057   -2.5747    2.6901 H   0  0  0  0  0  0  0  0  0  0  0  0
    3.5603   -2.9310    1.1241 H   0  0  0  0  0  0  0  0  0  0  0  0
    2.6393   -0.1766    2.0798 H   0  0  0  0  0  0  0  0  0  0  0  0
    5.0908    1.4809   -0.7129 H   0  0  0  0  0  0  0  0  0  0  0  0
    4.2471    3.3794   -2.0709 H   0  0  0  0  0  0  0  0  0  0  0  0
    1.8153    3.5923   -2.5149 H   0  0  0  0  0  0  0  0  0  0  0  0
    0.2409    1.9422   -1.6411 H   0  0  0  0  0  0  0  0  0  0  0  0
   -0.5988   -0.0838   -1.6659 H   0  0  0  0  0  0  0  0  0  0  0  0
   -0.7497   -1.4977   -0.6229 H   0  0  0  0  0  0  0  0  0  0  0  0
   -3.2502    1.0721    2.1217 H   0  0  0  0  0  0  0  0  0  0  0  0
   -5.6508    0.4507    2.2441 H   0  0  0  0  0  0  0  0  0  0  0  0
   -5.2526   -1.9075   -1.3084 H   0  0  0  0  0  0  0  0  0  0  0  0
   -2.8682   -1.3111   -1.4788 H   0  0  0  0  0  0  0  0  0  0  0  0
  1  2  1  0
  2  3  1  0
  3  4  1  0
  4  5  2  0
  5  6  1  0
  6  7  2  0
  7  8  1  0
  8  9  2  0
  9 10  1  0
 10 11  1  0
 11 12  1  0
 12 13  2  0
 12 14  1  0
 14 15  2  0
 15 16  1  0
 16 17  2  0
 17 18  1  0
 17 19  1  0
 19 20  2  0
 10 21  1  0
 21 22  2  0
 21  2  1  0
  9  4  1  0
 20 14  1  0
  1 23  1  0
  1 24  1  0
  1 25  1  0
  2 26  1  0
  5 27  1  0
  6 28  1  0
  7 29  1  0
  8 30  1  0
 11 31  1  0
 11 32  1  0
 15 33  1  0
 16 34  1  0
 19 35  1  0
 20 36  1  0
M  END
$$$$
