
     RDKit          3D

 66 68  0  0  0  0  0  0  0  0999 V2000
   -3.5366   -1.7017   -2.2355 C   0  0  0  0  0  0  0  0  0  0  0  0
   -3.2688   -2.8033   -1.2130 C   0  0  0  0  0  0  0  0  0  0  0  0
   -3.3852   -2.3635    0.1867 N   0  0  0  0  0  0  0  0  0  0  0  0
   -3.2076   -3.4780    1.1329 C   0  0  0  0  0  0  0  0  0  0  0  0
   -4.3893   -4.4431    1.1355 C   0  0  0  0  0  0  0  0  0  0  0  0
   -2.5169   -1.2210    0.5338 C   0  0  0  0  0  0  0  0  0  0  0  0
   -1.0018   -1.4354    0.3545 C   0  0  0  0  0  0  0  0  0  0  0  0
   -0.1743   -0.2100    0.8301 C   0  0  0  0  0  0  0  0  0  0  0  0
    1.3311   -0.4571    0.9434 C   0  0  0  0  0  0  0  0  0  0  0  0
    2.0055   -1.4387    0.2144 C   0  0  0  0  0  0  0  0  0  0  0  0
    3.3937   -1.6092    0.3421 C   0  0  0  0  0  0  0  0  0  0  0  0
    4.1750   -0.8195    1.2016 C   0  0  0  0  0  0  0  0  0  0  0  0
    5.5550   -1.0200    1.3340 N   0  0  0  0  0  0  0  0  0  0  0  0
    6.3259   -0.1350    2.2025 C   0  0  0  0  0  0  0  0  0  0  0  0
    6.2823   -1.5690    0.1897 C   0  0  0  0  0  0  0  0  0  0  0  0
    3.4754    0.1439    1.9450 C   0  0  0  0  0  0  0  0  0  0  0  0
    2.0909    0.3329    1.8139 C   0  0  0  0  0  0  0  0  0  0  0  0
   -0.4908    1.0654    0.0451 C   0  0  0  0  0  0  0  0  0  0  0  0
   -0.2409    1.1927   -1.3301 C   0  0  0  0  0  0  0  0  0  0  0  0
    0.2954    0.1312   -2.0155 O   0  0  0  0  0  0  0  0  0  0  0  0
    1.5351    0.4674   -2.6419 C   0  0  0  0  0  0  0  0  0  0  0  0
   -0.5983    2.3555   -2.0318 C   0  0  0  0  0  0  0  0  0  0  0  0
   -1.1685    3.4461   -1.3698 C   0  0  0  0  0  0  0  0  0  0  0  0
   -1.5383    4.6180   -1.9812 O   0  0  0  0  0  0  0  0  0  0  0  0
   -1.3714    4.7089   -3.3905 C   0  0  0  0  0  0  0  0  0  0  0  0
   -1.3915    3.3636    0.0136 C   0  0  0  0  0  0  0  0  0  0  0  0
   -1.9764    4.4633    0.7799 C   0  0  0  0  0  0  0  0  0  0  0  0
   -2.1826    4.3450    2.0939 C   0  0  0  0  0  0  0  0  0  0  0  0
   -1.8365    3.1233    2.8307 C   0  0  0  0  0  0  0  0  0  0  0  0
   -2.0228    3.0387    4.0385 O   0  0  0  0  0  0  0  0  0  0  0  0
   -1.2908    2.0886    2.0865 O   0  0  0  0  0  0  0  0  0  0  0  0
   -1.0552    2.1827    0.6906 C   0  0  0  0  0  0  0  0  0  0  0  0
   -2.7419   -0.9494   -2.2432 H   0  0  0  0  0  0  0  0  0  0  0  0
   -4.4911   -1.2025   -2.0376 H   0  0  0  0  0  0  0  0  0  0  0  0
   -3.5877   -2.1322   -3.2416 H   0  0  0  0  0  0  0  0  0  0  0  0
   -2.2877   -3.2510   -1.4102 H   0  0  0  0  0  0  0  0  0  0  0  0
   -4.0122   -3.5839   -1.4084 H   0  0  0  0  0  0  0  0  0  0  0  0
   -2.2821   -4.0303    0.9311 H   0  0  0  0  0  0  0  0  0  0  0  0
   -3.1276   -3.0835    2.1536 H   0  0  0  0  0  0  0  0  0  0  0  0
   -4.4567   -5.0135    0.2043 H   0  0  0  0  0  0  0  0  0  0  0  0
   -4.2796   -5.1631    1.9537 H   0  0  0  0  0  0  0  0  0  0  0  0
   -5.3346   -3.9096    1.2854 H   0  0  0  0  0  0  0  0  0  0  0  0
   -2.7179   -0.9378    1.5757 H   0  0  0  0  0  0  0  0  0  0  0  0
   -2.8434   -0.3508   -0.0462 H   0  0  0  0  0  0  0  0  0  0  0  0
   -0.6921   -2.3096    0.9415 H   0  0  0  0  0  0  0  0  0  0  0  0
   -0.7836   -1.6705   -0.6917 H   0  0  0  0  0  0  0  0  0  0  0  0
   -0.4952   -0.0736    1.8720 H   0  0  0  0  0  0  0  0  0  0  0  0
    1.4728   -2.0875   -0.4763 H   0  0  0  0  0  0  0  0  0  0  0  0
    3.8450   -2.4017   -0.2472 H   0  0  0  0  0  0  0  0  0  0  0  0
    5.9314   -0.1376    3.2238 H   0  0  0  0  0  0  0  0  0  0  0  0
    6.3360    0.8891    1.8162 H   0  0  0  0  0  0  0  0  0  0  0  0
    7.3653   -0.4733    2.2810 H   0  0  0  0  0  0  0  0  0  0  0  0
    6.1272   -0.9570   -0.7057 H   0  0  0  0  0  0  0  0  0  0  0  0
    5.9841   -2.6020   -0.0154 H   0  0  0  0  0  0  0  0  0  0  0  0
    7.3615   -1.6003    0.3820 H   0  0  0  0  0  0  0  0  0  0  0  0
    3.9895    0.7886    2.6507 H   0  0  0  0  0  0  0  0  0  0  0  0
    1.6124    1.1072    2.4111 H   0  0  0  0  0  0  0  0  0  0  0  0
    2.0652   -0.4663   -2.8516 H   0  0  0  0  0  0  0  0  0  0  0  0
    1.3617    0.9774   -3.5965 H   0  0  0  0  0  0  0  0  0  0  0  0
    2.1734    1.0801   -1.9921 H   0  0  0  0  0  0  0  0  0  0  0  0
   -0.4364    2.3762   -3.1035 H   0  0  0  0  0  0  0  0  0  0  0  0
   -0.3147    4.6412   -3.6686 H   0  0  0  0  0  0  0  0  0  0  0  0
   -1.9664    3.9503   -3.9089 H   0  0  0  0  0  0  0  0  0  0  0  0
   -1.7366    5.6902   -3.7056 H   0  0  0  0  0  0  0  0  0  0  0  0
   -2.2422    5.3780    0.2594 H   0  0  0  0  0  0  0  0  0  0  0  0
   -2.6168    5.1461    2.6792 H   0  0  0  0  0  0  0  0  0  0  0  0
  1  2  1  0
  2  3  1  0
  3  4  1  0
  4  5  1  0
  3  6  1  0
  6  7  1  0
  7  8  1  0
  8  9  1  0
  9 10  2  0
 10 11  1  0
 11 12  2  0
 12 13  1  0
 13 14  1  0
 13 15  1  0
 12 16  1  0
 16 17  2  0
  8 18  1  0
 18 19  2  0
 19 20  1  0
 20 21  1  0
 19 22  1  0
 22 23  2  0
 23 24  1  0
 24 25  1  0
 23 26  1  0
 26 27  1  0
 27 28  2  0
 28 29  1  0
 29 30  2  0
 29 31  1  0
 31 32  1  0
 17  9  1  0
 32 18  1  0
 32 26  2  0
  1 33  1  0
  1 34  1  0
  1 35  1  0
  2 36  1  0
  2 37  1  0
  4 38  1  0
  4 39  1  0
  5 40  1  0
  5 41  1  0
  5 42  1  0
  6 43  1  0
  6 44  1  0
  7 45  1  0
  7 46  1  0
  8 47  1  0
 10 48  1  0
 11 49  1  0
 14 50  1  0
 14 51  1  0
 14 52  1  0
 15 53  1  0
 15 54  1  0
 15 55  1  0
 16 56  1  0
 17 57  1  0
 21 58  1  0
 21 59  1  0
 21 60  1  0
 22 61  1  0
 25 62  1  0
 25 63  1  0
 25 64  1  0
 27 65  1  0
 28 66  1  0
M  END
$$$$
