
     RDKit          3D

 31 32  0  0  0  0  0  0  0  0999 V2000
   -6.4500    0.2402   -0.5990 N   0  0  0  0  0  0  0  0  0  0  0  0
   -5.0773    0.1705   -0.2796 N   0  0  0  0  0  0  0  0  0  0  0  0
   -4.5773   -0.9416    0.3850 C   0  0  0  0  0  0  0  0  0  0  0  0
   -5.2947   -1.8387    0.8278 O   0  0  0  0  0  0  0  0  0  0  0  0
   -3.0587   -0.9492    0.5450 C   0  0  0  0  0  0  0  0  0  0  0  0
   -2.4558    0.0971   -0.2118 O   0  0  0  0  0  0  0  0  0  0  0  0
   -1.0938    0.2002   -0.1473 C   0  0  0  0  0  0  0  0  0  0  0  0
   -0.2411   -0.6234    0.5850 C   0  0  0  0  0  0  0  0  0  0  0  0
    1.1418   -0.4037    0.5617 C   0  0  0  0  0  0  0  0  0  0  0  0
    1.7002    0.6427   -0.1925 C   0  0  0  0  0  0  0  0  0  0  0  0
    3.1932    0.9004   -0.2363 C   0  0  0  0  0  0  0  0  0  0  0  0
    3.8781    1.2967    1.4067 S   0  0  0  0  0  0  0  0  0  0  0  0
    5.4248    0.3808    1.2076 C   0  0  0  0  0  0  0  0  0  0  0  0
    5.0989   -0.9070    0.4800 C   0  0  0  0  0  0  0  0  0  0  0  0
    4.1147   -0.4884   -0.9811 S   0  0  0  0  0  0  0  0  0  0  0  0
    0.8292    1.4626   -0.9257 C   0  0  0  0  0  0  0  0  0  0  0  0
   -0.5510    1.2415   -0.9012 C   0  0  0  0  0  0  0  0  0  0  0  0
   -6.7973   -0.7270   -0.6494 H   0  0  0  0  0  0  0  0  0  0  0  0
   -6.9348    0.6224    0.2186 H   0  0  0  0  0  0  0  0  0  0  0  0
   -4.4133    0.7782   -0.7630 H   0  0  0  0  0  0  0  0  0  0  0  0
   -2.8491   -0.8176    1.6127 H   0  0  0  0  0  0  0  0  0  0  0  0
   -2.7042   -1.9231    0.1883 H   0  0  0  0  0  0  0  0  0  0  0  0
   -0.6104   -1.4476    1.1863 H   0  0  0  0  0  0  0  0  0  0  0  0
    1.7841   -1.0627    1.1433 H   0  0  0  0  0  0  0  0  0  0  0  0
    3.3932    1.7712   -0.8697 H   0  0  0  0  0  0  0  0  0  0  0  0
    5.8637    0.1757    2.1886 H   0  0  0  0  0  0  0  0  0  0  0  0
    6.1376    0.9924    0.6436 H   0  0  0  0  0  0  0  0  0  0  0  0
    6.0128   -1.4245    0.1732 H   0  0  0  0  0  0  0  0  0  0  0  0
    4.5263   -1.5924    1.1147 H   0  0  0  0  0  0  0  0  0  0  0  0
    1.2160    2.2839   -1.5259 H   0  0  0  0  0  0  0  0  0  0  0  0
   -1.2056    1.8903   -1.4782 H   0  0  0  0  0  0  0  0  0  0  0  0
  1  2  1  0
  2  3  1  0
  3  4  2  0
  3  5  1  0
  5  6  1  0
  6  7  1  0
  7  8  2  0
  8  9  1  0
  9 10  2  0
 10 11  1  0
 11 12  1  0
 12 13  1  0
 13 14  1  0
 14 15  1  0
 10 16  1  0
 16 17  2  0
 17  7  1  0
 15 11  1  0
  1 18  1  0
  1 19  1  0
  2 20  1  0
  5 21  1  0
  5 22  1  0
  8 23  1  0
  9 24  1  0
 11 25  1  0
 13 26  1  0
 13 27  1  0
 14 28  1  0
 14 29  1  0
 16 30  1  0
 17 31  1  0
M  END
$$$$
