
     RDKit          3D

 45 46  0  0  0  0  0  0  0  0999 V2000
    1.7146   -2.5471    2.5124 C   0  0  0  0  0  0  0  0  0  0  0  0
    2.8096   -1.5175    2.7259 C   0  0  0  0  0  0  0  0  0  0  0  0
    2.4825   -0.2411    2.1149 N   0  0  0  0  0  0  0  0  0  0  0  0
    1.7520    0.6431    2.8193 N   0  0  0  0  0  0  0  0  0  0  0  0
    1.6279    1.6833    1.9965 C   0  0  0  0  0  0  0  0  0  0  0  0
    2.2463    1.4664    0.7468 C   0  0  0  0  0  0  0  0  0  0  0  0
    2.3284    2.3429   -0.3999 C   0  0  0  0  0  0  0  0  0  0  0  0
    1.3603    3.0571   -0.8906 N   0  0  0  0  0  0  0  0  0  0  0  0
    0.1035    2.9162   -0.3797 N   0  0  0  0  0  0  0  0  0  0  0  0
   -0.9687    3.5658   -0.9733 C   0  0  0  0  0  0  0  0  0  0  0  0
   -0.8950    4.4015   -1.8712 O   0  0  0  0  0  0  0  0  0  0  0  0
   -2.3140    3.1632   -0.3615 C   0  0  0  0  0  0  0  0  0  0  0  0
   -2.3005    1.9602    0.3993 O   0  0  0  0  0  0  0  0  0  0  0  0
   -2.2980    0.7653   -0.2685 C   0  0  0  0  0  0  0  0  0  0  0  0
   -2.2405   -0.3569    0.5632 C   0  0  0  0  0  0  0  0  0  0  0  0
   -2.2036   -1.6495    0.0282 C   0  0  0  0  0  0  0  0  0  0  0  0
   -2.1058   -2.8460    0.9265 C   0  0  0  0  0  0  0  0  0  0  0  0
   -2.2059   -1.8083   -1.3617 C   0  0  0  0  0  0  0  0  0  0  0  0
   -2.2756   -0.6949   -2.2083 C   0  0  0  0  0  0  0  0  0  0  0  0
   -2.2467   -0.8729   -3.6987 C   0  0  0  0  0  0  0  0  0  0  0  0
   -2.3108    0.5932   -1.6529 C   0  0  0  0  0  0  0  0  0  0  0  0
    2.8253    0.2114    0.8629 C   0  0  0  0  0  0  0  0  0  0  0  0
    3.6314   -0.5850   -0.0979 C   0  0  0  0  0  0  0  0  0  0  0  0
    1.9885   -3.4969    2.9814 H   0  0  0  0  0  0  0  0  0  0  0  0
    0.7673   -2.2117    2.9476 H   0  0  0  0  0  0  0  0  0  0  0  0
    1.5448   -2.7283    1.4461 H   0  0  0  0  0  0  0  0  0  0  0  0
    2.9697   -1.3406    3.7954 H   0  0  0  0  0  0  0  0  0  0  0  0
    3.7580   -1.8662    2.3055 H   0  0  0  0  0  0  0  0  0  0  0  0
    1.0921    2.5597    2.3404 H   0  0  0  0  0  0  0  0  0  0  0  0
    3.3064    2.3971   -0.9067 H   0  0  0  0  0  0  0  0  0  0  0  0
   -0.1093    2.1137    0.2091 H   0  0  0  0  0  0  0  0  0  0  0  0
   -2.5874    3.9679    0.3312 H   0  0  0  0  0  0  0  0  0  0  0  0
   -3.0901    3.1388   -1.1351 H   0  0  0  0  0  0  0  0  0  0  0  0
   -2.2172   -0.2154    1.6423 H   0  0  0  0  0  0  0  0  0  0  0  0
   -2.4613   -2.6144    1.9359 H   0  0  0  0  0  0  0  0  0  0  0  0
   -2.7222   -3.6662    0.5445 H   0  0  0  0  0  0  0  0  0  0  0  0
   -1.0665   -3.1820    0.9906 H   0  0  0  0  0  0  0  0  0  0  0  0
   -2.1545   -2.8083   -1.7888 H   0  0  0  0  0  0  0  0  0  0  0  0
   -2.6737   -1.8393   -3.9868 H   0  0  0  0  0  0  0  0  0  0  0  0
   -2.8381   -0.0963   -4.1952 H   0  0  0  0  0  0  0  0  0  0  0  0
   -1.2153   -0.8202   -4.0611 H   0  0  0  0  0  0  0  0  0  0  0  0
   -2.3388    1.4395   -2.3327 H   0  0  0  0  0  0  0  0  0  0  0  0
    3.6608   -0.1105   -1.0836 H   0  0  0  0  0  0  0  0  0  0  0  0
    3.2082   -1.5863   -0.2280 H   0  0  0  0  0  0  0  0  0  0  0  0
    4.6617   -0.6846    0.2579 H   0  0  0  0  0  0  0  0  0  0  0  0
  1  2  1  0
  2  3  1  0
  3  4  1  0
  4  5  2  0
  5  6  1  0
  6  7  1  0
  7  8  2  3
  8  9  1  0
  9 10  1  0
 10 11  2  0
 10 12  1  0
 12 13  1  0
 13 14  1  0
 14 15  2  0
 15 16  1  0
 16 17  1  0
 16 18  2  0
 18 19  1  0
 19 20  1  0
 19 21  2  0
  6 22  2  0
 22 23  1  0
 22  3  1  0
 21 14  1  0
  1 24  1  0
  1 25  1  0
  1 26  1  0
  2 27  1  0
  2 28  1  0
  5 29  1  0
  7 30  1  0
  9 31  1  0
 12 32  1  0
 12 33  1  0
 15 34  1  0
 17 35  1  0
 17 36  1  0
 17 37  1  0
 18 38  1  0
 20 39  1  0
 20 40  1  0
 20 41  1  0
 21 42  1  0
 23 43  1  0
 23 44  1  0
 23 45  1  0
M  END
$$$$
