
     RDKit          3D

 49 51  0  0  0  0  0  0  0  0999 V2000
   -0.8938    3.5696    1.3181 N   0  0  0  0  0  0  0  0  0  0  0  0
    0.1225    2.7101    1.5179 C   0  0  0  0  0  0  0  0  0  0  0  0
    0.8372    2.6974    2.6005 N   0  0  0  0  0  0  0  0  0  0  0  0
    1.8294    1.6089    2.3738 C   0  0  0  0  0  0  0  0  0  0  0  0
    1.4959    0.9605    1.0106 C   0  0  0  0  0  0  0  0  0  0  0  0
    2.6775    0.9787    0.0318 C   0  0  0  0  0  0  0  0  0  0  0  0
    3.7487   -0.0252    0.3891 C   0  0  0  0  0  0  0  0  0  0  0  0
    3.5623   -1.3894    0.1176 C   0  0  0  0  0  0  0  0  0  0  0  0
    4.5442   -2.3222    0.4595 C   0  0  0  0  0  0  0  0  0  0  0  0
    5.7143   -1.8895    1.0735 C   0  0  0  0  0  0  0  0  0  0  0  0
    6.6986   -2.7646    1.4249 O   0  0  0  0  0  0  0  0  0  0  0  0
    5.9174   -0.5430    1.3478 C   0  0  0  0  0  0  0  0  0  0  0  0
    4.9371    0.3894    1.0056 C   0  0  0  0  0  0  0  0  0  0  0  0
    0.4110    1.8216    0.5312 N   0  0  0  0  0  0  0  0  0  0  0  0
   -0.5847    1.2539   -0.3735 C   0  0  0  0  0  0  0  0  0  0  0  0
   -1.6455    0.4290    0.3688 C   0  0  0  0  0  0  0  0  0  0  0  0
   -2.6550   -0.1672   -0.5847 C   0  0  0  0  0  0  0  0  0  0  0  0
   -2.4375   -1.4295   -1.1531 C   0  0  0  0  0  0  0  0  0  0  0  0
   -3.3543   -1.9795   -2.0627 C   0  0  0  0  0  0  0  0  0  0  0  0
   -3.1184   -3.3504   -2.6525 C   0  0  0  0  0  0  0  0  0  0  0  0
   -3.6444   -3.4903   -3.9008 F   0  0  0  0  0  0  0  0  0  0  0  0
   -3.6687   -4.3398   -1.8981 F   0  0  0  0  0  0  0  0  0  0  0  0
   -1.7962   -3.6583   -2.7698 F   0  0  0  0  0  0  0  0  0  0  0  0
   -4.5097   -1.2501   -2.3879 C   0  0  0  0  0  0  0  0  0  0  0  0
   -4.7498    0.0141   -1.8252 C   0  0  0  0  0  0  0  0  0  0  0  0
   -5.9798    0.8072   -2.2009 C   0  0  0  0  0  0  0  0  0  0  0  0
   -7.0105    0.0261   -2.6279 F   0  0  0  0  0  0  0  0  0  0  0  0
   -6.4736    1.5450   -1.1686 F   0  0  0  0  0  0  0  0  0  0  0  0
   -5.7342    1.6885   -3.2087 F   0  0  0  0  0  0  0  0  0  0  0  0
   -3.8083    0.5493   -0.9322 C   0  0  0  0  0  0  0  0  0  0  0  0
   -0.8491    4.0093    0.4080 H   0  0  0  0  0  0  0  0  0  0  0  0
   -0.8962    4.2717    2.0520 H   0  0  0  0  0  0  0  0  0  0  0  0
    2.8352    2.0395    2.4062 H   0  0  0  0  0  0  0  0  0  0  0  0
    1.7483    0.8722    3.1804 H   0  0  0  0  0  0  0  0  0  0  0  0
    1.1354   -0.0622    1.1749 H   0  0  0  0  0  0  0  0  0  0  0  0
    2.3296    0.7539   -0.9851 H   0  0  0  0  0  0  0  0  0  0  0  0
    3.1087    1.9867   -0.0316 H   0  0  0  0  0  0  0  0  0  0  0  0
    2.6517   -1.7344   -0.3672 H   0  0  0  0  0  0  0  0  0  0  0  0
    4.3800   -3.3722    0.2392 H   0  0  0  0  0  0  0  0  0  0  0  0
    6.4243   -3.6601    1.1687 H   0  0  0  0  0  0  0  0  0  0  0  0
    6.8376   -0.2189    1.8259 H   0  0  0  0  0  0  0  0  0  0  0  0
    5.1109    1.4410    1.2248 H   0  0  0  0  0  0  0  0  0  0  0  0
   -0.0815    0.6271   -1.1203 H   0  0  0  0  0  0  0  0  0  0  0  0
   -1.0633    2.0614   -0.9416 H   0  0  0  0  0  0  0  0  0  0  0  0
   -2.1709    1.0448    1.1090 H   0  0  0  0  0  0  0  0  0  0  0  0
   -1.1739   -0.3774    0.9439 H   0  0  0  0  0  0  0  0  0  0  0  0
   -1.5438   -1.9948   -0.8869 H   0  0  0  0  0  0  0  0  0  0  0  0
   -5.2322   -1.6729   -3.0886 H   0  0  0  0  0  0  0  0  0  0  0  0
   -3.9821    1.5347   -0.4969 H   0  0  0  0  0  0  0  0  0  0  0  0
  1  2  1  0
  2  3  2  0
  3  4  1  0
  4  5  1  0
  5  6  1  0
  6  7  1  0
  7  8  2  0
  8  9  1  0
  9 10  2  0
 10 11  1  0
 10 12  1  0
 12 13  2  0
  5 14  1  0
 14 15  1  0
 15 16  1  0
 16 17  1  0
 17 18  2  0
 18 19  1  0
 19 20  1  0
 20 21  1  0
 20 22  1  0
 20 23  1  0
 19 24  2  0
 24 25  1  0
 25 26  1  0
 26 27  1  0
 26 28  1  0
 26 29  1  0
 25 30  2  0
 14  2  1  0
 30 17  1  0
 13  7  1  0
  1 31  1  0
  1 32  1  0
  4 33  1  0
  4 34  1  0
  5 35  1  0
  6 36  1  0
  6 37  1  0
  8 38  1  0
  9 39  1  0
 11 40  1  0
 12 41  1  0
 13 42  1  0
 15 43  1  0
 15 44  1  0
 16 45  1  0
 16 46  1  0
 18 47  1  0
 24 48  1  0
 30 49  1  0
M  END
$$$$
