
     RDKit          3D

 50 52  0  0  0  0  0  0  0  0999 V2000
    7.8925   -0.2190   -0.6698 C   0  0  0  0  0  0  0  0  0  0  0  0
    6.3954   -0.2154   -0.7953 C   0  0  0  0  0  0  0  0  0  0  0  0
    5.7526   -1.1928   -1.5686 C   0  0  0  0  0  0  0  0  0  0  0  0
    4.3587   -1.2293   -1.6765 C   0  0  0  0  0  0  0  0  0  0  0  0
    3.5842   -2.4259   -2.6320 Cl  0  0  0  0  0  0  0  0  0  0  0  0
    3.6372   -0.2631   -0.9767 C   0  0  0  0  0  0  0  0  0  0  0  0
    2.2825   -0.1301   -0.9514 O   0  0  0  0  0  0  0  0  0  0  0  0
    1.9856    0.9358   -0.1435 C   0  0  0  0  0  0  0  0  0  0  0  0
    0.5913    1.2881    0.0539 C   0  0  0  0  0  0  0  0  0  0  0  0
    0.2176    2.2136    0.7680 O   0  0  0  0  0  0  0  0  0  0  0  0
   -0.2845    0.4756   -0.6337 N   0  0  0  0  0  0  0  0  0  0  0  0
   -1.7284    0.6297   -0.5903 C   0  0  0  0  0  0  0  0  0  0  0  0
   -2.4818   -0.4196    0.3084 C   0  0  0  0  0  0  0  0  0  0  0  0
   -1.9433   -0.2738    1.7550 C   0  0  0  0  0  0  0  0  0  0  0  0
   -2.1408   -1.8476   -0.1777 C   0  0  0  0  0  0  0  0  0  0  0  0
   -3.9538   -0.1254    0.2630 N   0  0  0  0  0  0  0  0  0  0  0  0
   -4.5940   -0.3669   -1.0526 C   0  0  0  0  0  0  0  0  0  0  0  0
   -6.0737    0.0530   -1.0561 C   0  0  0  0  0  0  0  0  0  0  0  0
   -6.8103   -0.6586   -0.0568 O   0  0  0  0  0  0  0  0  0  0  0  0
   -6.2511   -0.3893    1.2325 C   0  0  0  0  0  0  0  0  0  0  0  0
   -4.7677   -0.7977    1.3027 C   0  0  0  0  0  0  0  0  0  0  0  0
    3.1564    1.4927    0.3550 C   0  0  0  0  0  0  0  0  0  0  0  0
    3.2556    2.6609    1.2674 C   0  0  0  0  0  0  0  0  0  0  0  0
    4.2277    0.7162   -0.1869 C   0  0  0  0  0  0  0  0  0  0  0  0
    5.6342    0.7365   -0.0896 C   0  0  0  0  0  0  0  0  0  0  0  0
    8.3601   -0.5963   -1.5854 H   0  0  0  0  0  0  0  0  0  0  0  0
    8.2730    0.7946   -0.5053 H   0  0  0  0  0  0  0  0  0  0  0  0
    8.1952   -0.8519    0.1700 H   0  0  0  0  0  0  0  0  0  0  0  0
    6.3444   -1.9382   -2.0971 H   0  0  0  0  0  0  0  0  0  0  0  0
    0.1228   -0.2602   -1.2007 H   0  0  0  0  0  0  0  0  0  0  0  0
   -2.0434    0.5447   -1.6348 H   0  0  0  0  0  0  0  0  0  0  0  0
   -1.9716    1.6461   -0.2576 H   0  0  0  0  0  0  0  0  0  0  0  0
   -2.3443   -1.0437    2.4232 H   0  0  0  0  0  0  0  0  0  0  0  0
   -2.1876    0.7097    2.1724 H   0  0  0  0  0  0  0  0  0  0  0  0
   -0.8549   -0.3894    1.7972 H   0  0  0  0  0  0  0  0  0  0  0  0
   -2.3455   -1.9753   -1.2458 H   0  0  0  0  0  0  0  0  0  0  0  0
   -2.7047   -2.6093    0.3706 H   0  0  0  0  0  0  0  0  0  0  0  0
   -1.0788   -2.0745   -0.0272 H   0  0  0  0  0  0  0  0  0  0  0  0
   -4.0959    0.1965   -1.8457 H   0  0  0  0  0  0  0  0  0  0  0  0
   -4.5444   -1.4326   -1.3056 H   0  0  0  0  0  0  0  0  0  0  0  0
   -6.1827    1.1322   -0.8931 H   0  0  0  0  0  0  0  0  0  0  0  0
   -6.5219   -0.1827   -2.0267 H   0  0  0  0  0  0  0  0  0  0  0  0
   -6.8258   -0.9616    1.9680 H   0  0  0  0  0  0  0  0  0  0  0  0
   -6.3792    0.6744    1.4681 H   0  0  0  0  0  0  0  0  0  0  0  0
   -4.4234   -0.5323    2.3063 H   0  0  0  0  0  0  0  0  0  0  0  0
   -4.6984   -1.8858    1.1896 H   0  0  0  0  0  0  0  0  0  0  0  0
    2.8056    3.5462    0.8068 H   0  0  0  0  0  0  0  0  0  0  0  0
    2.7369    2.4562    2.2095 H   0  0  0  0  0  0  0  0  0  0  0  0
    4.2967    2.9002    1.5041 H   0  0  0  0  0  0  0  0  0  0  0  0
    6.1256    1.4854    0.5265 H   0  0  0  0  0  0  0  0  0  0  0  0
  1  2  1  0
  2  3  2  0
  3  4  1  0
  4  5  1  0
  4  6  2  0
  6  7  1  0
  7  8  1  0
  8  9  1  0
  9 10  2  0
  9 11  1  0
 11 12  1  0
 12 13  1  0
 13 14  1  0
 13 15  1  0
 13 16  1  0
 16 17  1  0
 17 18  1  0
 18 19  1  0
 19 20  1  0
 20 21  1  0
  8 22  2  0
 22 23  1  0
 22 24  1  0
 24 25  2  0
 25  2  1  0
 24  6  1  0
 21 16  1  0
  1 26  1  0
  1 27  1  0
  1 28  1  0
  3 29  1  0
 11 30  1  0
 12 31  1  0
 12 32  1  0
 14 33  1  0
 14 34  1  0
 14 35  1  0
 15 36  1  0
 15 37  1  0
 15 38  1  0
 17 39  1  0
 17 40  1  0
 18 41  1  0
 18 42  1  0
 20 43  1  0
 20 44  1  0
 21 45  1  0
 21 46  1  0
 23 47  1  0
 23 48  1  0
 23 49  1  0
 25 50  1  0
M  END
$$$$
