
     RDKit          3D

 46 47  0  0  0  0  0  0  0  0999 V2000
   -2.0518   -1.6221    4.6036 C   0  0  0  0  0  0  0  0  0  0  0  0
   -1.3991   -2.2507    3.0379 S   0  0  0  0  0  0  0  0  0  0  0  0
    0.1887   -1.3529    3.0295 C   0  0  0  0  0  0  0  0  0  0  0  0
    0.9378   -1.5069    1.7040 C   0  0  0  0  0  0  0  0  0  0  0  0
    0.6028   -0.4170    0.6679 C   0  0  0  0  0  0  0  0  0  0  0  0
   -0.7492   -0.5756    0.1395 N   0  0  0  0  0  0  0  0  0  0  0  0
   -1.7544    0.3258    0.4060 C   0  0  0  0  0  0  0  0  0  0  0  0
   -1.6162    1.3047    1.1272 O   0  0  0  0  0  0  0  0  0  0  0  0
   -3.0509    0.0386   -0.2505 C   0  0  0  0  0  0  0  0  0  0  0  0
   -3.6190   -1.2356   -0.0930 C   0  0  0  0  0  0  0  0  0  0  0  0
   -4.8480   -1.5354   -0.6823 C   0  0  0  0  0  0  0  0  0  0  0  0
   -5.5154   -0.5676   -1.4298 C   0  0  0  0  0  0  0  0  0  0  0  0
   -4.9540    0.7007   -1.5908 C   0  0  0  0  0  0  0  0  0  0  0  0
   -3.7218    1.0098   -1.0029 C   0  0  0  0  0  0  0  0  0  0  0  0
   -3.0718    2.5814   -1.3070 Cl  0  0  0  0  0  0  0  0  0  0  0  0
    1.5768   -0.4934   -0.5354 C   0  0  0  0  0  0  0  0  0  0  0  0
    2.2312   -1.5218   -0.7387 O   0  0  0  0  0  0  0  0  0  0  0  0
    1.6411    0.5850   -1.4127 N   0  0  0  0  0  0  0  0  0  0  0  0
    0.8946    1.8294   -1.2700 C   0  0  0  0  0  0  0  0  0  0  0  0
    2.4540    0.4525   -2.6207 C   0  0  0  0  0  0  0  0  0  0  0  0
    3.8008    1.0781   -2.4009 C   0  0  0  0  0  0  0  0  0  0  0  0
    4.8221    0.6421   -1.5772 C   0  0  0  0  0  0  0  0  0  0  0  0
    5.9660    1.4883   -1.6321 C   0  0  0  0  0  0  0  0  0  0  0  0
    5.7861    2.5398   -2.5017 C   0  0  0  0  0  0  0  0  0  0  0  0
    4.2492    2.4991   -3.2497 S   0  0  0  0  0  0  0  0  0  0  0  0
   -3.0284   -2.0749    4.7939 H   0  0  0  0  0  0  0  0  0  0  0  0
   -1.3814   -1.8820    5.4270 H   0  0  0  0  0  0  0  0  0  0  0  0
   -2.1754   -0.5368    4.5565 H   0  0  0  0  0  0  0  0  0  0  0  0
    0.0224   -0.2965    3.2636 H   0  0  0  0  0  0  0  0  0  0  0  0
    0.7976   -1.7832    3.8318 H   0  0  0  0  0  0  0  0  0  0  0  0
    0.7994   -2.5112    1.2828 H   0  0  0  0  0  0  0  0  0  0  0  0
    2.0099   -1.4226    1.9308 H   0  0  0  0  0  0  0  0  0  0  0  0
    0.7235    0.5531    1.1584 H   0  0  0  0  0  0  0  0  0  0  0  0
   -0.9197   -1.3591   -0.4794 H   0  0  0  0  0  0  0  0  0  0  0  0
   -3.1211   -1.9941    0.5064 H   0  0  0  0  0  0  0  0  0  0  0  0
   -5.2881   -2.5215   -0.5500 H   0  0  0  0  0  0  0  0  0  0  0  0
   -6.4746   -0.7991   -1.8874 H   0  0  0  0  0  0  0  0  0  0  0  0
   -5.4820    1.4459   -2.1816 H   0  0  0  0  0  0  0  0  0  0  0  0
    0.0087    1.7699   -1.9077 H   0  0  0  0  0  0  0  0  0  0  0  0
    0.5920    2.0221   -0.2428 H   0  0  0  0  0  0  0  0  0  0  0  0
    1.5124    2.6712   -1.5944 H   0  0  0  0  0  0  0  0  0  0  0  0
    2.5887   -0.6036   -2.8808 H   0  0  0  0  0  0  0  0  0  0  0  0
    1.9116    0.9127   -3.4551 H   0  0  0  0  0  0  0  0  0  0  0  0
    4.7455   -0.2482   -0.9626 H   0  0  0  0  0  0  0  0  0  0  0  0
    6.8748    1.3311   -1.0644 H   0  0  0  0  0  0  0  0  0  0  0  0
    6.4847    3.3304   -2.7392 H   0  0  0  0  0  0  0  0  0  0  0  0
  1  2  1  0
  2  3  1  0
  3  4  1  0
  4  5  1  0
  5  6  1  0
  6  7  1  0
  7  8  2  0
  7  9  1  0
  9 10  2  0
 10 11  1  0
 11 12  2  0
 12 13  1  0
 13 14  2  0
 14 15  1  0
  5 16  1  0
 16 17  2  0
 16 18  1  0
 18 19  1  0
 18 20  1  0
 20 21  1  0
 21 22  2  0
 22 23  1  0
 23 24  2  0
 24 25  1  0
 14  9  1  0
 25 21  1  0
  1 26  1  0
  1 27  1  0
  1 28  1  0
  3 29  1  0
  3 30  1  0
  4 31  1  0
  4 32  1  0
  5 33  1  0
  6 34  1  0
 10 35  1  0
 11 36  1  0
 12 37  1  0
 13 38  1  0
 19 39  1  0
 19 40  1  0
 19 41  1  0
 20 42  1  0
 20 43  1  0
 22 44  1  0
 23 45  1  0
 24 46  1  0
M  END
$$$$
