
     RDKit          3D

 37 39  0  0  0  0  0  0  0  0999 V2000
   -5.1611    1.6897   -0.1549 C   0  0  0  0  0  0  0  0  0  0  0  0
   -4.1469    0.7399   -0.7203 C   0  0  0  0  0  0  0  0  0  0  0  0
   -4.4173   -0.0140   -1.7960 C   0  0  0  0  0  0  0  0  0  0  0  0
   -3.4579   -0.9591   -2.3876 C   0  0  0  0  0  0  0  0  0  0  0  0
   -3.7613   -1.6266   -3.3697 O   0  0  0  0  0  0  0  0  0  0  0  0
   -2.2175   -1.0519   -1.7819 O   0  0  0  0  0  0  0  0  0  0  0  0
   -1.8996   -0.2750   -0.6492 C   0  0  0  0  0  0  0  0  0  0  0  0
   -0.6161   -0.4539   -0.1224 C   0  0  0  0  0  0  0  0  0  0  0  0
   -0.2327    0.2746    0.9977 C   0  0  0  0  0  0  0  0  0  0  0  0
    0.9795    0.2233    1.6243 O   0  0  0  0  0  0  0  0  0  0  0  0
    1.8841   -0.8441    1.3032 C   0  0  0  0  0  0  0  0  0  0  0  0
    2.7673   -1.0885    2.5343 C   0  0  0  0  0  0  0  0  0  0  0  0
    2.8374   -0.4154    3.5521 O   0  0  0  0  0  0  0  0  0  0  0  0
    3.5177   -2.2125    2.4341 O   0  0  0  0  0  0  0  0  0  0  0  0
    2.7393   -0.5014    0.0923 C   0  0  0  0  0  0  0  0  0  0  0  0
    3.0981   -1.5041   -0.8228 C   0  0  0  0  0  0  0  0  0  0  0  0
    3.8927   -1.2030   -1.9302 C   0  0  0  0  0  0  0  0  0  0  0  0
    4.3436    0.0996   -2.1326 C   0  0  0  0  0  0  0  0  0  0  0  0
    4.0046    1.1024   -1.2268 C   0  0  0  0  0  0  0  0  0  0  0  0
    3.2105    0.8044   -0.1186 C   0  0  0  0  0  0  0  0  0  0  0  0
   -1.1369    1.1804    1.5591 C   0  0  0  0  0  0  0  0  0  0  0  0
   -2.4192    1.3503    1.0211 C   0  0  0  0  0  0  0  0  0  0  0  0
   -2.8217    0.6172   -0.0988 C   0  0  0  0  0  0  0  0  0  0  0  0
   -4.7881    2.7190   -0.1826 H   0  0  0  0  0  0  0  0  0  0  0  0
   -6.0983    1.6698   -0.7224 H   0  0  0  0  0  0  0  0  0  0  0  0
   -5.4044    1.4280    0.8804 H   0  0  0  0  0  0  0  0  0  0  0  0
   -5.3756    0.0292   -2.3014 H   0  0  0  0  0  0  0  0  0  0  0  0
    0.0487   -1.1494   -0.6209 H   0  0  0  0  0  0  0  0  0  0  0  0
    1.3184   -1.7737    1.1551 H   0  0  0  0  0  0  0  0  0  0  0  0
    4.0331   -2.2197    3.2683 H   0  0  0  0  0  0  0  0  0  0  0  0
    2.7647   -2.5298   -0.6773 H   0  0  0  0  0  0  0  0  0  0  0  0
    4.1624   -1.9858   -2.6346 H   0  0  0  0  0  0  0  0  0  0  0  0
    4.9618    0.3332   -2.9956 H   0  0  0  0  0  0  0  0  0  0  0  0
    4.3584    2.1183   -1.3828 H   0  0  0  0  0  0  0  0  0  0  0  0
    2.9561    1.6004    0.5796 H   0  0  0  0  0  0  0  0  0  0  0  0
   -0.8411    1.7621    2.4304 H   0  0  0  0  0  0  0  0  0  0  0  0
   -3.0830    2.0658    1.4987 H   0  0  0  0  0  0  0  0  0  0  0  0
  1  2  1  0
  2  3  2  0
  3  4  1  0
  4  5  2  0
  4  6  1  0
  6  7  1  0
  7  8  2  0
  8  9  1  0
  9 10  1  0
 10 11  1  0
 11 12  1  0
 12 13  2  0
 12 14  1  0
 11 15  1  0
 15 16  2  0
 16 17  1  0
 17 18  2  0
 18 19  1  0
 19 20  2  0
  9 21  2  0
 21 22  1  0
 22 23  2  0
 23  2  1  0
 23  7  1  0
 20 15  1  0
  1 24  1  0
  1 25  1  0
  1 26  1  0
  3 27  1  0
  8 28  1  0
 11 29  1  0
 14 30  1  0
 16 31  1  0
 17 32  1  0
 18 33  1  0
 19 34  1  0
 20 35  1  0
 21 36  1  0
 22 37  1  0
M  END
$$$$
