
     RDKit          3D

 57 60  0  0  0  0  0  0  0  0999 V2000
    6.0719   -0.6694   -2.4212 C   0  0  0  0  0  0  0  0  0  0  0  0
    4.8571   -0.2325   -1.8261 O   0  0  0  0  0  0  0  0  0  0  0  0
    4.7931   -0.2014   -0.4564 C   0  0  0  0  0  0  0  0  0  0  0  0
    5.8802   -0.4566    0.3854 C   0  0  0  0  0  0  0  0  0  0  0  0
    5.7201   -0.4391    1.7706 C   0  0  0  0  0  0  0  0  0  0  0  0
    4.4691   -0.1779    2.3262 C   0  0  0  0  0  0  0  0  0  0  0  0
    3.3588    0.0836    1.5074 C   0  0  0  0  0  0  0  0  0  0  0  0
    2.0574    0.3335    2.2077 C   0  0  0  0  0  0  0  0  0  0  0  0
    2.0195    0.4255    3.4314 O   0  0  0  0  0  0  0  0  0  0  0  0
    0.9306    0.4361    1.4311 N   0  0  0  0  0  0  0  0  0  0  0  0
   -0.3945    0.5762    1.9929 C   0  0  0  0  0  0  0  0  0  0  0  0
   -0.9631   -0.7709    2.4980 C   0  0  0  0  0  0  0  0  0  0  0  0
   -1.5956   -1.6806    1.3965 C   0  0  0  0  0  0  0  0  0  0  0  0
   -0.5278   -2.2033    0.4142 C   0  0  0  0  0  0  0  0  0  0  0  0
   -2.2288   -2.9057    2.0879 C   0  0  0  0  0  0  0  0  0  0  0  0
   -2.7108   -0.9183    0.6143 C   0  0  0  0  0  0  0  0  0  0  0  0
   -2.3159    0.4916    0.3193 C   0  0  0  0  0  0  0  0  0  0  0  0
   -1.2722    1.1552    0.9400 C   0  0  0  0  0  0  0  0  0  0  0  0
   -1.2343    2.4129    0.3320 C   0  0  0  0  0  0  0  0  0  0  0  0
   -2.1613    2.5450   -0.6125 N   0  0  0  0  0  0  0  0  0  0  0  0
   -2.8805    1.3831   -0.5862 N   0  0  0  0  0  0  0  0  0  0  0  0
   -4.0290    1.2713   -1.4315 C   0  0  0  0  0  0  0  0  0  0  0  0
   -4.2486    2.2637   -2.4090 C   0  0  0  0  0  0  0  0  0  0  0  0
   -5.3542    2.2046   -3.2640 C   0  0  0  0  0  0  0  0  0  0  0  0
   -6.2607    1.1572   -3.1487 C   0  0  0  0  0  0  0  0  0  0  0  0
   -6.0554    0.1875   -2.1763 C   0  0  0  0  0  0  0  0  0  0  0  0
   -6.9365   -0.8143   -2.0539 F   0  0  0  0  0  0  0  0  0  0  0  0
   -4.9572    0.2336   -1.3175 C   0  0  0  0  0  0  0  0  0  0  0  0
    3.5352    0.1015    0.1099 C   0  0  0  0  0  0  0  0  0  0  0  0
    2.4483    0.3502   -0.7007 O   0  0  0  0  0  0  0  0  0  0  0  0
    2.6002    1.5667   -1.4394 C   0  0  0  0  0  0  0  0  0  0  0  0
    6.8850    0.0340   -2.2142 H   0  0  0  0  0  0  0  0  0  0  0  0
    5.9223   -0.6943   -3.5049 H   0  0  0  0  0  0  0  0  0  0  0  0
    6.3312   -1.6830   -2.0978 H   0  0  0  0  0  0  0  0  0  0  0  0
    6.8687   -0.6769   -0.0046 H   0  0  0  0  0  0  0  0  0  0  0  0
    6.5689   -0.6398    2.4205 H   0  0  0  0  0  0  0  0  0  0  0  0
    4.3613   -0.1836    3.4102 H   0  0  0  0  0  0  0  0  0  0  0  0
    1.0241    0.2693    0.4341 H   0  0  0  0  0  0  0  0  0  0  0  0
   -0.3286    1.2668    2.8428 H   0  0  0  0  0  0  0  0  0  0  0  0
   -0.1935   -1.3268    3.0486 H   0  0  0  0  0  0  0  0  0  0  0  0
   -1.7514   -0.5388    3.2291 H   0  0  0  0  0  0  0  0  0  0  0  0
   -0.9418   -2.9852   -0.2333 H   0  0  0  0  0  0  0  0  0  0  0  0
    0.3233   -2.6366    0.9508 H   0  0  0  0  0  0  0  0  0  0  0  0
   -0.1499   -1.4196   -0.2474 H   0  0  0  0  0  0  0  0  0  0  0  0
   -2.9866   -2.6022    2.8189 H   0  0  0  0  0  0  0  0  0  0  0  0
   -2.7160   -3.5638    1.3594 H   0  0  0  0  0  0  0  0  0  0  0  0
   -1.4719   -3.4947    2.6183 H   0  0  0  0  0  0  0  0  0  0  0  0
   -2.9320   -1.4637   -0.3099 H   0  0  0  0  0  0  0  0  0  0  0  0
   -3.6216   -0.8912    1.2259 H   0  0  0  0  0  0  0  0  0  0  0  0
   -0.5536    3.2335    0.5213 H   0  0  0  0  0  0  0  0  0  0  0  0
   -3.5542    3.0958   -2.5244 H   0  0  0  0  0  0  0  0  0  0  0  0
   -5.5016    2.9773   -4.0143 H   0  0  0  0  0  0  0  0  0  0  0  0
   -7.1253    1.0935   -3.8010 H   0  0  0  0  0  0  0  0  0  0  0  0
   -4.9013   -0.5412   -0.5681 H   0  0  0  0  0  0  0  0  0  0  0  0
    3.2093    2.3095   -0.9112 H   0  0  0  0  0  0  0  0  0  0  0  0
    3.0182    1.3604   -2.4285 H   0  0  0  0  0  0  0  0  0  0  0  0
    1.6022    1.9921   -1.5833 H   0  0  0  0  0  0  0  0  0  0  0  0
  1  2  1  0
  2  3  1  0
  3  4  2  0
  4  5  1  0
  5  6  2  0
  6  7  1  0
  7  8  1  0
  8  9  2  0
  8 10  1  0
 10 11  1  0
 11 12  1  0
 12 13  1  0
 13 14  1  0
 13 15  1  0
 13 16  1  0
 16 17  1  0
 17 18  2  0
 18 19  1  0
 19 20  2  0
 20 21  1  0
 21 22  1  0
 22 23  2  0
 23 24  1  0
 24 25  2  0
 25 26  1  0
 26 27  1  0
 26 28  2  0
  7 29  2  0
 29 30  1  0
 30 31  1  0
 29  3  1  0
 18 11  1  0
 28 22  1  0
 21 17  1  0
  1 32  1  0
  1 33  1  0
  1 34  1  0
  4 35  1  0
  5 36  1  0
  6 37  1  0
 10 38  1  0
 11 39  1  0
 12 40  1  0
 12 41  1  0
 14 42  1  0
 14 43  1  0
 14 44  1  0
 15 45  1  0
 15 46  1  0
 15 47  1  0
 16 48  1  0
 16 49  1  0
 19 50  1  0
 23 51  1  0
 24 52  1  0
 25 53  1  0
 28 54  1  0
 31 55  1  0
 31 56  1  0
 31 57  1  0
M  END
$$$$
