
     RDKit          3D

 46 48  0  0  0  0  0  0  0  0999 V2000
   -1.5119    5.5561    0.2489 C   0  0  0  0  0  0  0  0  0  0  0  0
   -0.5306    4.7063   -0.5525 C   0  0  0  0  0  0  0  0  0  0  0  0
   -0.6660    3.1980   -0.2559 C   0  0  0  0  0  0  0  0  0  0  0  0
   -2.0650    2.4964   -1.2216 S   0  0  0  0  0  0  0  0  0  0  0  0
   -2.6615    1.2900   -0.1513 C   0  0  0  0  0  0  0  0  0  0  0  0
   -2.2496    1.0160    1.0588 N   0  0  0  0  0  0  0  0  0  0  0  0
   -3.1840    0.1256    1.5420 C   0  0  0  0  0  0  0  0  0  0  0  0
   -3.3044   -0.4434    2.8156 C   0  0  0  0  0  0  0  0  0  0  0  0
   -4.3798   -1.3026    3.0691 C   0  0  0  0  0  0  0  0  0  0  0  0
   -5.3147   -1.5960    2.0684 C   0  0  0  0  0  0  0  0  0  0  0  0
   -5.2103   -1.0473    0.7819 C   0  0  0  0  0  0  0  0  0  0  0  0
   -4.1403   -0.1758    0.5678 C   0  0  0  0  0  0  0  0  0  0  0  0
   -3.7366    0.5388   -0.5273 N   0  0  0  0  0  0  0  0  0  0  0  0
    0.6008    2.4393   -0.6846 C   0  0  0  0  0  0  0  0  0  0  0  0
    1.4189    2.9328   -1.4623 O   0  0  0  0  0  0  0  0  0  0  0  0
    0.6641    1.1750   -0.1363 N   0  0  0  0  0  0  0  0  0  0  0  0
    1.6415    0.1929   -0.3845 C   0  0  0  0  0  0  0  0  0  0  0  0
    2.8437    0.4325   -1.0466 C   0  0  0  0  0  0  0  0  0  0  0  0
    3.7597   -0.6145   -1.2797 C   0  0  0  0  0  0  0  0  0  0  0  0
    3.4794   -1.9189   -0.8615 C   0  0  0  0  0  0  0  0  0  0  0  0
    4.4295   -2.9225   -1.1607 N   0  0  0  0  0  0  0  0  0  0  0  0
    4.3079   -4.2894   -0.9530 C   0  0  0  0  0  0  0  0  0  0  0  0
    5.5256   -5.0535   -1.4272 C   0  0  0  0  0  0  0  0  0  0  0  0
    3.3523   -4.8636   -0.4564 O   0  0  0  0  0  0  0  0  0  0  0  0
    2.2809   -2.1532   -0.1812 C   0  0  0  0  0  0  0  0  0  0  0  0
    1.3742   -1.1038    0.0643 C   0  0  0  0  0  0  0  0  0  0  0  0
   -2.5538    5.2907    0.0465 H   0  0  0  0  0  0  0  0  0  0  0  0
   -1.3307    5.4554    1.3277 H   0  0  0  0  0  0  0  0  0  0  0  0
   -1.3905    6.6059   -0.0097 H   0  0  0  0  0  0  0  0  0  0  0  0
    0.4912    5.0234   -0.2842 H   0  0  0  0  0  0  0  0  0  0  0  0
   -0.6384    4.9189   -1.6210 H   0  0  0  0  0  0  0  0  0  0  0  0
   -0.7943    3.0789    0.8287 H   0  0  0  0  0  0  0  0  0  0  0  0
   -2.5810   -0.2026    3.5970 H   0  0  0  0  0  0  0  0  0  0  0  0
   -4.5008   -1.7363    4.0549 H   0  0  0  0  0  0  0  0  0  0  0  0
   -6.1361   -2.2798    2.2819 H   0  0  0  0  0  0  0  0  0  0  0  0
   -5.9144   -1.3190    0.0013 H   0  0  0  0  0  0  0  0  0  0  0  0
   -4.2128    0.6037   -1.4143 H   0  0  0  0  0  0  0  0  0  0  0  0
   -0.1471    0.8834    0.4076 H   0  0  0  0  0  0  0  0  0  0  0  0
    3.1090    1.4248   -1.3971 H   0  0  0  0  0  0  0  0  0  0  0  0
    4.6814   -0.3846   -1.8036 H   0  0  0  0  0  0  0  0  0  0  0  0
    5.2597   -2.6139   -1.6413 H   0  0  0  0  0  0  0  0  0  0  0  0
    5.6109   -4.9739   -2.5178 H   0  0  0  0  0  0  0  0  0  0  0  0
    6.4336   -4.6550   -0.9479 H   0  0  0  0  0  0  0  0  0  0  0  0
    5.4243   -6.1086   -1.1462 H   0  0  0  0  0  0  0  0  0  0  0  0
    2.0174   -3.1520    0.1690 H   0  0  0  0  0  0  0  0  0  0  0  0
    0.4486   -1.3275    0.5940 H   0  0  0  0  0  0  0  0  0  0  0  0
  1  2  1  0
  2  3  1  0
  3  4  1  0
  4  5  1  0
  5  6  2  0
  6  7  1  0
  7  8  2  0
  8  9  1  0
  9 10  2  0
 10 11  1  0
 11 12  2  0
 12 13  1  0
  3 14  1  0
 14 15  2  0
 14 16  1  0
 16 17  1  0
 17 18  2  0
 18 19  1  0
 19 20  2  0
 20 21  1  0
 21 22  1  0
 22 23  1  0
 22 24  2  0
 20 25  1  0
 25 26  2  0
 13  5  1  0
 26 17  1  0
 12  7  1  0
  1 27  1  0
  1 28  1  0
  1 29  1  0
  2 30  1  0
  2 31  1  0
  3 32  1  0
  8 33  1  0
  9 34  1  0
 10 35  1  0
 11 36  1  0
 13 37  1  0
 16 38  1  0
 18 39  1  0
 19 40  1  0
 21 41  1  0
 23 42  1  0
 23 43  1  0
 23 44  1  0
 25 45  1  0
 26 46  1  0
M  END
$$$$
