
     RDKit          3D

 59 62  0  0  0  0  0  0  0  0999 V2000
   -2.4330    3.7598   -2.2142 C   0  0  0  0  0  0  0  0  0  0  0  0
   -1.2506    2.9430   -1.7194 C   0  0  0  0  0  0  0  0  0  0  0  0
   -1.3232    1.5025   -2.2214 C   0  0  0  0  0  0  0  0  0  0  0  0
   -0.2228    0.6846   -1.7401 N   0  0  0  0  0  0  0  0  0  0  0  0
   -0.2571   -0.2365   -0.7032 C   0  0  0  0  0  0  0  0  0  0  0  0
   -1.4164   -0.5102    0.1433 C   0  0  0  0  0  0  0  0  0  0  0  0
   -2.0487   -1.7588    0.0574 C   0  0  0  0  0  0  0  0  0  0  0  0
   -3.1660   -2.0420    0.8439 C   0  0  0  0  0  0  0  0  0  0  0  0
   -3.8633   -3.2220    0.8207 O   0  0  0  0  0  0  0  0  0  0  0  0
   -3.4200   -4.2287   -0.0788 C   0  0  0  0  0  0  0  0  0  0  0  0
   -3.6297   -1.0609    1.7380 C   0  0  0  0  0  0  0  0  0  0  0  0
   -4.7639   -1.3075    2.4814 O   0  0  0  0  0  0  0  0  0  0  0  0
   -4.4051   -1.9042    3.7267 C   0  0  0  0  0  0  0  0  0  0  0  0
   -3.0033    0.1936    1.8403 C   0  0  0  0  0  0  0  0  0  0  0  0
   -3.5476    1.0740    2.7391 O   0  0  0  0  0  0  0  0  0  0  0  0
   -2.9953    2.3817    2.7964 C   0  0  0  0  0  0  0  0  0  0  0  0
   -1.8842    0.4530    1.0480 C   0  0  0  0  0  0  0  0  0  0  0  0
    0.9016   -0.8705   -0.6083 N   0  0  0  0  0  0  0  0  0  0  0  0
    1.6932   -0.3236   -1.5675 C   0  0  0  0  0  0  0  0  0  0  0  0
    1.0299    0.6240   -2.2905 C   0  0  0  0  0  0  0  0  0  0  0  0
    1.6372    1.3241   -3.3687 C   0  0  0  0  0  0  0  0  0  0  0  0
    1.0907    2.1790   -4.0559 O   0  0  0  0  0  0  0  0  0  0  0  0
    2.9411    0.9368   -3.5797 N   0  0  0  0  0  0  0  0  0  0  0  0
    3.6602   -0.0096   -2.8731 C   0  0  0  0  0  0  0  0  0  0  0  0
    4.8260   -0.2341   -3.2006 O   0  0  0  0  0  0  0  0  0  0  0  0
    3.0044   -0.6588   -1.8334 N   0  0  0  0  0  0  0  0  0  0  0  0
    3.7206   -1.6298   -1.0200 C   0  0  0  0  0  0  0  0  0  0  0  0
    4.3883   -0.9941    0.1792 C   0  0  0  0  0  0  0  0  0  0  0  0
    3.6980   -0.8669    1.3933 C   0  0  0  0  0  0  0  0  0  0  0  0
    4.3073   -0.2656    2.4956 C   0  0  0  0  0  0  0  0  0  0  0  0
    5.6095    0.2202    2.3943 C   0  0  0  0  0  0  0  0  0  0  0  0
    6.3022    0.1091    1.1901 C   0  0  0  0  0  0  0  0  0  0  0  0
    5.6944   -0.4921    0.0867 C   0  0  0  0  0  0  0  0  0  0  0  0
   -3.3779    3.3357   -1.8596 H   0  0  0  0  0  0  0  0  0  0  0  0
   -2.3636    4.7883   -1.8466 H   0  0  0  0  0  0  0  0  0  0  0  0
   -2.4579    3.7905   -3.3081 H   0  0  0  0  0  0  0  0  0  0  0  0
   -1.2324    2.9656   -0.6247 H   0  0  0  0  0  0  0  0  0  0  0  0
   -0.3209    3.4171   -2.0540 H   0  0  0  0  0  0  0  0  0  0  0  0
   -2.2624    1.0309   -1.9133 H   0  0  0  0  0  0  0  0  0  0  0  0
   -1.3049    1.4663   -3.3166 H   0  0  0  0  0  0  0  0  0  0  0  0
   -1.6440   -2.4895   -0.6366 H   0  0  0  0  0  0  0  0  0  0  0  0
   -4.0868   -5.0897    0.0284 H   0  0  0  0  0  0  0  0  0  0  0  0
   -3.4831   -3.8866   -1.1170 H   0  0  0  0  0  0  0  0  0  0  0  0
   -2.4063   -4.5604    0.1687 H   0  0  0  0  0  0  0  0  0  0  0  0
   -5.3256   -2.0740    4.2931 H   0  0  0  0  0  0  0  0  0  0  0  0
   -3.9163   -2.8733    3.5798 H   0  0  0  0  0  0  0  0  0  0  0  0
   -3.7631   -1.2421    4.3178 H   0  0  0  0  0  0  0  0  0  0  0  0
   -3.0672    2.8859    1.8269 H   0  0  0  0  0  0  0  0  0  0  0  0
   -3.5809    2.9610    3.5168 H   0  0  0  0  0  0  0  0  0  0  0  0
   -1.9606    2.3556    3.1534 H   0  0  0  0  0  0  0  0  0  0  0  0
   -1.3477    1.3921    1.1271 H   0  0  0  0  0  0  0  0  0  0  0  0
    3.4345    1.3969   -4.3281 H   0  0  0  0  0  0  0  0  0  0  0  0
    3.0308   -2.4203   -0.6981 H   0  0  0  0  0  0  0  0  0  0  0  0
    4.4798   -2.1314   -1.6333 H   0  0  0  0  0  0  0  0  0  0  0  0
    2.6760   -1.2321    1.4821 H   0  0  0  0  0  0  0  0  0  0  0  0
    3.7631   -0.1742    3.4318 H   0  0  0  0  0  0  0  0  0  0  0  0
    6.0832    0.6891    3.2526 H   0  0  0  0  0  0  0  0  0  0  0  0
    7.3156    0.4930    1.1078 H   0  0  0  0  0  0  0  0  0  0  0  0
    6.2447   -0.5640   -0.8501 H   0  0  0  0  0  0  0  0  0  0  0  0
  1  2  1  0
  2  3  1  0
  3  4  1  0
  4  5  1  0
  5  6  1  0
  6  7  2  0
  7  8  1  0
  8  9  1  0
  9 10  1  0
  8 11  2  0
 11 12  1  0
 12 13  1  0
 11 14  1  0
 14 15  1  0
 15 16  1  0
 14 17  2  0
  5 18  2  0
 18 19  1  0
 19 20  2  0
 20 21  1  0
 21 22  2  0
 21 23  1  0
 23 24  1  0
 24 25  2  0
 24 26  1  0
 26 27  1  0
 27 28  1  0
 28 29  2  0
 29 30  1  0
 30 31  2  0
 31 32  1  0
 32 33  2  0
 20  4  1  0
 33 28  1  0
 17  6  1  0
 26 19  1  0
  1 34  1  0
  1 35  1  0
  1 36  1  0
  2 37  1  0
  2 38  1  0
  3 39  1  0
  3 40  1  0
  7 41  1  0
 10 42  1  0
 10 43  1  0
 10 44  1  0
 13 45  1  0
 13 46  1  0
 13 47  1  0
 16 48  1  0
 16 49  1  0
 16 50  1  0
 17 51  1  0
 23 52  1  0
 27 53  1  0
 27 54  1  0
 29 55  1  0
 30 56  1  0
 31 57  1  0
 32 58  1  0
 33 59  1  0
M  END
$$$$
