
     RDKit          3D

 51 52  0  0  0  0  0  0  0  0999 V2000
    5.0346   -2.1196    0.3356 C   0  0  0  0  0  0  0  0  0  0  0  0
    4.1569   -1.7369   -0.7905 N   0  0  0  0  0  0  0  0  0  0  0  0
    4.3510   -2.6195   -1.9596 C   0  0  0  0  0  0  0  0  0  0  0  0
    4.1664   -0.0819   -1.1340 S   0  0  0  0  0  6  0  0  0  0  0  0
    4.0461    0.6663    0.0975 O   0  0  0  0  0  0  0  0  0  0  0  0
    5.2391    0.1889   -2.0627 O   0  0  0  0  0  0  0  0  0  0  0  0
    2.7165    0.0961   -1.9920 N   0  0  0  0  0  0  0  0  0  0  0  0
    1.5111   -0.1638   -1.2656 C   0  0  0  0  0  0  0  0  0  0  0  0
    0.8982   -1.4045   -1.3950 C   0  0  0  0  0  0  0  0  0  0  0  0
   -0.2714   -1.6921   -0.6829 C   0  0  0  0  0  0  0  0  0  0  0  0
   -0.8761   -0.7344    0.1429 C   0  0  0  0  0  0  0  0  0  0  0  0
   -2.0349   -1.0761    0.9366 N   0  0  0  0  0  0  0  0  0  0  0  0
   -3.2687   -1.9876    0.2387 S   0  0  0  0  0  6  0  0  0  0  0  0
   -2.8231   -3.3440    0.0081 O   0  0  0  0  0  0  0  0  0  0  0  0
   -3.8577   -1.1948   -0.8132 O   0  0  0  0  0  0  0  0  0  0  0  0
   -4.3392   -2.0227    1.5532 N   0  0  0  0  0  0  0  0  0  0  0  0
   -3.8187   -2.7027    2.7647 C   0  0  0  0  0  0  0  0  0  0  0  0
   -5.6844   -2.5273    1.1888 C   0  0  0  0  0  0  0  0  0  0  0  0
   -0.1999    0.4876    0.3151 C   0  0  0  0  0  0  0  0  0  0  0  0
   -0.8134    1.7318    1.4236 S   0  0  0  0  0  6  0  0  0  0  0  0
    0.0437    1.6977    2.5961 O   0  0  0  0  0  0  0  0  0  0  0  0
   -2.2471    1.5181    1.5550 O   0  0  0  0  0  0  0  0  0  0  0  0
   -0.6229    3.3206    0.6426 C   0  0  0  0  0  0  0  0  0  0  0  0
   -1.4458    3.6539   -0.4419 C   0  0  0  0  0  0  0  0  0  0  0  0
   -1.2912    4.8981   -1.0589 C   0  0  0  0  0  0  0  0  0  0  0  0
   -0.3279    5.7986   -0.5892 C   0  0  0  0  0  0  0  0  0  0  0  0
    0.4822    5.4629    0.5014 C   0  0  0  0  0  0  0  0  0  0  0  0
    0.3341    4.2227    1.1258 C   0  0  0  0  0  0  0  0  0  0  0  0
    0.9781    0.7808   -0.3949 C   0  0  0  0  0  0  0  0  0  0  0  0
    4.7492   -1.5838    1.2468 H   0  0  0  0  0  0  0  0  0  0  0  0
    6.0843   -1.9147    0.1042 H   0  0  0  0  0  0  0  0  0  0  0  0
    4.9259   -3.1882    0.5478 H   0  0  0  0  0  0  0  0  0  0  0  0
    4.0128   -3.6319   -1.7102 H   0  0  0  0  0  0  0  0  0  0  0  0
    3.7608   -2.2846   -2.8176 H   0  0  0  0  0  0  0  0  0  0  0  0
    5.4073   -2.6613   -2.2501 H   0  0  0  0  0  0  0  0  0  0  0  0
    2.7378    1.0350   -2.3937 H   0  0  0  0  0  0  0  0  0  0  0  0
    1.3264   -2.1656   -2.0422 H   0  0  0  0  0  0  0  0  0  0  0  0
   -0.6820   -2.6927   -0.7917 H   0  0  0  0  0  0  0  0  0  0  0  0
   -2.5035   -0.2372    1.3133 H   0  0  0  0  0  0  0  0  0  0  0  0
   -4.5350   -2.5892    3.5859 H   0  0  0  0  0  0  0  0  0  0  0  0
   -2.8828   -2.2469    3.1009 H   0  0  0  0  0  0  0  0  0  0  0  0
   -3.6634   -3.7766    2.5849 H   0  0  0  0  0  0  0  0  0  0  0  0
   -6.1165   -1.9263    0.3810 H   0  0  0  0  0  0  0  0  0  0  0  0
   -6.3580   -2.4426    2.0476 H   0  0  0  0  0  0  0  0  0  0  0  0
   -5.6385   -3.5818    0.8841 H   0  0  0  0  0  0  0  0  0  0  0  0
   -2.2087    2.9633   -0.8043 H   0  0  0  0  0  0  0  0  0  0  0  0
   -1.9270    5.1724   -1.9008 H   0  0  0  0  0  0  0  0  0  0  0  0
   -0.2137    6.7702   -1.0696 H   0  0  0  0  0  0  0  0  0  0  0  0
    1.2250    6.1711    0.8695 H   0  0  0  0  0  0  0  0  0  0  0  0
    0.9645    3.9719    1.9795 H   0  0  0  0  0  0  0  0  0  0  0  0
    1.4994    1.7231   -0.2431 H   0  0  0  0  0  0  0  0  0  0  0  0
  1  2  1  0
  2  3  1  0
  2  4  1  0
  4  5  2  0
  4  6  2  0
  4  7  1  0
  7  8  1  0
  8  9  2  0
  9 10  1  0
 10 11  2  0
 11 12  1  0
 12 13  1  0
 13 14  2  0
 13 15  2  0
 13 16  1  0
 16 17  1  0
 16 18  1  0
 11 19  1  0
 19 20  1  0
 20 21  2  0
 20 22  2  0
 20 23  1  0
 23 24  2  0
 24 25  1  0
 25 26  2  0
 26 27  1  0
 27 28  2  0
 19 29  2  0
 29  8  1  0
 28 23  1  0
  1 30  1  0
  1 31  1  0
  1 32  1  0
  3 33  1  0
  3 34  1  0
  3 35  1  0
  7 36  1  0
  9 37  1  0
 10 38  1  0
 12 39  1  0
 17 40  1  0
 17 41  1  0
 17 42  1  0
 18 43  1  0
 18 44  1  0
 18 45  1  0
 24 46  1  0
 25 47  1  0
 26 48  1  0
 27 49  1  0
 28 50  1  0
 29 51  1  0
M  END
$$$$
