
     RDKit          3D

 33 35  0  0  0  0  0  0  0  0999 V2000
    1.1406    0.6563    1.6988 O   0  0  0  0  0  0  0  0  0  0  0  0
    1.5804    0.2307    0.6340 C   0  0  0  0  0  0  0  0  0  0  0  0
    0.8165   -0.1513   -0.4481 N   0  0  0  0  0  0  0  0  0  0  0  0
   -0.5577   -0.2348   -0.4138 C   0  0  0  0  0  0  0  0  0  0  0  0
   -1.2488   -0.0175   -1.9761 S   0  0  0  0  0  0  0  0  0  0  0  0
   -2.7796   -0.0224   -1.3144 C   0  0  0  0  0  0  0  0  0  0  0  0
   -2.8008   -0.2513    0.0333 C   0  0  0  0  0  0  0  0  0  0  0  0
   -1.5005   -0.4535    0.5839 C   0  0  0  0  0  0  0  0  0  0  0  0
   -1.2103   -0.8879    1.9370 C   0  0  0  0  0  0  0  0  0  0  0  0
   -0.3324   -1.6729    2.2700 O   0  0  0  0  0  0  0  0  0  0  0  0
   -2.0758   -0.4210    2.8678 O   0  0  0  0  0  0  0  0  0  0  0  0
   -4.1972   -0.3066    0.5393 C   0  0  0  0  0  0  0  0  0  0  0  0
   -5.0088    0.2813   -0.6578 C   0  0  0  0  0  0  0  0  0  0  0  0
   -4.1187    0.1251   -1.9280 C   0  0  0  0  0  0  0  0  0  0  0  0
    3.0576    0.2563    0.4182 C   0  0  0  0  0  0  0  0  0  0  0  0
    3.7665    1.2680    1.0930 C   0  0  0  0  0  0  0  0  0  0  0  0
    5.1505    1.3893    0.9564 C   0  0  0  0  0  0  0  0  0  0  0  0
    5.8472    0.4963    0.1492 C   0  0  0  0  0  0  0  0  0  0  0  0
    5.1603   -0.5208   -0.5143 C   0  0  0  0  0  0  0  0  0  0  0  0
    3.7702   -0.6492   -0.3814 C   0  0  0  0  0  0  0  0  0  0  0  0
    3.0414   -1.9751   -1.2175 Cl  0  0  0  0  0  0  0  0  0  0  0  0
    1.2421   -0.1877   -1.3659 H   0  0  0  0  0  0  0  0  0  0  0  0
   -1.6920   -0.7832    3.6919 H   0  0  0  0  0  0  0  0  0  0  0  0
   -4.3480    0.2901    1.4429 H   0  0  0  0  0  0  0  0  0  0  0  0
   -4.4942   -1.3428    0.7317 H   0  0  0  0  0  0  0  0  0  0  0  0
   -5.9859   -0.1982   -0.7726 H   0  0  0  0  0  0  0  0  0  0  0  0
   -5.1863    1.3498   -0.4765 H   0  0  0  0  0  0  0  0  0  0  0  0
   -4.3956   -0.7778   -2.4819 H   0  0  0  0  0  0  0  0  0  0  0  0
   -4.2027    0.9980   -2.5810 H   0  0  0  0  0  0  0  0  0  0  0  0
    3.2350    1.9721    1.7327 H   0  0  0  0  0  0  0  0  0  0  0  0
    5.6810    2.1782    1.4848 H   0  0  0  0  0  0  0  0  0  0  0  0
    6.9260    0.5843    0.0434 H   0  0  0  0  0  0  0  0  0  0  0  0
    5.7200   -1.2220   -1.1302 H   0  0  0  0  0  0  0  0  0  0  0  0
  1  2  2  0
  2  3  1  0
  3  4  1  0
  4  5  1  0
  5  6  1  0
  6  7  2  0
  7  8  1  0
  8  9  1  0
  9 10  2  0
  9 11  1  0
  7 12  1  0
 12 13  1  0
 13 14  1  0
  2 15  1  0
 15 16  2  0
 16 17  1  0
 17 18  2  0
 18 19  1  0
 19 20  2  0
 20 21  1  0
  8  4  2  0
 20 15  1  0
 14  6  1  0
  3 22  1  0
 11 23  1  0
 12 24  1  0
 12 25  1  0
 13 26  1  0
 13 27  1  0
 14 28  1  0
 14 29  1  0
 16 30  1  0
 17 31  1  0
 18 32  1  0
 19 33  1  0
M  END
$$$$
