
     RDKit          3D

 32 33  0  0  0  0  0  0  0  0999 V2000
   -5.1037   -0.6323    1.4556 C   0  0  0  0  0  0  0  0  0  0  0  0
   -4.9878   -0.1985    0.0065 C   0  0  0  0  0  0  0  0  0  0  0  0
   -3.6501   -0.4106   -0.4681 O   0  0  0  0  0  0  0  0  0  0  0  0
   -2.7752    0.6001   -0.2355 C   0  0  0  0  0  0  0  0  0  0  0  0
   -3.0283    1.6497    0.3342 O   0  0  0  0  0  0  0  0  0  0  0  0
   -1.4288    0.2602   -0.7723 C   0  0  0  0  0  0  0  0  0  0  0  0
   -0.3962    1.1915   -0.6073 C   0  0  0  0  0  0  0  0  0  0  0  0
    0.8858    0.9200   -1.0928 C   0  0  0  0  0  0  0  0  0  0  0  0
    1.1569   -0.2871   -1.7522 C   0  0  0  0  0  0  0  0  0  0  0  0
    2.5469   -0.5899   -2.2597 C   0  0  0  0  0  0  0  0  0  0  0  0
    3.4748   -1.6781   -1.1396 S   0  0  0  0  0  0  0  0  0  0  0  0
    3.8915   -0.5514    0.1284 C   0  0  0  0  0  0  0  0  0  0  0  0
    4.1726    0.7105   -0.1101 N   0  0  0  0  0  0  0  0  0  0  0  0
    4.4585    1.4016    1.0513 N   0  0  0  0  0  0  0  0  0  0  0  0
    4.4014    0.6347    2.1172 C   0  0  0  0  0  0  0  0  0  0  0  0
    4.6463    1.0538    3.3735 N   0  0  0  0  0  0  0  0  0  0  0  0
    3.9975   -1.0000    1.7762 S   0  0  0  0  0  0  0  0  0  0  0  0
    0.1209   -1.2194   -1.9118 C   0  0  0  0  0  0  0  0  0  0  0  0
   -1.1627   -0.9486   -1.4276 C   0  0  0  0  0  0  0  0  0  0  0  0
   -4.4535   -0.0312    2.0991 H   0  0  0  0  0  0  0  0  0  0  0  0
   -4.7900   -1.6750    1.5711 H   0  0  0  0  0  0  0  0  0  0  0  0
   -6.1336   -0.5324    1.8095 H   0  0  0  0  0  0  0  0  0  0  0  0
   -5.2977    0.8443   -0.1268 H   0  0  0  0  0  0  0  0  0  0  0  0
   -5.6483   -0.8120   -0.6150 H   0  0  0  0  0  0  0  0  0  0  0  0
   -0.5831    2.1346   -0.0963 H   0  0  0  0  0  0  0  0  0  0  0  0
    1.6732    1.6586   -0.9450 H   0  0  0  0  0  0  0  0  0  0  0  0
    3.1028    0.3332   -2.4585 H   0  0  0  0  0  0  0  0  0  0  0  0
    2.4646   -1.0985   -3.2275 H   0  0  0  0  0  0  0  0  0  0  0  0
    4.9341    0.3601    4.0533 H   0  0  0  0  0  0  0  0  0  0  0  0
    5.1464    1.9334    3.4508 H   0  0  0  0  0  0  0  0  0  0  0  0
    0.3083   -2.1675   -2.4128 H   0  0  0  0  0  0  0  0  0  0  0  0
   -1.9434   -1.6922   -1.5676 H   0  0  0  0  0  0  0  0  0  0  0  0
  1  2  1  0
  2  3  1  0
  3  4  1  0
  4  5  2  0
  4  6  1  0
  6  7  2  0
  7  8  1  0
  8  9  2  0
  9 10  1  0
 10 11  1  0
 11 12  1  0
 12 13  2  0
 13 14  1  0
 14 15  2  0
 15 16  1  0
 15 17  1  0
  9 18  1  0
 18 19  2  0
 19  6  1  0
 17 12  1  0
  1 20  1  0
  1 21  1  0
  1 22  1  0
  2 23  1  0
  2 24  1  0
  7 25  1  0
  8 26  1  0
 10 27  1  0
 10 28  1  0
 16 29  1  0
 16 30  1  0
 18 31  1  0
 19 32  1  0
M  END
$$$$
