
     RDKit          3D

 48 50  0  0  0  0  0  0  0  0999 V2000
    3.8164   -3.8368    0.3633 C   0  0  0  0  0  0  0  0  0  0  0  0
    3.6258   -2.4865   -0.0353 O   0  0  0  0  0  0  0  0  0  0  0  0
    2.5177   -1.8428    0.4466 C   0  0  0  0  0  0  0  0  0  0  0  0
    1.4866   -2.4574    1.1629 C   0  0  0  0  0  0  0  0  0  0  0  0
    0.4008   -1.7045    1.6250 C   0  0  0  0  0  0  0  0  0  0  0  0
    0.3461   -0.3281    1.3859 C   0  0  0  0  0  0  0  0  0  0  0  0
   -0.7855    0.4803    1.8787 C   0  0  0  0  0  0  0  0  0  0  0  0
   -1.8308   -0.0667    2.4089 N   0  0  0  0  0  0  0  0  0  0  0  0
   -2.7695    0.8451    2.8056 N   0  0  0  0  0  0  0  0  0  0  0  0
   -4.0956    0.7117    2.5189 C   0  0  0  0  0  0  0  0  0  0  0  0
   -5.0376    1.2339    3.2768 N   0  0  0  0  0  0  0  0  0  0  0  0
   -6.2630    0.9850    2.7255 C   0  0  0  0  0  0  0  0  0  0  0  0
   -7.3896    1.4079    3.3093 O   0  0  0  0  0  0  0  0  0  0  0  0
   -6.2852    0.2716    1.5504 C   0  0  0  0  0  0  0  0  0  0  0  0
   -7.4482   -0.1452    0.7175 C   0  0  0  0  0  0  0  0  0  0  0  0
   -8.0157    1.0356   -0.0340 C   0  0  0  0  0  0  0  0  0  0  0  0
   -7.4937    2.1145   -0.2629 O   0  0  0  0  0  0  0  0  0  0  0  0
   -9.2451    0.7715   -0.5300 O   0  0  0  0  0  0  0  0  0  0  0  0
   -4.6769   -0.1220    1.1193 S   0  0  0  0  0  0  0  0  0  0  0  0
    1.3662    0.2990    0.6762 C   0  0  0  0  0  0  0  0  0  0  0  0
    2.4292   -0.4643    0.1873 C   0  0  0  0  0  0  0  0  0  0  0  0
    3.4165    0.2131   -0.4851 O   0  0  0  0  0  0  0  0  0  0  0  0
    3.3451   -0.0423   -1.8914 C   0  0  0  0  0  0  0  0  0  0  0  0
    4.5063    0.6654   -2.5517 C   0  0  0  0  0  0  0  0  0  0  0  0
    4.4258    2.0284   -2.8659 C   0  0  0  0  0  0  0  0  0  0  0  0
    5.5066    2.6805   -3.4662 C   0  0  0  0  0  0  0  0  0  0  0  0
    6.6742    1.9752   -3.7471 C   0  0  0  0  0  0  0  0  0  0  0  0
    8.0004    2.7766   -4.4981 Cl  0  0  0  0  0  0  0  0  0  0  0  0
    6.7763    0.6251   -3.4236 C   0  0  0  0  0  0  0  0  0  0  0  0
    5.6969   -0.0274   -2.8234 C   0  0  0  0  0  0  0  0  0  0  0  0
    3.0304   -4.4816   -0.0430 H   0  0  0  0  0  0  0  0  0  0  0  0
    4.7689   -4.1793   -0.0515 H   0  0  0  0  0  0  0  0  0  0  0  0
    3.8765   -3.9227    1.4550 H   0  0  0  0  0  0  0  0  0  0  0  0
    1.4960   -3.5197    1.3847 H   0  0  0  0  0  0  0  0  0  0  0  0
   -0.3948   -2.1971    2.1797 H   0  0  0  0  0  0  0  0  0  0  0  0
   -0.7105    1.5774    1.7607 H   0  0  0  0  0  0  0  0  0  0  0  0
   -2.6332    1.2118    3.7495 H   0  0  0  0  0  0  0  0  0  0  0  0
   -7.1155    1.8571    4.1282 H   0  0  0  0  0  0  0  0  0  0  0  0
   -8.2282   -0.5585    1.3659 H   0  0  0  0  0  0  0  0  0  0  0  0
   -7.1671   -0.9110   -0.0123 H   0  0  0  0  0  0  0  0  0  0  0  0
   -9.4926    1.6062   -0.9840 H   0  0  0  0  0  0  0  0  0  0  0  0
    1.3394    1.3678    0.4816 H   0  0  0  0  0  0  0  0  0  0  0  0
    2.3998    0.3412   -2.2991 H   0  0  0  0  0  0  0  0  0  0  0  0
    3.3973   -1.1133   -2.1215 H   0  0  0  0  0  0  0  0  0  0  0  0
    3.5231    2.5895   -2.6374 H   0  0  0  0  0  0  0  0  0  0  0  0
    5.4330    3.7357   -3.7070 H   0  0  0  0  0  0  0  0  0  0  0  0
    7.6897    0.0779   -3.6311 H   0  0  0  0  0  0  0  0  0  0  0  0
    5.7874   -1.0778   -2.5616 H   0  0  0  0  0  0  0  0  0  0  0  0
  1  2  1  0
  2  3  1  0
  3  4  2  0
  4  5  1  0
  5  6  2  0
  6  7  1  0
  7  8  2  3
  8  9  1  0
  9 10  1  0
 10 11  2  0
 11 12  1  0
 12 13  1  0
 12 14  2  0
 14 15  1  0
 15 16  1  0
 16 17  2  0
 16 18  1  0
 14 19  1  0
  6 20  1  0
 20 21  2  0
 21 22  1  0
 22 23  1  0
 23 24  1  0
 24 25  2  0
 25 26  1  0
 26 27  2  0
 27 28  1  0
 27 29  1  0
 29 30  2  0
 21  3  1  0
 30 24  1  0
 19 10  1  0
  1 31  1  0
  1 32  1  0
  1 33  1  0
  4 34  1  0
  5 35  1  0
  7 36  1  0
  9 37  1  0
 13 38  1  0
 15 39  1  0
 15 40  1  0
 18 41  1  0
 20 42  1  0
 23 43  1  0
 23 44  1  0
 25 45  1  0
 26 46  1  0
 29 47  1  0
 30 48  1  0
M  END
$$$$
