
     RDKit          3D

 46 49  0  0  0  0  0  0  0  0999 V2000
    6.3388   -0.8805   -0.8045 C   0  0  0  0  0  0  0  0  0  0  0  0
    5.9820   -0.2543    0.5306 C   0  0  0  0  0  0  0  0  0  0  0  0
    4.6074    0.1554    0.5336 O   0  0  0  0  0  0  0  0  0  0  0  0
    3.7015   -0.7934    0.8939 C   0  0  0  0  0  0  0  0  0  0  0  0
    3.9983   -1.9433    1.1965 O   0  0  0  0  0  0  0  0  0  0  0  0
    2.4035   -0.3146    0.8800 N   0  0  0  0  0  0  0  0  0  0  0  0
    2.0606    1.0450    0.4663 C   0  0  0  0  0  0  0  0  0  0  0  0
    0.6461    1.1057   -0.0951 C   0  0  0  0  0  0  0  0  0  0  0  0
   -0.4090    0.6756    0.9535 C   0  0  0  0  0  0  0  0  0  0  0  0
    0.1751   -0.3798    1.9356 C   0  0  0  0  0  0  0  0  0  0  0  0
    1.3215   -1.1804    1.3265 C   0  0  0  0  0  0  0  0  0  0  0  0
   -0.8134    1.8411    1.8014 N   0  0  0  0  0  0  0  0  0  0  0  0
   -1.7613    2.7641    1.1345 C   0  0  0  0  0  0  0  0  0  0  0  0
   -3.1115    2.1034    0.7849 C   0  0  0  0  0  0  0  0  0  0  0  0
   -2.8730    0.7735    0.1635 C   0  0  0  0  0  0  0  0  0  0  0  0
   -1.6464    0.1422    0.2617 C   0  0  0  0  0  0  0  0  0  0  0  0
   -1.7416   -1.0436   -0.4207 N   0  0  0  0  0  0  0  0  0  0  0  0
   -3.0120   -1.1981   -0.9329 C   0  0  0  0  0  0  0  0  0  0  0  0
   -3.5588   -2.2473   -1.6815 C   0  0  0  0  0  0  0  0  0  0  0  0
   -4.8954   -2.1340   -2.0759 C   0  0  0  0  0  0  0  0  0  0  0  0
   -5.6523   -1.0152   -1.7354 C   0  0  0  0  0  0  0  0  0  0  0  0
   -5.0904    0.0262   -0.9879 C   0  0  0  0  0  0  0  0  0  0  0  0
   -3.7461   -0.0651   -0.5782 C   0  0  0  0  0  0  0  0  0  0  0  0
    7.4002   -1.1416   -0.8391 H   0  0  0  0  0  0  0  0  0  0  0  0
    5.7503   -1.7857   -0.9843 H   0  0  0  0  0  0  0  0  0  0  0  0
    6.1180   -0.1892   -1.6244 H   0  0  0  0  0  0  0  0  0  0  0  0
    6.1999   -0.9318    1.3641 H   0  0  0  0  0  0  0  0  0  0  0  0
    6.5839    0.6472    0.6854 H   0  0  0  0  0  0  0  0  0  0  0  0
    2.1689    1.6961    1.3413 H   0  0  0  0  0  0  0  0  0  0  0  0
    2.7690    1.3922   -0.2932 H   0  0  0  0  0  0  0  0  0  0  0  0
    0.4515    2.1126   -0.4806 H   0  0  0  0  0  0  0  0  0  0  0  0
    0.5990    0.4469   -0.9738 H   0  0  0  0  0  0  0  0  0  0  0  0
    0.5812    0.1196    2.8280 H   0  0  0  0  0  0  0  0  0  0  0  0
   -0.6043   -1.0602    2.3019 H   0  0  0  0  0  0  0  0  0  0  0  0
    1.7009   -1.8987    2.0620 H   0  0  0  0  0  0  0  0  0  0  0  0
    0.9868   -1.7572    0.4580 H   0  0  0  0  0  0  0  0  0  0  0  0
   -1.2960    1.4668    2.6203 H   0  0  0  0  0  0  0  0  0  0  0  0
   -1.9463    3.6121    1.8038 H   0  0  0  0  0  0  0  0  0  0  0  0
   -1.3053    3.1871    0.2323 H   0  0  0  0  0  0  0  0  0  0  0  0
   -3.6771    2.7540    0.1091 H   0  0  0  0  0  0  0  0  0  0  0  0
   -3.7042    1.9691    1.6979 H   0  0  0  0  0  0  0  0  0  0  0  0
   -0.9993   -1.7160   -0.5491 H   0  0  0  0  0  0  0  0  0  0  0  0
   -2.9728   -3.1202   -1.9497 H   0  0  0  0  0  0  0  0  0  0  0  0
   -5.3501   -2.9324   -2.6580 H   0  0  0  0  0  0  0  0  0  0  0  0
   -6.6899   -0.9478   -2.0530 H   0  0  0  0  0  0  0  0  0  0  0  0
   -5.6877    0.8947   -0.7281 H   0  0  0  0  0  0  0  0  0  0  0  0
  1  2  1  0
  2  3  1  0
  3  4  1  0
  4  5  2  0
  4  6  1  0
  6  7  1  0
  7  8  1  0
  8  9  1  0
  9 10  1  0
 10 11  1  0
  9 12  1  0
 12 13  1  0
 13 14  1  0
 14 15  1  0
 15 16  2  0
 16 17  1  0
 17 18  1  0
 18 19  2  0
 19 20  1  0
 20 21  2  0
 21 22  1  0
 22 23  2  0
 11  6  1  0
 23 15  1  0
 16  9  1  0
 23 18  1  0
  1 24  1  0
  1 25  1  0
  1 26  1  0
  2 27  1  0
  2 28  1  0
  7 29  1  0
  7 30  1  0
  8 31  1  0
  8 32  1  0
 10 33  1  0
 10 34  1  0
 11 35  1  0
 11 36  1  0
 12 37  1  0
 13 38  1  0
 13 39  1  0
 14 40  1  0
 14 41  1  0
 17 42  1  0
 19 43  1  0
 20 44  1  0
 21 45  1  0
 22 46  1  0
M  END
$$$$
