
     RDKit          3D

 42 44  0  0  0  0  0  0  0  0999 V2000
    7.6979   -2.3741   -1.5128 C   0  0  0  0  0  0  0  0  0  0  0  0
    7.3761   -1.0120   -1.2613 O   0  0  0  0  0  0  0  0  0  0  0  0
    6.0499   -0.6922   -1.1749 C   0  0  0  0  0  0  0  0  0  0  0  0
    4.9807   -1.5805   -1.3044 C   0  0  0  0  0  0  0  0  0  0  0  0
    3.6624   -1.1199   -1.1917 C   0  0  0  0  0  0  0  0  0  0  0  0
    3.4087    0.2346   -0.9395 C   0  0  0  0  0  0  0  0  0  0  0  0
    2.0210    0.7663   -0.8102 C   0  0  0  0  0  0  0  0  0  0  0  0
    1.7980    1.8894   -1.2422 O   0  0  0  0  0  0  0  0  0  0  0  0
    1.1408   -0.0859   -0.1648 N   0  0  0  0  0  0  0  0  0  0  0  0
   -0.2127    0.1341    0.0672 C   0  0  0  0  0  0  0  0  0  0  0  0
   -1.0121    1.5107   -0.5382 S   0  0  0  0  0  0  0  0  0  0  0  0
   -2.4995    1.0460    0.1396 C   0  0  0  0  0  0  0  0  0  0  0  0
   -2.4136   -0.1605    0.8056 C   0  0  0  0  0  0  0  0  0  0  0  0
   -1.0825   -0.6857    0.7667 C   0  0  0  0  0  0  0  0  0  0  0  0
   -0.6767   -1.9179    1.3735 C   0  0  0  0  0  0  0  0  0  0  0  0
   -0.3199   -2.9162    1.8448 N   0  0  0  0  0  0  0  0  0  0  0  0
   -3.6205   -0.7451    1.4714 C   0  0  0  0  0  0  0  0  0  0  0  0
   -4.9087   -0.1486    0.8795 C   0  0  0  0  0  0  0  0  0  0  0  0
   -4.8421    1.3191    0.7633 N   0  0  0  0  0  0  0  0  0  0  0  0
   -5.9358    2.1551    0.9542 C   0  0  0  0  0  0  0  0  0  0  0  0
   -7.1306    1.5826    1.6725 C   0  0  0  0  0  0  0  0  0  0  0  0
   -5.9484    3.3248    0.5703 O   0  0  0  0  0  0  0  0  0  0  0  0
   -3.7327    1.8821   -0.0238 C   0  0  0  0  0  0  0  0  0  0  0  0
    4.4790    1.1273   -0.8303 C   0  0  0  0  0  0  0  0  0  0  0  0
    5.7910    0.6612   -0.9418 C   0  0  0  0  0  0  0  0  0  0  0  0
    7.3435   -3.0193   -0.7022 H   0  0  0  0  0  0  0  0  0  0  0  0
    7.3027   -2.7007   -2.4804 H   0  0  0  0  0  0  0  0  0  0  0  0
    8.7882   -2.4583   -1.5529 H   0  0  0  0  0  0  0  0  0  0  0  0
    5.1380   -2.6358   -1.5032 H   0  0  0  0  0  0  0  0  0  0  0  0
    2.8500   -1.8276   -1.3342 H   0  0  0  0  0  0  0  0  0  0  0  0
    1.5323   -0.9248    0.2463 H   0  0  0  0  0  0  0  0  0  0  0  0
   -3.6400   -1.8349    1.3632 H   0  0  0  0  0  0  0  0  0  0  0  0
   -3.5708   -0.5145    2.5427 H   0  0  0  0  0  0  0  0  0  0  0  0
   -5.7570   -0.4660    1.4899 H   0  0  0  0  0  0  0  0  0  0  0  0
   -5.0805   -0.5359   -0.1330 H   0  0  0  0  0  0  0  0  0  0  0  0
   -6.8295    1.1578    2.6337 H   0  0  0  0  0  0  0  0  0  0  0  0
   -7.6183    0.8284    1.0497 H   0  0  0  0  0  0  0  0  0  0  0  0
   -7.8505    2.3829    1.8703 H   0  0  0  0  0  0  0  0  0  0  0  0
   -4.0473    1.8942   -1.0742 H   0  0  0  0  0  0  0  0  0  0  0  0
   -3.5454    2.9133    0.2966 H   0  0  0  0  0  0  0  0  0  0  0  0
    4.2962    2.1861   -0.6570 H   0  0  0  0  0  0  0  0  0  0  0  0
    6.6191    1.3607   -0.8509 H   0  0  0  0  0  0  0  0  0  0  0  0
  1  2  1  0
  2  3  1  0
  3  4  2  0
  4  5  1  0
  5  6  2  0
  6  7  1  0
  7  8  2  0
  7  9  1  0
  9 10  1  0
 10 11  1  0
 11 12  1  0
 12 13  2  0
 13 14  1  0
 14 15  1  0
 15 16  3  0
 13 17  1  0
 17 18  1  0
 18 19  1  0
 19 20  1  0
 20 21  1  0
 20 22  2  0
 19 23  1  0
  6 24  1  0
 24 25  2  0
 25  3  1  0
 14 10  2  0
 23 12  1  0
  1 26  1  0
  1 27  1  0
  1 28  1  0
  4 29  1  0
  5 30  1  0
  9 31  1  0
 17 32  1  0
 17 33  1  0
 18 34  1  0
 18 35  1  0
 21 36  1  0
 21 37  1  0
 21 38  1  0
 23 39  1  0
 23 40  1  0
 24 41  1  0
 25 42  1  0
M  END
$$$$
