
     RDKit          3D

 53 58  0  0  0  0  0  0  0  0999 V2000
   -0.9254   -0.6474    2.0877 O   0  0  0  0  0  0  0  0  0  0  0  0
   -1.3997   -0.8691    0.9688 C   0  0  0  0  0  0  0  0  0  0  0  0
   -0.5406   -1.6699   -0.0355 C   0  0  0  0  0  0  0  0  0  0  0  0
    0.8478   -1.1739   -0.0118 N   0  0  0  0  0  4  0  0  0  0  0  0
    1.4025   -0.2180   -0.8628 C   0  0  0  0  0  0  0  0  0  0  0  0
    2.7072    0.0414   -0.4611 C   0  0  0  0  0  0  0  0  0  0  0  0
    3.7106    1.0361   -1.1480 C   0  0  0  0  0  0  0  0  0  0  0  0
    3.2823    1.8238   -2.2245 C   0  0  0  0  0  0  0  0  0  0  0  0
    4.1656    2.7139   -2.8400 C   0  0  0  0  0  0  0  0  0  0  0  0
    5.4786    2.8188   -2.3889 C   0  0  0  0  0  0  0  0  0  0  0  0
    5.9103    2.0330   -1.3236 C   0  0  0  0  0  0  0  0  0  0  0  0
    5.0296    1.1421   -0.7026 C   0  0  0  0  0  0  0  0  0  0  0  0
    2.8639   -0.7682    0.6505 N   0  0  0  0  0  0  0  0  0  0  0  0
    1.7622   -1.4688    0.9073 C   0  0  0  0  0  0  0  0  0  0  0  0
    1.8887   -2.3378    2.0998 C   0  0  0  0  0  0  0  0  0  0  0  0
    3.1617   -1.7803    2.7661 C   0  0  0  0  0  0  0  0  0  0  0  0
    3.9052   -1.0149    1.6380 C   0  0  0  0  0  0  0  0  0  0  0  0
   -2.5957   -0.3420    0.4499 N   0  0  0  0  0  0  0  0  0  0  0  0
   -3.3834   -1.0737   -0.5090 C   0  0  0  0  0  0  0  0  0  0  0  0
   -3.4498   -2.4795   -0.4174 C   0  0  0  0  0  0  0  0  0  0  0  0
   -4.1865   -3.2332   -1.3347 C   0  0  0  0  0  0  0  0  0  0  0  0
   -4.8804   -2.5962   -2.3542 C   0  0  0  0  0  0  0  0  0  0  0  0
   -4.8574   -1.2061   -2.4397 C   0  0  0  0  0  0  0  0  0  0  0  0
   -4.1291   -0.4435   -1.5152 C   0  0  0  0  0  0  0  0  0  0  0  0
   -4.1438    1.3158   -1.6967 S   0  0  0  0  0  0  0  0  0  0  0  0
   -3.8419    1.7664   -0.0044 C   0  0  0  0  0  0  0  0  0  0  0  0
   -4.3063    3.0267    0.4079 C   0  0  0  0  0  0  0  0  0  0  0  0
   -4.0446    3.4934    1.6915 C   0  0  0  0  0  0  0  0  0  0  0  0
   -3.3141    2.7032    2.5670 C   0  0  0  0  0  0  0  0  0  0  0  0
   -2.8459    1.4481    2.1593 C   0  0  0  0  0  0  0  0  0  0  0  0
   -3.0997    0.9463    0.8690 C   0  0  0  0  0  0  0  0  0  0  0  0
   -0.5379   -2.7278    0.2496 H   0  0  0  0  0  0  0  0  0  0  0  0
   -0.8951   -1.5695   -1.0646 H   0  0  0  0  0  0  0  0  0  0  0  0
    0.7884    0.1626   -1.6626 H   0  0  0  0  0  0  0  0  0  0  0  0
    2.2668    1.7780   -2.6061 H   0  0  0  0  0  0  0  0  0  0  0  0
    3.8308    3.3267   -3.6737 H   0  0  0  0  0  0  0  0  0  0  0  0
    6.1662    3.5113   -2.8699 H   0  0  0  0  0  0  0  0  0  0  0  0
    6.9392    2.1136   -0.9787 H   0  0  0  0  0  0  0  0  0  0  0  0
    5.4138    0.5409    0.1111 H   0  0  0  0  0  0  0  0  0  0  0  0
    0.9996   -2.2480    2.7232 H   0  0  0  0  0  0  0  0  0  0  0  0
    2.0243   -3.3567    1.7292 H   0  0  0  0  0  0  0  0  0  0  0  0
    2.8728   -1.0671    3.5468 H   0  0  0  0  0  0  0  0  0  0  0  0
    3.7757   -2.5559    3.2281 H   0  0  0  0  0  0  0  0  0  0  0  0
    4.6812   -1.6389    1.1828 H   0  0  0  0  0  0  0  0  0  0  0  0
    4.3257   -0.0770    2.0116 H   0  0  0  0  0  0  0  0  0  0  0  0
   -2.9813   -3.0150    0.4056 H   0  0  0  0  0  0  0  0  0  0  0  0
   -4.2384   -4.3165   -1.2411 H   0  0  0  0  0  0  0  0  0  0  0  0
   -5.4610   -3.1760   -3.0691 H   0  0  0  0  0  0  0  0  0  0  0  0
   -5.4236   -0.7188   -3.2323 H   0  0  0  0  0  0  0  0  0  0  0  0
   -4.8732    3.6583   -0.2750 H   0  0  0  0  0  0  0  0  0  0  0  0
   -4.4122    4.4679    2.0061 H   0  0  0  0  0  0  0  0  0  0  0  0
   -3.1130    3.0557    3.5765 H   0  0  0  0  0  0  0  0  0  0  0  0
   -2.3208    0.8651    2.9098 H   0  0  0  0  0  0  0  0  0  0  0  0
  1  2  2  0
  2  3  1  0
  3  4  1  0
  4  5  1  0
  5  6  2  0
  6  7  1  0
  7  8  2  0
  8  9  1  0
  9 10  2  0
 10 11  1  0
 11 12  2  0
  6 13  1  0
 13 14  1  0
 14 15  1  0
 15 16  1  0
 16 17  1  0
  2 18  1  0
 18 19  1  0
 19 20  2  0
 20 21  1  0
 21 22  2  0
 22 23  1  0
 23 24  2  0
 24 25  1  0
 25 26  1  0
 26 27  2  0
 27 28  1  0
 28 29  2  0
 29 30  1  0
 30 31  2  0
 14  4  2  0
 31 18  1  0
 12  7  1  0
 17 13  1  0
 24 19  1  0
 31 26  1  0
  3 32  1  0
  3 33  1  0
  5 34  1  0
  8 35  1  0
  9 36  1  0
 10 37  1  0
 11 38  1  0
 12 39  1  0
 15 40  1  0
 15 41  1  0
 16 42  1  0
 16 43  1  0
 17 44  1  0
 17 45  1  0
 20 46  1  0
 21 47  1  0
 22 48  1  0
 23 49  1  0
 27 50  1  0
 28 51  1  0
 29 52  1  0
 30 53  1  0
M  CHG  1   4   1
M  END
$$$$
