
     RDKit          3D

 40 42  0  0  0  0  0  0  0  0999 V2000
   -3.5952   -1.5139   -2.4138 C   0  0  0  0  0  0  0  0  0  0  0  0
   -3.0346   -1.0621   -1.1886 O   0  0  0  0  0  0  0  0  0  0  0  0
   -3.5558    0.0742   -0.6247 C   0  0  0  0  0  0  0  0  0  0  0  0
   -4.5859    0.8335   -1.1928 C   0  0  0  0  0  0  0  0  0  0  0  0
   -5.0752    1.9680   -0.5402 C   0  0  0  0  0  0  0  0  0  0  0  0
   -4.5443    2.3527    0.6865 C   0  0  0  0  0  0  0  0  0  0  0  0
   -3.5170    1.6064    1.2625 C   0  0  0  0  0  0  0  0  0  0  0  0
   -3.0047    0.4725    0.6125 C   0  0  0  0  0  0  0  0  0  0  0  0
   -1.9266   -0.2643    1.2954 C   0  0  0  0  0  0  0  0  0  0  0  0
   -0.7660   -0.5617    0.6946 C   0  0  0  0  0  0  0  0  0  0  0  0
    0.2749   -1.2940    1.4547 C   0  0  0  0  0  0  0  0  0  0  0  0
    1.4627   -1.6492    1.0754 N   0  0  0  0  0  0  0  0  0  0  0  0
    1.7901   -1.4244   -0.2295 N   0  0  0  0  0  0  0  0  0  0  0  0
    2.9527   -0.8132   -0.6156 C   0  0  0  0  0  0  0  0  0  0  0  0
    3.6935    0.0508    0.3087 C   0  0  0  0  0  0  0  0  0  0  0  0
    3.0440    1.1819    0.8250 C   0  0  0  0  0  0  0  0  0  0  0  0
    3.7242    2.0412    1.6891 C   0  0  0  0  0  0  0  0  0  0  0  0
    5.0481    1.7704    2.0323 C   0  0  0  0  0  0  0  0  0  0  0  0
    5.8838    2.8310    3.0985 Cl  0  0  0  0  0  0  0  0  0  0  0  0
    5.6998    0.6485    1.5219 C   0  0  0  0  0  0  0  0  0  0  0  0
    5.0228   -0.2151    0.6554 C   0  0  0  0  0  0  0  0  0  0  0  0
    5.8716   -1.6101    0.0933 Cl  0  0  0  0  0  0  0  0  0  0  0  0
    3.3107   -1.0503   -1.8482 N   0  0  0  0  0  0  0  0  0  0  0  0
    2.3615   -1.9261   -2.3083 N   0  0  0  0  0  0  0  0  0  0  0  0
    1.4754   -2.2659   -1.2845 C   0  0  0  0  0  0  0  0  0  0  0  0
    0.3465   -3.4753   -1.4140 S   0  0  0  0  0  0  0  0  0  0  0  0
   -3.0728   -2.4306   -2.7033 H   0  0  0  0  0  0  0  0  0  0  0  0
   -4.6560   -1.7589   -2.2966 H   0  0  0  0  0  0  0  0  0  0  0  0
   -3.4431   -0.7788   -3.2110 H   0  0  0  0  0  0  0  0  0  0  0  0
   -5.0354    0.5661   -2.1432 H   0  0  0  0  0  0  0  0  0  0  0  0
   -5.8761    2.5488   -0.9913 H   0  0  0  0  0  0  0  0  0  0  0  0
   -4.9288    3.2332    1.1948 H   0  0  0  0  0  0  0  0  0  0  0  0
   -3.1118    1.9222    2.2212 H   0  0  0  0  0  0  0  0  0  0  0  0
   -2.1258   -0.5368    2.3281 H   0  0  0  0  0  0  0  0  0  0  0  0
   -0.5621   -0.2806   -0.3309 H   0  0  0  0  0  0  0  0  0  0  0  0
    0.0103   -1.5316    2.5001 H   0  0  0  0  0  0  0  0  0  0  0  0
    2.0152    1.4019    0.5498 H   0  0  0  0  0  0  0  0  0  0  0  0
    3.2203    2.9188    2.0866 H   0  0  0  0  0  0  0  0  0  0  0  0
    6.7304    0.4448    1.8011 H   0  0  0  0  0  0  0  0  0  0  0  0
    2.4788   -2.4238   -3.1829 H   0  0  0  0  0  0  0  0  0  0  0  0
  1  2  1  0
  2  3  1  0
  3  4  2  0
  4  5  1  0
  5  6  2  0
  6  7  1  0
  7  8  2  0
  8  9  1  0
  9 10  2  3
 10 11  1  0
 11 12  2  3
 12 13  1  0
 13 14  1  0
 14 15  1  0
 15 16  2  0
 16 17  1  0
 17 18  2  0
 18 19  1  0
 18 20  1  0
 20 21  2  0
 21 22  1  0
 14 23  2  0
 23 24  1  0
 24 25  1  0
 25 26  2  0
  8  3  1  0
 25 13  1  0
 21 15  1  0
  1 27  1  0
  1 28  1  0
  1 29  1  0
  4 30  1  0
  5 31  1  0
  6 32  1  0
  7 33  1  0
  9 34  1  0
 10 35  1  0
 11 36  1  0
 16 37  1  0
 17 38  1  0
 20 39  1  0
 24 40  1  0
M  END
$$$$
