
     RDKit          3D

 52 55  0  0  0  0  0  0  0  0999 V2000
   -1.7658   -0.1924   -2.6275 O   0  0  0  0  0  0  0  0  0  0  0  0
   -0.8939   -0.1600   -1.7607 C   0  0  0  0  0  0  0  0  0  0  0  0
   -0.1979   -1.3039   -1.3843 N   0  0  0  0  0  0  0  0  0  0  0  0
   -0.6633   -2.6186   -1.7634 C   0  0  0  0  0  0  0  0  0  0  0  0
   -1.8279   -3.1022   -0.9021 C   0  0  0  0  0  0  0  0  0  0  0  0
   -1.7944   -4.6250   -1.0140 C   0  0  0  0  0  0  0  0  0  0  0  0
   -0.4176   -4.9866   -1.5714 C   0  0  0  0  0  0  0  0  0  0  0  0
    0.3893   -3.6967   -1.5399 C   0  0  0  0  0  0  0  0  0  0  0  0
   -0.3378    1.1537   -1.1415 C   0  0  0  0  0  0  0  0  0  0  0  0
   -1.2595    2.3708   -1.1504 C   0  0  0  0  0  0  0  0  0  0  0  0
   -2.6525    2.2749   -1.0710 C   0  0  0  0  0  0  0  0  0  0  0  0
   -3.4093    3.4371   -1.0614 C   0  0  0  0  0  0  0  0  0  0  0  0
   -2.8845    4.6795   -1.1210 N   0  0  0  0  0  0  0  0  0  0  0  0
   -1.5412    4.7605   -1.1916 C   0  0  0  0  0  0  0  0  0  0  0  0
   -0.7011    3.6571   -1.2062 C   0  0  0  0  0  0  0  0  0  0  0  0
    0.2840    0.9064    0.1881 N   0  0  0  0  0  0  0  0  0  0  0  0
   -0.5587    0.4505    1.2272 C   0  0  0  0  0  0  0  0  0  0  0  0
   -1.7808    0.3988    1.0887 O   0  0  0  0  0  0  0  0  0  0  0  0
    0.0565   -0.1015    2.4268 C   0  0  0  0  0  0  0  0  0  0  0  0
   -0.4695   -0.3060    3.6902 C   0  0  0  0  0  0  0  0  0  0  0  0
    0.5418   -0.9266    4.4614 C   0  0  0  0  0  0  0  0  0  0  0  0
    1.6154   -1.0905    3.6199 C   0  0  0  0  0  0  0  0  0  0  0  0
    1.3275   -0.6132    2.3826 O   0  0  0  0  0  0  0  0  0  0  0  0
    1.5636    1.5080    0.4204 C   0  0  0  0  0  0  0  0  0  0  0  0
    1.7929    2.3141    1.5445 C   0  0  0  0  0  0  0  0  0  0  0  0
    3.0349    2.9226    1.7441 C   0  0  0  0  0  0  0  0  0  0  0  0
    4.0613    2.7349    0.8224 C   0  0  0  0  0  0  0  0  0  0  0  0
    3.8468    1.9404   -0.3005 C   0  0  0  0  0  0  0  0  0  0  0  0
    2.6046    1.3330   -0.5027 C   0  0  0  0  0  0  0  0  0  0  0  0
    0.4022   -1.2284   -0.5703 H   0  0  0  0  0  0  0  0  0  0  0  0
   -0.9659   -2.6011   -2.8183 H   0  0  0  0  0  0  0  0  0  0  0  0
   -1.6862   -2.8068    0.1455 H   0  0  0  0  0  0  0  0  0  0  0  0
   -2.7864   -2.6860   -1.2286 H   0  0  0  0  0  0  0  0  0  0  0  0
   -2.5810   -4.9861   -1.6857 H   0  0  0  0  0  0  0  0  0  0  0  0
   -1.9626   -5.0870   -0.0354 H   0  0  0  0  0  0  0  0  0  0  0  0
    0.0632   -5.7843   -0.9971 H   0  0  0  0  0  0  0  0  0  0  0  0
   -0.5202   -5.3389   -2.6047 H   0  0  0  0  0  0  0  0  0  0  0  0
    0.8720   -3.5794   -0.5613 H   0  0  0  0  0  0  0  0  0  0  0  0
    1.1747   -3.6784   -2.3019 H   0  0  0  0  0  0  0  0  0  0  0  0
    0.4570    1.4032   -1.8584 H   0  0  0  0  0  0  0  0  0  0  0  0
   -3.1566    1.3146   -1.0087 H   0  0  0  0  0  0  0  0  0  0  0  0
   -4.4930    3.3930   -1.0007 H   0  0  0  0  0  0  0  0  0  0  0  0
   -1.1404    5.7690   -1.2374 H   0  0  0  0  0  0  0  0  0  0  0  0
    0.3728    3.8065   -1.2600 H   0  0  0  0  0  0  0  0  0  0  0  0
   -1.4687   -0.0339    4.0039 H   0  0  0  0  0  0  0  0  0  0  0  0
    0.4907   -1.2278    5.4985 H   0  0  0  0  0  0  0  0  0  0  0  0
    2.6033   -1.5138    3.7390 H   0  0  0  0  0  0  0  0  0  0  0  0
    1.0047    2.5109    2.2669 H   0  0  0  0  0  0  0  0  0  0  0  0
    3.1967    3.5485    2.6185 H   0  0  0  0  0  0  0  0  0  0  0  0
    5.0278    3.2070    0.9800 H   0  0  0  0  0  0  0  0  0  0  0  0
    4.6496    1.7865   -1.0174 H   0  0  0  0  0  0  0  0  0  0  0  0
    2.4833    0.6934   -1.3734 H   0  0  0  0  0  0  0  0  0  0  0  0
  1  2  2  0
  2  3  1  0
  3  4  1  0
  4  5  1  0
  5  6  1  0
  6  7  1  0
  7  8  1  0
  2  9  1  0
  9 10  1  0
 10 11  2  0
 11 12  1  0
 12 13  2  0
 13 14  1  0
 14 15  2  0
  9 16  1  0
 16 17  1  0
 17 18  2  0
 17 19  1  0
 19 20  2  0
 20 21  1  0
 21 22  2  0
 22 23  1  0
 16 24  1  0
 24 25  2  0
 25 26  1  0
 26 27  2  0
 27 28  1  0
 28 29  2  0
  8  4  1  0
 15 10  1  0
 23 19  1  0
 29 24  1  0
  3 30  1  0
  4 31  1  0
  5 32  1  0
  5 33  1  0
  6 34  1  0
  6 35  1  0
  7 36  1  0
  7 37  1  0
  8 38  1  0
  8 39  1  0
  9 40  1  0
 11 41  1  0
 12 42  1  0
 14 43  1  0
 15 44  1  0
 20 45  1  0
 21 46  1  0
 22 47  1  0
 25 48  1  0
 26 49  1  0
 27 50  1  0
 28 51  1  0
 29 52  1  0
M  END
$$$$
