
     RDKit          3D

 37 37  0  0  0  0  0  0  0  0999 V2000
    5.2858   -0.2172   -1.6677 C   0  0  0  0  0  0  0  0  0  0  0  0
    3.9698    0.4613   -1.3222 C   0  0  0  0  0  0  0  0  0  0  0  0
    3.4441    0.0039    0.0382 C   0  0  0  0  0  0  0  0  0  0  0  0
    2.1197    0.6892    0.3819 C   0  0  0  0  0  0  0  0  0  0  0  0
    1.5922    0.2251    1.7410 C   0  0  0  0  0  0  0  0  0  0  0  0
    0.3268    0.9629    2.1891 C   0  0  0  0  0  0  0  0  0  0  0  0
   -0.8783    0.8502    1.2511 C   0  0  0  0  0  0  0  0  0  0  0  0
   -1.3428   -0.5910    1.0270 C   0  0  0  0  0  0  0  0  0  0  0  0
   -2.5638   -0.6132    0.2036 N   0  0  0  0  0  0  0  0  0  0  0  0
   -2.4908   -0.6317   -1.1842 C   0  0  0  0  0  0  0  0  0  0  0  0
   -3.5539   -0.6226   -1.9978 C   0  0  0  0  0  0  0  0  0  0  0  0
   -4.9045   -0.5848   -1.3855 C   0  0  0  0  0  0  0  0  0  0  0  0
   -5.9547   -0.5807   -2.1409 N   0  0  0  0  0  0  0  0  0  0  0  0
   -4.9759   -0.5498    0.0995 C   0  0  0  0  0  0  0  0  0  0  0  0
   -3.8247   -0.5633    0.7845 C   0  0  0  0  0  0  0  0  0  0  0  0
    5.6434    0.1243   -2.6441 H   0  0  0  0  0  0  0  0  0  0  0  0
    5.1671   -1.3046   -1.7106 H   0  0  0  0  0  0  0  0  0  0  0  0
    6.0544    0.0157   -0.9239 H   0  0  0  0  0  0  0  0  0  0  0  0
    4.1154    1.5478   -1.3192 H   0  0  0  0  0  0  0  0  0  0  0  0
    3.2331    0.2348   -2.1017 H   0  0  0  0  0  0  0  0  0  0  0  0
    4.1868    0.2289    0.8132 H   0  0  0  0  0  0  0  0  0  0  0  0
    3.3035   -1.0839    0.0311 H   0  0  0  0  0  0  0  0  0  0  0  0
    1.3876    0.4642   -0.4019 H   0  0  0  0  0  0  0  0  0  0  0  0
    2.2610    1.7767    0.3940 H   0  0  0  0  0  0  0  0  0  0  0  0
    1.4095   -0.8554    1.7197 H   0  0  0  0  0  0  0  0  0  0  0  0
    2.3663    0.3896    2.5012 H   0  0  0  0  0  0  0  0  0  0  0  0
    0.5647    2.0260    2.3194 H   0  0  0  0  0  0  0  0  0  0  0  0
    0.0408    0.5887    3.1800 H   0  0  0  0  0  0  0  0  0  0  0  0
   -1.7017    1.4320    1.6854 H   0  0  0  0  0  0  0  0  0  0  0  0
   -0.6529    1.3265    0.2897 H   0  0  0  0  0  0  0  0  0  0  0  0
   -1.5312   -1.0797    1.9913 H   0  0  0  0  0  0  0  0  0  0  0  0
   -0.5591   -1.1772    0.5327 H   0  0  0  0  0  0  0  0  0  0  0  0
   -1.4836   -0.6548   -1.5903 H   0  0  0  0  0  0  0  0  0  0  0  0
   -3.4814   -0.6390   -3.0760 H   0  0  0  0  0  0  0  0  0  0  0  0
   -6.8066   -0.5525   -1.5741 H   0  0  0  0  0  0  0  0  0  0  0  0
   -5.9409   -0.5120    0.5828 H   0  0  0  0  0  0  0  0  0  0  0  0
   -3.8254   -0.5344    1.8703 H   0  0  0  0  0  0  0  0  0  0  0  0
  1  2  1  0
  2  3  1  0
  3  4  1  0
  4  5  1  0
  5  6  1  0
  6  7  1  0
  7  8  1  0
  8  9  1  0
  9 10  1  0
 10 11  2  0
 11 12  1  0
 12 13  2  3
 12 14  1  0
 14 15  2  0
 15  9  1  0
  1 16  1  0
  1 17  1  0
  1 18  1  0
  2 19  1  0
  2 20  1  0
  3 21  1  0
  3 22  1  0
  4 23  1  0
  4 24  1  0
  5 25  1  0
  5 26  1  0
  6 27  1  0
  6 28  1  0
  7 29  1  0
  7 30  1  0
  8 31  1  0
  8 32  1  0
 10 33  1  0
 11 34  1  0
 13 35  1  0
 14 36  1  0
 15 37  1  0
M  END
$$$$
