
     RDKit          3D

 31 31  0  0  0  0  0  0  0  0999 V2000
    4.3818   -0.9197    0.6605 N   0  0  0  0  0  0  0  0  0  0  0  0
    4.2776   -1.0802   -0.6849 C   0  0  0  0  0  0  0  0  0  0  0  0
    5.5764   -1.5513   -1.5994 S   0  0  0  0  0  0  0  0  0  0  0  0
    3.0458   -0.8564   -1.2204 N   0  0  0  0  0  0  0  0  0  0  0  0
    1.9173   -0.6728   -0.4100 N   0  0  0  0  0  0  0  0  0  0  0  0
    0.7380   -0.3244   -1.0495 C   0  0  0  0  0  0  0  0  0  0  0  0
    0.6922   -0.0508   -2.2470 O   0  0  0  0  0  0  0  0  0  0  0  0
   -0.5029   -0.4106   -0.1584 C   0  0  0  0  0  0  0  0  0  0  0  0
   -0.3014    0.2551    1.2168 C   0  0  0  0  0  0  0  0  0  0  0  0
   -1.6024    0.6959    1.8881 C   0  0  0  0  0  0  0  0  0  0  0  0
   -2.7715   -0.1802    1.4686 C   0  0  0  0  0  0  0  0  0  0  0  0
   -3.0382   -0.0827   -0.0341 C   0  0  0  0  0  0  0  0  0  0  0  0
   -1.7695    0.0724   -0.8933 C   0  0  0  0  0  0  0  0  0  0  0  0
   -1.6998    1.4857   -1.4467 C   0  0  0  0  0  0  0  0  0  0  0  0
   -2.4556    1.9460   -2.2895 O   0  0  0  0  0  0  0  0  0  0  0  0
   -0.7640    2.2722   -0.8909 O   0  0  0  0  0  0  0  0  0  0  0  0
    3.8068   -0.1847    1.0545 H   0  0  0  0  0  0  0  0  0  0  0  0
    5.3286   -0.9562    1.0244 H   0  0  0  0  0  0  0  0  0  0  0  0
    2.8877   -0.9431   -2.2259 H   0  0  0  0  0  0  0  0  0  0  0  0
    1.8802   -1.2689    0.4131 H   0  0  0  0  0  0  0  0  0  0  0  0
   -0.6423   -1.4876    0.0233 H   0  0  0  0  0  0  0  0  0  0  0  0
    0.3814    1.1120    1.1569 H   0  0  0  0  0  0  0  0  0  0  0  0
    0.1995   -0.4676    1.8758 H   0  0  0  0  0  0  0  0  0  0  0  0
   -1.8174    1.7409    1.6312 H   0  0  0  0  0  0  0  0  0  0  0  0
   -1.4798    0.6652    2.9770 H   0  0  0  0  0  0  0  0  0  0  0  0
   -2.5594   -1.2232    1.7368 H   0  0  0  0  0  0  0  0  0  0  0  0
   -3.6750    0.1046    2.0195 H   0  0  0  0  0  0  0  0  0  0  0  0
   -3.7309    0.7490   -0.2159 H   0  0  0  0  0  0  0  0  0  0  0  0
   -3.5748   -0.9889   -0.3434 H   0  0  0  0  0  0  0  0  0  0  0  0
   -1.8881   -0.5574   -1.7871 H   0  0  0  0  0  0  0  0  0  0  0  0
   -0.8401    3.1076   -1.4001 H   0  0  0  0  0  0  0  0  0  0  0  0
  1  2  1  0
  2  3  2  0
  2  4  1  0
  4  5  1  0
  5  6  1  0
  6  7  2  0
  6  8  1  0
  8  9  1  0
  9 10  1  0
 10 11  1  0
 11 12  1  0
 12 13  1  0
 13 14  1  0
 14 15  2  0
 14 16  1  0
 13  8  1  0
  1 17  1  0
  1 18  1  0
  4 19  1  0
  5 20  1  0
  8 21  1  0
  9 22  1  0
  9 23  1  0
 10 24  1  0
 10 25  1  0
 11 26  1  0
 11 27  1  0
 12 28  1  0
 12 29  1  0
 13 30  1  0
 16 31  1  0
M  END
$$$$
