
     RDKit          3D

 28 30  0  0  0  0  0  0  0  0999 V2000
   -0.5668    1.8124    1.3476 O   0  0  0  0  0  0  0  0  0  0  0  0
   -0.8259    0.6332    1.1221 C   0  0  0  0  0  0  0  0  0  0  0  0
   -2.1133    0.2691    0.5382 C   0  0  0  0  0  0  0  0  0  0  0  0
   -3.0854    1.2291    0.2320 C   0  0  0  0  0  0  0  0  0  0  0  0
   -4.2970    0.8234   -0.3241 C   0  0  0  0  0  0  0  0  0  0  0  0
   -4.5266   -0.5298   -0.5688 C   0  0  0  0  0  0  0  0  0  0  0  0
   -3.5433   -1.4741   -0.2565 C   0  0  0  0  0  0  0  0  0  0  0  0
   -2.3219   -1.0800    0.3027 C   0  0  0  0  0  0  0  0  0  0  0  0
   -1.3663   -2.0576    0.5980 N   0  0  0  0  0  0  0  0  0  0  0  0
   -0.2694   -1.7261    1.0958 N   0  0  0  0  0  0  0  0  0  0  0  0
    0.0248   -0.4218    1.3803 N   0  0  0  0  0  0  0  0  0  0  0  0
    1.3488   -0.1743    1.9380 C   0  0  0  0  0  0  0  0  0  0  0  0
    2.4204   -0.0510    0.8768 C   0  0  0  0  0  0  0  0  0  0  0  0
    2.5206    1.1033    0.1004 C   0  0  0  0  0  0  0  0  0  0  0  0
    3.5124    1.1782   -0.8736 C   0  0  0  0  0  0  0  0  0  0  0  0
    4.3764    0.1052   -1.0499 C   0  0  0  0  0  0  0  0  0  0  0  0
    4.2135   -1.0038   -0.2385 C   0  0  0  0  0  0  0  0  0  0  0  0
    3.2630   -1.1045    0.7165 N   0  0  0  0  0  0  0  0  0  0  0  0
   -2.8986    2.2828    0.4262 H   0  0  0  0  0  0  0  0  0  0  0  0
   -5.0598    1.5598   -0.5660 H   0  0  0  0  0  0  0  0  0  0  0  0
   -5.4702   -0.8524   -1.0030 H   0  0  0  0  0  0  0  0  0  0  0  0
   -3.7291   -2.5282   -0.4510 H   0  0  0  0  0  0  0  0  0  0  0  0
    1.3351    0.7398    2.5435 H   0  0  0  0  0  0  0  0  0  0  0  0
    1.5928   -0.9987    2.6194 H   0  0  0  0  0  0  0  0  0  0  0  0
    1.8387    1.9358    0.2481 H   0  0  0  0  0  0  0  0  0  0  0  0
    3.6070    2.0676   -1.4901 H   0  0  0  0  0  0  0  0  0  0  0  0
    5.1574    0.1318   -1.8011 H   0  0  0  0  0  0  0  0  0  0  0  0
    4.8626   -1.8692   -0.3371 H   0  0  0  0  0  0  0  0  0  0  0  0
  1  2  2  0
  2  3  1  0
  3  4  2  0
  4  5  1  0
  5  6  2  0
  6  7  1  0
  7  8  2  0
  8  9  1  0
  9 10  2  0
 10 11  1  0
 11 12  1  0
 12 13  1  0
 13 14  2  0
 14 15  1  0
 15 16  2  0
 16 17  1  0
 17 18  2  0
 11  2  1  0
 18 13  1  0
  8  3  1  0
  4 19  1  0
  5 20  1  0
  6 21  1  0
  7 22  1  0
 12 23  1  0
 12 24  1  0
 14 25  1  0
 15 26  1  0
 16 27  1  0
 17 28  1  0
M  END
$$$$
