
     RDKit          3D

 85 88  0  0  0  0  0  0  0  0999 V2000
    1.6201   -3.6377    0.6541 C   0  0  0  0  0  0  0  0  0  0  0  0
    2.3914   -3.2271    1.8984 C   0  0  0  0  0  0  0  0  0  0  0  0
    3.9056   -3.1322    1.6951 C   0  0  0  0  0  0  0  0  0  0  0  0
    4.4058   -2.1832    0.5981 C   0  0  0  0  0  0  0  0  0  0  0  0
    4.3979   -0.6874    0.9596 C   0  0  0  0  0  0  0  0  0  0  0  0
    3.0458   -0.0123    0.9335 C   0  0  0  0  0  0  0  0  0  0  0  0
    2.5068    0.3760    2.1008 C   0  0  0  0  0  0  0  0  0  0  0  0
    1.1626    0.9368    2.2322 C   0  0  0  0  0  0  0  0  0  0  0  0
    0.7213    1.2824    3.3208 O   0  0  0  0  0  0  0  0  0  0  0  0
    0.4205    0.9805    1.0745 O   0  0  0  0  0  0  0  0  0  0  0  0
    0.9631    0.6971   -0.2031 C   0  0  0  0  0  0  0  0  0  0  0  0
    0.1029    0.9204   -1.3039 C   0  0  0  0  0  0  0  0  0  0  0  0
   -1.3597    1.3552   -1.1158 C   0  0  0  0  0  0  0  0  0  0  0  0
   -2.2058    0.2750   -0.3878 C   0  0  0  0  0  0  0  0  0  0  0  0
   -2.2454   -1.0538   -1.1644 C   0  0  0  0  0  0  0  0  0  0  0  0
   -3.1294   -2.0615   -0.5505 N   0  0  0  0  0  0  0  0  0  0  0  0
   -3.3145   -3.2253   -1.4315 C   0  0  0  0  0  0  0  0  0  0  0  0
   -2.3921   -4.3933   -1.0980 C   0  0  0  0  0  0  0  0  0  0  0  0
   -2.6223   -4.8997    0.3252 C   0  0  0  0  0  0  0  0  0  0  0  0
   -3.1835   -3.8099    1.2517 C   0  0  0  0  0  0  0  0  0  0  0  0
   -2.8142   -4.0934    2.7067 C   0  0  0  0  0  0  0  0  0  0  0  0
   -2.6950   -2.4213    0.8122 C   0  0  0  0  0  0  0  0  0  0  0  0
   -1.4708    2.7689   -0.5427 C   0  0  0  0  0  0  0  0  0  0  0  0
   -1.1368    3.8613   -1.3516 C   0  0  0  0  0  0  0  0  0  0  0  0
   -1.2140    5.1766   -0.8671 C   0  0  0  0  0  0  0  0  0  0  0  0
   -1.6114    5.4713    0.4471 C   0  0  0  0  0  0  0  0  0  0  0  0
   -1.6996    6.7855    0.9268 N   0  0  0  0  0  0  0  0  0  0  0  0
   -1.0573    7.8572    0.1696 C   0  0  0  0  0  0  0  0  0  0  0  0
   -1.7817    6.9968    2.3714 C   0  0  0  0  0  0  0  0  0  0  0  0
   -1.9576    4.3620    1.2366 C   0  0  0  0  0  0  0  0  0  0  0  0
   -1.8878    3.0420    0.7607 C   0  0  0  0  0  0  0  0  0  0  0  0
    0.6270    0.7255   -2.5926 C   0  0  0  0  0  0  0  0  0  0  0  0
   -0.2260    0.9589   -3.6400 O   0  0  0  0  0  0  0  0  0  0  0  0
    0.2693    0.8004   -4.9627 C   0  0  0  0  0  0  0  0  0  0  0  0
    1.9562    0.3199   -2.7440 C   0  0  0  0  0  0  0  0  0  0  0  0
    2.7811    0.0682   -1.6330 C   0  0  0  0  0  0  0  0  0  0  0  0
    4.0988   -0.2799   -1.7951 O   0  0  0  0  0  0  0  0  0  0  0  0
    4.4455   -0.9948   -2.9763 C   0  0  0  0  0  0  0  0  0  0  0  0
    2.2916    0.2463   -0.3230 C   0  0  0  0  0  0  0  0  0  0  0  0
    2.0296   -4.5560    0.2221 H   0  0  0  0  0  0  0  0  0  0  0  0
    1.6364   -2.8558   -0.1110 H   0  0  0  0  0  0  0  0  0  0  0  0
    0.5715   -3.8218    0.9111 H   0  0  0  0  0  0  0  0  0  0  0  0
    1.9882   -2.2887    2.2842 H   0  0  0  0  0  0  0  0  0  0  0  0
    2.2039   -3.9749    2.6799 H   0  0  0  0  0  0  0  0  0  0  0  0
    4.3747   -2.8639    2.6498 H   0  0  0  0  0  0  0  0  0  0  0  0
    4.2711   -4.1388    1.4529 H   0  0  0  0  0  0  0  0  0  0  0  0
    5.4532   -2.4502    0.4021 H   0  0  0  0  0  0  0  0  0  0  0  0
    3.8742   -2.3779   -0.3371 H   0  0  0  0  0  0  0  0  0  0  0  0
    5.0923   -0.1426    0.3104 H   0  0  0  0  0  0  0  0  0  0  0  0
    4.8500   -0.5851    1.9566 H   0  0  0  0  0  0  0  0  0  0  0  0
    3.0207    0.2373    3.0459 H   0  0  0  0  0  0  0  0  0  0  0  0
   -1.8405    1.4394   -2.1002 H   0  0  0  0  0  0  0  0  0  0  0  0
   -3.2347    0.6436   -0.2760 H   0  0  0  0  0  0  0  0  0  0  0  0
   -1.8271    0.1026    0.6242 H   0  0  0  0  0  0  0  0  0  0  0  0
   -1.2359   -1.4682   -1.2716 H   0  0  0  0  0  0  0  0  0  0  0  0
   -2.6108   -0.8312   -2.1751 H   0  0  0  0  0  0  0  0  0  0  0  0
   -3.2013   -2.9528   -2.4879 H   0  0  0  0  0  0  0  0  0  0  0  0
   -4.3555   -3.5591   -1.3316 H   0  0  0  0  0  0  0  0  0  0  0  0
   -1.3470   -4.0777   -1.2111 H   0  0  0  0  0  0  0  0  0  0  0  0
   -2.5464   -5.2138   -1.8089 H   0  0  0  0  0  0  0  0  0  0  0  0
   -3.3275   -5.7392    0.3072 H   0  0  0  0  0  0  0  0  0  0  0  0
   -1.6788   -5.3043    0.7102 H   0  0  0  0  0  0  0  0  0  0  0  0
   -4.2804   -3.8252    1.1828 H   0  0  0  0  0  0  0  0  0  0  0  0
   -3.2075   -5.0649    3.0220 H   0  0  0  0  0  0  0  0  0  0  0  0
   -1.7286   -4.1036    2.8478 H   0  0  0  0  0  0  0  0  0  0  0  0
   -3.2337   -3.3304    3.3704 H   0  0  0  0  0  0  0  0  0  0  0  0
   -3.0838   -1.6694    1.5101 H   0  0  0  0  0  0  0  0  0  0  0  0
   -1.5985   -2.3988    0.8907 H   0  0  0  0  0  0  0  0  0  0  0  0
   -0.8127    3.7002   -2.3782 H   0  0  0  0  0  0  0  0  0  0  0  0
   -0.9497    5.9671   -1.5620 H   0  0  0  0  0  0  0  0  0  0  0  0
    0.0221    7.6889    0.0836 H   0  0  0  0  0  0  0  0  0  0  0  0
   -1.2032    8.8284    0.6566 H   0  0  0  0  0  0  0  0  0  0  0  0
   -1.4959    7.9555   -0.8293 H   0  0  0  0  0  0  0  0  0  0  0  0
   -2.6999    6.5656    2.7844 H   0  0  0  0  0  0  0  0  0  0  0  0
   -0.9111    6.5713    2.8832 H   0  0  0  0  0  0  0  0  0  0  0  0
   -1.8181    8.0647    2.6150 H   0  0  0  0  0  0  0  0  0  0  0  0
   -2.2951    4.4875    2.2609 H   0  0  0  0  0  0  0  0  0  0  0  0
   -2.1575    2.2417    1.4452 H   0  0  0  0  0  0  0  0  0  0  0  0
   -0.5425    1.0443   -5.6549 H   0  0  0  0  0  0  0  0  0  0  0  0
    1.0942    1.4930   -5.1629 H   0  0  0  0  0  0  0  0  0  0  0  0
    0.5662   -0.2373   -5.1501 H   0  0  0  0  0  0  0  0  0  0  0  0
    2.3702    0.2139   -3.7391 H   0  0  0  0  0  0  0  0  0  0  0  0
    3.7307   -1.7968   -3.1913 H   0  0  0  0  0  0  0  0  0  0  0  0
    4.5419   -0.3119   -3.8262 H   0  0  0  0  0  0  0  0  0  0  0  0
    5.4236   -1.4566   -2.8094 H   0  0  0  0  0  0  0  0  0  0  0  0
  1  2  1  0
  2  3  1  0
  3  4  1  0
  4  5  1  0
  5  6  1  0
  6  7  2  0
  7  8  1  0
  8  9  2  0
  8 10  1  0
 10 11  1  0
 11 12  2  0
 12 13  1  0
 13 14  1  0
 14 15  1  0
 15 16  1  0
 16 17  1  0
 17 18  1  0
 18 19  1  0
 19 20  1  0
 20 21  1  0
 20 22  1  0
 13 23  1  0
 23 24  2  0
 24 25  1  0
 25 26  2  0
 26 27  1  0
 27 28  1  0
 27 29  1  0
 26 30  1  0
 30 31  2  0
 12 32  1  0
 32 33  1  0
 33 34  1  0
 32 35  2  0
 35 36  1  0
 36 37  1  0
 37 38  1  0
 36 39  2  0
 39  6  1  0
 39 11  1  0
 22 16  1  0
 31 23  1  0
  1 40  1  0
  1 41  1  0
  1 42  1  0
  2 43  1  0
  2 44  1  0
  3 45  1  0
  3 46  1  0
  4 47  1  0
  4 48  1  0
  5 49  1  0
  5 50  1  0
  7 51  1  0
 13 52  1  0
 14 53  1  0
 14 54  1  0
 15 55  1  0
 15 56  1  0
 17 57  1  0
 17 58  1  0
 18 59  1  0
 18 60  1  0
 19 61  1  0
 19 62  1  0
 20 63  1  0
 21 64  1  0
 21 65  1  0
 21 66  1  0
 22 67  1  0
 22 68  1  0
 24 69  1  0
 25 70  1  0
 28 71  1  0
 28 72  1  0
 28 73  1  0
 29 74  1  0
 29 75  1  0
 29 76  1  0
 30 77  1  0
 31 78  1  0
 34 79  1  0
 34 80  1  0
 34 81  1  0
 35 82  1  0
 38 83  1  0
 38 84  1  0
 38 85  1  0
M  END
$$$$
