
     RDKit          3D

 46 49  0  0  0  0  0  0  0  0999 V2000
   -2.2440    0.1578   -2.5320 C   0  0  0  0  0  0  0  0  0  0  0  0
   -2.7006    0.6184   -1.1546 C   0  0  0  0  0  0  0  0  0  0  0  0
   -2.6044   -0.4909   -0.0859 C   0  0  0  0  0  0  0  0  0  0  0  0
   -3.6149   -1.6295   -0.2999 C   0  0  0  0  0  0  0  0  0  0  0  0
   -5.0659   -1.1863   -0.1144 C   0  0  0  0  0  0  0  0  0  0  0  0
   -5.2239   -0.0738    0.9211 C   0  0  0  0  0  0  0  0  0  0  0  0
   -4.0712   -0.0342    1.9146 C   0  0  0  0  0  0  0  0  0  0  0  0
   -2.7582    0.0714    1.2758 N   0  0  0  0  0  0  0  0  0  0  0  0
   -1.6856    0.4391    2.1085 C   0  0  0  0  0  0  0  0  0  0  0  0
   -1.8706    0.7388    3.2881 O   0  0  0  0  0  0  0  0  0  0  0  0
   -0.3562    0.4550    1.5329 C   0  0  0  0  0  0  0  0  0  0  0  0
    0.2373    1.4189    0.7440 C   0  0  0  0  0  0  0  0  0  0  0  0
    1.5727    1.0625    0.3917 C   0  0  0  0  0  0  0  0  0  0  0  0
    2.5230    1.7826   -0.4297 C   0  0  0  0  0  0  0  0  0  0  0  0
    2.2227    2.8524   -0.9572 O   0  0  0  0  0  0  0  0  0  0  0  0
    3.7703    1.1470   -0.5614 N   0  0  0  0  0  0  0  0  0  0  0  0
    4.7478    1.7713   -1.3294 C   0  0  0  0  0  0  0  0  0  0  0  0
    5.9582    1.2345   -1.5107 C   0  0  0  0  0  0  0  0  0  0  0  0
    6.2839   -0.0255   -0.9042 C   0  0  0  0  0  0  0  0  0  0  0  0
    5.3919   -0.6861   -0.1504 C   0  0  0  0  0  0  0  0  0  0  0  0
    5.6839   -2.0004    0.5043 C   0  0  0  0  0  0  0  0  0  0  0  0
    4.0238   -0.0907    0.0610 C   0  0  0  0  0  0  0  0  0  0  0  0
    3.1603   -0.7375    0.7930 N   0  0  0  0  0  0  0  0  0  0  0  0
    1.9591   -0.1350    0.9408 C   0  0  0  0  0  0  0  0  0  0  0  0
    0.7210   -0.8274    1.8889 S   0  0  0  0  0  0  0  0  0  0  0  0
   -2.2545    1.0003   -3.2312 H   0  0  0  0  0  0  0  0  0  0  0  0
   -1.2238   -0.2373   -2.4959 H   0  0  0  0  0  0  0  0  0  0  0  0
   -2.9028   -0.6157   -2.9363 H   0  0  0  0  0  0  0  0  0  0  0  0
   -2.0833    1.4732   -0.8609 H   0  0  0  0  0  0  0  0  0  0  0  0
   -3.7204    1.0081   -1.2326 H   0  0  0  0  0  0  0  0  0  0  0  0
   -1.6083   -0.9392   -0.1598 H   0  0  0  0  0  0  0  0  0  0  0  0
   -3.4916   -2.0965   -1.2829 H   0  0  0  0  0  0  0  0  0  0  0  0
   -3.4021   -2.4192    0.4340 H   0  0  0  0  0  0  0  0  0  0  0  0
   -5.4800   -0.8450   -1.0708 H   0  0  0  0  0  0  0  0  0  0  0  0
   -5.6643   -2.0565    0.1816 H   0  0  0  0  0  0  0  0  0  0  0  0
   -5.2851    0.8927    0.4065 H   0  0  0  0  0  0  0  0  0  0  0  0
   -6.1755   -0.1951    1.4514 H   0  0  0  0  0  0  0  0  0  0  0  0
   -4.2090    0.8088    2.6015 H   0  0  0  0  0  0  0  0  0  0  0  0
   -4.0645   -0.9481    2.5216 H   0  0  0  0  0  0  0  0  0  0  0  0
   -0.2551    2.3339    0.4350 H   0  0  0  0  0  0  0  0  0  0  0  0
    4.4882    2.7253   -1.7826 H   0  0  0  0  0  0  0  0  0  0  0  0
    6.7103    1.7351   -2.1124 H   0  0  0  0  0  0  0  0  0  0  0  0
    7.2797   -0.4234   -1.0774 H   0  0  0  0  0  0  0  0  0  0  0  0
    4.9942   -2.7713    0.1454 H   0  0  0  0  0  0  0  0  0  0  0  0
    5.5858   -1.9194    1.5918 H   0  0  0  0  0  0  0  0  0  0  0  0
    6.7018   -2.3434    0.2900 H   0  0  0  0  0  0  0  0  0  0  0  0
  1  2  1  0
  2  3  1  0
  3  4  1  0
  4  5  1  0
  5  6  1  0
  6  7  1  0
  7  8  1  0
  8  9  1  0
  9 10  2  0
  9 11  1  0
 11 12  2  0
 12 13  1  0
 13 14  1  0
 14 15  2  0
 14 16  1  0
 16 17  1  0
 17 18  2  0
 18 19  1  0
 19 20  2  0
 20 21  1  0
 20 22  1  0
 22 23  2  0
 23 24  1  0
 24 25  1  0
  8  3  1  0
 25 11  1  0
 24 13  2  0
 22 16  1  0
  1 26  1  0
  1 27  1  0
  1 28  1  0
  2 29  1  0
  2 30  1  0
  3 31  1  0
  4 32  1  0
  4 33  1  0
  5 34  1  0
  5 35  1  0
  6 36  1  0
  6 37  1  0
  7 38  1  0
  7 39  1  0
 12 40  1  0
 17 41  1  0
 18 42  1  0
 19 43  1  0
 21 44  1  0
 21 45  1  0
 21 46  1  0
M  END
$$$$
