
     RDKit          3D

 61 66  0  0  0  0  0  0  0  0999 V2000
   -4.6166    3.2687    0.0023 O   0  0  0  0  0  0  0  0  0  0  0  0
   -3.7521    2.5185   -0.4679 C   0  0  0  0  0  0  0  0  0  0  0  0
   -2.6335    3.0941   -1.3234 C   0  0  0  0  0  0  0  0  0  0  0  0
   -1.3653    2.9522   -0.6531 N   0  0  0  0  0  0  0  0  0  0  0  0
   -1.0705    3.6135    0.4793 N   0  0  0  0  0  0  0  0  0  0  0  0
    0.1069    3.1368    0.8562 N   0  0  0  0  0  0  0  0  0  0  0  0
    0.4806    2.2113   -0.0907 C   0  0  0  0  0  0  0  0  0  0  0  0
    1.7014    1.4287    0.0062 C   0  0  0  0  0  0  0  0  0  0  0  0
    2.3925    1.3308    1.2135 C   0  0  0  0  0  0  0  0  0  0  0  0
    3.5725    0.5718    1.3004 C   0  0  0  0  0  0  0  0  0  0  0  0
    4.0981   -0.1151    0.1971 C   0  0  0  0  0  0  0  0  0  0  0  0
    5.2622   -0.8557    0.2874 N   0  0  0  0  0  0  0  0  0  0  0  0
    6.2937   -0.5728    1.3035 C   0  0  0  0  0  0  0  0  0  0  0  0
    7.6897   -0.8991    0.7350 C   0  0  0  0  0  0  0  0  0  0  0  0
    7.8502   -2.2649    0.3160 O   0  0  0  0  0  0  0  0  0  0  0  0
    6.6101   -2.8828   -0.0764 C   0  0  0  0  0  0  0  0  0  0  0  0
    5.6056   -1.8949   -0.6958 C   0  0  0  0  0  0  0  0  0  0  0  0
    3.3777   -0.0137   -1.0031 C   0  0  0  0  0  0  0  0  0  0  0  0
    2.1980    0.7372   -1.0996 C   0  0  0  0  0  0  0  0  0  0  0  0
   -0.4218    2.0958   -1.0872 N   0  0  0  0  0  0  0  0  0  0  0  0
   -3.6580    1.1247   -0.2693 N   0  0  0  0  0  0  0  0  0  0  0  0
   -4.0333    0.5489    0.9873 C   0  0  0  0  0  0  0  0  0  0  0  0
   -5.1481    0.9992    1.7081 C   0  0  0  0  0  0  0  0  0  0  0  0
   -5.4585    0.4660    2.9637 C   0  0  0  0  0  0  0  0  0  0  0  0
   -4.6429   -0.5070    3.5274 C   0  0  0  0  0  0  0  0  0  0  0  0
   -3.5198   -0.9542    2.8347 C   0  0  0  0  0  0  0  0  0  0  0  0
   -3.2114   -0.4346    1.5669 C   0  0  0  0  0  0  0  0  0  0  0  0
   -1.9881   -0.9165    0.8364 C   0  0  0  0  0  0  0  0  0  0  0  0
   -2.4086   -1.7609   -0.3545 C   0  0  0  0  0  0  0  0  0  0  0  0
   -3.2038   -1.0767   -1.4451 C   0  0  0  0  0  0  0  0  0  0  0  0
   -3.4004   -1.8636   -2.6062 C   0  0  0  0  0  0  0  0  0  0  0  0
   -4.1012   -1.3861   -3.7111 C   0  0  0  0  0  0  0  0  0  0  0  0
   -4.6124   -0.1000   -3.6864 C   0  0  0  0  0  0  0  0  0  0  0  0
   -4.4364    0.6894   -2.5495 C   0  0  0  0  0  0  0  0  0  0  0  0
   -3.7310    0.2331   -1.4074 C   0  0  0  0  0  0  0  0  0  0  0  0
   -2.5643    2.6214   -2.3087 H   0  0  0  0  0  0  0  0  0  0  0  0
   -2.7977    4.1665   -1.4826 H   0  0  0  0  0  0  0  0  0  0  0  0
    2.0304    1.8378    2.1032 H   0  0  0  0  0  0  0  0  0  0  0  0
    4.0620    0.5134    2.2684 H   0  0  0  0  0  0  0  0  0  0  0  0
    6.2885    0.4823    1.6025 H   0  0  0  0  0  0  0  0  0  0  0  0
    6.0937   -1.1898    2.1889 H   0  0  0  0  0  0  0  0  0  0  0  0
    7.8967   -0.2664   -0.1375 H   0  0  0  0  0  0  0  0  0  0  0  0
    8.4664   -0.6869    1.4827 H   0  0  0  0  0  0  0  0  0  0  0  0
    6.8451   -3.6864   -0.7831 H   0  0  0  0  0  0  0  0  0  0  0  0
    6.1849   -3.3449    0.8277 H   0  0  0  0  0  0  0  0  0  0  0  0
    6.0441   -1.4215   -1.5841 H   0  0  0  0  0  0  0  0  0  0  0  0
    4.7159   -2.4556   -0.9965 H   0  0  0  0  0  0  0  0  0  0  0  0
    3.7433   -0.4925   -1.9070 H   0  0  0  0  0  0  0  0  0  0  0  0
    1.6806    0.7873   -2.0561 H   0  0  0  0  0  0  0  0  0  0  0  0
   -5.8127    1.7523    1.2981 H   0  0  0  0  0  0  0  0  0  0  0  0
   -6.3366    0.8200    3.4999 H   0  0  0  0  0  0  0  0  0  0  0  0
   -4.8754   -0.9135    4.5078 H   0  0  0  0  0  0  0  0  0  0  0  0
   -2.8800   -1.7046    3.2925 H   0  0  0  0  0  0  0  0  0  0  0  0
   -1.3553   -1.5134    1.5017 H   0  0  0  0  0  0  0  0  0  0  0  0
   -1.3741   -0.0639    0.5320 H   0  0  0  0  0  0  0  0  0  0  0  0
   -1.4975   -2.1785   -0.8100 H   0  0  0  0  0  0  0  0  0  0  0  0
   -3.0064   -2.6151    0.0062 H   0  0  0  0  0  0  0  0  0  0  0  0
   -3.0010   -2.8768   -2.6485 H   0  0  0  0  0  0  0  0  0  0  0  0
   -4.2525   -2.0220   -4.5786 H   0  0  0  0  0  0  0  0  0  0  0  0
   -5.1899    0.2713   -4.5258 H   0  0  0  0  0  0  0  0  0  0  0  0
   -4.9335    1.6574   -2.5505 H   0  0  0  0  0  0  0  0  0  0  0  0
  1  2  2  0
  2  3  1  0
  3  4  1  0
  4  5  1  0
  5  6  2  0
  6  7  1  0
  7  8  1  0
  8  9  2  0
  9 10  1  0
 10 11  2  0
 11 12  1  0
 12 13  1  0
 13 14  1  0
 14 15  1  0
 15 16  1  0
 16 17  1  0
 11 18  1  0
 18 19  2  0
  7 20  2  0
  2 21  1  0
 21 22  1  0
 22 23  2  0
 23 24  1  0
 24 25  2  0
 25 26  1  0
 26 27  2  0
 27 28  1  0
 28 29  1  0
 29 30  1  0
 30 31  2  0
 31 32  1  0
 32 33  2  0
 33 34  1  0
 34 35  2  0
 20  4  1  0
 35 21  1  0
 19  8  1  0
 27 22  1  0
 35 30  1  0
 17 12  1  0
  3 36  1  0
  3 37  1  0
  9 38  1  0
 10 39  1  0
 13 40  1  0
 13 41  1  0
 14 42  1  0
 14 43  1  0
 16 44  1  0
 16 45  1  0
 17 46  1  0
 17 47  1  0
 18 48  1  0
 19 49  1  0
 23 50  1  0
 24 51  1  0
 25 52  1  0
 26 53  1  0
 28 54  1  0
 28 55  1  0
 29 56  1  0
 29 57  1  0
 31 58  1  0
 32 59  1  0
 33 60  1  0
 34 61  1  0
M  END
$$$$
