
     RDKit          3D

 60 63  0  0  0  0  0  0  0  0999 V2000
   -6.1220    2.0769    2.6152 C   0  0  0  0  0  0  0  0  0  0  0  0
   -6.1267    2.0316    1.0900 C   0  0  0  0  0  0  0  0  0  0  0  0
   -7.0497    3.1171    0.5408 C   0  0  0  0  0  0  0  0  0  0  0  0
   -4.8166    2.3159    0.5892 O   0  0  0  0  0  0  0  0  0  0  0  0
   -3.9347    1.2901    0.4059 C   0  0  0  0  0  0  0  0  0  0  0  0
   -2.7452    1.6558   -0.2238 C   0  0  0  0  0  0  0  0  0  0  0  0
   -1.7407    0.7116   -0.4706 C   0  0  0  0  0  0  0  0  0  0  0  0
   -1.8927   -0.6307   -0.0849 C   0  0  0  0  0  0  0  0  0  0  0  0
   -0.8409   -1.6445   -0.3147 C   0  0  0  0  0  0  0  0  0  0  0  0
    0.5077   -1.3371   -0.3412 C   0  0  0  0  0  0  0  0  0  0  0  0
    1.4266   -2.3682   -0.5529 C   0  0  0  0  0  0  0  0  0  0  0  0
    2.8595   -1.9970   -0.5654 C   0  0  0  0  0  0  0  0  0  0  0  0
    3.5573   -2.2378   -1.5412 O   0  0  0  0  0  0  0  0  0  0  0  0
    3.2924   -1.3542    0.5732 N   0  0  0  0  0  0  0  0  0  0  0  0
    4.5428   -0.6162    0.6077 C   0  0  0  0  0  0  0  0  0  0  0  0
    4.3080    0.8966    0.8242 C   0  0  0  0  0  0  0  0  0  0  0  0
    3.2547    1.4873   -0.0280 N   0  0  0  0  0  0  0  0  0  0  0  0
    3.6246    1.5115   -1.4636 C   0  0  0  0  0  0  0  0  0  0  0  0
    4.6753    2.5753   -1.8257 C   0  0  0  0  0  0  0  0  0  0  0  0
    4.2616    3.8825   -1.4100 O   0  0  0  0  0  0  0  0  0  0  0  0
    3.9968    3.9103   -0.0031 C   0  0  0  0  0  0  0  0  0  0  0  0
    2.9319    2.8714    0.3861 C   0  0  0  0  0  0  0  0  0  0  0  0
    1.0010   -3.6946   -0.7573 C   0  0  0  0  0  0  0  0  0  0  0  0
    1.8606   -4.7978   -0.9890 C   0  0  0  0  0  0  0  0  0  0  0  0
    1.3494   -6.0820   -1.1636 C   0  0  0  0  0  0  0  0  0  0  0  0
   -0.0219   -6.2831   -1.1077 C   0  0  0  0  0  0  0  0  0  0  0  0
   -0.8712   -5.1975   -0.8790 C   0  0  0  0  0  0  0  0  0  0  0  0
   -0.3877   -3.9078   -0.7024 C   0  0  0  0  0  0  0  0  0  0  0  0
   -1.2728   -2.9194   -0.4783 N   0  0  0  0  0  0  0  0  0  0  0  0
   -3.1031   -0.9800    0.5415 C   0  0  0  0  0  0  0  0  0  0  0  0
   -4.1102   -0.0355    0.7884 C   0  0  0  0  0  0  0  0  0  0  0  0
   -5.4590    1.3134    3.0332 H   0  0  0  0  0  0  0  0  0  0  0  0
   -5.7504    3.0425    2.9756 H   0  0  0  0  0  0  0  0  0  0  0  0
   -7.1269    1.9163    3.0181 H   0  0  0  0  0  0  0  0  0  0  0  0
   -6.5035    1.0702    0.7236 H   0  0  0  0  0  0  0  0  0  0  0  0
   -6.7066    4.1143    0.8385 H   0  0  0  0  0  0  0  0  0  0  0  0
   -8.0778    2.9804    0.8892 H   0  0  0  0  0  0  0  0  0  0  0  0
   -7.0471    3.0989   -0.5543 H   0  0  0  0  0  0  0  0  0  0  0  0
   -2.5981    2.6876   -0.5345 H   0  0  0  0  0  0  0  0  0  0  0  0
   -0.8439    1.0472   -0.9863 H   0  0  0  0  0  0  0  0  0  0  0  0
    0.8562   -0.3189   -0.2007 H   0  0  0  0  0  0  0  0  0  0  0  0
    2.6285   -1.1683    1.3134 H   0  0  0  0  0  0  0  0  0  0  0  0
    5.1250   -1.0148    1.4455 H   0  0  0  0  0  0  0  0  0  0  0  0
    5.1146   -0.7890   -0.3094 H   0  0  0  0  0  0  0  0  0  0  0  0
    3.9915    1.0125    1.8696 H   0  0  0  0  0  0  0  0  0  0  0  0
    5.2646    1.4224    0.7299 H   0  0  0  0  0  0  0  0  0  0  0  0
    2.7076    1.7305   -2.0269 H   0  0  0  0  0  0  0  0  0  0  0  0
    3.9571    0.5288   -1.8101 H   0  0  0  0  0  0  0  0  0  0  0  0
    4.8083    2.6041   -2.9122 H   0  0  0  0  0  0  0  0  0  0  0  0
    5.6514    2.3486   -1.3829 H   0  0  0  0  0  0  0  0  0  0  0  0
    3.6367    4.9140    0.2434 H   0  0  0  0  0  0  0  0  0  0  0  0
    4.9337    3.7552    0.5438 H   0  0  0  0  0  0  0  0  0  0  0  0
    2.7360    2.9160    1.4643 H   0  0  0  0  0  0  0  0  0  0  0  0
    1.9880    3.1442   -0.1040 H   0  0  0  0  0  0  0  0  0  0  0  0
    2.9393   -4.6585   -1.0422 H   0  0  0  0  0  0  0  0  0  0  0  0
    2.0211   -6.9171   -1.3455 H   0  0  0  0  0  0  0  0  0  0  0  0
   -0.4366   -7.2785   -1.2432 H   0  0  0  0  0  0  0  0  0  0  0  0
   -1.9456   -5.3635   -0.8384 H   0  0  0  0  0  0  0  0  0  0  0  0
   -3.2697   -2.0110    0.8534 H   0  0  0  0  0  0  0  0  0  0  0  0
   -5.0083   -0.3778    1.2893 H   0  0  0  0  0  0  0  0  0  0  0  0
  1  2  1  0
  2  3  1  0
  2  4  1  0
  4  5  1  0
  5  6  2  0
  6  7  1  0
  7  8  2  0
  8  9  1  0
  9 10  2  0
 10 11  1  0
 11 12  1  0
 12 13  2  0
 12 14  1  0
 14 15  1  0
 15 16  1  0
 16 17  1  0
 17 18  1  0
 18 19  1  0
 19 20  1  0
 20 21  1  0
 21 22  1  0
 11 23  2  0
 23 24  1  0
 24 25  2  0
 25 26  1  0
 26 27  2  0
 27 28  1  0
 28 29  2  0
  8 30  1  0
 30 31  2  0
 31  5  1  0
 29  9  1  0
 22 17  1  0
 28 23  1  0
  1 32  1  0
  1 33  1  0
  1 34  1  0
  2 35  1  0
  3 36  1  0
  3 37  1  0
  3 38  1  0
  6 39  1  0
  7 40  1  0
 10 41  1  0
 14 42  1  0
 15 43  1  0
 15 44  1  0
 16 45  1  0
 16 46  1  0
 18 47  1  0
 18 48  1  0
 19 49  1  0
 19 50  1  0
 21 51  1  0
 21 52  1  0
 22 53  1  0
 22 54  1  0
 24 55  1  0
 25 56  1  0
 26 57  1  0
 27 58  1  0
 30 59  1  0
 31 60  1  0
M  END
$$$$
