
     RDKit          3D

 50 52  0  0  0  0  0  0  0  0999 V2000
    2.5984   -0.7716   -2.8844 O   0  0  0  0  0  0  0  0  0  0  0  0
    1.9971   -1.5010   -1.8041 C   0  0  0  0  0  0  0  0  0  0  0  0
    3.0826   -2.1675   -0.9446 C   0  0  0  0  0  0  0  0  0  0  0  0
    3.7610   -1.2769   -0.0563 O   0  0  0  0  0  0  0  0  0  0  0  0
    4.6845   -0.4129   -0.7214 C   0  0  0  0  0  0  0  0  0  0  0  0
    5.5026    0.2318    0.3549 C   0  0  0  0  0  0  0  0  0  0  0  0
    6.3545   -0.3737    1.2599 C   0  0  0  0  0  0  0  0  0  0  0  0
    6.9736    0.5633    2.1361 C   0  0  0  0  0  0  0  0  0  0  0  0
    6.5753    1.8545    1.8717 C   0  0  0  0  0  0  0  0  0  0  0  0
    5.4623    1.9312    0.5759 S   0  0  0  0  0  0  0  0  0  0  0  0
    1.0905   -0.5473   -0.9944 C   0  0  0  0  0  0  0  0  0  0  0  0
    0.1508    0.1777   -1.8850 N   0  0  0  0  0  0  0  0  0  0  0  0
   -0.4236    1.3595   -1.1922 C   0  0  0  0  0  0  0  0  0  0  0  0
   -1.4391    1.0461   -0.0664 C   0  0  0  0  0  0  0  0  0  0  0  0
   -2.5213    0.1655   -0.5673 N   0  0  0  0  0  0  0  0  0  0  0  0
   -3.6089    0.0269    0.3080 C   0  0  0  0  0  0  0  0  0  0  0  0
   -4.0578   -1.2081    0.7967 C   0  0  0  0  0  0  0  0  0  0  0  0
   -5.1534   -1.3011    1.6625 C   0  0  0  0  0  0  0  0  0  0  0  0
   -5.8393   -0.1547    2.0500 C   0  0  0  0  0  0  0  0  0  0  0  0
   -5.4420    1.0944    1.5634 C   0  0  0  0  0  0  0  0  0  0  0  0
   -6.1682    2.3494    1.9721 C   0  0  0  0  0  0  0  0  0  0  0  0
   -7.4721    2.1313    2.3060 F   0  0  0  0  0  0  0  0  0  0  0  0
   -6.1915    3.2997    0.9953 F   0  0  0  0  0  0  0  0  0  0  0  0
   -5.6006    2.9448    3.0580 F   0  0  0  0  0  0  0  0  0  0  0  0
   -4.3302    1.1671    0.7036 C   0  0  0  0  0  0  0  0  0  0  0  0
   -2.0210   -1.0405   -1.2552 C   0  0  0  0  0  0  0  0  0  0  0  0
   -0.9816   -0.6672   -2.3413 C   0  0  0  0  0  0  0  0  0  0  0  0
    1.9092   -0.1280   -3.1547 H   0  0  0  0  0  0  0  0  0  0  0  0
    1.4031   -2.2970   -2.2658 H   0  0  0  0  0  0  0  0  0  0  0  0
    2.6056   -2.9205   -0.3077 H   0  0  0  0  0  0  0  0  0  0  0  0
    3.8164   -2.6859   -1.5726 H   0  0  0  0  0  0  0  0  0  0  0  0
    5.3417   -0.9890   -1.3828 H   0  0  0  0  0  0  0  0  0  0  0  0
    4.1448    0.3352   -1.3088 H   0  0  0  0  0  0  0  0  0  0  0  0
    6.5160   -1.4447    1.2924 H   0  0  0  0  0  0  0  0  0  0  0  0
    7.6716    0.3030    2.9217 H   0  0  0  0  0  0  0  0  0  0  0  0
    6.8821    2.7593    2.3779 H   0  0  0  0  0  0  0  0  0  0  0  0
    0.5819   -1.0908   -0.1912 H   0  0  0  0  0  0  0  0  0  0  0  0
    1.7357    0.2018   -0.5194 H   0  0  0  0  0  0  0  0  0  0  0  0
   -0.9268    1.9748   -1.9502 H   0  0  0  0  0  0  0  0  0  0  0  0
    0.3817    1.9895   -0.7948 H   0  0  0  0  0  0  0  0  0  0  0  0
   -1.8297    2.0038    0.2945 H   0  0  0  0  0  0  0  0  0  0  0  0
   -0.9298    0.5620    0.7765 H   0  0  0  0  0  0  0  0  0  0  0  0
   -3.5544   -2.1324    0.5314 H   0  0  0  0  0  0  0  0  0  0  0  0
   -5.4675   -2.2739    2.0330 H   0  0  0  0  0  0  0  0  0  0  0  0
   -6.6897   -0.2395    2.7245 H   0  0  0  0  0  0  0  0  0  0  0  0
   -4.0442    2.1408    0.3073 H   0  0  0  0  0  0  0  0  0  0  0  0
   -2.8500   -1.5604   -1.7512 H   0  0  0  0  0  0  0  0  0  0  0  0
   -1.5661   -1.7324   -0.5364 H   0  0  0  0  0  0  0  0  0  0  0  0
   -0.6134   -1.5803   -2.8207 H   0  0  0  0  0  0  0  0  0  0  0  0
   -1.5008   -0.1157   -3.1372 H   0  0  0  0  0  0  0  0  0  0  0  0
  1  2  1  0
  2  3  1  0
  3  4  1  0
  4  5  1  0
  5  6  1  0
  6  7  2  0
  7  8  1  0
  8  9  2  0
  9 10  1  0
  2 11  1  0
 11 12  1  0
 12 13  1  0
 13 14  1  0
 14 15  1  0
 15 16  1  0
 16 17  2  0
 17 18  1  0
 18 19  2  0
 19 20  1  0
 20 21  1  0
 21 22  1  0
 21 23  1  0
 21 24  1  0
 20 25  2  0
 15 26  1  0
 26 27  1  0
 10  6  1  0
 27 12  1  0
 25 16  1  0
  1 28  1  0
  2 29  1  0
  3 30  1  0
  3 31  1  0
  5 32  1  0
  5 33  1  0
  7 34  1  0
  8 35  1  0
  9 36  1  0
 11 37  1  0
 11 38  1  0
 13 39  1  0
 13 40  1  0
 14 41  1  0
 14 42  1  0
 17 43  1  0
 18 44  1  0
 19 45  1  0
 25 46  1  0
 26 47  1  0
 26 48  1  0
 27 49  1  0
 27 50  1  0
M  END
$$$$
