
     RDKit          3D

 41 42  0  0  0  0  0  0  0  0999 V2000
   -2.6640    2.5785    0.7878 C   0  0  0  0  0  0  0  0  0  0  0  0
   -2.7369    1.3610    1.6995 C   0  0  0  0  0  0  0  0  0  0  0  0
   -2.5386    0.1060    0.9434 N   0  0  0  0  0  0  0  0  0  0  0  0
   -3.7568   -0.7216    0.8260 C   0  0  0  0  0  0  0  0  0  0  0  0
   -4.6578   -0.2263   -0.2940 C   0  0  0  0  0  0  0  0  0  0  0  0
   -1.2816   -0.3063    0.4420 C   0  0  0  0  0  0  0  0  0  0  0  0
   -0.1099    0.2858    0.7638 C   0  0  0  0  0  0  0  0  0  0  0  0
    1.2006   -0.1353    0.2876 C   0  0  0  0  0  0  0  0  0  0  0  0
    2.2989    0.6007    0.5452 C   0  0  0  0  0  0  0  0  0  0  0  0
    3.6511    0.2333    0.1080 C   0  0  0  0  0  0  0  0  0  0  0  0
    4.7249    1.0505    0.2597 C   0  0  0  0  0  0  0  0  0  0  0  0
    6.0302    0.6485   -0.1509 C   0  0  0  0  0  0  0  0  0  0  0  0
    7.0874    0.3080   -0.4880 N   0  0  0  0  0  0  0  0  0  0  0  0
    4.6200    2.3477    0.8440 C   0  0  0  0  0  0  0  0  0  0  0  0
    4.5239    3.4009    1.3223 N   0  0  0  0  0  0  0  0  0  0  0  0
    3.7555   -1.1509   -0.5213 C   0  0  0  0  0  0  0  0  0  0  0  0
    2.5266   -1.4952   -1.3613 C   0  0  0  0  0  0  0  0  0  0  0  0
    1.2552   -1.4192   -0.5087 C   0  0  0  0  0  0  0  0  0  0  0  0
    0.0111   -1.5576   -1.3852 C   0  0  0  0  0  0  0  0  0  0  0  0
   -1.2582   -1.4791   -0.5348 C   0  0  0  0  0  0  0  0  0  0  0  0
   -2.8475    3.4909    1.3641 H   0  0  0  0  0  0  0  0  0  0  0  0
   -3.4132    2.5247   -0.0078 H   0  0  0  0  0  0  0  0  0  0  0  0
   -1.6838    2.6754    0.3118 H   0  0  0  0  0  0  0  0  0  0  0  0
   -3.7161    1.3637    2.1939 H   0  0  0  0  0  0  0  0  0  0  0  0
   -2.0030    1.4405    2.5093 H   0  0  0  0  0  0  0  0  0  0  0  0
   -4.3106   -0.7076    1.7730 H   0  0  0  0  0  0  0  0  0  0  0  0
   -3.5094   -1.7754    0.6604 H   0  0  0  0  0  0  0  0  0  0  0  0
   -5.0477    0.7727   -0.0758 H   0  0  0  0  0  0  0  0  0  0  0  0
   -5.5139   -0.8977   -0.4141 H   0  0  0  0  0  0  0  0  0  0  0  0
   -4.1249   -0.1773   -1.2484 H   0  0  0  0  0  0  0  0  0  0  0  0
   -0.1070    1.1357    1.4389 H   0  0  0  0  0  0  0  0  0  0  0  0
    2.1774    1.5261    1.1076 H   0  0  0  0  0  0  0  0  0  0  0  0
    4.6345   -1.2416   -1.1683 H   0  0  0  0  0  0  0  0  0  0  0  0
    3.8704   -1.8932    0.2796 H   0  0  0  0  0  0  0  0  0  0  0  0
    2.4615   -0.8062   -2.2143 H   0  0  0  0  0  0  0  0  0  0  0  0
    2.6356   -2.5044   -1.7765 H   0  0  0  0  0  0  0  0  0  0  0  0
    1.2699   -2.2541    0.2069 H   0  0  0  0  0  0  0  0  0  0  0  0
    0.0283   -2.5117   -1.9258 H   0  0  0  0  0  0  0  0  0  0  0  0
   -0.0106   -0.7637   -2.1444 H   0  0  0  0  0  0  0  0  0  0  0  0
   -2.1038   -1.4154   -1.2283 H   0  0  0  0  0  0  0  0  0  0  0  0
   -1.3679   -2.4107    0.0345 H   0  0  0  0  0  0  0  0  0  0  0  0
  1  2  1  0
  2  3  1  0
  3  4  1  0
  4  5  1  0
  3  6  1  0
  6  7  2  0
  7  8  1  0
  8  9  2  0
  9 10  1  0
 10 11  2  3
 11 12  1  0
 12 13  3  0
 11 14  1  0
 14 15  3  0
 10 16  1  0
 16 17  1  0
 17 18  1  0
 18 19  1  0
 19 20  1  0
 20  6  1  0
 18  8  1  0
  1 21  1  0
  1 22  1  0
  1 23  1  0
  2 24  1  0
  2 25  1  0
  4 26  1  0
  4 27  1  0
  5 28  1  0
  5 29  1  0
  5 30  1  0
  7 31  1  0
  9 32  1  0
 16 33  1  0
 16 34  1  0
 17 35  1  0
 17 36  1  0
 18 37  1  0
 19 38  1  0
 19 39  1  0
 20 40  1  0
 20 41  1  0
M  END
$$$$
