
     RDKit          3D

 39 40  0  0  0  0  0  0  0  0999 V2000
   -1.3219    0.3610   -2.1923 C   0  0  0  0  0  0  0  0  0  0  0  0
   -2.3926   -0.6427   -1.7850 C   0  0  0  0  0  0  0  0  0  0  0  0
   -2.6006   -0.7003   -0.3352 N   0  0  0  0  0  0  0  0  0  0  0  0
   -3.7833   -0.0117    0.1977 C   0  0  0  0  0  0  0  0  0  0  0  0
   -3.7116    1.5018    0.0702 C   0  0  0  0  0  0  0  0  0  0  0  0
   -1.6486   -1.3689    0.4264 C   0  0  0  0  0  0  0  0  0  0  0  0
   -0.6761   -1.9304   -0.0983 O   0  0  0  0  0  0  0  0  0  0  0  0
   -1.7865   -1.4207    1.9410 C   0  0  0  0  0  0  0  0  0  0  0  0
   -1.3033    0.1142    2.7740 S   0  0  0  0  0  0  0  0  0  0  0  0
   -0.0026    0.7214    1.8071 C   0  0  0  0  0  0  0  0  0  0  0  0
    0.0636    1.9434    1.3304 N   0  0  0  0  0  0  0  0  0  0  0  0
    1.2125    2.0361    0.5782 N   0  0  0  0  0  0  0  0  0  0  0  0
    1.8185    0.8602    0.5910 C   0  0  0  0  0  0  0  0  0  0  0  0
    3.0372    0.5280   -0.1395 C   0  0  0  0  0  0  0  0  0  0  0  0
    3.1372   -0.6346   -0.9076 C   0  0  0  0  0  0  0  0  0  0  0  0
    4.3222   -0.8797   -1.5810 C   0  0  0  0  0  0  0  0  0  0  0  0
    5.3906   -0.0570   -1.5410 N   0  0  0  0  0  0  0  0  0  0  0  0
    5.2628    1.0743   -0.8160 C   0  0  0  0  0  0  0  0  0  0  0  0
    4.1198    1.4089   -0.1108 C   0  0  0  0  0  0  0  0  0  0  0  0
    1.1135    0.0151    1.4292 N   0  0  0  0  0  0  0  0  0  0  0  0
    1.4661   -1.3319    1.8095 N   0  0  0  0  0  0  0  0  0  0  0  0
   -1.2221    0.3828   -3.2820 H   0  0  0  0  0  0  0  0  0  0  0  0
   -0.3464    0.0996   -1.7715 H   0  0  0  0  0  0  0  0  0  0  0  0
   -1.5662    1.3713   -1.8530 H   0  0  0  0  0  0  0  0  0  0  0  0
   -3.3423   -0.4035   -2.2762 H   0  0  0  0  0  0  0  0  0  0  0  0
   -2.0968   -1.6400   -2.1319 H   0  0  0  0  0  0  0  0  0  0  0  0
   -3.9447   -0.2676    1.2455 H   0  0  0  0  0  0  0  0  0  0  0  0
   -4.6565   -0.3895   -0.3471 H   0  0  0  0  0  0  0  0  0  0  0  0
   -2.8024    1.9004    0.5284 H   0  0  0  0  0  0  0  0  0  0  0  0
   -4.5744    1.9627    0.5613 H   0  0  0  0  0  0  0  0  0  0  0  0
   -3.7249    1.8127   -0.9789 H   0  0  0  0  0  0  0  0  0  0  0  0
   -2.8042   -1.7032    2.2234 H   0  0  0  0  0  0  0  0  0  0  0  0
   -1.1500   -2.2319    2.3117 H   0  0  0  0  0  0  0  0  0  0  0  0
    2.3085   -1.3282   -1.0090 H   0  0  0  0  0  0  0  0  0  0  0  0
    4.4451   -1.7681   -2.1944 H   0  0  0  0  0  0  0  0  0  0  0  0
    6.1305    1.7281   -0.8183 H   0  0  0  0  0  0  0  0  0  0  0  0
    4.0749    2.3389    0.4479 H   0  0  0  0  0  0  0  0  0  0  0  0
    2.4750   -1.4683    1.7982 H   0  0  0  0  0  0  0  0  0  0  0  0
    1.0801   -1.9830    1.1187 H   0  0  0  0  0  0  0  0  0  0  0  0
  1  2  1  0
  2  3  1  0
  3  4  1  0
  4  5  1  0
  3  6  1  0
  6  7  2  0
  6  8  1  0
  8  9  1  0
  9 10  1  0
 10 11  2  0
 11 12  1  0
 12 13  2  0
 13 14  1  0
 14 15  2  0
 15 16  1  0
 16 17  2  0
 17 18  1  0
 18 19  2  0
 13 20  1  0
 20 21  1  0
 20 10  1  0
 19 14  1  0
  1 22  1  0
  1 23  1  0
  1 24  1  0
  2 25  1  0
  2 26  1  0
  4 27  1  0
  4 28  1  0
  5 29  1  0
  5 30  1  0
  5 31  1  0
  8 32  1  0
  8 33  1  0
 15 34  1  0
 16 35  1  0
 18 36  1  0
 19 37  1  0
 21 38  1  0
 21 39  1  0
M  END
$$$$
