
     RDKit          3D

 54 59  0  0  0  0  0  0  0  0999 V2000
    4.8154   -1.7488    2.2652 C   0  0  0  0  0  0  0  0  0  0  0  0
    5.6254   -1.3523    1.0612 C   0  0  0  0  0  0  0  0  0  0  0  0
    6.9236   -1.8591    0.8988 C   0  0  0  0  0  0  0  0  0  0  0  0
    7.6885   -1.5033   -0.2101 C   0  0  0  0  0  0  0  0  0  0  0  0
    7.1629   -0.6388   -1.1653 C   0  0  0  0  0  0  0  0  0  0  0  0
    5.8712   -0.1270   -1.0153 C   0  0  0  0  0  0  0  0  0  0  0  0
    5.0951   -0.4782    0.0940 C   0  0  0  0  0  0  0  0  0  0  0  0
    3.8218   -0.0341    0.3359 O   0  0  0  0  0  0  0  0  0  0  0  0
    3.2316    0.8464   -0.6250 C   0  0  0  0  0  0  0  0  0  0  0  0
    1.8402    1.2233   -0.2230 C   0  0  0  0  0  0  0  0  0  0  0  0
    0.7347    0.5217   -0.6552 N   0  0  0  0  0  0  0  0  0  0  0  0
   -0.2755    1.1433   -0.0834 C   0  0  0  0  0  0  0  0  0  0  0  0
   -1.6971    0.9505   -0.0701 C   0  0  0  0  0  0  0  0  0  0  0  0
   -2.3986    1.8158    0.7256 C   0  0  0  0  0  0  0  0  0  0  0  0
   -1.8394    2.8568    1.4655 N   0  0  0  0  0  0  0  0  0  0  0  0
   -0.5527    3.0178    1.4201 C   0  0  0  0  0  0  0  0  0  0  0  0
    0.2231    2.1737    0.6596 N   0  0  0  0  0  0  0  0  0  0  0  0
    1.5620    2.2726    0.5683 N   0  0  0  0  0  0  0  0  0  0  0  0
   -3.8732    1.6533    0.8682 C   0  0  0  0  0  0  0  0  0  0  0  0
   -4.5755    2.2628    1.9212 C   0  0  0  0  0  0  0  0  0  0  0  0
   -5.9596    2.1195    2.0441 C   0  0  0  0  0  0  0  0  0  0  0  0
   -6.6657    1.3695    1.1095 C   0  0  0  0  0  0  0  0  0  0  0  0
   -5.9879    0.7619    0.0553 C   0  0  0  0  0  0  0  0  0  0  0  0
   -4.5955    0.8923   -0.0612 C   0  0  0  0  0  0  0  0  0  0  0  0
   -3.8682    0.2704   -1.2185 C   0  0  0  0  0  0  0  0  0  0  0  0
   -2.4234   -0.1702   -0.8480 C   0  0  0  0  0  0  0  0  0  0  0  0
   -2.4202   -1.4822   -0.0314 C   0  0  0  0  0  0  0  0  0  0  0  0
   -2.6725   -2.6036   -1.0406 C   0  0  0  0  0  0  0  0  0  0  0  0
   -2.3045   -2.0413   -2.4120 C   0  0  0  0  0  0  0  0  0  0  0  0
   -1.7314   -0.6499   -2.1481 C   0  0  0  0  0  0  0  0  0  0  0  0
    5.3718   -2.4304    2.9173 H   0  0  0  0  0  0  0  0  0  0  0  0
    3.8995   -2.2615    1.9538 H   0  0  0  0  0  0  0  0  0  0  0  0
    4.5553   -0.8641    2.8553 H   0  0  0  0  0  0  0  0  0  0  0  0
    7.3458   -2.5358    1.6383 H   0  0  0  0  0  0  0  0  0  0  0  0
    8.6932   -1.9007   -0.3278 H   0  0  0  0  0  0  0  0  0  0  0  0
    7.7594   -0.3607   -2.0305 H   0  0  0  0  0  0  0  0  0  0  0  0
    5.5059    0.5433   -1.7857 H   0  0  0  0  0  0  0  0  0  0  0  0
    3.8321    1.7605   -0.7119 H   0  0  0  0  0  0  0  0  0  0  0  0
    3.1832    0.3505   -1.6024 H   0  0  0  0  0  0  0  0  0  0  0  0
   -0.0582    3.8232    1.9847 H   0  0  0  0  0  0  0  0  0  0  0  0
   -4.0455    2.8595    2.6608 H   0  0  0  0  0  0  0  0  0  0  0  0
   -6.4824    2.5993    2.8671 H   0  0  0  0  0  0  0  0  0  0  0  0
   -7.7435    1.2625    1.1990 H   0  0  0  0  0  0  0  0  0  0  0  0
   -6.5503    0.1863   -0.6765 H   0  0  0  0  0  0  0  0  0  0  0  0
   -3.8361    1.0168   -2.0243 H   0  0  0  0  0  0  0  0  0  0  0  0
   -4.4532   -0.5759   -1.5969 H   0  0  0  0  0  0  0  0  0  0  0  0
   -1.4405   -1.6442    0.4374 H   0  0  0  0  0  0  0  0  0  0  0  0
   -3.1651   -1.4955    0.7714 H   0  0  0  0  0  0  0  0  0  0  0  0
   -3.7251   -2.9080   -1.0284 H   0  0  0  0  0  0  0  0  0  0  0  0
   -2.0761   -3.4889   -0.7959 H   0  0  0  0  0  0  0  0  0  0  0  0
   -3.1960   -1.9780   -3.0463 H   0  0  0  0  0  0  0  0  0  0  0  0
   -1.5830   -2.6795   -2.9323 H   0  0  0  0  0  0  0  0  0  0  0  0
   -0.6516   -0.7662   -2.0312 H   0  0  0  0  0  0  0  0  0  0  0  0
   -1.8943    0.0248   -2.9953 H   0  0  0  0  0  0  0  0  0  0  0  0
  1  2  1  0
  2  3  2  0
  3  4  1  0
  4  5  2  0
  5  6  1  0
  6  7  2  0
  7  8  1  0
  8  9  1  0
  9 10  1  0
 10 11  1  0
 11 12  2  0
 12 13  1  0
 13 14  2  0
 14 15  1  0
 15 16  2  0
 16 17  1  0
 17 18  1  0
 14 19  1  0
 19 20  2  0
 20 21  1  0
 21 22  2  0
 22 23  1  0
 23 24  2  0
 24 25  1  0
 25 26  1  0
 26 27  1  0
 27 28  1  0
 28 29  1  0
 29 30  1  0
  7  2  1  0
 18 10  2  0
 24 19  1  0
 30 26  1  0
 17 12  1  0
 26 13  1  0
  1 31  1  0
  1 32  1  0
  1 33  1  0
  3 34  1  0
  4 35  1  0
  5 36  1  0
  6 37  1  0
  9 38  1  0
  9 39  1  0
 16 40  1  0
 20 41  1  0
 21 42  1  0
 22 43  1  0
 23 44  1  0
 25 45  1  0
 25 46  1  0
 27 47  1  0
 27 48  1  0
 28 49  1  0
 28 50  1  0
 29 51  1  0
 29 52  1  0
 30 53  1  0
 30 54  1  0
M  END
$$$$
