
     RDKit          3D

 45 47  0  0  0  0  0  0  0  0999 V2000
   -3.2111    3.1926    1.2150 C   0  0  0  0  0  0  0  0  0  0  0  0
   -3.5970    2.0213    0.3611 C   0  0  0  0  0  0  0  0  0  0  0  0
   -4.9390    1.7832    0.0456 C   0  0  0  0  0  0  0  0  0  0  0  0
   -5.2931    0.7009   -0.7590 C   0  0  0  0  0  0  0  0  0  0  0  0
   -4.3080   -0.1432   -1.2711 C   0  0  0  0  0  0  0  0  0  0  0  0
   -2.9546    0.0916   -0.9911 C   0  0  0  0  0  0  0  0  0  0  0  0
   -1.8870   -0.8044   -1.5612 C   0  0  0  0  0  0  0  0  0  0  0  0
   -1.4730   -2.0866   -0.3742 S   0  0  0  0  0  6  0  0  0  0  0  0
   -2.6676   -2.8761   -0.1139 O   0  0  0  0  0  0  0  0  0  0  0  0
   -0.7427   -1.4875    0.7308 O   0  0  0  0  0  0  0  0  0  0  0  0
   -0.3597   -3.1697   -1.2664 C   0  0  0  0  0  0  0  0  0  0  0  0
    0.6761   -2.3924   -1.9828 C   0  0  0  0  0  0  0  0  0  0  0  0
    1.0117   -2.2601   -3.3154 C   0  0  0  0  0  0  0  0  0  0  0  0
    2.1016   -1.3559   -3.3637 C   0  0  0  0  0  0  0  0  0  0  0  0
    2.3739   -0.9874   -2.0606 C   0  0  0  0  0  0  0  0  0  0  0  0
    3.3536   -0.0783   -1.5031 C   0  0  0  0  0  0  0  0  0  0  0  0
    4.1474    0.5650   -2.1827 O   0  0  0  0  0  0  0  0  0  0  0  0
    3.3077    0.0118   -0.1322 N   0  0  0  0  0  0  0  0  0  0  0  0
    4.2449    0.8199    0.6070 C   0  0  0  0  0  0  0  0  0  0  0  0
    3.8667    0.8114    2.0408 C   0  0  0  0  0  0  0  0  0  0  0  0
    2.7090    1.1323    2.7235 C   0  0  0  0  0  0  0  0  0  0  0  0
    2.9732    0.8956    4.0939 C   0  0  0  0  0  0  0  0  0  0  0  0
    4.2747    0.4559    4.1628 C   0  0  0  0  0  0  0  0  0  0  0  0
    4.8247    0.4010    2.9221 O   0  0  0  0  0  0  0  0  0  0  0  0
    1.5114   -1.6384   -1.2182 O   0  0  0  0  0  0  0  0  0  0  0  0
   -2.6104    1.1786   -0.1705 C   0  0  0  0  0  0  0  0  0  0  0  0
   -2.3641    2.9383    1.8613 H   0  0  0  0  0  0  0  0  0  0  0  0
   -2.9343    4.0425    0.5820 H   0  0  0  0  0  0  0  0  0  0  0  0
   -4.0401    3.4929    1.8688 H   0  0  0  0  0  0  0  0  0  0  0  0
   -5.7194    2.4355    0.4329 H   0  0  0  0  0  0  0  0  0  0  0  0
   -6.3410    0.5136   -0.9828 H   0  0  0  0  0  0  0  0  0  0  0  0
   -4.6079   -0.9884   -1.8869 H   0  0  0  0  0  0  0  0  0  0  0  0
   -0.9886   -0.2236   -1.7845 H   0  0  0  0  0  0  0  0  0  0  0  0
   -2.2335   -1.2904   -2.4790 H   0  0  0  0  0  0  0  0  0  0  0  0
   -0.9645   -3.7542   -1.9668 H   0  0  0  0  0  0  0  0  0  0  0  0
    0.0879   -3.8504   -0.5342 H   0  0  0  0  0  0  0  0  0  0  0  0
    0.5351   -2.7524   -4.1533 H   0  0  0  0  0  0  0  0  0  0  0  0
    2.6361   -1.0054   -4.2363 H   0  0  0  0  0  0  0  0  0  0  0  0
    2.6798   -0.6131    0.3658 H   0  0  0  0  0  0  0  0  0  0  0  0
    4.2301    1.8389    0.2045 H   0  0  0  0  0  0  0  0  0  0  0  0
    5.2492    0.4067    0.4541 H   0  0  0  0  0  0  0  0  0  0  0  0
    1.7854    1.4807    2.2811 H   0  0  0  0  0  0  0  0  0  0  0  0
    2.3001    1.0258    4.9295 H   0  0  0  0  0  0  0  0  0  0  0  0
    4.9204    0.1551    4.9776 H   0  0  0  0  0  0  0  0  0  0  0  0
   -1.5641    1.3668    0.0679 H   0  0  0  0  0  0  0  0  0  0  0  0
  1  2  1  0
  2  3  2  0
  3  4  1  0
  4  5  2  0
  5  6  1  0
  6  7  1  0
  7  8  1  0
  8  9  2  0
  8 10  2  0
  8 11  1  0
 11 12  1  0
 12 13  2  0
 13 14  1  0
 14 15  2  0
 15 16  1  0
 16 17  2  0
 16 18  1  0
 18 19  1  0
 19 20  1  0
 20 21  2  0
 21 22  1  0
 22 23  2  0
 23 24  1  0
 15 25  1  0
  6 26  2  0
 26  2  1  0
 25 12  1  0
 24 20  1  0
  1 27  1  0
  1 28  1  0
  1 29  1  0
  3 30  1  0
  4 31  1  0
  5 32  1  0
  7 33  1  0
  7 34  1  0
 11 35  1  0
 11 36  1  0
 13 37  1  0
 14 38  1  0
 18 39  1  0
 19 40  1  0
 19 41  1  0
 21 42  1  0
 22 43  1  0
 23 44  1  0
 26 45  1  0
M  END
$$$$
