
     RDKit          3D

 53 56  0  0  0  0  0  0  0  0999 V2000
   -2.5748    6.1184   -1.4260 C   0  0  0  0  0  0  0  0  0  0  0  0
   -2.3920    5.1847   -0.3695 O   0  0  0  0  0  0  0  0  0  0  0  0
   -1.9080    3.9520   -0.7094 C   0  0  0  0  0  0  0  0  0  0  0  0
   -1.7073    3.0863    0.3666 C   0  0  0  0  0  0  0  0  0  0  0  0
   -1.2152    1.7949    0.1625 C   0  0  0  0  0  0  0  0  0  0  0  0
   -0.9077    1.3440   -1.1291 C   0  0  0  0  0  0  0  0  0  0  0  0
   -0.3958   -0.0643   -1.3944 C   0  0  0  0  0  0  0  0  0  0  0  0
   -1.5552   -1.0632   -1.4457 C   0  0  0  0  0  0  0  0  0  0  0  0
   -1.2710   -1.8614   -0.2054 C   0  0  0  0  0  0  0  0  0  0  0  0
   -2.1990   -2.9043    0.2701 C   0  0  0  0  0  0  0  0  0  0  0  0
   -3.5670   -2.5982    0.3251 C   0  0  0  0  0  0  0  0  0  0  0  0
   -4.4795   -3.5393    0.8011 C   0  0  0  0  0  0  0  0  0  0  0  0
   -4.0327   -4.7854    1.2285 C   0  0  0  0  0  0  0  0  0  0  0  0
   -2.6726   -5.0940    1.1759 C   0  0  0  0  0  0  0  0  0  0  0  0
   -1.7333   -4.1632    0.6892 C   0  0  0  0  0  0  0  0  0  0  0  0
   -0.2760   -4.5556    0.6144 C   0  0  0  0  0  0  0  0  0  0  0  0
    0.3129   -4.2288   -0.5690 F   0  0  0  0  0  0  0  0  0  0  0  0
    0.4852   -4.0295    1.6099 F   0  0  0  0  0  0  0  0  0  0  0  0
   -0.1049   -5.9101    0.7195 F   0  0  0  0  0  0  0  0  0  0  0  0
   -0.1467   -1.6033    0.3815 N   0  0  0  0  0  0  0  0  0  0  0  0
    0.4444   -0.5881   -0.3132 N   0  0  0  0  0  0  0  0  0  0  0  0
    1.7805   -0.2596   -0.0873 C   0  0  0  0  0  0  0  0  0  0  0  0
    2.5326   -0.9435    0.8877 C   0  0  0  0  0  0  0  0  0  0  0  0
    3.8715   -0.6327    1.1458 C   0  0  0  0  0  0  0  0  0  0  0  0
    4.4824    0.3935    0.4299 C   0  0  0  0  0  0  0  0  0  0  0  0
    6.1703    0.8050    0.7701 S   0  0  0  0  0  6  0  0  0  0  0  0
    6.0126    1.7447    2.1603 N   0  0  0  0  0  0  0  0  0  0  0  0
    6.8769   -0.4025    1.1231 O   0  0  0  0  0  0  0  0  0  0  0  0
    6.6410    1.7107   -0.2534 O   0  0  0  0  0  0  0  0  0  0  0  0
    3.7763    1.0867   -0.5505 C   0  0  0  0  0  0  0  0  0  0  0  0
    2.4377    0.7584   -0.7993 C   0  0  0  0  0  0  0  0  0  0  0  0
   -1.1218    2.2176   -2.2074 C   0  0  0  0  0  0  0  0  0  0  0  0
   -1.6148    3.5116   -1.9991 C   0  0  0  0  0  0  0  0  0  0  0  0
   -2.9422    7.0513   -0.9879 H   0  0  0  0  0  0  0  0  0  0  0  0
   -1.6272    6.3374   -1.9293 H   0  0  0  0  0  0  0  0  0  0  0  0
   -3.3282    5.7653   -2.1377 H   0  0  0  0  0  0  0  0  0  0  0  0
   -1.9319    3.4209    1.3766 H   0  0  0  0  0  0  0  0  0  0  0  0
   -1.0630    1.1463    1.0243 H   0  0  0  0  0  0  0  0  0  0  0  0
    0.1473   -0.0918   -2.3478 H   0  0  0  0  0  0  0  0  0  0  0  0
   -2.5452   -0.6023   -1.4398 H   0  0  0  0  0  0  0  0  0  0  0  0
   -1.4653   -1.7273   -2.3121 H   0  0  0  0  0  0  0  0  0  0  0  0
   -3.9371   -1.6195    0.0303 H   0  0  0  0  0  0  0  0  0  0  0  0
   -5.5383   -3.2954    0.8508 H   0  0  0  0  0  0  0  0  0  0  0  0
   -4.7423   -5.5183    1.6064 H   0  0  0  0  0  0  0  0  0  0  0  0
   -2.3442   -6.0773    1.5137 H   0  0  0  0  0  0  0  0  0  0  0  0
    2.0675   -1.7466    1.4581 H   0  0  0  0  0  0  0  0  0  0  0  0
    4.4192   -1.1960    1.8982 H   0  0  0  0  0  0  0  0  0  0  0  0
    6.3054    2.6991    1.9459 H   0  0  0  0  0  0  0  0  0  0  0  0
    5.0734    1.7151    2.5564 H   0  0  0  0  0  0  0  0  0  0  0  0
    4.2480    1.8811   -1.1244 H   0  0  0  0  0  0  0  0  0  0  0  0
    1.9161    1.3287   -1.5624 H   0  0  0  0  0  0  0  0  0  0  0  0
   -0.9029    1.8996   -3.2249 H   0  0  0  0  0  0  0  0  0  0  0  0
   -1.7582    4.1482   -2.8657 H   0  0  0  0  0  0  0  0  0  0  0  0
  1  2  1  0
  2  3  1  0
  3  4  2  0
  4  5  1  0
  5  6  2  0
  6  7  1  0
  7  8  1  0
  8  9  1  0
  9 10  1  0
 10 11  2  0
 11 12  1  0
 12 13  2  0
 13 14  1  0
 14 15  2  0
 15 16  1  0
 16 17  1  0
 16 18  1  0
 16 19  1  0
  9 20  2  0
 20 21  1  0
 21 22  1  0
 22 23  2  0
 23 24  1  0
 24 25  2  0
 25 26  1  0
 26 27  1  0
 26 28  2  0
 26 29  2  0
 25 30  1  0
 30 31  2  0
  6 32  1  0
 32 33  2  0
 33  3  1  0
 21  7  1  0
 31 22  1  0
 15 10  1  0
  1 34  1  0
  1 35  1  0
  1 36  1  0
  4 37  1  0
  5 38  1  0
  7 39  1  0
  8 40  1  0
  8 41  1  0
 11 42  1  0
 12 43  1  0
 13 44  1  0
 14 45  1  0
 23 46  1  0
 24 47  1  0
 27 48  1  0
 27 49  1  0
 30 50  1  0
 31 51  1  0
 32 52  1  0
 33 53  1  0
M  END
$$$$
