
     RDKit          3D

 53 57  0  0  0  0  0  0  0  0999 V2000
    8.5254    0.8152   -0.5140 C   0  0  0  0  0  0  0  0  0  0  0  0
    7.6685    0.6948    0.6139 O   0  0  0  0  0  0  0  0  0  0  0  0
    6.3304    0.5771    0.3642 C   0  0  0  0  0  0  0  0  0  0  0  0
    5.7211    0.6012   -0.8860 C   0  0  0  0  0  0  0  0  0  0  0  0
    4.3282    0.4682   -1.0002 C   0  0  0  0  0  0  0  0  0  0  0  0
    3.5166    0.3093    0.1365 C   0  0  0  0  0  0  0  0  0  0  0  0
    2.0901    0.1683    0.0027 N   0  0  0  0  0  0  0  0  0  0  0  0
    1.4230   -0.0051   -1.2013 C   0  0  0  0  0  0  0  0  0  0  0  0
    0.0693   -0.1201   -0.9725 C   0  0  0  0  0  0  0  0  0  0  0  0
   -0.8764   -0.3450   -2.0474 C   0  0  0  0  0  0  0  0  0  0  0  0
   -1.0913    0.6413   -3.0165 C   0  0  0  0  0  0  0  0  0  0  0  0
   -2.0240    0.4315   -4.0338 C   0  0  0  0  0  0  0  0  0  0  0  0
   -2.7432   -0.7622   -4.0867 C   0  0  0  0  0  0  0  0  0  0  0  0
   -2.5307   -1.7490   -3.1247 C   0  0  0  0  0  0  0  0  0  0  0  0
   -1.5984   -1.5427   -2.1067 C   0  0  0  0  0  0  0  0  0  0  0  0
   -0.1386    0.0016    0.4291 C   0  0  0  0  0  0  0  0  0  0  0  0
   -1.2624   -0.0025    1.2880 C   0  0  0  0  0  0  0  0  0  0  0  0
   -2.5854   -0.1553    0.7894 N   0  0  0  0  0  0  0  0  0  0  0  0
   -3.6626    0.3074    1.5954 N   0  0  0  0  0  0  0  0  0  0  0  0
   -4.7978    0.6964    0.7313 C   0  0  0  0  0  0  0  0  0  0  0  0
   -6.1225    0.6388    1.5008 C   0  0  0  0  0  0  0  0  0  0  0  0
   -6.4637   -0.6918    1.9138 O   0  0  0  0  0  0  0  0  0  0  0  0
   -5.3129   -1.5265    2.1137 C   0  0  0  0  0  0  0  0  0  0  0  0
   -4.0680   -0.7461    2.5570 C   0  0  0  0  0  0  0  0  0  0  0  0
   -1.0396    0.1297    2.6206 N   0  0  0  0  0  0  0  0  0  0  0  0
    0.2142    0.2939    3.0569 C   0  0  0  0  0  0  0  0  0  0  0  0
    1.3355    0.3313    2.3312 N   0  0  0  0  0  0  0  0  0  0  0  0
    1.1185    0.1710    1.0106 C   0  0  0  0  0  0  0  0  0  0  0  0
    4.1425    0.2887    1.3879 C   0  0  0  0  0  0  0  0  0  0  0  0
    5.5332    0.4221    1.4959 C   0  0  0  0  0  0  0  0  0  0  0  0
    8.3129    1.7308   -1.0756 H   0  0  0  0  0  0  0  0  0  0  0  0
    8.4578   -0.0682   -1.1576 H   0  0  0  0  0  0  0  0  0  0  0  0
    9.5541    0.8813   -0.1468 H   0  0  0  0  0  0  0  0  0  0  0  0
    6.2958    0.7269   -1.7979 H   0  0  0  0  0  0  0  0  0  0  0  0
    3.9188    0.5141   -2.0042 H   0  0  0  0  0  0  0  0  0  0  0  0
    1.9543   -0.0724   -2.1390 H   0  0  0  0  0  0  0  0  0  0  0  0
   -0.5418    1.5794   -2.9820 H   0  0  0  0  0  0  0  0  0  0  0  0
   -2.1897    1.1993   -4.7856 H   0  0  0  0  0  0  0  0  0  0  0  0
   -3.4682   -0.9251   -4.8806 H   0  0  0  0  0  0  0  0  0  0  0  0
   -3.0894   -2.6808   -3.1684 H   0  0  0  0  0  0  0  0  0  0  0  0
   -1.4410   -2.3209   -1.3624 H   0  0  0  0  0  0  0  0  0  0  0  0
   -2.6013    0.1382   -0.1876 H   0  0  0  0  0  0  0  0  0  0  0  0
   -4.8743    0.0267   -0.1363 H   0  0  0  0  0  0  0  0  0  0  0  0
   -4.6282    1.7119    0.3569 H   0  0  0  0  0  0  0  0  0  0  0  0
   -6.0890    1.2775    2.3913 H   0  0  0  0  0  0  0  0  0  0  0  0
   -6.9400    1.0043    0.8710 H   0  0  0  0  0  0  0  0  0  0  0  0
   -5.1197   -2.0714    1.1821 H   0  0  0  0  0  0  0  0  0  0  0  0
   -5.5795   -2.2691    2.8729 H   0  0  0  0  0  0  0  0  0  0  0  0
   -3.2550   -1.4485    2.7755 H   0  0  0  0  0  0  0  0  0  0  0  0
   -4.2989   -0.2373    3.5014 H   0  0  0  0  0  0  0  0  0  0  0  0
    0.3324    0.4106    4.1295 H   0  0  0  0  0  0  0  0  0  0  0  0
    3.5952    0.1523    2.3140 H   0  0  0  0  0  0  0  0  0  0  0  0
    5.9960    0.3990    2.4802 H   0  0  0  0  0  0  0  0  0  0  0  0
  1  2  1  0
  2  3  1  0
  3  4  2  0
  4  5  1  0
  5  6  2  0
  6  7  1  0
  7  8  1  0
  8  9  2  0
  9 10  1  0
 10 11  2  0
 11 12  1  0
 12 13  2  0
 13 14  1  0
 14 15  2  0
  9 16  1  0
 16 17  2  0
 17 18  1  0
 18 19  1  0
 19 20  1  0
 20 21  1  0
 21 22  1  0
 22 23  1  0
 23 24  1  0
 17 25  1  0
 25 26  2  0
 26 27  1  0
 27 28  2  0
  6 29  1  0
 29 30  2  0
 30  3  1  0
 28  7  1  0
 15 10  1  0
 28 16  1  0
 24 19  1  0
  1 31  1  0
  1 32  1  0
  1 33  1  0
  4 34  1  0
  5 35  1  0
  8 36  1  0
 11 37  1  0
 12 38  1  0
 13 39  1  0
 14 40  1  0
 15 41  1  0
 18 42  1  0
 20 43  1  0
 20 44  1  0
 21 45  1  0
 21 46  1  0
 23 47  1  0
 23 48  1  0
 24 49  1  0
 24 50  1  0
 26 51  1  0
 29 52  1  0
 30 53  1  0
M  END
$$$$
