
     RDKit          3D

 67 72  0  0  0  0  0  0  0  0999 V2000
    0.7363   -1.8329   -0.2186 O   0  0  0  0  0  0  0  0  0  0  0  0
    1.2918   -0.7345   -0.2755 C   0  0  0  0  0  0  0  0  0  0  0  0
    0.6025    0.4639   -0.9291 C   0  0  0  0  0  0  0  0  0  0  0  0
    1.2769    0.8213   -2.2648 C   0  0  0  0  0  0  0  0  0  0  0  0
    0.2877    0.9625   -3.4157 C   0  0  0  0  0  0  0  0  0  0  0  0
   -0.9256    1.8006   -3.0209 C   0  0  0  0  0  0  0  0  0  0  0  0
   -1.5359    1.3097   -1.7854 N   0  0  0  0  0  0  0  0  0  0  0  0
   -2.9082    1.5384   -1.6608 C   0  0  0  0  0  0  0  0  0  0  0  0
   -3.4469    2.5959   -2.3486 N   0  0  0  0  0  0  0  0  0  0  0  0
   -4.7612    2.8715   -2.2384 C   0  0  0  0  0  0  0  0  0  0  0  0
   -5.6873    2.2247   -1.5145 N   0  0  0  0  0  0  0  0  0  0  0  0
   -5.1399    1.1912   -0.8546 C   0  0  0  0  0  0  0  0  0  0  0  0
   -3.8134    0.7898   -0.8620 C   0  0  0  0  0  0  0  0  0  0  0  0
   -3.6609   -0.3168   -0.0481 N   0  0  0  0  0  0  0  0  0  0  0  0
   -4.8526   -0.5775    0.4573 C   0  0  0  0  0  0  0  0  0  0  0  0
   -5.7882    0.3110   -0.0245 N   0  0  0  0  0  0  0  0  0  0  0  0
   -7.2038    0.3859    0.2803 C   0  0  0  0  0  0  0  0  0  0  0  0
   -7.8713   -0.9502    0.5856 C   0  0  0  0  0  0  0  0  0  0  0  0
   -7.6018   -1.4635    1.9997 C   0  0  0  0  0  0  0  0  0  0  0  0
   -6.1554   -1.3476    2.4808 C   0  0  0  0  0  0  0  0  0  0  0  0
   -5.1282   -1.6962    1.4109 C   0  0  0  0  0  0  0  0  0  0  0  0
   -0.9039    0.1881   -1.0852 C   0  0  0  0  0  0  0  0  0  0  0  0
    2.5810   -0.5582    0.2102 N   0  0  0  0  0  0  0  0  0  0  0  0
    3.2987    0.7213    0.2825 C   0  0  0  0  0  0  0  0  0  0  0  0
    4.4622    0.7198    1.2947 C   0  0  0  0  0  0  0  0  0  0  0  0
    5.3948   -0.3860    1.0348 N   0  0  0  0  0  0  0  0  0  0  0  0
    6.7179   -0.3373    1.4498 C   0  0  0  0  0  0  0  0  0  0  0  0
    7.1690    0.5875    2.4062 C   0  0  0  0  0  0  0  0  0  0  0  0
    8.5071    0.6376    2.8185 C   0  0  0  0  0  0  0  0  0  0  0  0
    9.4372   -0.2408    2.2775 C   0  0  0  0  0  0  0  0  0  0  0  0
    9.0268   -1.1644    1.3253 C   0  0  0  0  0  0  0  0  0  0  0  0
    7.6865   -1.2076    0.9210 C   0  0  0  0  0  0  0  0  0  0  0  0
    4.8230   -1.6385    0.5057 C   0  0  0  0  0  0  0  0  0  0  0  0
    3.3026   -1.7224    0.7338 C   0  0  0  0  0  0  0  0  0  0  0  0
    0.6874    1.3211   -0.2503 H   0  0  0  0  0  0  0  0  0  0  0  0
    1.8051    1.7756   -2.1422 H   0  0  0  0  0  0  0  0  0  0  0  0
    2.0391    0.0842   -2.5450 H   0  0  0  0  0  0  0  0  0  0  0  0
   -0.0434   -0.0350   -3.7330 H   0  0  0  0  0  0  0  0  0  0  0  0
    0.7865    1.4151   -4.2806 H   0  0  0  0  0  0  0  0  0  0  0  0
   -1.6278    1.7714   -3.8644 H   0  0  0  0  0  0  0  0  0  0  0  0
   -0.6215    2.8446   -2.8774 H   0  0  0  0  0  0  0  0  0  0  0  0
   -5.1131    3.7257   -2.8090 H   0  0  0  0  0  0  0  0  0  0  0  0
   -7.3212    1.0943    1.1085 H   0  0  0  0  0  0  0  0  0  0  0  0
   -7.6973    0.8148   -0.6000 H   0  0  0  0  0  0  0  0  0  0  0  0
   -7.5615   -1.7038   -0.1494 H   0  0  0  0  0  0  0  0  0  0  0  0
   -8.9569   -0.8402    0.4706 H   0  0  0  0  0  0  0  0  0  0  0  0
   -7.9126   -2.5147    2.0453 H   0  0  0  0  0  0  0  0  0  0  0  0
   -8.2449   -0.9284    2.7092 H   0  0  0  0  0  0  0  0  0  0  0  0
   -5.9731   -0.3374    2.8700 H   0  0  0  0  0  0  0  0  0  0  0  0
   -6.0304   -2.0279    3.3326 H   0  0  0  0  0  0  0  0  0  0  0  0
   -4.1837   -1.9425    1.9126 H   0  0  0  0  0  0  0  0  0  0  0  0
   -5.4274   -2.5926    0.8552 H   0  0  0  0  0  0  0  0  0  0  0  0
   -1.0962   -0.7471   -1.6262 H   0  0  0  0  0  0  0  0  0  0  0  0
   -1.3035    0.0767   -0.0715 H   0  0  0  0  0  0  0  0  0  0  0  0
    2.6045    1.5257    0.5377 H   0  0  0  0  0  0  0  0  0  0  0  0
    3.6929    0.9177   -0.7212 H   0  0  0  0  0  0  0  0  0  0  0  0
    4.9680    1.6892    1.2102 H   0  0  0  0  0  0  0  0  0  0  0  0
    4.0661    0.6271    2.3136 H   0  0  0  0  0  0  0  0  0  0  0  0
    6.4782    1.2809    2.8761 H   0  0  0  0  0  0  0  0  0  0  0  0
    8.8150    1.3638    3.5661 H   0  0  0  0  0  0  0  0  0  0  0  0
   10.4754   -0.2047    2.5945 H   0  0  0  0  0  0  0  0  0  0  0  0
    9.7453   -1.8532    0.8885 H   0  0  0  0  0  0  0  0  0  0  0  0
    7.4184   -1.9298    0.1551 H   0  0  0  0  0  0  0  0  0  0  0  0
    5.2773   -2.5128    0.9873 H   0  0  0  0  0  0  0  0  0  0  0  0
    5.0315   -1.6917   -0.5697 H   0  0  0  0  0  0  0  0  0  0  0  0
    2.9188   -2.6442    0.2837 H   0  0  0  0  0  0  0  0  0  0  0  0
    3.0875   -1.7679    1.8085 H   0  0  0  0  0  0  0  0  0  0  0  0
  1  2  2  0
  2  3  1  0
  3  4  1  0
  4  5  1  0
  5  6  1  0
  6  7  1  0
  7  8  1  0
  8  9  2  0
  9 10  1  0
 10 11  2  0
 11 12  1  0
 12 13  2  0
 13 14  1  0
 14 15  2  0
 15 16  1  0
 16 17  1  0
 17 18  1  0
 18 19  1  0
 19 20  1  0
 20 21  1  0
  7 22  1  0
  2 23  1  0
 23 24  1  0
 24 25  1  0
 25 26  1  0
 26 27  1  0
 27 28  2  0
 28 29  1  0
 29 30  2  0
 30 31  1  0
 31 32  2  0
 26 33  1  0
 33 34  1  0
 22  3  1  0
 34 23  1  0
 13  8  1  0
 21 15  1  0
 32 27  1  0
 16 12  1  0
  3 35  1  0
  4 36  1  0
  4 37  1  0
  5 38  1  0
  5 39  1  0
  6 40  1  0
  6 41  1  0
 10 42  1  0
 17 43  1  0
 17 44  1  0
 18 45  1  0
 18 46  1  0
 19 47  1  0
 19 48  1  0
 20 49  1  0
 20 50  1  0
 21 51  1  0
 21 52  1  0
 22 53  1  0
 22 54  1  0
 24 55  1  0
 24 56  1  0
 25 57  1  0
 25 58  1  0
 28 59  1  0
 29 60  1  0
 30 61  1  0
 31 62  1  0
 32 63  1  0
 33 64  1  0
 33 65  1  0
 34 66  1  0
 34 67  1  0
M  END
$$$$
