
     RDKit          3D

 41 42  0  0  0  0  0  0  0  0999 V2000
   -4.9893    0.9798   -2.3878 C   0  0  0  0  0  0  0  0  0  0  0  0
   -4.4234    1.1442   -1.0956 O   0  0  0  0  0  0  0  0  0  0  0  0
   -3.6185    0.1384   -0.6206 C   0  0  0  0  0  0  0  0  0  0  0  0
   -3.2385   -0.9853   -1.3613 C   0  0  0  0  0  0  0  0  0  0  0  0
   -2.4034   -1.9544   -0.8004 C   0  0  0  0  0  0  0  0  0  0  0  0
   -1.9408   -1.8177    0.5120 C   0  0  0  0  0  0  0  0  0  0  0  0
   -0.9910   -2.8405    1.0960 C   0  0  0  0  0  0  0  0  0  0  0  0
    0.4571   -2.6404    0.7026 C   0  0  0  0  0  0  0  0  0  0  0  0
    1.2304   -3.5753    0.5186 O   0  0  0  0  0  0  0  0  0  0  0  0
    0.7502   -1.3011    0.6479 O   0  0  0  0  0  0  0  0  0  0  0  0
    2.1066   -1.0990    0.3413 N   0  0  0  0  0  0  0  0  0  0  0  0
    2.3531    0.1626    0.1385 C   0  0  0  0  0  0  0  0  0  0  0  0
    1.3803    1.1386    0.1958 N   0  0  0  0  0  0  0  0  0  0  0  0
    3.7608    0.5599   -0.1917 C   0  0  0  0  0  0  0  0  0  0  0  0
    4.6670   -0.4036   -0.6529 C   0  0  0  0  0  0  0  0  0  0  0  0
    5.9774   -0.0408   -0.9708 C   0  0  0  0  0  0  0  0  0  0  0  0
    6.3900    1.2829   -0.8247 C   0  0  0  0  0  0  0  0  0  0  0  0
    5.4962    2.2453   -0.3558 C   0  0  0  0  0  0  0  0  0  0  0  0
    4.1839    1.8865   -0.0375 C   0  0  0  0  0  0  0  0  0  0  0  0
   -2.3218   -0.6908    1.2577 C   0  0  0  0  0  0  0  0  0  0  0  0
   -3.1540    0.2885    0.7014 C   0  0  0  0  0  0  0  0  0  0  0  0
   -3.5575    1.4257    1.3567 O   0  0  0  0  0  0  0  0  0  0  0  0
   -3.1620    1.5851    2.7115 C   0  0  0  0  0  0  0  0  0  0  0  0
   -5.6118    0.0803   -2.4373 H   0  0  0  0  0  0  0  0  0  0  0  0
   -5.6353    1.8415   -2.5821 H   0  0  0  0  0  0  0  0  0  0  0  0
   -4.2122    0.9674   -3.1590 H   0  0  0  0  0  0  0  0  0  0  0  0
   -3.5691   -1.1340   -2.3839 H   0  0  0  0  0  0  0  0  0  0  0  0
   -2.1128   -2.8143   -1.4021 H   0  0  0  0  0  0  0  0  0  0  0  0
   -1.0495   -2.8372    2.1906 H   0  0  0  0  0  0  0  0  0  0  0  0
   -1.3029   -3.8382    0.7635 H   0  0  0  0  0  0  0  0  0  0  0  0
    1.4785    1.8843   -0.4846 H   0  0  0  0  0  0  0  0  0  0  0  0
    0.4440    0.7444    0.1752 H   0  0  0  0  0  0  0  0  0  0  0  0
    4.3574   -1.4405   -0.7682 H   0  0  0  0  0  0  0  0  0  0  0  0
    6.6751   -0.7938   -1.3286 H   0  0  0  0  0  0  0  0  0  0  0  0
    7.4119    1.5625   -1.0688 H   0  0  0  0  0  0  0  0  0  0  0  0
    5.8241    3.2741   -0.2295 H   0  0  0  0  0  0  0  0  0  0  0  0
    3.5114    2.6450    0.3524 H   0  0  0  0  0  0  0  0  0  0  0  0
   -1.9440   -0.5910    2.2708 H   0  0  0  0  0  0  0  0  0  0  0  0
   -3.5973    2.5193    3.0792 H   0  0  0  0  0  0  0  0  0  0  0  0
   -3.5466    0.7714    3.3351 H   0  0  0  0  0  0  0  0  0  0  0  0
   -2.0737    1.6701    2.7964 H   0  0  0  0  0  0  0  0  0  0  0  0
  1  2  1  0
  2  3  1  0
  3  4  2  0
  4  5  1  0
  5  6  2  0
  6  7  1  0
  7  8  1  0
  8  9  2  0
  8 10  1  0
 10 11  1  0
 11 12  2  3
 12 13  1  0
 12 14  1  0
 14 15  2  0
 15 16  1  0
 16 17  2  0
 17 18  1  0
 18 19  2  0
  6 20  1  0
 20 21  2  0
 21 22  1  0
 22 23  1  0
 21  3  1  0
 19 14  1  0
  1 24  1  0
  1 25  1  0
  1 26  1  0
  4 27  1  0
  5 28  1  0
  7 29  1  0
  7 30  1  0
 13 31  1  0
 13 32  1  0
 15 33  1  0
 16 34  1  0
 17 35  1  0
 18 36  1  0
 19 37  1  0
 20 38  1  0
 23 39  1  0
 23 40  1  0
 23 41  1  0
M  END
$$$$
