
     RDKit          3D

 48 51  0  0  0  0  0  0  0  0999 V2000
   -0.8458   -0.4396    2.1691 O   0  0  0  0  0  0  0  0  0  0  0  0
    0.2330   -0.1802    1.6349 C   0  0  0  0  0  0  0  0  0  0  0  0
    1.5496   -0.3053    2.4158 C   0  0  0  0  0  0  0  0  0  0  0  0
    2.7634   -0.1166    1.5920 N   0  0  0  0  0  0  0  0  0  0  0  0
    3.3632    1.2213    1.5675 C   0  0  0  0  0  0  0  0  0  0  0  0
    4.8788    1.1346    1.5229 C   0  0  0  0  0  0  0  0  0  0  0  0
    5.2990    0.3707    0.2784 C   0  0  0  0  0  0  0  0  0  0  0  0
    4.5615   -0.9406    0.1695 C   0  0  0  0  0  0  0  0  0  0  0  0
    5.1189   -1.9514   -0.6345 C   0  0  0  0  0  0  0  0  0  0  0  0
    4.4799   -3.1777   -0.7725 C   0  0  0  0  0  0  0  0  0  0  0  0
    3.2792   -3.3985   -0.1129 C   0  0  0  0  0  0  0  0  0  0  0  0
    2.7154   -2.3907    0.6778 C   0  0  0  0  0  0  0  0  0  0  0  0
    3.3300   -1.1365    0.8332 C   0  0  0  0  0  0  0  0  0  0  0  0
    0.4007    0.2671    0.3268 N   0  0  0  0  0  0  0  0  0  0  0  0
   -0.5786    0.2933   -0.6332 N   0  0  0  0  0  0  0  0  0  0  0  0
   -1.7723    0.6572   -0.2679 C   0  0  0  0  0  0  0  0  0  0  0  0
   -2.9053    0.6771   -1.2296 C   0  0  0  0  0  0  0  0  0  0  0  0
   -2.6397    0.5798   -2.6072 C   0  0  0  0  0  0  0  0  0  0  0  0
   -1.3829    0.4187   -3.1289 O   0  0  0  0  0  0  0  0  0  0  0  0
   -3.6679    0.6559   -3.5357 C   0  0  0  0  0  0  0  0  0  0  0  0
   -4.9786    0.8250   -3.1007 C   0  0  0  0  0  0  0  0  0  0  0  0
   -5.2818    0.9064   -1.7335 C   0  0  0  0  0  0  0  0  0  0  0  0
   -6.6190    1.0637   -1.3328 C   0  0  0  0  0  0  0  0  0  0  0  0
   -6.9642    1.1307    0.0146 C   0  0  0  0  0  0  0  0  0  0  0  0
   -5.9748    1.0339    0.9812 C   0  0  0  0  0  0  0  0  0  0  0  0
   -4.6388    0.8800    0.5999 C   0  0  0  0  0  0  0  0  0  0  0  0
   -4.2465    0.8244   -0.7638 C   0  0  0  0  0  0  0  0  0  0  0  0
    1.5699   -1.2780    2.9199 H   0  0  0  0  0  0  0  0  0  0  0  0
    1.5159    0.4509    3.2094 H   0  0  0  0  0  0  0  0  0  0  0  0
    3.0728    1.7926    2.4567 H   0  0  0  0  0  0  0  0  0  0  0  0
    2.9861    1.7737    0.6981 H   0  0  0  0  0  0  0  0  0  0  0  0
    5.3185    2.1378    1.5136 H   0  0  0  0  0  0  0  0  0  0  0  0
    5.2491    0.6233    2.4209 H   0  0  0  0  0  0  0  0  0  0  0  0
    6.3807    0.1959    0.3183 H   0  0  0  0  0  0  0  0  0  0  0  0
    5.0880    0.9654   -0.6187 H   0  0  0  0  0  0  0  0  0  0  0  0
    6.0603   -1.7821   -1.1524 H   0  0  0  0  0  0  0  0  0  0  0  0
    4.9162   -3.9569   -1.3911 H   0  0  0  0  0  0  0  0  0  0  0  0
    2.7701   -4.3536   -0.2143 H   0  0  0  0  0  0  0  0  0  0  0  0
    1.7676   -2.6196    1.1560 H   0  0  0  0  0  0  0  0  0  0  0  0
    1.3482    0.1405   -0.0325 H   0  0  0  0  0  0  0  0  0  0  0  0
   -1.9728    1.0079    0.7543 H   0  0  0  0  0  0  0  0  0  0  0  0
   -0.7667    0.2926   -2.3738 H   0  0  0  0  0  0  0  0  0  0  0  0
   -3.4475    0.5863   -4.5974 H   0  0  0  0  0  0  0  0  0  0  0  0
   -5.7689    0.8848   -3.8467 H   0  0  0  0  0  0  0  0  0  0  0  0
   -7.4119    1.1311   -2.0756 H   0  0  0  0  0  0  0  0  0  0  0  0
   -8.0044    1.2489    0.3061 H   0  0  0  0  0  0  0  0  0  0  0  0
   -6.2369    1.0705    2.0358 H   0  0  0  0  0  0  0  0  0  0  0  0
   -3.9111    0.7850    1.4025 H   0  0  0  0  0  0  0  0  0  0  0  0
  1  2  2  0
  2  3  1  0
  3  4  1  0
  4  5  1  0
  5  6  1  0
  6  7  1  0
  7  8  1  0
  8  9  2  0
  9 10  1  0
 10 11  2  0
 11 12  1  0
 12 13  2  0
  2 14  1  0
 14 15  1  0
 15 16  2  3
 16 17  1  0
 17 18  2  0
 18 19  1  0
 18 20  1  0
 20 21  2  0
 21 22  1  0
 22 23  2  0
 23 24  1  0
 24 25  2  0
 25 26  1  0
 26 27  2  0
 13  4  1  0
 27 17  1  0
 13  8  1  0
 27 22  1  0
  3 28  1  0
  3 29  1  0
  5 30  1  0
  5 31  1  0
  6 32  1  0
  6 33  1  0
  7 34  1  0
  7 35  1  0
  9 36  1  0
 10 37  1  0
 11 38  1  0
 12 39  1  0
 14 40  1  0
 16 41  1  0
 19 42  1  0
 20 43  1  0
 21 44  1  0
 23 45  1  0
 24 46  1  0
 25 47  1  0
 26 48  1  0
M  END
$$$$
