
     RDKit          3D

 44 45  0  0  0  0  0  0  0  0999 V2000
    2.5431    0.1468   -5.0300 C   0  0  0  0  0  0  0  0  0  0  0  0
    1.8168    0.8814   -3.9133 C   0  0  0  0  0  0  0  0  0  0  0  0
    0.6421    0.0916   -3.3293 C   0  0  0  0  0  0  0  0  0  0  0  0
    1.0256   -1.1671   -2.5413 C   0  0  0  0  0  0  0  0  0  0  0  0
    1.7137   -0.8404   -1.2760 N   0  0  0  0  0  0  0  0  0  0  0  0
    3.1677   -1.0427   -1.3132 C   0  0  0  0  0  0  0  0  0  0  0  0
    1.0354   -0.5006   -0.0830 C   0  0  0  0  0  0  0  0  0  0  0  0
   -0.2997   -0.3111    0.0035 C   0  0  0  0  0  0  0  0  0  0  0  0
   -1.0112    0.0960    1.2074 C   0  0  0  0  0  0  0  0  0  0  0  0
   -2.3575    0.1204    1.2402 C   0  0  0  0  0  0  0  0  0  0  0  0
   -3.1396    0.5391    2.4096 C   0  0  0  0  0  0  0  0  0  0  0  0
   -4.4914    0.4277    2.4735 C   0  0  0  0  0  0  0  0  0  0  0  0
   -5.2217    0.8722    3.6151 C   0  0  0  0  0  0  0  0  0  0  0  0
   -5.8040    1.2392    4.5497 N   0  0  0  0  0  0  0  0  0  0  0  0
   -5.2625   -0.1264    1.4090 C   0  0  0  0  0  0  0  0  0  0  0  0
   -5.8804   -0.5766    0.5356 N   0  0  0  0  0  0  0  0  0  0  0  0
   -2.3090    1.1251    3.5452 C   0  0  0  0  0  0  0  0  0  0  0  0
   -0.9670    0.4121    3.7028 C   0  0  0  0  0  0  0  0  0  0  0  0
   -0.1644    0.4822    2.3986 C   0  0  0  0  0  0  0  0  0  0  0  0
    1.0747   -0.4073    2.4830 C   0  0  0  0  0  0  0  0  0  0  0  0
    1.8775   -0.3463    1.1821 C   0  0  0  0  0  0  0  0  0  0  0  0
    3.3215    0.7879   -5.4559 H   0  0  0  0  0  0  0  0  0  0  0  0
    1.8520   -0.1240   -5.8346 H   0  0  0  0  0  0  0  0  0  0  0  0
    3.0253   -0.7659   -4.6702 H   0  0  0  0  0  0  0  0  0  0  0  0
    2.5263    1.1564   -3.1258 H   0  0  0  0  0  0  0  0  0  0  0  0
    1.4276    1.8220   -4.3220 H   0  0  0  0  0  0  0  0  0  0  0  0
   -0.0263   -0.2024   -4.1482 H   0  0  0  0  0  0  0  0  0  0  0  0
    0.0643    0.7690   -2.6902 H   0  0  0  0  0  0  0  0  0  0  0  0
    0.1229   -1.7532   -2.3295 H   0  0  0  0  0  0  0  0  0  0  0  0
    1.6417   -1.8306   -3.1596 H   0  0  0  0  0  0  0  0  0  0  0  0
    3.4305   -1.9830   -0.8179 H   0  0  0  0  0  0  0  0  0  0  0  0
    3.5523   -1.0898   -2.3367 H   0  0  0  0  0  0  0  0  0  0  0  0
    3.6915   -0.2161   -0.8218 H   0  0  0  0  0  0  0  0  0  0  0  0
   -0.9190   -0.4459   -0.8774 H   0  0  0  0  0  0  0  0  0  0  0  0
   -2.8995   -0.1908    0.3476 H   0  0  0  0  0  0  0  0  0  0  0  0
   -2.8299    1.0668    4.5068 H   0  0  0  0  0  0  0  0  0  0  0  0
   -2.1353    2.1896    3.3398 H   0  0  0  0  0  0  0  0  0  0  0  0
   -0.3961    0.8772    4.5155 H   0  0  0  0  0  0  0  0  0  0  0  0
   -1.1401   -0.6328    3.9941 H   0  0  0  0  0  0  0  0  0  0  0  0
    0.1634    1.5216    2.2512 H   0  0  0  0  0  0  0  0  0  0  0  0
    1.7130   -0.0962    3.3188 H   0  0  0  0  0  0  0  0  0  0  0  0
    0.7826   -1.4481    2.6792 H   0  0  0  0  0  0  0  0  0  0  0  0
    2.6327   -1.1385    1.2391 H   0  0  0  0  0  0  0  0  0  0  0  0
    2.4107    0.6114    1.1287 H   0  0  0  0  0  0  0  0  0  0  0  0
  1  2  1  0
  2  3  1  0
  3  4  1  0
  4  5  1  0
  5  6  1  0
  5  7  1  0
  7  8  2  0
  8  9  1  0
  9 10  2  0
 10 11  1  0
 11 12  2  3
 12 13  1  0
 13 14  3  0
 12 15  1  0
 15 16  3  0
 11 17  1  0
 17 18  1  0
 18 19  1  0
 19 20  1  0
 20 21  1  0
 21  7  1  0
 19  9  1  0
  1 22  1  0
  1 23  1  0
  1 24  1  0
  2 25  1  0
  2 26  1  0
  3 27  1  0
  3 28  1  0
  4 29  1  0
  4 30  1  0
  6 31  1  0
  6 32  1  0
  6 33  1  0
  8 34  1  0
 10 35  1  0
 17 36  1  0
 17 37  1  0
 18 38  1  0
 18 39  1  0
 19 40  1  0
 20 41  1  0
 20 42  1  0
 21 43  1  0
 21 44  1  0
M  END
$$$$
