
     RDKit          3D

 45 49  0  0  0  0  0  0  0  0999 V2000
   -1.4056    2.7107   -0.8922 O   0  0  0  0  0  0  0  0  0  0  0  0
   -1.3252    1.5258   -0.5612 C   0  0  0  0  0  0  0  0  0  0  0  0
    0.0215    0.9995   -0.2093 C   0  0  0  0  0  0  0  0  0  0  0  0
    1.2478    1.6442   -0.5205 C   0  0  0  0  0  0  0  0  0  0  0  0
    2.2381    0.8214   -0.0414 C   0  0  0  0  0  0  0  0  0  0  0  0
    3.5960    0.9185   -0.1103 N   0  0  0  0  0  0  0  0  0  0  0  0
    4.3049   -0.0772    0.3533 C   0  0  0  0  0  0  0  0  0  0  0  0
    5.7639   -0.0317    0.2459 C   0  0  0  0  0  0  0  0  0  0  0  0
    6.7117   -1.0014    0.5389 C   0  0  0  0  0  0  0  0  0  0  0  0
    8.0436   -0.5837    0.2509 C   0  0  0  0  0  0  0  0  0  0  0  0
    8.0829    0.6989   -0.2341 C   0  0  0  0  0  0  0  0  0  0  0  0
    6.5303    1.3959   -0.3401 S   0  0  0  0  0  0  0  0  0  0  0  0
    3.6779   -1.2905    0.9867 C   0  0  0  0  0  0  0  0  0  0  0  0
    2.3332   -1.3202    1.0623 C   0  0  0  0  0  0  0  0  0  0  0  0
    1.5654   -2.4373    1.6520 C   0  0  0  0  0  0  0  0  0  0  0  0
    0.8477   -2.0643    2.7370 F   0  0  0  0  0  0  0  0  0  0  0  0
    2.3910   -3.4363    2.0763 F   0  0  0  0  0  0  0  0  0  0  0  0
    0.7122   -3.0127    0.7678 F   0  0  0  0  0  0  0  0  0  0  0  0
    1.5926   -0.2636    0.5479 N   0  0  0  0  0  0  0  0  0  0  0  0
    0.2472   -0.1216    0.5025 N   0  0  0  0  0  0  0  0  0  0  0  0
   -2.4352    0.6444   -0.5360 N   0  0  0  0  0  0  0  0  0  0  0  0
   -2.2326   -0.8048   -0.6690 C   0  0  0  0  0  0  0  0  0  0  0  0
   -3.3279   -1.4972   -1.4609 C   0  0  0  0  0  0  0  0  0  0  0  0
   -4.6528   -1.2722   -0.7677 C   0  0  0  0  0  0  0  0  0  0  0  0
   -4.8766    0.2000   -0.5360 C   0  0  0  0  0  0  0  0  0  0  0  0
   -6.2071    0.6413   -0.3981 C   0  0  0  0  0  0  0  0  0  0  0  0
   -6.4909    1.9838   -0.1577 C   0  0  0  0  0  0  0  0  0  0  0  0
   -5.4471    2.8872   -0.0290 C   0  0  0  0  0  0  0  0  0  0  0  0
   -4.1209    2.4521   -0.1459 C   0  0  0  0  0  0  0  0  0  0  0  0
   -3.8006    1.1110   -0.4164 C   0  0  0  0  0  0  0  0  0  0  0  0
    1.3838    2.5753   -1.0531 H   0  0  0  0  0  0  0  0  0  0  0  0
    6.4844   -1.9866    0.9244 H   0  0  0  0  0  0  0  0  0  0  0  0
    8.9262   -1.1974    0.3911 H   0  0  0  0  0  0  0  0  0  0  0  0
    8.9483    1.2620   -0.5394 H   0  0  0  0  0  0  0  0  0  0  0  0
    4.2994   -2.0903    1.3646 H   0  0  0  0  0  0  0  0  0  0  0  0
   -1.2960   -0.9997   -1.1999 H   0  0  0  0  0  0  0  0  0  0  0  0
   -2.1620   -1.2289    0.3401 H   0  0  0  0  0  0  0  0  0  0  0  0
   -3.3593   -1.0953   -2.4812 H   0  0  0  0  0  0  0  0  0  0  0  0
   -3.1199   -2.5718   -1.5389 H   0  0  0  0  0  0  0  0  0  0  0  0
   -4.6735   -1.7903    0.2043 H   0  0  0  0  0  0  0  0  0  0  0  0
   -5.4542   -1.6931   -1.3893 H   0  0  0  0  0  0  0  0  0  0  0  0
   -7.0303   -0.0670   -0.4826 H   0  0  0  0  0  0  0  0  0  0  0  0
   -7.5201    2.3191   -0.0615 H   0  0  0  0  0  0  0  0  0  0  0  0
   -5.6539    3.9359    0.1691 H   0  0  0  0  0  0  0  0  0  0  0  0
   -3.3584    3.2084    0.0060 H   0  0  0  0  0  0  0  0  0  0  0  0
  1  2  2  0
  2  3  1  0
  3  4  1  0
  4  5  2  0
  5  6  1  0
  6  7  2  0
  7  8  1  0
  8  9  2  0
  9 10  1  0
 10 11  2  0
 11 12  1  0
  7 13  1  0
 13 14  2  0
 14 15  1  0
 15 16  1  0
 15 17  1  0
 15 18  1  0
 14 19  1  0
 19 20  1  0
  2 21  1  0
 21 22  1  0
 22 23  1  0
 23 24  1  0
 24 25  1  0
 25 26  2  0
 26 27  1  0
 27 28  2  0
 28 29  1  0
 29 30  2  0
 20  3  2  0
 30 21  1  0
 19  5  1  0
 30 25  1  0
 12  8  1  0
  4 31  1  0
  9 32  1  0
 10 33  1  0
 11 34  1  0
 13 35  1  0
 22 36  1  0
 22 37  1  0
 23 38  1  0
 23 39  1  0
 24 40  1  0
 24 41  1  0
 26 42  1  0
 27 43  1  0
 28 44  1  0
 29 45  1  0
M  END
$$$$
