
     RDKit          3D

 56 60  0  0  0  0  0  0  0  0999 V2000
    1.3514    0.1793   -3.6424 C   0  0  0  0  0  0  0  0  0  0  0  0
    1.6644   -0.0712   -2.1866 C   0  0  0  0  0  0  0  0  0  0  0  0
    0.6919   -0.6057   -1.2994 C   0  0  0  0  0  0  0  0  0  0  0  0
   -0.6111   -0.8977   -1.7393 C   0  0  0  0  0  0  0  0  0  0  0  0
   -1.5632   -1.4055   -0.8701 C   0  0  0  0  0  0  0  0  0  0  0  0
   -1.2546   -1.6282    0.4191 N   0  0  0  0  0  4  0  0  0  0  0  0
   -2.2945   -2.1527    1.3462 C   0  0  0  0  0  0  0  0  0  0  0  0
   -3.0952   -0.9843    1.9460 C   0  0  0  0  0  0  0  0  0  0  0  0
   -3.8992   -0.2639    0.9416 N   0  0  0  0  0  0  0  0  0  0  0  0
   -4.2519    1.0872    1.4027 C   0  0  0  0  0  0  0  0  0  0  0  0
   -4.8214    1.9091    0.2403 C   0  0  0  0  0  0  0  0  0  0  0  0
   -5.7037    1.0895   -0.7023 C   0  0  0  0  0  0  0  0  0  0  0  0
   -6.2508   -0.1414    0.0039 C   0  0  0  0  0  0  0  0  0  0  0  0
   -5.1197   -1.0152    0.5654 C   0  0  0  0  0  0  0  0  0  0  0  0
   -0.0133   -1.3623    0.8799 C   0  0  0  0  0  0  0  0  0  0  0  0
    1.0102   -0.8556    0.0566 C   0  0  0  0  0  0  0  0  0  0  0  0
    2.3279   -0.5900    0.5566 C   0  0  0  0  0  0  0  0  0  0  0  0
    2.6881   -0.9409    1.9825 C   0  0  0  0  0  0  0  0  0  0  0  0
    3.2749    0.0324   -0.3071 C   0  0  0  0  0  0  0  0  0  0  0  0
    2.9232    0.2452   -1.6398 C   0  0  0  0  0  0  0  0  0  0  0  0
    4.0240    0.7968   -2.2610 N   0  0  0  0  0  0  0  0  0  0  0  0
    5.0511    1.0031   -1.3804 C   0  0  0  0  0  0  0  0  0  0  0  0
    6.3163    1.5608   -1.6060 C   0  0  0  0  0  0  0  0  0  0  0  0
    7.1758    1.6777   -0.5148 C   0  0  0  0  0  0  0  0  0  0  0  0
    6.7710    1.2594    0.7425 C   0  0  0  0  0  0  0  0  0  0  0  0
    7.6563    1.4189    1.7692 O   0  0  0  0  0  0  0  0  0  0  0  0
    5.5068    0.7012    0.9562 C   0  0  0  0  0  0  0  0  0  0  0  0
    4.6174    0.5519   -0.1359 C   0  0  0  0  0  0  0  0  0  0  0  0
    2.2186    0.5441   -4.1988 H   0  0  0  0  0  0  0  0  0  0  0  0
    0.5634    0.9336   -3.7350 H   0  0  0  0  0  0  0  0  0  0  0  0
    1.0305   -0.7484   -4.1274 H   0  0  0  0  0  0  0  0  0  0  0  0
   -0.9147   -0.7226   -2.7691 H   0  0  0  0  0  0  0  0  0  0  0  0
   -2.5761   -1.6205   -1.1956 H   0  0  0  0  0  0  0  0  0  0  0  0
   -2.9219   -2.8584    0.7914 H   0  0  0  0  0  0  0  0  0  0  0  0
   -1.7838   -2.7164    2.1348 H   0  0  0  0  0  0  0  0  0  0  0  0
   -2.3691   -0.2948    2.3945 H   0  0  0  0  0  0  0  0  0  0  0  0
   -3.7267   -1.3461    2.7663 H   0  0  0  0  0  0  0  0  0  0  0  0
   -3.3656    1.6147    1.7770 H   0  0  0  0  0  0  0  0  0  0  0  0
   -4.9695    1.0410    2.2324 H   0  0  0  0  0  0  0  0  0  0  0  0
   -5.4017    2.7422    0.6546 H   0  0  0  0  0  0  0  0  0  0  0  0
   -4.0057    2.3570   -0.3403 H   0  0  0  0  0  0  0  0  0  0  0  0
   -6.5208    1.7099   -1.0868 H   0  0  0  0  0  0  0  0  0  0  0  0
   -5.1141    0.7715   -1.5727 H   0  0  0  0  0  0  0  0  0  0  0  0
   -6.9085    0.1776    0.8227 H   0  0  0  0  0  0  0  0  0  0  0  0
   -6.8651   -0.7307   -0.6857 H   0  0  0  0  0  0  0  0  0  0  0  0
   -4.8407   -1.7538   -0.1943 H   0  0  0  0  0  0  0  0  0  0  0  0
   -5.5258   -1.5760    1.4169 H   0  0  0  0  0  0  0  0  0  0  0  0
    0.1351   -1.5504    1.9374 H   0  0  0  0  0  0  0  0  0  0  0  0
    3.7592   -1.1203    2.0926 H   0  0  0  0  0  0  0  0  0  0  0  0
    2.3815   -0.1371    2.6591 H   0  0  0  0  0  0  0  0  0  0  0  0
    2.2217   -1.8805    2.2962 H   0  0  0  0  0  0  0  0  0  0  0  0
    4.0707    1.0491   -3.2374 H   0  0  0  0  0  0  0  0  0  0  0  0
    6.6257    1.8986   -2.5904 H   0  0  0  0  0  0  0  0  0  0  0  0
    8.1658    2.1077   -0.6481 H   0  0  0  0  0  0  0  0  0  0  0  0
    7.2503    1.1082    2.5942 H   0  0  0  0  0  0  0  0  0  0  0  0
    5.2150    0.4029    1.9543 H   0  0  0  0  0  0  0  0  0  0  0  0
  1  2  1  0
  2  3  2  0
  3  4  1  0
  4  5  2  0
  5  6  1  0
  6  7  1  0
  7  8  1  0
  8  9  1  0
  9 10  1  0
 10 11  1  0
 11 12  1  0
 12 13  1  0
 13 14  1  0
  6 15  2  0
 15 16  1  0
 16 17  2  0
 17 18  1  0
 17 19  1  0
 19 20  2  0
 20 21  1  0
 21 22  1  0
 22 23  2  0
 23 24  1  0
 24 25  2  0
 25 26  1  0
 25 27  1  0
 27 28  2  0
 20  2  1  0
 28 22  1  0
 16  3  1  0
 28 19  1  0
 14  9  1  0
  1 29  1  0
  1 30  1  0
  1 31  1  0
  4 32  1  0
  5 33  1  0
  7 34  1  0
  7 35  1  0
  8 36  1  0
  8 37  1  0
 10 38  1  0
 10 39  1  0
 11 40  1  0
 11 41  1  0
 12 42  1  0
 12 43  1  0
 13 44  1  0
 13 45  1  0
 14 46  1  0
 14 47  1  0
 15 48  1  0
 18 49  1  0
 18 50  1  0
 18 51  1  0
 21 52  1  0
 23 53  1  0
 24 54  1  0
 26 55  1  0
 27 56  1  0
M  CHG  1   6   1
M  END
$$$$
