
     RDKit          3D

 47 50  0  0  0  0  0  0  0  0999 V2000
   -6.0374    1.8176   -1.1497 C   0  0  0  0  0  0  0  0  0  0  0  0
   -5.9243    0.3032   -1.0471 C   0  0  0  0  0  0  0  0  0  0  0  0
   -5.0761   -0.0882    0.0866 N   0  0  0  0  0  0  0  0  0  0  0  0
   -5.7765   -0.3122    1.3585 C   0  0  0  0  0  0  0  0  0  0  0  0
   -6.1647   -1.7754    1.5174 C   0  0  0  0  0  0  0  0  0  0  0  0
   -3.6961   -0.2167   -0.0300 C   0  0  0  0  0  0  0  0  0  0  0  0
   -3.0038    0.1343   -1.2025 C   0  0  0  0  0  0  0  0  0  0  0  0
   -1.6108    0.0095   -1.3265 C   0  0  0  0  0  0  0  0  0  0  0  0
   -0.8495   -0.4726   -0.2665 C   0  0  0  0  0  0  0  0  0  0  0  0
    0.6008   -0.6100   -0.4165 C   0  0  0  0  0  0  0  0  0  0  0  0
    1.5292    0.0863    0.2542 C   0  0  0  0  0  0  0  0  0  0  0  0
    1.2659    1.3264    1.4586 S   0  0  0  0  0  0  0  0  0  0  0  0
    2.9626    1.5254    1.6085 C   0  0  0  0  0  0  0  0  0  0  0  0
    3.7387    2.2446    2.3669 N   0  0  0  0  0  0  0  0  0  0  0  0
    5.0373    1.9112    2.0042 N   0  0  0  0  0  0  0  0  0  0  0  0
    4.9933    1.0184    1.0206 C   0  0  0  0  0  0  0  0  0  0  0  0
    6.1386    0.4253    0.3426 C   0  0  0  0  0  0  0  0  0  0  0  0
    7.0474   -0.3272    1.1039 C   0  0  0  0  0  0  0  0  0  0  0  0
    8.1605   -0.9210    0.5046 C   0  0  0  0  0  0  0  0  0  0  0  0
    8.3849   -0.7613   -0.8606 C   0  0  0  0  0  0  0  0  0  0  0  0
    7.5029    0.0014   -1.6263 C   0  0  0  0  0  0  0  0  0  0  0  0
    6.3878    0.5988   -1.0290 C   0  0  0  0  0  0  0  0  0  0  0  0
    5.3729    1.5800   -2.0322 Cl  0  0  0  0  0  0  0  0  0  0  0  0
    3.6754    0.7256    0.7853 N   0  0  0  0  0  0  0  0  0  0  0  0
    2.9791   -0.1507   -0.0087 C   0  0  0  0  0  0  0  0  0  0  0  0
    3.5167   -0.9595   -0.7409 O   0  0  0  0  0  0  0  0  0  0  0  0
   -1.5019   -0.8421    0.9059 C   0  0  0  0  0  0  0  0  0  0  0  0
   -2.8954   -0.7104    1.0152 C   0  0  0  0  0  0  0  0  0  0  0  0
   -6.6889    2.0917   -1.9854 H   0  0  0  0  0  0  0  0  0  0  0  0
   -6.4628    2.2433   -0.2349 H   0  0  0  0  0  0  0  0  0  0  0  0
   -5.0629    2.2879   -1.3114 H   0  0  0  0  0  0  0  0  0  0  0  0
   -6.9322   -0.1102   -0.9128 H   0  0  0  0  0  0  0  0  0  0  0  0
   -5.5700   -0.1289   -1.9897 H   0  0  0  0  0  0  0  0  0  0  0  0
   -6.6920    0.2926    1.3873 H   0  0  0  0  0  0  0  0  0  0  0  0
   -5.1878    0.0334    2.2156 H   0  0  0  0  0  0  0  0  0  0  0  0
   -6.7029   -1.9231    2.4589 H   0  0  0  0  0  0  0  0  0  0  0  0
   -6.8167   -2.1000    0.6997 H   0  0  0  0  0  0  0  0  0  0  0  0
   -5.2882   -2.4301    1.5216 H   0  0  0  0  0  0  0  0  0  0  0  0
   -3.5303    0.5323   -2.0642 H   0  0  0  0  0  0  0  0  0  0  0  0
   -1.1391    0.3029   -2.2614 H   0  0  0  0  0  0  0  0  0  0  0  0
    0.9070   -1.3402   -1.1652 H   0  0  0  0  0  0  0  0  0  0  0  0
    6.8922   -0.4531    2.1746 H   0  0  0  0  0  0  0  0  0  0  0  0
    8.8539   -1.5047    1.1058 H   0  0  0  0  0  0  0  0  0  0  0  0
    9.2520   -1.2222   -1.3278 H   0  0  0  0  0  0  0  0  0  0  0  0
    7.6941    0.1335   -2.6885 H   0  0  0  0  0  0  0  0  0  0  0  0
   -0.9464   -1.2409    1.7511 H   0  0  0  0  0  0  0  0  0  0  0  0
   -3.3365   -1.0245    1.9561 H   0  0  0  0  0  0  0  0  0  0  0  0
  1  2  1  0
  2  3  1  0
  3  4  1  0
  4  5  1  0
  3  6  1  0
  6  7  2  0
  7  8  1  0
  8  9  2  0
  9 10  1  0
 10 11  2  3
 11 12  1  0
 12 13  1  0
 13 14  2  0
 14 15  1  0
 15 16  2  0
 16 17  1  0
 17 18  2  0
 18 19  1  0
 19 20  2  0
 20 21  1  0
 21 22  2  0
 22 23  1  0
 16 24  1  0
 24 25  1  0
 25 26  2  0
  9 27  1  0
 27 28  2  0
 28  6  1  0
 25 11  1  0
 24 13  1  0
 22 17  1  0
  1 29  1  0
  1 30  1  0
  1 31  1  0
  2 32  1  0
  2 33  1  0
  4 34  1  0
  4 35  1  0
  5 36  1  0
  5 37  1  0
  5 38  1  0
  7 39  1  0
  8 40  1  0
 10 41  1  0
 18 42  1  0
 19 43  1  0
 20 44  1  0
 21 45  1  0
 27 46  1  0
 28 47  1  0
M  END
$$$$
