
     RDKit          3D

 42 44  0  0  0  0  0  0  0  0999 V2000
   -1.8979   -5.4472   -0.9717 C   0  0  0  0  0  0  0  0  0  0  0  0
   -1.3029   -4.0786   -0.6889 C   0  0  0  0  0  0  0  0  0  0  0  0
   -2.6371   -2.8827   -0.3565 S   0  0  0  0  0  0  0  0  0  0  0  0
   -1.6842   -1.3995   -0.0516 C   0  0  0  0  0  0  0  0  0  0  0  0
   -2.3580   -0.2433    0.2794 C   0  0  0  0  0  0  0  0  0  0  0  0
   -1.6065    0.8903    0.5053 C   0  0  0  0  0  0  0  0  0  0  0  0
   -2.1882    2.0870    0.8542 N   0  0  0  0  0  0  0  0  0  0  0  0
   -3.5704    2.4406    0.5522 C   0  0  0  0  0  0  0  0  0  0  0  0
   -3.5581    3.9677    0.4692 C   0  0  0  0  0  0  0  0  0  0  0  0
   -2.3753    4.3643    1.3382 C   0  0  0  0  0  0  0  0  0  0  0  0
   -1.3561    3.2714    1.0321 C   0  0  0  0  0  0  0  0  0  0  0  0
   -0.2663    0.8394    0.4206 N   0  0  0  0  0  0  0  0  0  0  0  0
    0.3169   -0.3282    0.0916 C   0  0  0  0  0  0  0  0  0  0  0  0
    1.7914   -0.3590   -0.0042 C   0  0  0  0  0  0  0  0  0  0  0  0
    2.5700    0.7840    0.2576 C   0  0  0  0  0  0  0  0  0  0  0  0
    3.9670    0.7586    0.1681 C   0  0  0  0  0  0  0  0  0  0  0  0
    4.6332   -0.4194   -0.1776 C   0  0  0  0  0  0  0  0  0  0  0  0
    6.1269   -0.4407   -0.3068 C   0  0  0  0  0  0  0  0  0  0  0  0
    3.8797   -1.5619   -0.4562 C   0  0  0  0  0  0  0  0  0  0  0  0
    2.4828   -1.5310   -0.3651 C   0  0  0  0  0  0  0  0  0  0  0  0
   -0.3509   -1.4644   -0.1567 N   0  0  0  0  0  0  0  0  0  0  0  0
   -1.0969   -6.1667   -1.1716 H   0  0  0  0  0  0  0  0  0  0  0  0
   -2.4720   -5.8209   -0.1170 H   0  0  0  0  0  0  0  0  0  0  0  0
   -2.5518   -5.4281   -1.8502 H   0  0  0  0  0  0  0  0  0  0  0  0
   -0.6396   -4.1417    0.1798 H   0  0  0  0  0  0  0  0  0  0  0  0
   -0.7195   -3.7488   -1.5547 H   0  0  0  0  0  0  0  0  0  0  0  0
   -3.4352   -0.2383    0.3704 H   0  0  0  0  0  0  0  0  0  0  0  0
   -3.9267    2.0189   -0.3943 H   0  0  0  0  0  0  0  0  0  0  0  0
   -4.2240    2.1023    1.3637 H   0  0  0  0  0  0  0  0  0  0  0  0
   -3.3805    4.2831   -0.5662 H   0  0  0  0  0  0  0  0  0  0  0  0
   -4.5001    4.4120    0.8026 H   0  0  0  0  0  0  0  0  0  0  0  0
   -2.6605    4.3311    2.3967 H   0  0  0  0  0  0  0  0  0  0  0  0
   -1.9980    5.3655    1.1130 H   0  0  0  0  0  0  0  0  0  0  0  0
   -0.6414    3.1603    1.8545 H   0  0  0  0  0  0  0  0  0  0  0  0
   -0.8140    3.5094    0.1086 H   0  0  0  0  0  0  0  0  0  0  0  0
    2.0846    1.7183    0.5364 H   0  0  0  0  0  0  0  0  0  0  0  0
    4.5269    1.6683    0.3729 H   0  0  0  0  0  0  0  0  0  0  0  0
    6.5893    0.2685    0.3877 H   0  0  0  0  0  0  0  0  0  0  0  0
    6.5253   -1.4329   -0.0701 H   0  0  0  0  0  0  0  0  0  0  0  0
    6.4180   -0.1769   -1.3281 H   0  0  0  0  0  0  0  0  0  0  0  0
    4.3708   -2.4882   -0.7458 H   0  0  0  0  0  0  0  0  0  0  0  0
    1.9292   -2.4426   -0.5841 H   0  0  0  0  0  0  0  0  0  0  0  0
  1  2  1  0
  2  3  1  0
  3  4  1  0
  4  5  2  0
  5  6  1  0
  6  7  1  0
  7  8  1  0
  8  9  1  0
  9 10  1  0
 10 11  1  0
  6 12  2  0
 12 13  1  0
 13 14  1  0
 14 15  2  0
 15 16  1  0
 16 17  2  0
 17 18  1  0
 17 19  1  0
 19 20  2  0
 13 21  2  0
 21  4  1  0
 11  7  1  0
 20 14  1  0
  1 22  1  0
  1 23  1  0
  1 24  1  0
  2 25  1  0
  2 26  1  0
  5 27  1  0
  8 28  1  0
  8 29  1  0
  9 30  1  0
  9 31  1  0
 10 32  1  0
 10 33  1  0
 11 34  1  0
 11 35  1  0
 15 36  1  0
 16 37  1  0
 18 38  1  0
 18 39  1  0
 18 40  1  0
 19 41  1  0
 20 42  1  0
M  END
$$$$
