
     RDKit          3D

 56 59  0  0  0  0  0  0  0  0999 V2000
   -0.7549   -0.2238   -0.5001 O   0  0  0  0  0  0  0  0  0  0  0  0
   -0.6105   -0.6120    0.8754 C   0  0  0  0  0  0  0  0  0  0  0  0
   -0.9625    0.5622    1.8038 C   0  0  0  0  0  0  0  0  0  0  0  0
   -2.3772    0.7095    2.0047 O   0  0  0  0  0  0  0  0  0  0  0  0
   -3.0780    1.1799    0.8452 C   0  0  0  0  0  0  0  0  0  0  0  0
   -4.5245    1.5196    1.2448 C   0  0  0  0  0  0  0  0  0  0  0  0
   -5.2479    2.3455    0.1846 C   0  0  0  0  0  0  0  0  0  0  0  0
   -5.3810    1.6298   -1.0473 O   0  0  0  0  0  0  0  0  0  0  0  0
   -5.8618    0.3651   -0.8254 C   0  0  0  0  0  0  0  0  0  0  0  0
   -6.3943   -0.3068   -1.9241 C   0  0  0  0  0  0  0  0  0  0  0  0
   -6.9120   -1.5936   -1.7676 C   0  0  0  0  0  0  0  0  0  0  0  0
   -6.8907   -2.2079   -0.5142 C   0  0  0  0  0  0  0  0  0  0  0  0
   -6.3424   -1.5402    0.5823 C   0  0  0  0  0  0  0  0  0  0  0  0
   -5.8170   -0.2590    0.4246 C   0  0  0  0  0  0  0  0  0  0  0  0
   -5.2670    0.3193    1.5390 O   0  0  0  0  0  0  0  0  0  0  0  0
    0.8146   -1.1627    1.1338 C   0  0  0  0  0  0  0  0  0  0  0  0
    1.9062   -0.1699    1.2222 N   0  0  0  0  0  0  0  0  0  0  0  0
    2.1441    0.5262   -0.0674 C   0  0  0  0  0  0  0  0  0  0  0  0
    3.3512    1.4974   -0.0219 C   0  0  0  0  0  0  0  0  0  0  0  0
    4.5828    0.7952    0.4078 N   0  0  0  0  0  0  0  0  0  0  0  0
    5.3686    0.2192   -0.5930 C   0  0  0  0  0  0  0  0  0  0  0  0
    5.7380    0.9709   -1.7234 C   0  0  0  0  0  0  0  0  0  0  0  0
    6.5333    0.4408   -2.7465 C   0  0  0  0  0  0  0  0  0  0  0  0
    6.9975   -0.8646   -2.6591 C   0  0  0  0  0  0  0  0  0  0  0  0
    6.6751   -1.6272   -1.5436 C   0  0  0  0  0  0  0  0  0  0  0  0
    5.8795   -1.0862   -0.5240 C   0  0  0  0  0  0  0  0  0  0  0  0
    4.3790    0.1144    1.7012 C   0  0  0  0  0  0  0  0  0  0  0  0
    3.1610   -0.8388    1.6531 C   0  0  0  0  0  0  0  0  0  0  0  0
   -0.6379   -1.0261   -1.0372 H   0  0  0  0  0  0  0  0  0  0  0  0
   -1.3316   -1.4220    1.0402 H   0  0  0  0  0  0  0  0  0  0  0  0
   -0.5550    1.5103    1.4349 H   0  0  0  0  0  0  0  0  0  0  0  0
   -0.5474    0.3808    2.8008 H   0  0  0  0  0  0  0  0  0  0  0  0
   -2.5757    2.0756    0.4632 H   0  0  0  0  0  0  0  0  0  0  0  0
   -3.0671    0.3961    0.0836 H   0  0  0  0  0  0  0  0  0  0  0  0
   -4.5025    2.0927    2.1795 H   0  0  0  0  0  0  0  0  0  0  0  0
   -6.2516    2.6295    0.5273 H   0  0  0  0  0  0  0  0  0  0  0  0
   -4.6988    3.2696   -0.0254 H   0  0  0  0  0  0  0  0  0  0  0  0
   -6.4150    0.1752   -2.8973 H   0  0  0  0  0  0  0  0  0  0  0  0
   -7.3349   -2.1156   -2.6221 H   0  0  0  0  0  0  0  0  0  0  0  0
   -7.2966   -3.2087   -0.3915 H   0  0  0  0  0  0  0  0  0  0  0  0
   -6.3139   -2.0206    1.5563 H   0  0  0  0  0  0  0  0  0  0  0  0
    0.7699   -1.6975    2.0918 H   0  0  0  0  0  0  0  0  0  0  0  0
    1.0528   -1.9066    0.3620 H   0  0  0  0  0  0  0  0  0  0  0  0
    1.2699    1.1291   -0.3304 H   0  0  0  0  0  0  0  0  0  0  0  0
    2.3024   -0.2061   -0.8698 H   0  0  0  0  0  0  0  0  0  0  0  0
    3.4502    1.9949   -0.9917 H   0  0  0  0  0  0  0  0  0  0  0  0
    3.1410    2.2944    0.7034 H   0  0  0  0  0  0  0  0  0  0  0  0
    5.4364    2.0118   -1.8075 H   0  0  0  0  0  0  0  0  0  0  0  0
    6.7967    1.0583   -3.6008 H   0  0  0  0  0  0  0  0  0  0  0  0
    7.6182   -1.2802   -3.4475 H   0  0  0  0  0  0  0  0  0  0  0  0
    7.0443   -2.6457   -1.4568 H   0  0  0  0  0  0  0  0  0  0  0  0
    5.6648   -1.7300    0.3218 H   0  0  0  0  0  0  0  0  0  0  0  0
    4.1919    0.8831    2.4630 H   0  0  0  0  0  0  0  0  0  0  0  0
    5.2794   -0.4124    2.0367 H   0  0  0  0  0  0  0  0  0  0  0  0
    3.3817   -1.6797    0.9839 H   0  0  0  0  0  0  0  0  0  0  0  0
    3.0190   -1.2525    2.6588 H   0  0  0  0  0  0  0  0  0  0  0  0
  1  2  1  0
  2  3  1  0
  3  4  1  0
  4  5  1  0
  5  6  1  0
  6  7  1  0
  7  8  1  0
  8  9  1  0
  9 10  2  0
 10 11  1  0
 11 12  2  0
 12 13  1  0
 13 14  2  0
 14 15  1  0
  2 16  1  0
 16 17  1  0
 17 18  1  0
 18 19  1  0
 19 20  1  0
 20 21  1  0
 21 22  2  0
 22 23  1  0
 23 24  2  0
 24 25  1  0
 25 26  2  0
 20 27  1  0
 27 28  1  0
 15  6  1  0
 28 17  1  0
 14  9  1  0
 26 21  1  0
  1 29  1  0
  2 30  1  0
  3 31  1  0
  3 32  1  0
  5 33  1  0
  5 34  1  0
  6 35  1  0
  7 36  1  0
  7 37  1  0
 10 38  1  0
 11 39  1  0
 12 40  1  0
 13 41  1  0
 16 42  1  0
 16 43  1  0
 18 44  1  0
 18 45  1  0
 19 46  1  0
 19 47  1  0
 22 48  1  0
 23 49  1  0
 24 50  1  0
 25 51  1  0
 26 52  1  0
 27 53  1  0
 27 54  1  0
 28 55  1  0
 28 56  1  0
M  END
$$$$
