
     RDKit          3D

 49 52  0  0  0  0  0  0  0  0999 V2000
   -1.3146    5.4283    0.5823 C   0  0  0  0  0  0  0  0  0  0  0  0
   -1.0171    4.1237   -0.0962 C   0  0  0  0  0  0  0  0  0  0  0  0
   -0.7620    4.0837   -1.4707 C   0  0  0  0  0  0  0  0  0  0  0  0
   -0.5172    2.8679   -2.1071 C   0  0  0  0  0  0  0  0  0  0  0  0
   -0.5344    1.6796   -1.3776 C   0  0  0  0  0  0  0  0  0  0  0  0
   -0.7942    1.6900    0.0013 C   0  0  0  0  0  0  0  0  0  0  0  0
   -0.8558    0.4094    0.8209 C   0  0  0  0  0  0  0  0  0  0  0  0
   -2.2256   -0.2585    0.6869 C   0  0  0  0  0  0  0  0  0  0  0  0
   -1.8510   -1.4997   -0.0745 C   0  0  0  0  0  0  0  0  0  0  0  0
   -2.8757   -2.4378   -0.5903 C   0  0  0  0  0  0  0  0  0  0  0  0
   -4.2396   -2.2377   -0.3490 C   0  0  0  0  0  0  0  0  0  0  0  0
   -5.1790   -3.1426   -0.8511 C   0  0  0  0  0  0  0  0  0  0  0  0
   -4.7616   -4.2473   -1.5925 C   0  0  0  0  0  0  0  0  0  0  0  0
   -3.4044   -4.4520   -1.8341 C   0  0  0  0  0  0  0  0  0  0  0  0
   -2.4630   -3.5503   -1.3344 C   0  0  0  0  0  0  0  0  0  0  0  0
   -0.5750   -1.6957   -0.2147 N   0  0  0  0  0  0  0  0  0  0  0  0
    0.0642   -0.6302    0.3527 N   0  0  0  0  0  0  0  0  0  0  0  0
    1.4440   -0.6499    0.5521 C   0  0  0  0  0  0  0  0  0  0  0  0
    2.1322    0.4058    1.1740 C   0  0  0  0  0  0  0  0  0  0  0  0
    3.5199    0.3722    1.3626 C   0  0  0  0  0  0  0  0  0  0  0  0
    4.2493   -0.7290    0.9185 C   0  0  0  0  0  0  0  0  0  0  0  0
    5.9948   -0.7917    1.1795 S   0  0  0  0  0  6  0  0  0  0  0  0
    6.5851   -0.1240   -0.2431 N   0  0  0  0  0  0  0  0  0  0  0  0
    6.4309   -2.1687    1.1817 O   0  0  0  0  0  0  0  0  0  0  0  0
    6.3551    0.1340    2.2286 O   0  0  0  0  0  0  0  0  0  0  0  0
    3.6014   -1.7996    0.3084 C   0  0  0  0  0  0  0  0  0  0  0  0
    2.2150   -1.7486    0.1262 C   0  0  0  0  0  0  0  0  0  0  0  0
   -1.0470    2.9236    0.6279 C   0  0  0  0  0  0  0  0  0  0  0  0
   -2.3910    5.6241    0.5609 H   0  0  0  0  0  0  0  0  0  0  0  0
   -0.9777    5.4119    1.6242 H   0  0  0  0  0  0  0  0  0  0  0  0
   -0.7945    6.2547    0.0865 H   0  0  0  0  0  0  0  0  0  0  0  0
   -0.7502    5.0007   -2.0554 H   0  0  0  0  0  0  0  0  0  0  0  0
   -0.3120    2.8436   -3.1742 H   0  0  0  0  0  0  0  0  0  0  0  0
   -0.3373    0.7400   -1.8922 H   0  0  0  0  0  0  0  0  0  0  0  0
   -0.6668    0.6347    1.8784 H   0  0  0  0  0  0  0  0  0  0  0  0
   -2.9672    0.3417    0.1527 H   0  0  0  0  0  0  0  0  0  0  0  0
   -2.6170   -0.5507    1.6672 H   0  0  0  0  0  0  0  0  0  0  0  0
   -4.5967   -1.3899    0.2272 H   0  0  0  0  0  0  0  0  0  0  0  0
   -6.2386   -2.9865   -0.6631 H   0  0  0  0  0  0  0  0  0  0  0  0
   -5.4942   -4.9502   -1.9817 H   0  0  0  0  0  0  0  0  0  0  0  0
   -3.0766   -5.3132   -2.4110 H   0  0  0  0  0  0  0  0  0  0  0  0
   -1.4061   -3.7213   -1.5297 H   0  0  0  0  0  0  0  0  0  0  0  0
    1.6012    1.2871    1.5216 H   0  0  0  0  0  0  0  0  0  0  0  0
    4.0148    1.2083    1.8509 H   0  0  0  0  0  0  0  0  0  0  0  0
    7.0893    0.7385   -0.0386 H   0  0  0  0  0  0  0  0  0  0  0  0
    7.1347   -0.8181   -0.7495 H   0  0  0  0  0  0  0  0  0  0  0  0
    4.1546   -2.6723   -0.0290 H   0  0  0  0  0  0  0  0  0  0  0  0
    1.7239   -2.5907   -0.3581 H   0  0  0  0  0  0  0  0  0  0  0  0
   -1.2670    2.9529    1.6938 H   0  0  0  0  0  0  0  0  0  0  0  0
  1  2  1  0
  2  3  2  0
  3  4  1  0
  4  5  2  0
  5  6  1  0
  6  7  1  0
  7  8  1  0
  8  9  1  0
  9 10  1  0
 10 11  2  0
 11 12  1  0
 12 13  2  0
 13 14  1  0
 14 15  2  0
  9 16  2  0
 16 17  1  0
 17 18  1  0
 18 19  2  0
 19 20  1  0
 20 21  2  0
 21 22  1  0
 22 23  1  0
 22 24  2  0
 22 25  2  0
 21 26  1  0
 26 27  2  0
  6 28  2  0
 28  2  1  0
 17  7  1  0
 27 18  1  0
 15 10  1  0
  1 29  1  0
  1 30  1  0
  1 31  1  0
  3 32  1  0
  4 33  1  0
  5 34  1  0
  7 35  1  0
  8 36  1  0
  8 37  1  0
 11 38  1  0
 12 39  1  0
 13 40  1  0
 14 41  1  0
 15 42  1  0
 19 43  1  0
 20 44  1  0
 23 45  1  0
 23 46  1  0
 26 47  1  0
 27 48  1  0
 28 49  1  0
M  END
$$$$
