
     RDKit          3D

 45 47  0  0  0  0  0  0  0  0999 V2000
    6.9367    0.6340   -0.0586 C   0  0  0  0  0  0  0  0  0  0  0  0
    5.5090    0.2282   -0.1244 C   0  0  0  0  0  0  0  0  0  0  0  0
    4.6711    0.7067   -1.1009 N   0  0  0  0  0  0  0  0  0  0  0  0
    3.4062    0.1895   -0.9514 C   0  0  0  0  0  0  0  0  0  0  0  0
    2.2518    0.3971   -1.7151 C   0  0  0  0  0  0  0  0  0  0  0  0
    1.0866   -0.2731   -1.3250 C   0  0  0  0  0  0  0  0  0  0  0  0
    1.0785   -1.1136   -0.2059 C   0  0  0  0  0  0  0  0  0  0  0  0
   -0.1528   -1.8330    0.2272 C   0  0  0  0  0  0  0  0  0  0  0  0
   -0.0739   -2.8669    0.8816 O   0  0  0  0  0  0  0  0  0  0  0  0
   -1.3525   -1.2502   -0.1166 N   0  0  0  0  0  0  0  0  0  0  0  0
   -2.6060   -1.7606    0.4048 C   0  0  0  0  0  0  0  0  0  0  0  0
   -3.8072   -1.0638   -0.2585 C   0  0  0  0  0  0  0  0  0  0  0  0
   -3.6765    0.4094   -0.2935 N   0  0  0  0  0  0  0  0  0  0  0  0
   -4.6419    0.9851   -1.2577 C   0  0  0  0  0  0  0  0  0  0  0  0
   -4.9038    2.4722   -0.9810 C   0  0  0  0  0  0  0  0  0  0  0  0
   -5.5253    2.6970    0.2915 O   0  0  0  0  0  0  0  0  0  0  0  0
   -5.2168    1.6829    1.2563 C   0  0  0  0  0  0  0  0  0  0  0  0
   -3.8378    1.0384    1.0377 C   0  0  0  0  0  0  0  0  0  0  0  0
    2.2546   -1.3181    0.5338 C   0  0  0  0  0  0  0  0  0  0  0  0
    3.4389   -0.6511    0.1589 C   0  0  0  0  0  0  0  0  0  0  0  0
    4.7724   -0.6262    0.6805 C   0  0  0  0  0  0  0  0  0  0  0  0
    5.2550   -1.3845    1.8667 C   0  0  0  0  0  0  0  0  0  0  0  0
    7.1943    1.3395   -0.8550 H   0  0  0  0  0  0  0  0  0  0  0  0
    7.5859   -0.2415   -0.1596 H   0  0  0  0  0  0  0  0  0  0  0  0
    7.1514    1.1150    0.9010 H   0  0  0  0  0  0  0  0  0  0  0  0
    4.9401    1.3490   -1.8328 H   0  0  0  0  0  0  0  0  0  0  0  0
    2.2562    1.0456   -2.5852 H   0  0  0  0  0  0  0  0  0  0  0  0
    0.1919   -0.1437   -1.9286 H   0  0  0  0  0  0  0  0  0  0  0  0
   -1.3692   -0.2713   -0.3794 H   0  0  0  0  0  0  0  0  0  0  0  0
   -2.6487   -2.8409    0.2266 H   0  0  0  0  0  0  0  0  0  0  0  0
   -2.6021   -1.6068    1.4891 H   0  0  0  0  0  0  0  0  0  0  0  0
   -3.8527   -1.4302   -1.2930 H   0  0  0  0  0  0  0  0  0  0  0  0
   -4.7385   -1.3713    0.2328 H   0  0  0  0  0  0  0  0  0  0  0  0
   -4.2464    0.8646   -2.2722 H   0  0  0  0  0  0  0  0  0  0  0  0
   -5.6003    0.4517   -1.2028 H   0  0  0  0  0  0  0  0  0  0  0  0
   -5.5674    2.8869   -1.7467 H   0  0  0  0  0  0  0  0  0  0  0  0
   -3.9705    3.0467   -1.0135 H   0  0  0  0  0  0  0  0  0  0  0  0
   -5.2595    2.1502    2.2454 H   0  0  0  0  0  0  0  0  0  0  0  0
   -6.0082    0.9250    1.2215 H   0  0  0  0  0  0  0  0  0  0  0  0
   -3.0781    1.8275    1.1044 H   0  0  0  0  0  0  0  0  0  0  0  0
   -3.6275    0.3410    1.8548 H   0  0  0  0  0  0  0  0  0  0  0  0
    2.2520   -1.9836    1.3933 H   0  0  0  0  0  0  0  0  0  0  0  0
    5.0972   -2.4583    1.7223 H   0  0  0  0  0  0  0  0  0  0  0  0
    6.3225   -1.2225    2.0448 H   0  0  0  0  0  0  0  0  0  0  0  0
    4.7115   -1.0718    2.7642 H   0  0  0  0  0  0  0  0  0  0  0  0
  1  2  1  0
  2  3  1  0
  3  4  1  0
  4  5  2  0
  5  6  1  0
  6  7  2  0
  7  8  1  0
  8  9  2  0
  8 10  1  0
 10 11  1  0
 11 12  1  0
 12 13  1  0
 13 14  1  0
 14 15  1  0
 15 16  1  0
 16 17  1  0
 17 18  1  0
  7 19  1  0
 19 20  2  0
 20 21  1  0
 21 22  1  0
 21  2  2  0
 20  4  1  0
 18 13  1  0
  1 23  1  0
  1 24  1  0
  1 25  1  0
  3 26  1  0
  5 27  1  0
  6 28  1  0
 10 29  1  0
 11 30  1  0
 11 31  1  0
 12 32  1  0
 12 33  1  0
 14 34  1  0
 14 35  1  0
 15 36  1  0
 15 37  1  0
 17 38  1  0
 17 39  1  0
 18 40  1  0
 18 41  1  0
 19 42  1  0
 22 43  1  0
 22 44  1  0
 22 45  1  0
M  END
$$$$
