
     RDKit          3D

 38 40  0  0  0  0  0  0  0  0999 V2000
   -0.4714    1.1909   -0.6742 O   0  0  0  0  0  0  0  0  0  0  0  0
   -0.6887    0.1926   -1.3446 C   0  0  0  0  0  0  0  0  0  0  0  0
   -1.9299   -0.6722   -1.2861 C   0  0  0  0  0  0  0  0  0  0  0  0
   -2.8396   -0.3608   -0.1203 C   0  0  0  0  0  0  0  0  0  0  0  0
   -2.7219   -1.0723    1.0807 C   0  0  0  0  0  0  0  0  0  0  0  0
   -3.5470   -0.7729    2.1643 C   0  0  0  0  0  0  0  0  0  0  0  0
   -4.4971    0.2423    2.0600 C   0  0  0  0  0  0  0  0  0  0  0  0
   -4.6346    0.9690    0.8685 C   0  0  0  0  0  0  0  0  0  0  0  0
   -5.6466    2.0837    0.7715 C   0  0  0  0  0  0  0  0  0  0  0  0
   -6.8215    1.7864    1.3958 F   0  0  0  0  0  0  0  0  0  0  0  0
   -5.9819    2.3984   -0.5117 F   0  0  0  0  0  0  0  0  0  0  0  0
   -5.2064    3.2406    1.3376 F   0  0  0  0  0  0  0  0  0  0  0  0
   -3.7929    0.6646   -0.2139 C   0  0  0  0  0  0  0  0  0  0  0  0
    0.1587   -0.3081   -2.2850 O   0  0  0  0  0  0  0  0  0  0  0  0
    1.3970    0.3948   -2.4268 C   0  0  0  0  0  0  0  0  0  0  0  0
    2.3009    0.0680   -1.3558 N   0  0  0  0  0  0  0  0  0  0  0  0
    3.0942    0.9996   -0.7464 C   0  0  0  0  0  0  0  0  0  0  0  0
    3.1740    2.1960   -0.9469 O   0  0  0  0  0  0  0  0  0  0  0  0
    3.9466    0.2694    0.1890 C   0  0  0  0  0  0  0  0  0  0  0  0
    4.8898    0.7266    1.0879 C   0  0  0  0  0  0  0  0  0  0  0  0
    5.5746   -0.2348    1.8382 C   0  0  0  0  0  0  0  0  0  0  0  0
    5.3088   -1.6101    1.6684 C   0  0  0  0  0  0  0  0  0  0  0  0
    4.3531   -2.0476    0.7459 C   0  0  0  0  0  0  0  0  0  0  0  0
    3.6859   -1.0785    0.0225 C   0  0  0  0  0  0  0  0  0  0  0  0
    2.6617   -1.2037   -1.0128 C   0  0  0  0  0  0  0  0  0  0  0  0
    2.2722   -2.2668   -1.4564 O   0  0  0  0  0  0  0  0  0  0  0  0
   -1.6198   -1.7226   -1.2249 H   0  0  0  0  0  0  0  0  0  0  0  0
   -2.4835   -0.5460   -2.2239 H   0  0  0  0  0  0  0  0  0  0  0  0
   -1.9819   -1.8637    1.1837 H   0  0  0  0  0  0  0  0  0  0  0  0
   -3.4454   -1.3286    3.0932 H   0  0  0  0  0  0  0  0  0  0  0  0
   -5.1315    0.4696    2.9156 H   0  0  0  0  0  0  0  0  0  0  0  0
   -3.8787    1.2395   -1.1360 H   0  0  0  0  0  0  0  0  0  0  0  0
    1.2342    1.4760   -2.5064 H   0  0  0  0  0  0  0  0  0  0  0  0
    1.8528    0.0546   -3.3630 H   0  0  0  0  0  0  0  0  0  0  0  0
    5.0886    1.7873    1.2029 H   0  0  0  0  0  0  0  0  0  0  0  0
    6.3253    0.0802    2.5611 H   0  0  0  0  0  0  0  0  0  0  0  0
    5.8584   -2.3387    2.2621 H   0  0  0  0  0  0  0  0  0  0  0  0
    4.1435   -3.1024    0.6003 H   0  0  0  0  0  0  0  0  0  0  0  0
  1  2  2  0
  2  3  1  0
  3  4  1  0
  4  5  2  0
  5  6  1  0
  6  7  2  0
  7  8  1  0
  8  9  1  0
  9 10  1  0
  9 11  1  0
  9 12  1  0
  8 13  2  0
  2 14  1  0
 14 15  1  0
 15 16  1  0
 16 17  1  0
 17 18  2  0
 17 19  1  0
 19 20  2  0
 20 21  1  0
 21 22  2  0
 22 23  1  0
 23 24  2  0
 24 25  1  0
 25 26  2  0
 13  4  1  0
 25 16  1  0
 24 19  1  0
  3 27  1  0
  3 28  1  0
  5 29  1  0
  6 30  1  0
  7 31  1  0
 13 32  1  0
 15 33  1  0
 15 34  1  0
 20 35  1  0
 21 36  1  0
 22 37  1  0
 23 38  1  0
M  END
$$$$
