
     RDKit          3D

 46 48  0  0  0  0  0  0  0  0999 V2000
    2.0715    4.6856    0.8169 C   0  0  0  0  0  0  0  0  0  0  0  0
    2.7219    3.3558    0.5741 C   0  0  0  0  0  0  0  0  0  0  0  0
    3.7623    2.9874    1.1015 O   0  0  0  0  0  0  0  0  0  0  0  0
    1.9892    2.6331   -0.3182 O   0  0  0  0  0  0  0  0  0  0  0  0
    2.5187    1.3381   -0.6436 C   0  0  0  0  0  0  0  0  0  0  0  0
    2.0385    0.3045    0.3690 C   0  0  0  0  0  0  0  0  0  0  0  0
    2.5595   -1.0872    0.0181 C   0  0  0  0  0  0  0  0  0  0  0  0
    1.9600   -2.1015    0.8846 N   0  0  0  0  0  0  0  0  0  0  0  0
    0.7403   -2.7341    0.6003 C   0  0  0  0  0  0  0  0  0  0  0  0
   -0.1421   -2.2158   -0.3932 C   0  0  0  0  0  0  0  0  0  0  0  0
   -1.4397   -2.7126   -0.6788 C   0  0  0  0  0  0  0  0  0  0  0  0
   -2.5055   -2.0207   -1.9062 S   0  0  0  0  0  0  0  0  0  0  0  0
   -2.4972   -0.3050   -1.4182 C   0  0  0  0  0  0  0  0  0  0  0  0
   -3.1901    0.1078   -0.2770 C   0  0  0  0  0  0  0  0  0  0  0  0
   -3.1440    1.4438    0.1275 C   0  0  0  0  0  0  0  0  0  0  0  0
   -2.4134    2.3854   -0.6092 C   0  0  0  0  0  0  0  0  0  0  0  0
   -2.3344    3.8085   -0.1441 C   0  0  0  0  0  0  0  0  0  0  0  0
   -1.7230    1.9690   -1.7532 C   0  0  0  0  0  0  0  0  0  0  0  0
   -1.7736    0.6335   -2.1612 C   0  0  0  0  0  0  0  0  0  0  0  0
   -1.8436   -3.8213    0.0971 C   0  0  0  0  0  0  0  0  0  0  0  0
   -2.9799   -4.5326    0.0769 N   0  0  0  0  0  0  0  0  0  0  0  0
   -2.8441   -5.5066    1.0453 O   0  0  0  0  0  0  0  0  0  0  0  0
   -1.6237   -5.4214    1.6850 N   0  0  0  0  0  0  0  0  0  0  0  0
   -0.9828   -4.3792    1.1363 C   0  0  0  0  0  0  0  0  0  0  0  0
    0.2823   -3.8167    1.3944 C   0  0  0  0  0  0  0  0  0  0  0  0
    1.0650   -4.3813    2.4590 N   0  0  0  0  0  4  0  0  0  0  0  0
    0.5309   -4.5038    3.5682 O   0  0  0  0  0  0  0  0  0  0  0  0
    2.2413   -4.6729    2.1939 O   0  0  0  0  0  1  0  0  0  0  0  0
    1.0774    4.5453    1.2585 H   0  0  0  0  0  0  0  0  0  0  0  0
    2.0019    5.2399   -0.1271 H   0  0  0  0  0  0  0  0  0  0  0  0
    2.6871    5.2653    1.5103 H   0  0  0  0  0  0  0  0  0  0  0  0
    2.1415    1.0870   -1.6421 H   0  0  0  0  0  0  0  0  0  0  0  0
    3.6128    1.3644   -0.7153 H   0  0  0  0  0  0  0  0  0  0  0  0
    0.9434    0.3309    0.4124 H   0  0  0  0  0  0  0  0  0  0  0  0
    2.3673    0.5807    1.3792 H   0  0  0  0  0  0  0  0  0  0  0  0
    3.6438   -1.1017    0.1805 H   0  0  0  0  0  0  0  0  0  0  0  0
    2.4116   -1.3308   -1.0407 H   0  0  0  0  0  0  0  0  0  0  0  0
    2.6614   -2.7355    1.2844 H   0  0  0  0  0  0  0  0  0  0  0  0
    0.1814   -1.3643   -0.9895 H   0  0  0  0  0  0  0  0  0  0  0  0
   -3.7673   -0.6045    0.3091 H   0  0  0  0  0  0  0  0  0  0  0  0
   -3.6828    1.7450    1.0235 H   0  0  0  0  0  0  0  0  0  0  0  0
   -1.6085    3.8954    0.6729 H   0  0  0  0  0  0  0  0  0  0  0  0
   -3.3110    4.1500    0.2132 H   0  0  0  0  0  0  0  0  0  0  0  0
   -2.0278    4.4783   -0.9573 H   0  0  0  0  0  0  0  0  0  0  0  0
   -1.1419    2.6818   -2.3350 H   0  0  0  0  0  0  0  0  0  0  0  0
   -1.2346    0.3329   -3.0562 H   0  0  0  0  0  0  0  0  0  0  0  0
  1  2  1  0
  2  3  2  0
  2  4  1  0
  4  5  1  0
  5  6  1  0
  6  7  1  0
  7  8  1  0
  8  9  1  0
  9 10  1  0
 10 11  2  0
 11 12  1  0
 12 13  1  0
 13 14  2  0
 14 15  1  0
 15 16  2  0
 16 17  1  0
 16 18  1  0
 18 19  2  0
 11 20  1  0
 20 21  2  0
 21 22  1  0
 22 23  1  0
 23 24  2  0
 24 25  1  0
 25 26  1  0
 26 27  2  0
 26 28  1  0
 25  9  2  0
 19 13  1  0
 24 20  1  0
  1 29  1  0
  1 30  1  0
  1 31  1  0
  5 32  1  0
  5 33  1  0
  6 34  1  0
  6 35  1  0
  7 36  1  0
  7 37  1  0
  8 38  1  0
 10 39  1  0
 14 40  1  0
 15 41  1  0
 17 42  1  0
 17 43  1  0
 17 44  1  0
 18 45  1  0
 19 46  1  0
M  CHG  2  26   1  28  -1
M  END
$$$$
