
     RDKit          3D

 41 43  0  0  0  0  0  0  0  0999 V2000
   -3.5035   -3.5775    1.0213 C   0  0  0  0  0  0  0  0  0  0  0  0
   -4.1170   -2.4810    0.1642 C   0  0  0  0  0  0  0  0  0  0  0  0
   -3.5867   -1.0809    0.4884 C   0  0  0  0  0  0  0  0  0  0  0  0
   -2.0988   -0.9223    0.1772 C   0  0  0  0  0  0  0  0  0  0  0  0
   -1.5870    0.7989    0.4639 S   0  0  0  0  0  0  0  0  0  0  0  0
    0.0958    0.7246    0.0293 C   0  0  0  0  0  0  0  0  0  0  0  0
    0.6391   -0.4064   -0.3060 N   0  0  0  0  0  0  0  0  0  0  0  0
    1.9681   -0.1139   -0.4612 C   0  0  0  0  0  0  0  0  0  0  0  0
    2.9733   -0.9307   -0.8081 C   0  0  0  0  0  0  0  0  0  0  0  0
    2.9294   -2.3332   -1.1119 C   0  0  0  0  0  0  0  0  0  0  0  0
    4.0881   -3.0855   -1.4893 C   0  0  0  0  0  0  0  0  0  0  0  0
    3.8027   -4.4117   -1.7314 C   0  0  0  0  0  0  0  0  0  0  0  0
    2.1455   -4.7607   -1.5066 S   0  0  0  0  0  0  0  0  0  0  0  0
    1.8068   -3.1350   -1.0845 C   0  0  0  0  0  0  0  0  0  0  0  0
    2.1994    1.3311   -0.1744 C   0  0  0  0  0  0  0  0  0  0  0  0
    3.2808    1.8904   -0.2299 O   0  0  0  0  0  0  0  0  0  0  0  0
    0.9367    1.8061    0.1016 N   0  0  0  0  0  0  0  0  0  0  0  0
    0.6637    3.1772    0.3653 C   0  0  0  0  0  0  0  0  0  0  0  0
    1.6258    3.9815    0.9998 C   0  0  0  0  0  0  0  0  0  0  0  0
    1.3863    5.3343    1.2649 C   0  0  0  0  0  0  0  0  0  0  0  0
    0.1817    5.9157    0.8878 C   0  0  0  0  0  0  0  0  0  0  0  0
   -0.7764    5.1463    0.2378 C   0  0  0  0  0  0  0  0  0  0  0  0
   -0.5341    3.7925   -0.0254 C   0  0  0  0  0  0  0  0  0  0  0  0
   -3.9927   -4.5345    0.8129 H   0  0  0  0  0  0  0  0  0  0  0  0
   -2.4366   -3.7001    0.8132 H   0  0  0  0  0  0  0  0  0  0  0  0
   -3.6267   -3.3592    2.0867 H   0  0  0  0  0  0  0  0  0  0  0  0
   -5.2027   -2.4848    0.3184 H   0  0  0  0  0  0  0  0  0  0  0  0
   -3.9469   -2.7081   -0.8947 H   0  0  0  0  0  0  0  0  0  0  0  0
   -4.1672   -0.3597   -0.1014 H   0  0  0  0  0  0  0  0  0  0  0  0
   -3.7785   -0.8589    1.5459 H   0  0  0  0  0  0  0  0  0  0  0  0
   -1.5044   -1.5771    0.8215 H   0  0  0  0  0  0  0  0  0  0  0  0
   -1.9063   -1.1866   -0.8680 H   0  0  0  0  0  0  0  0  0  0  0  0
    3.9631   -0.4773   -0.8717 H   0  0  0  0  0  0  0  0  0  0  0  0
    5.0881   -2.6783   -1.5813 H   0  0  0  0  0  0  0  0  0  0  0  0
    4.4880   -5.1931   -2.0295 H   0  0  0  0  0  0  0  0  0  0  0  0
    0.7894   -2.8663   -0.8386 H   0  0  0  0  0  0  0  0  0  0  0  0
    2.5774    3.5685    1.3281 H   0  0  0  0  0  0  0  0  0  0  0  0
    2.1455    5.9294    1.7667 H   0  0  0  0  0  0  0  0  0  0  0  0
   -0.0053    6.9670    1.0903 H   0  0  0  0  0  0  0  0  0  0  0  0
   -1.7124    5.5997   -0.0798 H   0  0  0  0  0  0  0  0  0  0  0  0
   -1.2915    3.2596   -0.5917 H   0  0  0  0  0  0  0  0  0  0  0  0
  1  2  1  0
  2  3  1  0
  3  4  1  0
  4  5  1  0
  5  6  1  0
  6  7  2  0
  7  8  1  0
  8  9  2  3
  9 10  1  0
 10 11  1  0
 11 12  2  0
 12 13  1  0
 13 14  1  0
  8 15  1  0
 15 16  2  0
 15 17  1  0
 17 18  1  0
 18 19  2  0
 19 20  1  0
 20 21  2  0
 21 22  1  0
 22 23  2  0
 17  6  1  0
 23 18  1  0
 14 10  2  0
  1 24  1  0
  1 25  1  0
  1 26  1  0
  2 27  1  0
  2 28  1  0
  3 29  1  0
  3 30  1  0
  4 31  1  0
  4 32  1  0
  9 33  1  0
 11 34  1  0
 12 35  1  0
 14 36  1  0
 19 37  1  0
 20 38  1  0
 21 39  1  0
 22 40  1  0
 23 41  1  0
M  END
$$$$
