
     RDKit          3D

 51 53  0  0  0  0  0  0  0  0999 V2000
   -6.7442    4.5729   -0.6838 C   0  0  0  0  0  0  0  0  0  0  0  0
   -6.0856    3.3597   -1.2852 C   0  0  0  0  0  0  0  0  0  0  0  0
   -6.7108    2.7457   -2.3802 C   0  0  0  0  0  0  0  0  0  0  0  0
   -6.1497    1.6253   -2.9800 C   0  0  0  0  0  0  0  0  0  0  0  0
   -4.9532    1.1003   -2.4966 C   0  0  0  0  0  0  0  0  0  0  0  0
   -4.2975    1.6852   -1.4083 C   0  0  0  0  0  0  0  0  0  0  0  0
   -3.0782    1.1678   -0.9049 N   0  0  0  0  0  0  0  0  0  0  0  0
   -2.3343    0.0970   -1.3820 C   0  0  0  0  0  0  0  0  0  0  0  0
   -2.5841   -0.5961   -2.3635 O   0  0  0  0  0  0  0  0  0  0  0  0
   -1.0895   -0.1618   -0.5487 C   0  0  0  0  0  0  0  0  0  0  0  0
    0.2501    0.9197   -1.1299 S   0  0  0  0  0  0  0  0  0  0  0  0
    1.5396    0.3343   -0.1126 C   0  0  0  0  0  0  0  0  0  0  0  0
    1.2867   -0.0541    1.0877 N   0  0  0  0  0  0  0  0  0  0  0  0
    2.3451   -0.4798    1.8632 C   0  0  0  0  0  0  0  0  0  0  0  0
    2.2027   -0.7132    3.0591 O   0  0  0  0  0  0  0  0  0  0  0  0
    3.7054   -0.6545    1.2200 C   0  0  0  0  0  0  0  0  0  0  0  0
    4.7676   -1.2634    2.0988 C   0  0  0  0  0  0  0  0  0  0  0  0
    4.7534   -2.7767    2.0897 C   0  0  0  0  0  0  0  0  0  0  0  0
    5.4979   -3.4980    1.1452 C   0  0  0  0  0  0  0  0  0  0  0  0
    5.4701   -4.8945    1.1365 C   0  0  0  0  0  0  0  0  0  0  0  0
    4.6958   -5.5848    2.0672 C   0  0  0  0  0  0  0  0  0  0  0  0
    3.9490   -4.8799    3.0079 C   0  0  0  0  0  0  0  0  0  0  0  0
    3.9766   -3.4842    3.0188 C   0  0  0  0  0  0  0  0  0  0  0  0
    3.8599   -0.1950   -0.0411 C   0  0  0  0  0  0  0  0  0  0  0  0
    5.1363   -0.2309   -0.8348 C   0  0  0  0  0  0  0  0  0  0  0  0
    2.7693    0.3402   -0.6840 N   0  0  0  0  0  0  0  0  0  0  0  0
   -4.8693    2.8281   -0.7855 C   0  0  0  0  0  0  0  0  0  0  0  0
   -4.1803    3.4757    0.3938 C   0  0  0  0  0  0  0  0  0  0  0  0
   -6.0775    5.4380   -0.7468 H   0  0  0  0  0  0  0  0  0  0  0  0
   -7.6678    4.8351   -1.2116 H   0  0  0  0  0  0  0  0  0  0  0  0
   -7.0112    4.3831    0.3601 H   0  0  0  0  0  0  0  0  0  0  0  0
   -7.6447    3.1393   -2.7762 H   0  0  0  0  0  0  0  0  0  0  0  0
   -6.6406    1.1561   -3.8290 H   0  0  0  0  0  0  0  0  0  0  0  0
   -4.5592    0.2239   -3.0002 H   0  0  0  0  0  0  0  0  0  0  0  0
   -2.6667    1.6693   -0.1298 H   0  0  0  0  0  0  0  0  0  0  0  0
   -1.3100    0.0230    0.5084 H   0  0  0  0  0  0  0  0  0  0  0  0
   -0.8086   -1.2149   -0.6586 H   0  0  0  0  0  0  0  0  0  0  0  0
    5.7670   -0.9179    1.8096 H   0  0  0  0  0  0  0  0  0  0  0  0
    4.6683   -0.9031    3.1312 H   0  0  0  0  0  0  0  0  0  0  0  0
    6.1110   -2.9816    0.4114 H   0  0  0  0  0  0  0  0  0  0  0  0
    6.0533   -5.4452    0.4029 H   0  0  0  0  0  0  0  0  0  0  0  0
    4.6740   -6.6715    2.0608 H   0  0  0  0  0  0  0  0  0  0  0  0
    3.3415   -5.4147    3.7343 H   0  0  0  0  0  0  0  0  0  0  0  0
    3.3831   -2.9500    3.7606 H   0  0  0  0  0  0  0  0  0  0  0  0
    5.9833   -0.6499   -0.2884 H   0  0  0  0  0  0  0  0  0  0  0  0
    4.9994   -0.8342   -1.7392 H   0  0  0  0  0  0  0  0  0  0  0  0
    5.4158    0.7841   -1.1389 H   0  0  0  0  0  0  0  0  0  0  0  0
    2.8522    0.6227   -1.6530 H   0  0  0  0  0  0  0  0  0  0  0  0
   -4.7403    4.3116    0.8220 H   0  0  0  0  0  0  0  0  0  0  0  0
   -4.0478    2.7451    1.2002 H   0  0  0  0  0  0  0  0  0  0  0  0
   -3.2034    3.8669    0.0871 H   0  0  0  0  0  0  0  0  0  0  0  0
  1  2  1  0
  2  3  2  0
  3  4  1  0
  4  5  2  0
  5  6  1  0
  6  7  1  0
  7  8  1  0
  8  9  2  0
  8 10  1  0
 10 11  1  0
 11 12  1  0
 12 13  2  0
 13 14  1  0
 14 15  2  0
 14 16  1  0
 16 17  1  0
 17 18  1  0
 18 19  2  0
 19 20  1  0
 20 21  2  0
 21 22  1  0
 22 23  2  0
 16 24  2  0
 24 25  1  0
 24 26  1  0
  6 27  2  0
 27 28  1  0
 27  2  1  0
 26 12  1  0
 23 18  1  0
  1 29  1  0
  1 30  1  0
  1 31  1  0
  3 32  1  0
  4 33  1  0
  5 34  1  0
  7 35  1  0
 10 36  1  0
 10 37  1  0
 17 38  1  0
 17 39  1  0
 19 40  1  0
 20 41  1  0
 21 42  1  0
 22 43  1  0
 23 44  1  0
 25 45  1  0
 25 46  1  0
 25 47  1  0
 26 48  1  0
 28 49  1  0
 28 50  1  0
 28 51  1  0
M  END
$$$$
