
     RDKit          3D

 50 53  0  0  0  0  0  0  0  0999 V2000
    6.5401    1.4326    2.5051 C   0  0  0  0  0  0  0  0  0  0  0  0
    6.1465    0.0645    1.9666 C   0  0  0  0  0  0  0  0  0  0  0  0
    5.4872    0.1829    0.6591 N   0  0  0  0  0  0  0  0  0  0  0  0
    6.3697    0.0776   -0.5107 C   0  0  0  0  0  0  0  0  0  0  0  0
    6.4701   -1.3624   -0.9934 C   0  0  0  0  0  0  0  0  0  0  0  0
    4.1131    0.3608    0.5368 C   0  0  0  0  0  0  0  0  0  0  0  0
    3.2813    0.5829    1.6485 C   0  0  0  0  0  0  0  0  0  0  0  0
    1.8935    0.7618    1.5334 C   0  0  0  0  0  0  0  0  0  0  0  0
    1.2783    0.7174    0.2863 C   0  0  0  0  0  0  0  0  0  0  0  0
   -0.1686    0.9200    0.1821 C   0  0  0  0  0  0  0  0  0  0  0  0
   -1.0635    0.0084   -0.2241 C   0  0  0  0  0  0  0  0  0  0  0  0
   -0.7541   -1.6384   -0.7168 S   0  0  0  0  0  0  0  0  0  0  0  0
   -2.4348   -1.8651   -0.9710 C   0  0  0  0  0  0  0  0  0  0  0  0
   -3.1714   -2.8673   -1.3517 N   0  0  0  0  0  0  0  0  0  0  0  0
   -4.4768   -2.4013   -1.3351 N   0  0  0  0  0  0  0  0  0  0  0  0
   -4.4817   -1.1270   -0.9522 C   0  0  0  0  0  0  0  0  0  0  0  0
   -5.6654   -0.2826   -0.7926 C   0  0  0  0  0  0  0  0  0  0  0  0
   -5.7342    0.9540   -1.4563 C   0  0  0  0  0  0  0  0  0  0  0  0
   -6.8613    1.7693   -1.3416 C   0  0  0  0  0  0  0  0  0  0  0  0
   -7.9419    1.3544   -0.5719 C   0  0  0  0  0  0  0  0  0  0  0  0
   -7.8971    0.1250    0.0837 C   0  0  0  0  0  0  0  0  0  0  0  0
   -6.7650   -0.7028   -0.0125 C   0  0  0  0  0  0  0  0  0  0  0  0
   -6.7780   -2.0296    0.7007 C   0  0  0  0  0  0  0  0  0  0  0  0
   -3.1799   -0.7678   -0.7067 N   0  0  0  0  0  0  0  0  0  0  0  0
   -2.5159    0.3517   -0.2684 C   0  0  0  0  0  0  0  0  0  0  0  0
   -3.0703    1.3974    0.0112 O   0  0  0  0  0  0  0  0  0  0  0  0
    2.0717    0.5118   -0.8385 C   0  0  0  0  0  0  0  0  0  0  0  0
    3.4584    0.3352   -0.7073 C   0  0  0  0  0  0  0  0  0  0  0  0
    5.6687    2.0782    2.6500 H   0  0  0  0  0  0  0  0  0  0  0  0
    7.2210    1.9447    1.8171 H   0  0  0  0  0  0  0  0  0  0  0  0
    7.0482    1.3273    3.4688 H   0  0  0  0  0  0  0  0  0  0  0  0
    5.5270   -0.4787    2.6890 H   0  0  0  0  0  0  0  0  0  0  0  0
    7.0559   -0.5421    1.8680 H   0  0  0  0  0  0  0  0  0  0  0  0
    6.0528    0.7426   -1.3218 H   0  0  0  0  0  0  0  0  0  0  0  0
    7.3767    0.4237   -0.2445 H   0  0  0  0  0  0  0  0  0  0  0  0
    5.4967   -1.7572   -1.2997 H   0  0  0  0  0  0  0  0  0  0  0  0
    7.1471   -1.4267   -1.8510 H   0  0  0  0  0  0  0  0  0  0  0  0
    6.8590   -2.0154   -0.2051 H   0  0  0  0  0  0  0  0  0  0  0  0
    3.6923    0.6359    2.6518 H   0  0  0  0  0  0  0  0  0  0  0  0
    1.3102    0.9323    2.4353 H   0  0  0  0  0  0  0  0  0  0  0  0
   -0.5054    1.9091    0.4920 H   0  0  0  0  0  0  0  0  0  0  0  0
   -4.9104    1.2984   -2.0777 H   0  0  0  0  0  0  0  0  0  0  0  0
   -6.8953    2.7253   -1.8576 H   0  0  0  0  0  0  0  0  0  0  0  0
   -8.8232    1.9849   -0.4852 H   0  0  0  0  0  0  0  0  0  0  0  0
   -8.7569   -0.1875    0.6732 H   0  0  0  0  0  0  0  0  0  0  0  0
   -6.8989   -2.8450   -0.0191 H   0  0  0  0  0  0  0  0  0  0  0  0
   -7.6050   -2.0884    1.4168 H   0  0  0  0  0  0  0  0  0  0  0  0
   -5.8547   -2.1742    1.2710 H   0  0  0  0  0  0  0  0  0  0  0  0
    1.6333    0.4849   -1.8330 H   0  0  0  0  0  0  0  0  0  0  0  0
    4.0109    0.1647   -1.6260 H   0  0  0  0  0  0  0  0  0  0  0  0
  1  2  1  0
  2  3  1  0
  3  4  1  0
  4  5  1  0
  3  6  1  0
  6  7  2  0
  7  8  1  0
  8  9  2  0
  9 10  1  0
 10 11  2  3
 11 12  1  0
 12 13  1  0
 13 14  2  0
 14 15  1  0
 15 16  2  0
 16 17  1  0
 17 18  2  0
 18 19  1  0
 19 20  2  0
 20 21  1  0
 21 22  2  0
 22 23  1  0
 16 24  1  0
 24 25  1  0
 25 26  2  0
  9 27  1  0
 27 28  2  0
 28  6  1  0
 25 11  1  0
 24 13  1  0
 22 17  1  0
  1 29  1  0
  1 30  1  0
  1 31  1  0
  2 32  1  0
  2 33  1  0
  4 34  1  0
  4 35  1  0
  5 36  1  0
  5 37  1  0
  5 38  1  0
  7 39  1  0
  8 40  1  0
 10 41  1  0
 18 42  1  0
 19 43  1  0
 20 44  1  0
 21 45  1  0
 23 46  1  0
 23 47  1  0
 23 48  1  0
 27 49  1  0
 28 50  1  0
M  END
$$$$
