
     RDKit          3D

 31 32  0  0  0  0  0  0  0  0999 V2000
   -5.9197   -2.0166    0.8007 N   0  0  0  0  0  0  0  0  0  0  0  0
   -5.1737   -0.8167    0.8072 N   0  0  0  0  0  0  0  0  0  0  0  0
   -4.1091   -0.6733   -0.0837 C   0  0  0  0  0  0  0  0  0  0  0  0
   -3.7355   -1.5863   -0.8163 O   0  0  0  0  0  0  0  0  0  0  0  0
   -3.4728    0.7197   -0.0290 C   0  0  0  0  0  0  0  0  0  0  0  0
   -2.3622    0.9318   -0.8832 O   0  0  0  0  0  0  0  0  0  0  0  0
   -1.1245    0.5996   -0.4081 C   0  0  0  0  0  0  0  0  0  0  0  0
   -0.8574   -0.2559    0.6584 C   0  0  0  0  0  0  0  0  0  0  0  0
    0.4653   -0.5140    1.0412 C   0  0  0  0  0  0  0  0  0  0  0  0
    1.5465    0.0725    0.3628 C   0  0  0  0  0  0  0  0  0  0  0  0
    2.9650   -0.2281    0.8038 C   0  0  0  0  0  0  0  0  0  0  0  0
    3.9293   -1.0905   -0.4826 S   0  0  0  0  0  0  0  0  0  0  0  0
    5.1437    0.2226   -0.7580 C   0  0  0  0  0  0  0  0  0  0  0  0
    5.4364    0.8686    0.5803 C   0  0  0  0  0  0  0  0  0  0  0  0
    3.8507    1.2699    1.3534 S   0  0  0  0  0  0  0  0  0  0  0  0
    1.2620    0.9200   -0.7199 C   0  0  0  0  0  0  0  0  0  0  0  0
   -0.0586    1.1739   -1.1012 C   0  0  0  0  0  0  0  0  0  0  0  0
   -5.3616   -2.7271    1.2863 H   0  0  0  0  0  0  0  0  0  0  0  0
   -5.9269   -2.3608   -0.1700 H   0  0  0  0  0  0  0  0  0  0  0  0
   -5.5719   -0.0039    1.2745 H   0  0  0  0  0  0  0  0  0  0  0  0
   -4.2476    1.4232   -0.3578 H   0  0  0  0  0  0  0  0  0  0  0  0
   -3.2393    0.9854    1.0100 H   0  0  0  0  0  0  0  0  0  0  0  0
   -1.6487   -0.7604    1.2016 H   0  0  0  0  0  0  0  0  0  0  0  0
    0.6425   -1.1912    1.8748 H   0  0  0  0  0  0  0  0  0  0  0  0
    2.9411   -0.9022    1.6666 H   0  0  0  0  0  0  0  0  0  0  0  0
    4.7375    0.9463   -1.4732 H   0  0  0  0  0  0  0  0  0  0  0  0
    6.0531   -0.2010   -1.1946 H   0  0  0  0  0  0  0  0  0  0  0  0
    5.9980    0.1953    1.2373 H   0  0  0  0  0  0  0  0  0  0  0  0
    6.0278    1.7803    0.4534 H   0  0  0  0  0  0  0  0  0  0  0  0
    2.0665    1.3899   -1.2810 H   0  0  0  0  0  0  0  0  0  0  0  0
   -0.2560    1.8289   -1.9462 H   0  0  0  0  0  0  0  0  0  0  0  0
  1  2  1  0
  2  3  1  0
  3  4  2  0
  3  5  1  0
  5  6  1  0
  6  7  1  0
  7  8  2  0
  8  9  1  0
  9 10  2  0
 10 11  1  0
 11 12  1  0
 12 13  1  0
 13 14  1  0
 14 15  1  0
 10 16  1  0
 16 17  2  0
 17  7  1  0
 15 11  1  0
  1 18  1  0
  1 19  1  0
  2 20  1  0
  5 21  1  0
  5 22  1  0
  8 23  1  0
  9 24  1  0
 11 25  1  0
 13 26  1  0
 13 27  1  0
 14 28  1  0
 14 29  1  0
 16 30  1  0
 17 31  1  0
M  END
$$$$
