
     RDKit          3D

 51 54  0  0  0  0  0  0  0  0999 V2000
    2.6711   -0.7136    2.8195 C   0  0  0  0  0  0  0  0  0  0  0  0
    4.0064   -0.4035    2.1572 C   0  0  0  0  0  0  0  0  0  0  0  0
    3.8677    0.2443    0.7756 C   0  0  0  0  0  0  0  0  0  0  0  0
    3.3698   -0.7001   -0.2734 C   0  0  0  0  0  0  0  0  0  0  0  0
    2.0874   -0.8856   -0.7764 C   0  0  0  0  0  0  0  0  0  0  0  0
    0.8443   -0.2040   -0.4105 C   0  0  0  0  0  0  0  0  0  0  0  0
    0.8141    0.7143    0.4033 O   0  0  0  0  0  0  0  0  0  0  0  0
   -0.2541   -0.7125   -1.0983 N   0  0  0  0  0  0  0  0  0  0  0  0
   -1.5250   -0.1968   -1.0886 N   0  0  0  0  0  0  0  0  0  0  0  0
   -1.9755    0.2930    0.0253 C   0  0  0  0  0  0  0  0  0  0  0  0
   -3.3301    0.8944    0.1434 C   0  0  0  0  0  0  0  0  0  0  0  0
   -4.0238    0.6452    1.3484 C   0  0  0  0  0  0  0  0  0  0  0  0
   -3.3842   -0.1211    2.2905 O   0  0  0  0  0  0  0  0  0  0  0  0
   -4.0404   -0.3339    3.5339 C   0  0  0  0  0  0  0  0  0  0  0  0
   -5.3094    1.1589    1.5089 C   0  0  0  0  0  0  0  0  0  0  0  0
   -5.8966    1.9159    0.4949 C   0  0  0  0  0  0  0  0  0  0  0  0
   -5.2142    2.1911   -0.6969 C   0  0  0  0  0  0  0  0  0  0  0  0
   -5.8349    2.9748   -1.6849 C   0  0  0  0  0  0  0  0  0  0  0  0
   -5.1779    3.2896   -2.8716 C   0  0  0  0  0  0  0  0  0  0  0  0
   -3.8877    2.8286   -3.0822 C   0  0  0  0  0  0  0  0  0  0  0  0
   -3.2609    2.0454   -2.1093 C   0  0  0  0  0  0  0  0  0  0  0  0
   -3.9042    1.6889   -0.8959 C   0  0  0  0  0  0  0  0  0  0  0  0
    2.1160   -1.8658   -1.7321 N   0  0  0  0  0  0  0  0  0  0  0  0
    3.3576   -2.2954   -1.8502 N   0  0  0  0  0  0  0  0  0  0  0  0
    4.1599   -1.6077   -0.9848 N   0  0  0  0  0  0  0  0  0  0  0  0
    5.5510   -1.8795   -0.9074 C   0  0  0  0  0  0  0  0  0  0  0  0
    6.3388   -1.2447   -0.0389 N   0  0  0  0  0  0  0  0  0  0  0  0
    7.6005   -1.7949   -0.2560 O   0  0  0  0  0  0  0  0  0  0  0  0
    7.5646   -2.7611   -1.2547 N   0  0  0  0  0  0  0  0  0  0  0  0
    6.2972   -2.8053   -1.6630 C   0  0  0  0  0  0  0  0  0  0  0  0
    5.8435   -3.6142   -2.6392 N   0  0  0  0  0  0  0  0  0  0  0  0
    2.8361   -1.1169    3.8240 H   0  0  0  0  0  0  0  0  0  0  0  0
    2.0611    0.1898    2.9159 H   0  0  0  0  0  0  0  0  0  0  0  0
    2.1045   -1.4580    2.2526 H   0  0  0  0  0  0  0  0  0  0  0  0
    4.5956   -1.3255    2.1022 H   0  0  0  0  0  0  0  0  0  0  0  0
    4.5575    0.2865    2.8073 H   0  0  0  0  0  0  0  0  0  0  0  0
    3.2041    1.1132    0.8489 H   0  0  0  0  0  0  0  0  0  0  0  0
    4.8302    0.6686    0.4698 H   0  0  0  0  0  0  0  0  0  0  0  0
   -0.0541   -1.3186   -1.8912 H   0  0  0  0  0  0  0  0  0  0  0  0
   -1.4022    0.2231    0.9656 H   0  0  0  0  0  0  0  0  0  0  0  0
   -3.3703   -0.9224    4.1683 H   0  0  0  0  0  0  0  0  0  0  0  0
   -4.2360    0.6140    4.0461 H   0  0  0  0  0  0  0  0  0  0  0  0
   -4.9615   -0.9105    3.3985 H   0  0  0  0  0  0  0  0  0  0  0  0
   -5.8917    0.9855    2.4074 H   0  0  0  0  0  0  0  0  0  0  0  0
   -6.9035    2.2998    0.6511 H   0  0  0  0  0  0  0  0  0  0  0  0
   -6.8434    3.3550   -1.5342 H   0  0  0  0  0  0  0  0  0  0  0  0
   -5.6707    3.8983   -3.6244 H   0  0  0  0  0  0  0  0  0  0  0  0
   -3.3604    3.0750   -4.0001 H   0  0  0  0  0  0  0  0  0  0  0  0
   -2.2438    1.7207   -2.3149 H   0  0  0  0  0  0  0  0  0  0  0  0
    6.4319   -4.3717   -2.9710 H   0  0  0  0  0  0  0  0  0  0  0  0
    4.8457   -3.7505   -2.7933 H   0  0  0  0  0  0  0  0  0  0  0  0
  1  2  1  0
  2  3  1  0
  3  4  1  0
  4  5  2  0
  5  6  1  0
  6  7  2  0
  6  8  1  0
  8  9  1  0
  9 10  2  3
 10 11  1  0
 11 12  2  0
 12 13  1  0
 13 14  1  0
 12 15  1  0
 15 16  2  0
 16 17  1  0
 17 18  2  0
 18 19  1  0
 19 20  2  0
 20 21  1  0
 21 22  2  0
  5 23  1  0
 23 24  2  0
 24 25  1  0
 25 26  1  0
 26 27  2  0
 27 28  1  0
 28 29  1  0
 29 30  2  0
 30 31  1  0
 25  4  1  0
 30 26  1  0
 22 11  1  0
 22 17  1  0
  1 32  1  0
  1 33  1  0
  1 34  1  0
  2 35  1  0
  2 36  1  0
  3 37  1  0
  3 38  1  0
  8 39  1  0
 10 40  1  0
 14 41  1  0
 14 42  1  0
 14 43  1  0
 15 44  1  0
 16 45  1  0
 18 46  1  0
 19 47  1  0
 20 48  1  0
 21 49  1  0
 31 50  1  0
 31 51  1  0
M  END
$$$$
