
     RDKit          3D

 72 76  0  0  0  0  0  0  0  0999 V2000
    9.7345   -1.9419    0.2977 C   0  0  0  0  0  0  0  0  0  0  0  0
    8.8783   -0.9848    0.9088 O   0  0  0  0  0  0  0  0  0  0  0  0
    7.5502   -1.0523    0.5908 C   0  0  0  0  0  0  0  0  0  0  0  0
    6.7569   -0.0710    1.1895 C   0  0  0  0  0  0  0  0  0  0  0  0
    5.3798   -0.0233    0.9531 C   0  0  0  0  0  0  0  0  0  0  0  0
    4.7730   -0.9679    0.1169 C   0  0  0  0  0  0  0  0  0  0  0  0
    3.3262   -0.9355   -0.1323 C   0  0  0  0  0  0  0  0  0  0  0  0
    2.8804   -1.1048   -1.3834 N   0  0  0  0  0  0  0  0  0  0  0  0
    1.2321   -1.0193   -1.4022 S   0  0  0  0  0  0  0  0  0  0  0  0
    1.0374   -0.7064    0.2627 C   0  0  0  0  0  0  0  0  0  0  0  0
   -0.2718   -0.5804    0.8669 C   0  0  0  0  0  0  0  0  0  0  0  0
   -0.5871   -1.3251    1.8018 O   0  0  0  0  0  0  0  0  0  0  0  0
   -1.2124    0.3371    0.3531 N   0  0  0  0  0  0  0  0  0  0  0  0
   -0.8873    1.3990   -0.5470 C   0  0  0  0  0  0  0  0  0  0  0  0
   -1.7051    1.6821   -1.6507 C   0  0  0  0  0  0  0  0  0  0  0  0
   -1.3888    2.7303   -2.5194 C   0  0  0  0  0  0  0  0  0  0  0  0
   -0.2593    3.5018   -2.2836 C   0  0  0  0  0  0  0  0  0  0  0  0
    0.0408    4.5063   -3.1164 F   0  0  0  0  0  0  0  0  0  0  0  0
    0.5605    3.2461   -1.1935 C   0  0  0  0  0  0  0  0  0  0  0  0
    0.2454    2.1992   -0.3235 C   0  0  0  0  0  0  0  0  0  0  0  0
   -2.6132    0.2240    0.8512 C   0  0  0  0  0  0  0  0  0  0  0  0
   -3.4153   -0.7593   -0.0423 C   0  0  0  0  0  0  0  0  0  0  0  0
   -4.4607   -0.4912   -0.6289 O   0  0  0  0  0  0  0  0  0  0  0  0
   -2.8626   -2.0358   -0.0935 N   0  0  0  0  0  0  0  0  0  0  0  0
   -3.5197   -3.1241   -0.8012 C   0  0  0  0  0  0  0  0  0  0  0  0
   -2.8214   -4.4565   -0.5412 C   0  0  0  0  0  0  0  0  0  0  0  0
   -1.6127   -4.4376   -1.4709 C   0  0  0  0  0  0  0  0  0  0  0  0
   -2.0136   -3.5595   -2.6553 C   0  0  0  0  0  0  0  0  0  0  0  0
   -3.3894   -2.9860   -2.3185 C   0  0  0  0  0  0  0  0  0  0  0  0
   -3.2377    1.5647    1.2494 C   0  0  0  0  0  0  0  0  0  0  0  0
   -4.2338    2.2257    0.5189 C   0  0  0  0  0  0  0  0  0  0  0  0
   -4.7378    3.4667    0.9346 C   0  0  0  0  0  0  0  0  0  0  0  0
   -4.2518    4.0759    2.0886 C   0  0  0  0  0  0  0  0  0  0  0  0
   -4.6563    5.2782    2.5986 O   0  0  0  0  0  0  0  0  0  0  0  0
   -5.6708    5.9698    1.8813 C   0  0  0  0  0  0  0  0  0  0  0  0
   -3.2558    3.4344    2.8221 C   0  0  0  0  0  0  0  0  0  0  0  0
   -2.7527    2.1977    2.4098 C   0  0  0  0  0  0  0  0  0  0  0  0
    2.2812   -0.7598    0.8608 C   0  0  0  0  0  0  0  0  0  0  0  0
    2.4714   -0.6602    2.2064 N   0  0  0  0  0  0  0  0  0  0  0  0
    5.5743   -1.9435   -0.4916 C   0  0  0  0  0  0  0  0  0  0  0  0
    6.9541   -1.9878   -0.2547 C   0  0  0  0  0  0  0  0  0  0  0  0
    9.7248   -1.8422   -0.7928 H   0  0  0  0  0  0  0  0  0  0  0  0
   10.7546   -1.7446    0.6413 H   0  0  0  0  0  0  0  0  0  0  0  0
    9.4709   -2.9594    0.6047 H   0  0  0  0  0  0  0  0  0  0  0  0
    7.2171    0.6682    1.8414 H   0  0  0  0  0  0  0  0  0  0  0  0
    4.7928    0.7658    1.4180 H   0  0  0  0  0  0  0  0  0  0  0  0
   -2.5819    1.0816   -1.8765 H   0  0  0  0  0  0  0  0  0  0  0  0
   -2.0161    2.9452   -3.3792 H   0  0  0  0  0  0  0  0  0  0  0  0
    1.4335    3.8677   -1.0200 H   0  0  0  0  0  0  0  0  0  0  0  0
    0.8796    2.0473    0.5466 H   0  0  0  0  0  0  0  0  0  0  0  0
   -2.5904   -0.3151    1.8106 H   0  0  0  0  0  0  0  0  0  0  0  0
   -2.1938   -2.2771    0.6344 H   0  0  0  0  0  0  0  0  0  0  0  0
   -4.5686   -3.1488   -0.4874 H   0  0  0  0  0  0  0  0  0  0  0  0
   -2.5311   -4.5997    0.5045 H   0  0  0  0  0  0  0  0  0  0  0  0
   -3.4842   -5.2832   -0.8247 H   0  0  0  0  0  0  0  0  0  0  0  0
   -0.7484   -3.9984   -0.9595 H   0  0  0  0  0  0  0  0  0  0  0  0
   -1.3295   -5.4466   -1.7860 H   0  0  0  0  0  0  0  0  0  0  0  0
   -2.0471   -4.1318   -3.5882 H   0  0  0  0  0  0  0  0  0  0  0  0
   -1.2829   -2.7556   -2.7918 H   0  0  0  0  0  0  0  0  0  0  0  0
   -3.4983   -1.9606   -2.6842 H   0  0  0  0  0  0  0  0  0  0  0  0
   -4.1590   -3.5960   -2.8077 H   0  0  0  0  0  0  0  0  0  0  0  0
   -4.6404    1.8022   -0.3961 H   0  0  0  0  0  0  0  0  0  0  0  0
   -5.5093    3.9278    0.3258 H   0  0  0  0  0  0  0  0  0  0  0  0
   -5.8838    6.8999    2.4167 H   0  0  0  0  0  0  0  0  0  0  0  0
   -6.5970    5.3867    1.8451 H   0  0  0  0  0  0  0  0  0  0  0  0
   -5.3309    6.2356    0.8749 H   0  0  0  0  0  0  0  0  0  0  0  0
   -2.8649    3.9029    3.7220 H   0  0  0  0  0  0  0  0  0  0  0  0
   -1.9689    1.7306    3.0038 H   0  0  0  0  0  0  0  0  0  0  0  0
    1.6906   -0.8828    2.8264 H   0  0  0  0  0  0  0  0  0  0  0  0
    3.3473   -1.0010    2.6014 H   0  0  0  0  0  0  0  0  0  0  0  0
    5.1267   -2.6796   -1.1568 H   0  0  0  0  0  0  0  0  0  0  0  0
    7.5295   -2.7638   -0.7485 H   0  0  0  0  0  0  0  0  0  0  0  0
  1  2  1  0
  2  3  1  0
  3  4  2  0
  4  5  1  0
  5  6  2  0
  6  7  1  0
  7  8  2  0
  8  9  1  0
  9 10  1  0
 10 11  1  0
 11 12  2  0
 11 13  1  0
 13 14  1  0
 14 15  2  0
 15 16  1  0
 16 17  2  0
 17 18  1  0
 17 19  1  0
 19 20  2  0
 13 21  1  0
 21 22  1  0
 22 23  2  0
 22 24  1  0
 24 25  1  0
 25 26  1  0
 26 27  1  0
 27 28  1  0
 28 29  1  0
 21 30  1  0
 30 31  2  0
 31 32  1  0
 32 33  2  0
 33 34  1  0
 34 35  1  0
 33 36  1  0
 36 37  2  0
 10 38  2  0
 38 39  1  0
  6 40  1  0
 40 41  2  0
 41  3  1  0
 38  7  1  0
 20 14  1  0
 29 25  1  0
 37 30  1  0
  1 42  1  0
  1 43  1  0
  1 44  1  0
  4 45  1  0
  5 46  1  0
 15 47  1  0
 16 48  1  0
 19 49  1  0
 20 50  1  0
 21 51  1  0
 24 52  1  0
 25 53  1  0
 26 54  1  0
 26 55  1  0
 27 56  1  0
 27 57  1  0
 28 58  1  0
 28 59  1  0
 29 60  1  0
 29 61  1  0
 31 62  1  0
 32 63  1  0
 35 64  1  0
 35 65  1  0
 35 66  1  0
 36 67  1  0
 37 68  1  0
 39 69  1  0
 39 70  1  0
 40 71  1  0
 41 72  1  0
M  END
$$$$
