
     RDKit          3D

 52 55  0  0  0  0  0  0  0  0999 V2000
    6.8417    3.0514   -1.4098 C   0  0  0  0  0  0  0  0  0  0  0  0
    6.6115    1.7017   -0.7474 C   0  0  0  0  0  0  0  0  0  0  0  0
    5.1570    1.3051   -0.7738 C   0  0  0  0  0  0  0  0  0  0  0  0
    4.3007    1.6796    0.2685 C   0  0  0  0  0  0  0  0  0  0  0  0
    2.9494    1.3265    0.2358 C   0  0  0  0  0  0  0  0  0  0  0  0
    2.4353    0.5970   -0.8419 C   0  0  0  0  0  0  0  0  0  0  0  0
    0.9977    0.2379   -0.8449 C   0  0  0  0  0  0  0  0  0  0  0  0
    0.1648    0.6330    0.0700 N   0  0  0  0  0  0  0  0  0  0  0  0
   -1.0557    0.1009   -0.2347 N   0  0  0  0  0  0  0  0  0  0  0  0
   -2.2020    0.5119    0.4430 C   0  0  0  0  0  0  0  0  0  0  0  0
   -3.4807    0.0188    0.1317 C   0  0  0  0  0  0  0  0  0  0  0  0
   -4.6212    0.4365    0.8287 C   0  0  0  0  0  0  0  0  0  0  0  0
   -4.4949    1.3612    1.8637 C   0  0  0  0  0  0  0  0  0  0  0  0
   -5.9373    1.8838    2.7479 S   0  0  0  0  0  6  0  0  0  0  0  0
   -6.0444    0.6983    3.9408 N   0  0  0  0  0  0  0  0  0  0  0  0
   -5.6336    3.1115    3.4466 O   0  0  0  0  0  0  0  0  0  0  0  0
   -7.0830    1.7461    1.8806 O   0  0  0  0  0  0  0  0  0  0  0  0
   -3.2480    1.8848    2.1919 C   0  0  0  0  0  0  0  0  0  0  0  0
   -2.1192    1.4541    1.4866 C   0  0  0  0  0  0  0  0  0  0  0  0
   -1.0118   -0.8180   -1.3742 C   0  0  0  0  0  0  0  0  0  0  0  0
   -1.2145   -2.2748   -0.9766 C   0  0  0  0  0  0  0  0  0  0  0  0
   -1.8838   -3.1449   -1.8565 C   0  0  0  0  0  0  0  0  0  0  0  0
   -2.0633   -4.4894   -1.5253 C   0  0  0  0  0  0  0  0  0  0  0  0
   -1.5705   -4.9714   -0.3191 C   0  0  0  0  0  0  0  0  0  0  0  0
   -1.7437   -6.2617   -0.0046 F   0  0  0  0  0  0  0  0  0  0  0  0
   -0.8992   -4.1354    0.5631 C   0  0  0  0  0  0  0  0  0  0  0  0
   -0.7182   -2.7911    0.2347 C   0  0  0  0  0  0  0  0  0  0  0  0
    0.3910   -0.5932   -1.9416 C   0  0  0  0  0  0  0  0  0  0  0  0
    3.2841    0.2279   -1.8899 C   0  0  0  0  0  0  0  0  0  0  0  0
    4.6365    0.5825   -1.8549 C   0  0  0  0  0  0  0  0  0  0  0  0
    6.2807    3.8437   -0.9028 H   0  0  0  0  0  0  0  0  0  0  0  0
    7.9040    3.3131   -1.3761 H   0  0  0  0  0  0  0  0  0  0  0  0
    6.5288    3.0374   -2.4594 H   0  0  0  0  0  0  0  0  0  0  0  0
    6.9667    1.7323    0.2899 H   0  0  0  0  0  0  0  0  0  0  0  0
    7.2121    0.9343   -1.2507 H   0  0  0  0  0  0  0  0  0  0  0  0
    4.6789    2.2510    1.1136 H   0  0  0  0  0  0  0  0  0  0  0  0
    2.3021    1.6271    1.0572 H   0  0  0  0  0  0  0  0  0  0  0  0
   -3.6186   -0.7079   -0.6634 H   0  0  0  0  0  0  0  0  0  0  0  0
   -5.5956    0.0363    0.5555 H   0  0  0  0  0  0  0  0  0  0  0  0
   -5.9028    1.1380    4.8519 H   0  0  0  0  0  0  0  0  0  0  0  0
   -5.3999   -0.0774    3.7908 H   0  0  0  0  0  0  0  0  0  0  0  0
   -3.1359    2.6224    2.9829 H   0  0  0  0  0  0  0  0  0  0  0  0
   -1.1495    1.8696    1.7558 H   0  0  0  0  0  0  0  0  0  0  0  0
   -1.7560   -0.5292   -2.1273 H   0  0  0  0  0  0  0  0  0  0  0  0
   -2.2726   -2.7812   -2.8056 H   0  0  0  0  0  0  0  0  0  0  0  0
   -2.5830   -5.1635   -2.1989 H   0  0  0  0  0  0  0  0  0  0  0  0
   -0.5218   -4.5318    1.5003 H   0  0  0  0  0  0  0  0  0  0  0  0
   -0.1937   -2.1416    0.9348 H   0  0  0  0  0  0  0  0  0  0  0  0
    0.9544   -1.5128   -2.1216 H   0  0  0  0  0  0  0  0  0  0  0  0
    0.3523    0.0073   -2.8568 H   0  0  0  0  0  0  0  0  0  0  0  0
    2.9206   -0.3300   -2.7472 H   0  0  0  0  0  0  0  0  0  0  0  0
    5.2840    0.2924   -2.6801 H   0  0  0  0  0  0  0  0  0  0  0  0
  1  2  1  0
  2  3  1  0
  3  4  2  0
  4  5  1  0
  5  6  2  0
  6  7  1  0
  7  8  2  0
  8  9  1  0
  9 10  1  0
 10 11  2  0
 11 12  1  0
 12 13  2  0
 13 14  1  0
 14 15  1  0
 14 16  2  0
 14 17  2  0
 13 18  1  0
 18 19  2  0
  9 20  1  0
 20 21  1  0
 21 22  2  0
 22 23  1  0
 23 24  2  0
 24 25  1  0
 24 26  1  0
 26 27  2  0
 20 28  1  0
  6 29  1  0
 29 30  2  0
 30  3  1  0
 28  7  1  0
 19 10  1  0
 27 21  1  0
  1 31  1  0
  1 32  1  0
  1 33  1  0
  2 34  1  0
  2 35  1  0
  4 36  1  0
  5 37  1  0
 11 38  1  0
 12 39  1  0
 15 40  1  0
 15 41  1  0
 18 42  1  0
 19 43  1  0
 20 44  1  0
 22 45  1  0
 23 46  1  0
 26 47  1  0
 27 48  1  0
 28 49  1  0
 28 50  1  0
 29 51  1  0
 30 52  1  0
M  END
$$$$
