
     RDKit          3D

 47 49  0  0  0  0  0  0  0  0999 V2000
    0.7768    2.0536   -2.4432 O   0  0  0  0  0  0  0  0  0  0  0  0
    0.6856    1.4949   -1.3559 C   0  0  0  0  0  0  0  0  0  0  0  0
    1.4677    1.9597   -0.1401 C   0  0  0  0  0  0  0  0  0  0  0  0
    2.3166    3.1818   -0.4690 C   0  0  0  0  0  0  0  0  0  0  0  0
    3.2067    3.8017    1.0055 S   0  0  0  0  0  0  0  0  0  0  0  0
    4.3947    2.4940    1.2532 C   0  0  0  0  0  0  0  0  0  0  0  0
    5.3091    2.1346    0.2588 C   0  0  0  0  0  0  0  0  0  0  0  0
    6.2300    1.1088    0.4847 C   0  0  0  0  0  0  0  0  0  0  0  0
    6.2472    0.4428    1.7090 C   0  0  0  0  0  0  0  0  0  0  0  0
    5.3490    0.8063    2.7105 C   0  0  0  0  0  0  0  0  0  0  0  0
    4.4282    1.8319    2.4846 C   0  0  0  0  0  0  0  0  0  0  0  0
   -0.1142    0.4083   -1.0563 N   0  0  0  0  0  0  0  0  0  0  0  0
   -0.9393   -0.3470   -1.9269 C   0  0  0  0  0  0  0  0  0  0  0  0
   -0.9781   -0.1286   -3.3080 C   0  0  0  0  0  0  0  0  0  0  0  0
   -1.7562   -0.9405   -4.1413 C   0  0  0  0  0  0  0  0  0  0  0  0
   -2.4987   -1.9904   -3.6095 C   0  0  0  0  0  0  0  0  0  0  0  0
   -2.4868   -2.2159   -2.2355 C   0  0  0  0  0  0  0  0  0  0  0  0
   -1.7396   -1.3802   -1.3909 C   0  0  0  0  0  0  0  0  0  0  0  0
   -1.7723   -1.6144    0.0771 C   0  0  0  0  0  0  0  0  0  0  0  0
   -0.7047   -1.6128    0.6899 O   0  0  0  0  0  0  0  0  0  0  0  0
   -2.9927   -1.7662    0.7124 N   0  0  0  0  0  0  0  0  0  0  0  0
   -3.0453   -1.9818    2.1486 C   0  0  0  0  0  0  0  0  0  0  0  0
   -4.5290   -2.0945    2.4608 C   0  0  0  0  0  0  0  0  0  0  0  0
   -5.1539   -1.1581    1.4348 C   0  0  0  0  0  0  0  0  0  0  0  0
   -4.3059   -1.4005    0.1919 C   0  0  0  0  0  0  0  0  0  0  0  0
    0.7507    2.1963    0.6555 H   0  0  0  0  0  0  0  0  0  0  0  0
    2.0958    1.1243    0.1902 H   0  0  0  0  0  0  0  0  0  0  0  0
    3.0240    2.9723   -1.2782 H   0  0  0  0  0  0  0  0  0  0  0  0
    1.6736    3.9974   -0.8186 H   0  0  0  0  0  0  0  0  0  0  0  0
    5.3244    2.6549   -0.6951 H   0  0  0  0  0  0  0  0  0  0  0  0
    6.9369    0.8335   -0.2932 H   0  0  0  0  0  0  0  0  0  0  0  0
    6.9659   -0.3538    1.8846 H   0  0  0  0  0  0  0  0  0  0  0  0
    5.3656    0.2950    3.6689 H   0  0  0  0  0  0  0  0  0  0  0  0
    3.7374    2.1081    3.2770 H   0  0  0  0  0  0  0  0  0  0  0  0
   -0.0632    0.0475   -0.1014 H   0  0  0  0  0  0  0  0  0  0  0  0
   -0.3921    0.6558   -3.7775 H   0  0  0  0  0  0  0  0  0  0  0  0
   -1.7604   -0.7590   -5.2137 H   0  0  0  0  0  0  0  0  0  0  0  0
   -3.0791   -2.6340   -4.2656 H   0  0  0  0  0  0  0  0  0  0  0  0
   -3.0480   -3.0525   -1.8287 H   0  0  0  0  0  0  0  0  0  0  0  0
   -2.4791   -2.8765    2.4234 H   0  0  0  0  0  0  0  0  0  0  0  0
   -2.5992   -1.1116    2.6436 H   0  0  0  0  0  0  0  0  0  0  0  0
   -4.8752   -3.1206    2.2875 H   0  0  0  0  0  0  0  0  0  0  0  0
   -4.7658   -1.8197    3.4922 H   0  0  0  0  0  0  0  0  0  0  0  0
   -6.2161   -1.3538    1.2655 H   0  0  0  0  0  0  0  0  0  0  0  0
   -5.0435   -0.1189    1.7670 H   0  0  0  0  0  0  0  0  0  0  0  0
   -4.2507   -0.5203   -0.4545 H   0  0  0  0  0  0  0  0  0  0  0  0
   -4.6967   -2.2518   -0.3743 H   0  0  0  0  0  0  0  0  0  0  0  0
  1  2  2  0
  2  3  1  0
  3  4  1  0
  4  5  1  0
  5  6  1  0
  6  7  2  0
  7  8  1  0
  8  9  2  0
  9 10  1  0
 10 11  2  0
  2 12  1  0
 12 13  1  0
 13 14  2  0
 14 15  1  0
 15 16  2  0
 16 17  1  0
 17 18  2  0
 18 19  1  0
 19 20  2  0
 19 21  1  0
 21 22  1  0
 22 23  1  0
 23 24  1  0
 24 25  1  0
 11  6  1  0
 18 13  1  0
 25 21  1  0
  3 26  1  0
  3 27  1  0
  4 28  1  0
  4 29  1  0
  7 30  1  0
  8 31  1  0
  9 32  1  0
 10 33  1  0
 11 34  1  0
 12 35  1  0
 14 36  1  0
 15 37  1  0
 16 38  1  0
 17 39  1  0
 22 40  1  0
 22 41  1  0
 23 42  1  0
 23 43  1  0
 24 44  1  0
 24 45  1  0
 25 46  1  0
 25 47  1  0
M  END
$$$$
