
     RDKit          3D

 42 43  0  0  0  0  0  0  0  0999 V2000
   -6.6630    2.0476   -1.7029 C   0  0  0  0  0  0  0  0  0  0  0  0
   -5.3202    1.9735   -1.0389 C   0  0  0  0  0  0  0  0  0  0  0  0
   -4.9306    2.9466   -0.1120 C   0  0  0  0  0  0  0  0  0  0  0  0
   -3.6912    2.8639    0.5333 C   0  0  0  0  0  0  0  0  0  0  0  0
   -2.8316    1.7991    0.2650 C   0  0  0  0  0  0  0  0  0  0  0  0
   -1.5989    1.5986    0.8213 O   0  0  0  0  0  0  0  0  0  0  0  0
   -1.1492    2.5706    1.7605 C   0  0  0  0  0  0  0  0  0  0  0  0
    0.2397    2.2074    2.2743 C   0  0  0  0  0  0  0  0  0  0  0  0
    0.7097    2.6669    3.3156 O   0  0  0  0  0  0  0  0  0  0  0  0
    0.9501    1.3562    1.4480 N   0  0  0  0  0  0  0  0  0  0  0  0
    2.1264    0.7913    1.9709 N   0  0  0  0  0  0  0  0  0  0  0  0
    2.2816   -0.5783    1.8549 C   0  0  0  0  0  0  0  0  0  0  0  0
    1.5489   -1.2713    1.1484 O   0  0  0  0  0  0  0  0  0  0  0  0
    3.4312   -1.1470    2.6642 C   0  0  0  0  0  0  0  0  0  0  0  0
    5.0131   -0.8691    1.8220 S   0  0  0  0  0  0  0  0  0  0  0  0
    4.6759   -1.7835    0.3432 C   0  0  0  0  0  0  0  0  0  0  0  0
    4.7903   -1.1260   -0.8194 N   0  0  0  0  0  0  0  0  0  0  0  0
    4.4846   -1.8302   -1.9265 C   0  0  0  0  0  0  0  0  0  0  0  0
    4.0740   -3.1444   -1.9055 C   0  0  0  0  0  0  0  0  0  0  0  0
    3.7610   -3.8281   -3.1137 C   0  0  0  0  0  0  0  0  0  0  0  0
    3.4907   -4.3577   -4.1106 N   0  0  0  0  0  0  0  0  0  0  0  0
    3.9906   -3.7290   -0.6551 C   0  0  0  0  0  0  0  0  0  0  0  0
    3.6266   -5.0634   -0.4705 N   0  0  0  0  0  0  0  0  0  0  0  0
    4.3035   -3.0678    0.4718 N   0  0  0  0  0  0  0  0  0  0  0  0
   -3.2252    0.8187   -0.6480 C   0  0  0  0  0  0  0  0  0  0  0  0
   -4.4617    0.8999   -1.2927 C   0  0  0  0  0  0  0  0  0  0  0  0
   -6.6308    1.5962   -2.7002 H   0  0  0  0  0  0  0  0  0  0  0  0
   -7.4084    1.5205   -1.0996 H   0  0  0  0  0  0  0  0  0  0  0  0
   -6.9803    3.0882   -1.8279 H   0  0  0  0  0  0  0  0  0  0  0  0
   -5.5917    3.7805    0.1150 H   0  0  0  0  0  0  0  0  0  0  0  0
   -3.4366    3.6471    1.2394 H   0  0  0  0  0  0  0  0  0  0  0  0
   -1.0729    3.5579    1.2910 H   0  0  0  0  0  0  0  0  0  0  0  0
   -1.8202    2.5935    2.6268 H   0  0  0  0  0  0  0  0  0  0  0  0
    0.4201    0.7666    0.8004 H   0  0  0  0  0  0  0  0  0  0  0  0
    2.5595    1.3126    2.7335 H   0  0  0  0  0  0  0  0  0  0  0  0
    3.2586   -2.2135    2.8412 H   0  0  0  0  0  0  0  0  0  0  0  0
    3.4599   -0.6592    3.6441 H   0  0  0  0  0  0  0  0  0  0  0  0
    4.5839   -1.2784   -2.8585 H   0  0  0  0  0  0  0  0  0  0  0  0
    3.6002   -5.2494    0.5301 H   0  0  0  0  0  0  0  0  0  0  0  0
    2.7465   -5.3060   -0.9156 H   0  0  0  0  0  0  0  0  0  0  0  0
   -2.5666   -0.0204   -0.8593 H   0  0  0  0  0  0  0  0  0  0  0  0
   -4.7477    0.1191   -1.9938 H   0  0  0  0  0  0  0  0  0  0  0  0
  1  2  1  0
  2  3  2  0
  3  4  1  0
  4  5  2  0
  5  6  1  0
  6  7  1  0
  7  8  1  0
  8  9  2  0
  8 10  1  0
 10 11  1  0
 11 12  1  0
 12 13  2  0
 12 14  1  0
 14 15  1  0
 15 16  1  0
 16 17  2  0
 17 18  1  0
 18 19  2  0
 19 20  1  0
 20 21  3  0
 19 22  1  0
 22 23  1  0
 22 24  2  0
  5 25  1  0
 25 26  2  0
 26  2  1  0
 24 16  1  0
  1 27  1  0
  1 28  1  0
  1 29  1  0
  3 30  1  0
  4 31  1  0
  7 32  1  0
  7 33  1  0
 10 34  1  0
 11 35  1  0
 14 36  1  0
 14 37  1  0
 18 38  1  0
 23 39  1  0
 23 40  1  0
 25 41  1  0
 26 42  1  0
M  END
$$$$
