
     RDKit          3D

 33 36  0  0  0  0  0  0  0  0999 V2000
    7.0083    0.4498   -0.2522 C   0  0  0  0  0  0  0  0  0  0  0  0
    5.5141    0.3174   -0.2623 C   0  0  0  0  0  0  0  0  0  0  0  0
    4.7055    1.3730    0.1723 C   0  0  0  0  0  0  0  0  0  0  0  0
    3.3136    1.2383    0.1923 C   0  0  0  0  0  0  0  0  0  0  0  0
    2.7047    0.0424   -0.2115 C   0  0  0  0  0  0  0  0  0  0  0  0
    1.2500   -0.0903   -0.1874 C   0  0  0  0  0  0  0  0  0  0  0  0
    0.4228    0.9506    0.2311 N   0  0  0  0  0  0  0  0  0  0  0  0
   -0.7587    0.4240    0.0974 C   0  0  0  0  0  0  0  0  0  0  0  0
   -2.3678    0.9457    0.3679 S   0  0  0  0  0  0  0  0  0  0  0  0
   -2.9627   -0.6158   -0.1606 C   0  0  0  0  0  0  0  0  0  0  0  0
   -4.2265   -1.0436   -0.2817 C   0  0  0  0  0  0  0  0  0  0  0  0
   -5.4077   -0.3120    0.0232 C   0  0  0  0  0  0  0  0  0  0  0  0
   -5.6872    0.6833    0.9550 C   0  0  0  0  0  0  0  0  0  0  0  0
   -7.0527    1.0377    0.8291 C   0  0  0  0  0  0  0  0  0  0  0  0
   -7.5557    0.2350   -0.1595 C   0  0  0  0  0  0  0  0  0  0  0  0
   -6.5887   -0.5813   -0.6388 O   0  0  0  0  0  0  0  0  0  0  0  0
   -1.8519   -1.5409   -0.5556 C   0  0  0  0  0  0  0  0  0  0  0  0
   -1.9020   -2.6865   -0.9648 O   0  0  0  0  0  0  0  0  0  0  0  0
   -0.6830   -0.8377   -0.3627 N   0  0  0  0  0  0  0  0  0  0  0  0
    0.5913   -1.2116   -0.5599 N   0  0  0  0  0  0  0  0  0  0  0  0
    3.5195   -1.0176   -0.6323 C   0  0  0  0  0  0  0  0  0  0  0  0
    4.9114   -0.8833   -0.6525 C   0  0  0  0  0  0  0  0  0  0  0  0
    7.4055    0.1313    0.7164 H   0  0  0  0  0  0  0  0  0  0  0  0
    7.4600   -0.1631   -1.0393 H   0  0  0  0  0  0  0  0  0  0  0  0
    7.3097    1.4865   -0.4352 H   0  0  0  0  0  0  0  0  0  0  0  0
    5.1521    2.3100    0.4980 H   0  0  0  0  0  0  0  0  0  0  0  0
    2.7073    2.0770    0.5295 H   0  0  0  0  0  0  0  0  0  0  0  0
   -4.4042   -2.0379   -0.6914 H   0  0  0  0  0  0  0  0  0  0  0  0
   -4.9924    1.1066    1.6666 H   0  0  0  0  0  0  0  0  0  0  0  0
   -7.5997    1.7774    1.3963 H   0  0  0  0  0  0  0  0  0  0  0  0
   -8.5313    0.1217   -0.6115 H   0  0  0  0  0  0  0  0  0  0  0  0
    3.0764   -1.9610   -0.9466 H   0  0  0  0  0  0  0  0  0  0  0  0
    5.5199   -1.7248   -0.9769 H   0  0  0  0  0  0  0  0  0  0  0  0
  1  2  1  0
  2  3  2  0
  3  4  1  0
  4  5  2  0
  5  6  1  0
  6  7  1  0
  7  8  2  0
  8  9  1  0
  9 10  1  0
 10 11  2  3
 11 12  1  0
 12 13  2  0
 13 14  1  0
 14 15  2  0
 15 16  1  0
 10 17  1  0
 17 18  2  0
 17 19  1  0
 19 20  1  0
  5 21  1  0
 21 22  2  0
 22  2  1  0
 20  6  2  0
 19  8  1  0
 16 12  1  0
  1 23  1  0
  1 24  1  0
  1 25  1  0
  3 26  1  0
  4 27  1  0
 11 28  1  0
 13 29  1  0
 14 30  1  0
 15 31  1  0
 21 32  1  0
 22 33  1  0
M  END
$$$$
