
     RDKit          3D

 43 46  0  0  0  0  0  0  0  0999 V2000
    7.6288    1.4599   -0.4300 C   0  0  0  0  0  0  0  0  0  0  0  0
    6.2915    0.9139   -0.0234 C   0  0  0  0  0  0  0  0  0  0  0  0
    6.0358   -0.4604   -0.1004 C   0  0  0  0  0  0  0  0  0  0  0  0
    4.7829   -0.9671    0.2522 C   0  0  0  0  0  0  0  0  0  0  0  0
    3.7632   -0.1023    0.6657 C   0  0  0  0  0  0  0  0  0  0  0  0
    2.4399   -0.6873    1.0286 C   0  0  0  0  0  0  0  0  0  0  0  0
    2.4197   -1.8081    1.5211 O   0  0  0  0  0  0  0  0  0  0  0  0
    1.3621    0.1057    0.7268 N   0  0  0  0  0  0  0  0  0  0  0  0
    0.0316   -0.1927    0.9719 C   0  0  0  0  0  0  0  0  0  0  0  0
   -0.3413   -1.2996    1.6206 N   0  0  0  0  0  0  0  0  0  0  0  0
   -1.6648   -1.4869    1.8080 C   0  0  0  0  0  0  0  0  0  0  0  0
   -2.6183   -0.5994    1.3702 C   0  0  0  0  0  0  0  0  0  0  0  0
   -2.1486    0.5146    0.7072 C   0  0  0  0  0  0  0  0  0  0  0  0
   -0.8256    0.7399    0.5151 N   0  0  0  0  0  0  0  0  0  0  0  0
   -3.0949    1.5713    0.2060 C   0  0  0  0  0  0  0  0  0  0  0  0
   -4.4934    1.0243   -0.1005 C   0  0  0  0  0  0  0  0  0  0  0  0
   -4.5318    0.2745   -1.3967 C   0  0  0  0  0  0  0  0  0  0  0  0
   -5.0702    0.5626   -2.6339 C   0  0  0  0  0  0  0  0  0  0  0  0
   -4.7784   -0.5466   -3.4642 C   0  0  0  0  0  0  0  0  0  0  0  0
   -4.0831   -1.4382   -2.6827 C   0  0  0  0  0  0  0  0  0  0  0  0
   -3.9298   -0.9474   -1.4273 O   0  0  0  0  0  0  0  0  0  0  0  0
   -5.0361    0.1974    1.0664 C   0  0  0  0  0  0  0  0  0  0  0  0
   -4.0531   -0.8222    1.6028 C   0  0  0  0  0  0  0  0  0  0  0  0
   -4.4198   -1.7779    2.2811 O   0  0  0  0  0  0  0  0  0  0  0  0
    4.0147    1.2732    0.7473 C   0  0  0  0  0  0  0  0  0  0  0  0
    5.2705    1.7767    0.3947 C   0  0  0  0  0  0  0  0  0  0  0  0
    8.4246    0.7353   -0.2278 H   0  0  0  0  0  0  0  0  0  0  0  0
    7.6272    1.6950   -1.4988 H   0  0  0  0  0  0  0  0  0  0  0  0
    7.8671    2.3688    0.1324 H   0  0  0  0  0  0  0  0  0  0  0  0
    6.8122   -1.1482   -0.4291 H   0  0  0  0  0  0  0  0  0  0  0  0
    4.6013   -2.0392    0.2007 H   0  0  0  0  0  0  0  0  0  0  0  0
    1.4768    0.9625    0.2120 H   0  0  0  0  0  0  0  0  0  0  0  0
   -1.9312   -2.3978    2.3376 H   0  0  0  0  0  0  0  0  0  0  0  0
   -2.6689    2.0548   -0.6821 H   0  0  0  0  0  0  0  0  0  0  0  0
   -3.1709    2.3388    0.9870 H   0  0  0  0  0  0  0  0  0  0  0  0
   -5.1617    1.8879   -0.2267 H   0  0  0  0  0  0  0  0  0  0  0  0
   -5.6076    1.4608   -2.9053 H   0  0  0  0  0  0  0  0  0  0  0  0
   -5.0422   -0.6821   -4.5037 H   0  0  0  0  0  0  0  0  0  0  0  0
   -3.6513   -2.4138   -2.8599 H   0  0  0  0  0  0  0  0  0  0  0  0
   -5.9485   -0.3320    0.7665 H   0  0  0  0  0  0  0  0  0  0  0  0
   -5.2892    0.8614    1.9020 H   0  0  0  0  0  0  0  0  0  0  0  0
    3.2584    1.9641    1.1086 H   0  0  0  0  0  0  0  0  0  0  0  0
    5.4525    2.8476    0.4602 H   0  0  0  0  0  0  0  0  0  0  0  0
  1  2  1  0
  2  3  2  0
  3  4  1  0
  4  5  2  0
  5  6  1  0
  6  7  2  0
  6  8  1  0
  8  9  1  0
  9 10  2  0
 10 11  1  0
 11 12  2  0
 12 13  1  0
 13 14  2  0
 13 15  1  0
 15 16  1  0
 16 17  1  0
 17 18  2  0
 18 19  1  0
 19 20  2  0
 20 21  1  0
 16 22  1  0
 22 23  1  0
 23 24  2  0
  5 25  1  0
 25 26  2  0
 26  2  1  0
 14  9  1  0
 21 17  1  0
 23 12  1  0
  1 27  1  0
  1 28  1  0
  1 29  1  0
  3 30  1  0
  4 31  1  0
  8 32  1  0
 11 33  1  0
 15 34  1  0
 15 35  1  0
 16 36  1  0
 18 37  1  0
 19 38  1  0
 20 39  1  0
 22 40  1  0
 22 41  1  0
 25 42  1  0
 26 43  1  0
M  END
$$$$
