
     RDKit          3D

 40 42  0  0  0  0  0  0  0  0999 V2000
    4.8918   -2.9331   -1.5111 C   0  0  0  0  0  0  0  0  0  0  0  0
    3.9004   -2.3531   -0.5499 C   0  0  0  0  0  0  0  0  0  0  0  0
    3.7794   -2.7005    0.6157 O   0  0  0  0  0  0  0  0  0  0  0  0
    3.1568   -1.3938   -1.1668 O   0  0  0  0  0  0  0  0  0  0  0  0
    2.1929   -0.7611   -0.3098 C   0  0  0  0  0  0  0  0  0  0  0  0
    1.4281    0.2846   -1.1221 C   0  0  0  0  0  0  0  0  0  0  0  0
    0.4041    0.9545   -0.3131 N   0  0  0  0  0  0  0  0  0  0  0  0
    0.7296    2.0947    0.4134 C   0  0  0  0  0  0  0  0  0  0  0  0
    1.9205    2.6121    0.4273 N   0  0  0  0  0  0  0  0  0  0  0  0
    2.2142    3.7432    1.1369 C   0  0  0  0  0  0  0  0  0  0  0  0
    3.2366    4.3891    0.9321 O   0  0  0  0  0  0  0  0  0  0  0  0
    1.3440    4.1940    2.0865 N   0  0  0  0  0  0  0  0  0  0  0  0
    0.0009    4.0115    1.9718 C   0  0  0  0  0  0  0  0  0  0  0  0
   -0.8329    4.7998    2.3839 O   0  0  0  0  0  0  0  0  0  0  0  0
   -0.3582    2.7600    1.2204 C   0  0  0  0  0  0  0  0  0  0  0  0
   -1.5596    2.2760    1.2992 N   0  0  0  0  0  0  0  0  0  0  0  0
   -1.8475    1.0875    0.6027 C   0  0  0  0  0  0  0  0  0  0  0  0
   -3.1454    0.5807    0.7375 C   0  0  0  0  0  0  0  0  0  0  0  0
   -3.5420   -0.6015    0.1012 C   0  0  0  0  0  0  0  0  0  0  0  0
   -4.9485   -1.1011    0.2832 C   0  0  0  0  0  0  0  0  0  0  0  0
   -2.6073   -1.2927   -0.6853 C   0  0  0  0  0  0  0  0  0  0  0  0
   -2.9738   -2.5730   -1.3880 C   0  0  0  0  0  0  0  0  0  0  0  0
   -1.3022   -0.7791   -0.8225 C   0  0  0  0  0  0  0  0  0  0  0  0
   -0.8941    0.4108   -0.1939 C   0  0  0  0  0  0  0  0  0  0  0  0
    5.4914   -3.6915   -0.9997 H   0  0  0  0  0  0  0  0  0  0  0  0
    5.5601   -2.1478   -1.8733 H   0  0  0  0  0  0  0  0  0  0  0  0
    4.3667   -3.4067   -2.3443 H   0  0  0  0  0  0  0  0  0  0  0  0
    1.5045   -1.5188    0.0824 H   0  0  0  0  0  0  0  0  0  0  0  0
    2.7104   -0.2820    0.5300 H   0  0  0  0  0  0  0  0  0  0  0  0
    1.0125   -0.1576   -2.0353 H   0  0  0  0  0  0  0  0  0  0  0  0
    2.1457    1.0182   -1.5141 H   0  0  0  0  0  0  0  0  0  0  0  0
    1.6137    5.0834    2.4809 H   0  0  0  0  0  0  0  0  0  0  0  0
   -3.8511    1.1312    1.3575 H   0  0  0  0  0  0  0  0  0  0  0  0
   -5.5401   -0.4208    0.9051 H   0  0  0  0  0  0  0  0  0  0  0  0
   -5.4527   -1.1818   -0.6850 H   0  0  0  0  0  0  0  0  0  0  0  0
   -4.9435   -2.0786    0.7756 H   0  0  0  0  0  0  0  0  0  0  0  0
   -2.1234   -2.9893   -1.9383 H   0  0  0  0  0  0  0  0  0  0  0  0
   -3.7771   -2.3932   -2.1094 H   0  0  0  0  0  0  0  0  0  0  0  0
   -3.2951   -3.3268   -0.6622 H   0  0  0  0  0  0  0  0  0  0  0  0
   -0.6097   -1.3479   -1.4357 H   0  0  0  0  0  0  0  0  0  0  0  0
  1  2  1  0
  2  3  2  0
  2  4  1  0
  4  5  1  0
  5  6  1  0
  6  7  1  0
  7  8  1  0
  8  9  2  0
  9 10  1  0
 10 11  2  0
 10 12  1  0
 12 13  1  0
 13 14  2  0
 13 15  1  0
 15 16  2  0
 16 17  1  0
 17 18  2  0
 18 19  1  0
 19 20  1  0
 19 21  2  0
 21 22  1  0
 21 23  1  0
 23 24  2  0
 24  7  1  0
 15  8  1  0
 24 17  1  0
  1 25  1  0
  1 26  1  0
  1 27  1  0
  5 28  1  0
  5 29  1  0
  6 30  1  0
  6 31  1  0
 12 32  1  0
 18 33  1  0
 20 34  1  0
 20 35  1  0
 20 36  1  0
 22 37  1  0
 22 38  1  0
 22 39  1  0
 23 40  1  0
M  END
$$$$
