
     RDKit          3D

 33 35  0  0  0  0  0  0  0  0999 V2000
    5.7855   -0.9135   -0.0037 O   0  0  0  0  0  0  0  0  0  0  0  0
    4.4203   -1.3083    0.0893 C   0  0  0  0  0  0  0  0  0  0  0  0
    3.5010   -0.0951   -0.0508 C   0  0  0  0  0  0  0  0  0  0  0  0
    2.1164   -0.5163    0.1433 N   0  0  0  0  0  0  0  0  0  0  0  0
    1.1797    0.3276   -0.1270 C   0  0  0  0  0  0  0  0  0  0  0  0
    1.3561    1.7559   -0.6436 C   0  0  0  0  0  0  0  0  0  0  0  0
    0.1741    2.6680   -0.2670 C   0  0  0  0  0  0  0  0  0  0  0  0
   -1.1870    2.0849   -0.6864 C   0  0  0  0  0  0  0  0  0  0  0  0
   -1.2988    0.6690   -0.2345 C   0  0  0  0  0  0  0  0  0  0  0  0
   -0.1856   -0.1098    0.0124 C   0  0  0  0  0  0  0  0  0  0  0  0
   -0.6142   -1.3468    0.4076 N   0  0  0  0  0  0  0  0  0  0  0  0
   -1.9908   -1.3900    0.4175 C   0  0  0  0  0  0  0  0  0  0  0  0
   -2.8556   -2.4401    0.7484 C   0  0  0  0  0  0  0  0  0  0  0  0
   -4.2300   -2.1960    0.6655 C   0  0  0  0  0  0  0  0  0  0  0  0
   -4.7095   -0.9505    0.2670 C   0  0  0  0  0  0  0  0  0  0  0  0
   -6.4100   -0.6864    0.1764 Cl  0  0  0  0  0  0  0  0  0  0  0  0
   -3.8373    0.0919   -0.0615 C   0  0  0  0  0  0  0  0  0  0  0  0
   -2.4486   -0.1312    0.0154 C   0  0  0  0  0  0  0  0  0  0  0  0
    5.9890   -0.3973    0.7950 H   0  0  0  0  0  0  0  0  0  0  0  0
    4.2679   -1.8145    1.0487 H   0  0  0  0  0  0  0  0  0  0  0  0
    4.2197   -2.0341   -0.7055 H   0  0  0  0  0  0  0  0  0  0  0  0
    3.6573    0.3500   -1.0410 H   0  0  0  0  0  0  0  0  0  0  0  0
    3.7827    0.6541    0.6988 H   0  0  0  0  0  0  0  0  0  0  0  0
    2.2750    2.1932   -0.2425 H   0  0  0  0  0  0  0  0  0  0  0  0
    1.4562    1.7046   -1.7343 H   0  0  0  0  0  0  0  0  0  0  0  0
    0.1780    2.8151    0.8214 H   0  0  0  0  0  0  0  0  0  0  0  0
    0.3076    3.6550   -0.7240 H   0  0  0  0  0  0  0  0  0  0  0  0
   -1.2845    2.1220   -1.7779 H   0  0  0  0  0  0  0  0  0  0  0  0
   -1.9926    2.6920   -0.2591 H   0  0  0  0  0  0  0  0  0  0  0  0
    0.0056   -2.1087    0.6493 H   0  0  0  0  0  0  0  0  0  0  0  0
   -2.4795   -3.4101    1.0579 H   0  0  0  0  0  0  0  0  0  0  0  0
   -4.9261   -2.9929    0.9162 H   0  0  0  0  0  0  0  0  0  0  0  0
   -4.2220    1.0582   -0.3711 H   0  0  0  0  0  0  0  0  0  0  0  0
  1  2  1  0
  2  3  1  0
  3  4  1  0
  4  5  2  3
  5  6  1  0
  6  7  1  0
  7  8  1  0
  8  9  1  0
  9 10  2  0
 10 11  1  0
 11 12  1  0
 12 13  2  0
 13 14  1  0
 14 15  2  0
 15 16  1  0
 15 17  1  0
 17 18  2  0
 10  5  1  0
 18 12  1  0
 18  9  1  0
  1 19  1  0
  2 20  1  0
  2 21  1  0
  3 22  1  0
  3 23  1  0
  6 24  1  0
  6 25  1  0
  7 26  1  0
  7 27  1  0
  8 28  1  0
  8 29  1  0
 11 30  1  0
 13 31  1  0
 14 32  1  0
 17 33  1  0
M  END
$$$$
