
     RDKit          3D

 58 62  0  0  0  0  0  0  0  0999 V2000
    1.9984   -1.2955    4.0167 C   0  0  0  0  0  0  0  0  0  0  0  0
    2.3504   -1.2608    2.6339 O   0  0  0  0  0  0  0  0  0  0  0  0
    3.5457   -0.6675    2.3925 C   0  0  0  0  0  0  0  0  0  0  0  0
    4.3013   -0.1847    3.2204 O   0  0  0  0  0  0  0  0  0  0  0  0
    3.8299   -0.7094    0.9492 C   0  0  0  0  0  0  0  0  0  0  0  0
    4.7683   -1.5849    0.5638 C   0  0  0  0  0  0  0  0  0  0  0  0
    5.2573   -1.7196   -0.7097 O   0  0  0  0  0  0  0  0  0  0  0  0
    4.8853   -0.6877   -1.6418 C   0  0  0  0  0  0  0  0  0  0  0  0
    5.9085    0.4469   -1.5643 C   0  0  0  0  0  0  0  0  0  0  0  0
    3.4288   -0.2076   -1.4633 C   0  0  0  0  0  0  0  0  0  0  0  0
    2.4615   -1.3396   -1.8727 C   0  0  0  0  0  0  0  0  0  0  0  0
    1.0456   -1.0427   -1.6552 N   0  0  0  0  0  0  0  0  0  0  0  0
    0.4795   -0.0996   -2.6462 C   0  0  0  0  0  0  0  0  0  0  0  0
   -1.0668    0.0021   -2.5621 C   0  0  0  0  0  0  0  0  0  0  0  0
   -1.5161    0.0567   -1.1431 C   0  0  0  0  0  0  0  0  0  0  0  0
   -0.6581   -0.2720   -0.1154 C   0  0  0  0  0  0  0  0  0  0  0  0
   -1.3506   -0.1902    1.0595 N   0  0  0  0  0  0  0  0  0  0  0  0
   -2.6449    0.2173    0.8101 C   0  0  0  0  0  0  0  0  0  0  0  0
   -3.7026    0.4464    1.7008 C   0  0  0  0  0  0  0  0  0  0  0  0
   -4.9355    0.8527    1.1675 C   0  0  0  0  0  0  0  0  0  0  0  0
   -6.0486    1.1159    1.9340 O   0  0  0  0  0  0  0  0  0  0  0  0
   -5.9946    0.7713    3.3096 C   0  0  0  0  0  0  0  0  0  0  0  0
   -5.0936    1.0292   -0.2219 C   0  0  0  0  0  0  0  0  0  0  0  0
   -6.3414    1.4351   -0.6365 O   0  0  0  0  0  0  0  0  0  0  0  0
   -6.5381    1.6401   -2.0276 C   0  0  0  0  0  0  0  0  0  0  0  0
   -4.0184    0.7880   -1.0916 C   0  0  0  0  0  0  0  0  0  0  0  0
   -2.7747    0.3790   -0.5697 C   0  0  0  0  0  0  0  0  0  0  0  0
    0.7844   -0.6492   -0.2517 C   0  0  0  0  0  0  0  0  0  0  0  0
    1.6812    0.5142    0.2069 C   0  0  0  0  0  0  0  0  0  0  0  0
    3.1787    0.2501   -0.0086 C   0  0  0  0  0  0  0  0  0  0  0  0
    1.9841   -0.2848    4.4392 H   0  0  0  0  0  0  0  0  0  0  0  0
    2.6911   -1.9390    4.5687 H   0  0  0  0  0  0  0  0  0  0  0  0
    0.9908   -1.7153    4.0984 H   0  0  0  0  0  0  0  0  0  0  0  0
    5.2546   -2.2904    1.2284 H   0  0  0  0  0  0  0  0  0  0  0  0
    4.9846   -1.1339   -2.6394 H   0  0  0  0  0  0  0  0  0  0  0  0
    6.9135    0.0596   -1.7652 H   0  0  0  0  0  0  0  0  0  0  0  0
    5.9471    0.8995   -0.5685 H   0  0  0  0  0  0  0  0  0  0  0  0
    5.6866    1.2296   -2.2958 H   0  0  0  0  0  0  0  0  0  0  0  0
    3.2573    0.6450   -2.1343 H   0  0  0  0  0  0  0  0  0  0  0  0
    2.6238   -1.5982   -2.9273 H   0  0  0  0  0  0  0  0  0  0  0  0
    2.6946   -2.2599   -1.3218 H   0  0  0  0  0  0  0  0  0  0  0  0
    0.9129    0.9005   -2.5242 H   0  0  0  0  0  0  0  0  0  0  0  0
    0.7321   -0.4282   -3.6621 H   0  0  0  0  0  0  0  0  0  0  0  0
   -1.4070    0.8871   -3.1101 H   0  0  0  0  0  0  0  0  0  0  0  0
   -1.5141   -0.8792   -3.0375 H   0  0  0  0  0  0  0  0  0  0  0  0
   -0.9773   -0.3917    1.9761 H   0  0  0  0  0  0  0  0  0  0  0  0
   -3.5466    0.3115    2.7630 H   0  0  0  0  0  0  0  0  0  0  0  0
   -5.2770    1.4011    3.8433 H   0  0  0  0  0  0  0  0  0  0  0  0
   -5.7682   -0.2913    3.4447 H   0  0  0  0  0  0  0  0  0  0  0  0
   -6.9834    0.9574    3.7409 H   0  0  0  0  0  0  0  0  0  0  0  0
   -6.4031    0.7088   -2.5870 H   0  0  0  0  0  0  0  0  0  0  0  0
   -5.8824    2.4304   -2.4078 H   0  0  0  0  0  0  0  0  0  0  0  0
   -7.5717    1.9680   -2.1742 H   0  0  0  0  0  0  0  0  0  0  0  0
   -4.1075    0.9059   -2.1639 H   0  0  0  0  0  0  0  0  0  0  0  0
    0.9654   -1.5272    0.3810 H   0  0  0  0  0  0  0  0  0  0  0  0
    1.4789    0.7596    1.2572 H   0  0  0  0  0  0  0  0  0  0  0  0
    1.4145    1.4272   -0.3451 H   0  0  0  0  0  0  0  0  0  0  0  0
    3.6857    1.2140    0.1400 H   0  0  0  0  0  0  0  0  0  0  0  0
  1  2  1  0
  2  3  1  0
  3  4  2  0
  3  5  1  0
  5  6  2  0
  6  7  1  0
  7  8  1  0
  8  9  1  0
  8 10  1  0
 10 11  1  0
 11 12  1  0
 12 13  1  0
 13 14  1  0
 14 15  1  0
 15 16  2  0
 16 17  1  0
 17 18  1  0
 18 19  2  0
 19 20  1  0
 20 21  1  0
 21 22  1  0
 20 23  2  0
 23 24  1  0
 24 25  1  0
 23 26  1  0
 26 27  2  0
 16 28  1  0
 28 29  1  0
 29 30  1  0
 30  5  1  0
 30 10  1  0
 28 12  1  0
 27 15  1  0
 27 18  1  0
  1 31  1  0
  1 32  1  0
  1 33  1  0
  6 34  1  0
  8 35  1  0
  9 36  1  0
  9 37  1  0
  9 38  1  0
 10 39  1  0
 11 40  1  0
 11 41  1  0
 13 42  1  0
 13 43  1  0
 14 44  1  0
 14 45  1  0
 17 46  1  0
 19 47  1  0
 22 48  1  0
 22 49  1  0
 22 50  1  0
 25 51  1  0
 25 52  1  0
 25 53  1  0
 26 54  1  0
 28 55  1  0
 29 56  1  0
 29 57  1  0
 30 58  1  0
M  END
$$$$
