
     RDKit          3D

 48 50  0  0  0  0  0  0  0  0999 V2000
   -1.4147    1.0157   -0.3901 O   0  0  0  0  0  0  0  0  0  0  0  0
   -1.2288    0.6829   -1.5571 C   0  0  0  0  0  0  0  0  0  0  0  0
   -0.1556   -0.2851   -2.0093 C   0  0  0  0  0  0  0  0  0  0  0  0
    0.5213   -0.9753   -0.8302 C   0  0  0  0  0  0  0  0  0  0  0  0
    1.6487   -1.8991   -1.2900 C   0  0  0  0  0  0  0  0  0  0  0  0
    2.2052   -2.6683   -0.1771 N   0  0  0  0  0  0  0  0  0  0  0  0
    3.1455   -2.0588    0.6408 C   0  0  0  0  0  0  0  0  0  0  0  0
    3.5670   -0.9190    0.5045 O   0  0  0  0  0  0  0  0  0  0  0  0
    3.5485   -2.9816    1.7388 C   0  0  0  0  0  0  0  0  0  0  0  0
    4.4244   -2.7513    2.7241 C   0  0  0  0  0  0  0  0  0  0  0  0
    5.1811   -1.5075    2.9139 C   0  0  0  0  0  0  0  0  0  0  0  0
    4.6596   -0.5455    3.7932 C   0  0  0  0  0  0  0  0  0  0  0  0
    5.3423    0.6513    4.0233 C   0  0  0  0  0  0  0  0  0  0  0  0
    6.5523    0.8994    3.3777 C   0  0  0  0  0  0  0  0  0  0  0  0
    7.0825   -0.0498    2.5014 C   0  0  0  0  0  0  0  0  0  0  0  0
    6.3996   -1.2490    2.2673 C   0  0  0  0  0  0  0  0  0  0  0  0
    7.1130   -2.3919    1.1817 Cl  0  0  0  0  0  0  0  0  0  0  0  0
    2.6843   -4.4671    1.6007 S   0  0  0  0  0  0  0  0  0  0  0  0
    1.7975   -3.9344    0.1803 C   0  0  0  0  0  0  0  0  0  0  0  0
    0.6440   -4.8930   -0.5503 S   0  0  0  0  0  0  0  0  0  0  0  0
   -1.9764    1.1899   -2.6065 N   0  0  0  0  0  0  0  0  0  0  0  0
   -3.1411    1.9039   -2.2530 N   0  0  0  0  0  0  0  0  0  0  0  0
   -4.3120    1.5208   -2.8788 C   0  0  0  0  0  0  0  0  0  0  0  0
   -4.3245    0.7427   -3.8311 O   0  0  0  0  0  0  0  0  0  0  0  0
   -5.5793    2.0719   -2.3291 C   0  0  0  0  0  0  0  0  0  0  0  0
   -6.7702    1.3713   -2.5684 C   0  0  0  0  0  0  0  0  0  0  0  0
   -7.9856    1.8586   -2.0827 C   0  0  0  0  0  0  0  0  0  0  0  0
   -8.0109    3.0507   -1.3572 C   0  0  0  0  0  0  0  0  0  0  0  0
   -9.5055    3.6582   -0.7589 Cl  0  0  0  0  0  0  0  0  0  0  0  0
   -6.8323    3.7594   -1.1169 C   0  0  0  0  0  0  0  0  0  0  0  0
   -5.6157    3.2762   -1.6098 C   0  0  0  0  0  0  0  0  0  0  0  0
   -0.6123   -1.0349   -2.6640 H   0  0  0  0  0  0  0  0  0  0  0  0
    0.5821    0.2757   -2.5926 H   0  0  0  0  0  0  0  0  0  0  0  0
   -0.2242   -1.5393   -0.2605 H   0  0  0  0  0  0  0  0  0  0  0  0
    0.9239   -0.2244   -0.1432 H   0  0  0  0  0  0  0  0  0  0  0  0
    2.4509   -1.3017   -1.7362 H   0  0  0  0  0  0  0  0  0  0  0  0
    1.2906   -2.5771   -2.0679 H   0  0  0  0  0  0  0  0  0  0  0  0
    4.6268   -3.5124    3.4725 H   0  0  0  0  0  0  0  0  0  0  0  0
    3.7153   -0.7188    4.3048 H   0  0  0  0  0  0  0  0  0  0  0  0
    4.9253    1.3920    4.7036 H   0  0  0  0  0  0  0  0  0  0  0  0
    7.0827    1.8275    3.5582 H   0  0  0  0  0  0  0  0  0  0  0  0
    8.0279    0.1514    2.0044 H   0  0  0  0  0  0  0  0  0  0  0  0
   -2.0717    0.6428   -3.4623 H   0  0  0  0  0  0  0  0  0  0  0  0
   -3.1547    2.2419   -1.2908 H   0  0  0  0  0  0  0  0  0  0  0  0
   -6.7530    0.4391   -3.1314 H   0  0  0  0  0  0  0  0  0  0  0  0
   -8.9009    1.3091   -2.2732 H   0  0  0  0  0  0  0  0  0  0  0  0
   -6.8560    4.6905   -0.5562 H   0  0  0  0  0  0  0  0  0  0  0  0
   -4.7167    3.8627   -1.4400 H   0  0  0  0  0  0  0  0  0  0  0  0
  1  2  2  0
  2  3  1  0
  3  4  1  0
  4  5  1  0
  5  6  1  0
  6  7  1  0
  7  8  2  0
  7  9  1  0
  9 10  2  3
 10 11  1  0
 11 12  2  0
 12 13  1  0
 13 14  2  0
 14 15  1  0
 15 16  2  0
 16 17  1  0
  9 18  1  0
 18 19  1  0
 19 20  2  0
  2 21  1  0
 21 22  1  0
 22 23  1  0
 23 24  2  0
 23 25  1  0
 25 26  2  0
 26 27  1  0
 27 28  2  0
 28 29  1  0
 28 30  1  0
 30 31  2  0
 19  6  1  0
 31 25  1  0
 16 11  1  0
  3 32  1  0
  3 33  1  0
  4 34  1  0
  4 35  1  0
  5 36  1  0
  5 37  1  0
 10 38  1  0
 12 39  1  0
 13 40  1  0
 14 41  1  0
 15 42  1  0
 21 43  1  0
 22 44  1  0
 26 45  1  0
 27 46  1  0
 30 47  1  0
 31 48  1  0
M  END
$$$$
