
     RDKit          3D

 36 38  0  0  0  0  0  0  0  0999 V2000
    5.4044    1.5076    1.3640 C   0  0  0  0  0  0  0  0  0  0  0  0
    4.2293    0.8451    0.7051 C   0  0  0  0  0  0  0  0  0  0  0  0
    3.4876    1.5257   -0.2707 C   0  0  0  0  0  0  0  0  0  0  0  0
    2.4160    0.8992   -0.9081 C   0  0  0  0  0  0  0  0  0  0  0  0
    2.0894   -0.4164   -0.5702 C   0  0  0  0  0  0  0  0  0  0  0  0
    0.7254   -1.2016   -1.3874 S   0  0  0  0  0  6  0  0  0  0  0  0
    0.6728   -2.5894   -0.9799 O   0  0  0  0  0  0  0  0  0  0  0  0
    0.7834   -0.8352   -2.7861 O   0  0  0  0  0  0  0  0  0  0  0  0
   -0.6235   -0.4207   -0.7020 N   0  0  0  0  0  0  0  0  0  0  0  0
   -0.7569   -0.5745    0.7833 C   0  0  0  0  0  0  0  0  0  0  0  0
   -2.1281   -0.3227    1.4092 C   0  0  0  0  0  0  0  0  0  0  0  0
   -2.3046   -0.4500    2.6215 O   0  0  0  0  0  0  0  0  0  0  0  0
   -3.1557   -0.0008    0.5626 N   0  0  0  0  0  0  0  0  0  0  0  0
   -4.5458   -0.0286    0.9239 C   0  0  0  0  0  0  0  0  0  0  0  0
   -5.2306    0.3054   -0.3847 C   0  0  0  0  0  0  0  0  0  0  0  0
   -4.2934   -0.1146   -1.3999 O   0  0  0  0  0  0  0  0  0  0  0  0
   -2.9978    0.1637   -0.8546 C   0  0  0  0  0  0  0  0  0  0  0  0
   -1.9006   -0.7387   -1.4160 C   0  0  0  0  0  0  0  0  0  0  0  0
    2.8353   -1.1171    0.3797 C   0  0  0  0  0  0  0  0  0  0  0  0
    3.9049   -0.4835    1.0139 C   0  0  0  0  0  0  0  0  0  0  0  0
    6.3203    1.2826    0.8083 H   0  0  0  0  0  0  0  0  0  0  0  0
    5.5193    1.1581    2.3955 H   0  0  0  0  0  0  0  0  0  0  0  0
    5.2711    2.5938    1.4023 H   0  0  0  0  0  0  0  0  0  0  0  0
    3.7451    2.5475   -0.5424 H   0  0  0  0  0  0  0  0  0  0  0  0
    1.8473    1.4336   -1.6658 H   0  0  0  0  0  0  0  0  0  0  0  0
   -0.0661    0.1311    1.2579 H   0  0  0  0  0  0  0  0  0  0  0  0
   -0.4820   -1.5942    1.0754 H   0  0  0  0  0  0  0  0  0  0  0  0
   -4.7894   -1.0433    1.2564 H   0  0  0  0  0  0  0  0  0  0  0  0
   -4.7677    0.6752    1.7308 H   0  0  0  0  0  0  0  0  0  0  0  0
   -5.3879    1.3844   -0.4931 H   0  0  0  0  0  0  0  0  0  0  0  0
   -6.1853   -0.2112   -0.5151 H   0  0  0  0  0  0  0  0  0  0  0  0
   -2.7596    1.2189   -1.0418 H   0  0  0  0  0  0  0  0  0  0  0  0
   -2.1596   -1.7963   -1.2814 H   0  0  0  0  0  0  0  0  0  0  0  0
   -1.8045   -0.5504   -2.4906 H   0  0  0  0  0  0  0  0  0  0  0  0
    2.5981   -2.1490    0.6283 H   0  0  0  0  0  0  0  0  0  0  0  0
    4.4895   -1.0335    1.7492 H   0  0  0  0  0  0  0  0  0  0  0  0
  1  2  1  0
  2  3  2  0
  3  4  1  0
  4  5  2  0
  5  6  1  0
  6  7  2  0
  6  8  2  0
  6  9  1  0
  9 10  1  0
 10 11  1  0
 11 12  2  0
 11 13  1  0
 13 14  1  0
 14 15  1  0
 15 16  1  0
 16 17  1  0
 17 18  1  0
  5 19  1  0
 19 20  2  0
 20  2  1  0
 18  9  1  0
 17 13  1  0
  1 21  1  0
  1 22  1  0
  1 23  1  0
  3 24  1  0
  4 25  1  0
 10 26  1  0
 10 27  1  0
 14 28  1  0
 14 29  1  0
 15 30  1  0
 15 31  1  0
 17 32  1  0
 18 33  1  0
 18 34  1  0
 19 35  1  0
 20 36  1  0
M  END
$$$$
