
     RDKit          3D

 57 60  0  0  0  0  0  0  0  0999 V2000
    6.4395    2.8127   -0.2397 C   0  0  0  0  0  0  0  0  0  0  0  0
    5.1821    2.2140    0.0477 O   0  0  0  0  0  0  0  0  0  0  0  0
    5.1236    0.8441    0.0691 C   0  0  0  0  0  0  0  0  0  0  0  0
    6.2379    0.0029   -0.0165 C   0  0  0  0  0  0  0  0  0  0  0  0
    6.0787   -1.3841   -0.0058 C   0  0  0  0  0  0  0  0  0  0  0  0
    4.8035   -1.9421    0.0728 C   0  0  0  0  0  0  0  0  0  0  0  0
    3.6694   -1.1204    0.1515 C   0  0  0  0  0  0  0  0  0  0  0  0
    2.3422   -1.8039    0.2019 C   0  0  0  0  0  0  0  0  0  0  0  0
    2.2669   -2.9799    0.5446 O   0  0  0  0  0  0  0  0  0  0  0  0
    1.2437   -1.0654   -0.1682 N   0  0  0  0  0  0  0  0  0  0  0  0
   -0.1016   -1.5825   -0.0488 C   0  0  0  0  0  0  0  0  0  0  0  0
   -0.5838   -1.5202    1.4205 C   0  0  0  0  0  0  0  0  0  0  0  0
   -2.1289   -1.6299    1.5784 C   0  0  0  0  0  0  0  0  0  0  0  0
   -2.6283   -3.0028    1.0828 C   0  0  0  0  0  0  0  0  0  0  0  0
   -2.4845   -1.5071    3.0724 C   0  0  0  0  0  0  0  0  0  0  0  0
   -2.8393   -0.4775    0.7992 C   0  0  0  0  0  0  0  0  0  0  0  0
   -2.2257   -0.2683   -0.5458 C   0  0  0  0  0  0  0  0  0  0  0  0
   -0.9967   -0.7781   -0.9280 C   0  0  0  0  0  0  0  0  0  0  0  0
   -0.8817   -0.4483   -2.2821 C   0  0  0  0  0  0  0  0  0  0  0  0
   -1.9301    0.2401   -2.7258 N   0  0  0  0  0  0  0  0  0  0  0  0
   -2.7448    0.4074   -1.6433 N   0  0  0  0  0  0  0  0  0  0  0  0
   -3.9271    1.1975   -1.7916 C   0  0  0  0  0  0  0  0  0  0  0  0
   -4.6938    1.6332   -0.7017 C   0  0  0  0  0  0  0  0  0  0  0  0
   -5.8445    2.4083   -0.9039 C   0  0  0  0  0  0  0  0  0  0  0  0
   -6.2368    2.7587   -2.1923 C   0  0  0  0  0  0  0  0  0  0  0  0
   -5.4700    2.3429   -3.2719 C   0  0  0  0  0  0  0  0  0  0  0  0
   -5.8432    2.6819   -4.5126 F   0  0  0  0  0  0  0  0  0  0  0  0
   -4.3239    1.5764   -3.0863 C   0  0  0  0  0  0  0  0  0  0  0  0
    3.8392    0.2752    0.1881 C   0  0  0  0  0  0  0  0  0  0  0  0
    2.7344    1.0946    0.2870 O   0  0  0  0  0  0  0  0  0  0  0  0
    2.6175    1.6162    1.6145 C   0  0  0  0  0  0  0  0  0  0  0  0
    6.2897    3.8956   -0.2960 H   0  0  0  0  0  0  0  0  0  0  0  0
    7.1584    2.6182    0.5633 H   0  0  0  0  0  0  0  0  0  0  0  0
    6.8262    2.4800   -1.2094 H   0  0  0  0  0  0  0  0  0  0  0  0
    7.2475    0.3942   -0.0911 H   0  0  0  0  0  0  0  0  0  0  0  0
    6.9494   -2.0335   -0.0702 H   0  0  0  0  0  0  0  0  0  0  0  0
    4.6946   -3.0261    0.0630 H   0  0  0  0  0  0  0  0  0  0  0  0
    1.3707   -0.0695   -0.3259 H   0  0  0  0  0  0  0  0  0  0  0  0
   -0.1055   -2.6257   -0.3880 H   0  0  0  0  0  0  0  0  0  0  0  0
   -0.2561   -0.5687    1.8668 H   0  0  0  0  0  0  0  0  0  0  0  0
   -0.0838   -2.3080    2.0007 H   0  0  0  0  0  0  0  0  0  0  0  0
   -2.1149   -3.8176    1.6056 H   0  0  0  0  0  0  0  0  0  0  0  0
   -3.7031   -3.1181    1.2649 H   0  0  0  0  0  0  0  0  0  0  0  0
   -2.4661   -3.1435    0.0100 H   0  0  0  0  0  0  0  0  0  0  0  0
   -3.5678   -1.5664    3.2265 H   0  0  0  0  0  0  0  0  0  0  0  0
   -2.0181   -2.3080    3.6578 H   0  0  0  0  0  0  0  0  0  0  0  0
   -2.1415   -0.5514    3.4852 H   0  0  0  0  0  0  0  0  0  0  0  0
   -3.9070   -0.7094    0.7108 H   0  0  0  0  0  0  0  0  0  0  0  0
   -2.7337    0.4545    1.3688 H   0  0  0  0  0  0  0  0  0  0  0  0
   -0.0821   -0.6922   -2.9708 H   0  0  0  0  0  0  0  0  0  0  0  0
   -4.4187    1.4293    0.3240 H   0  0  0  0  0  0  0  0  0  0  0  0
   -6.4270    2.7476   -0.0501 H   0  0  0  0  0  0  0  0  0  0  0  0
   -7.1253    3.3584   -2.3625 H   0  0  0  0  0  0  0  0  0  0  0  0
   -3.7606    1.2763   -3.9672 H   0  0  0  0  0  0  0  0  0  0  0  0
    3.3403    2.4178    1.7918 H   0  0  0  0  0  0  0  0  0  0  0  0
    1.6143    2.0408    1.7141 H   0  0  0  0  0  0  0  0  0  0  0  0
    2.7264    0.8297    2.3706 H   0  0  0  0  0  0  0  0  0  0  0  0
  1  2  1  0
  2  3  1  0
  3  4  2  0
  4  5  1  0
  5  6  2  0
  6  7  1  0
  7  8  1  0
  8  9  2  0
  8 10  1  0
 10 11  1  0
 11 12  1  0
 12 13  1  0
 13 14  1  0
 13 15  1  0
 13 16  1  0
 16 17  1  0
 17 18  2  0
 18 19  1  0
 19 20  2  0
 20 21  1  0
 21 22  1  0
 22 23  2  0
 23 24  1  0
 24 25  2  0
 25 26  1  0
 26 27  1  0
 26 28  2  0
  7 29  2  0
 29 30  1  0
 30 31  1  0
 29  3  1  0
 18 11  1  0
 28 22  1  0
 21 17  1  0
  1 32  1  0
  1 33  1  0
  1 34  1  0
  4 35  1  0
  5 36  1  0
  6 37  1  0
 10 38  1  0
 11 39  1  0
 12 40  1  0
 12 41  1  0
 14 42  1  0
 14 43  1  0
 14 44  1  0
 15 45  1  0
 15 46  1  0
 15 47  1  0
 16 48  1  0
 16 49  1  0
 19 50  1  0
 23 51  1  0
 24 52  1  0
 25 53  1  0
 28 54  1  0
 31 55  1  0
 31 56  1  0
 31 57  1  0
M  END
$$$$
