
     RDKit          3D

 41 42  0  0  0  0  0  0  0  0999 V2000
   -3.5073   -2.5819    0.1442 C   0  0  0  0  0  0  0  0  0  0  0  0
   -2.7496   -1.2830    0.2601 C   0  0  0  0  0  0  0  0  0  0  0  0
   -1.9041   -0.9702    1.2658 C   0  0  0  0  0  0  0  0  0  0  0  0
   -1.6536   -1.8349    2.4757 C   0  0  0  0  0  0  0  0  0  0  0  0
   -1.1216    0.3237    1.2833 C   0  0  0  0  0  0  0  0  0  0  0  0
   -1.0959    1.1018   -0.0412 C   0  0  0  0  0  0  0  0  0  0  0  0
    0.0067    0.6127   -0.9907 C   0  0  0  0  0  0  0  0  0  0  0  0
   -0.2480    0.1584   -2.1011 O   0  0  0  0  0  0  0  0  0  0  0  0
    1.2815    0.7944   -0.4722 N   0  0  0  0  0  0  0  0  0  0  0  0
    2.5106    0.4267   -1.0611 C   0  0  0  0  0  0  0  0  0  0  0  0
    2.6243   -0.2587   -2.2741 C   0  0  0  0  0  0  0  0  0  0  0  0
    3.8797   -0.5948   -2.7952 C   0  0  0  0  0  0  0  0  0  0  0  0
    5.0412   -0.2517   -2.1079 C   0  0  0  0  0  0  0  0  0  0  0  0
    4.9338    0.4304   -0.8922 C   0  0  0  0  0  0  0  0  0  0  0  0
    6.1485    0.7969   -0.1547 N   0  0  0  0  0  4  0  0  0  0  0  0
    6.0089    1.4075    0.9151 O   0  0  0  0  0  0  0  0  0  0  0  0
    7.2408    0.4752   -0.6428 O   0  0  0  0  0  1  0  0  0  0  0  0
    3.6770    0.7694   -0.3664 C   0  0  0  0  0  0  0  0  0  0  0  0
   -2.4732    1.0889   -0.7217 C   0  0  0  0  0  0  0  0  0  0  0  0
   -3.4510    1.9718    0.0266 C   0  0  0  0  0  0  0  0  0  0  0  0
   -4.5472    1.6712    0.4659 O   0  0  0  0  0  0  0  0  0  0  0  0
   -3.0126    3.2426    0.1483 O   0  0  0  0  0  0  0  0  0  0  0  0
   -3.0258   -0.3342   -0.8895 C   0  0  0  0  0  0  0  0  0  0  0  0
   -3.4210   -2.9777   -0.8740 H   0  0  0  0  0  0  0  0  0  0  0  0
   -3.1363   -3.3653    0.8083 H   0  0  0  0  0  0  0  0  0  0  0  0
   -4.5680   -2.4191    0.3604 H   0  0  0  0  0  0  0  0  0  0  0  0
   -0.6641   -2.2983    2.4082 H   0  0  0  0  0  0  0  0  0  0  0  0
   -2.3961   -2.6240    2.6112 H   0  0  0  0  0  0  0  0  0  0  0  0
   -1.6858   -1.2252    3.3857 H   0  0  0  0  0  0  0  0  0  0  0  0
   -0.0996    0.1070    1.6154 H   0  0  0  0  0  0  0  0  0  0  0  0
   -1.5640    0.9657    2.0570 H   0  0  0  0  0  0  0  0  0  0  0  0
   -0.8173    2.1394    0.1916 H   0  0  0  0  0  0  0  0  0  0  0  0
    1.3448    1.2793    0.4145 H   0  0  0  0  0  0  0  0  0  0  0  0
    1.7495   -0.5549   -2.8463 H   0  0  0  0  0  0  0  0  0  0  0  0
    3.9426   -1.1277   -3.7420 H   0  0  0  0  0  0  0  0  0  0  0  0
    6.0081   -0.5209   -2.5277 H   0  0  0  0  0  0  0  0  0  0  0  0
    3.6097    1.2999    0.5807 H   0  0  0  0  0  0  0  0  0  0  0  0
   -2.4062    1.5319   -1.7254 H   0  0  0  0  0  0  0  0  0  0  0  0
   -3.7560    3.6998    0.5972 H   0  0  0  0  0  0  0  0  0  0  0  0
   -4.1085   -0.2917   -1.0652 H   0  0  0  0  0  0  0  0  0  0  0  0
   -2.5950   -0.7805   -1.7949 H   0  0  0  0  0  0  0  0  0  0  0  0
  1  2  1  0
  2  3  2  0
  3  4  1  0
  3  5  1  0
  5  6  1  0
  6  7  1  0
  7  8  2  0
  7  9  1  0
  9 10  1  0
 10 11  2  0
 11 12  1  0
 12 13  2  0
 13 14  1  0
 14 15  1  0
 15 16  2  0
 15 17  1  0
 14 18  2  0
  6 19  1  0
 19 20  1  0
 20 21  2  0
 20 22  1  0
 19 23  1  0
 23  2  1  0
 18 10  1  0
  1 24  1  0
  1 25  1  0
  1 26  1  0
  4 27  1  0
  4 28  1  0
  4 29  1  0
  5 30  1  0
  5 31  1  0
  6 32  1  0
  9 33  1  0
 11 34  1  0
 12 35  1  0
 13 36  1  0
 18 37  1  0
 19 38  1  0
 22 39  1  0
 23 40  1  0
 23 41  1  0
M  CHG  2  15   1  17  -1
M  END
$$$$
