
     RDKit          3D

 42 42  0  0  0  0  0  0  0  0999 V2000
   -2.2126   -3.9489    1.1579 C   0  0  0  0  0  0  0  0  0  0  0  0
   -2.9748   -2.6386    1.0347 C   0  0  0  0  0  0  0  0  0  0  0  0
   -2.0974   -1.3984    1.2304 C   0  0  0  0  0  0  0  0  0  0  0  0
   -1.0279   -1.2390    0.1382 C   0  0  0  0  0  0  0  0  0  0  0  0
   -0.2511    0.0989    0.1925 C   0  0  0  0  0  0  0  0  0  0  0  0
   -1.1437    1.3198    0.1053 C   0  0  0  0  0  0  0  0  0  0  0  0
   -1.0032    2.3463    0.7533 O   0  0  0  0  0  0  0  0  0  0  0  0
   -2.0841    1.1515   -0.8719 O   0  0  0  0  0  0  0  0  0  0  0  0
   -2.9855    2.2513   -1.0737 C   0  0  0  0  0  0  0  0  0  0  0  0
   -4.1544    2.1510   -0.1119 C   0  0  0  0  0  0  0  0  0  0  0  0
    0.7837    0.1905   -0.9322 C   0  0  0  0  0  0  0  0  0  0  0  0
    2.0166   -0.4441   -0.3245 C   0  0  0  0  0  0  0  0  0  0  0  0
    3.3679    0.0019   -0.8913 C   0  0  0  0  0  0  0  0  0  0  0  0
    3.6813    1.7965   -0.7650 S   0  0  0  0  0  0  0  0  0  0  0  0
    5.2907    1.8085   -1.3998 C   0  0  0  0  0  0  0  0  0  0  0  0
    5.4849    2.1898   -2.6078 N   0  0  0  0  0  0  0  0  0  0  0  0
    6.2861    1.4315   -0.5739 N   0  0  0  0  0  0  0  0  0  0  0  0
    1.9305   -0.1701    1.0751 O   0  0  0  0  0  0  0  0  0  0  0  0
    0.6369    0.1195    1.4130 C   0  0  0  0  0  0  0  0  0  0  0  0
    0.2800    0.2883    2.5679 O   0  0  0  0  0  0  0  0  0  0  0  0
   -2.9078   -4.7933    1.1095 H   0  0  0  0  0  0  0  0  0  0  0  0
   -1.6778   -4.0046    2.1113 H   0  0  0  0  0  0  0  0  0  0  0  0
   -1.4890   -4.0700    0.3466 H   0  0  0  0  0  0  0  0  0  0  0  0
   -3.7679   -2.6248    1.7919 H   0  0  0  0  0  0  0  0  0  0  0  0
   -3.4700   -2.5948    0.0577 H   0  0  0  0  0  0  0  0  0  0  0  0
   -1.6236   -1.4501    2.2168 H   0  0  0  0  0  0  0  0  0  0  0  0
   -2.7556   -0.5226    1.2406 H   0  0  0  0  0  0  0  0  0  0  0  0
   -1.5096   -1.3425   -0.8428 H   0  0  0  0  0  0  0  0  0  0  0  0
   -0.3198   -2.0728    0.2218 H   0  0  0  0  0  0  0  0  0  0  0  0
   -2.4684    3.2131   -0.9813 H   0  0  0  0  0  0  0  0  0  0  0  0
   -3.3496    2.1799   -2.1038 H   0  0  0  0  0  0  0  0  0  0  0  0
   -3.8161    2.2210    0.9267 H   0  0  0  0  0  0  0  0  0  0  0  0
   -4.6574    1.1841   -0.2180 H   0  0  0  0  0  0  0  0  0  0  0  0
   -4.8792    2.9486   -0.2976 H   0  0  0  0  0  0  0  0  0  0  0  0
    0.4759   -0.3224   -1.8503 H   0  0  0  0  0  0  0  0  0  0  0  0
    0.9567    1.2373   -1.2058 H   0  0  0  0  0  0  0  0  0  0  0  0
    1.9605   -1.5351   -0.4338 H   0  0  0  0  0  0  0  0  0  0  0  0
    3.4374   -0.2877   -1.9452 H   0  0  0  0  0  0  0  0  0  0  0  0
    4.1642   -0.5111   -0.3410 H   0  0  0  0  0  0  0  0  0  0  0  0
    4.5703    2.4434   -2.9973 H   0  0  0  0  0  0  0  0  0  0  0  0
    6.1146    1.6399    0.4024 H   0  0  0  0  0  0  0  0  0  0  0  0
    7.1883    1.7583   -0.9018 H   0  0  0  0  0  0  0  0  0  0  0  0
  1  2  1  0
  2  3  1  0
  3  4  1  0
  4  5  1  0
  5  6  1  0
  6  7  2  0
  6  8  1  0
  8  9  1  0
  9 10  1  0
  5 11  1  0
 11 12  1  0
 12 13  1  0
 13 14  1  0
 14 15  1  0
 15 16  2  3
 15 17  1  0
 12 18  1  0
 18 19  1  0
 19 20  2  0
 19  5  1  0
  1 21  1  0
  1 22  1  0
  1 23  1  0
  2 24  1  0
  2 25  1  0
  3 26  1  0
  3 27  1  0
  4 28  1  0
  4 29  1  0
  9 30  1  0
  9 31  1  0
 10 32  1  0
 10 33  1  0
 10 34  1  0
 11 35  1  0
 11 36  1  0
 12 37  1  0
 13 38  1  0
 13 39  1  0
 16 40  1  0
 17 41  1  0
 17 42  1  0
M  END
$$$$
