
     RDKit          3D

 48 48  0  0  0  0  0  0  0  0999 V2000
    4.9433    1.2776   -1.7228 C   0  0  0  0  0  0  0  0  0  0  0  0
    3.6027    0.7794   -1.1686 C   0  0  0  0  0  0  0  0  0  0  0  0
    2.5670    1.9155   -1.2630 C   0  0  0  0  0  0  0  0  0  0  0  0
    1.2047    1.4519   -1.0737 N   0  0  0  0  0  0  0  0  0  0  0  0
    0.5535    1.5600    0.1376 C   0  0  0  0  0  0  0  0  0  0  0  0
    1.0664    2.0437    1.1403 O   0  0  0  0  0  0  0  0  0  0  0  0
   -0.8266    1.0055    0.1970 C   0  0  0  0  0  0  0  0  0  0  0  0
   -1.2990    0.5246    1.4198 C   0  0  0  0  0  0  0  0  0  0  0  0
   -2.5895   -0.0089    1.5230 C   0  0  0  0  0  0  0  0  0  0  0  0
   -3.4456   -0.0675    0.4108 C   0  0  0  0  0  0  0  0  0  0  0  0
   -4.8708   -0.6446    0.4899 C   0  0  0  0  0  0  0  0  0  0  0  0
   -5.0097   -1.8236   -0.4976 C   0  0  0  0  0  0  0  0  0  0  0  0
   -5.2534   -1.1757    1.8900 C   0  0  0  0  0  0  0  0  0  0  0  0
   -5.8944    0.4506    0.1209 C   0  0  0  0  0  0  0  0  0  0  0  0
   -2.9555    0.4408   -0.8091 C   0  0  0  0  0  0  0  0  0  0  0  0
   -1.6657    0.9740   -0.9182 C   0  0  0  0  0  0  0  0  0  0  0  0
    3.7488    0.2782    0.2880 C   0  0  0  0  0  0  0  0  0  0  0  0
    4.7684   -0.7771    0.4674 N   0  0  0  0  0  0  0  0  0  0  0  0
    4.3554   -2.0423   -0.1429 C   0  0  0  0  0  0  0  0  0  0  0  0
    5.0213   -0.9809    1.8972 C   0  0  0  0  0  0  0  0  0  0  0  0
    4.8260    1.6505   -2.7461 H   0  0  0  0  0  0  0  0  0  0  0  0
    5.3465    2.0917   -1.1109 H   0  0  0  0  0  0  0  0  0  0  0  0
    5.6863    0.4745   -1.7547 H   0  0  0  0  0  0  0  0  0  0  0  0
    3.2569   -0.0447   -1.8048 H   0  0  0  0  0  0  0  0  0  0  0  0
    2.7933    2.7128   -0.5459 H   0  0  0  0  0  0  0  0  0  0  0  0
    2.5889    2.3582   -2.2653 H   0  0  0  0  0  0  0  0  0  0  0  0
    0.7891    0.9045   -1.8145 H   0  0  0  0  0  0  0  0  0  0  0  0
   -0.6624    0.5611    2.3021 H   0  0  0  0  0  0  0  0  0  0  0  0
   -2.9001   -0.3704    2.4998 H   0  0  0  0  0  0  0  0  0  0  0  0
   -6.0062   -2.2764   -0.4349 H   0  0  0  0  0  0  0  0  0  0  0  0
   -4.2732   -2.6069   -0.2826 H   0  0  0  0  0  0  0  0  0  0  0  0
   -4.8650   -1.5128   -1.5380 H   0  0  0  0  0  0  0  0  0  0  0  0
   -4.5844   -1.9823    2.2120 H   0  0  0  0  0  0  0  0  0  0  0  0
   -6.2724   -1.5810    1.8938 H   0  0  0  0  0  0  0  0  0  0  0  0
   -5.2207   -0.3822    2.6456 H   0  0  0  0  0  0  0  0  0  0  0  0
   -5.8024    1.3170    0.7866 H   0  0  0  0  0  0  0  0  0  0  0  0
   -6.9213    0.0752    0.2019 H   0  0  0  0  0  0  0  0  0  0  0  0
   -5.7649    0.8098   -0.9059 H   0  0  0  0  0  0  0  0  0  0  0  0
   -3.5832    0.4376   -1.6984 H   0  0  0  0  0  0  0  0  0  0  0  0
   -1.3498    1.3848   -1.8724 H   0  0  0  0  0  0  0  0  0  0  0  0
    2.7826   -0.0815    0.6623 H   0  0  0  0  0  0  0  0  0  0  0  0
    4.0241    1.1432    0.9067 H   0  0  0  0  0  0  0  0  0  0  0  0
    5.1138   -2.8154    0.0268 H   0  0  0  0  0  0  0  0  0  0  0  0
    3.4023   -2.4048    0.2589 H   0  0  0  0  0  0  0  0  0  0  0  0
    4.2612   -1.9473   -1.2289 H   0  0  0  0  0  0  0  0  0  0  0  0
    5.3889   -0.0579    2.3595 H   0  0  0  0  0  0  0  0  0  0  0  0
    4.1220   -1.3033    2.4348 H   0  0  0  0  0  0  0  0  0  0  0  0
    5.8024   -1.7348    2.0467 H   0  0  0  0  0  0  0  0  0  0  0  0
  1  2  1  0
  2  3  1  0
  3  4  1  0
  4  5  1  0
  5  6  2  0
  5  7  1  0
  7  8  2  0
  8  9  1  0
  9 10  2  0
 10 11  1  0
 11 12  1  0
 11 13  1  0
 11 14  1  0
 10 15  1  0
 15 16  2  0
  2 17  1  0
 17 18  1  0
 18 19  1  0
 18 20  1  0
 16  7  1  0
  1 21  1  0
  1 22  1  0
  1 23  1  0
  2 24  1  0
  3 25  1  0
  3 26  1  0
  4 27  1  0
  8 28  1  0
  9 29  1  0
 12 30  1  0
 12 31  1  0
 12 32  1  0
 13 33  1  0
 13 34  1  0
 13 35  1  0
 14 36  1  0
 14 37  1  0
 14 38  1  0
 15 39  1  0
 16 40  1  0
 17 41  1  0
 17 42  1  0
 19 43  1  0
 19 44  1  0
 19 45  1  0
 20 46  1  0
 20 47  1  0
 20 48  1  0
M  END
$$$$
