
     RDKit          3D

 57 60  0  0  0  0  0  0  0  0999 V2000
    7.5655   -0.8303    2.0541 C   0  0  0  0  0  0  0  0  0  0  0  0
    6.5154   -0.0787    1.4559 O   0  0  0  0  0  0  0  0  0  0  0  0
    5.6906   -0.7486    0.5937 C   0  0  0  0  0  0  0  0  0  0  0  0
    4.6769    0.0291    0.0299 C   0  0  0  0  0  0  0  0  0  0  0  0
    3.7616   -0.5289   -0.8674 C   0  0  0  0  0  0  0  0  0  0  0  0
    3.8542   -1.8811   -1.2208 C   0  0  0  0  0  0  0  0  0  0  0  0
    2.8620   -2.4935   -2.1795 C   0  0  0  0  0  0  0  0  0  0  0  0
    1.5997   -2.9994   -1.5151 C   0  0  0  0  0  0  0  0  0  0  0  0
    1.3881   -3.0868   -0.3154 O   0  0  0  0  0  0  0  0  0  0  0  0
    0.6926   -3.3582   -2.4773 O   0  0  0  0  0  0  0  0  0  0  0  0
   -0.5418   -3.8684   -1.9597 C   0  0  0  0  0  0  0  0  0  0  0  0
   -1.4635   -2.7705   -1.4291 C   0  0  0  0  0  0  0  0  0  0  0  0
   -2.3045   -2.9741   -0.5560 O   0  0  0  0  0  0  0  0  0  0  0  0
   -1.3541   -1.5842   -2.1353 N   0  0  0  0  0  0  0  0  0  0  0  0
   -1.5859   -0.3347   -1.6251 C   0  0  0  0  0  0  0  0  0  0  0  0
   -0.9396    0.6113   -2.0644 O   0  0  0  0  0  0  0  0  0  0  0  0
   -2.5240   -0.2600   -0.6416 N   0  0  0  0  0  0  0  0  0  0  0  0
   -2.8574    0.9424    0.1234 C   0  0  0  0  0  0  0  0  0  0  0  0
   -3.3919    2.0744   -0.7908 C   0  0  0  0  0  0  0  0  0  0  0  0
   -3.7805    3.3069    0.0454 C   0  0  0  0  0  0  0  0  0  0  0  0
   -2.5469    3.8040    0.8177 C   0  0  0  0  0  0  0  0  0  0  0  0
   -2.0294    2.6997    1.7564 C   0  0  0  0  0  0  0  0  0  0  0  0
   -3.1416    2.3127    2.7447 C   0  0  0  0  0  0  0  0  0  0  0  0
   -4.3737    1.8076    1.9774 C   0  0  0  0  0  0  0  0  0  0  0  0
   -4.8821    2.9170    1.0436 C   0  0  0  0  0  0  0  0  0  0  0  0
   -3.9771    0.5831    1.1363 C   0  0  0  0  0  0  0  0  0  0  0  0
   -1.6379    1.4674    0.9213 C   0  0  0  0  0  0  0  0  0  0  0  0
    4.8669   -2.6610   -0.6477 C   0  0  0  0  0  0  0  0  0  0  0  0
    5.7806   -2.0981    0.2519 C   0  0  0  0  0  0  0  0  0  0  0  0
    7.1702   -1.6447    2.6712 H   0  0  0  0  0  0  0  0  0  0  0  0
    8.1250   -0.1587    2.7126 H   0  0  0  0  0  0  0  0  0  0  0  0
    8.2595   -1.2079    1.2948 H   0  0  0  0  0  0  0  0  0  0  0  0
    4.5953    1.0806    0.2964 H   0  0  0  0  0  0  0  0  0  0  0  0
    2.9780    0.1032   -1.2809 H   0  0  0  0  0  0  0  0  0  0  0  0
    3.3299   -3.3331   -2.7092 H   0  0  0  0  0  0  0  0  0  0  0  0
    2.5856   -1.7417   -2.9299 H   0  0  0  0  0  0  0  0  0  0  0  0
   -1.0605   -4.3713   -2.7824 H   0  0  0  0  0  0  0  0  0  0  0  0
   -0.3559   -4.6124   -1.1768 H   0  0  0  0  0  0  0  0  0  0  0  0
   -0.6104   -1.5471   -2.8182 H   0  0  0  0  0  0  0  0  0  0  0  0
   -2.7961   -1.1578   -0.2434 H   0  0  0  0  0  0  0  0  0  0  0  0
   -4.2605    1.7195   -1.3617 H   0  0  0  0  0  0  0  0  0  0  0  0
   -2.6398    2.3701   -1.5315 H   0  0  0  0  0  0  0  0  0  0  0  0
   -4.1463    4.1006   -0.6160 H   0  0  0  0  0  0  0  0  0  0  0  0
   -2.8050    4.6982    1.3987 H   0  0  0  0  0  0  0  0  0  0  0  0
   -1.7581    4.0992    0.1144 H   0  0  0  0  0  0  0  0  0  0  0  0
   -1.1552    3.0634    2.3082 H   0  0  0  0  0  0  0  0  0  0  0  0
   -3.4136    3.1791    3.3605 H   0  0  0  0  0  0  0  0  0  0  0  0
   -2.7811    1.5355    3.4303 H   0  0  0  0  0  0  0  0  0  0  0  0
   -5.1619    1.5302    2.6862 H   0  0  0  0  0  0  0  0  0  0  0  0
   -5.7736    2.5745    0.5033 H   0  0  0  0  0  0  0  0  0  0  0  0
   -5.1837    3.7928    1.6316 H   0  0  0  0  0  0  0  0  0  0  0  0
   -3.6418   -0.2255    1.7995 H   0  0  0  0  0  0  0  0  0  0  0  0
   -4.8577    0.1977    0.6046 H   0  0  0  0  0  0  0  0  0  0  0  0
   -0.8165    1.7383    0.2458 H   0  0  0  0  0  0  0  0  0  0  0  0
   -1.2480    0.6785    1.5791 H   0  0  0  0  0  0  0  0  0  0  0  0
    4.9534   -3.7180   -0.8916 H   0  0  0  0  0  0  0  0  0  0  0  0
    6.5461   -2.7426    0.6697 H   0  0  0  0  0  0  0  0  0  0  0  0
  1  2  1  0
  2  3  1  0
  3  4  2  0
  4  5  1  0
  5  6  2  0
  6  7  1  0
  7  8  1  0
  8  9  2  0
  8 10  1  0
 10 11  1  0
 11 12  1  0
 12 13  2  0
 12 14  1  0
 14 15  1  0
 15 16  2  0
 15 17  1  0
 17 18  1  0
 18 19  1  0
 19 20  1  0
 20 21  1  0
 21 22  1  0
 22 23  1  0
 23 24  1  0
 24 25  1  0
 24 26  1  0
 22 27  1  0
  6 28  1  0
 28 29  2  0
 29  3  1  0
 26 18  1  0
 27 18  1  0
 25 20  1  0
  1 30  1  0
  1 31  1  0
  1 32  1  0
  4 33  1  0
  5 34  1  0
  7 35  1  0
  7 36  1  0
 11 37  1  0
 11 38  1  0
 14 39  1  0
 17 40  1  0
 19 41  1  0
 19 42  1  0
 20 43  1  0
 21 44  1  0
 21 45  1  0
 22 46  1  0
 23 47  1  0
 23 48  1  0
 24 49  1  0
 25 50  1  0
 25 51  1  0
 26 52  1  0
 26 53  1  0
 27 54  1  0
 27 55  1  0
 28 56  1  0
 29 57  1  0
M  END
$$$$
