
     RDKit          3D

 51 53  0  0  0  0  0  0  0  0999 V2000
    8.1357    1.8592    1.0803 C   0  0  0  0  0  0  0  0  0  0  0  0
    6.9515    1.1455    1.4087 O   0  0  0  0  0  0  0  0  0  0  0  0
    7.0893   -0.2733    1.2594 C   0  0  0  0  0  0  0  0  0  0  0  0
    6.8635   -0.7085   -0.1922 C   0  0  0  0  0  0  0  0  0  0  0  0
    5.5221   -0.3929   -0.6460 N   0  0  0  0  0  0  0  0  0  0  0  0
    4.4456   -1.2104   -0.3595 C   0  0  0  0  0  0  0  0  0  0  0  0
    4.6181   -2.3214    0.1395 O   0  0  0  0  0  0  0  0  0  0  0  0
    3.1235   -0.6641   -0.6765 C   0  0  0  0  0  0  0  0  0  0  0  0
    2.9754    0.8189   -1.5293 S   0  0  0  0  0  0  0  0  0  0  0  0
    1.2811    0.7372   -1.5489 C   0  0  0  0  0  0  0  0  0  0  0  0
    0.5439    1.7116   -2.1383 N   0  0  0  0  0  0  0  0  0  0  0  0
   -0.7337    1.5139   -2.0891 C   0  0  0  0  0  0  0  0  0  0  0  0
   -1.3557    0.4137   -1.5341 N   0  0  0  0  0  0  0  0  0  0  0  0
   -2.8074    0.3185   -1.5394 C   0  0  0  0  0  0  0  0  0  0  0  0
   -3.3863    0.9831   -0.2839 C   0  0  0  0  0  0  0  0  0  0  0  0
   -2.7356    1.8203    0.3458 O   0  0  0  0  0  0  0  0  0  0  0  0
   -4.6901    0.6472    0.0696 N   0  0  0  0  0  0  0  0  0  0  0  0
   -5.5391   -0.2703   -0.6926 C   0  0  0  0  0  0  0  0  0  0  0  0
   -7.0209   -0.0511   -0.4115 C   0  0  0  0  0  0  0  0  0  0  0  0
   -7.3511   -0.1864    1.0742 C   0  0  0  0  0  0  0  0  0  0  0  0
   -6.1928    0.2220    1.9847 C   0  0  0  0  0  0  0  0  0  0  0  0
   -5.2440    1.2027    1.3058 C   0  0  0  0  0  0  0  0  0  0  0  0
   -0.6332   -0.5900   -0.8928 C   0  0  0  0  0  0  0  0  0  0  0  0
   -1.1692   -1.5673   -0.3757 O   0  0  0  0  0  0  0  0  0  0  0  0
    0.8110   -0.3930   -0.9172 C   0  0  0  0  0  0  0  0  0  0  0  0
    1.8743   -1.2081   -0.3756 C   0  0  0  0  0  0  0  0  0  0  0  0
    1.6724   -2.4799    0.3920 C   0  0  0  0  0  0  0  0  0  0  0  0
    7.9486    2.9242    1.2422 H   0  0  0  0  0  0  0  0  0  0  0  0
    8.4051    1.7127    0.0311 H   0  0  0  0  0  0  0  0  0  0  0  0
    8.9614    1.5505    1.7286 H   0  0  0  0  0  0  0  0  0  0  0  0
    6.3363   -0.7343    1.9076 H   0  0  0  0  0  0  0  0  0  0  0  0
    8.0732   -0.5990    1.6158 H   0  0  0  0  0  0  0  0  0  0  0  0
    7.0311   -1.7864   -0.2867 H   0  0  0  0  0  0  0  0  0  0  0  0
    7.5481   -0.1917   -0.8704 H   0  0  0  0  0  0  0  0  0  0  0  0
    5.3141    0.5760   -0.8566 H   0  0  0  0  0  0  0  0  0  0  0  0
   -1.4208    2.2574   -2.5245 H   0  0  0  0  0  0  0  0  0  0  0  0
   -3.2052    0.8426   -2.4151 H   0  0  0  0  0  0  0  0  0  0  0  0
   -3.0987   -0.7347   -1.5826 H   0  0  0  0  0  0  0  0  0  0  0  0
   -5.2440   -1.2903   -0.4200 H   0  0  0  0  0  0  0  0  0  0  0  0
   -5.3484   -0.1413   -1.7626 H   0  0  0  0  0  0  0  0  0  0  0  0
   -7.6282   -0.7536   -0.9931 H   0  0  0  0  0  0  0  0  0  0  0  0
   -7.3004    0.9566   -0.7455 H   0  0  0  0  0  0  0  0  0  0  0  0
   -7.6312   -1.2222    1.3015 H   0  0  0  0  0  0  0  0  0  0  0  0
   -8.2342    0.4244    1.2970 H   0  0  0  0  0  0  0  0  0  0  0  0
   -6.5843    0.6501    2.9142 H   0  0  0  0  0  0  0  0  0  0  0  0
   -5.6306   -0.6781    2.2658 H   0  0  0  0  0  0  0  0  0  0  0  0
   -5.7708    2.1269    1.0401 H   0  0  0  0  0  0  0  0  0  0  0  0
   -4.4376    1.4715    1.9964 H   0  0  0  0  0  0  0  0  0  0  0  0
    2.3591   -2.5376    1.2424 H   0  0  0  0  0  0  0  0  0  0  0  0
    1.8425   -3.3435   -0.2586 H   0  0  0  0  0  0  0  0  0  0  0  0
    0.6668   -2.5572    0.8106 H   0  0  0  0  0  0  0  0  0  0  0  0
  1  2  1  0
  2  3  1  0
  3  4  1  0
  4  5  1  0
  5  6  1  0
  6  7  2  0
  6  8  1  0
  8  9  1  0
  9 10  1  0
 10 11  1  0
 11 12  2  0
 12 13  1  0
 13 14  1  0
 14 15  1  0
 15 16  2  0
 15 17  1  0
 17 18  1  0
 18 19  1  0
 19 20  1  0
 20 21  1  0
 21 22  1  0
 13 23  1  0
 23 24  2  0
 23 25  1  0
 25 26  1  0
 26 27  1  0
 26  8  2  0
 25 10  2  0
 22 17  1  0
  1 28  1  0
  1 29  1  0
  1 30  1  0
  3 31  1  0
  3 32  1  0
  4 33  1  0
  4 34  1  0
  5 35  1  0
 12 36  1  0
 14 37  1  0
 14 38  1  0
 18 39  1  0
 18 40  1  0
 19 41  1  0
 19 42  1  0
 20 43  1  0
 20 44  1  0
 21 45  1  0
 21 46  1  0
 22 47  1  0
 22 48  1  0
 27 49  1  0
 27 50  1  0
 27 51  1  0
M  END
$$$$
