
     RDKit          3D

 52 55  0  0  0  0  0  0  0  0999 V2000
   -3.6312    0.9283   -1.6984 C   0  0  0  0  0  0  0  0  0  0  0  0
   -3.3378    1.0106   -0.3059 O   0  0  0  0  0  0  0  0  0  0  0  0
   -4.3740    1.5208    0.4540 C   0  0  0  0  0  0  0  0  0  0  0  0
   -5.5404    1.8075   -0.1813 N   0  0  0  0  0  0  0  0  0  0  0  0
   -6.5535    2.2916    0.5679 C   0  0  0  0  0  0  0  0  0  0  0  0
   -6.4647    2.5036    1.9306 C   0  0  0  0  0  0  0  0  0  0  0  0
   -5.2621    2.2020    2.5636 C   0  0  0  0  0  0  0  0  0  0  0  0
   -4.1804    1.6999    1.8248 C   0  0  0  0  0  0  0  0  0  0  0  0
   -2.9208    1.3985    2.5648 C   0  0  0  0  0  0  0  0  0  0  0  0
   -2.8916    1.5010    3.7884 O   0  0  0  0  0  0  0  0  0  0  0  0
   -1.8212    1.0133    1.8376 N   0  0  0  0  0  0  0  0  0  0  0  0
   -0.5797    0.6059    2.4649 C   0  0  0  0  0  0  0  0  0  0  0  0
   -0.6626   -0.8514    2.9749 C   0  0  0  0  0  0  0  0  0  0  0  0
   -0.5915   -1.8707    1.8218 C   0  0  0  0  0  0  0  0  0  0  0  0
    0.7225   -1.7638    1.0222 C   0  0  0  0  0  0  0  0  0  0  0  0
    1.0798   -0.3372    0.7779 C   0  0  0  0  0  0  0  0  0  0  0  0
    0.4890    0.7299    1.4336 C   0  0  0  0  0  0  0  0  0  0  0  0
    1.0805    1.8657    0.8764 C   0  0  0  0  0  0  0  0  0  0  0  0
    1.9676    1.5608   -0.0667 N   0  0  0  0  0  0  0  0  0  0  0  0
    2.0169    0.1940   -0.1015 N   0  0  0  0  0  0  0  0  0  0  0  0
    2.9564   -0.4387   -0.9767 C   0  0  0  0  0  0  0  0  0  0  0  0
    3.6442    0.3547   -1.9142 C   0  0  0  0  0  0  0  0  0  0  0  0
    4.5717   -0.2067   -2.8030 C   0  0  0  0  0  0  0  0  0  0  0  0
    5.3162    0.6660   -3.7699 C   0  0  0  0  0  0  0  0  0  0  0  0
    4.8366   -1.5769   -2.7336 C   0  0  0  0  0  0  0  0  0  0  0  0
    4.1669   -2.3862   -1.8093 C   0  0  0  0  0  0  0  0  0  0  0  0
    4.4920   -3.8490   -1.7134 C   0  0  0  0  0  0  0  0  0  0  0  0
    3.2394   -1.8082   -0.9258 C   0  0  0  0  0  0  0  0  0  0  0  0
   -3.8433    1.9173   -2.1192 H   0  0  0  0  0  0  0  0  0  0  0  0
   -4.4539    0.2308   -1.8895 H   0  0  0  0  0  0  0  0  0  0  0  0
   -2.7413    0.5375   -2.2013 H   0  0  0  0  0  0  0  0  0  0  0  0
   -7.4691    2.5106    0.0253 H   0  0  0  0  0  0  0  0  0  0  0  0
   -7.3080    2.8938    2.4900 H   0  0  0  0  0  0  0  0  0  0  0  0
   -5.1686    2.3610    3.6364 H   0  0  0  0  0  0  0  0  0  0  0  0
   -1.9256    0.8586    0.8393 H   0  0  0  0  0  0  0  0  0  0  0  0
   -0.3786    1.2738    3.3107 H   0  0  0  0  0  0  0  0  0  0  0  0
    0.1756   -1.0421    3.6581 H   0  0  0  0  0  0  0  0  0  0  0  0
   -1.5838   -1.0101    3.5473 H   0  0  0  0  0  0  0  0  0  0  0  0
   -1.4428   -1.7121    1.1471 H   0  0  0  0  0  0  0  0  0  0  0  0
   -0.6907   -2.8876    2.2186 H   0  0  0  0  0  0  0  0  0  0  0  0
    0.5957   -2.3089    0.0813 H   0  0  0  0  0  0  0  0  0  0  0  0
    1.5201   -2.2399    1.6041 H   0  0  0  0  0  0  0  0  0  0  0  0
    0.8882    2.9074    1.1009 H   0  0  0  0  0  0  0  0  0  0  0  0
    3.4584    1.4274   -1.9655 H   0  0  0  0  0  0  0  0  0  0  0  0
    4.6923    1.5033   -4.0999 H   0  0  0  0  0  0  0  0  0  0  0  0
    5.6027    0.1033   -4.6645 H   0  0  0  0  0  0  0  0  0  0  0  0
    6.2202    1.0618   -3.2969 H   0  0  0  0  0  0  0  0  0  0  0  0
    5.5756   -2.0167   -3.4008 H   0  0  0  0  0  0  0  0  0  0  0  0
    5.2967   -4.0063   -0.9887 H   0  0  0  0  0  0  0  0  0  0  0  0
    4.8078   -4.2445   -2.6845 H   0  0  0  0  0  0  0  0  0  0  0  0
    3.6141   -4.4236   -1.3998 H   0  0  0  0  0  0  0  0  0  0  0  0
    2.7899   -2.4598   -0.1894 H   0  0  0  0  0  0  0  0  0  0  0  0
  1  2  1  0
  2  3  1  0
  3  4  2  0
  4  5  1  0
  5  6  2  0
  6  7  1  0
  7  8  2  0
  8  9  1  0
  9 10  2  0
  9 11  1  0
 11 12  1  0
 12 13  1  0
 13 14  1  0
 14 15  1  0
 15 16  1  0
 16 17  2  0
 17 18  1  0
 18 19  2  0
 19 20  1  0
 20 21  1  0
 21 22  2  0
 22 23  1  0
 23 24  1  0
 23 25  2  0
 25 26  1  0
 26 27  1  0
 26 28  2  0
  8  3  1  0
 17 12  1  0
 28 21  1  0
 20 16  1  0
  1 29  1  0
  1 30  1  0
  1 31  1  0
  5 32  1  0
  6 33  1  0
  7 34  1  0
 11 35  1  0
 12 36  1  0
 13 37  1  0
 13 38  1  0
 14 39  1  0
 14 40  1  0
 15 41  1  0
 15 42  1  0
 18 43  1  0
 22 44  1  0
 24 45  1  0
 24 46  1  0
 24 47  1  0
 25 48  1  0
 27 49  1  0
 27 50  1  0
 27 51  1  0
 28 52  1  0
M  END
$$$$
