
     RDKit          3D

 59 62  0  0  0  0  0  0  0  0999 V2000
   -1.8554   -2.5768   -4.0284 C   0  0  0  0  0  0  0  0  0  0  0  0
   -2.7729   -2.2989   -2.8528 C   0  0  0  0  0  0  0  0  0  0  0  0
   -2.0363   -1.6745   -1.7910 O   0  0  0  0  0  0  0  0  0  0  0  0
   -1.9392   -0.3207   -1.8426 C   0  0  0  0  0  0  0  0  0  0  0  0
   -2.4053    0.3719   -2.7417 O   0  0  0  0  0  0  0  0  0  0  0  0
   -1.1268    0.2575   -0.6766 C   0  0  0  0  0  0  0  0  0  0  0  0
   -1.9555    1.4109   -0.0394 C   0  0  0  0  0  0  0  0  0  0  0  0
   -3.2419    0.9991    0.6451 C   0  0  0  0  0  0  0  0  0  0  0  0
   -3.2732    0.7491    2.0233 C   0  0  0  0  0  0  0  0  0  0  0  0
   -4.4587    0.3553    2.6554 C   0  0  0  0  0  0  0  0  0  0  0  0
   -5.6330    0.2119    1.9182 C   0  0  0  0  0  0  0  0  0  0  0  0
   -6.8521   -0.1655    2.4090 O   0  0  0  0  0  0  0  0  0  0  0  0
   -6.9294   -0.4302    3.8038 C   0  0  0  0  0  0  0  0  0  0  0  0
   -5.6095    0.4708    0.5471 C   0  0  0  0  0  0  0  0  0  0  0  0
   -4.4279    0.8641   -0.0858 C   0  0  0  0  0  0  0  0  0  0  0  0
   -0.7566   -0.7958    0.4011 C   0  0  0  0  0  0  0  0  0  0  0  0
    0.5318   -1.5334    0.0534 C   0  0  0  0  0  0  0  0  0  0  0  0
    1.6641   -0.6130    0.0011 N   0  0  0  0  0  0  0  0  0  0  0  0
    2.9443   -1.1638    0.0958 C   0  0  0  0  0  0  0  0  0  0  0  0
    3.1095   -2.3831    0.0389 O   0  0  0  0  0  0  0  0  0  0  0  0
    4.0879   -0.2881    0.2615 C   0  0  0  0  0  0  0  0  0  0  0  0
    4.2445    0.9675    0.8251 C   0  0  0  0  0  0  0  0  0  0  0  0
    5.6143    1.3404    0.7311 C   0  0  0  0  0  0  0  0  0  0  0  0
    6.3481    2.4818    1.1067 C   0  0  0  0  0  0  0  0  0  0  0  0
    7.7268    2.5179    0.8664 C   0  0  0  0  0  0  0  0  0  0  0  0
    8.3725    1.4379    0.2677 C   0  0  0  0  0  0  0  0  0  0  0  0
    7.6646    0.2917   -0.1066 C   0  0  0  0  0  0  0  0  0  0  0  0
    6.2868    0.2754    0.1382 C   0  0  0  0  0  0  0  0  0  0  0  0
    5.3526   -0.7019   -0.1035 N   0  0  0  0  0  0  0  0  0  0  0  0
    1.3833    0.7606   -0.4135 C   0  0  0  0  0  0  0  0  0  0  0  0
    0.1624    0.8389   -1.3263 C   0  0  0  0  0  0  0  0  0  0  0  0
   -1.4497   -1.6467   -4.4388 H   0  0  0  0  0  0  0  0  0  0  0  0
   -2.3912   -3.1047   -4.8222 H   0  0  0  0  0  0  0  0  0  0  0  0
   -1.0008   -3.1847   -3.7134 H   0  0  0  0  0  0  0  0  0  0  0  0
   -3.1634   -3.2428   -2.4587 H   0  0  0  0  0  0  0  0  0  0  0  0
   -3.6362   -1.6925   -3.1501 H   0  0  0  0  0  0  0  0  0  0  0  0
   -1.3314    1.9479    0.6885 H   0  0  0  0  0  0  0  0  0  0  0  0
   -2.2067    2.1636   -0.8002 H   0  0  0  0  0  0  0  0  0  0  0  0
   -2.3728    0.8596    2.6238 H   0  0  0  0  0  0  0  0  0  0  0  0
   -4.4287    0.1708    3.7240 H   0  0  0  0  0  0  0  0  0  0  0  0
   -6.6898    0.4635    4.3895 H   0  0  0  0  0  0  0  0  0  0  0  0
   -7.9617   -0.7117    4.0340 H   0  0  0  0  0  0  0  0  0  0  0  0
   -6.2852   -1.2709    4.0822 H   0  0  0  0  0  0  0  0  0  0  0  0
   -6.5221    0.3690   -0.0354 H   0  0  0  0  0  0  0  0  0  0  0  0
   -4.4493    1.0696   -1.1547 H   0  0  0  0  0  0  0  0  0  0  0  0
   -0.5974   -0.2990    1.3674 H   0  0  0  0  0  0  0  0  0  0  0  0
   -1.5662   -1.5176    0.5585 H   0  0  0  0  0  0  0  0  0  0  0  0
    0.7325   -2.3037    0.8072 H   0  0  0  0  0  0  0  0  0  0  0  0
    0.4606   -2.0361   -0.9179 H   0  0  0  0  0  0  0  0  0  0  0  0
    3.4631    1.5646    1.2739 H   0  0  0  0  0  0  0  0  0  0  0  0
    5.8537    3.3263    1.5772 H   0  0  0  0  0  0  0  0  0  0  0  0
    8.2983    3.3974    1.1525 H   0  0  0  0  0  0  0  0  0  0  0  0
    9.4449    1.4843    0.0913 H   0  0  0  0  0  0  0  0  0  0  0  0
    8.1708   -0.5507   -0.5668 H   0  0  0  0  0  0  0  0  0  0  0  0
    5.5478   -1.6121   -0.4994 H   0  0  0  0  0  0  0  0  0  0  0  0
    1.2146    1.3517    0.4933 H   0  0  0  0  0  0  0  0  0  0  0  0
    2.2420    1.1791   -0.9463 H   0  0  0  0  0  0  0  0  0  0  0  0
    0.0047    1.8802   -1.6341 H   0  0  0  0  0  0  0  0  0  0  0  0
    0.3997    0.2888   -2.2483 H   0  0  0  0  0  0  0  0  0  0  0  0
  1  2  1  0
  2  3  1  0
  3  4  1  0
  4  5  2  0
  4  6  1  0
  6  7  1  0
  7  8  1  0
  8  9  2  0
  9 10  1  0
 10 11  2  0
 11 12  1  0
 12 13  1  0
 11 14  1  0
 14 15  2  0
  6 16  1  0
 16 17  1  0
 17 18  1  0
 18 19  1  0
 19 20  2  0
 19 21  1  0
 21 22  2  0
 22 23  1  0
 23 24  2  0
 24 25  1  0
 25 26  2  0
 26 27  1  0
 27 28  2  0
 28 29  1  0
 18 30  1  0
 30 31  1  0
 31  6  1  0
 15  8  1  0
 29 21  1  0
 28 23  1  0
  1 32  1  0
  1 33  1  0
  1 34  1  0
  2 35  1  0
  2 36  1  0
  7 37  1  0
  7 38  1  0
  9 39  1  0
 10 40  1  0
 13 41  1  0
 13 42  1  0
 13 43  1  0
 14 44  1  0
 15 45  1  0
 16 46  1  0
 16 47  1  0
 17 48  1  0
 17 49  1  0
 22 50  1  0
 24 51  1  0
 25 52  1  0
 26 53  1  0
 27 54  1  0
 29 55  1  0
 30 56  1  0
 30 57  1  0
 31 58  1  0
 31 59  1  0
M  END
$$$$
