
     RDKit          3D

 57 60  0  0  0  0  0  0  0  0999 V2000
   -1.7739   -2.0200    1.4088 O   0  0  0  0  0  0  0  0  0  0  0  0
   -1.7969   -1.0881    0.6138 C   0  0  0  0  0  0  0  0  0  0  0  0
   -0.6011   -0.2054    0.3031 C   0  0  0  0  0  0  0  0  0  0  0  0
    0.6519   -0.6241    1.0713 C   0  0  0  0  0  0  0  0  0  0  0  0
    1.8068    0.3746    0.9412 C   0  0  0  0  0  0  0  0  0  0  0  0
    2.3320    0.6004   -0.4806 C   0  0  0  0  0  0  0  0  0  0  0  0
    3.0257   -0.6114   -1.1189 C   0  0  0  0  0  0  0  0  0  0  0  0
    4.2942   -0.9474   -0.4768 N   0  0  0  0  0  0  0  0  0  0  0  0
    4.3370   -2.0456    0.3666 C   0  0  0  0  0  0  0  0  0  0  0  0
    3.3777   -2.7760    0.6065 O   0  0  0  0  0  0  0  0  0  0  0  0
    5.5354   -2.3214    0.9600 N   0  0  0  0  0  0  0  0  0  0  0  0
    6.6944   -1.5815    0.7548 C   0  0  0  0  0  0  0  0  0  0  0  0
    7.8749   -1.9363    1.4074 C   0  0  0  0  0  0  0  0  0  0  0  0
    9.0345   -1.1881    1.1914 C   0  0  0  0  0  0  0  0  0  0  0  0
    9.0128   -0.0921    0.3267 C   0  0  0  0  0  0  0  0  0  0  0  0
    7.8296    0.2590   -0.3248 C   0  0  0  0  0  0  0  0  0  0  0  0
    6.6698   -0.4914   -0.1060 C   0  0  0  0  0  0  0  0  0  0  0  0
    5.4004   -0.1504   -0.7761 C   0  0  0  0  0  0  0  0  0  0  0  0
    5.3728    0.8018   -1.5536 O   0  0  0  0  0  0  0  0  0  0  0  0
   -2.9191   -0.7295   -0.1055 N   0  0  0  0  0  0  0  0  0  0  0  0
   -4.2061   -1.3425    0.1753 C   0  0  0  0  0  0  0  0  0  0  0  0
   -5.2094   -1.1607   -0.9659 C   0  0  0  0  0  0  0  0  0  0  0  0
   -5.5422    0.2748   -1.2457 C   0  0  0  0  0  0  0  0  0  0  0  0
   -5.1193    1.0146   -2.3339 C   0  0  0  0  0  0  0  0  0  0  0  0
   -5.6388    2.2761   -2.2258 N   0  0  0  0  0  0  0  0  0  0  0  0
   -6.3931    2.3835   -1.0814 C   0  0  0  0  0  0  0  0  0  0  0  0
   -7.1013    3.4769   -0.5683 C   0  0  0  0  0  0  0  0  0  0  0  0
   -7.7965    3.2943    0.6305 C   0  0  0  0  0  0  0  0  0  0  0  0
   -7.7839    2.0660    1.2862 C   0  0  0  0  0  0  0  0  0  0  0  0
   -7.0713    0.9829    0.7586 C   0  0  0  0  0  0  0  0  0  0  0  0
   -6.3582    1.1409   -0.4479 C   0  0  0  0  0  0  0  0  0  0  0  0
   -0.8681    0.8266    0.5603 H   0  0  0  0  0  0  0  0  0  0  0  0
   -0.4184   -0.2573   -0.7760 H   0  0  0  0  0  0  0  0  0  0  0  0
    0.9656   -1.6213    0.7455 H   0  0  0  0  0  0  0  0  0  0  0  0
    0.4080   -0.7177    2.1374 H   0  0  0  0  0  0  0  0  0  0  0  0
    1.4724    1.3417    1.3381 H   0  0  0  0  0  0  0  0  0  0  0  0
    2.6294    0.0516    1.5898 H   0  0  0  0  0  0  0  0  0  0  0  0
    1.5094    0.9179   -1.1309 H   0  0  0  0  0  0  0  0  0  0  0  0
    3.0310    1.4451   -0.4500 H   0  0  0  0  0  0  0  0  0  0  0  0
    3.2359   -0.3732   -2.1691 H   0  0  0  0  0  0  0  0  0  0  0  0
    2.3550   -1.4764   -1.1278 H   0  0  0  0  0  0  0  0  0  0  0  0
    5.5359   -3.1246    1.5755 H   0  0  0  0  0  0  0  0  0  0  0  0
    7.9077   -2.7868    2.0822 H   0  0  0  0  0  0  0  0  0  0  0  0
    9.9582   -1.4598    1.6975 H   0  0  0  0  0  0  0  0  0  0  0  0
    9.9174    0.4884    0.1593 H   0  0  0  0  0  0  0  0  0  0  0  0
    7.8135    1.1130   -0.9992 H   0  0  0  0  0  0  0  0  0  0  0  0
   -2.9397    0.2042   -0.4983 H   0  0  0  0  0  0  0  0  0  0  0  0
   -4.0536   -2.4120    0.3602 H   0  0  0  0  0  0  0  0  0  0  0  0
   -4.5779   -0.8989    1.1060 H   0  0  0  0  0  0  0  0  0  0  0  0
   -6.1338   -1.6975   -0.7195 H   0  0  0  0  0  0  0  0  0  0  0  0
   -4.8105   -1.6251   -1.8768 H   0  0  0  0  0  0  0  0  0  0  0  0
   -4.4995    0.7458   -3.1794 H   0  0  0  0  0  0  0  0  0  0  0  0
   -5.4982    3.0248   -2.8899 H   0  0  0  0  0  0  0  0  0  0  0  0
   -7.1163    4.4346   -1.0781 H   0  0  0  0  0  0  0  0  0  0  0  0
   -8.3569    4.1238    1.0558 H   0  0  0  0  0  0  0  0  0  0  0  0
   -8.3329    1.9443    2.2168 H   0  0  0  0  0  0  0  0  0  0  0  0
   -7.0723    0.0303    1.2796 H   0  0  0  0  0  0  0  0  0  0  0  0
  1  2  2  0
  2  3  1  0
  3  4  1  0
  4  5  1  0
  5  6  1  0
  6  7  1  0
  7  8  1  0
  8  9  1  0
  9 10  2  0
  9 11  1  0
 11 12  1  0
 12 13  2  0
 13 14  1  0
 14 15  2  0
 15 16  1  0
 16 17  2  0
 17 18  1  0
 18 19  2  0
  2 20  1  0
 20 21  1  0
 21 22  1  0
 22 23  1  0
 23 24  2  0
 24 25  1  0
 25 26  1  0
 26 27  2  0
 27 28  1  0
 28 29  2  0
 29 30  1  0
 30 31  2  0
 18  8  1  0
 31 23  1  0
 17 12  1  0
 31 26  1  0
  3 32  1  0
  3 33  1  0
  4 34  1  0
  4 35  1  0
  5 36  1  0
  5 37  1  0
  6 38  1  0
  6 39  1  0
  7 40  1  0
  7 41  1  0
 11 42  1  0
 13 43  1  0
 14 44  1  0
 15 45  1  0
 16 46  1  0
 20 47  1  0
 21 48  1  0
 21 49  1  0
 22 50  1  0
 22 51  1  0
 24 52  1  0
 25 53  1  0
 27 54  1  0
 28 55  1  0
 29 56  1  0
 30 57  1  0
M  END
$$$$
