
     RDKit          3D

 38 39  0  0  0  0  0  0  0  0999 V2000
   -2.8901    3.6307    1.4998 C   0  0  0  0  0  0  0  0  0  0  0  0
   -3.4742    2.7270    0.5721 O   0  0  0  0  0  0  0  0  0  0  0  0
   -2.7015    1.6869    0.1171 C   0  0  0  0  0  0  0  0  0  0  0  0
   -1.3687    1.4675    0.4891 C   0  0  0  0  0  0  0  0  0  0  0  0
   -0.6527    0.3748   -0.0192 C   0  0  0  0  0  0  0  0  0  0  0  0
    0.7542    0.1282    0.3279 C   0  0  0  0  0  0  0  0  0  0  0  0
    1.2512    0.2923    1.5637 C   0  0  0  0  0  0  0  0  0  0  0  0
    2.6779    0.0839    1.9257 C   0  0  0  0  0  0  0  0  0  0  0  0
    3.1727    0.7578    2.8247 O   0  0  0  0  0  0  0  0  0  0  0  0
    3.5020   -0.9235    1.2152 C   0  0  0  0  0  0  0  0  0  0  0  0
    2.9835   -2.1689    0.8386 C   0  0  0  0  0  0  0  0  0  0  0  0
    3.8021   -3.0922    0.1854 C   0  0  0  0  0  0  0  0  0  0  0  0
    5.1322   -2.7759   -0.0724 C   0  0  0  0  0  0  0  0  0  0  0  0
    5.8913   -3.7102   -0.7113 O   0  0  0  0  0  0  0  0  0  0  0  0
    5.6662   -1.5515    0.3179 C   0  0  0  0  0  0  0  0  0  0  0  0
    4.8492   -0.6253    0.9702 C   0  0  0  0  0  0  0  0  0  0  0  0
   -1.2796   -0.4804   -0.9302 C   0  0  0  0  0  0  0  0  0  0  0  0
   -2.6093   -0.2709   -1.3092 C   0  0  0  0  0  0  0  0  0  0  0  0
   -3.3287    0.8079   -0.7882 C   0  0  0  0  0  0  0  0  0  0  0  0
   -4.6344    1.0984   -1.0954 O   0  0  0  0  0  0  0  0  0  0  0  0
   -5.3181    0.2354   -2.0018 C   0  0  0  0  0  0  0  0  0  0  0  0
   -6.7006    0.7027   -2.1987 C   0  0  0  0  0  0  0  0  0  0  0  0
   -7.7977    1.0393   -2.3801 N   0  0  0  0  0  0  0  0  0  0  0  0
   -3.6464    4.3773    1.7607 H   0  0  0  0  0  0  0  0  0  0  0  0
   -2.0414    4.1596    1.0539 H   0  0  0  0  0  0  0  0  0  0  0  0
   -2.5981    3.1173    2.4218 H   0  0  0  0  0  0  0  0  0  0  0  0
   -0.8663    2.1497    1.1671 H   0  0  0  0  0  0  0  0  0  0  0  0
    1.3837   -0.2025   -0.4948 H   0  0  0  0  0  0  0  0  0  0  0  0
    0.6456    0.6627    2.3852 H   0  0  0  0  0  0  0  0  0  0  0  0
    1.9554   -2.4407    1.0617 H   0  0  0  0  0  0  0  0  0  0  0  0
    3.4088   -4.0608   -0.1117 H   0  0  0  0  0  0  0  0  0  0  0  0
    6.7992   -3.3737   -0.7929 H   0  0  0  0  0  0  0  0  0  0  0  0
    6.7063   -1.3029    0.1309 H   0  0  0  0  0  0  0  0  0  0  0  0
    5.2627    0.3297    1.2893 H   0  0  0  0  0  0  0  0  0  0  0  0
   -0.7407   -1.3273   -1.3513 H   0  0  0  0  0  0  0  0  0  0  0  0
   -3.0443   -0.9715   -2.0137 H   0  0  0  0  0  0  0  0  0  0  0  0
   -4.8061    0.2324   -2.9713 H   0  0  0  0  0  0  0  0  0  0  0  0
   -5.3450   -0.7836   -1.5982 H   0  0  0  0  0  0  0  0  0  0  0  0
  1  2  1  0
  2  3  1  0
  3  4  2  0
  4  5  1  0
  5  6  1  0
  6  7  2  3
  7  8  1  0
  8  9  2  0
  8 10  1  0
 10 11  2  0
 11 12  1  0
 12 13  2  0
 13 14  1  0
 13 15  1  0
 15 16  2  0
  5 17  2  0
 17 18  1  0
 18 19  2  0
 19 20  1  0
 20 21  1  0
 21 22  1  0
 22 23  3  0
 19  3  1  0
 16 10  1  0
  1 24  1  0
  1 25  1  0
  1 26  1  0
  4 27  1  0
  6 28  1  0
  7 29  1  0
 11 30  1  0
 12 31  1  0
 14 32  1  0
 15 33  1  0
 16 34  1  0
 17 35  1  0
 18 36  1  0
 21 37  1  0
 21 38  1  0
M  END
$$$$
