
     RDKit          3D

 37 39  0  0  0  0  0  0  0  0999 V2000
    4.0631   -2.1761    1.6909 C   0  0  0  0  0  0  0  0  0  0  0  0
    2.9877   -1.3639    1.0332 C   0  0  0  0  0  0  0  0  0  0  0  0
    1.8605   -1.9807    0.4918 C   0  0  0  0  0  0  0  0  0  0  0  0
    0.8451   -1.2176   -0.0953 C   0  0  0  0  0  0  0  0  0  0  0  0
    0.9093    0.1814   -0.1234 C   0  0  0  0  0  0  0  0  0  0  0  0
    2.0619    0.8050    0.3966 C   0  0  0  0  0  0  0  0  0  0  0  0
    3.0807    0.0290    0.9809 C   0  0  0  0  0  0  0  0  0  0  0  0
    2.2812    2.2950    0.2979 C   0  0  0  0  0  0  0  0  0  0  0  0
    1.0207    3.0514   -0.0862 C   0  0  0  0  0  0  0  0  0  0  0  0
    0.2944    2.3046   -1.1911 C   0  0  0  0  0  0  0  0  0  0  0  0
   -0.1137    0.9803   -0.7243 N   0  0  0  0  0  0  0  0  0  0  0  0
   -1.4184    0.5827   -1.0233 C   0  0  0  0  0  0  0  0  0  0  0  0
   -2.0329    1.0625   -1.9841 O   0  0  0  0  0  0  0  0  0  0  0  0
   -2.1428   -0.3499   -0.0235 C   0  0  0  0  0  0  0  0  0  0  0  0
   -2.7446   -1.5611   -0.7214 C   0  0  0  0  0  0  0  0  0  0  0  0
   -4.1517   -1.1170   -1.0351 C   0  0  0  0  0  0  0  0  0  0  0  0
   -4.4763   -0.2216    0.1366 C   0  0  0  0  0  0  0  0  0  0  0  0
   -3.2454    0.3621    0.5775 O   0  0  0  0  0  0  0  0  0  0  0  0
    3.8530   -2.2788    2.7599 H   0  0  0  0  0  0  0  0  0  0  0  0
    4.1274   -3.1747    1.2459 H   0  0  0  0  0  0  0  0  0  0  0  0
    5.0422   -1.7020    1.5657 H   0  0  0  0  0  0  0  0  0  0  0  0
    1.7694   -3.0648    0.5046 H   0  0  0  0  0  0  0  0  0  0  0  0
    0.0330   -1.7589   -0.5665 H   0  0  0  0  0  0  0  0  0  0  0  0
    3.9617    0.5226    1.3887 H   0  0  0  0  0  0  0  0  0  0  0  0
    3.0540    2.4732   -0.4606 H   0  0  0  0  0  0  0  0  0  0  0  0
    2.6558    2.6851    1.2518 H   0  0  0  0  0  0  0  0  0  0  0  0
    1.2759    4.0671   -0.4074 H   0  0  0  0  0  0  0  0  0  0  0  0
    0.3635    3.1417    0.7884 H   0  0  0  0  0  0  0  0  0  0  0  0
    0.9260    2.1768   -2.0790 H   0  0  0  0  0  0  0  0  0  0  0  0
   -0.5809    2.8904   -1.4937 H   0  0  0  0  0  0  0  0  0  0  0  0
   -1.4888   -0.6405    0.7994 H   0  0  0  0  0  0  0  0  0  0  0  0
   -2.1947   -1.8822   -1.6109 H   0  0  0  0  0  0  0  0  0  0  0  0
   -2.7787   -2.4056   -0.0223 H   0  0  0  0  0  0  0  0  0  0  0  0
   -4.8568   -1.9453   -1.1455 H   0  0  0  0  0  0  0  0  0  0  0  0
   -4.1656   -0.5384   -1.9656 H   0  0  0  0  0  0  0  0  0  0  0  0
   -5.1876    0.5680   -0.1216 H   0  0  0  0  0  0  0  0  0  0  0  0
   -4.8878   -0.7995    0.9711 H   0  0  0  0  0  0  0  0  0  0  0  0
  1  2  1  0
  2  3  2  0
  3  4  1  0
  4  5  2  0
  5  6  1  0
  6  7  2  0
  6  8  1  0
  8  9  1  0
  9 10  1  0
 10 11  1  0
 11 12  1  0
 12 13  2  0
 12 14  1  0
 14 15  1  0
 15 16  1  0
 16 17  1  0
 17 18  1  0
  7  2  1  0
 18 14  1  0
 11  5  1  0
  1 19  1  0
  1 20  1  0
  1 21  1  0
  3 22  1  0
  4 23  1  0
  7 24  1  0
  8 25  1  0
  8 26  1  0
  9 27  1  0
  9 28  1  0
 10 29  1  0
 10 30  1  0
 14 31  1  0
 15 32  1  0
 15 33  1  0
 16 34  1  0
 16 35  1  0
 17 36  1  0
 17 37  1  0
M  END
$$$$
