
     RDKit          3D

 45 46  0  0  0  0  0  0  0  0999 V2000
    6.7085    1.2732   -2.4925 C   0  0  0  0  0  0  0  0  0  0  0  0
    5.7261    1.2279   -1.4672 O   0  0  0  0  0  0  0  0  0  0  0  0
    4.4888    0.7401   -1.8005 C   0  0  0  0  0  0  0  0  0  0  0  0
    4.0740    0.4468   -3.1012 C   0  0  0  0  0  0  0  0  0  0  0  0
    2.7968   -0.0679   -3.3341 C   0  0  0  0  0  0  0  0  0  0  0  0
    1.9202   -0.2921   -2.2707 C   0  0  0  0  0  0  0  0  0  0  0  0
    2.2980    0.0139   -0.9563 C   0  0  0  0  0  0  0  0  0  0  0  0
    1.3936   -0.2563    0.1759 C   0  0  0  0  0  0  0  0  0  0  0  0
    0.0656   -0.0636    0.1437 C   0  0  0  0  0  0  0  0  0  0  0  0
   -0.7478   -0.3196    1.3623 C   0  0  0  0  0  0  0  0  0  0  0  0
   -0.2241   -0.3355    2.4735 O   0  0  0  0  0  0  0  0  0  0  0  0
   -2.1033   -0.5131    1.1713 N   0  0  0  0  0  0  0  0  0  0  0  0
   -2.7741   -0.6972   -0.1207 C   0  0  0  0  0  0  0  0  0  0  0  0
   -4.0872   -1.4843    0.0380 C   0  0  0  0  0  0  0  0  0  0  0  0
   -4.7917   -1.6552   -1.3004 C   0  0  0  0  0  0  0  0  0  0  0  0
   -5.0106   -0.8499    0.9364 O   0  0  0  0  0  0  0  0  0  0  0  0
   -4.3911   -0.1516    2.0320 C   0  0  0  0  0  0  0  0  0  0  0  0
   -5.3044   -0.2912    3.2414 C   0  0  0  0  0  0  0  0  0  0  0  0
   -2.9674   -0.6405    2.3470 C   0  0  0  0  0  0  0  0  0  0  0  0
    3.5882    0.5368   -0.7367 C   0  0  0  0  0  0  0  0  0  0  0  0
    3.9971    0.7864    0.5564 O   0  0  0  0  0  0  0  0  0  0  0  0
    3.8257    2.1689    0.8682 C   0  0  0  0  0  0  0  0  0  0  0  0
    6.8764    0.2824   -2.9277 H   0  0  0  0  0  0  0  0  0  0  0  0
    7.6493    1.6010   -2.0398 H   0  0  0  0  0  0  0  0  0  0  0  0
    6.4384    2.0035   -3.2621 H   0  0  0  0  0  0  0  0  0  0  0  0
    4.7233    0.5996   -3.9568 H   0  0  0  0  0  0  0  0  0  0  0  0
    2.4881   -0.3084   -4.3488 H   0  0  0  0  0  0  0  0  0  0  0  0
    0.9464   -0.7259   -2.4830 H   0  0  0  0  0  0  0  0  0  0  0  0
    1.8761   -0.6026    1.0897 H   0  0  0  0  0  0  0  0  0  0  0  0
   -0.4317    0.3298   -0.7309 H   0  0  0  0  0  0  0  0  0  0  0  0
   -2.1054   -1.2161   -0.8149 H   0  0  0  0  0  0  0  0  0  0  0  0
   -2.9750    0.3076   -0.5109 H   0  0  0  0  0  0  0  0  0  0  0  0
   -3.8705   -2.4793    0.4468 H   0  0  0  0  0  0  0  0  0  0  0  0
   -4.1560   -2.1776   -2.0216 H   0  0  0  0  0  0  0  0  0  0  0  0
   -5.7189   -2.2248   -1.1750 H   0  0  0  0  0  0  0  0  0  0  0  0
   -5.0739   -0.6832   -1.7198 H   0  0  0  0  0  0  0  0  0  0  0  0
   -4.3509    0.9064    1.7439 H   0  0  0  0  0  0  0  0  0  0  0  0
   -6.3090    0.0776    3.0076 H   0  0  0  0  0  0  0  0  0  0  0  0
   -5.4140   -1.3431    3.5272 H   0  0  0  0  0  0  0  0  0  0  0  0
   -4.9185    0.2674    4.0994 H   0  0  0  0  0  0  0  0  0  0  0  0
   -2.5446   -0.0793    3.1876 H   0  0  0  0  0  0  0  0  0  0  0  0
   -2.9729   -1.7032    2.6185 H   0  0  0  0  0  0  0  0  0  0  0  0
    2.7873    2.4872    0.7228 H   0  0  0  0  0  0  0  0  0  0  0  0
    4.4999    2.7992    0.2793 H   0  0  0  0  0  0  0  0  0  0  0  0
    4.0750    2.3056    1.9248 H   0  0  0  0  0  0  0  0  0  0  0  0
  1  2  1  0
  2  3  1  0
  3  4  2  0
  4  5  1  0
  5  6  2  0
  6  7  1  0
  7  8  1  0
  8  9  2  3
  9 10  1  0
 10 11  2  0
 10 12  1  0
 12 13  1  0
 13 14  1  0
 14 15  1  0
 14 16  1  0
 16 17  1  0
 17 18  1  0
 17 19  1  0
  7 20  2  0
 20 21  1  0
 21 22  1  0
 20  3  1  0
 19 12  1  0
  1 23  1  0
  1 24  1  0
  1 25  1  0
  4 26  1  0
  5 27  1  0
  6 28  1  0
  8 29  1  0
  9 30  1  0
 13 31  1  0
 13 32  1  0
 14 33  1  0
 15 34  1  0
 15 35  1  0
 15 36  1  0
 17 37  1  0
 18 38  1  0
 18 39  1  0
 18 40  1  0
 19 41  1  0
 19 42  1  0
 22 43  1  0
 22 44  1  0
 22 45  1  0
M  END
$$$$
