
     RDKit          3D

 37 39  0  0  0  0  0  0  0  0999 V2000
   -4.4302   -2.1189   -0.1678 C   0  0  0  0  0  0  0  0  0  0  0  0
   -4.4285   -1.2971   -1.3297 O   0  0  0  0  0  0  0  0  0  0  0  0
   -3.3360   -0.4860   -1.5120 C   0  0  0  0  0  0  0  0  0  0  0  0
   -2.2420   -0.3793   -0.6544 C   0  0  0  0  0  0  0  0  0  0  0  0
   -1.1837    0.4897   -0.9639 C   0  0  0  0  0  0  0  0  0  0  0  0
   -0.0284    0.6473   -0.0655 C   0  0  0  0  0  0  0  0  0  0  0  0
    0.6140   -0.3962    0.4844 C   0  0  0  0  0  0  0  0  0  0  0  0
    1.7401   -0.3081    1.3596 C   0  0  0  0  0  0  0  0  0  0  0  0
    2.3143   -1.3665    1.8993 N   0  0  0  0  0  0  0  0  0  0  0  0
    3.3812   -1.0042    2.7028 C   0  0  0  0  0  0  0  0  0  0  0  0
    4.2100   -1.8864    3.4253 C   0  0  0  0  0  0  0  0  0  0  0  0
    5.2570   -1.3785    4.2016 C   0  0  0  0  0  0  0  0  0  0  0  0
    5.4852   -0.0076    4.2650 C   0  0  0  0  0  0  0  0  0  0  0  0
    4.6763    0.8870    3.5570 C   0  0  0  0  0  0  0  0  0  0  0  0
    3.6283    0.3641    2.7809 C   0  0  0  0  0  0  0  0  0  0  0  0
    2.4783    1.1912    1.8111 S   0  0  0  0  0  0  0  0  0  0  0  0
   -1.2418    1.2717   -2.1296 C   0  0  0  0  0  0  0  0  0  0  0  0
   -2.3303    1.1768   -3.0004 C   0  0  0  0  0  0  0  0  0  0  0  0
   -2.4766    1.8879   -4.1614 O   0  0  0  0  0  0  0  0  0  0  0  0
   -1.4222    2.7625   -4.5345 C   0  0  0  0  0  0  0  0  0  0  0  0
   -3.3667    0.2938   -2.6771 C   0  0  0  0  0  0  0  0  0  0  0  0
   -4.4506    0.1823   -3.5160 O   0  0  0  0  0  0  0  0  0  0  0  0
   -3.5881   -2.8188   -0.1778 H   0  0  0  0  0  0  0  0  0  0  0  0
   -4.4316   -1.5122    0.7437 H   0  0  0  0  0  0  0  0  0  0  0  0
   -5.3525   -2.7077   -0.1771 H   0  0  0  0  0  0  0  0  0  0  0  0
   -2.1968   -0.9529    0.2655 H   0  0  0  0  0  0  0  0  0  0  0  0
    0.2795    1.6754    0.1047 H   0  0  0  0  0  0  0  0  0  0  0  0
    0.2890   -1.4106    0.2671 H   0  0  0  0  0  0  0  0  0  0  0  0
    4.0278   -2.9551    3.3721 H   0  0  0  0  0  0  0  0  0  0  0  0
    5.8944   -2.0622    4.7574 H   0  0  0  0  0  0  0  0  0  0  0  0
    6.3029    0.3751    4.8723 H   0  0  0  0  0  0  0  0  0  0  0  0
    4.8553    1.9567    3.6069 H   0  0  0  0  0  0  0  0  0  0  0  0
   -0.4179    1.9457   -2.3422 H   0  0  0  0  0  0  0  0  0  0  0  0
   -1.2936    3.5622   -3.7977 H   0  0  0  0  0  0  0  0  0  0  0  0
   -0.4879    2.2127   -4.6892 H   0  0  0  0  0  0  0  0  0  0  0  0
   -1.6946    3.2286   -5.4863 H   0  0  0  0  0  0  0  0  0  0  0  0
   -5.0339   -0.4761   -3.0945 H   0  0  0  0  0  0  0  0  0  0  0  0
  1  2  1  0
  2  3  1  0
  3  4  2  0
  4  5  1  0
  5  6  1  0
  6  7  2  3
  7  8  1  0
  8  9  2  0
  9 10  1  0
 10 11  2  0
 11 12  1  0
 12 13  2  0
 13 14  1  0
 14 15  2  0
 15 16  1  0
  5 17  2  0
 17 18  1  0
 18 19  1  0
 19 20  1  0
 18 21  2  0
 21 22  1  0
 21  3  1  0
 16  8  1  0
 15 10  1  0
  1 23  1  0
  1 24  1  0
  1 25  1  0
  4 26  1  0
  6 27  1  0
  7 28  1  0
 11 29  1  0
 12 30  1  0
 13 31  1  0
 14 32  1  0
 17 33  1  0
 20 34  1  0
 20 35  1  0
 20 36  1  0
 22 37  1  0
M  END
$$$$
