
     RDKit          3D

 96102  0  0  0  0  0  0  0  0999 V2000
   -5.4238    2.4699   -0.3669 C   0  0  0  0  0  0  0  0  0  0  0  0
   -4.2527    2.3199   -1.3324 C   0  0  0  0  0  0  0  0  0  0  0  0
   -3.0963    1.5512   -0.7221 C   0  0  0  0  0  0  0  0  0  0  0  0
   -2.1770    2.1552    0.0724 C   0  0  0  0  0  0  0  0  0  0  0  0
   -2.2427    3.5324    0.3297 O   0  0  0  0  0  0  0  0  0  0  0  0
   -1.4821    4.2863   -0.5374 C   0  0  0  0  0  0  0  0  0  0  0  0
   -0.7728    3.8152   -1.4266 O   0  0  0  0  0  0  0  0  0  0  0  0
   -1.5981    5.6533   -0.2994 N   0  0  0  0  0  0  0  0  0  0  0  0
   -0.8585    6.5809   -1.1406 C   0  0  0  0  0  0  0  0  0  0  0  0
    0.5434    6.8288   -0.6171 C   0  0  0  0  0  0  0  0  0  0  0  0
   -2.3288    6.1931    0.8433 C   0  0  0  0  0  0  0  0  0  0  0  0
   -3.7828    6.4674    0.5004 C   0  0  0  0  0  0  0  0  0  0  0  0
   -1.1522    1.4360    0.6724 N   0  0  0  0  0  0  0  0  0  0  0  0
   -0.0188    1.9641    1.2461 C   0  0  0  0  0  0  0  0  0  0  0  0
    0.1872    3.1161    1.5966 O   0  0  0  0  0  0  0  0  0  0  0  0
    0.9206    0.9911    1.3350 O   0  0  0  0  0  0  0  0  0  0  0  0
    0.3911   -0.1765    0.8982 C   0  0  0  0  0  0  0  0  0  0  0  0
    1.0328   -1.2940    0.9046 N   0  0  0  0  0  0  0  0  0  0  0  0
    2.4489   -1.2321    1.2755 C   0  0  0  0  0  0  0  0  0  0  0  0
    3.0245   -2.6495    1.1845 C   0  0  0  0  0  0  0  0  0  0  0  0
    4.4977   -2.6967    1.4360 C   0  0  0  0  0  0  0  0  0  0  0  0
    5.1187   -2.9957    2.6314 C   0  0  0  0  0  0  0  0  0  0  0  0
    6.4743   -2.9589    2.4367 N   0  0  0  0  0  0  0  0  0  0  0  0
    6.7581   -2.6341    1.1293 C   0  0  0  0  0  0  0  0  0  0  0  0
    7.9917   -2.4820    0.4838 C   0  0  0  0  0  0  0  0  0  0  0  0
    7.9741   -2.1438   -0.8717 C   0  0  0  0  0  0  0  0  0  0  0  0
    6.7730   -1.9611   -1.5535 C   0  0  0  0  0  0  0  0  0  0  0  0
    5.5498   -2.1153   -0.8921 C   0  0  0  0  0  0  0  0  0  0  0  0
    5.5376   -2.4622    0.4766 C   0  0  0  0  0  0  0  0  0  0  0  0
   -1.0664   -0.0190    0.5340 C   0  0  0  0  0  0  0  0  0  0  0  0
   -1.9135   -0.7859    1.5988 C   0  0  0  0  0  0  0  0  0  0  0  0
   -1.6557   -0.4326    3.0513 C   0  0  0  0  0  0  0  0  0  0  0  0
   -2.2926    0.6646    3.6481 C   0  0  0  0  0  0  0  0  0  0  0  0
   -2.0422    0.9872    4.9825 C   0  0  0  0  0  0  0  0  0  0  0  0
   -1.1543    0.2186    5.7318 C   0  0  0  0  0  0  0  0  0  0  0  0
   -0.5157   -0.8732    5.1490 C   0  0  0  0  0  0  0  0  0  0  0  0
   -0.7672   -1.2004    3.8166 C   0  0  0  0  0  0  0  0  0  0  0  0
   -1.4627   -0.3656   -0.9227 C   0  0  0  0  0  0  0  0  0  0  0  0
   -2.9296    0.1267   -1.0682 C   0  0  0  0  0  0  0  0  0  0  0  0
   -3.9609   -0.6951   -1.3615 C   0  0  0  0  0  0  0  0  0  0  0  0
   -3.8519   -2.1858   -1.5823 C   0  0  0  0  0  0  0  0  0  0  0  0
   -2.4388   -2.6500   -1.6259 C   0  0  0  0  0  0  0  0  0  0  0  0
   -1.3286   -1.7981   -1.3526 C   0  0  0  0  0  0  0  0  0  0  0  0
   -0.1961   -2.4845   -1.7432 C   0  0  0  0  0  0  0  0  0  0  0  0
    1.0414   -2.0311   -1.9031 O   0  0  0  0  0  0  0  0  0  0  0  0
   -0.5633   -3.7951   -1.9625 N   0  0  0  0  0  0  0  0  0  0  0  0
    0.3346   -4.9233   -2.1198 C   0  0  0  0  0  0  0  0  0  0  0  0
    0.8227   -5.0769   -3.5323 C   0  0  0  0  0  0  0  0  0  0  0  0
    0.6008   -6.0470   -4.2471 O   0  0  0  0  0  0  0  0  0  0  0  0
    1.5958   -4.0067   -3.8949 O   0  0  0  0  0  0  0  0  0  0  0  0
    2.0847   -4.0773   -5.2360 C   0  0  0  0  0  0  0  0  0  0  0  0
   -1.9347   -3.8897   -1.9595 C   0  0  0  0  0  0  0  0  0  0  0  0
   -2.5336   -5.0346   -2.2631 O   0  0  0  0  0  0  0  0  0  0  0  0
   -6.2979    2.8742   -0.8894 H   0  0  0  0  0  0  0  0  0  0  0  0
   -5.7041    1.5150    0.0833 H   0  0  0  0  0  0  0  0  0  0  0  0
   -5.1697    3.1630    0.4422 H   0  0  0  0  0  0  0  0  0  0  0  0
   -4.5987    1.8364   -2.2562 H   0  0  0  0  0  0  0  0  0  0  0  0
   -3.9243    3.3171   -1.6525 H   0  0  0  0  0  0  0  0  0  0  0  0
   -1.4143    7.5186   -1.2052 H   0  0  0  0  0  0  0  0  0  0  0  0
   -0.8028    6.1761   -2.1578 H   0  0  0  0  0  0  0  0  0  0  0  0
    1.1083    5.8951   -0.5264 H   0  0  0  0  0  0  0  0  0  0  0  0
    0.5096    7.2930    0.3733 H   0  0  0  0  0  0  0  0  0  0  0  0
    1.0888    7.4969   -1.2883 H   0  0  0  0  0  0  0  0  0  0  0  0
   -2.2757    5.4888    1.6818 H   0  0  0  0  0  0  0  0  0  0  0  0
   -1.8375    7.1133    1.1780 H   0  0  0  0  0  0  0  0  0  0  0  0
   -4.3022    6.8827    1.3706 H   0  0  0  0  0  0  0  0  0  0  0  0
   -3.8603    7.1798   -0.3260 H   0  0  0  0  0  0  0  0  0  0  0  0
   -4.2975    5.5472    0.2010 H   0  0  0  0  0  0  0  0  0  0  0  0
    2.5685   -0.8431    2.2951 H   0  0  0  0  0  0  0  0  0  0  0  0
    2.9902   -0.5664    0.5876 H   0  0  0  0  0  0  0  0  0  0  0  0
    2.5059   -3.2993    1.9029 H   0  0  0  0  0  0  0  0  0  0  0  0
    2.8181   -3.0732    0.1927 H   0  0  0  0  0  0  0  0  0  0  0  0
    4.7139   -3.2386    3.6052 H   0  0  0  0  0  0  0  0  0  0  0  0
    7.1738   -3.1333    3.1447 H   0  0  0  0  0  0  0  0  0  0  0  0
    8.9302   -2.6160    1.0107 H   0  0  0  0  0  0  0  0  0  0  0  0
    8.9155   -2.0143   -1.4012 H   0  0  0  0  0  0  0  0  0  0  0  0
    6.7804   -1.6916   -2.6069 H   0  0  0  0  0  0  0  0  0  0  0  0
    4.6156   -1.9642   -1.4246 H   0  0  0  0  0  0  0  0  0  0  0  0
   -1.7604   -1.8682    1.4843 H   0  0  0  0  0  0  0  0  0  0  0  0
   -2.9865   -0.6349    1.4373 H   0  0  0  0  0  0  0  0  0  0  0  0
   -2.9870    1.2782    3.0795 H   0  0  0  0  0  0  0  0  0  0  0  0
   -2.5359    1.8445    5.4314 H   0  0  0  0  0  0  0  0  0  0  0  0
   -0.9542    0.4697    6.7688 H   0  0  0  0  0  0  0  0  0  0  0  0
    0.1794   -1.4710    5.7309 H   0  0  0  0  0  0  0  0  0  0  0  0
   -0.2601   -2.0586    3.3768 H   0  0  0  0  0  0  0  0  0  0  0  0
   -0.8421    0.2213   -1.6183 H   0  0  0  0  0  0  0  0  0  0  0  0
   -4.9772   -0.3138   -1.4069 H   0  0  0  0  0  0  0  0  0  0  0  0
   -4.3428   -2.4344   -2.5303 H   0  0  0  0  0  0  0  0  0  0  0  0
   -4.3881   -2.7030   -0.7797 H   0  0  0  0  0  0  0  0  0  0  0  0
    1.5410   -2.6331   -2.4870 H   0  0  0  0  0  0  0  0  0  0  0  0
   -0.1853   -5.8388   -1.8149 H   0  0  0  0  0  0  0  0  0  0  0  0
    1.1876   -4.7935   -1.4455 H   0  0  0  0  0  0  0  0  0  0  0  0
    1.2585   -4.1756   -5.9485 H   0  0  0  0  0  0  0  0  0  0  0  0
    2.7889   -4.9062   -5.3381 H   0  0  0  0  0  0  0  0  0  0  0  0
    2.6148   -3.1451   -5.4542 H   0  0  0  0  0  0  0  0  0  0  0  0
   -3.4937   -4.8789   -2.2507 H   0  0  0  0  0  0  0  0  0  0  0  0
  1  2  1  0
  2  3  1  0
  3  4  2  0
  4  5  1  0
  5  6  1  0
  6  7  2  0
  6  8  1  0
  8  9  1  0
  9 10  1  0
  8 11  1  0
 11 12  1  0
  4 13  1  0
 13 14  1  0
 14 15  2  0
 14 16  1  0
 16 17  1  0
 17 18  2  3
 18 19  1  0
 19 20  1  0
 20 21  1  0
 21 22  2  0
 22 23  1  0
 23 24  1  0
 24 25  2  0
 25 26  1  0
 26 27  2  0
 27 28  1  0
 28 29  2  0
 17 30  1  0
 30 31  1  0
 31 32  1  0
 32 33  2  0
 33 34  1  0
 34 35  2  0
 35 36  1  0
 36 37  2  0
 30 38  1  0
 38 39  1  0
 39 40  2  0
 40 41  1  0
 41 42  1  0
 42 43  1  0
 43 44  2  0
 44 45  1  0
 44 46  1  0
 46 47  1  0
 47 48  1  0
 48 49  2  0
 48 50  1  0
 50 51  1  0
 46 52  1  0
 52 53  1  0
 39  3  1  0
 52 42  2  0
 30 13  1  0
 37 32  1  0
 43 38  1  0
 29 21  1  0
 29 24  1  0
  1 54  1  0
  1 55  1  0
  1 56  1  0
  2 57  1  0
  2 58  1  0
  9 59  1  0
  9 60  1  0
 10 61  1  0
 10 62  1  0
 10 63  1  0
 11 64  1  0
 11 65  1  0
 12 66  1  0
 12 67  1  0
 12 68  1  0
 19 69  1  0
 19 70  1  0
 20 71  1  0
 20 72  1  0
 22 73  1  0
 23 74  1  0
 25 75  1  0
 26 76  1  0
 27 77  1  0
 28 78  1  0
 31 79  1  0
 31 80  1  0
 33 81  1  0
 34 82  1  0
 35 83  1  0
 36 84  1  0
 37 85  1  0
 38 86  1  0
 40 87  1  0
 41 88  1  0
 41 89  1  0
 45 90  1  0
 47 91  1  0
 47 92  1  0
 51 93  1  0
 51 94  1  0
 51 95  1  0
 53 96  1  0
M  END
$$$$
