
     RDKit          3D

 41 43  0  0  0  0  0  0  0  0999 V2000
   -3.0289    0.5899    3.3091 C   0  0  0  0  0  0  0  0  0  0  0  0
   -2.9779    0.2556    1.8398 C   0  0  0  0  0  0  0  0  0  0  0  0
   -4.1483    0.2236    1.1636 C   0  0  0  0  0  0  0  0  0  0  0  0
   -4.3374   -0.0679   -0.2615 C   0  0  0  0  0  0  0  0  0  0  0  0
   -4.0804    0.9117   -1.2270 C   0  0  0  0  0  0  0  0  0  0  0  0
   -4.2594    0.6254   -2.5814 C   0  0  0  0  0  0  0  0  0  0  0  0
   -4.6979   -0.6384   -2.9753 C   0  0  0  0  0  0  0  0  0  0  0  0
   -4.9581   -1.6171   -2.0166 C   0  0  0  0  0  0  0  0  0  0  0  0
   -4.7790   -1.3331   -0.6614 C   0  0  0  0  0  0  0  0  0  0  0  0
   -1.6953   -0.0451    1.1936 C   0  0  0  0  0  0  0  0  0  0  0  0
   -0.4272    0.0036    1.6328 C   0  0  0  0  0  0  0  0  0  0  0  0
    0.2003    0.4626    3.1712 S   0  0  0  0  0  0  0  0  0  0  0  0
    1.8763    0.2053    2.7003 C   0  0  0  0  0  0  0  0  0  0  0  0
    3.1635    0.3960    3.7437 S   0  0  0  0  0  0  0  0  0  0  0  0
    1.8982   -0.2057    1.3860 N   0  0  0  0  0  0  0  0  0  0  0  0
    3.0896   -0.4275    0.6787 N   0  0  0  0  0  0  0  0  0  0  0  0
    3.6201    0.6508   -0.0042 C   0  0  0  0  0  0  0  0  0  0  0  0
    3.2871    1.8148    0.1935 O   0  0  0  0  0  0  0  0  0  0  0  0
    4.6665    0.3385   -1.0057 C   0  0  0  0  0  0  0  0  0  0  0  0
    5.7213    1.2379   -1.1577 C   0  0  0  0  0  0  0  0  0  0  0  0
    6.6923    0.9421   -2.0946 C   0  0  0  0  0  0  0  0  0  0  0  0
    6.6677   -0.1618   -2.8724 N   0  0  0  0  0  0  0  0  0  0  0  0
    5.6198   -0.9996   -2.7229 C   0  0  0  0  0  0  0  0  0  0  0  0
    4.5989   -0.7983   -1.8113 C   0  0  0  0  0  0  0  0  0  0  0  0
    0.6968   -0.3760    0.7220 C   0  0  0  0  0  0  0  0  0  0  0  0
    0.5666   -0.8127   -0.4151 O   0  0  0  0  0  0  0  0  0  0  0  0
   -2.5086    1.5307    3.5137 H   0  0  0  0  0  0  0  0  0  0  0  0
   -2.5952   -0.2162    3.9094 H   0  0  0  0  0  0  0  0  0  0  0  0
   -4.0570    0.7207    3.6671 H   0  0  0  0  0  0  0  0  0  0  0  0
   -5.0840    0.4332    1.6801 H   0  0  0  0  0  0  0  0  0  0  0  0
   -3.7369    1.8999   -0.9301 H   0  0  0  0  0  0  0  0  0  0  0  0
   -4.0554    1.3879   -3.3286 H   0  0  0  0  0  0  0  0  0  0  0  0
   -4.8359   -0.8607   -4.0304 H   0  0  0  0  0  0  0  0  0  0  0  0
   -5.2989   -2.6021   -2.3243 H   0  0  0  0  0  0  0  0  0  0  0  0
   -4.9813   -2.1045    0.0776 H   0  0  0  0  0  0  0  0  0  0  0  0
   -1.8048   -0.3693    0.1551 H   0  0  0  0  0  0  0  0  0  0  0  0
    3.2683   -1.3846    0.4018 H   0  0  0  0  0  0  0  0  0  0  0  0
    5.7847    2.1421   -0.5607 H   0  0  0  0  0  0  0  0  0  0  0  0
    7.5402    1.6031   -2.2525 H   0  0  0  0  0  0  0  0  0  0  0  0
    5.6206   -1.8614   -3.3851 H   0  0  0  0  0  0  0  0  0  0  0  0
    3.7689   -1.4935   -1.7723 H   0  0  0  0  0  0  0  0  0  0  0  0
  1  2  1  0
  2  3  2  3
  3  4  1  0
  4  5  2  0
  5  6  1  0
  6  7  2  0
  7  8  1  0
  8  9  2  0
  2 10  1  0
 10 11  2  3
 11 12  1  0
 12 13  1  0
 13 14  2  0
 13 15  1  0
 15 16  1  0
 16 17  1  0
 17 18  2  0
 17 19  1  0
 19 20  2  0
 20 21  1  0
 21 22  2  0
 22 23  1  0
 23 24  2  0
 15 25  1  0
 25 26  2  0
  9  4  1  0
 25 11  1  0
 24 19  1  0
  1 27  1  0
  1 28  1  0
  1 29  1  0
  3 30  1  0
  5 31  1  0
  6 32  1  0
  7 33  1  0
  8 34  1  0
  9 35  1  0
 10 36  1  0
 16 37  1  0
 20 38  1  0
 21 39  1  0
 23 40  1  0
 24 41  1  0
M  END
$$$$
