
     RDKit          3D

 47 48  0  0  0  0  0  0  0  0999 V2000
    5.2740   -0.6070    2.5411 C   0  0  0  0  0  0  0  0  0  0  0  0
    5.0066   -0.3085    1.0956 C   0  0  0  0  0  0  0  0  0  0  0  0
    3.9864   -0.9711    0.4061 C   0  0  0  0  0  0  0  0  0  0  0  0
    3.7594   -0.7087   -0.9475 C   0  0  0  0  0  0  0  0  0  0  0  0
    4.5523    0.2171   -1.6402 C   0  0  0  0  0  0  0  0  0  0  0  0
    4.3053    0.4914   -3.1046 C   0  0  0  0  0  0  0  0  0  0  0  0
    3.8178    2.1991   -3.4653 S   0  0  0  0  0  0  0  0  0  0  0  0
    2.2401    2.2681   -2.7467 C   0  0  0  0  0  0  0  0  0  0  0  0
    1.5967    3.3924   -2.5031 N   0  0  0  0  0  0  0  0  0  0  0  0
    0.3913    3.0486   -1.9259 N   0  0  0  0  0  0  0  0  0  0  0  0
    0.3795    1.7359   -1.8618 C   0  0  0  0  0  0  0  0  0  0  0  0
   -0.6445    0.8253   -1.3048 C   0  0  0  0  0  0  0  0  0  0  0  0
   -1.0043    1.2274    0.1259 C   0  0  0  0  0  0  0  0  0  0  0  0
   -1.8455    0.2565    0.7969 N   0  0  0  0  0  0  0  0  0  0  0  0
   -3.1471    0.0471    0.4511 C   0  0  0  0  0  0  0  0  0  0  0  0
   -3.6943    0.5265   -0.5281 O   0  0  0  0  0  0  0  0  0  0  0  0
   -3.7118   -0.7661    1.3704 O   0  0  0  0  0  0  0  0  0  0  0  0
   -5.1060   -1.1536    1.2584 C   0  0  0  0  0  0  0  0  0  0  0  0
   -5.3587   -2.0550    2.4768 C   0  0  0  0  0  0  0  0  0  0  0  0
   -6.0333    0.0639    1.3506 C   0  0  0  0  0  0  0  0  0  0  0  0
   -5.3560   -1.9694   -0.0150 C   0  0  0  0  0  0  0  0  0  0  0  0
    1.5105    1.1668   -2.3785 O   0  0  0  0  0  0  0  0  0  0  0  0
    5.5893    0.8612   -0.9508 C   0  0  0  0  0  0  0  0  0  0  0  0
    5.8140    0.6001    0.4032 C   0  0  0  0  0  0  0  0  0  0  0  0
    6.0839   -1.3379    2.6290 H   0  0  0  0  0  0  0  0  0  0  0  0
    5.5554    0.3049    3.0780 H   0  0  0  0  0  0  0  0  0  0  0  0
    4.3825   -1.0111    3.0322 H   0  0  0  0  0  0  0  0  0  0  0  0
    3.3609   -1.6985    0.9186 H   0  0  0  0  0  0  0  0  0  0  0  0
    2.9558   -1.2362   -1.4572 H   0  0  0  0  0  0  0  0  0  0  0  0
    5.2306    0.2804   -3.6535 H   0  0  0  0  0  0  0  0  0  0  0  0
    3.5514   -0.1925   -3.5113 H   0  0  0  0  0  0  0  0  0  0  0  0
   -0.2734   -0.2075   -1.3160 H   0  0  0  0  0  0  0  0  0  0  0  0
   -1.5308    0.8482   -1.9487 H   0  0  0  0  0  0  0  0  0  0  0  0
   -1.5243    2.1936    0.1362 H   0  0  0  0  0  0  0  0  0  0  0  0
   -0.0988    1.3295    0.7366 H   0  0  0  0  0  0  0  0  0  0  0  0
   -1.5816   -0.1022    1.7046 H   0  0  0  0  0  0  0  0  0  0  0  0
   -6.3911   -2.4194    2.5066 H   0  0  0  0  0  0  0  0  0  0  0  0
   -4.6858   -2.9207    2.4675 H   0  0  0  0  0  0  0  0  0  0  0  0
   -5.1551   -1.5156    3.4095 H   0  0  0  0  0  0  0  0  0  0  0  0
   -5.9501    0.7091    0.4708 H   0  0  0  0  0  0  0  0  0  0  0  0
   -5.7782    0.6820    2.2191 H   0  0  0  0  0  0  0  0  0  0  0  0
   -7.0824   -0.2395    1.4351 H   0  0  0  0  0  0  0  0  0  0  0  0
   -5.2563   -1.3594   -0.9178 H   0  0  0  0  0  0  0  0  0  0  0  0
   -6.3631   -2.4004   -0.0207 H   0  0  0  0  0  0  0  0  0  0  0  0
   -4.6277   -2.7835   -0.1042 H   0  0  0  0  0  0  0  0  0  0  0  0
    6.2312    1.5755   -1.4629 H   0  0  0  0  0  0  0  0  0  0  0  0
    6.6253    1.1132    0.9150 H   0  0  0  0  0  0  0  0  0  0  0  0
  1  2  1  0
  2  3  2  0
  3  4  1  0
  4  5  2  0
  5  6  1  0
  6  7  1  0
  7  8  1  0
  8  9  2  0
  9 10  1  0
 10 11  2  0
 11 12  1  0
 12 13  1  0
 13 14  1  0
 14 15  1  0
 15 16  2  0
 15 17  1  0
 17 18  1  0
 18 19  1  0
 18 20  1  0
 18 21  1  0
 11 22  1  0
  5 23  1  0
 23 24  2  0
 24  2  1  0
 22  8  1  0
  1 25  1  0
  1 26  1  0
  1 27  1  0
  3 28  1  0
  4 29  1  0
  6 30  1  0
  6 31  1  0
 12 32  1  0
 12 33  1  0
 13 34  1  0
 13 35  1  0
 14 36  1  0
 19 37  1  0
 19 38  1  0
 19 39  1  0
 20 40  1  0
 20 41  1  0
 20 42  1  0
 21 43  1  0
 21 44  1  0
 21 45  1  0
 23 46  1  0
 24 47  1  0
M  END
$$$$
