
     RDKit          3D

 49 52  0  0  0  0  0  0  0  0999 V2000
   -5.4500    2.3479   -1.5557 C   0  0  0  0  0  0  0  0  0  0  0  0
   -4.0479    2.9169   -1.4245 C   0  0  0  0  0  0  0  0  0  0  0  0
   -3.4600    2.5378   -0.1812 O   0  0  0  0  0  0  0  0  0  0  0  0
   -2.7686    1.3628   -0.1046 C   0  0  0  0  0  0  0  0  0  0  0  0
   -2.6380    0.4095   -1.1131 C   0  0  0  0  0  0  0  0  0  0  0  0
   -1.8968   -0.7571   -0.8896 C   0  0  0  0  0  0  0  0  0  0  0  0
   -1.2864   -0.9842    0.3495 C   0  0  0  0  0  0  0  0  0  0  0  0
   -0.4804   -2.1785    0.5673 C   0  0  0  0  0  0  0  0  0  0  0  0
    0.9024   -2.3440    0.6241 C   0  0  0  0  0  0  0  0  0  0  0  0
    2.0024   -1.3820    0.4711 C   0  0  0  0  0  0  0  0  0  0  0  0
    3.1400   -1.6718    0.8362 O   0  0  0  0  0  0  0  0  0  0  0  0
    1.6623   -0.1686   -0.1285 N   0  0  0  0  0  0  0  0  0  0  0  0
    2.5435    0.8201   -0.4984 N   0  0  0  0  0  0  0  0  0  0  0  0
    3.5707    1.0435    0.2599 C   0  0  0  0  0  0  0  0  0  0  0  0
    4.5874    2.0574   -0.0905 C   0  0  0  0  0  0  0  0  0  0  0  0
    4.4683    2.8267   -1.2516 C   0  0  0  0  0  0  0  0  0  0  0  0
    5.4427    3.7786   -1.5556 C   0  0  0  0  0  0  0  0  0  0  0  0
    6.5321    3.9598   -0.7027 C   0  0  0  0  0  0  0  0  0  0  0  0
    6.6512    3.1901    0.4553 C   0  0  0  0  0  0  0  0  0  0  0  0
    5.6792    2.2369    0.7642 C   0  0  0  0  0  0  0  0  0  0  0  0
    1.1779   -3.6614    0.8909 N   0  0  0  0  0  0  0  0  0  0  0  0
    0.0414   -4.3231    0.9886 N   0  0  0  0  0  0  0  0  0  0  0  0
   -0.9951   -3.4559    0.8308 N   0  0  0  0  0  0  0  0  0  0  0  0
   -2.3398   -3.8902    0.9603 C   0  0  0  0  0  0  0  0  0  0  0  0
   -3.3581   -3.0336    0.8778 N   0  0  0  0  0  0  0  0  0  0  0  0
   -4.4872   -3.8257    1.0759 O   0  0  0  0  0  0  0  0  0  0  0  0
   -4.1404   -5.1573    1.2770 N   0  0  0  0  0  0  0  0  0  0  0  0
   -2.8109   -5.1955    1.1994 C   0  0  0  0  0  0  0  0  0  0  0  0
   -2.0747   -6.3155    1.3287 N   0  0  0  0  0  0  0  0  0  0  0  0
   -1.4170   -0.0289    1.3603 C   0  0  0  0  0  0  0  0  0  0  0  0
   -2.1562    1.1338    1.1305 C   0  0  0  0  0  0  0  0  0  0  0  0
   -5.9255    2.7008   -2.4752 H   0  0  0  0  0  0  0  0  0  0  0  0
   -6.0669    2.6495   -0.7026 H   0  0  0  0  0  0  0  0  0  0  0  0
   -5.4394    1.2540   -1.5674 H   0  0  0  0  0  0  0  0  0  0  0  0
   -3.4130    2.6698   -2.2823 H   0  0  0  0  0  0  0  0  0  0  0  0
   -4.1198    4.0105   -1.4110 H   0  0  0  0  0  0  0  0  0  0  0  0
   -3.1075    0.5330   -2.0831 H   0  0  0  0  0  0  0  0  0  0  0  0
   -1.8127   -1.4864   -1.6932 H   0  0  0  0  0  0  0  0  0  0  0  0
    0.7891   -0.1171   -0.6405 H   0  0  0  0  0  0  0  0  0  0  0  0
    3.7306    0.5205    1.2180 H   0  0  0  0  0  0  0  0  0  0  0  0
    3.6227    2.6896   -1.9209 H   0  0  0  0  0  0  0  0  0  0  0  0
    5.3526    4.3777   -2.4582 H   0  0  0  0  0  0  0  0  0  0  0  0
    7.2909    4.7009   -0.9422 H   0  0  0  0  0  0  0  0  0  0  0  0
    7.5031    3.3317    1.1159 H   0  0  0  0  0  0  0  0  0  0  0  0
    5.7848    1.6397    1.6663 H   0  0  0  0  0  0  0  0  0  0  0  0
   -1.0650   -6.2705    1.4623 H   0  0  0  0  0  0  0  0  0  0  0  0
   -2.5102   -7.1505    1.7065 H   0  0  0  0  0  0  0  0  0  0  0  0
   -0.9512   -0.1734    2.3327 H   0  0  0  0  0  0  0  0  0  0  0  0
   -2.2568    1.8719    1.9234 H   0  0  0  0  0  0  0  0  0  0  0  0
  1  2  1  0
  2  3  1  0
  3  4  1  0
  4  5  2  0
  5  6  1  0
  6  7  2  0
  7  8  1  0
  8  9  2  0
  9 10  1  0
 10 11  2  0
 10 12  1  0
 12 13  1  0
 13 14  2  3
 14 15  1  0
 15 16  2  0
 16 17  1  0
 17 18  2  0
 18 19  1  0
 19 20  2  0
  9 21  1  0
 21 22  2  0
 22 23  1  0
 23 24  1  0
 24 25  2  0
 25 26  1  0
 26 27  1  0
 27 28  2  0
 28 29  1  0
  7 30  1  0
 30 31  2  0
 31  4  1  0
 23  8  1  0
 28 24  1  0
 20 15  1  0
  1 32  1  0
  1 33  1  0
  1 34  1  0
  2 35  1  0
  2 36  1  0
  5 37  1  0
  6 38  1  0
 12 39  1  0
 14 40  1  0
 16 41  1  0
 17 42  1  0
 18 43  1  0
 19 44  1  0
 20 45  1  0
 29 46  1  0
 29 47  1  0
 30 48  1  0
 31 49  1  0
M  END
$$$$
