
     RDKit          3D

 31 33  0  0  0  0  0  0  0  0999 V2000
    4.1391   -0.0629   -1.8176 O   0  0  0  0  0  0  0  0  0  0  0  0
    3.7011    1.0053   -1.4171 C   0  0  0  0  0  0  0  0  0  0  0  0
    3.8744    2.1312   -2.1372 O   0  0  0  0  0  0  0  0  0  0  0  0
    2.9682    1.2454   -0.1151 C   0  0  0  0  0  0  0  0  0  0  0  0
    2.5795   -0.0432    0.4695 N   0  0  0  0  0  0  0  0  0  0  0  0
    1.6946   -0.0524    1.8814 S   0  0  0  0  0  6  0  0  0  0  0  0
    2.1040    1.1001    2.6535 O   0  0  0  0  0  0  0  0  0  0  0  0
    1.7685   -1.3908    2.4197 O   0  0  0  0  0  0  0  0  0  0  0  0
    0.0377    0.2117    1.3004 C   0  0  0  0  0  0  0  0  0  0  0  0
   -0.6379    1.3958    1.7070 C   0  0  0  0  0  0  0  0  0  0  0  0
   -1.9454    1.6715    1.2756 C   0  0  0  0  0  0  0  0  0  0  0  0
   -2.5407    0.7496    0.4475 C   0  0  0  0  0  0  0  0  0  0  0  0
   -1.8818   -0.3904    0.0666 C   0  0  0  0  0  0  0  0  0  0  0  0
   -2.6939   -1.1346   -0.7518 C   0  0  0  0  0  0  0  0  0  0  0  0
   -2.2684   -2.3366   -1.2744 C   0  0  0  0  0  0  0  0  0  0  0  0
   -0.9776   -2.7632   -0.9328 C   0  0  0  0  0  0  0  0  0  0  0  0
   -0.1476   -1.9869   -0.0871 C   0  0  0  0  0  0  0  0  0  0  0  0
   -0.5903   -0.7430    0.4489 C   0  0  0  0  0  0  0  0  0  0  0  0
   -3.9660   -0.3929   -0.8929 C   0  0  0  0  0  0  0  0  0  0  0  0
   -4.9320   -0.7326   -1.5440 O   0  0  0  0  0  0  0  0  0  0  0  0
   -3.8058    0.7547   -0.1312 N   0  0  0  0  0  0  0  0  0  0  0  0
    4.3630    1.8368   -2.9356 H   0  0  0  0  0  0  0  0  0  0  0  0
    2.0775    1.8474   -0.3159 H   0  0  0  0  0  0  0  0  0  0  0  0
    3.6529    1.7721    0.5558 H   0  0  0  0  0  0  0  0  0  0  0  0
    3.2193   -0.8314    0.3494 H   0  0  0  0  0  0  0  0  0  0  0  0
   -0.1441    2.1083    2.3674 H   0  0  0  0  0  0  0  0  0  0  0  0
   -2.4576    2.5745    1.5885 H   0  0  0  0  0  0  0  0  0  0  0  0
   -2.9114   -2.9256   -1.9196 H   0  0  0  0  0  0  0  0  0  0  0  0
   -0.6052   -3.7102   -1.3201 H   0  0  0  0  0  0  0  0  0  0  0  0
    0.8424   -2.3709    0.1523 H   0  0  0  0  0  0  0  0  0  0  0  0
   -4.5164    1.4631   -0.0284 H   0  0  0  0  0  0  0  0  0  0  0  0
  1  2  2  0
  2  3  1  0
  2  4  1  0
  4  5  1  0
  5  6  1  0
  6  7  2  0
  6  8  2  0
  6  9  1  0
  9 10  2  0
 10 11  1  0
 11 12  2  0
 12 13  1  0
 13 14  2  0
 14 15  1  0
 15 16  2  0
 16 17  1  0
 17 18  2  0
 14 19  1  0
 19 20  2  0
 19 21  1  0
 18  9  1  0
 21 12  1  0
 18 13  1  0
  3 22  1  0
  4 23  1  0
  4 24  1  0
  5 25  1  0
 10 26  1  0
 11 27  1  0
 15 28  1  0
 16 29  1  0
 17 30  1  0
 21 31  1  0
M  END
$$$$
