
     RDKit          3D

 40 40  0  0  0  0  0  0  0  0999 V2000
   -6.1364   -0.1850   -1.2048 C   0  0  0  0  0  0  0  0  0  0  0  0
   -5.1243    0.3984   -0.2031 C   0  0  0  0  0  0  0  0  0  0  0  0
   -5.6177    0.0945    1.2201 C   0  0  0  0  0  0  0  0  0  0  0  0
   -5.0437    1.9175   -0.4184 C   0  0  0  0  0  0  0  0  0  0  0  0
   -3.8232   -0.2307   -0.4495 N   0  0  0  0  0  0  0  0  0  0  0  0
   -2.6648    0.0277    0.2498 C   0  0  0  0  0  0  0  0  0  0  0  0
   -2.5277    0.7964    1.1891 O   0  0  0  0  0  0  0  0  0  0  0  0
   -1.4512   -0.7700   -0.2666 C   0  0  0  0  0  0  0  0  0  0  0  0
   -1.5544   -1.5161   -1.2339 O   0  0  0  0  0  0  0  0  0  0  0  0
   -0.2926   -0.5435    0.4459 N   0  0  0  0  0  0  0  0  0  0  0  0
    0.9208   -0.9980   -0.1011 N   0  0  0  0  0  0  0  0  0  0  0  0
    1.9908   -0.1137   -0.0812 C   0  0  0  0  0  0  0  0  0  0  0  0
    1.9574    0.9420    0.5461 O   0  0  0  0  0  0  0  0  0  0  0  0
    3.1882   -0.6084   -0.8987 C   0  0  0  0  0  0  0  0  0  0  0  0
    4.3438    0.2104   -0.8681 O   0  0  0  0  0  0  0  0  0  0  0  0
    5.2239    0.0344    0.1631 C   0  0  0  0  0  0  0  0  0  0  0  0
    4.9755   -0.6568    1.3496 C   0  0  0  0  0  0  0  0  0  0  0  0
    5.9723   -0.7563    2.3260 C   0  0  0  0  0  0  0  0  0  0  0  0
    7.2168   -0.1624    2.1239 C   0  0  0  0  0  0  0  0  0  0  0  0
    7.4657    0.5390    0.9473 C   0  0  0  0  0  0  0  0  0  0  0  0
    6.4700    0.6388   -0.0259 C   0  0  0  0  0  0  0  0  0  0  0  0
   -5.8248    0.0074   -2.2382 H   0  0  0  0  0  0  0  0  0  0  0  0
   -6.2245   -1.2717   -1.0893 H   0  0  0  0  0  0  0  0  0  0  0  0
   -7.1327    0.2499   -1.0676 H   0  0  0  0  0  0  0  0  0  0  0  0
   -5.6487   -0.9858    1.4033 H   0  0  0  0  0  0  0  0  0  0  0  0
   -4.9661    0.5356    1.9814 H   0  0  0  0  0  0  0  0  0  0  0  0
   -6.6256    0.4927    1.3830 H   0  0  0  0  0  0  0  0  0  0  0  0
   -6.0290    2.3853   -0.3116 H   0  0  0  0  0  0  0  0  0  0  0  0
   -4.6657    2.1532   -1.4199 H   0  0  0  0  0  0  0  0  0  0  0  0
   -4.3743    2.3967    0.3035 H   0  0  0  0  0  0  0  0  0  0  0  0
   -3.7284   -0.8887   -1.2200 H   0  0  0  0  0  0  0  0  0  0  0  0
   -0.2504    0.2642    1.0751 H   0  0  0  0  0  0  0  0  0  0  0  0
    0.8312   -1.6882   -0.8467 H   0  0  0  0  0  0  0  0  0  0  0  0
    2.8566   -0.6270   -1.9442 H   0  0  0  0  0  0  0  0  0  0  0  0
    3.4233   -1.6474   -0.6348 H   0  0  0  0  0  0  0  0  0  0  0  0
    4.0146   -1.1118    1.5614 H   0  0  0  0  0  0  0  0  0  0  0  0
    5.7716   -1.2904    3.2514 H   0  0  0  0  0  0  0  0  0  0  0  0
    7.9872   -0.2378    2.8867 H   0  0  0  0  0  0  0  0  0  0  0  0
    8.4303    1.0129    0.7872 H   0  0  0  0  0  0  0  0  0  0  0  0
    6.6664    1.1927   -0.9405 H   0  0  0  0  0  0  0  0  0  0  0  0
  1  2  1  0
  2  3  1  0
  2  4  1  0
  2  5  1  0
  5  6  1  0
  6  7  2  0
  6  8  1  0
  8  9  2  0
  8 10  1  0
 10 11  1  0
 11 12  1  0
 12 13  2  0
 12 14  1  0
 14 15  1  0
 15 16  1  0
 16 17  2  0
 17 18  1  0
 18 19  2  0
 19 20  1  0
 20 21  2  0
 21 16  1  0
  1 22  1  0
  1 23  1  0
  1 24  1  0
  3 25  1  0
  3 26  1  0
  3 27  1  0
  4 28  1  0
  4 29  1  0
  4 30  1  0
  5 31  1  0
 10 32  1  0
 11 33  1  0
 14 34  1  0
 14 35  1  0
 17 36  1  0
 18 37  1  0
 19 38  1  0
 20 39  1  0
 21 40  1  0
M  END
$$$$
