
     RDKit          3D

 35 36  0  0  0  0  0  0  0  0999 V2000
    6.0015   -0.7534   -2.3641 C   0  0  0  0  0  0  0  0  0  0  0  0
    4.6333   -0.5624   -1.7811 C   0  0  0  0  0  0  0  0  0  0  0  0
    4.3103   -1.1062   -0.5347 C   0  0  0  0  0  0  0  0  0  0  0  0
    3.0448   -0.9020    0.0294 C   0  0  0  0  0  0  0  0  0  0  0  0
    2.0894   -0.1298   -0.6297 C   0  0  0  0  0  0  0  0  0  0  0  0
    0.7807    0.1038   -0.1505 N   0  0  0  0  0  0  0  0  0  0  0  0
    0.2537    0.0347    1.1153 C   0  0  0  0  0  0  0  0  0  0  0  0
    1.0493    0.0256    2.5833 S   0  0  0  0  0  0  0  0  0  0  0  0
   -1.1158    0.0112    1.1707 N   0  0  0  0  0  0  0  0  0  0  0  0
   -2.0221   -0.3628    0.1056 C   0  0  0  0  0  0  0  0  0  0  0  0
   -3.4128   -0.2524    0.6208 C   0  0  0  0  0  0  0  0  0  0  0  0
   -4.2977   -1.2586    0.9691 C   0  0  0  0  0  0  0  0  0  0  0  0
   -5.4993   -0.6527    1.3998 C   0  0  0  0  0  0  0  0  0  0  0  0
   -5.3244    0.7088    1.3085 C   0  0  0  0  0  0  0  0  0  0  0  0
   -4.0587    0.9467    0.8381 N   0  0  0  0  0  0  0  0  0  0  0  0
   -3.5016    2.2661    0.6280 C   0  0  0  0  0  0  0  0  0  0  0  0
    2.4113    0.4047   -1.8841 C   0  0  0  0  0  0  0  0  0  0  0  0
    3.6748    0.2028   -2.4493 C   0  0  0  0  0  0  0  0  0  0  0  0
    6.4249   -1.7164   -2.0598 H   0  0  0  0  0  0  0  0  0  0  0  0
    5.9644   -0.7468   -3.4586 H   0  0  0  0  0  0  0  0  0  0  0  0
    6.6666    0.0480   -2.0280 H   0  0  0  0  0  0  0  0  0  0  0  0
    5.0383   -1.7045    0.0093 H   0  0  0  0  0  0  0  0  0  0  0  0
    2.8330   -1.3907    0.9735 H   0  0  0  0  0  0  0  0  0  0  0  0
    0.1765    0.5653   -0.8145 H   0  0  0  0  0  0  0  0  0  0  0  0
   -1.4639   -0.1385    2.1124 H   0  0  0  0  0  0  0  0  0  0  0  0
   -1.8697    0.2856   -0.7622 H   0  0  0  0  0  0  0  0  0  0  0  0
   -1.7878   -1.3899   -0.1948 H   0  0  0  0  0  0  0  0  0  0  0  0
   -4.0954   -2.3214    0.9180 H   0  0  0  0  0  0  0  0  0  0  0  0
   -6.3953   -1.1540    1.7425 H   0  0  0  0  0  0  0  0  0  0  0  0
   -5.9988    1.5216    1.5455 H   0  0  0  0  0  0  0  0  0  0  0  0
   -3.1320    2.3306   -0.3982 H   0  0  0  0  0  0  0  0  0  0  0  0
   -4.2788    3.0191    0.7830 H   0  0  0  0  0  0  0  0  0  0  0  0
   -2.6921    2.4180    1.3457 H   0  0  0  0  0  0  0  0  0  0  0  0
    1.6904    1.0023   -2.4356 H   0  0  0  0  0  0  0  0  0  0  0  0
    3.9031    0.6476   -3.4152 H   0  0  0  0  0  0  0  0  0  0  0  0
  1  2  1  0
  2  3  2  0
  3  4  1  0
  4  5  2  0
  5  6  1  0
  6  7  1  0
  7  8  2  0
  7  9  1  0
  9 10  1  0
 10 11  1  0
 11 12  2  0
 12 13  1  0
 13 14  2  0
 14 15  1  0
 15 16  1  0
  5 17  1  0
 17 18  2  0
 18  2  1  0
 15 11  1  0
  1 19  1  0
  1 20  1  0
  1 21  1  0
  3 22  1  0
  4 23  1  0
  6 24  1  0
  9 25  1  0
 10 26  1  0
 10 27  1  0
 12 28  1  0
 13 29  1  0
 14 30  1  0
 16 31  1  0
 16 32  1  0
 16 33  1  0
 17 34  1  0
 18 35  1  0
M  END
$$$$
