
     RDKit          3D

 39 41  0  0  0  0  0  0  0  0999 V2000
    4.8931   -1.0464    0.2355 C   0  0  0  0  0  0  0  0  0  0  0  0
    4.2397   -0.0794   -0.7517 C   0  0  0  0  0  0  0  0  0  0  0  0
    4.7501    1.3434   -0.5246 C   0  0  0  0  0  0  0  0  0  0  0  0
    2.7023   -0.1621   -0.7224 C   0  0  0  0  0  0  0  0  0  0  0  0
    2.0507    0.2234    0.6120 C   0  0  0  0  0  0  0  0  0  0  0  0
    0.5938    0.1141    0.5429 N   0  0  0  0  0  0  0  0  0  0  0  0
    0.0240   -1.1214    0.8403 C   0  0  0  0  0  0  0  0  0  0  0  0
    0.6747   -2.1144    1.1574 O   0  0  0  0  0  0  0  0  0  0  0  0
   -1.4519   -1.2206    0.7557 C   0  0  0  0  0  0  0  0  0  0  0  0
   -2.0665   -2.4298    1.1021 C   0  0  0  0  0  0  0  0  0  0  0  0
   -3.4479   -2.5460    1.0410 C   0  0  0  0  0  0  0  0  0  0  0  0
   -4.2161   -1.4580    0.6254 C   0  0  0  0  0  0  0  0  0  0  0  0
   -3.6264   -0.2259    0.2569 C   0  0  0  0  0  0  0  0  0  0  0  0
   -4.3777    0.8947   -0.1928 C   0  0  0  0  0  0  0  0  0  0  0  0
   -5.7883    0.9192   -0.2039 N   0  0  0  0  0  0  0  0  0  0  0  0
   -3.7289    2.1054   -0.4589 C   0  0  0  0  0  0  0  0  0  0  0  0
   -2.3447    2.2039   -0.3778 C   0  0  0  0  0  0  0  0  0  0  0  0
   -1.5898    1.0946    0.0126 C   0  0  0  0  0  0  0  0  0  0  0  0
   -2.2102   -0.1170    0.3400 C   0  0  0  0  0  0  0  0  0  0  0  0
   -0.1162    1.2246    0.0926 C   0  0  0  0  0  0  0  0  0  0  0  0
    0.4119    2.2831   -0.2400 O   0  0  0  0  0  0  0  0  0  0  0  0
    4.7049   -0.7577    1.2744 H   0  0  0  0  0  0  0  0  0  0  0  0
    5.9787   -1.0664    0.0903 H   0  0  0  0  0  0  0  0  0  0  0  0
    4.5187   -2.0650    0.0894 H   0  0  0  0  0  0  0  0  0  0  0  0
    4.5533   -0.3813   -1.7599 H   0  0  0  0  0  0  0  0  0  0  0  0
    4.2729    2.0442   -1.2175 H   0  0  0  0  0  0  0  0  0  0  0  0
    5.8315    1.3936   -0.6921 H   0  0  0  0  0  0  0  0  0  0  0  0
    4.5587    1.6872    0.4968 H   0  0  0  0  0  0  0  0  0  0  0  0
    2.4008   -1.1839   -0.9879 H   0  0  0  0  0  0  0  0  0  0  0  0
    2.3013    0.4805   -1.5173 H   0  0  0  0  0  0  0  0  0  0  0  0
    2.4149   -0.4248    1.4160 H   0  0  0  0  0  0  0  0  0  0  0  0
    2.3147    1.2510    0.8831 H   0  0  0  0  0  0  0  0  0  0  0  0
   -1.4692   -3.2811    1.4240 H   0  0  0  0  0  0  0  0  0  0  0  0
   -3.9287   -3.4826    1.3138 H   0  0  0  0  0  0  0  0  0  0  0  0
   -5.2939   -1.5931    0.5924 H   0  0  0  0  0  0  0  0  0  0  0  0
   -6.1509    1.3606    0.6391 H   0  0  0  0  0  0  0  0  0  0  0  0
   -6.2134    0.0077   -0.3308 H   0  0  0  0  0  0  0  0  0  0  0  0
   -4.3097    2.9764   -0.7563 H   0  0  0  0  0  0  0  0  0  0  0  0
   -1.8603    3.1491   -0.6160 H   0  0  0  0  0  0  0  0  0  0  0  0
  1  2  1  0
  2  3  1  0
  2  4  1  0
  4  5  1  0
  5  6  1  0
  6  7  1  0
  7  8  2  0
  7  9  1  0
  9 10  1  0
 10 11  2  0
 11 12  1  0
 12 13  2  0
 13 14  1  0
 14 15  1  0
 14 16  2  0
 16 17  1  0
 17 18  2  0
 18 19  1  0
 18 20  1  0
 20 21  2  0
 20  6  1  0
 19  9  2  0
 19 13  1  0
  1 22  1  0
  1 23  1  0
  1 24  1  0
  2 25  1  0
  3 26  1  0
  3 27  1  0
  3 28  1  0
  4 29  1  0
  4 30  1  0
  5 31  1  0
  5 32  1  0
 10 33  1  0
 11 34  1  0
 12 35  1  0
 15 36  1  0
 15 37  1  0
 16 38  1  0
 17 39  1  0
M  END
$$$$
