
     RDKit          3D

 56 58  0  0  0  0  0  0  0  0999 V2000
   -8.8565    0.5391    1.3052 C   0  0  0  0  0  0  0  0  0  0  0  0
   -8.0607   -0.1609    0.3593 O   0  0  0  0  0  0  0  0  0  0  0  0
   -6.6961   -0.0847    0.4976 C   0  0  0  0  0  0  0  0  0  0  0  0
   -6.0409    0.7112    1.4428 C   0  0  0  0  0  0  0  0  0  0  0  0
   -4.6459    0.7276    1.5089 C   0  0  0  0  0  0  0  0  0  0  0  0
   -3.8848   -0.0524    0.6337 C   0  0  0  0  0  0  0  0  0  0  0  0
   -2.3785   -0.0153    0.6983 C   0  0  0  0  0  0  0  0  0  0  0  0
   -1.8009    1.1129   -0.1597 C   0  0  0  0  0  0  0  0  0  0  0  0
   -0.3515    1.1320   -0.1276 N   0  0  0  0  0  0  0  0  0  0  0  0
    0.3311    1.6776    0.9307 C   0  0  0  0  0  0  0  0  0  0  0  0
   -0.1914    2.2358    1.8858 O   0  0  0  0  0  0  0  0  0  0  0  0
    1.7988    1.4642    0.8703 C   0  0  0  0  0  0  0  0  0  0  0  0
    2.4943    1.7385   -0.2494 C   0  0  0  0  0  0  0  0  0  0  0  0
    3.9721    1.5224   -0.3828 C   0  0  0  0  0  0  0  0  0  0  0  0
    4.5139    0.7231    0.7418 N   0  0  0  0  0  0  0  0  0  0  0  0
    4.5988   -0.9608    0.5080 S   0  0  0  0  0  6  0  0  0  0  0  0
    5.1444   -1.5629    1.7048 O   0  0  0  0  0  0  0  0  0  0  0  0
    3.3366   -1.4017   -0.0482 O   0  0  0  0  0  0  0  0  0  0  0  0
    5.8435   -1.1079   -0.7540 C   0  0  0  0  0  0  0  0  0  0  0  0
    7.1476   -0.6838   -0.4689 C   0  0  0  0  0  0  0  0  0  0  0  0
    8.1334   -0.7973   -1.4493 C   0  0  0  0  0  0  0  0  0  0  0  0
    7.8070   -1.3310   -2.6930 C   0  0  0  0  0  0  0  0  0  0  0  0
    8.7554   -1.4380   -3.6323 F   0  0  0  0  0  0  0  0  0  0  0  0
    6.5125   -1.7580   -2.9776 C   0  0  0  0  0  0  0  0  0  0  0  0
    5.5196   -1.6515   -2.0025 C   0  0  0  0  0  0  0  0  0  0  0  0
    3.9749    1.1623    2.0592 C   0  0  0  0  0  0  0  0  0  0  0  0
    2.4597    0.9849    2.1297 C   0  0  0  0  0  0  0  0  0  0  0  0
   -4.5394   -0.8451   -0.3205 C   0  0  0  0  0  0  0  0  0  0  0  0
   -5.9380   -0.8698   -0.3941 C   0  0  0  0  0  0  0  0  0  0  0  0
   -6.6543   -1.6214   -1.2943 O   0  0  0  0  0  0  0  0  0  0  0  0
   -5.9274   -2.4632   -2.1765 C   0  0  0  0  0  0  0  0  0  0  0  0
   -8.6643    0.1859    2.3239 H   0  0  0  0  0  0  0  0  0  0  0  0
   -9.9070    0.3333    1.0755 H   0  0  0  0  0  0  0  0  0  0  0  0
   -8.7055    1.6210    1.2247 H   0  0  0  0  0  0  0  0  0  0  0  0
   -6.5867    1.3345    2.1429 H   0  0  0  0  0  0  0  0  0  0  0  0
   -4.1562    1.3563    2.2512 H   0  0  0  0  0  0  0  0  0  0  0  0
   -1.9717   -0.9805    0.3703 H   0  0  0  0  0  0  0  0  0  0  0  0
   -2.0609    0.0929    1.7432 H   0  0  0  0  0  0  0  0  0  0  0  0
   -2.1715    2.0859    0.1846 H   0  0  0  0  0  0  0  0  0  0  0  0
   -2.0961    0.9947   -1.2085 H   0  0  0  0  0  0  0  0  0  0  0  0
    0.1525    0.5256   -0.7626 H   0  0  0  0  0  0  0  0  0  0  0  0
    1.9901    2.1376   -1.1260 H   0  0  0  0  0  0  0  0  0  0  0  0
    4.1858    1.0433   -1.3429 H   0  0  0  0  0  0  0  0  0  0  0  0
    4.4835    2.4912   -0.3986 H   0  0  0  0  0  0  0  0  0  0  0  0
    7.3950   -0.2772    0.5090 H   0  0  0  0  0  0  0  0  0  0  0  0
    9.1528   -0.4805   -1.2521 H   0  0  0  0  0  0  0  0  0  0  0  0
    6.2890   -2.1768   -3.9543 H   0  0  0  0  0  0  0  0  0  0  0  0
    4.5105   -1.9932   -2.2198 H   0  0  0  0  0  0  0  0  0  0  0  0
    4.4676    0.6268    2.8774 H   0  0  0  0  0  0  0  0  0  0  0  0
    4.2379    2.2197    2.1968 H   0  0  0  0  0  0  0  0  0  0  0  0
    2.2112   -0.0725    2.2778 H   0  0  0  0  0  0  0  0  0  0  0  0
    2.0844    1.5309    3.0027 H   0  0  0  0  0  0  0  0  0  0  0  0
   -3.9340   -1.4386   -0.9975 H   0  0  0  0  0  0  0  0  0  0  0  0
   -6.6500   -3.0117   -2.7876 H   0  0  0  0  0  0  0  0  0  0  0  0
   -5.3356   -3.1996   -1.6237 H   0  0  0  0  0  0  0  0  0  0  0  0
   -5.2982   -1.8751   -2.8524 H   0  0  0  0  0  0  0  0  0  0  0  0
  1  2  1  0
  2  3  1  0
  3  4  2  0
  4  5  1  0
  5  6  2  0
  6  7  1  0
  7  8  1  0
  8  9  1  0
  9 10  1  0
 10 11  2  0
 10 12  1  0
 12 13  2  0
 13 14  1  0
 14 15  1  0
 15 16  1  0
 16 17  2  0
 16 18  2  0
 16 19  1  0
 19 20  2  0
 20 21  1  0
 21 22  2  0
 22 23  1  0
 22 24  1  0
 24 25  2  0
 15 26  1  0
 26 27  1  0
  6 28  1  0
 28 29  2  0
 29 30  1  0
 30 31  1  0
 29  3  1  0
 27 12  1  0
 25 19  1  0
  1 32  1  0
  1 33  1  0
  1 34  1  0
  4 35  1  0
  5 36  1  0
  7 37  1  0
  7 38  1  0
  8 39  1  0
  8 40  1  0
  9 41  1  0
 13 42  1  0
 14 43  1  0
 14 44  1  0
 20 45  1  0
 21 46  1  0
 24 47  1  0
 25 48  1  0
 26 49  1  0
 26 50  1  0
 27 51  1  0
 27 52  1  0
 28 53  1  0
 31 54  1  0
 31 55  1  0
 31 56  1  0
M  END
$$$$
