
     RDKit          3D

 40 41  0  0  0  0  0  0  0  0999 V2000
    7.5700   -2.3080   -0.4140 C   0  0  0  0  0  0  0  0  0  0  0  0
    6.9478   -1.8725    0.7881 O   0  0  0  0  0  0  0  0  0  0  0  0
    5.8011   -1.1384    0.6570 C   0  0  0  0  0  0  0  0  0  0  0  0
    5.1893   -0.7903    1.8627 C   0  0  0  0  0  0  0  0  0  0  0  0
    4.0097   -0.0415    1.8763 C   0  0  0  0  0  0  0  0  0  0  0  0
    3.4261    0.3786    0.6755 C   0  0  0  0  0  0  0  0  0  0  0  0
    2.1534    1.1921    0.6797 C   0  0  0  0  0  0  0  0  0  0  0  0
    0.9066    0.4200    0.2996 C   0  0  0  0  0  0  0  0  0  0  0  0
    0.8765   -0.7257   -0.1317 O   0  0  0  0  0  0  0  0  0  0  0  0
   -0.1755    1.2513    0.5094 O   0  0  0  0  0  0  0  0  0  0  0  0
   -1.3596    0.6132    0.0958 N   0  0  0  0  0  0  0  0  0  0  0  0
   -2.4053    1.3577    0.3038 C   0  0  0  0  0  0  0  0  0  0  0  0
   -2.3415    2.6043    0.8879 N   0  0  0  0  0  0  0  0  0  0  0  0
   -3.7441    0.8138   -0.0983 C   0  0  0  0  0  0  0  0  0  0  0  0
   -4.8359    1.6692   -0.2870 C   0  0  0  0  0  0  0  0  0  0  0  0
   -6.0809    1.1492   -0.6540 C   0  0  0  0  0  0  0  0  0  0  0  0
   -6.2517   -0.2293   -0.8301 C   0  0  0  0  0  0  0  0  0  0  0  0
   -7.5786   -0.7823   -1.2599 C   0  0  0  0  0  0  0  0  0  0  0  0
   -5.1516   -1.0788   -0.6645 C   0  0  0  0  0  0  0  0  0  0  0  0
   -3.9058   -0.5618   -0.2988 C   0  0  0  0  0  0  0  0  0  0  0  0
    4.0413    0.0254   -0.5329 C   0  0  0  0  0  0  0  0  0  0  0  0
    5.2211   -0.7277   -0.5425 C   0  0  0  0  0  0  0  0  0  0  0  0
    8.4486   -2.8999   -0.1400 H   0  0  0  0  0  0  0  0  0  0  0  0
    7.9152   -1.4567   -1.0099 H   0  0  0  0  0  0  0  0  0  0  0  0
    6.9021   -2.9532   -0.9945 H   0  0  0  0  0  0  0  0  0  0  0  0
    5.6334   -1.1115    2.8017 H   0  0  0  0  0  0  0  0  0  0  0  0
    3.5554    0.2048    2.8329 H   0  0  0  0  0  0  0  0  0  0  0  0
    2.2671    2.0293   -0.0196 H   0  0  0  0  0  0  0  0  0  0  0  0
    2.0009    1.6171    1.6795 H   0  0  0  0  0  0  0  0  0  0  0  0
   -3.1194    2.8321    1.4974 H   0  0  0  0  0  0  0  0  0  0  0  0
   -1.4492    2.7658    1.3409 H   0  0  0  0  0  0  0  0  0  0  0  0
   -4.7273    2.7446   -0.1805 H   0  0  0  0  0  0  0  0  0  0  0  0
   -6.9160    1.8288   -0.8102 H   0  0  0  0  0  0  0  0  0  0  0  0
   -7.7210   -1.7980   -0.8762 H   0  0  0  0  0  0  0  0  0  0  0  0
   -7.6386   -0.8045   -2.3523 H   0  0  0  0  0  0  0  0  0  0  0  0
   -8.4003   -0.1709   -0.8722 H   0  0  0  0  0  0  0  0  0  0  0  0
   -5.2536   -2.1505   -0.8220 H   0  0  0  0  0  0  0  0  0  0  0  0
   -3.0638   -1.2399   -0.1739 H   0  0  0  0  0  0  0  0  0  0  0  0
    3.5988    0.3230   -1.4817 H   0  0  0  0  0  0  0  0  0  0  0  0
    5.6553   -0.9790   -1.5041 H   0  0  0  0  0  0  0  0  0  0  0  0
  1  2  1  0
  2  3  1  0
  3  4  2  0
  4  5  1  0
  5  6  2  0
  6  7  1  0
  7  8  1  0
  8  9  2  0
  8 10  1  0
 10 11  1  0
 11 12  2  3
 12 13  1  0
 12 14  1  0
 14 15  2  0
 15 16  1  0
 16 17  2  0
 17 18  1  0
 17 19  1  0
 19 20  2  0
  6 21  1  0
 21 22  2  0
 22  3  1  0
 20 14  1  0
  1 23  1  0
  1 24  1  0
  1 25  1  0
  4 26  1  0
  5 27  1  0
  7 28  1  0
  7 29  1  0
 13 30  1  0
 13 31  1  0
 15 32  1  0
 16 33  1  0
 18 34  1  0
 18 35  1  0
 18 36  1  0
 19 37  1  0
 20 38  1  0
 21 39  1  0
 22 40  1  0
M  END
$$$$
