
     RDKit          3D

 42 44  0  0  0  0  0  0  0  0999 V2000
   -6.2856   -0.5800   -0.5288 C   0  0  0  0  0  0  0  0  0  0  0  0
   -4.8749   -0.1341   -0.2729 C   0  0  0  0  0  0  0  0  0  0  0  0
   -4.5034    0.3589    0.9828 C   0  0  0  0  0  0  0  0  0  0  0  0
   -3.1769    0.7328    1.2531 C   0  0  0  0  0  0  0  0  0  0  0  0
   -2.8284    1.2474    2.6285 C   0  0  0  0  0  0  0  0  0  0  0  0
   -2.2041    0.6120    0.2343 C   0  0  0  0  0  0  0  0  0  0  0  0
   -0.8256    1.0079    0.4893 C   0  0  0  0  0  0  0  0  0  0  0  0
   -0.4025    2.3233    0.4441 C   0  0  0  0  0  0  0  0  0  0  0  0
    1.2646    2.3922    0.8141 S   0  0  0  0  0  0  0  0  0  0  0  0
    1.2934    0.6960    0.9846 C   0  0  0  0  0  0  0  0  0  0  0  0
    2.4260   -0.0030    1.3076 N   0  0  0  0  0  0  0  0  0  0  0  0
    3.6644    0.5238    1.5869 C   0  0  0  0  0  0  0  0  0  0  0  0
    4.0153    1.6955    1.6391 O   0  0  0  0  0  0  0  0  0  0  0  0
    4.6541   -0.5273    1.9173 C   0  0  0  0  0  0  0  0  0  0  0  0
    5.2663   -1.3540    1.0571 C   0  0  0  0  0  0  0  0  0  0  0  0
    5.1121   -1.3714   -0.3617 C   0  0  0  0  0  0  0  0  0  0  0  0
    4.5928   -0.4507   -1.2589 C   0  0  0  0  0  0  0  0  0  0  0  0
    4.7142   -0.8552   -2.6253 C   0  0  0  0  0  0  0  0  0  0  0  0
    5.3429   -2.0717   -2.7507 C   0  0  0  0  0  0  0  0  0  0  0  0
    5.7100   -2.7494   -1.2264 S   0  0  0  0  0  0  0  0  0  0  0  0
    0.1561    0.0774    0.7748 N   0  0  0  0  0  0  0  0  0  0  0  0
   -2.5652    0.0977   -1.0309 C   0  0  0  0  0  0  0  0  0  0  0  0
   -1.5523   -0.0814   -2.1335 C   0  0  0  0  0  0  0  0  0  0  0  0
   -3.8990   -0.2742   -1.2653 C   0  0  0  0  0  0  0  0  0  0  0  0
   -7.0019    0.0436    0.0229 H   0  0  0  0  0  0  0  0  0  0  0  0
   -6.4105   -1.6222   -0.2165 H   0  0  0  0  0  0  0  0  0  0  0  0
   -6.5382   -0.4999   -1.5916 H   0  0  0  0  0  0  0  0  0  0  0  0
   -5.2570    0.4433    1.7645 H   0  0  0  0  0  0  0  0  0  0  0  0
   -2.0185    0.6527    3.0662 H   0  0  0  0  0  0  0  0  0  0  0  0
   -2.5210    2.3004    2.5722 H   0  0  0  0  0  0  0  0  0  0  0  0
   -3.6848    1.1831    3.3127 H   0  0  0  0  0  0  0  0  0  0  0  0
   -0.9754    3.2138    0.2306 H   0  0  0  0  0  0  0  0  0  0  0  0
    2.2877   -1.0066    1.3191 H   0  0  0  0  0  0  0  0  0  0  0  0
    4.9105   -0.5642    2.9766 H   0  0  0  0  0  0  0  0  0  0  0  0
    5.9785   -2.0595    1.4863 H   0  0  0  0  0  0  0  0  0  0  0  0
    4.1790    0.5102   -0.9725 H   0  0  0  0  0  0  0  0  0  0  0  0
    4.3996   -0.2570   -3.4734 H   0  0  0  0  0  0  0  0  0  0  0  0
    5.6222   -2.5832   -3.6606 H   0  0  0  0  0  0  0  0  0  0  0  0
   -0.7995   -0.8194   -1.8381 H   0  0  0  0  0  0  0  0  0  0  0  0
   -1.0611    0.8702   -2.3625 H   0  0  0  0  0  0  0  0  0  0  0  0
   -2.0228   -0.4341   -3.0605 H   0  0  0  0  0  0  0  0  0  0  0  0
   -4.1811   -0.6839   -2.2343 H   0  0  0  0  0  0  0  0  0  0  0  0
  1  2  1  0
  2  3  2  0
  3  4  1  0
  4  5  1  0
  4  6  2  0
  6  7  1  0
  7  8  2  0
  8  9  1  0
  9 10  1  0
 10 11  1  0
 11 12  1  0
 12 13  2  0
 12 14  1  0
 14 15  2  3
 15 16  1  0
 16 17  2  0
 17 18  1  0
 18 19  2  0
 19 20  1  0
 10 21  2  0
  6 22  1  0
 22 23  1  0
 22 24  2  0
 24  2  1  0
 21  7  1  0
 20 16  1  0
  1 25  1  0
  1 26  1  0
  1 27  1  0
  3 28  1  0
  5 29  1  0
  5 30  1  0
  5 31  1  0
  8 32  1  0
 11 33  1  0
 14 34  1  0
 15 35  1  0
 17 36  1  0
 18 37  1  0
 19 38  1  0
 23 39  1  0
 23 40  1  0
 23 41  1  0
 24 42  1  0
M  END
$$$$
