
     RDKit          3D

 71 75  0  0  0  0  0  0  0  0999 V2000
   -4.0320    3.3514   -5.1713 C   0  0  0  0  0  0  0  0  0  0  0  0
   -4.2311    3.6367   -3.7929 O   0  0  0  0  0  0  0  0  0  0  0  0
   -3.6322    2.7934   -2.8977 C   0  0  0  0  0  0  0  0  0  0  0  0
   -2.8796    1.6645   -3.2106 C   0  0  0  0  0  0  0  0  0  0  0  0
   -2.3134    0.8928   -2.1891 C   0  0  0  0  0  0  0  0  0  0  0  0
   -2.4860    1.2306   -0.8348 C   0  0  0  0  0  0  0  0  0  0  0  0
   -1.8117    0.3615    0.2350 C   0  0  0  0  0  0  0  0  0  0  0  0
   -2.4803    0.4106    1.6355 C   0  0  0  0  0  0  0  0  0  0  0  0
   -1.8881   -0.5763    2.6580 C   0  0  0  0  0  0  0  0  0  0  0  0
   -1.9189   -1.9814    2.2326 N   0  0  0  0  0  0  0  0  0  0  0  0
   -1.1536   -2.8561    3.1457 C   0  0  0  0  0  0  0  0  0  0  0  0
   -2.0365   -3.6092    4.1528 C   0  0  0  0  0  0  0  0  0  0  0  0
   -3.0161   -4.4525    3.5317 O   0  0  0  0  0  0  0  0  0  0  0  0
   -3.3780   -4.0141    2.2141 C   0  0  0  0  0  0  0  0  0  0  0  0
   -3.2994   -2.4873    2.0613 C   0  0  0  0  0  0  0  0  0  0  0  0
   -0.2967    0.5944    0.2679 C   0  0  0  0  0  0  0  0  0  0  0  0
    0.2695    1.7876    0.7331 C   0  0  0  0  0  0  0  0  0  0  0  0
   -0.5610    2.7604    1.2268 O   0  0  0  0  0  0  0  0  0  0  0  0
   -0.3005    4.0590    0.6940 C   0  0  0  0  0  0  0  0  0  0  0  0
    1.6597    1.9515    0.7686 C   0  0  0  0  0  0  0  0  0  0  0  0
    2.5216    0.9557    0.2894 C   0  0  0  0  0  0  0  0  0  0  0  0
    3.8861    1.0800    0.3210 O   0  0  0  0  0  0  0  0  0  0  0  0
    4.4456    2.3592    0.5863 C   0  0  0  0  0  0  0  0  0  0  0  0
    1.9897   -0.2471   -0.2183 C   0  0  0  0  0  0  0  0  0  0  0  0
    2.8094   -1.3594   -0.7635 C   0  0  0  0  0  0  0  0  0  0  0  0
    4.2749   -1.3837   -0.9562 C   0  0  0  0  0  0  0  0  0  0  0  0
    5.1081   -1.9992   -0.0124 C   0  0  0  0  0  0  0  0  0  0  0  0
    6.4884   -2.0439   -0.2167 C   0  0  0  0  0  0  0  0  0  0  0  0
    7.0434   -1.4778   -1.3647 C   0  0  0  0  0  0  0  0  0  0  0  0
    6.2208   -0.8647   -2.3085 C   0  0  0  0  0  0  0  0  0  0  0  0
    4.8402   -0.8182   -2.1076 C   0  0  0  0  0  0  0  0  0  0  0  0
    2.1923   -2.4780   -1.1775 C   0  0  0  0  0  0  0  0  0  0  0  0
    0.7424   -2.6636   -1.1391 C   0  0  0  0  0  0  0  0  0  0  0  0
    0.2283   -3.7070   -1.5247 O   0  0  0  0  0  0  0  0  0  0  0  0
    0.0034   -1.5949   -0.6809 O   0  0  0  0  0  0  0  0  0  0  0  0
    0.5919   -0.3968   -0.2054 C   0  0  0  0  0  0  0  0  0  0  0  0
   -3.2512    2.3641   -0.5353 C   0  0  0  0  0  0  0  0  0  0  0  0
   -3.8168    3.1342   -1.5574 C   0  0  0  0  0  0  0  0  0  0  0  0
   -4.5422    4.1268   -5.7513 H   0  0  0  0  0  0  0  0  0  0  0  0
   -4.4746    2.3865   -5.4399 H   0  0  0  0  0  0  0  0  0  0  0  0
   -2.9697    3.3873   -5.4346 H   0  0  0  0  0  0  0  0  0  0  0  0
   -2.7100    1.3526   -4.2352 H   0  0  0  0  0  0  0  0  0  0  0  0
   -1.7283    0.0158   -2.4598 H   0  0  0  0  0  0  0  0  0  0  0  0
   -2.0058   -0.6619   -0.1107 H   0  0  0  0  0  0  0  0  0  0  0  0
   -2.4110    1.4120    2.0744 H   0  0  0  0  0  0  0  0  0  0  0  0
   -3.5556    0.2162    1.5266 H   0  0  0  0  0  0  0  0  0  0  0  0
   -0.8502   -0.2770    2.8492 H   0  0  0  0  0  0  0  0  0  0  0  0
   -2.4175   -0.4566    3.6124 H   0  0  0  0  0  0  0  0  0  0  0  0
   -0.3667   -2.3042    3.6728 H   0  0  0  0  0  0  0  0  0  0  0  0
   -0.6380   -3.5947    2.5192 H   0  0  0  0  0  0  0  0  0  0  0  0
   -2.5621   -2.9053    4.8080 H   0  0  0  0  0  0  0  0  0  0  0  0
   -1.4171   -4.2465    4.7919 H   0  0  0  0  0  0  0  0  0  0  0  0
   -4.4004   -4.3576    2.0258 H   0  0  0  0  0  0  0  0  0  0  0  0
   -2.7267   -4.5177    1.4901 H   0  0  0  0  0  0  0  0  0  0  0  0
   -3.9643   -2.0403    2.8119 H   0  0  0  0  0  0  0  0  0  0  0  0
   -3.6689   -2.2043    1.0701 H   0  0  0  0  0  0  0  0  0  0  0  0
   -0.0521    4.0293   -0.3750 H   0  0  0  0  0  0  0  0  0  0  0  0
    0.4975    4.5497    1.2618 H   0  0  0  0  0  0  0  0  0  0  0  0
   -1.2094    4.6571    0.8118 H   0  0  0  0  0  0  0  0  0  0  0  0
    2.0583    2.8604    1.2038 H   0  0  0  0  0  0  0  0  0  0  0  0
    4.0516    3.1188   -0.0972 H   0  0  0  0  0  0  0  0  0  0  0  0
    5.5254    2.2920    0.4200 H   0  0  0  0  0  0  0  0  0  0  0  0
    4.2867    2.6459    1.6310 H   0  0  0  0  0  0  0  0  0  0  0  0
    4.6862   -2.4401    0.8883 H   0  0  0  0  0  0  0  0  0  0  0  0
    7.1301   -2.5203    0.5197 H   0  0  0  0  0  0  0  0  0  0  0  0
    8.1184   -1.5136   -1.5219 H   0  0  0  0  0  0  0  0  0  0  0  0
    6.6533   -0.4228   -3.2024 H   0  0  0  0  0  0  0  0  0  0  0  0
    4.2081   -0.3342   -2.8479 H   0  0  0  0  0  0  0  0  0  0  0  0
    2.7359   -3.3215   -1.5916 H   0  0  0  0  0  0  0  0  0  0  0  0
   -3.4096    2.6790    0.4924 H   0  0  0  0  0  0  0  0  0  0  0  0
   -4.4041    4.0129   -1.3032 H   0  0  0  0  0  0  0  0  0  0  0  0
  1  2  1  0
  2  3  1  0
  3  4  2  0
  4  5  1  0
  5  6  2  0
  6  7  1  0
  7  8  1  0
  8  9  1  0
  9 10  1  0
 10 11  1  0
 11 12  1  0
 12 13  1  0
 13 14  1  0
 14 15  1  0
  7 16  1  0
 16 17  2  0
 17 18  1  0
 18 19  1  0
 17 20  1  0
 20 21  2  0
 21 22  1  0
 22 23  1  0
 21 24  1  0
 24 25  1  0
 25 26  1  0
 26 27  2  0
 27 28  1  0
 28 29  2  0
 29 30  1  0
 30 31  2  0
 25 32  2  0
 32 33  1  0
 33 34  2  0
 33 35  1  0
 35 36  1  0
  6 37  1  0
 37 38  2  0
 38  3  1  0
 15 10  1  0
 36 16  1  0
 36 24  2  0
 31 26  1  0
  1 39  1  0
  1 40  1  0
  1 41  1  0
  4 42  1  0
  5 43  1  0
  7 44  1  0
  8 45  1  0
  8 46  1  0
  9 47  1  0
  9 48  1  0
 11 49  1  0
 11 50  1  0
 12 51  1  0
 12 52  1  0
 14 53  1  0
 14 54  1  0
 15 55  1  0
 15 56  1  0
 19 57  1  0
 19 58  1  0
 19 59  1  0
 20 60  1  0
 23 61  1  0
 23 62  1  0
 23 63  1  0
 27 64  1  0
 28 65  1  0
 29 66  1  0
 30 67  1  0
 31 68  1  0
 32 69  1  0
 37 70  1  0
 38 71  1  0
M  END
$$$$
