
     RDKit          3D

 43 44  0  0  0  0  0  0  0  0999 V2000
   -3.8377    3.2512    2.2802 C   0  0  0  0  0  0  0  0  0  0  0  0
   -4.0138    1.8562    2.8496 C   0  0  0  0  0  0  0  0  0  0  0  0
   -3.8314    0.8747    1.8192 O   0  0  0  0  0  0  0  0  0  0  0  0
   -2.5499    0.4744    1.5878 C   0  0  0  0  0  0  0  0  0  0  0  0
   -1.5777    0.9015    2.2068 O   0  0  0  0  0  0  0  0  0  0  0  0
   -2.4254   -0.5253    0.5171 C   0  0  0  0  0  0  0  0  0  0  0  0
   -1.1793   -1.0053    0.1283 C   0  0  0  0  0  0  0  0  0  0  0  0
    0.0440   -0.6272    0.6671 N   0  0  0  0  0  0  0  0  0  0  0  0
    1.3077   -1.0449    0.2805 C   0  0  0  0  0  0  0  0  0  0  0  0
    1.5922   -1.8371   -0.6134 O   0  0  0  0  0  0  0  0  0  0  0  0
    2.4064   -0.4095    1.1457 C   0  0  0  0  0  0  0  0  0  0  0  0
    3.6792   -0.3939    0.5007 O   0  0  0  0  0  0  0  0  0  0  0  0
    3.7819    0.5416   -0.4756 C   0  0  0  0  0  0  0  0  0  0  0  0
    2.9490    1.3971   -0.7315 O   0  0  0  0  0  0  0  0  0  0  0  0
    5.0770    0.4163   -1.1899 C   0  0  0  0  0  0  0  0  0  0  0  0
    5.9447   -0.6565   -0.9800 C   0  0  0  0  0  0  0  0  0  0  0  0
    7.1286   -0.6811   -1.6946 C   0  0  0  0  0  0  0  0  0  0  0  0
    7.4909    0.2719   -2.5800 N   0  0  0  0  0  0  0  0  0  0  0  0
    6.6285    1.2929   -2.7710 C   0  0  0  0  0  0  0  0  0  0  0  0
    5.4212    1.4097   -2.1081 C   0  0  0  0  0  0  0  0  0  0  0  0
   -1.2801   -2.1509   -1.1092 S   0  0  0  0  0  0  0  0  0  0  0  0
   -2.9773   -2.0463   -1.1880 C   0  0  0  0  0  0  0  0  0  0  0  0
   -3.7140   -2.8878   -2.1804 C   0  0  0  0  0  0  0  0  0  0  0  0
   -3.4899   -1.1427   -0.2676 C   0  0  0  0  0  0  0  0  0  0  0  0
   -4.9526   -0.8523   -0.1137 C   0  0  0  0  0  0  0  0  0  0  0  0
   -4.5209    3.4125    1.4400 H   0  0  0  0  0  0  0  0  0  0  0  0
   -4.0323    4.0092    3.0442 H   0  0  0  0  0  0  0  0  0  0  0  0
   -2.8224    3.3940    1.8967 H   0  0  0  0  0  0  0  0  0  0  0  0
   -3.3390    1.6780    3.6946 H   0  0  0  0  0  0  0  0  0  0  0  0
   -5.0356    1.7383    3.2252 H   0  0  0  0  0  0  0  0  0  0  0  0
   -0.0211    0.0763    1.4024 H   0  0  0  0  0  0  0  0  0  0  0  0
    2.1276    0.6003    1.4698 H   0  0  0  0  0  0  0  0  0  0  0  0
    2.5062   -1.0250    2.0464 H   0  0  0  0  0  0  0  0  0  0  0  0
    5.7125   -1.4598   -0.2901 H   0  0  0  0  0  0  0  0  0  0  0  0
    7.8397   -1.4938   -1.5726 H   0  0  0  0  0  0  0  0  0  0  0  0
    6.9449    2.0381   -3.4955 H   0  0  0  0  0  0  0  0  0  0  0  0
    4.7660    2.2523   -2.3039 H   0  0  0  0  0  0  0  0  0  0  0  0
   -4.2954   -2.2523   -2.8567 H   0  0  0  0  0  0  0  0  0  0  0  0
   -4.4029   -3.5642   -1.6637 H   0  0  0  0  0  0  0  0  0  0  0  0
   -3.0438   -3.4993   -2.7934 H   0  0  0  0  0  0  0  0  0  0  0  0
   -5.1571    0.2018   -0.3269 H   0  0  0  0  0  0  0  0  0  0  0  0
   -5.5648   -1.4472   -0.7982 H   0  0  0  0  0  0  0  0  0  0  0  0
   -5.2839   -1.0855    0.9033 H   0  0  0  0  0  0  0  0  0  0  0  0
  1  2  1  0
  2  3  1  0
  3  4  1  0
  4  5  2  0
  4  6  1  0
  6  7  2  0
  7  8  1  0
  8  9  1  0
  9 10  2  0
  9 11  1  0
 11 12  1  0
 12 13  1  0
 13 14  2  0
 13 15  1  0
 15 16  2  0
 16 17  1  0
 17 18  2  0
 18 19  1  0
 19 20  2  0
  7 21  1  0
 21 22  1  0
 22 23  1  0
 22 24  2  0
 24 25  1  0
 24  6  1  0
 20 15  1  0
  1 26  1  0
  1 27  1  0
  1 28  1  0
  2 29  1  0
  2 30  1  0
  8 31  1  0
 11 32  1  0
 11 33  1  0
 16 34  1  0
 17 35  1  0
 19 36  1  0
 20 37  1  0
 23 38  1  0
 23 39  1  0
 23 40  1  0
 25 41  1  0
 25 42  1  0
 25 43  1  0
M  END
$$$$
