
     RDKit          3D

 40 42  0  0  0  0  0  0  0  0999 V2000
    1.0881    1.8478    0.0408 O   0  0  0  0  0  0  0  0  0  0  0  0
    0.5562    0.7366   -0.0237 C   0  0  0  0  0  0  0  0  0  0  0  0
    1.2270   -0.4755   -0.0399 N   0  0  0  0  0  0  0  0  0  0  0  0
    2.5840   -0.6463   -0.1451 N   0  0  0  0  0  0  0  0  0  0  0  0
    3.3637    0.2163    0.4243 C   0  0  0  0  0  0  0  0  0  0  0  0
    4.8335    0.1201    0.3080 C   0  0  0  0  0  0  0  0  0  0  0  0
    5.6239    1.0840    0.9462 C   0  0  0  0  0  0  0  0  0  0  0  0
    7.0162    1.0162    0.8518 C   0  0  0  0  0  0  0  0  0  0  0  0
    7.6125   -0.0118    0.1218 C   0  0  0  0  0  0  0  0  0  0  0  0
    6.8146   -0.9625   -0.5084 C   0  0  0  0  0  0  0  0  0  0  0  0
    7.3954   -1.9461   -1.2080 F   0  0  0  0  0  0  0  0  0  0  0  0
    5.4290   -0.9088   -0.4243 C   0  0  0  0  0  0  0  0  0  0  0  0
   -0.9321    0.6398   -0.1034 C   0  0  0  0  0  0  0  0  0  0  0  0
   -1.6898    1.7559   -0.0333 C   0  0  0  0  0  0  0  0  0  0  0  0
   -1.1901    3.0305    0.1037 O   0  0  0  0  0  0  0  0  0  0  0  0
   -3.0546    1.7146   -0.0916 N   0  0  0  0  0  0  0  0  0  0  0  0
   -3.7804    0.5585   -0.2301 C   0  0  0  0  0  0  0  0  0  0  0  0
   -3.1640   -0.6343   -0.3239 C   0  0  0  0  0  0  0  0  0  0  0  0
   -1.6680   -0.6520   -0.2639 C   0  0  0  0  0  0  0  0  0  0  0  0
   -1.0564   -1.7169   -0.3491 O   0  0  0  0  0  0  0  0  0  0  0  0
   -3.8781   -1.9420   -0.4993 C   0  0  0  0  0  0  0  0  0  0  0  0
   -5.3515   -1.7674   -0.8760 C   0  0  0  0  0  0  0  0  0  0  0  0
   -6.0033   -0.6599   -0.0550 C   0  0  0  0  0  0  0  0  0  0  0  0
   -5.2854    0.6765   -0.2617 C   0  0  0  0  0  0  0  0  0  0  0  0
    0.6882   -1.3180   -0.2677 H   0  0  0  0  0  0  0  0  0  0  0  0
    2.9873    1.0437    1.0487 H   0  0  0  0  0  0  0  0  0  0  0  0
    5.1666    1.8905    1.5147 H   0  0  0  0  0  0  0  0  0  0  0  0
    7.6339    1.7629    1.3448 H   0  0  0  0  0  0  0  0  0  0  0  0
    8.6928   -0.0791    0.0379 H   0  0  0  0  0  0  0  0  0  0  0  0
    4.8325   -1.6637   -0.9269 H   0  0  0  0  0  0  0  0  0  0  0  0
   -0.2076    2.9767    0.1035 H   0  0  0  0  0  0  0  0  0  0  0  0
   -3.5284    2.6104   -0.0287 H   0  0  0  0  0  0  0  0  0  0  0  0
   -3.8089   -2.5054    0.4396 H   0  0  0  0  0  0  0  0  0  0  0  0
   -3.3915   -2.5445   -1.2752 H   0  0  0  0  0  0  0  0  0  0  0  0
   -5.4315   -1.5238   -1.9432 H   0  0  0  0  0  0  0  0  0  0  0  0
   -5.8849   -2.7127   -0.7249 H   0  0  0  0  0  0  0  0  0  0  0  0
   -7.0585   -0.5573   -0.3321 H   0  0  0  0  0  0  0  0  0  0  0  0
   -5.9776   -0.9310    1.0082 H   0  0  0  0  0  0  0  0  0  0  0  0
   -5.5792    1.1011   -1.2300 H   0  0  0  0  0  0  0  0  0  0  0  0
   -5.6236    1.3768    0.5118 H   0  0  0  0  0  0  0  0  0  0  0  0
  1  2  2  0
  2  3  1  0
  3  4  1  0
  4  5  2  3
  5  6  1  0
  6  7  2  0
  7  8  1  0
  8  9  2  0
  9 10  1  0
 10 11  1  0
 10 12  2  0
  2 13  1  0
 13 14  2  0
 14 15  1  0
 14 16  1  0
 16 17  1  0
 17 18  2  0
 18 19  1  0
 19 20  2  0
 18 21  1  0
 21 22  1  0
 22 23  1  0
 23 24  1  0
 12  6  1  0
 19 13  1  0
 24 17  1  0
  3 25  1  0
  5 26  1  0
  7 27  1  0
  8 28  1  0
  9 29  1  0
 12 30  1  0
 15 31  1  0
 16 32  1  0
 21 33  1  0
 21 34  1  0
 22 35  1  0
 22 36  1  0
 23 37  1  0
 23 38  1  0
 24 39  1  0
 24 40  1  0
M  END
$$$$
