
     RDKit          3D

 70 75  0  0  0  0  0  0  0  0999 V2000
   -1.2782   -3.0047   -6.2056 C   0  0  0  0  0  0  0  0  0  0  0  0
   -1.2679   -2.0572   -5.0442 C   0  0  0  0  0  0  0  0  0  0  0  0
   -1.0037   -2.5208   -3.7532 C   0  0  0  0  0  0  0  0  0  0  0  0
   -0.9546   -1.6334   -2.6729 C   0  0  0  0  0  0  0  0  0  0  0  0
   -1.1684   -0.2613   -2.8565 C   0  0  0  0  0  0  0  0  0  0  0  0
   -1.0694    0.7460   -1.7236 C   0  0  0  0  0  0  0  0  0  0  0  0
   -1.7137    0.3408   -0.4768 N   0  0  0  0  0  0  0  0  0  0  0  0
   -3.0818    0.6251   -0.3586 C   0  0  0  0  0  0  0  0  0  0  0  0
   -3.7118    1.2750   -1.1986 O   0  0  0  0  0  0  0  0  0  0  0  0
   -3.7706    0.1916    0.9434 C   0  0  0  0  0  0  0  0  0  0  0  0
   -3.6777    1.3321    1.9726 C   0  0  0  0  0  0  0  0  0  0  0  0
   -4.5474    1.0993    3.1874 C   0  0  0  0  0  0  0  0  0  0  0  0
   -4.0032    0.5612    4.3616 C   0  0  0  0  0  0  0  0  0  0  0  0
   -4.8153    0.3223    5.4716 C   0  0  0  0  0  0  0  0  0  0  0  0
   -6.1762    0.6180    5.4179 C   0  0  0  0  0  0  0  0  0  0  0  0
   -6.7269    1.1523    4.2549 C   0  0  0  0  0  0  0  0  0  0  0  0
   -5.9177    1.3915    3.1427 C   0  0  0  0  0  0  0  0  0  0  0  0
   -3.2194   -1.0661    1.4433 N   0  0  0  0  0  0  0  0  0  0  0  0
   -1.8314   -1.1243    1.4818 C   0  0  0  0  0  0  0  0  0  0  0  0
   -1.3377   -1.9087    2.4504 N   0  0  0  0  0  0  0  0  0  0  0  0
   -0.0155   -2.0641    2.4566 C   0  0  0  0  0  0  0  0  0  0  0  0
    0.8450   -1.4876    1.6140 N   0  0  0  0  0  0  0  0  0  0  0  0
    0.3331   -0.6725    0.6642 C   0  0  0  0  0  0  0  0  0  0  0  0
    1.2717    0.0026   -0.1412 N   0  0  0  0  0  0  0  0  0  0  0  0
    2.3230   -0.9049   -0.6694 C   0  0  0  0  0  0  0  0  0  0  0  0
    3.6711   -0.7981    0.0774 C   0  0  0  0  0  0  0  0  0  0  0  0
    4.1756    0.5893    0.0755 N   0  0  0  0  0  0  0  0  0  0  0  0
    5.5312    0.8722    0.1050 C   0  0  0  0  0  0  0  0  0  0  0  0
    6.0408    2.1115   -0.3184 C   0  0  0  0  0  0  0  0  0  0  0  0
    7.4122    2.4006   -0.2954 C   0  0  0  0  0  0  0  0  0  0  0  0
    8.3180    1.4504    0.1584 C   0  0  0  0  0  0  0  0  0  0  0  0
    7.8480    0.2152    0.5885 C   0  0  0  0  0  0  0  0  0  0  0  0
    6.4746   -0.0640    0.5605 C   0  0  0  0  0  0  0  0  0  0  0  0
    3.1592    1.6547    0.0134 C   0  0  0  0  0  0  0  0  0  0  0  0
    1.8120    1.1737    0.5984 C   0  0  0  0  0  0  0  0  0  0  0  0
   -1.0484   -0.4577    0.5291 C   0  0  0  0  0  0  0  0  0  0  0  0
   -1.4121    0.1980   -4.1605 C   0  0  0  0  0  0  0  0  0  0  0  0
   -1.4601   -0.6876   -5.2413 C   0  0  0  0  0  0  0  0  0  0  0  0
   -1.6541   -3.9885   -5.9042 H   0  0  0  0  0  0  0  0  0  0  0  0
   -0.2644   -3.1203   -6.6002 H   0  0  0  0  0  0  0  0  0  0  0  0
   -1.9289   -2.6384   -7.0063 H   0  0  0  0  0  0  0  0  0  0  0  0
   -0.8316   -3.5802   -3.5749 H   0  0  0  0  0  0  0  0  0  0  0  0
   -0.7441   -2.0400   -1.6893 H   0  0  0  0  0  0  0  0  0  0  0  0
   -1.5655    1.6692   -2.0533 H   0  0  0  0  0  0  0  0  0  0  0  0
   -0.0368    1.0610   -1.5945 H   0  0  0  0  0  0  0  0  0  0  0  0
   -4.8211   -0.0005    0.6903 H   0  0  0  0  0  0  0  0  0  0  0  0
   -2.6408    1.4946    2.2942 H   0  0  0  0  0  0  0  0  0  0  0  0
   -3.9814    2.2806    1.5086 H   0  0  0  0  0  0  0  0  0  0  0  0
   -2.9434    0.3181    4.4183 H   0  0  0  0  0  0  0  0  0  0  0  0
   -4.3863   -0.0964    6.3778 H   0  0  0  0  0  0  0  0  0  0  0  0
   -6.8083    0.4300    6.2825 H   0  0  0  0  0  0  0  0  0  0  0  0
   -7.7888    1.3819    4.2142 H   0  0  0  0  0  0  0  0  0  0  0  0
   -6.3646    1.8075    2.2421 H   0  0  0  0  0  0  0  0  0  0  0  0
   -3.6162   -1.4334    2.3032 H   0  0  0  0  0  0  0  0  0  0  0  0
    0.4007   -2.7166    3.2149 H   0  0  0  0  0  0  0  0  0  0  0  0
    1.9888   -1.9496   -0.6996 H   0  0  0  0  0  0  0  0  0  0  0  0
    2.4870   -0.6166   -1.7158 H   0  0  0  0  0  0  0  0  0  0  0  0
    4.3731   -1.4685   -0.4328 H   0  0  0  0  0  0  0  0  0  0  0  0
    3.5652   -1.1401    1.1128 H   0  0  0  0  0  0  0  0  0  0  0  0
    5.3753    2.8791   -0.7038 H   0  0  0  0  0  0  0  0  0  0  0  0
    7.7662    3.3695   -0.6392 H   0  0  0  0  0  0  0  0  0  0  0  0
    9.3820    1.6704    0.1783 H   0  0  0  0  0  0  0  0  0  0  0  0
    8.5443   -0.5358    0.9520 H   0  0  0  0  0  0  0  0  0  0  0  0
    6.1541   -1.0350    0.9294 H   0  0  0  0  0  0  0  0  0  0  0  0
    3.0222    1.9651   -1.0294 H   0  0  0  0  0  0  0  0  0  0  0  0
    3.4762    2.5292    0.5947 H   0  0  0  0  0  0  0  0  0  0  0  0
    1.0859    1.9938    0.5435 H   0  0  0  0  0  0  0  0  0  0  0  0
    1.9662    0.9389    1.6609 H   0  0  0  0  0  0  0  0  0  0  0  0
   -1.5687    1.2582   -4.3476 H   0  0  0  0  0  0  0  0  0  0  0  0
   -1.6481   -0.2975   -6.2386 H   0  0  0  0  0  0  0  0  0  0  0  0
  1  2  1  0
  2  3  2  0
  3  4  1  0
  4  5  2  0
  5  6  1  0
  6  7  1  0
  7  8  1  0
  8  9  2  0
  8 10  1  0
 10 11  1  0
 11 12  1  0
 12 13  2  0
 13 14  1  0
 14 15  2  0
 15 16  1  0
 16 17  2  0
 10 18  1  0
 18 19  1  0
 19 20  2  0
 20 21  1  0
 21 22  2  0
 22 23  1  0
 23 24  1  0
 24 25  1  0
 25 26  1  0
 26 27  1  0
 27 28  1  0
 28 29  2  0
 29 30  1  0
 30 31  2  0
 31 32  1  0
 32 33  2  0
 27 34  1  0
 34 35  1  0
 23 36  2  0
  5 37  1  0
 37 38  2  0
 38  2  1  0
 36  7  1  0
 17 12  1  0
 36 19  1  0
 35 24  1  0
 33 28  1  0
  1 39  1  0
  1 40  1  0
  1 41  1  0
  3 42  1  0
  4 43  1  0
  6 44  1  0
  6 45  1  0
 10 46  1  0
 11 47  1  0
 11 48  1  0
 13 49  1  0
 14 50  1  0
 15 51  1  0
 16 52  1  0
 17 53  1  0
 18 54  1  0
 21 55  1  0
 25 56  1  0
 25 57  1  0
 26 58  1  0
 26 59  1  0
 29 60  1  0
 30 61  1  0
 31 62  1  0
 32 63  1  0
 33 64  1  0
 34 65  1  0
 34 66  1  0
 35 67  1  0
 35 68  1  0
 37 69  1  0
 38 70  1  0
M  END
$$$$
