
     RDKit          3D

 55 57  0  0  0  0  0  0  0  0999 V2000
    9.1682   -0.7201    0.6662 C   0  0  0  0  0  0  0  0  0  0  0  0
    7.8745   -0.1780    0.0857 C   0  0  0  0  0  0  0  0  0  0  0  0
    6.7963   -0.6815    0.8706 O   0  0  0  0  0  0  0  0  0  0  0  0
    5.5239   -0.3066    0.5315 C   0  0  0  0  0  0  0  0  0  0  0  0
    5.2013    0.5216   -0.5450 C   0  0  0  0  0  0  0  0  0  0  0  0
    3.8654    0.8428   -0.8154 C   0  0  0  0  0  0  0  0  0  0  0  0
    2.8266    0.3427   -0.0174 C   0  0  0  0  0  0  0  0  0  0  0  0
    1.4229    0.7196   -0.3759 C   0  0  0  0  0  0  0  0  0  0  0  0
    1.2482    1.5939   -1.2236 O   0  0  0  0  0  0  0  0  0  0  0  0
    0.2596    0.0339    0.3034 C   0  0  0  0  0  0  0  0  0  0  0  0
   -0.1374    0.7621    1.5485 C   0  0  0  0  0  0  0  0  0  0  0  0
    0.4903    0.7864    2.5913 O   0  0  0  0  0  0  0  0  0  0  0  0
   -1.4467    1.5032    1.3196 C   0  0  0  0  0  0  0  0  0  0  0  0
   -1.9538    2.2730    2.1056 O   0  0  0  0  0  0  0  0  0  0  0  0
   -1.8882    1.1151    0.0819 N   0  0  0  0  0  0  0  0  0  0  0  0
   -3.0732    1.6688   -0.5635 C   0  0  0  0  0  0  0  0  0  0  0  0
   -4.3894    1.0749   -0.0253 C   0  0  0  0  0  0  0  0  0  0  0  0
   -5.5924    1.5842   -0.7150 N   0  0  0  0  0  0  0  0  0  0  0  0
   -5.8494    2.9892   -0.3857 C   0  0  0  0  0  0  0  0  0  0  0  0
   -6.7569    0.7746   -0.3420 C   0  0  0  0  0  0  0  0  0  0  0  0
   -1.0351    0.1147   -0.5421 C   0  0  0  0  0  0  0  0  0  0  0  0
   -1.7229   -1.2406   -0.6319 C   0  0  0  0  0  0  0  0  0  0  0  0
   -2.2087   -1.9083    0.5061 C   0  0  0  0  0  0  0  0  0  0  0  0
   -2.8245   -3.1559    0.3901 C   0  0  0  0  0  0  0  0  0  0  0  0
   -2.9633   -3.7534   -0.8599 C   0  0  0  0  0  0  0  0  0  0  0  0
   -2.4891   -3.1039   -1.9967 C   0  0  0  0  0  0  0  0  0  0  0  0
   -1.8730   -1.8563   -1.8849 C   0  0  0  0  0  0  0  0  0  0  0  0
    3.1442   -0.4780    1.0668 C   0  0  0  0  0  0  0  0  0  0  0  0
    4.4818   -0.7998    1.3337 C   0  0  0  0  0  0  0  0  0  0  0  0
    4.8036   -1.8321    2.6860 Cl  0  0  0  0  0  0  0  0  0  0  0  0
   10.0304   -0.3647    0.0956 H   0  0  0  0  0  0  0  0  0  0  0  0
    9.2823   -0.4092    1.7098 H   0  0  0  0  0  0  0  0  0  0  0  0
    9.1656   -1.8150    0.6586 H   0  0  0  0  0  0  0  0  0  0  0  0
    7.8957    0.9171    0.1255 H   0  0  0  0  0  0  0  0  0  0  0  0
    7.7786   -0.5165   -0.9519 H   0  0  0  0  0  0  0  0  0  0  0  0
    5.9622    0.9383   -1.1979 H   0  0  0  0  0  0  0  0  0  0  0  0
    3.6444    1.4928   -1.6620 H   0  0  0  0  0  0  0  0  0  0  0  0
    0.5122   -1.0072    0.5242 H   0  0  0  0  0  0  0  0  0  0  0  0
   -2.9881    1.5132   -1.6448 H   0  0  0  0  0  0  0  0  0  0  0  0
   -3.0506    2.7483   -0.3790 H   0  0  0  0  0  0  0  0  0  0  0  0
   -4.4621    1.2368    1.0582 H   0  0  0  0  0  0  0  0  0  0  0  0
   -4.3416   -0.0104   -0.1706 H   0  0  0  0  0  0  0  0  0  0  0  0
   -5.9618    3.1479    0.6928 H   0  0  0  0  0  0  0  0  0  0  0  0
   -6.7639    3.3373   -0.8798 H   0  0  0  0  0  0  0  0  0  0  0  0
   -5.0457    3.6356   -0.7515 H   0  0  0  0  0  0  0  0  0  0  0  0
   -6.9593    0.8119    0.7347 H   0  0  0  0  0  0  0  0  0  0  0  0
   -7.6512    1.1178   -0.8743 H   0  0  0  0  0  0  0  0  0  0  0  0
   -6.6073   -0.2721   -0.6301 H   0  0  0  0  0  0  0  0  0  0  0  0
   -0.8267    0.4659   -1.5598 H   0  0  0  0  0  0  0  0  0  0  0  0
   -2.1298   -1.4651    1.4961 H   0  0  0  0  0  0  0  0  0  0  0  0
   -3.2020   -3.6604    1.2764 H   0  0  0  0  0  0  0  0  0  0  0  0
   -3.4463   -4.7232   -0.9490 H   0  0  0  0  0  0  0  0  0  0  0  0
   -2.6032   -3.5680   -2.9734 H   0  0  0  0  0  0  0  0  0  0  0  0
   -1.5163   -1.3681   -2.7902 H   0  0  0  0  0  0  0  0  0  0  0  0
    2.3814   -0.8691    1.7334 H   0  0  0  0  0  0  0  0  0  0  0  0
  1  2  1  0
  2  3  1  0
  3  4  1  0
  4  5  2  0
  5  6  1  0
  6  7  2  0
  7  8  1  0
  8  9  2  0
  8 10  1  0
 10 11  1  0
 11 12  2  0
 11 13  1  0
 13 14  2  0
 13 15  1  0
 15 16  1  0
 16 17  1  0
 17 18  1  0
 18 19  1  0
 18 20  1  0
 15 21  1  0
 21 22  1  0
 22 23  2  0
 23 24  1  0
 24 25  2  0
 25 26  1  0
 26 27  2  0
  7 28  1  0
 28 29  2  0
 29 30  1  0
 29  4  1  0
 21 10  1  0
 27 22  1  0
  1 31  1  0
  1 32  1  0
  1 33  1  0
  2 34  1  0
  2 35  1  0
  5 36  1  0
  6 37  1  0
 10 38  1  0
 16 39  1  0
 16 40  1  0
 17 41  1  0
 17 42  1  0
 19 43  1  0
 19 44  1  0
 19 45  1  0
 20 46  1  0
 20 47  1  0
 20 48  1  0
 21 49  1  0
 23 50  1  0
 24 51  1  0
 25 52  1  0
 26 53  1  0
 27 54  1  0
 28 55  1  0
M  END
$$$$
