
     RDKit          3D

 38 40  0  0  0  0  0  0  0  0999 V2000
   -4.8964    0.8816   -1.9147 C   0  0  0  0  0  0  0  0  0  0  0  0
   -3.8768    0.1215   -1.1200 C   0  0  0  0  0  0  0  0  0  0  0  0
   -3.6811   -1.2458   -1.3400 C   0  0  0  0  0  0  0  0  0  0  0  0
   -2.7514   -1.9610   -0.5805 C   0  0  0  0  0  0  0  0  0  0  0  0
   -2.0054   -1.3251    0.4223 C   0  0  0  0  0  0  0  0  0  0  0  0
   -1.0109   -2.1086    1.2454 C   0  0  0  0  0  0  0  0  0  0  0  0
    0.3486   -1.6877    0.7878 C   0  0  0  0  0  0  0  0  0  0  0  0
    0.9820   -2.0861   -0.4292 C   0  0  0  0  0  0  0  0  0  0  0  0
    2.2223   -1.4929   -0.4832 C   0  0  0  0  0  0  0  0  0  0  0  0
    3.1748   -1.5441   -1.4061 O   0  0  0  0  0  0  0  0  0  0  0  0
    2.3740   -0.7425    0.6583 N   0  0  0  0  0  0  0  0  0  0  0  0
    3.5512    0.0508    0.9927 C   0  0  0  0  0  0  0  0  0  0  0  0
    3.4093    1.4688    0.5668 C   0  0  0  0  0  0  0  0  0  0  0  0
    2.6871    2.1182   -0.4164 C   0  0  0  0  0  0  0  0  0  0  0  0
    3.0043    3.4931   -0.3101 C   0  0  0  0  0  0  0  0  0  0  0  0
    3.9033    3.5989    0.7239 C   0  0  0  0  0  0  0  0  0  0  0  0
    4.1599    2.3784    1.2591 O   0  0  0  0  0  0  0  0  0  0  0  0
    1.2545   -0.8728    1.4500 C   0  0  0  0  0  0  0  0  0  0  0  0
    1.1891   -0.2531    2.6232 O   0  0  0  0  0  0  0  0  0  0  0  0
   -2.2175    0.0430    0.6501 C   0  0  0  0  0  0  0  0  0  0  0  0
   -3.1462    0.7574   -0.1110 C   0  0  0  0  0  0  0  0  0  0  0  0
   -4.6073    1.9327   -2.0187 H   0  0  0  0  0  0  0  0  0  0  0  0
   -4.9903    0.4699   -2.9250 H   0  0  0  0  0  0  0  0  0  0  0  0
   -5.8709    0.8302   -1.4195 H   0  0  0  0  0  0  0  0  0  0  0  0
   -4.2510   -1.7644   -2.1077 H   0  0  0  0  0  0  0  0  0  0  0  0
   -2.6149   -3.0218   -0.7781 H   0  0  0  0  0  0  0  0  0  0  0  0
   -1.1408   -3.1877    1.1013 H   0  0  0  0  0  0  0  0  0  0  0  0
   -1.1687   -1.9092    2.3109 H   0  0  0  0  0  0  0  0  0  0  0  0
    0.5570   -2.7329   -1.1853 H   0  0  0  0  0  0  0  0  0  0  0  0
    2.8448   -2.1086   -2.1277 H   0  0  0  0  0  0  0  0  0  0  0  0
    4.4212   -0.4064    0.5094 H   0  0  0  0  0  0  0  0  0  0  0  0
    3.7045   -0.0222    2.0752 H   0  0  0  0  0  0  0  0  0  0  0  0
    2.0120    1.6495   -1.1198 H   0  0  0  0  0  0  0  0  0  0  0  0
    2.6254    4.3057   -0.9131 H   0  0  0  0  0  0  0  0  0  0  0  0
    4.4283    4.4272    1.1784 H   0  0  0  0  0  0  0  0  0  0  0  0
    0.3185   -0.4381    3.0130 H   0  0  0  0  0  0  0  0  0  0  0  0
   -1.6521    0.5668    1.4174 H   0  0  0  0  0  0  0  0  0  0  0  0
   -3.2904    1.8170    0.0873 H   0  0  0  0  0  0  0  0  0  0  0  0
  1  2  1  0
  2  3  2  0
  3  4  1  0
  4  5  2  0
  5  6  1  0
  6  7  1  0
  7  8  1  0
  8  9  2  0
  9 10  1  0
  9 11  1  0
 11 12  1  0
 12 13  1  0
 13 14  2  0
 14 15  1  0
 15 16  2  0
 16 17  1  0
 11 18  1  0
 18 19  1  0
  5 20  1  0
 20 21  2  0
 21  2  1  0
 18  7  2  0
 17 13  1  0
  1 22  1  0
  1 23  1  0
  1 24  1  0
  3 25  1  0
  4 26  1  0
  6 27  1  0
  6 28  1  0
  8 29  1  0
 10 30  1  0
 12 31  1  0
 12 32  1  0
 14 33  1  0
 15 34  1  0
 16 35  1  0
 19 36  1  0
 20 37  1  0
 21 38  1  0
M  END
$$$$
