
     RDKit          3D

 40 41  0  0  0  0  0  0  0  0999 V2000
    2.5977    3.5646    1.9266 O   0  0  0  0  0  0  0  0  0  0  0  0
    1.7933    3.4579    1.0174 C   0  0  0  0  0  0  0  0  0  0  0  0
    2.0598    3.9330   -0.2114 O   0  0  0  0  0  0  0  0  0  0  0  0
    0.4536    2.7874    1.1025 C   0  0  0  0  0  0  0  0  0  0  0  0
    0.6439    1.2728    1.1459 C   0  0  0  0  0  0  0  0  0  0  0  0
   -0.6094    0.5227    1.4005 N   0  0  0  0  0  0  0  0  0  0  0  0
   -1.0984    0.6564    2.7702 C   0  0  0  0  0  0  0  0  0  0  0  0
   -2.2956   -0.2040    2.9772 C   0  0  0  0  0  0  0  0  0  0  0  0
   -3.6077   -0.1226    2.5545 C   0  0  0  0  0  0  0  0  0  0  0  0
   -4.2717   -1.2520    3.0913 C   0  0  0  0  0  0  0  0  0  0  0  0
   -3.3266   -1.9472    3.8078 C   0  0  0  0  0  0  0  0  0  0  0  0
   -2.1258   -1.3173    3.7484 O   0  0  0  0  0  0  0  0  0  0  0  0
    1.2241    0.8263   -0.2090 C   0  0  0  0  0  0  0  0  0  0  0  0
    2.4150    0.6173   -0.4037 O   0  0  0  0  0  0  0  0  0  0  0  0
    0.2470    0.7492   -1.1597 O   0  0  0  0  0  0  0  0  0  0  0  0
    0.6648    0.3546   -2.4749 C   0  0  0  0  0  0  0  0  0  0  0  0
    0.2204   -1.0800   -2.7852 C   0  0  0  0  0  0  0  0  0  0  0  0
    0.8996   -2.1484   -1.9397 C   0  0  0  0  0  0  0  0  0  0  0  0
    2.1240   -2.4789   -2.7550 C   0  0  0  0  0  0  0  0  0  0  0  0
    1.5931   -2.3755   -4.1673 C   0  0  0  0  0  0  0  0  0  0  0  0
    0.5602   -1.3785   -4.1548 O   0  0  0  0  0  0  0  0  0  0  0  0
    2.9743    4.2837   -0.1479 H   0  0  0  0  0  0  0  0  0  0  0  0
   -0.0335    3.1728    2.0043 H   0  0  0  0  0  0  0  0  0  0  0  0
   -0.1676    3.0986    0.2539 H   0  0  0  0  0  0  0  0  0  0  0  0
    1.3840    0.9845    1.9036 H   0  0  0  0  0  0  0  0  0  0  0  0
   -1.3279    0.8041    0.7343 H   0  0  0  0  0  0  0  0  0  0  0  0
   -0.3159    0.3661    3.4810 H   0  0  0  0  0  0  0  0  0  0  0  0
   -1.3780    1.6925    2.9887 H   0  0  0  0  0  0  0  0  0  0  0  0
   -4.0302    0.6543    1.9335 H   0  0  0  0  0  0  0  0  0  0  0  0
   -5.3097   -1.5277    2.9708 H   0  0  0  0  0  0  0  0  0  0  0  0
   -3.3461   -2.8598    4.3870 H   0  0  0  0  0  0  0  0  0  0  0  0
    0.1797    1.0383   -3.1816 H   0  0  0  0  0  0  0  0  0  0  0  0
    1.7406    0.4878   -2.6398 H   0  0  0  0  0  0  0  0  0  0  0  0
   -0.8671   -1.1491   -2.6684 H   0  0  0  0  0  0  0  0  0  0  0  0
    0.2550   -3.0351   -1.8897 H   0  0  0  0  0  0  0  0  0  0  0  0
    1.1242   -1.8487   -0.9143 H   0  0  0  0  0  0  0  0  0  0  0  0
    2.5484   -3.4612   -2.5312 H   0  0  0  0  0  0  0  0  0  0  0  0
    2.9014   -1.7246   -2.5877 H   0  0  0  0  0  0  0  0  0  0  0  0
    2.3665   -2.0951   -4.8877 H   0  0  0  0  0  0  0  0  0  0  0  0
    1.1405   -3.3191   -4.4903 H   0  0  0  0  0  0  0  0  0  0  0  0
  1  2  2  0
  2  3  1  0
  2  4  1  0
  4  5  1  0
  5  6  1  0
  6  7  1  0
  7  8  1  0
  8  9  2  0
  9 10  1  0
 10 11  2  0
 11 12  1  0
  5 13  1  0
 13 14  2  0
 13 15  1  0
 15 16  1  0
 16 17  1  0
 17 18  1  0
 18 19  1  0
 19 20  1  0
 20 21  1  0
 12  8  1  0
 21 17  1  0
  3 22  1  0
  4 23  1  0
  4 24  1  0
  5 25  1  0
  6 26  1  0
  7 27  1  0
  7 28  1  0
  9 29  1  0
 10 30  1  0
 11 31  1  0
 16 32  1  0
 16 33  1  0
 17 34  1  0
 18 35  1  0
 18 36  1  0
 19 37  1  0
 19 38  1  0
 20 39  1  0
 20 40  1  0
M  END
$$$$
