
     RDKit          3D

 44 46  0  0  0  0  0  0  0  0999 V2000
    7.0609   -0.3381   -0.2769 C   0  0  0  0  0  0  0  0  0  0  0  0
    6.3484    0.3529    0.7413 O   0  0  0  0  0  0  0  0  0  0  0  0
    5.3897    1.2771    0.2315 C   0  0  0  0  0  0  0  0  0  0  0  0
    4.1118    0.5911   -0.2418 C   0  0  0  0  0  0  0  0  0  0  0  0
    3.4830   -0.2617    0.8650 C   0  0  0  0  0  0  0  0  0  0  0  0
    2.2001   -0.8457    0.4379 N   0  0  0  0  0  0  0  0  0  0  0  0
    2.1284   -2.1029   -0.1612 C   0  0  0  0  0  0  0  0  0  0  0  0
    3.4024   -3.1433   -0.4960 S   0  0  0  0  0  0  0  0  0  0  0  0
    0.8840   -2.5464   -0.5208 N   0  0  0  0  0  0  0  0  0  0  0  0
   -0.2876   -1.8205   -0.3307 C   0  0  0  0  0  0  0  0  0  0  0  0
   -1.5129   -2.3588   -0.7058 C   0  0  0  0  0  0  0  0  0  0  0  0
   -2.6864   -1.6174   -0.5113 C   0  0  0  0  0  0  0  0  0  0  0  0
   -2.6635   -0.3281    0.0461 C   0  0  0  0  0  0  0  0  0  0  0  0
   -3.8173    0.4364    0.2705 N   0  0  0  0  0  0  0  0  0  0  0  0
   -5.1374   -0.2198    0.1442 C   0  0  0  0  0  0  0  0  0  0  0  0
   -6.2427    0.7161    0.6579 C   0  0  0  0  0  0  0  0  0  0  0  0
   -6.2355    1.9677   -0.0461 O   0  0  0  0  0  0  0  0  0  0  0  0
   -4.9734    2.6266    0.1442 C   0  0  0  0  0  0  0  0  0  0  0  0
   -3.8030    1.7748   -0.3753 C   0  0  0  0  0  0  0  0  0  0  0  0
   -1.4088    0.1784    0.4262 C   0  0  0  0  0  0  0  0  0  0  0  0
   -0.2331   -0.5596    0.2335 C   0  0  0  0  0  0  0  0  0  0  0  0
    1.0805   -0.0165    0.6216 C   0  0  0  0  0  0  0  0  0  0  0  0
    1.1403    1.1297    1.0640 O   0  0  0  0  0  0  0  0  0  0  0  0
    7.5808    0.3689   -0.9303 H   0  0  0  0  0  0  0  0  0  0  0  0
    7.8060   -0.9783    0.2033 H   0  0  0  0  0  0  0  0  0  0  0  0
    6.3914   -0.9724   -0.8632 H   0  0  0  0  0  0  0  0  0  0  0  0
    5.1469    1.9661    1.0481 H   0  0  0  0  0  0  0  0  0  0  0  0
    5.8309    1.8779   -0.5723 H   0  0  0  0  0  0  0  0  0  0  0  0
    4.3222   -0.0387   -1.1129 H   0  0  0  0  0  0  0  0  0  0  0  0
    3.4033    1.3571   -0.5786 H   0  0  0  0  0  0  0  0  0  0  0  0
    3.3112    0.3597    1.7528 H   0  0  0  0  0  0  0  0  0  0  0  0
    4.1686   -1.0534    1.1814 H   0  0  0  0  0  0  0  0  0  0  0  0
    0.8400   -3.4676   -0.9424 H   0  0  0  0  0  0  0  0  0  0  0  0
   -1.5790   -3.3488   -1.1484 H   0  0  0  0  0  0  0  0  0  0  0  0
   -3.6210   -2.0738   -0.8249 H   0  0  0  0  0  0  0  0  0  0  0  0
   -5.1683   -1.1452    0.7308 H   0  0  0  0  0  0  0  0  0  0  0  0
   -5.3314   -0.4551   -0.9099 H   0  0  0  0  0  0  0  0  0  0  0  0
   -7.2224    0.2538    0.5015 H   0  0  0  0  0  0  0  0  0  0  0  0
   -6.1307    0.9084    1.7318 H   0  0  0  0  0  0  0  0  0  0  0  0
   -5.0106    3.5757   -0.3998 H   0  0  0  0  0  0  0  0  0  0  0  0
   -4.8487    2.8568    1.2091 H   0  0  0  0  0  0  0  0  0  0  0  0
   -3.9020    1.6442   -1.4606 H   0  0  0  0  0  0  0  0  0  0  0  0
   -2.8746    2.3212   -0.1806 H   0  0  0  0  0  0  0  0  0  0  0  0
   -1.3407    1.1513    0.9083 H   0  0  0  0  0  0  0  0  0  0  0  0
  1  2  1  0
  2  3  1  0
  3  4  1  0
  4  5  1  0
  5  6  1  0
  6  7  1  0
  7  8  2  0
  7  9  1  0
  9 10  1  0
 10 11  2  0
 11 12  1  0
 12 13  2  0
 13 14  1  0
 14 15  1  0
 15 16  1  0
 16 17  1  0
 17 18  1  0
 18 19  1  0
 13 20  1  0
 20 21  2  0
 21 22  1  0
 22 23  2  0
 22  6  1  0
 21 10  1  0
 19 14  1  0
  1 24  1  0
  1 25  1  0
  1 26  1  0
  3 27  1  0
  3 28  1  0
  4 29  1  0
  4 30  1  0
  5 31  1  0
  5 32  1  0
  9 33  1  0
 11 34  1  0
 12 35  1  0
 15 36  1  0
 15 37  1  0
 16 38  1  0
 16 39  1  0
 18 40  1  0
 18 41  1  0
 19 42  1  0
 19 43  1  0
 20 44  1  0
M  END
$$$$
