
     RDKit          3D

 68 71  0  0  0  0  0  0  0  0999 V2000
    7.3556    1.0359   -6.5977 C   0  0  0  0  0  0  0  0  0  0  0  0
    7.0220    0.0171   -5.6635 O   0  0  0  0  0  0  0  0  0  0  0  0
    5.7983    0.1075   -5.0602 C   0  0  0  0  0  0  0  0  0  0  0  0
    4.8404    1.0953   -5.2885 C   0  0  0  0  0  0  0  0  0  0  0  0
    3.6215    1.0664   -4.6003 C   0  0  0  0  0  0  0  0  0  0  0  0
    3.3526    0.0541   -3.6737 C   0  0  0  0  0  0  0  0  0  0  0  0
    2.0644    0.0440   -2.9724 C   0  0  0  0  0  0  0  0  0  0  0  0
    1.8931    0.2470   -1.6505 C   0  0  0  0  0  0  0  0  0  0  0  0
    2.9783    0.4934   -0.7656 C   0  0  0  0  0  0  0  0  0  0  0  0
    3.8325    0.6890   -0.0043 N   0  0  0  0  0  0  0  0  0  0  0  0
    0.4829    0.2036   -1.1273 C   0  0  0  0  0  0  0  0  0  0  0  0
   -0.4265   -0.2060   -1.8447 O   0  0  0  0  0  0  0  0  0  0  0  0
    0.3290    0.6387    0.1690 N   0  0  0  0  0  0  0  0  0  0  0  0
   -0.8584    0.7368    0.9293 C   0  0  0  0  0  0  0  0  0  0  0  0
   -2.1342    0.4541    0.4440 C   0  0  0  0  0  0  0  0  0  0  0  0
   -3.2332    0.5953    1.2970 C   0  0  0  0  0  0  0  0  0  0  0  0
   -4.8721    0.2585    0.6991 S   0  0  0  0  0  6  0  0  0  0  0  0
   -5.7621    1.2056    1.3389 O   0  0  0  0  0  0  0  0  0  0  0  0
   -4.8306    0.1346   -0.7419 O   0  0  0  0  0  0  0  0  0  0  0  0
   -5.1964   -1.2936    1.3447 N   0  0  0  0  0  0  0  0  0  0  0  0
   -4.2540   -2.3690    0.9198 C   0  0  0  0  0  0  0  0  0  0  0  0
   -4.7846   -3.7370    1.3310 C   0  0  0  0  0  0  0  0  0  0  0  0
   -6.1053   -4.0536    0.6334 C   0  0  0  0  0  0  0  0  0  0  0  0
   -6.8938   -2.7922    0.2898 C   0  0  0  0  0  0  0  0  0  0  0  0
   -6.6389   -1.6800    1.2975 C   0  0  0  0  0  0  0  0  0  0  0  0
   -3.0753    1.0349    2.6149 C   0  0  0  0  0  0  0  0  0  0  0  0
   -1.7994    1.3250    3.0969 C   0  0  0  0  0  0  0  0  0  0  0  0
   -0.6793    1.1805    2.2663 C   0  0  0  0  0  0  0  0  0  0  0  0
    0.6416    1.4440    2.7140 N   0  0  0  0  0  0  0  0  0  0  0  0
    1.1958    0.3061    3.4805 C   0  0  0  0  0  0  0  0  0  0  0  0
    2.3359    0.7464    4.4055 C   0  0  0  0  0  0  0  0  0  0  0  0
    3.1670    1.8654    3.7904 C   0  0  0  0  0  0  0  0  0  0  0  0
    2.3082    3.0763    3.4121 C   0  0  0  0  0  0  0  0  0  0  0  0
    0.8130    2.7559    3.3494 C   0  0  0  0  0  0  0  0  0  0  0  0
    4.3091   -0.9399   -3.4518 C   0  0  0  0  0  0  0  0  0  0  0  0
    5.5244   -0.9078   -4.1409 C   0  0  0  0  0  0  0  0  0  0  0  0
    8.3582    0.8229   -6.9808 H   0  0  0  0  0  0  0  0  0  0  0  0
    6.6665    1.0318   -7.4488 H   0  0  0  0  0  0  0  0  0  0  0  0
    7.3849    2.0190   -6.1163 H   0  0  0  0  0  0  0  0  0  0  0  0
    5.0070    1.9014   -5.9953 H   0  0  0  0  0  0  0  0  0  0  0  0
    2.8877    1.8458   -4.7953 H   0  0  0  0  0  0  0  0  0  0  0  0
    1.2063   -0.1244   -3.6222 H   0  0  0  0  0  0  0  0  0  0  0  0
    1.1289    0.9557    0.7183 H   0  0  0  0  0  0  0  0  0  0  0  0
   -2.2947    0.1347   -0.5805 H   0  0  0  0  0  0  0  0  0  0  0  0
   -4.0944   -2.3423   -0.1639 H   0  0  0  0  0  0  0  0  0  0  0  0
   -3.2906   -2.2112    1.4155 H   0  0  0  0  0  0  0  0  0  0  0  0
   -4.9358   -3.7565    2.4181 H   0  0  0  0  0  0  0  0  0  0  0  0
   -4.0498   -4.5168    1.1017 H   0  0  0  0  0  0  0  0  0  0  0  0
   -6.7020   -4.7078    1.2802 H   0  0  0  0  0  0  0  0  0  0  0  0
   -5.9186   -4.6176   -0.2882 H   0  0  0  0  0  0  0  0  0  0  0  0
   -6.6069   -2.4473   -0.7120 H   0  0  0  0  0  0  0  0  0  0  0  0
   -7.9631   -3.0281    0.2452 H   0  0  0  0  0  0  0  0  0  0  0  0
   -7.2743   -0.8228    1.0517 H   0  0  0  0  0  0  0  0  0  0  0  0
   -6.9323   -2.0006    2.3045 H   0  0  0  0  0  0  0  0  0  0  0  0
   -3.9401    1.1512    3.2652 H   0  0  0  0  0  0  0  0  0  0  0  0
   -1.6876    1.6524    4.1263 H   0  0  0  0  0  0  0  0  0  0  0  0
    1.5800   -0.4324    2.7662 H   0  0  0  0  0  0  0  0  0  0  0  0
    0.4311   -0.1956    4.0875 H   0  0  0  0  0  0  0  0  0  0  0  0
    1.9162    1.0960    5.3576 H   0  0  0  0  0  0  0  0  0  0  0  0
    2.9706   -0.1143    4.6447 H   0  0  0  0  0  0  0  0  0  0  0  0
    3.6683    1.4853    2.8921 H   0  0  0  0  0  0  0  0  0  0  0  0
    3.9606    2.1733    4.4804 H   0  0  0  0  0  0  0  0  0  0  0  0
    2.6478    3.4553    2.4400 H   0  0  0  0  0  0  0  0  0  0  0  0
    2.4676    3.8886    4.1310 H   0  0  0  0  0  0  0  0  0  0  0  0
    0.3878    2.7625    4.3612 H   0  0  0  0  0  0  0  0  0  0  0  0
    0.3096    3.5427    2.7734 H   0  0  0  0  0  0  0  0  0  0  0  0
    4.1241   -1.7496   -2.7501 H   0  0  0  0  0  0  0  0  0  0  0  0
    6.2654   -1.6834   -3.9606 H   0  0  0  0  0  0  0  0  0  0  0  0
  1  2  1  0
  2  3  1  0
  3  4  2  0
  4  5  1  0
  5  6  2  0
  6  7  1  0
  7  8  2  3
  8  9  1  0
  9 10  3  0
  8 11  1  0
 11 12  2  0
 11 13  1  0
 13 14  1  0
 14 15  2  0
 15 16  1  0
 16 17  1  0
 17 18  2  0
 17 19  2  0
 17 20  1  0
 20 21  1  0
 21 22  1  0
 22 23  1  0
 23 24  1  0
 24 25  1  0
 16 26  2  0
 26 27  1  0
 27 28  2  0
 28 29  1  0
 29 30  1  0
 30 31  1  0
 31 32  1  0
 32 33  1  0
 33 34  1  0
  6 35  1  0
 35 36  2  0
 36  3  1  0
 28 14  1  0
 34 29  1  0
 25 20  1  0
  1 37  1  0
  1 38  1  0
  1 39  1  0
  4 40  1  0
  5 41  1  0
  7 42  1  0
 13 43  1  0
 15 44  1  0
 21 45  1  0
 21 46  1  0
 22 47  1  0
 22 48  1  0
 23 49  1  0
 23 50  1  0
 24 51  1  0
 24 52  1  0
 25 53  1  0
 25 54  1  0
 26 55  1  0
 27 56  1  0
 30 57  1  0
 30 58  1  0
 31 59  1  0
 31 60  1  0
 32 61  1  0
 32 62  1  0
 33 63  1  0
 33 64  1  0
 34 65  1  0
 34 66  1  0
 35 67  1  0
 36 68  1  0
M  END
$$$$
