
     RDKit          3D

 53 56  0  0  0  0  0  0  0  0999 V2000
    0.0412    2.4146   -1.9139 C   0  0  0  0  0  0  0  0  0  0  0  0
   -0.5845    1.1175   -1.4741 C   0  0  0  0  0  0  0  0  0  0  0  0
   -0.0115   -0.1193   -1.8080 C   0  0  0  0  0  0  0  0  0  0  0  0
    1.1333   -0.0612   -2.5541 O   0  0  0  0  0  0  0  0  0  0  0  0
    1.7942   -1.2733   -2.9129 C   0  0  0  0  0  0  0  0  0  0  0  0
    2.8437   -0.9129   -3.9652 C   0  0  0  0  0  0  0  0  0  0  0  0
    2.4974   -1.9495   -1.7244 C   0  0  0  0  0  0  0  0  0  0  0  0
    2.4699   -3.1678   -1.5554 O   0  0  0  0  0  0  0  0  0  0  0  0
    3.1691   -1.0923   -0.8886 N   0  0  0  0  0  0  0  0  0  0  0  0
    3.9671   -1.5806    0.2113 C   0  0  0  0  0  0  0  0  0  0  0  0
    4.5159   -0.4409    1.0303 C   0  0  0  0  0  0  0  0  0  0  0  0
    3.8541   -0.0074    2.1753 C   0  0  0  0  0  0  0  0  0  0  0  0
    4.3714    1.0774    2.8821 C   0  0  0  0  0  0  0  0  0  0  0  0
    5.5228    1.7058    2.4251 C   0  0  0  0  0  0  0  0  0  0  0  0
    6.1118    1.2213    1.2701 C   0  0  0  0  0  0  0  0  0  0  0  0
    5.6310    0.1761    0.5623 N   0  0  0  0  0  0  0  0  0  0  0  0
   -0.6205   -1.2975   -1.3664 C   0  0  0  0  0  0  0  0  0  0  0  0
   -1.7694   -1.2576   -0.5705 C   0  0  0  0  0  0  0  0  0  0  0  0
   -2.3397   -0.0410   -0.1915 C   0  0  0  0  0  0  0  0  0  0  0  0
   -3.5325    0.0618    0.6655 C   0  0  0  0  0  0  0  0  0  0  0  0
   -4.0551    1.2764    0.9237 C   0  0  0  0  0  0  0  0  0  0  0  0
   -3.4313    2.5241    0.4199 C   0  0  0  0  0  0  0  0  0  0  0  0
   -3.9049    3.6294    0.6617 O   0  0  0  0  0  0  0  0  0  0  0  0
   -2.2722    2.3858   -0.3278 O   0  0  0  0  0  0  0  0  0  0  0  0
   -1.7336    1.1253   -0.6617 C   0  0  0  0  0  0  0  0  0  0  0  0
   -5.3030    1.4802    1.7488 C   0  0  0  0  0  0  0  0  0  0  0  0
   -6.0909    0.1949    1.9876 C   0  0  0  0  0  0  0  0  0  0  0  0
   -5.1565   -0.9474    2.3570 C   0  0  0  0  0  0  0  0  0  0  0  0
   -4.1305   -1.1990    1.2514 C   0  0  0  0  0  0  0  0  0  0  0  0
    0.6074    2.3047   -2.8413 H   0  0  0  0  0  0  0  0  0  0  0  0
   -0.7208    3.1749   -2.1151 H   0  0  0  0  0  0  0  0  0  0  0  0
    0.7142    2.7834   -1.1345 H   0  0  0  0  0  0  0  0  0  0  0  0
    1.0857   -1.9763   -3.3695 H   0  0  0  0  0  0  0  0  0  0  0  0
    2.3663   -0.4658   -4.8430 H   0  0  0  0  0  0  0  0  0  0  0  0
    3.5571   -0.1709   -3.5846 H   0  0  0  0  0  0  0  0  0  0  0  0
    3.4062   -1.7981   -4.2839 H   0  0  0  0  0  0  0  0  0  0  0  0
    3.2849   -0.1247   -1.1637 H   0  0  0  0  0  0  0  0  0  0  0  0
    3.3577   -2.2592    0.8233 H   0  0  0  0  0  0  0  0  0  0  0  0
    4.7909   -2.1764   -0.2013 H   0  0  0  0  0  0  0  0  0  0  0  0
    2.9426   -0.4894    2.5127 H   0  0  0  0  0  0  0  0  0  0  0  0
    3.8720    1.4211    3.7809 H   0  0  0  0  0  0  0  0  0  0  0  0
    5.9469    2.5498    2.9525 H   0  0  0  0  0  0  0  0  0  0  0  0
    7.0141    1.6748    0.8684 H   0  0  0  0  0  0  0  0  0  0  0  0
   -0.2291   -2.2790   -1.6096 H   0  0  0  0  0  0  0  0  0  0  0  0
   -2.1971   -2.2060   -0.2553 H   0  0  0  0  0  0  0  0  0  0  0  0
   -5.0089    1.9106    2.7154 H   0  0  0  0  0  0  0  0  0  0  0  0
   -5.9745    2.1997    1.2631 H   0  0  0  0  0  0  0  0  0  0  0  0
   -6.8253    0.3539    2.7834 H   0  0  0  0  0  0  0  0  0  0  0  0
   -6.6546   -0.0678    1.0850 H   0  0  0  0  0  0  0  0  0  0  0  0
   -5.7312   -1.8619    2.5398 H   0  0  0  0  0  0  0  0  0  0  0  0
   -4.6367   -0.7066    3.2912 H   0  0  0  0  0  0  0  0  0  0  0  0
   -3.3447   -1.8302    1.6815 H   0  0  0  0  0  0  0  0  0  0  0  0
   -4.6103   -1.7707    0.4470 H   0  0  0  0  0  0  0  0  0  0  0  0
  1  2  1  0
  2  3  2  0
  3  4  1  0
  4  5  1  0
  5  6  1  0
  5  7  1  0
  7  8  2  0
  7  9  1  0
  9 10  1  0
 10 11  1  0
 11 12  2  0
 12 13  1  0
 13 14  2  0
 14 15  1  0
 15 16  2  0
  3 17  1  0
 17 18  2  0
 18 19  1  0
 19 20  1  0
 20 21  2  0
 21 22  1  0
 22 23  2  0
 22 24  1  0
 24 25  1  0
 21 26  1  0
 26 27  1  0
 27 28  1  0
 28 29  1  0
 25  2  1  0
 16 11  1  0
 25 19  2  0
 29 20  1  0
  1 30  1  0
  1 31  1  0
  1 32  1  0
  5 33  1  0
  6 34  1  0
  6 35  1  0
  6 36  1  0
  9 37  1  0
 10 38  1  0
 10 39  1  0
 12 40  1  0
 13 41  1  0
 14 42  1  0
 15 43  1  0
 17 44  1  0
 18 45  1  0
 26 46  1  0
 26 47  1  0
 27 48  1  0
 27 49  1  0
 28 50  1  0
 28 51  1  0
 29 52  1  0
 29 53  1  0
M  END
$$$$
