
     RDKit          3D

 48 50  0  0  0  0  0  0  0  0999 V2000
    5.1911    3.0874    0.5397 C   0  0  0  0  0  0  0  0  0  0  0  0
    4.8714    1.8566    1.1782 O   0  0  0  0  0  0  0  0  0  0  0  0
    4.1166    0.9662    0.4664 C   0  0  0  0  0  0  0  0  0  0  0  0
    3.7886   -0.2020    1.1563 C   0  0  0  0  0  0  0  0  0  0  0  0
    3.0189   -1.1971    0.5496 C   0  0  0  0  0  0  0  0  0  0  0  0
    2.5573   -1.0332   -0.7592 C   0  0  0  0  0  0  0  0  0  0  0  0
    1.6893   -2.0914   -1.4027 C   0  0  0  0  0  0  0  0  0  0  0  0
    0.3369   -2.2952   -0.7263 C   0  0  0  0  0  0  0  0  0  0  0  0
   -0.0964   -3.4288   -0.5469 O   0  0  0  0  0  0  0  0  0  0  0  0
   -0.3146   -1.1093   -0.4268 N   0  0  0  0  0  0  0  0  0  0  0  0
   -1.5812   -1.0066    0.1261 C   0  0  0  0  0  0  0  0  0  0  0  0
   -2.5047   -1.9585    0.5035 C   0  0  0  0  0  0  0  0  0  0  0  0
   -3.6085   -1.2542    0.9724 C   0  0  0  0  0  0  0  0  0  0  0  0
   -3.4463    0.0603    0.9381 N   0  0  0  0  0  0  0  0  0  0  0  0
   -2.1980    0.2193    0.4162 N   0  0  0  0  0  0  0  0  0  0  0  0
   -1.6861    1.5975    0.2355 C   0  0  0  0  0  0  0  0  0  0  0  0
   -2.7300    2.6596    0.6837 C   0  0  0  0  0  0  0  0  0  0  0  0
   -1.3892    1.8799   -1.2516 C   0  0  0  0  0  0  0  0  0  0  0  0
   -0.4290    1.8262    1.1008 C   0  0  0  0  0  0  0  0  0  0  0  0
   -4.7804   -2.0010    1.4436 C   0  0  0  0  0  0  0  0  0  0  0  0
   -4.2521   -3.7832    1.3840 S   0  0  0  0  0  3  0  0  0  0  0  0
   -5.2340   -4.5659    0.2896 O   0  0  0  0  0  1  0  0  0  0  0  0
   -2.6218   -3.4238    0.5301 C   0  0  0  0  0  0  0  0  0  0  0  0
    2.8974    0.1341   -1.4545 C   0  0  0  0  0  0  0  0  0  0  0  0
    3.6718    1.1290   -0.8448 C   0  0  0  0  0  0  0  0  0  0  0  0
    4.2852    3.6546    0.3034 H   0  0  0  0  0  0  0  0  0  0  0  0
    5.8023    2.9250   -0.3560 H   0  0  0  0  0  0  0  0  0  0  0  0
    5.7810    3.6846    1.2426 H   0  0  0  0  0  0  0  0  0  0  0  0
    4.1372   -0.3366    2.1781 H   0  0  0  0  0  0  0  0  0  0  0  0
    2.7779   -2.0973    1.1171 H   0  0  0  0  0  0  0  0  0  0  0  0
    1.4967   -1.8487   -2.4556 H   0  0  0  0  0  0  0  0  0  0  0  0
    2.2342   -3.0442   -1.3891 H   0  0  0  0  0  0  0  0  0  0  0  0
    0.2025   -0.2583   -0.6055 H   0  0  0  0  0  0  0  0  0  0  0  0
   -3.6505    2.5934    0.0919 H   0  0  0  0  0  0  0  0  0  0  0  0
   -2.9992    2.5419    1.7406 H   0  0  0  0  0  0  0  0  0  0  0  0
   -2.3388    3.6749    0.5613 H   0  0  0  0  0  0  0  0  0  0  0  0
   -2.2735    1.6872   -1.8696 H   0  0  0  0  0  0  0  0  0  0  0  0
   -0.5766    1.2700   -1.6509 H   0  0  0  0  0  0  0  0  0  0  0  0
   -1.0995    2.9261   -1.4035 H   0  0  0  0  0  0  0  0  0  0  0  0
   -0.6423    1.6352    2.1604 H   0  0  0  0  0  0  0  0  0  0  0  0
   -0.0754    2.8615    1.0138 H   0  0  0  0  0  0  0  0  0  0  0  0
    0.4068    1.1809    0.8180 H   0  0  0  0  0  0  0  0  0  0  0  0
   -5.6470   -1.8784    0.7887 H   0  0  0  0  0  0  0  0  0  0  0  0
   -5.0421   -1.7663    2.4788 H   0  0  0  0  0  0  0  0  0  0  0  0
   -2.6760   -3.8612   -0.4689 H   0  0  0  0  0  0  0  0  0  0  0  0
   -1.8536   -3.9053    1.1384 H   0  0  0  0  0  0  0  0  0  0  0  0
    2.5683    0.2816   -2.4829 H   0  0  0  0  0  0  0  0  0  0  0  0
    3.9153    2.0136   -1.4235 H   0  0  0  0  0  0  0  0  0  0  0  0
  1  2  1  0
  2  3  1  0
  3  4  2  0
  4  5  1  0
  5  6  2  0
  6  7  1  0
  7  8  1  0
  8  9  2  0
  8 10  1  0
 10 11  1  0
 11 12  2  0
 12 13  1  0
 13 14  2  0
 14 15  1  0
 15 16  1  0
 16 17  1  0
 16 18  1  0
 16 19  1  0
 13 20  1  0
 20 21  1  0
 21 22  1  0
 21 23  1  0
  6 24  1  0
 24 25  2  0
 25  3  1  0
 15 11  1  0
 23 12  1  0
  1 26  1  0
  1 27  1  0
  1 28  1  0
  4 29  1  0
  5 30  1  0
  7 31  1  0
  7 32  1  0
 10 33  1  0
 17 34  1  0
 17 35  1  0
 17 36  1  0
 18 37  1  0
 18 38  1  0
 18 39  1  0
 19 40  1  0
 19 41  1  0
 19 42  1  0
 20 43  1  0
 20 44  1  0
 23 45  1  0
 23 46  1  0
 24 47  1  0
 25 48  1  0
M  CHG  2  21   1  22  -1
M  END
$$$$
