
     RDKit          3D

 51 53  0  0  0  0  0  0  0  0999 V2000
   -1.1934   -2.2123    0.8503 C   0  0  0  0  0  0  0  0  0  0  0  0
   -0.3061   -1.4048   -0.0639 C   0  0  0  0  0  0  0  0  0  0  0  0
    0.9699   -1.9156   -0.3571 C   0  0  0  0  0  0  0  0  0  0  0  0
    1.8447   -1.2247   -1.1934 C   0  0  0  0  0  0  0  0  0  0  0  0
    1.4602   -0.0079   -1.7467 C   0  0  0  0  0  0  0  0  0  0  0  0
    2.2752    0.7390   -2.6235 N   0  0  0  0  0  0  0  0  0  0  0  0
    3.6300    0.6931   -2.8571 C   0  0  0  0  0  0  0  0  0  0  0  0
    4.1752    1.3511   -4.2919 S   0  0  0  0  0  0  0  0  0  0  0  0
    4.3958    0.1802   -1.8268 N   0  0  0  0  0  0  0  0  0  0  0  0
    5.7728   -0.0186   -1.7649 C   0  0  0  0  0  0  0  0  0  0  0  0
    6.5275   -0.1389   -2.7214 O   0  0  0  0  0  0  0  0  0  0  0  0
    6.3380   -0.1512   -0.3922 C   0  0  0  0  0  0  0  0  0  0  0  0
    7.6345    0.3293   -0.1672 C   0  0  0  0  0  0  0  0  0  0  0  0
    8.2069    0.2379    1.1022 C   0  0  0  0  0  0  0  0  0  0  0  0
    7.4915   -0.3429    2.1485 C   0  0  0  0  0  0  0  0  0  0  0  0
    6.2077   -0.8414    1.9265 C   0  0  0  0  0  0  0  0  0  0  0  0
    5.6296   -0.7516    0.6577 C   0  0  0  0  0  0  0  0  0  0  0  0
    0.1720    0.4857   -1.4895 C   0  0  0  0  0  0  0  0  0  0  0  0
   -0.7188   -0.1799   -0.6383 C   0  0  0  0  0  0  0  0  0  0  0  0
   -2.0233    0.2874   -0.3376 N   0  0  0  0  0  0  0  0  0  0  0  0
   -2.7049    1.4577   -0.5798 C   0  0  0  0  0  0  0  0  0  0  0  0
   -2.1961    2.8831   -1.2853 S   0  0  0  0  0  0  0  0  0  0  0  0
   -4.0241    1.4572   -0.1408 N   0  0  0  0  0  0  0  0  0  0  0  0
   -4.7367    0.4568    0.5089 C   0  0  0  0  0  0  0  0  0  0  0  0
   -4.2730   -0.6534    0.7547 O   0  0  0  0  0  0  0  0  0  0  0  0
   -6.1388    0.7833    0.8825 C   0  0  0  0  0  0  0  0  0  0  0  0
   -7.0755   -0.2575    0.9111 C   0  0  0  0  0  0  0  0  0  0  0  0
   -8.4024    0.0027    1.2563 C   0  0  0  0  0  0  0  0  0  0  0  0
   -8.7953    1.2995    1.5842 C   0  0  0  0  0  0  0  0  0  0  0  0
   -7.8627    2.3367    1.5760 C   0  0  0  0  0  0  0  0  0  0  0  0
   -6.5334    2.0823    1.2300 C   0  0  0  0  0  0  0  0  0  0  0  0
   -0.6698   -3.0861    1.2529 H   0  0  0  0  0  0  0  0  0  0  0  0
   -1.5132   -1.6080    1.7054 H   0  0  0  0  0  0  0  0  0  0  0  0
   -2.0687   -2.5771    0.3033 H   0  0  0  0  0  0  0  0  0  0  0  0
    1.2835   -2.8747    0.0514 H   0  0  0  0  0  0  0  0  0  0  0  0
    2.7889   -1.6968   -1.4468 H   0  0  0  0  0  0  0  0  0  0  0  0
    1.7859    1.3680   -3.2553 H   0  0  0  0  0  0  0  0  0  0  0  0
    3.9280    0.2783   -0.9386 H   0  0  0  0  0  0  0  0  0  0  0  0
    8.2000    0.7782   -0.9824 H   0  0  0  0  0  0  0  0  0  0  0  0
    9.2122    0.6159    1.2720 H   0  0  0  0  0  0  0  0  0  0  0  0
    7.9404   -0.4170    3.1363 H   0  0  0  0  0  0  0  0  0  0  0  0
    5.6620   -1.3101    2.7424 H   0  0  0  0  0  0  0  0  0  0  0  0
    4.6445   -1.1817    0.5064 H   0  0  0  0  0  0  0  0  0  0  0  0
   -0.1112    1.4044   -1.9831 H   0  0  0  0  0  0  0  0  0  0  0  0
   -2.5943   -0.3777    0.1848 H   0  0  0  0  0  0  0  0  0  0  0  0
   -4.5079    2.3149   -0.3697 H   0  0  0  0  0  0  0  0  0  0  0  0
   -6.7758   -1.2737    0.6616 H   0  0  0  0  0  0  0  0  0  0  0  0
   -9.1283   -0.8068    1.2729 H   0  0  0  0  0  0  0  0  0  0  0  0
   -9.8293    1.5004    1.8562 H   0  0  0  0  0  0  0  0  0  0  0  0
   -8.1715    3.3431    1.8499 H   0  0  0  0  0  0  0  0  0  0  0  0
   -5.8225    2.9027    1.2690 H   0  0  0  0  0  0  0  0  0  0  0  0
  1  2  1  0
  2  3  2  0
  3  4  1  0
  4  5  2  0
  5  6  1  0
  6  7  1  0
  7  8  2  0
  7  9  1  0
  9 10  1  0
 10 11  2  0
 10 12  1  0
 12 13  2  0
 13 14  1  0
 14 15  2  0
 15 16  1  0
 16 17  2  0
  5 18  1  0
 18 19  2  0
 19 20  1  0
 20 21  1  0
 21 22  2  0
 21 23  1  0
 23 24  1  0
 24 25  2  0
 24 26  1  0
 26 27  2  0
 27 28  1  0
 28 29  2  0
 29 30  1  0
 30 31  2  0
 19  2  1  0
 31 26  1  0
 17 12  1  0
  1 32  1  0
  1 33  1  0
  1 34  1  0
  3 35  1  0
  4 36  1  0
  6 37  1  0
  9 38  1  0
 13 39  1  0
 14 40  1  0
 15 41  1  0
 16 42  1  0
 17 43  1  0
 18 44  1  0
 20 45  1  0
 23 46  1  0
 27 47  1  0
 28 48  1  0
 29 49  1  0
 30 50  1  0
 31 51  1  0
M  END
$$$$
