
     RDKit          3D

 47 49  0  0  0  0  0  0  0  0999 V2000
    5.2698    0.6222    2.7713 C   0  0  0  0  0  0  0  0  0  0  0  0
    4.4027    0.4890    1.6516 O   0  0  0  0  0  0  0  0  0  0  0  0
    4.9957    0.3902    0.4122 C   0  0  0  0  0  0  0  0  0  0  0  0
    6.3730    0.4491    0.1776 C   0  0  0  0  0  0  0  0  0  0  0  0
    6.8673    0.3376   -1.1235 C   0  0  0  0  0  0  0  0  0  0  0  0
    5.9913    0.1645   -2.1918 C   0  0  0  0  0  0  0  0  0  0  0  0
    4.6143    0.1052   -1.9678 C   0  0  0  0  0  0  0  0  0  0  0  0
    4.1061    0.2242   -0.6726 C   0  0  0  0  0  0  0  0  0  0  0  0
    2.7270    0.1614   -0.3631 N   0  0  0  0  0  0  0  0  0  0  0  0
    1.6592    0.1977   -1.2259 C   0  0  0  0  0  0  0  0  0  0  0  0
    1.7589    0.4143   -2.4324 O   0  0  0  0  0  0  0  0  0  0  0  0
    0.4065   -0.0259   -0.6333 N   0  0  0  0  0  0  0  0  0  0  0  0
    0.1841   -0.1741    0.8074 C   0  0  0  0  0  0  0  0  0  0  0  0
   -1.0743   -0.9677    1.1417 C   0  0  0  0  0  0  0  0  0  0  0  0
   -2.2987   -0.4304    0.3922 C   0  0  0  0  0  0  0  0  0  0  0  0
   -3.5413   -1.2561    0.7211 C   0  0  0  0  0  0  0  0  0  0  0  0
   -3.4570   -2.3675    1.2431 O   0  0  0  0  0  0  0  0  0  0  0  0
   -4.9041   -0.7181    0.4033 C   0  0  0  0  0  0  0  0  0  0  0  0
   -5.1231    0.5958   -0.0352 C   0  0  0  0  0  0  0  0  0  0  0  0
   -6.4216    1.0374   -0.3112 C   0  0  0  0  0  0  0  0  0  0  0  0
   -7.4962    0.1712   -0.1470 C   0  0  0  0  0  0  0  0  0  0  0  0
   -8.7362    0.6011   -0.4121 F   0  0  0  0  0  0  0  0  0  0  0  0
   -7.3005   -1.1319    0.2897 C   0  0  0  0  0  0  0  0  0  0  0  0
   -6.0054   -1.5762    0.5660 C   0  0  0  0  0  0  0  0  0  0  0  0
   -2.0019   -0.4750   -1.1063 C   0  0  0  0  0  0  0  0  0  0  0  0
   -0.7578    0.3394   -1.4394 C   0  0  0  0  0  0  0  0  0  0  0  0
    4.6479    0.6686    3.6705 H   0  0  0  0  0  0  0  0  0  0  0  0
    5.8442    1.5528    2.7166 H   0  0  0  0  0  0  0  0  0  0  0  0
    5.9284   -0.2473    2.8675 H   0  0  0  0  0  0  0  0  0  0  0  0
    7.0889    0.5812    0.9812 H   0  0  0  0  0  0  0  0  0  0  0  0
    7.9384    0.3832   -1.3043 H   0  0  0  0  0  0  0  0  0  0  0  0
    6.3759    0.0723   -3.2045 H   0  0  0  0  0  0  0  0  0  0  0  0
    3.9621   -0.0441   -2.8225 H   0  0  0  0  0  0  0  0  0  0  0  0
    2.5506    0.2883    0.6213 H   0  0  0  0  0  0  0  0  0  0  0  0
    0.1261    0.8354    1.2310 H   0  0  0  0  0  0  0  0  0  0  0  0
    1.0300   -0.6856    1.2754 H   0  0  0  0  0  0  0  0  0  0  0  0
   -0.9081   -2.0210    0.8781 H   0  0  0  0  0  0  0  0  0  0  0  0
   -1.2483   -0.9411    2.2242 H   0  0  0  0  0  0  0  0  0  0  0  0
   -2.4609    0.5997    0.7298 H   0  0  0  0  0  0  0  0  0  0  0  0
   -4.3096    1.3011   -0.1706 H   0  0  0  0  0  0  0  0  0  0  0  0
   -6.6021    2.0526   -0.6521 H   0  0  0  0  0  0  0  0  0  0  0  0
   -8.1518   -1.7939    0.4138 H   0  0  0  0  0  0  0  0  0  0  0  0
   -5.8591   -2.5995    0.9094 H   0  0  0  0  0  0  0  0  0  0  0  0
   -2.8474   -0.0950   -1.6898 H   0  0  0  0  0  0  0  0  0  0  0  0
   -1.8532   -1.5160   -1.4230 H   0  0  0  0  0  0  0  0  0  0  0  0
   -0.9470    1.4053   -1.2601 H   0  0  0  0  0  0  0  0  0  0  0  0
   -0.5427    0.2285   -2.5075 H   0  0  0  0  0  0  0  0  0  0  0  0
  1  2  1  0
  2  3  1  0
  3  4  2  0
  4  5  1  0
  5  6  2  0
  6  7  1  0
  7  8  2  0
  8  9  1  0
  9 10  1  0
 10 11  2  0
 10 12  1  0
 12 13  1  0
 13 14  1  0
 14 15  1  0
 15 16  1  0
 16 17  2  0
 16 18  1  0
 18 19  2  0
 19 20  1  0
 20 21  2  0
 21 22  1  0
 21 23  1  0
 23 24  2  0
 15 25  1  0
 25 26  1  0
  8  3  1  0
 26 12  1  0
 24 18  1  0
  1 27  1  0
  1 28  1  0
  1 29  1  0
  4 30  1  0
  5 31  1  0
  6 32  1  0
  7 33  1  0
  9 34  1  0
 13 35  1  0
 13 36  1  0
 14 37  1  0
 14 38  1  0
 15 39  1  0
 19 40  1  0
 20 41  1  0
 23 42  1  0
 24 43  1  0
 25 44  1  0
 25 45  1  0
 26 46  1  0
 26 47  1  0
M  END
$$$$
