
     RDKit          3D

 46 47  0  0  0  0  0  0  0  0999 V2000
    4.2262   -3.2220    1.4641 C   0  0  0  0  0  0  0  0  0  0  0  0
    2.8757   -2.5337    1.4955 C   0  0  0  0  0  0  0  0  0  0  0  0
    2.9699   -1.3337    0.7204 O   0  0  0  0  0  0  0  0  0  0  0  0
    1.8198   -0.6040    0.6697 C   0  0  0  0  0  0  0  0  0  0  0  0
    0.7662   -0.9442    1.1959 O   0  0  0  0  0  0  0  0  0  0  0  0
    1.9538    0.6231   -0.1121 C   0  0  0  0  0  0  0  0  0  0  0  0
    2.8670    0.8662   -1.1359 C   0  0  0  0  0  0  0  0  0  0  0  0
    3.9350    0.0107   -1.7224 C   0  0  0  0  0  0  0  0  0  0  0  0
    2.6489    2.1374   -1.6087 N   0  0  0  0  0  0  0  0  0  0  0  0
    1.6182    2.7317   -0.9258 C   0  0  0  0  0  0  0  0  0  0  0  0
    1.1948    4.1241   -1.2316 C   0  0  0  0  0  0  0  0  0  0  0  0
    1.1662    1.8158    0.0133 C   0  0  0  0  0  0  0  0  0  0  0  0
   -0.0824    2.0527    1.2062 S   0  0  0  0  0  6  0  0  0  0  0  0
    0.6187    1.8833    2.4585 O   0  0  0  0  0  0  0  0  0  0  0  0
   -0.7246    3.2970    0.8454 O   0  0  0  0  0  0  0  0  0  0  0  0
   -1.2118    0.8221    1.0623 N   0  0  0  0  0  0  0  0  0  0  0  0
   -1.9672    0.7842   -0.1908 C   0  0  0  0  0  0  0  0  0  0  0  0
   -2.9307   -0.3833   -0.2075 C   0  0  0  0  0  0  0  0  0  0  0  0
   -2.5380   -1.5770   -0.8404 C   0  0  0  0  0  0  0  0  0  0  0  0
   -3.3852   -2.6840   -0.8700 C   0  0  0  0  0  0  0  0  0  0  0  0
   -4.6333   -2.6177   -0.2605 C   0  0  0  0  0  0  0  0  0  0  0  0
   -5.0318   -1.4479    0.3858 C   0  0  0  0  0  0  0  0  0  0  0  0
   -4.1890   -0.3255    0.4289 C   0  0  0  0  0  0  0  0  0  0  0  0
   -4.6528    0.9110    1.1507 C   0  0  0  0  0  0  0  0  0  0  0  0
    4.2055   -4.1490    2.0438 H   0  0  0  0  0  0  0  0  0  0  0  0
    5.0025   -2.5664    1.8724 H   0  0  0  0  0  0  0  0  0  0  0  0
    4.5160   -3.4549    0.4340 H   0  0  0  0  0  0  0  0  0  0  0  0
    2.1146   -3.1938    1.0646 H   0  0  0  0  0  0  0  0  0  0  0  0
    2.6096   -2.2871    2.5294 H   0  0  0  0  0  0  0  0  0  0  0  0
    4.7639   -0.1011   -1.0164 H   0  0  0  0  0  0  0  0  0  0  0  0
    3.5438   -0.9826   -1.9643 H   0  0  0  0  0  0  0  0  0  0  0  0
    4.3343    0.4434   -2.6457 H   0  0  0  0  0  0  0  0  0  0  0  0
    3.1814    2.5788   -2.3490 H   0  0  0  0  0  0  0  0  0  0  0  0
    1.2677    4.7534   -0.3392 H   0  0  0  0  0  0  0  0  0  0  0  0
    0.1620    4.1396   -1.5932 H   0  0  0  0  0  0  0  0  0  0  0  0
    1.8249    4.5738   -2.0063 H   0  0  0  0  0  0  0  0  0  0  0  0
   -0.7777   -0.0771    1.3119 H   0  0  0  0  0  0  0  0  0  0  0  0
   -1.2787    0.6848   -1.0381 H   0  0  0  0  0  0  0  0  0  0  0  0
   -2.5188    1.7180   -0.3407 H   0  0  0  0  0  0  0  0  0  0  0  0
   -1.5609   -1.6517   -1.3131 H   0  0  0  0  0  0  0  0  0  0  0  0
   -3.0693   -3.5987   -1.3643 H   0  0  0  0  0  0  0  0  0  0  0  0
   -5.2956   -3.4790   -0.2800 H   0  0  0  0  0  0  0  0  0  0  0  0
   -6.0079   -1.4195    0.8657 H   0  0  0  0  0  0  0  0  0  0  0  0
   -3.9358    1.1961    1.9266 H   0  0  0  0  0  0  0  0  0  0  0  0
   -4.7784    1.7376    0.4445 H   0  0  0  0  0  0  0  0  0  0  0  0
   -5.6170    0.7490    1.6446 H   0  0  0  0  0  0  0  0  0  0  0  0
  1  2  1  0
  2  3  1  0
  3  4  1  0
  4  5  2  0
  4  6  1  0
  6  7  2  0
  7  8  1  0
  7  9  1  0
  9 10  1  0
 10 11  1  0
 10 12  2  0
 12 13  1  0
 13 14  2  0
 13 15  2  0
 13 16  1  0
 16 17  1  0
 17 18  1  0
 18 19  2  0
 19 20  1  0
 20 21  2  0
 21 22  1  0
 22 23  2  0
 23 24  1  0
 12  6  1  0
 23 18  1  0
  1 25  1  0
  1 26  1  0
  1 27  1  0
  2 28  1  0
  2 29  1  0
  8 30  1  0
  8 31  1  0
  8 32  1  0
  9 33  1  0
 11 34  1  0
 11 35  1  0
 11 36  1  0
 16 37  1  0
 17 38  1  0
 17 39  1  0
 19 40  1  0
 20 41  1  0
 21 42  1  0
 22 43  1  0
 24 44  1  0
 24 45  1  0
 24 46  1  0
M  END
$$$$
