
     RDKit          3D

 24 25  0  0  0  0  0  0  0  0999 V2000
    2.2154    1.2893   -2.8825 C   0  0  0  0  0  0  0  0  0  0  0  0
    1.9262    1.1561   -1.4764 N   0  0  0  0  0  0  0  0  0  0  0  0
    2.7541    1.7060   -0.5610 N   0  0  0  0  0  0  0  0  0  0  0  0
    2.1349    1.3569    0.5802 C   0  0  0  0  0  0  0  0  0  0  0  0
    2.6683    1.7355    1.8817 N   0  0  0  0  0  4  0  0  0  0  0  0
    3.7195    2.3954    1.9115 O   0  0  0  0  0  0  0  0  0  0  0  0
    2.0299    1.3694    2.8808 O   0  0  0  0  0  1  0  0  0  0  0  0
    0.9797    0.6282    0.4348 N   0  0  0  0  0  0  0  0  0  0  0  0
    0.8760    0.5188   -0.8702 C   0  0  0  0  0  0  0  0  0  0  0  0
   -0.3681   -0.2913   -1.7631 S   0  0  0  0  0  0  0  0  0  0  0  0
   -1.3740   -0.8746   -0.4125 C   0  0  0  0  0  0  0  0  0  0  0  0
   -2.4249   -0.0886    0.0752 C   0  0  0  0  0  0  0  0  0  0  0  0
   -3.2262   -0.5541    1.1216 C   0  0  0  0  0  0  0  0  0  0  0  0
   -2.9809   -1.8087    1.6761 C   0  0  0  0  0  0  0  0  0  0  0  0
   -3.9696   -2.3835    2.9611 Cl  0  0  0  0  0  0  0  0  0  0  0  0
   -1.9427   -2.6027    1.1928 C   0  0  0  0  0  0  0  0  0  0  0  0
   -1.1416   -2.1370    0.1464 C   0  0  0  0  0  0  0  0  0  0  0  0
    1.3867    1.8168   -3.3610 H   0  0  0  0  0  0  0  0  0  0  0  0
    3.1375    1.8625   -3.0117 H   0  0  0  0  0  0  0  0  0  0  0  0
    2.3421    0.2914   -3.3091 H   0  0  0  0  0  0  0  0  0  0  0  0
   -2.6244    0.8929   -0.3478 H   0  0  0  0  0  0  0  0  0  0  0  0
   -4.0348    0.0661    1.4989 H   0  0  0  0  0  0  0  0  0  0  0  0
   -1.7501   -3.5806    1.6256 H   0  0  0  0  0  0  0  0  0  0  0  0
   -0.3331   -2.7644   -0.2207 H   0  0  0  0  0  0  0  0  0  0  0  0
  1  2  1  0
  2  3  1  0
  3  4  2  0
  4  5  1  0
  5  6  2  0
  5  7  1  0
  4  8  1  0
  8  9  2  0
  9 10  1  0
 10 11  1  0
 11 12  2  0
 12 13  1  0
 13 14  2  0
 14 15  1  0
 14 16  1  0
 16 17  2  0
  9  2  1  0
 17 11  1  0
  1 18  1  0
  1 19  1  0
  1 20  1  0
 12 21  1  0
 13 22  1  0
 16 23  1  0
 17 24  1  0
M  CHG  2   5   1   7  -1
M  END
$$$$
