
     RDKit          3D

 56 60  0  0  0  0  0  0  0  0999 V2000
   -0.9059   -1.1464   -2.1212 C   0  0  0  0  0  0  0  0  0  0  0  0
   -0.7896   -0.9834   -0.7953 C   0  0  0  0  0  0  0  0  0  0  0  0
    0.4767   -0.9404   -0.0304 C   0  0  0  0  0  0  0  0  0  0  0  0
    1.7230   -1.0083   -0.5317 C   0  0  0  0  0  0  0  0  0  0  0  0
    2.9819   -0.9505    0.2030 C   0  0  0  0  0  0  0  0  0  0  0  0
    3.3458   -1.8285    1.1449 C   0  0  0  0  0  0  0  0  0  0  0  0
    2.5582   -2.8844    1.5204 O   0  0  0  0  0  0  0  0  0  0  0  0
    4.5331   -1.7352    1.7800 N   0  0  0  0  0  0  0  0  0  0  0  0
    5.4844   -0.7878    1.5242 C   0  0  0  0  0  0  0  0  0  0  0  0
    6.5320   -0.8829    2.1650 O   0  0  0  0  0  0  0  0  0  0  0  0
    5.1861    0.1499    0.5355 N   0  0  0  0  0  0  0  0  0  0  0  0
    6.1648    1.1720    0.2193 C   0  0  0  0  0  0  0  0  0  0  0  0
    7.0089    1.7084    1.2092 C   0  0  0  0  0  0  0  0  0  0  0  0
    7.9576    2.6949    0.9085 C   0  0  0  0  0  0  0  0  0  0  0  0
    8.0801    3.1648   -0.3930 C   0  0  0  0  0  0  0  0  0  0  0  0
    9.2439    4.3741   -0.7649 Cl  0  0  0  0  0  0  0  0  0  0  0  0
    7.2618    2.6559   -1.3935 C   0  0  0  0  0  0  0  0  0  0  0  0
    6.3146    1.6693   -1.0880 C   0  0  0  0  0  0  0  0  0  0  0  0
    3.9704    0.1210   -0.1635 C   0  0  0  0  0  0  0  0  0  0  0  0
    3.6331    0.9292   -1.0326 O   0  0  0  0  0  0  0  0  0  0  0  0
    0.1254   -0.7782    1.3750 C   0  0  0  0  0  0  0  0  0  0  0  0
   -1.2194   -0.7347    1.4486 C   0  0  0  0  0  0  0  0  0  0  0  0
   -2.0007   -0.5327    2.7031 C   0  0  0  0  0  0  0  0  0  0  0  0
   -1.8098   -0.8534    0.1691 N   0  0  0  0  0  0  0  0  0  0  0  0
   -3.1525   -0.7867   -0.0934 C   0  0  0  0  0  0  0  0  0  0  0  0
   -4.2195   -2.0679    0.3538 S   0  0  0  0  0  0  0  0  0  0  0  0
   -5.5690   -1.2792   -0.3060 C   0  0  0  0  0  0  0  0  0  0  0  0
   -5.2549   -0.0514   -0.8530 C   0  0  0  0  0  0  0  0  0  0  0  0
   -3.8521    0.2269   -0.7328 C   0  0  0  0  0  0  0  0  0  0  0  0
   -3.2282    1.4301   -1.2041 C   0  0  0  0  0  0  0  0  0  0  0  0
   -2.7690    2.4189   -1.6028 N   0  0  0  0  0  0  0  0  0  0  0  0
   -6.2967    0.8164   -1.5013 C   0  0  0  0  0  0  0  0  0  0  0  0
   -7.7212    0.3792   -1.1246 C   0  0  0  0  0  0  0  0  0  0  0  0
   -7.8885   -1.1443   -1.2100 C   0  0  0  0  0  0  0  0  0  0  0  0
   -6.9424   -1.8744   -0.2446 C   0  0  0  0  0  0  0  0  0  0  0  0
   -0.0469   -1.2452   -2.7732 H   0  0  0  0  0  0  0  0  0  0  0  0
   -1.8768   -1.1929   -2.6007 H   0  0  0  0  0  0  0  0  0  0  0  0
    1.8648   -1.0617   -1.6088 H   0  0  0  0  0  0  0  0  0  0  0  0
    3.0620   -3.4500    2.1241 H   0  0  0  0  0  0  0  0  0  0  0  0
    4.8095   -2.3941    2.4946 H   0  0  0  0  0  0  0  0  0  0  0  0
    6.9309    1.3973    2.2485 H   0  0  0  0  0  0  0  0  0  0  0  0
    8.5896    3.0900    1.6996 H   0  0  0  0  0  0  0  0  0  0  0  0
    7.3512    3.0144   -2.4157 H   0  0  0  0  0  0  0  0  0  0  0  0
    5.7200    1.2830   -1.9127 H   0  0  0  0  0  0  0  0  0  0  0  0
    0.8149   -0.6894    2.1972 H   0  0  0  0  0  0  0  0  0  0  0  0
   -1.3410   -0.3336    3.5546 H   0  0  0  0  0  0  0  0  0  0  0  0
   -2.5873   -1.4239    2.9444 H   0  0  0  0  0  0  0  0  0  0  0  0
   -2.6778    0.3220    2.6071 H   0  0  0  0  0  0  0  0  0  0  0  0
   -6.1738    0.7512   -2.5896 H   0  0  0  0  0  0  0  0  0  0  0  0
   -6.1549    1.8650   -1.2163 H   0  0  0  0  0  0  0  0  0  0  0  0
   -8.4415    0.8731   -1.7864 H   0  0  0  0  0  0  0  0  0  0  0  0
   -7.9477    0.7076   -0.1021 H   0  0  0  0  0  0  0  0  0  0  0  0
   -7.6865   -1.4695   -2.2388 H   0  0  0  0  0  0  0  0  0  0  0  0
   -8.9246   -1.4211   -0.9851 H   0  0  0  0  0  0  0  0  0  0  0  0
   -6.9218   -2.9416   -0.4928 H   0  0  0  0  0  0  0  0  0  0  0  0
   -7.3248   -1.7786    0.7792 H   0  0  0  0  0  0  0  0  0  0  0  0
  1  2  2  0
  2  3  1  0
  3  4  2  3
  4  5  1  0
  5  6  2  0
  6  7  1  0
  6  8  1  0
  8  9  1  0
  9 10  2  0
  9 11  1  0
 11 12  1  0
 12 13  2  0
 13 14  1  0
 14 15  2  0
 15 16  1  0
 15 17  1  0
 17 18  2  0
 11 19  1  0
 19 20  2  0
  3 21  1  0
 21 22  2  0
 22 23  1  0
 22 24  1  0
 24 25  1  0
 25 26  1  0
 26 27  1  0
 27 28  2  0
 28 29  1  0
 29 30  1  0
 30 31  3  0
 28 32  1  0
 32 33  1  0
 33 34  1  0
 34 35  1  0
 24  2  1  0
 29 25  2  0
 19  5  1  0
 35 27  1  0
 18 12  1  0
  1 36  1  0
  1 37  1  0
  4 38  1  0
  7 39  1  0
  8 40  1  0
 13 41  1  0
 14 42  1  0
 17 43  1  0
 18 44  1  0
 21 45  1  0
 23 46  1  0
 23 47  1  0
 23 48  1  0
 32 49  1  0
 32 50  1  0
 33 51  1  0
 33 52  1  0
 34 53  1  0
 34 54  1  0
 35 55  1  0
 35 56  1  0
M  END
$$$$
