
     RDKit          3D

 53 58  0  0  0  0  0  0  0  0999 V2000
    7.4036    1.7136    1.4975 C   0  0  0  0  0  0  0  0  0  0  0  0
    6.4215    1.1270    0.4994 C   0  0  0  0  0  0  0  0  0  0  0  0
    5.1022    1.4142    0.9598 O   0  0  0  0  0  0  0  0  0  0  0  0
    4.0646    0.9609    0.1939 C   0  0  0  0  0  0  0  0  0  0  0  0
    2.7965    1.2424    0.7023 C   0  0  0  0  0  0  0  0  0  0  0  0
    1.6440    0.8356    0.0223 C   0  0  0  0  0  0  0  0  0  0  0  0
    1.7351    0.1402   -1.1922 C   0  0  0  0  0  0  0  0  0  0  0  0
    0.5098   -0.3274   -1.9728 C   0  0  0  0  0  0  0  0  0  0  0  0
   -0.3122    0.8123   -2.4242 N   0  0  0  0  0  0  0  0  0  0  0  0
   -1.2989    1.2510   -1.5233 C   0  0  0  0  0  0  0  0  0  0  0  0
   -1.7591    2.5643   -1.6198 C   0  0  0  0  0  0  0  0  0  0  0  0
   -2.6679    3.0615   -0.6923 C   0  0  0  0  0  0  0  0  0  0  0  0
   -3.0980    2.2708    0.3772 C   0  0  0  0  0  0  0  0  0  0  0  0
   -3.9311    2.8330    1.3593 C   0  0  0  0  0  0  0  0  0  0  0  0
   -4.3250    2.0984    2.4744 C   0  0  0  0  0  0  0  0  0  0  0  0
   -3.8757    0.7963    2.6284 C   0  0  0  0  0  0  0  0  0  0  0  0
   -3.0585    0.2225    1.6505 C   0  0  0  0  0  0  0  0  0  0  0  0
   -2.6769    0.9192    0.4753 C   0  0  0  0  0  0  0  0  0  0  0  0
   -1.8693    0.3732   -0.5728 C   0  0  0  0  0  0  0  0  0  0  0  0
   -1.5316   -1.0824   -0.7145 C   0  0  0  0  0  0  0  0  0  0  0  0
   -0.3359   -1.3581   -1.2779 C   0  0  0  0  0  0  0  0  0  0  0  0
    0.2142   -2.7310   -1.3469 C   0  0  0  0  0  0  0  0  0  0  0  0
    1.2527   -2.9896   -1.9466 O   0  0  0  0  0  0  0  0  0  0  0  0
   -0.4613   -3.7120   -0.6421 O   0  0  0  0  0  0  0  0  0  0  0  0
   -1.8145   -3.5134   -0.3434 C   0  0  0  0  0  0  0  0  0  0  0  0
   -2.5569   -4.6557   -0.0381 C   0  0  0  0  0  0  0  0  0  0  0  0
   -3.9318   -4.5467    0.1428 C   0  0  0  0  0  0  0  0  0  0  0  0
   -4.5490   -3.3068   -0.0065 C   0  0  0  0  0  0  0  0  0  0  0  0
   -3.7863   -2.1711   -0.3038 C   0  0  0  0  0  0  0  0  0  0  0  0
   -2.3921   -2.2495   -0.4281 C   0  0  0  0  0  0  0  0  0  0  0  0
    3.0189   -0.1407   -1.6917 C   0  0  0  0  0  0  0  0  0  0  0  0
    4.1717    0.2650   -1.0075 C   0  0  0  0  0  0  0  0  0  0  0  0
    7.2449    1.2849    2.4926 H   0  0  0  0  0  0  0  0  0  0  0  0
    7.2594    2.7952    1.5895 H   0  0  0  0  0  0  0  0  0  0  0  0
    8.4350    1.5201    1.1897 H   0  0  0  0  0  0  0  0  0  0  0  0
    6.5759    0.0435    0.4403 H   0  0  0  0  0  0  0  0  0  0  0  0
    6.5916    1.5865   -0.4811 H   0  0  0  0  0  0  0  0  0  0  0  0
    2.7018    1.7827    1.6413 H   0  0  0  0  0  0  0  0  0  0  0  0
    0.6801    1.0744    0.4626 H   0  0  0  0  0  0  0  0  0  0  0  0
    0.8643   -0.7654   -2.9156 H   0  0  0  0  0  0  0  0  0  0  0  0
    0.2675    1.5769   -2.7605 H   0  0  0  0  0  0  0  0  0  0  0  0
   -1.3918    3.2195   -2.4051 H   0  0  0  0  0  0  0  0  0  0  0  0
   -2.9949    4.0949   -0.7853 H   0  0  0  0  0  0  0  0  0  0  0  0
   -4.2678    3.8643    1.2715 H   0  0  0  0  0  0  0  0  0  0  0  0
   -4.9613    2.5514    3.2298 H   0  0  0  0  0  0  0  0  0  0  0  0
   -4.1507    0.2233    3.5102 H   0  0  0  0  0  0  0  0  0  0  0  0
   -2.6976   -0.7863    1.8369 H   0  0  0  0  0  0  0  0  0  0  0  0
   -2.0697   -5.6244    0.0285 H   0  0  0  0  0  0  0  0  0  0  0  0
   -4.5248   -5.4287    0.3707 H   0  0  0  0  0  0  0  0  0  0  0  0
   -5.6277   -3.2196    0.1011 H   0  0  0  0  0  0  0  0  0  0  0  0
   -4.3064   -1.2256   -0.4420 H   0  0  0  0  0  0  0  0  0  0  0  0
    3.1355   -0.6981   -2.6206 H   0  0  0  0  0  0  0  0  0  0  0  0
    5.1339    0.0134   -1.4404 H   0  0  0  0  0  0  0  0  0  0  0  0
  1  2  1  0
  2  3  1  0
  3  4  1  0
  4  5  2  0
  5  6  1  0
  6  7  2  0
  7  8  1  0
  8  9  1  0
  9 10  1  0
 10 11  2  0
 11 12  1  0
 12 13  2  0
 13 14  1  0
 14 15  2  0
 15 16  1  0
 16 17  2  0
 17 18  1  0
 18 19  2  0
 19 20  1  0
 20 21  2  0
 21 22  1  0
 22 23  2  0
 22 24  1  0
 24 25  1  0
 25 26  2  0
 26 27  1  0
 27 28  2  0
 28 29  1  0
 29 30  2  0
  7 31  1  0
 31 32  2  0
 32  4  1  0
 21  8  1  0
 30 25  1  0
 19 10  1  0
 30 20  1  0
 18 13  1  0
  1 33  1  0
  1 34  1  0
  1 35  1  0
  2 36  1  0
  2 37  1  0
  5 38  1  0
  6 39  1  0
  8 40  1  0
  9 41  1  0
 11 42  1  0
 12 43  1  0
 14 44  1  0
 15 45  1  0
 16 46  1  0
 17 47  1  0
 26 48  1  0
 27 49  1  0
 28 50  1  0
 29 51  1  0
 31 52  1  0
 32 53  1  0
M  END
$$$$
