
     RDKit          3D

 51 54  0  0  0  0  0  0  0  0999 V2000
    2.4492    1.8754   -1.0432 C   0  0  0  0  0  0  0  0  0  0  0  0
    2.2521    0.4465   -1.5593 C   0  0  0  0  0  0  0  0  0  0  0  0
    0.9516    0.3471   -2.3861 C   0  0  0  0  0  0  0  0  0  0  0  0
    0.0433   -0.3744   -1.4436 C   0  0  0  0  0  0  0  0  0  0  0  0
   -1.3161   -0.6029   -1.6040 C   0  0  0  0  0  0  0  0  0  0  0  0
   -1.9714   -1.3656   -0.6322 C   0  0  0  0  0  0  0  0  0  0  0  0
   -3.7141   -1.7029   -0.8095 S   0  0  0  0  0  6  0  0  0  0  0  0
   -3.9879   -2.9535   -0.1339 O   0  0  0  0  0  0  0  0  0  0  0  0
   -4.0462   -1.5194   -2.2073 O   0  0  0  0  0  0  0  0  0  0  0  0
   -4.4379   -0.4471    0.0743 N   0  0  0  0  0  0  0  0  0  0  0  0
   -4.3603   -0.4981    1.5541 C   0  0  0  0  0  0  0  0  0  0  0  0
   -3.6947    0.7519    2.1147 C   0  0  0  0  0  0  0  0  0  0  0  0
   -4.4503    2.0209    1.7237 C   0  0  0  0  0  0  0  0  0  0  0  0
   -5.1517    1.8916    0.3723 C   0  0  0  0  0  0  0  0  0  0  0  0
   -4.4357    0.9008   -0.5380 C   0  0  0  0  0  0  0  0  0  0  0  0
   -1.2613   -1.9278    0.4415 C   0  0  0  0  0  0  0  0  0  0  0  0
    0.1108   -1.6886    0.5820 C   0  0  0  0  0  0  0  0  0  0  0  0
    0.7532   -0.9005   -0.3609 C   0  0  0  0  0  0  0  0  0  0  0  0
    2.1126   -0.5181   -0.4364 N   0  0  0  0  0  0  0  0  0  0  0  0
    3.1167   -0.9506    0.4309 C   0  0  0  0  0  0  0  0  0  0  0  0
    2.8865   -1.6876    1.4001 O   0  0  0  0  0  0  0  0  0  0  0  0
    4.5755   -0.4839    0.1354 C   0  0  0  0  0  0  0  0  0  0  0  0
    5.7070   -1.5335    0.3455 C   0  0  0  0  0  0  0  0  0  0  0  0
    6.5853   -0.3873    0.8802 C   0  0  0  0  0  0  0  0  0  0  0  0
    5.2829    0.3501    1.2421 C   0  0  0  0  0  0  0  0  0  0  0  0
    2.5255    2.5791   -1.8788 H   0  0  0  0  0  0  0  0  0  0  0  0
    3.3604    1.9680   -0.4470 H   0  0  0  0  0  0  0  0  0  0  0  0
    1.6128    2.1892   -0.4087 H   0  0  0  0  0  0  0  0  0  0  0  0
    3.1051    0.1638   -2.1850 H   0  0  0  0  0  0  0  0  0  0  0  0
    1.1116   -0.2696   -3.2776 H   0  0  0  0  0  0  0  0  0  0  0  0
    0.5548    1.3219   -2.6845 H   0  0  0  0  0  0  0  0  0  0  0  0
   -1.8485   -0.2120   -2.4664 H   0  0  0  0  0  0  0  0  0  0  0  0
   -3.8139   -1.3803    1.8993 H   0  0  0  0  0  0  0  0  0  0  0  0
   -5.3809   -0.5929    1.9437 H   0  0  0  0  0  0  0  0  0  0  0  0
   -3.6227    0.6880    3.2063 H   0  0  0  0  0  0  0  0  0  0  0  0
   -2.6663    0.8160    1.7367 H   0  0  0  0  0  0  0  0  0  0  0  0
   -5.1965    2.2652    2.4892 H   0  0  0  0  0  0  0  0  0  0  0  0
   -3.7452    2.8605    1.7018 H   0  0  0  0  0  0  0  0  0  0  0  0
   -5.2146    2.8749   -0.1071 H   0  0  0  0  0  0  0  0  0  0  0  0
   -6.1836    1.5541    0.5343 H   0  0  0  0  0  0  0  0  0  0  0  0
   -4.9631    0.8628   -1.4970 H   0  0  0  0  0  0  0  0  0  0  0  0
   -3.4109    1.2401   -0.7195 H   0  0  0  0  0  0  0  0  0  0  0  0
   -1.7659   -2.5607    1.1688 H   0  0  0  0  0  0  0  0  0  0  0  0
    0.6390   -2.1279    1.4216 H   0  0  0  0  0  0  0  0  0  0  0  0
    4.7008   -0.0131   -0.8460 H   0  0  0  0  0  0  0  0  0  0  0  0
    6.0739   -2.0201   -0.5623 H   0  0  0  0  0  0  0  0  0  0  0  0
    5.4870   -2.3033    1.0942 H   0  0  0  0  0  0  0  0  0  0  0  0
    7.2388   -0.6392    1.7189 H   0  0  0  0  0  0  0  0  0  0  0  0
    7.1749    0.1147    0.1046 H   0  0  0  0  0  0  0  0  0  0  0  0
    4.9282    0.1468    2.2593 H   0  0  0  0  0  0  0  0  0  0  0  0
    5.3002    1.4317    1.0843 H   0  0  0  0  0  0  0  0  0  0  0  0
  1  2  1  0
  2  3  1  0
  3  4  1  0
  4  5  2  0
  5  6  1  0
  6  7  1  0
  7  8  2  0
  7  9  2  0
  7 10  1  0
 10 11  1  0
 11 12  1  0
 12 13  1  0
 13 14  1  0
 14 15  1  0
  6 16  2  0
 16 17  1  0
 17 18  2  0
 18 19  1  0
 19 20  1  0
 20 21  2  0
 20 22  1  0
 22 23  1  0
 23 24  1  0
 24 25  1  0
 19  2  1  0
 25 22  1  0
 18  4  1  0
 15 10  1  0
  1 26  1  0
  1 27  1  0
  1 28  1  0
  2 29  1  0
  3 30  1  0
  3 31  1  0
  5 32  1  0
 11 33  1  0
 11 34  1  0
 12 35  1  0
 12 36  1  0
 13 37  1  0
 13 38  1  0
 14 39  1  0
 14 40  1  0
 15 41  1  0
 15 42  1  0
 16 43  1  0
 17 44  1  0
 22 45  1  0
 23 46  1  0
 23 47  1  0
 24 48  1  0
 24 49  1  0
 25 50  1  0
 25 51  1  0
M  END
$$$$
