
     RDKit          3D

 57 60  0  0  0  0  0  0  0  0999 V2000
   -1.2247    5.5207    0.5243 C   0  0  0  0  0  0  0  0  0  0  0  0
   -2.0952    5.0045   -0.6263 C   0  0  0  0  0  0  0  0  0  0  0  0
   -1.2503    4.3148   -1.7189 C   0  0  0  0  0  0  0  0  0  0  0  0
   -0.5755    3.0194   -1.2383 C   0  0  0  0  0  0  0  0  0  0  0  0
   -1.5099    2.1636   -0.4329 C   0  0  0  0  0  0  0  0  0  0  0  0
   -2.6934    2.6672    0.0774 C   0  0  0  0  0  0  0  0  0  0  0  0
   -3.5826    1.5023    0.9375 S   0  0  0  0  0  0  0  0  0  0  0  0
   -2.4051    0.3057    0.6472 C   0  0  0  0  0  0  0  0  0  0  0  0
   -2.5837   -0.9382    1.1142 N   0  0  0  0  0  0  0  0  0  0  0  0
   -1.5908   -1.7769    0.7998 C   0  0  0  0  0  0  0  0  0  0  0  0
   -1.6997   -3.2117    1.3189 C   0  0  0  0  0  0  0  0  0  0  0  0
   -1.3234   -3.2208    2.8096 C   0  0  0  0  0  0  0  0  0  0  0  0
   -3.1386   -3.7361    1.1483 C   0  0  0  0  0  0  0  0  0  0  0  0
   -0.7549   -4.1644    0.5590 C   0  0  0  0  0  0  0  0  0  0  0  0
   -0.4756   -1.4380    0.1223 N   0  0  0  0  0  0  0  0  0  0  0  0
   -0.3040   -0.1696   -0.3249 C   0  0  0  0  0  0  0  0  0  0  0  0
    0.8888    0.1659   -0.9982 N   0  0  0  0  0  0  0  0  0  0  0  0
    1.9050    0.5783    0.0047 C   0  0  0  0  0  0  0  0  0  0  0  0
    3.3371    0.3523   -0.5080 C   0  0  0  0  0  0  0  0  0  0  0  0
    3.5816   -1.0566   -0.8418 N   0  0  0  0  0  0  0  0  0  0  0  0
    4.8602   -1.5803   -0.6732 C   0  0  0  0  0  0  0  0  0  0  0  0
    5.8011   -0.8573   -0.3431 O   0  0  0  0  0  0  0  0  0  0  0  0
    5.0203   -3.0712   -0.9431 C   0  0  0  0  0  0  0  0  0  0  0  0
    6.5324   -3.7029   -0.2590 Cl  0  0  0  0  0  0  0  0  0  0  0  0
    2.4155   -1.8149   -1.3201 C   0  0  0  0  0  0  0  0  0  0  0  0
    1.3277   -0.9062   -1.9203 C   0  0  0  0  0  0  0  0  0  0  0  0
   -1.3221    0.7742   -0.0783 C   0  0  0  0  0  0  0  0  0  0  0  0
   -3.2073    4.0625   -0.1152 C   0  0  0  0  0  0  0  0  0  0  0  0
   -0.7426    4.7095    1.0784 H   0  0  0  0  0  0  0  0  0  0  0  0
   -1.8309    6.0926    1.2351 H   0  0  0  0  0  0  0  0  0  0  0  0
   -0.4408    6.1856    0.1465 H   0  0  0  0  0  0  0  0  0  0  0  0
   -2.5801    5.8813   -1.0752 H   0  0  0  0  0  0  0  0  0  0  0  0
   -1.9078    4.0779   -2.5663 H   0  0  0  0  0  0  0  0  0  0  0  0
   -0.4868    5.0027   -2.1012 H   0  0  0  0  0  0  0  0  0  0  0  0
    0.2944    3.2724   -0.6220 H   0  0  0  0  0  0  0  0  0  0  0  0
   -0.2104    2.4686   -2.1122 H   0  0  0  0  0  0  0  0  0  0  0  0
   -0.3017   -2.8538    2.9644 H   0  0  0  0  0  0  0  0  0  0  0  0
   -1.3815   -4.2327    3.2264 H   0  0  0  0  0  0  0  0  0  0  0  0
   -1.9924   -2.5814    3.3975 H   0  0  0  0  0  0  0  0  0  0  0  0
   -3.8592   -3.1491    1.7296 H   0  0  0  0  0  0  0  0  0  0  0  0
   -3.4522   -3.6972    0.0984 H   0  0  0  0  0  0  0  0  0  0  0  0
   -3.2229   -4.7760    1.4845 H   0  0  0  0  0  0  0  0  0  0  0  0
   -0.9614   -4.1553   -0.5178 H   0  0  0  0  0  0  0  0  0  0  0  0
    0.2968   -3.8887    0.6983 H   0  0  0  0  0  0  0  0  0  0  0  0
   -0.8677   -5.1964    0.9110 H   0  0  0  0  0  0  0  0  0  0  0  0
    1.7894    0.0154    0.9421 H   0  0  0  0  0  0  0  0  0  0  0  0
    1.7711    1.6398    0.2393 H   0  0  0  0  0  0  0  0  0  0  0  0
    4.0561    0.6929    0.2446 H   0  0  0  0  0  0  0  0  0  0  0  0
    3.5113    0.9323   -1.4222 H   0  0  0  0  0  0  0  0  0  0  0  0
    4.2056   -3.6347   -0.4824 H   0  0  0  0  0  0  0  0  0  0  0  0
    5.0373   -3.2448   -2.0222 H   0  0  0  0  0  0  0  0  0  0  0  0
    2.0277   -2.3723   -0.4608 H   0  0  0  0  0  0  0  0  0  0  0  0
    2.7381   -2.5415   -2.0721 H   0  0  0  0  0  0  0  0  0  0  0  0
    0.4865   -1.5072   -2.2897 H   0  0  0  0  0  0  0  0  0  0  0  0
    1.7453   -0.4094   -2.8058 H   0  0  0  0  0  0  0  0  0  0  0  0
   -4.0110    4.0292   -0.8624 H   0  0  0  0  0  0  0  0  0  0  0  0
   -3.6428    4.4541    0.8117 H   0  0  0  0  0  0  0  0  0  0  0  0
  1  2  1  0
  2  3  1  0
  3  4  1  0
  4  5  1  0
  5  6  2  0
  6  7  1  0
  7  8  1  0
  8  9  2  0
  9 10  1  0
 10 11  1  0
 11 12  1  0
 11 13  1  0
 11 14  1  0
 10 15  2  0
 15 16  1  0
 16 17  1  0
 17 18  1  0
 18 19  1  0
 19 20  1  0
 20 21  1  0
 21 22  2  0
 21 23  1  0
 23 24  1  0
 20 25  1  0
 25 26  1  0
 16 27  2  0
  6 28  1  0
 28  2  1  0
 27  5  1  0
 27  8  1  0
 26 17  1  0
  1 29  1  0
  1 30  1  0
  1 31  1  0
  2 32  1  0
  3 33  1  0
  3 34  1  0
  4 35  1  0
  4 36  1  0
 12 37  1  0
 12 38  1  0
 12 39  1  0
 13 40  1  0
 13 41  1  0
 13 42  1  0
 14 43  1  0
 14 44  1  0
 14 45  1  0
 18 46  1  0
 18 47  1  0
 19 48  1  0
 19 49  1  0
 23 50  1  0
 23 51  1  0
 25 52  1  0
 25 53  1  0
 26 54  1  0
 26 55  1  0
 28 56  1  0
 28 57  1  0
M  END
$$$$
