
     RDKit          3D

 46 49  0  0  0  0  0  0  0  0999 V2000
   -6.1965    0.8594    1.3986 C   0  0  0  0  0  0  0  0  0  0  0  0
   -4.8021    0.8936    1.6723 O   0  0  0  0  0  0  0  0  0  0  0  0
   -3.9589    0.5302    0.6551 C   0  0  0  0  0  0  0  0  0  0  0  0
   -4.3418    0.2216   -0.6483 C   0  0  0  0  0  0  0  0  0  0  0  0
   -3.3806   -0.1219   -1.6039 C   0  0  0  0  0  0  0  0  0  0  0  0
   -2.0278   -0.1541   -1.2591 C   0  0  0  0  0  0  0  0  0  0  0  0
   -1.0036   -0.4785   -2.1196 O   0  0  0  0  0  0  0  0  0  0  0  0
   -1.3380   -0.6483   -3.4900 C   0  0  0  0  0  0  0  0  0  0  0  0
   -1.6256    0.1292    0.0672 C   0  0  0  0  0  0  0  0  0  0  0  0
   -0.2449    0.1128    0.3588 N   0  0  0  0  0  0  0  0  0  0  0  0
    0.4585   -0.1221    1.5755 C   0  0  0  0  0  0  0  0  0  0  0  0
   -0.2044   -0.1622    2.7619 N   0  0  0  0  0  0  0  0  0  0  0  0
    0.6351   -0.4082    3.8033 C   0  0  0  0  0  0  0  0  0  0  0  0
    0.2928   -0.5185    5.0890 N   0  0  0  0  0  0  0  0  0  0  0  0
    1.4910   -0.7777    5.7531 O   0  0  0  0  0  0  0  0  0  0  0  0
    2.5797   -0.8207    4.8797 N   0  0  0  0  0  0  0  0  0  0  0  0
    2.0541   -0.5951    3.6744 C   0  0  0  0  0  0  0  0  0  0  0  0
    2.7319   -0.5434    2.4953 N   0  0  0  0  0  0  0  0  0  0  0  0
    1.9018   -0.2907    1.4476 C   0  0  0  0  0  0  0  0  0  0  0  0
    2.4554   -0.2242    0.1319 N   0  0  0  0  0  0  0  0  0  0  0  0
    3.6077   -1.1192   -0.0741 C   0  0  0  0  0  0  0  0  0  0  0  0
    4.3632   -0.7602   -1.3620 C   0  0  0  0  0  0  0  0  0  0  0  0
    3.4766   -0.0441   -2.3752 C   0  0  0  0  0  0  0  0  0  0  0  0
    2.8549    1.2253   -1.7824 C   0  0  0  0  0  0  0  0  0  0  0  0
    2.7117    1.1690   -0.2577 C   0  0  0  0  0  0  0  0  0  0  0  0
   -2.6034    0.4882    1.0012 C   0  0  0  0  0  0  0  0  0  0  0  0
   -6.7248    1.1126    2.3213 H   0  0  0  0  0  0  0  0  0  0  0  0
   -6.4650    1.6041    0.6421 H   0  0  0  0  0  0  0  0  0  0  0  0
   -6.5163   -0.1441    1.0973 H   0  0  0  0  0  0  0  0  0  0  0  0
   -5.3815    0.2458   -0.9573 H   0  0  0  0  0  0  0  0  0  0  0  0
   -3.7217   -0.3565   -2.6061 H   0  0  0  0  0  0  0  0  0  0  0  0
   -1.9775   -1.5263   -3.6315 H   0  0  0  0  0  0  0  0  0  0  0  0
   -0.4090   -0.8240   -4.0401 H   0  0  0  0  0  0  0  0  0  0  0  0
   -1.8022    0.2542   -3.9033 H   0  0  0  0  0  0  0  0  0  0  0  0
    0.2851   -0.2994   -0.4143 H   0  0  0  0  0  0  0  0  0  0  0  0
    3.2301   -2.1434   -0.1588 H   0  0  0  0  0  0  0  0  0  0  0  0
    4.3265   -1.0961    0.7540 H   0  0  0  0  0  0  0  0  0  0  0  0
    5.2099   -0.1033   -1.1126 H   0  0  0  0  0  0  0  0  0  0  0  0
    4.7954   -1.6659   -1.8016 H   0  0  0  0  0  0  0  0  0  0  0  0
    2.6760   -0.7241   -2.6953 H   0  0  0  0  0  0  0  0  0  0  0  0
    4.0505    0.2090   -3.2766 H   0  0  0  0  0  0  0  0  0  0  0  0
    1.8703    1.3773   -2.2422 H   0  0  0  0  0  0  0  0  0  0  0  0
    3.4569    2.1027   -2.0495 H   0  0  0  0  0  0  0  0  0  0  0  0
    1.9063    1.8512    0.0429 H   0  0  0  0  0  0  0  0  0  0  0  0
    3.6312    1.5315    0.2218 H   0  0  0  0  0  0  0  0  0  0  0  0
   -2.3269    0.7543    2.0171 H   0  0  0  0  0  0  0  0  0  0  0  0
  1  2  1  0
  2  3  1  0
  3  4  2  0
  4  5  1  0
  5  6  2  0
  6  7  1  0
  7  8  1  0
  6  9  1  0
  9 10  1  0
 10 11  1  0
 11 12  2  0
 12 13  1  0
 13 14  2  0
 14 15  1  0
 15 16  1  0
 16 17  2  0
 17 18  1  0
 18 19  2  0
 19 20  1  0
 20 21  1  0
 21 22  1  0
 22 23  1  0
 23 24  1  0
 24 25  1  0
  9 26  2  0
 26  3  1  0
 19 11  1  0
 25 20  1  0
 17 13  1  0
  1 27  1  0
  1 28  1  0
  1 29  1  0
  4 30  1  0
  5 31  1  0
  8 32  1  0
  8 33  1  0
  8 34  1  0
 10 35  1  0
 21 36  1  0
 21 37  1  0
 22 38  1  0
 22 39  1  0
 23 40  1  0
 23 41  1  0
 24 42  1  0
 24 43  1  0
 25 44  1  0
 25 45  1  0
 26 46  1  0
M  END
$$$$
