
     RDKit          3D

 58 61  0  0  0  0  0  0  0  0999 V2000
    0.3120   -3.2496   -0.1192 O   0  0  0  0  0  0  0  0  0  0  0  0
   -0.2134   -2.4180   -0.8559 C   0  0  0  0  0  0  0  0  0  0  0  0
    0.5679   -1.7710   -2.0121 C   0  0  0  0  0  0  0  0  0  0  0  0
    1.5147   -0.7256   -1.5766 N   0  0  0  0  0  0  0  0  0  0  0  0
    0.8498    0.4799   -1.0505 C   0  0  0  0  0  0  0  0  0  0  0  0
    1.8323    1.4174   -0.3243 C   0  0  0  0  0  0  0  0  0  0  0  0
    2.4200    0.7445    0.8653 N   0  0  0  0  0  0  0  0  0  0  0  0
    3.6613    1.5538    1.6773 S   0  0  0  0  0  6  0  0  0  0  0  0
    3.2657    2.9471    1.7735 O   0  0  0  0  0  0  0  0  0  0  0  0
    4.0013    0.8141    2.8726 O   0  0  0  0  0  0  0  0  0  0  0  0
    5.0348    1.4874    0.5656 C   0  0  0  0  0  0  0  0  0  0  0  0
    5.3410    2.6012   -0.2285 C   0  0  0  0  0  0  0  0  0  0  0  0
    6.4528    2.5677   -1.0733 C   0  0  0  0  0  0  0  0  0  0  0  0
    7.2651    1.4349   -1.1139 C   0  0  0  0  0  0  0  0  0  0  0  0
    6.9662    0.3347   -0.3095 C   0  0  0  0  0  0  0  0  0  0  0  0
    5.8555    0.3677    0.5319 C   0  0  0  0  0  0  0  0  0  0  0  0
    5.6021   -0.7151    1.2764 F   0  0  0  0  0  0  0  0  0  0  0  0
    2.4680   -0.7436    0.7820 C   0  0  0  0  0  0  0  0  0  0  0  0
    2.5753   -1.2252   -0.6775 C   0  0  0  0  0  0  0  0  0  0  0  0
   -1.4983   -1.9264   -0.7366 N   0  0  0  0  0  0  0  0  0  0  0  0
   -2.5029   -2.2860    0.1931 C   0  0  0  0  0  0  0  0  0  0  0  0
   -2.3655   -3.3762    1.0596 C   0  0  0  0  0  0  0  0  0  0  0  0
   -3.3961   -3.7286    1.9366 C   0  0  0  0  0  0  0  0  0  0  0  0
   -4.5827   -3.0021    1.9548 C   0  0  0  0  0  0  0  0  0  0  0  0
   -4.7379   -1.9078    1.1059 C   0  0  0  0  0  0  0  0  0  0  0  0
   -3.6975   -1.5287    0.2406 C   0  0  0  0  0  0  0  0  0  0  0  0
   -3.8634   -0.3274   -0.6335 C   0  0  0  0  0  0  0  0  0  0  0  0
   -3.2656   -0.2641   -1.7076 O   0  0  0  0  0  0  0  0  0  0  0  0
   -4.7070    0.8220   -0.2290 C   0  0  0  0  0  0  0  0  0  0  0  0
   -4.6755    1.3251    1.0770 C   0  0  0  0  0  0  0  0  0  0  0  0
   -5.4743    2.4183    1.4174 C   0  0  0  0  0  0  0  0  0  0  0  0
   -6.2903    3.0146    0.4554 C   0  0  0  0  0  0  0  0  0  0  0  0
   -6.3039    2.5282   -0.8520 C   0  0  0  0  0  0  0  0  0  0  0  0
   -5.5072    1.4363   -1.1980 C   0  0  0  0  0  0  0  0  0  0  0  0
    1.1077   -2.5696   -2.5356 H   0  0  0  0  0  0  0  0  0  0  0  0
   -0.1254   -1.3554   -2.7535 H   0  0  0  0  0  0  0  0  0  0  0  0
    0.0530    0.2220   -0.3442 H   0  0  0  0  0  0  0  0  0  0  0  0
    0.3864    1.0222   -1.8820 H   0  0  0  0  0  0  0  0  0  0  0  0
    1.2908    2.3103    0.0057 H   0  0  0  0  0  0  0  0  0  0  0  0
    2.6192    1.7268   -1.0200 H   0  0  0  0  0  0  0  0  0  0  0  0
    4.7247    3.4971   -0.1924 H   0  0  0  0  0  0  0  0  0  0  0  0
    6.6910    3.4296   -1.6930 H   0  0  0  0  0  0  0  0  0  0  0  0
    8.1350    1.4108   -1.7663 H   0  0  0  0  0  0  0  0  0  0  0  0
    7.5964   -0.5495   -0.3264 H   0  0  0  0  0  0  0  0  0  0  0  0
    3.2967   -1.1533    1.3633 H   0  0  0  0  0  0  0  0  0  0  0  0
    1.5528   -1.1305    1.2448 H   0  0  0  0  0  0  0  0  0  0  0  0
    2.6569   -2.3180   -0.7054 H   0  0  0  0  0  0  0  0  0  0  0  0
    3.5248   -0.8581   -1.0864 H   0  0  0  0  0  0  0  0  0  0  0  0
   -1.7749   -1.1883   -1.3893 H   0  0  0  0  0  0  0  0  0  0  0  0
   -1.4700   -3.9909    1.0658 H   0  0  0  0  0  0  0  0  0  0  0  0
   -3.2700   -4.5843    2.5968 H   0  0  0  0  0  0  0  0  0  0  0  0
   -5.3866   -3.2917    2.6279 H   0  0  0  0  0  0  0  0  0  0  0  0
   -5.6815   -1.3669    1.1260 H   0  0  0  0  0  0  0  0  0  0  0  0
   -4.0261    0.8888    1.8320 H   0  0  0  0  0  0  0  0  0  0  0  0
   -5.4544    2.8126    2.4309 H   0  0  0  0  0  0  0  0  0  0  0  0
   -6.9092    3.8676    0.7229 H   0  0  0  0  0  0  0  0  0  0  0  0
   -6.9304    3.0031   -1.6026 H   0  0  0  0  0  0  0  0  0  0  0  0
   -5.5110    1.0660   -2.2211 H   0  0  0  0  0  0  0  0  0  0  0  0
  1  2  2  0
  2  3  1  0
  3  4  1  0
  4  5  1  0
  5  6  1  0
  6  7  1  0
  7  8  1  0
  8  9  2  0
  8 10  2  0
  8 11  1  0
 11 12  2  0
 12 13  1  0
 13 14  2  0
 14 15  1  0
 15 16  2  0
 16 17  1  0
  7 18  1  0
 18 19  1  0
  2 20  1  0
 20 21  1  0
 21 22  2  0
 22 23  1  0
 23 24  2  0
 24 25  1  0
 25 26  2  0
 26 27  1  0
 27 28  2  0
 27 29  1  0
 29 30  2  0
 30 31  1  0
 31 32  2  0
 32 33  1  0
 33 34  2  0
 19  4  1  0
 26 21  1  0
 34 29  1  0
 16 11  1  0
  3 35  1  0
  3 36  1  0
  5 37  1  0
  5 38  1  0
  6 39  1  0
  6 40  1  0
 12 41  1  0
 13 42  1  0
 14 43  1  0
 15 44  1  0
 18 45  1  0
 18 46  1  0
 19 47  1  0
 19 48  1  0
 20 49  1  0
 22 50  1  0
 23 51  1  0
 24 52  1  0
 25 53  1  0
 30 54  1  0
 31 55  1  0
 32 56  1  0
 33 57  1  0
 34 58  1  0
M  END
$$$$
