
     RDKit          3D

 57 61  0  0  0  0  0  0  0  0999 V2000
    7.6987    0.2415    1.5877 C   0  0  0  0  0  0  0  0  0  0  0  0
    6.6101   -0.7254    1.2277 C   0  0  0  0  0  0  0  0  0  0  0  0
    6.7908   -1.6348    0.1800 C   0  0  0  0  0  0  0  0  0  0  0  0
    5.7675   -2.5146   -0.1799 C   0  0  0  0  0  0  0  0  0  0  0  0
    4.5418   -2.4966    0.4994 C   0  0  0  0  0  0  0  0  0  0  0  0
    3.4327   -3.4381    0.1033 C   0  0  0  0  0  0  0  0  0  0  0  0
    2.6873   -2.9346   -1.0307 N   0  0  0  0  0  0  0  0  0  0  0  0
    2.9609   -3.3618   -2.2890 N   0  0  0  0  0  0  0  0  0  0  0  0
    2.1139   -2.7509   -3.1178 N   0  0  0  0  0  0  0  0  0  0  0  0
    1.3052   -1.9607   -2.3598 C   0  0  0  0  0  0  0  0  0  0  0  0
    0.2221   -1.0906   -2.7331 C   0  0  0  0  0  0  0  0  0  0  0  0
   -0.1875   -0.9132   -3.8744 O   0  0  0  0  0  0  0  0  0  0  0  0
   -0.3385   -0.4600   -1.6294 N   0  0  0  0  0  0  0  0  0  0  0  0
    0.0768   -0.6641   -0.3141 C   0  0  0  0  0  0  0  0  0  0  0  0
   -0.6798    0.1093    0.7584 C   0  0  0  0  0  0  0  0  0  0  0  0
   -2.1512   -0.3462    0.7714 C   0  0  0  0  0  0  0  0  0  0  0  0
   -3.1132    0.6740    1.3565 C   0  0  0  0  0  0  0  0  0  0  0  0
   -2.8524    2.0328    0.8296 N   0  0  0  0  0  0  0  0  0  0  0  0
   -3.2925    2.3771   -0.7864 S   0  0  0  0  0  6  0  0  0  0  0  0
   -2.6531    1.3825   -1.6286 O   0  0  0  0  0  0  0  0  0  0  0  0
   -3.0802    3.7885   -1.0167 O   0  0  0  0  0  0  0  0  0  0  0  0
   -5.0433    2.0939   -0.7945 C   0  0  0  0  0  0  0  0  0  0  0  0
   -5.8655    2.9267   -0.0253 C   0  0  0  0  0  0  0  0  0  0  0  0
   -7.2436    2.7116   -0.0203 C   0  0  0  0  0  0  0  0  0  0  0  0
   -7.7802    1.6781   -0.7833 C   0  0  0  0  0  0  0  0  0  0  0  0
   -9.1034    1.4727   -0.7741 F   0  0  0  0  0  0  0  0  0  0  0  0
   -6.9657    0.8546   -1.5570 C   0  0  0  0  0  0  0  0  0  0  0  0
   -5.5857    1.0618   -1.5684 C   0  0  0  0  0  0  0  0  0  0  0  0
   -1.4959    2.4875    1.2196 C   0  0  0  0  0  0  0  0  0  0  0  0
   -0.4375    1.6172    0.5626 C   0  0  0  0  0  0  0  0  0  0  0  0
    1.0493   -1.4610    0.0347 N   0  0  0  0  0  0  0  0  0  0  0  0
    1.6299   -2.0705   -1.0289 C   0  0  0  0  0  0  0  0  0  0  0  0
    4.3544   -1.5680    1.5323 C   0  0  0  0  0  0  0  0  0  0  0  0
    5.3789   -0.6889    1.8910 C   0  0  0  0  0  0  0  0  0  0  0  0
    7.6247    1.1379    0.9642 H   0  0  0  0  0  0  0  0  0  0  0  0
    8.6851   -0.2118    1.4426 H   0  0  0  0  0  0  0  0  0  0  0  0
    7.6290    0.5361    2.6400 H   0  0  0  0  0  0  0  0  0  0  0  0
    7.7304   -1.6617   -0.3679 H   0  0  0  0  0  0  0  0  0  0  0  0
    5.9306   -3.2075   -1.0041 H   0  0  0  0  0  0  0  0  0  0  0  0
    3.8360   -4.4234   -0.1589 H   0  0  0  0  0  0  0  0  0  0  0  0
    2.7288   -3.5922    0.9294 H   0  0  0  0  0  0  0  0  0  0  0  0
   -1.1106    0.1697   -1.8436 H   0  0  0  0  0  0  0  0  0  0  0  0
   -0.2529   -0.1593    1.7348 H   0  0  0  0  0  0  0  0  0  0  0  0
   -2.4966   -0.6276   -0.2287 H   0  0  0  0  0  0  0  0  0  0  0  0
   -2.2264   -1.2768    1.3496 H   0  0  0  0  0  0  0  0  0  0  0  0
   -3.0052    0.7003    2.4483 H   0  0  0  0  0  0  0  0  0  0  0  0
   -4.1502    0.3776    1.1722 H   0  0  0  0  0  0  0  0  0  0  0  0
   -5.4376    3.7365    0.5623 H   0  0  0  0  0  0  0  0  0  0  0  0
   -7.9029    3.3431    0.5675 H   0  0  0  0  0  0  0  0  0  0  0  0
   -7.4134    0.0618   -2.1488 H   0  0  0  0  0  0  0  0  0  0  0  0
   -4.9510    0.4247   -2.1805 H   0  0  0  0  0  0  0  0  0  0  0  0
   -1.3546    3.5409    0.9559 H   0  0  0  0  0  0  0  0  0  0  0  0
   -1.4038    2.4359    2.3116 H   0  0  0  0  0  0  0  0  0  0  0  0
    0.5467    1.8754    0.9745 H   0  0  0  0  0  0  0  0  0  0  0  0
   -0.3692    1.8778   -0.4992 H   0  0  0  0  0  0  0  0  0  0  0  0
    3.4037   -1.5151    2.0592 H   0  0  0  0  0  0  0  0  0  0  0  0
    5.2083    0.0280    2.6909 H   0  0  0  0  0  0  0  0  0  0  0  0
  1  2  1  0
  2  3  2  0
  3  4  1  0
  4  5  2  0
  5  6  1  0
  6  7  1  0
  7  8  1  0
  8  9  2  0
  9 10  1  0
 10 11  1  0
 11 12  2  0
 11 13  1  0
 13 14  1  0
 14 15  1  0
 15 16  1  0
 16 17  1  0
 17 18  1  0
 18 19  1  0
 19 20  2  0
 19 21  2  0
 19 22  1  0
 22 23  2  0
 23 24  1  0
 24 25  2  0
 25 26  1  0
 25 27  1  0
 27 28  2  0
 18 29  1  0
 29 30  1  0
 14 31  2  0
 31 32  1  0
  5 33  1  0
 33 34  2  0
 34  2  1  0
 32  7  1  0
 32 10  2  0
 30 15  1  0
 28 22  1  0
  1 35  1  0
  1 36  1  0
  1 37  1  0
  3 38  1  0
  4 39  1  0
  6 40  1  0
  6 41  1  0
 13 42  1  0
 15 43  1  0
 16 44  1  0
 16 45  1  0
 17 46  1  0
 17 47  1  0
 23 48  1  0
 24 49  1  0
 27 50  1  0
 28 51  1  0
 29 52  1  0
 29 53  1  0
 30 54  1  0
 30 55  1  0
 33 56  1  0
 34 57  1  0
M  END
$$$$
