
     RDKit          3D

 30 31  0  0  0  0  0  0  0  0999 V2000
   -3.2437    2.5313    0.1385 C   0  0  0  0  0  0  0  0  0  0  0  0
   -2.3090    1.5014   -0.3864 C   0  0  0  0  0  0  0  0  0  0  0  0
   -1.5690    1.7816   -1.4668 N   0  0  0  0  0  0  0  0  0  0  0  0
   -0.8541    0.6585   -1.6847 N   0  0  0  0  0  0  0  0  0  0  0  0
    0.0307    0.6367   -2.8278 C   0  0  0  0  0  0  0  0  0  0  0  0
   -1.0928   -0.3262   -0.7580 C   0  0  0  0  0  0  0  0  0  0  0  0
   -0.2704   -1.8652   -0.8196 S   0  0  0  0  0  0  0  0  0  0  0  0
    1.2763   -1.3864   -0.0425 C   0  0  0  0  0  0  0  0  0  0  0  0
    2.4068   -1.2569   -0.8642 C   0  0  0  0  0  0  0  0  0  0  0  0
    3.6309   -0.8563   -0.3298 C   0  0  0  0  0  0  0  0  0  0  0  0
    3.7331   -0.5779    1.0288 C   0  0  0  0  0  0  0  0  0  0  0  0
    2.6205   -0.7322    1.8580 C   0  0  0  0  0  0  0  0  0  0  0  0
    1.3991   -1.1940    1.3495 C   0  0  0  0  0  0  0  0  0  0  0  0
    0.2898   -1.2495    2.2138 N   0  0  0  0  0  0  0  0  0  0  0  0
   -2.0620    0.1852    0.0893 C   0  0  0  0  0  0  0  0  0  0  0  0
   -2.6892   -0.4611    1.2071 N   0  0  0  0  0  4  0  0  0  0  0  0
   -3.3809    0.2461    1.9515 O   0  0  0  0  0  0  0  0  0  0  0  0
   -2.5191   -1.6801    1.3482 O   0  0  0  0  0  1  0  0  0  0  0  0
   -2.9347    2.8559    1.1372 H   0  0  0  0  0  0  0  0  0  0  0  0
   -4.2631    2.1365    0.1937 H   0  0  0  0  0  0  0  0  0  0  0  0
   -3.2672    3.4163   -0.5068 H   0  0  0  0  0  0  0  0  0  0  0  0
    0.0040   -0.3491   -3.2961 H   0  0  0  0  0  0  0  0  0  0  0  0
    1.0376    0.8846   -2.4857 H   0  0  0  0  0  0  0  0  0  0  0  0
   -0.3058    1.3809   -3.5554 H   0  0  0  0  0  0  0  0  0  0  0  0
    2.3414   -1.4588   -1.9305 H   0  0  0  0  0  0  0  0  0  0  0  0
    4.4990   -0.7483   -0.9749 H   0  0  0  0  0  0  0  0  0  0  0  0
    4.6776   -0.2393    1.4471 H   0  0  0  0  0  0  0  0  0  0  0  0
    2.7158   -0.4946    2.9146 H   0  0  0  0  0  0  0  0  0  0  0  0
   -0.4345   -1.8873    1.8732 H   0  0  0  0  0  0  0  0  0  0  0  0
    0.5329   -1.4518    3.1788 H   0  0  0  0  0  0  0  0  0  0  0  0
  1  2  1  0
  2  3  2  0
  3  4  1  0
  4  5  1  0
  4  6  1  0
  6  7  1  0
  7  8  1  0
  8  9  2  0
  9 10  1  0
 10 11  2  0
 11 12  1  0
 12 13  2  0
 13 14  1  0
  6 15  2  0
 15 16  1  0
 16 17  2  0
 16 18  1  0
 15  2  1  0
 13  8  1  0
  1 19  1  0
  1 20  1  0
  1 21  1  0
  5 22  1  0
  5 23  1  0
  5 24  1  0
  9 25  1  0
 10 26  1  0
 11 27  1  0
 12 28  1  0
 14 29  1  0
 14 30  1  0
M  CHG  2  16   1  18  -1
M  END
$$$$
