
     RDKit          3D

 61 65  0  0  0  0  0  0  0  0999 V2000
   -4.7184   -1.0241   -3.5952 C   0  0  0  0  0  0  0  0  0  0  0  0
   -4.4297   -0.4125   -2.3460 O   0  0  0  0  0  0  0  0  0  0  0  0
   -4.5361   -1.1913   -1.2206 C   0  0  0  0  0  0  0  0  0  0  0  0
   -4.7123   -2.5802   -1.2373 C   0  0  0  0  0  0  0  0  0  0  0  0
   -4.7850   -3.3014   -0.0418 C   0  0  0  0  0  0  0  0  0  0  0  0
   -4.6781   -2.6454    1.1807 C   0  0  0  0  0  0  0  0  0  0  0  0
   -4.5004   -1.2636    1.2112 C   0  0  0  0  0  0  0  0  0  0  0  0
   -4.4314   -0.5254    0.0182 C   0  0  0  0  0  0  0  0  0  0  0  0
   -4.2364    0.9284    0.1024 C   0  0  0  0  0  0  0  0  0  0  0  0
   -5.6093    1.9391   -0.0239 S   0  0  0  0  0  0  0  0  0  0  0  0
   -4.6824    3.3714    0.1818 C   0  0  0  0  0  0  0  0  0  0  0  0
   -5.1659    4.6954    0.1895 C   0  0  0  0  0  0  0  0  0  0  0  0
   -4.2648    5.7466    0.3697 C   0  0  0  0  0  0  0  0  0  0  0  0
   -2.9119    5.4920    0.5375 C   0  0  0  0  0  0  0  0  0  0  0  0
   -2.4372    4.1772    0.5293 C   0  0  0  0  0  0  0  0  0  0  0  0
   -3.3262    3.0843    0.3523 C   0  0  0  0  0  0  0  0  0  0  0  0
   -3.0781    1.6599    0.3078 C   0  0  0  0  0  0  0  0  0  0  0  0
   -1.7812    1.0113    0.4652 C   0  0  0  0  0  0  0  0  0  0  0  0
   -1.1424    1.0169    1.7078 C   0  0  0  0  0  0  0  0  0  0  0  0
    0.1024    0.4004    1.8542 C   0  0  0  0  0  0  0  0  0  0  0  0
    0.7228   -0.2227    0.7680 C   0  0  0  0  0  0  0  0  0  0  0  0
    1.9342   -0.7879    1.0535 O   0  0  0  0  0  0  0  0  0  0  0  0
    2.6477   -1.3864   -0.0296 C   0  0  0  0  0  0  0  0  0  0  0  0
    3.9905   -1.9480    0.4809 C   0  0  0  0  0  0  0  0  0  0  0  0
    4.9293   -0.9528    1.0375 N   0  0  0  0  0  0  0  0  0  0  0  0
    5.4018    0.0458    0.0701 C   0  0  0  0  0  0  0  0  0  0  0  0
    6.3896   -0.5097   -0.9585 C   0  0  0  0  0  0  0  0  0  0  0  0
    7.5686   -1.1958   -0.2755 C   0  0  0  0  0  0  0  0  0  0  0  0
    7.0894   -2.2121    0.7561 C   0  0  0  0  0  0  0  0  0  0  0  0
    6.0674   -1.5939    1.7142 C   0  0  0  0  0  0  0  0  0  0  0  0
    0.0855   -0.2260   -0.4732 C   0  0  0  0  0  0  0  0  0  0  0  0
   -1.1612    0.3914   -0.6247 C   0  0  0  0  0  0  0  0  0  0  0  0
   -4.6815   -0.2464   -4.3641 H   0  0  0  0  0  0  0  0  0  0  0  0
   -5.7255   -1.4542   -3.6056 H   0  0  0  0  0  0  0  0  0  0  0  0
   -3.9632   -1.7755   -3.8472 H   0  0  0  0  0  0  0  0  0  0  0  0
   -4.7877   -3.1354   -2.1660 H   0  0  0  0  0  0  0  0  0  0  0  0
   -4.9200   -4.3800   -0.0673 H   0  0  0  0  0  0  0  0  0  0  0  0
   -4.7296   -3.2073    2.1096 H   0  0  0  0  0  0  0  0  0  0  0  0
   -4.4134   -0.7580    2.1705 H   0  0  0  0  0  0  0  0  0  0  0  0
   -6.2250    4.8965    0.0557 H   0  0  0  0  0  0  0  0  0  0  0  0
   -4.6288    6.7711    0.3760 H   0  0  0  0  0  0  0  0  0  0  0  0
   -2.2152    6.3152    0.6742 H   0  0  0  0  0  0  0  0  0  0  0  0
   -1.3728    3.9927    0.6566 H   0  0  0  0  0  0  0  0  0  0  0  0
   -1.6072    1.4942    2.5668 H   0  0  0  0  0  0  0  0  0  0  0  0
    0.5959    0.4054    2.8231 H   0  0  0  0  0  0  0  0  0  0  0  0
    2.0634   -2.2272   -0.4243 H   0  0  0  0  0  0  0  0  0  0  0  0
    2.8126   -0.6632   -0.8353 H   0  0  0  0  0  0  0  0  0  0  0  0
    4.4559   -2.5208   -0.3290 H   0  0  0  0  0  0  0  0  0  0  0  0
    3.7456   -2.6613    1.2788 H   0  0  0  0  0  0  0  0  0  0  0  0
    4.5654    0.5322   -0.4417 H   0  0  0  0  0  0  0  0  0  0  0  0
    5.8943    0.8537    0.6279 H   0  0  0  0  0  0  0  0  0  0  0  0
    5.8841   -1.2185   -1.6248 H   0  0  0  0  0  0  0  0  0  0  0  0
    6.7590    0.3064   -1.5901 H   0  0  0  0  0  0  0  0  0  0  0  0
    8.2022   -1.6873   -1.0221 H   0  0  0  0  0  0  0  0  0  0  0  0
    8.1884   -0.4397    0.2224 H   0  0  0  0  0  0  0  0  0  0  0  0
    7.9473   -2.5861    1.3265 H   0  0  0  0  0  0  0  0  0  0  0  0
    6.6518   -3.0773    0.2443 H   0  0  0  0  0  0  0  0  0  0  0  0
    6.5715   -0.8384    2.3314 H   0  0  0  0  0  0  0  0  0  0  0  0
    5.7138   -2.3548    2.4207 H   0  0  0  0  0  0  0  0  0  0  0  0
    0.5255   -0.7000   -1.3434 H   0  0  0  0  0  0  0  0  0  0  0  0
   -1.6475    0.3834   -1.5981 H   0  0  0  0  0  0  0  0  0  0  0  0
  1  2  1  0
  2  3  1  0
  3  4  2  0
  4  5  1  0
  5  6  2  0
  6  7  1  0
  7  8  2  0
  8  9  1  0
  9 10  1  0
 10 11  1  0
 11 12  2  0
 12 13  1  0
 13 14  2  0
 14 15  1  0
 15 16  2  0
 16 17  1  0
 17 18  1  0
 18 19  2  0
 19 20  1  0
 20 21  2  0
 21 22  1  0
 22 23  1  0
 23 24  1  0
 24 25  1  0
 25 26  1  0
 26 27  1  0
 27 28  1  0
 28 29  1  0
 29 30  1  0
 21 31  1  0
 31 32  2  0
  8  3  1  0
 17  9  2  0
 32 18  1  0
 16 11  1  0
 30 25  1  0
  1 33  1  0
  1 34  1  0
  1 35  1  0
  4 36  1  0
  5 37  1  0
  6 38  1  0
  7 39  1  0
 12 40  1  0
 13 41  1  0
 14 42  1  0
 15 43  1  0
 19 44  1  0
 20 45  1  0
 23 46  1  0
 23 47  1  0
 24 48  1  0
 24 49  1  0
 26 50  1  0
 26 51  1  0
 27 52  1  0
 27 53  1  0
 28 54  1  0
 28 55  1  0
 29 56  1  0
 29 57  1  0
 30 58  1  0
 30 59  1  0
 31 60  1  0
 32 61  1  0
M  END
$$$$
