
     RDKit          3D

 48 51  0  0  0  0  0  0  0  0999 V2000
    6.8607   -0.7960   -1.5744 O   0  0  0  0  0  0  0  0  0  0  0  0
    5.4542   -1.0046   -1.3045 S   0  0  0  0  0  6  0  0  0  0  0  0
    4.5642   -1.5111   -2.3255 O   0  0  0  0  0  0  0  0  0  0  0  0
    4.8630    0.4627   -0.7088 N   0  0  0  0  0  0  0  0  0  0  0  0
    3.4556    0.6101   -0.5849 C   0  0  0  0  0  0  0  0  0  0  0  0
    2.6903    1.0012   -1.6774 C   0  0  0  0  0  0  0  0  0  0  0  0
    1.3020    1.1141   -1.5470 C   0  0  0  0  0  0  0  0  0  0  0  0
    0.6474    0.8341   -0.3308 C   0  0  0  0  0  0  0  0  0  0  0  0
   -0.8192    0.9600   -0.2209 C   0  0  0  0  0  0  0  0  0  0  0  0
   -1.6032    0.2295    0.6583 C   0  0  0  0  0  0  0  0  0  0  0  0
   -2.9883    0.4246    0.6735 C   0  0  0  0  0  0  0  0  0  0  0  0
   -3.5840    1.3344   -0.1908 C   0  0  0  0  0  0  0  0  0  0  0  0
   -4.9583    1.5578   -0.1748 N   0  0  0  0  0  0  0  0  0  0  0  0
   -5.4355    2.6440   -1.0488 C   0  0  0  0  0  0  0  0  0  0  0  0
   -6.9562    2.7950   -0.8846 C   0  0  0  0  0  0  0  0  0  0  0  0
   -7.7018    1.6141   -1.2256 O   0  0  0  0  0  0  0  0  0  0  0  0
   -6.9173    0.4150   -1.1843 C   0  0  0  0  0  0  0  0  0  0  0  0
   -5.8684    0.4041   -0.0584 C   0  0  0  0  0  0  0  0  0  0  0  0
   -2.7850    2.0381   -1.0180 N   0  0  0  0  0  0  0  0  0  0  0  0
   -1.4101    1.8478   -1.0450 N   0  0  0  0  0  0  0  0  0  0  0  0
    1.4523    0.4427    0.7563 C   0  0  0  0  0  0  0  0  0  0  0  0
    2.8418    0.3262    0.6307 C   0  0  0  0  0  0  0  0  0  0  0  0
    5.3499   -2.0636    0.1174 C   0  0  0  0  0  0  0  0  0  0  0  0
    4.3518   -3.0396    0.1872 C   0  0  0  0  0  0  0  0  0  0  0  0
    4.2866   -3.8749    1.3041 C   0  0  0  0  0  0  0  0  0  0  0  0
    5.2171   -3.7380    2.3413 C   0  0  0  0  0  0  0  0  0  0  0  0
    5.0679   -4.8004    3.6957 Cl  0  0  0  0  0  0  0  0  0  0  0  0
    6.2223   -2.7642    2.2568 C   0  0  0  0  0  0  0  0  0  0  0  0
    7.4010   -2.5425    3.5001 Cl  0  0  0  0  0  0  0  0  0  0  0  0
    6.2933   -1.9271    1.1403 C   0  0  0  0  0  0  0  0  0  0  0  0
    5.3762    1.2458   -1.1143 H   0  0  0  0  0  0  0  0  0  0  0  0
    3.1528    1.2067   -2.6391 H   0  0  0  0  0  0  0  0  0  0  0  0
    0.7227    1.4193   -2.4189 H   0  0  0  0  0  0  0  0  0  0  0  0
   -1.1678   -0.4994    1.3322 H   0  0  0  0  0  0  0  0  0  0  0  0
   -3.5875   -0.1305    1.3875 H   0  0  0  0  0  0  0  0  0  0  0  0
   -4.9550    3.5917   -0.7778 H   0  0  0  0  0  0  0  0  0  0  0  0
   -5.2039    2.4167   -2.0972 H   0  0  0  0  0  0  0  0  0  0  0  0
   -7.3253    3.6099   -1.5149 H   0  0  0  0  0  0  0  0  0  0  0  0
   -7.2024    3.0454    0.1537 H   0  0  0  0  0  0  0  0  0  0  0  0
   -7.6084   -0.4249   -1.0594 H   0  0  0  0  0  0  0  0  0  0  0  0
   -6.4337    0.2937   -2.1605 H   0  0  0  0  0  0  0  0  0  0  0  0
   -5.3411   -0.5559   -0.0944 H   0  0  0  0  0  0  0  0  0  0  0  0
   -6.3769    0.4756    0.9096 H   0  0  0  0  0  0  0  0  0  0  0  0
    1.0108    0.2412    1.7303 H   0  0  0  0  0  0  0  0  0  0  0  0
    3.4341    0.0352    1.4937 H   0  0  0  0  0  0  0  0  0  0  0  0
    3.6262   -3.1549   -0.6167 H   0  0  0  0  0  0  0  0  0  0  0  0
    3.5090   -4.6345    1.3596 H   0  0  0  0  0  0  0  0  0  0  0  0
    7.0762   -1.1746    1.0667 H   0  0  0  0  0  0  0  0  0  0  0  0
  1  2  2  0
  2  3  2  0
  2  4  1  0
  4  5  1  0
  5  6  2  0
  6  7  1  0
  7  8  2  0
  8  9  1  0
  9 10  2  0
 10 11  1  0
 11 12  2  0
 12 13  1  0
 13 14  1  0
 14 15  1  0
 15 16  1  0
 16 17  1  0
 17 18  1  0
 12 19  1  0
 19 20  2  0
  8 21  1  0
 21 22  2  0
  2 23  1  0
 23 24  2  0
 24 25  1  0
 25 26  2  0
 26 27  1  0
 26 28  1  0
 28 29  1  0
 28 30  2  0
 22  5  1  0
 30 23  1  0
 20  9  1  0
 18 13  1  0
  4 31  1  0
  6 32  1  0
  7 33  1  0
 10 34  1  0
 11 35  1  0
 14 36  1  0
 14 37  1  0
 15 38  1  0
 15 39  1  0
 17 40  1  0
 17 41  1  0
 18 42  1  0
 18 43  1  0
 21 44  1  0
 22 45  1  0
 24 46  1  0
 25 47  1  0
 30 48  1  0
M  END
$$$$
