
     RDKit          3D

 69 71  0  0  0  0  0  0  0  0999 V2000
   -5.8200    2.5661   -2.7473 C   0  0  0  0  0  0  0  0  0  0  0  0
   -5.3924    3.8429   -2.0390 C   0  0  0  0  0  0  0  0  0  0  0  0
   -4.0749    3.7028   -1.2693 C   0  0  0  0  0  0  0  0  0  0  0  0
   -4.1588    2.7670   -0.1410 N   0  0  0  0  0  0  0  0  0  0  0  0
   -4.7501    3.2660    1.1077 C   0  0  0  0  0  0  0  0  0  0  0  0
   -3.8324    4.2081    1.8939 C   0  0  0  0  0  0  0  0  0  0  0  0
   -2.5724    3.5357    2.4161 C   0  0  0  0  0  0  0  0  0  0  0  0
   -3.6871    1.4639   -0.3377 C   0  0  0  0  0  0  0  0  0  0  0  0
   -3.1811    1.1180   -1.4088 O   0  0  0  0  0  0  0  0  0  0  0  0
   -3.8786    0.4610    0.8108 C   0  0  0  0  0  0  0  0  0  0  0  0
   -3.2892   -0.8424    0.4978 N   0  0  0  0  0  0  0  0  0  0  0  0
   -1.9603   -1.0551    0.8828 C   0  0  0  0  0  0  0  0  0  0  0  0
   -1.3362   -0.1986    1.5170 O   0  0  0  0  0  0  0  0  0  0  0  0
   -1.3774   -2.2831    0.5421 N   0  0  0  0  0  0  0  0  0  0  0  0
    0.0100   -2.5060    0.9398 C   0  0  0  0  0  0  0  0  0  0  0  0
    0.9903   -1.9440   -0.0951 C   0  0  0  0  0  0  0  0  0  0  0  0
    2.4397   -2.3783    0.1383 C   0  0  0  0  0  0  0  0  0  0  0  0
    3.0097   -1.9168    1.4836 C   0  0  0  0  0  0  0  0  0  0  0  0
    4.4954   -2.2555    1.6223 C   0  0  0  0  0  0  0  0  0  0  0  0
    5.4051   -1.3538    0.7963 C   0  0  0  0  0  0  0  0  0  0  0  0
    5.0106   -0.2974    0.3159 O   0  0  0  0  0  0  0  0  0  0  0  0
    6.6898   -1.8704    0.7139 N   0  0  0  0  0  0  0  0  0  0  0  0
    7.7998   -1.3121    0.0466 C   0  0  0  0  0  0  0  0  0  0  0  0
    7.7663   -0.1041   -0.6519 C   0  0  0  0  0  0  0  0  0  0  0  0
    8.9156    0.3820   -1.2842 C   0  0  0  0  0  0  0  0  0  0  0  0
   10.1068   -0.3397   -1.2307 C   0  0  0  0  0  0  0  0  0  0  0  0
   10.1512   -1.5492   -0.5423 C   0  0  0  0  0  0  0  0  0  0  0  0
    9.0037   -2.0316    0.0942 C   0  0  0  0  0  0  0  0  0  0  0  0
   -1.9894   -3.2822   -0.2259 C   0  0  0  0  0  0  0  0  0  0  0  0
   -1.4142   -4.3245   -0.5396 O   0  0  0  0  0  0  0  0  0  0  0  0
   -3.3392   -2.9673   -0.6004 C   0  0  0  0  0  0  0  0  0  0  0  0
   -4.3168   -4.0077   -1.5197 S   0  0  0  0  0  0  0  0  0  0  0  0
   -5.6097   -2.8847   -1.4984 C   0  0  0  0  0  0  0  0  0  0  0  0
   -5.2878   -1.7416   -0.7944 C   0  0  0  0  0  0  0  0  0  0  0  0
   -3.9651   -1.7978   -0.2625 C   0  0  0  0  0  0  0  0  0  0  0  0
   -6.7214    2.7506   -3.3405 H   0  0  0  0  0  0  0  0  0  0  0  0
   -5.0363    2.2111   -3.4236 H   0  0  0  0  0  0  0  0  0  0  0  0
   -6.0510    1.7700   -2.0331 H   0  0  0  0  0  0  0  0  0  0  0  0
   -6.1962    4.1651   -1.3682 H   0  0  0  0  0  0  0  0  0  0  0  0
   -5.2715    4.6328   -2.7899 H   0  0  0  0  0  0  0  0  0  0  0  0
   -3.7757    4.6826   -0.8838 H   0  0  0  0  0  0  0  0  0  0  0  0
   -3.2828    3.3923   -1.9604 H   0  0  0  0  0  0  0  0  0  0  0  0
   -5.6732    3.7964    0.8485 H   0  0  0  0  0  0  0  0  0  0  0  0
   -5.0499    2.4371    1.7532 H   0  0  0  0  0  0  0  0  0  0  0  0
   -3.5489    5.0702    1.2810 H   0  0  0  0  0  0  0  0  0  0  0  0
   -4.3941    4.6051    2.7482 H   0  0  0  0  0  0  0  0  0  0  0  0
   -2.8179    2.7078    3.0884 H   0  0  0  0  0  0  0  0  0  0  0  0
   -1.9558    3.1510    1.5980 H   0  0  0  0  0  0  0  0  0  0  0  0
   -1.9700    4.2548    2.9805 H   0  0  0  0  0  0  0  0  0  0  0  0
   -4.9473    0.3302    1.0069 H   0  0  0  0  0  0  0  0  0  0  0  0
   -3.4147    0.8587    1.7167 H   0  0  0  0  0  0  0  0  0  0  0  0
    0.1836   -3.5803    1.0727 H   0  0  0  0  0  0  0  0  0  0  0  0
    0.1815   -2.0370    1.9152 H   0  0  0  0  0  0  0  0  0  0  0  0
    0.6930   -2.2743   -1.0978 H   0  0  0  0  0  0  0  0  0  0  0  0
    0.9314   -0.8496   -0.1041 H   0  0  0  0  0  0  0  0  0  0  0  0
    2.5061   -3.4709    0.0686 H   0  0  0  0  0  0  0  0  0  0  0  0
    3.0492   -1.9761   -0.6801 H   0  0  0  0  0  0  0  0  0  0  0  0
    2.4712   -2.4195    2.2951 H   0  0  0  0  0  0  0  0  0  0  0  0
    2.8493   -0.8400    1.6103 H   0  0  0  0  0  0  0  0  0  0  0  0
    4.7905   -2.1246    2.6713 H   0  0  0  0  0  0  0  0  0  0  0  0
    4.6685   -3.3046    1.3530 H   0  0  0  0  0  0  0  0  0  0  0  0
    6.8561   -2.7521    1.1818 H   0  0  0  0  0  0  0  0  0  0  0  0
    6.8598    0.4877   -0.7280 H   0  0  0  0  0  0  0  0  0  0  0  0
    8.8754    1.3293   -1.8180 H   0  0  0  0  0  0  0  0  0  0  0  0
   10.9965    0.0430   -1.7232 H   0  0  0  0  0  0  0  0  0  0  0  0
   11.0791   -2.1137   -0.4952 H   0  0  0  0  0  0  0  0  0  0  0  0
    9.0693   -2.9745    0.6297 H   0  0  0  0  0  0  0  0  0  0  0  0
   -6.5362   -3.1126   -2.0081 H   0  0  0  0  0  0  0  0  0  0  0  0
   -5.9785   -0.9150   -0.6881 H   0  0  0  0  0  0  0  0  0  0  0  0
  1  2  1  0
  2  3  1  0
  3  4  1  0
  4  5  1  0
  5  6  1  0
  6  7  1  0
  4  8  1  0
  8  9  2  0
  8 10  1  0
 10 11  1  0
 11 12  1  0
 12 13  2  0
 12 14  1  0
 14 15  1  0
 15 16  1  0
 16 17  1  0
 17 18  1  0
 18 19  1  0
 19 20  1  0
 20 21  2  0
 20 22  1  0
 22 23  1  0
 23 24  2  0
 24 25  1  0
 25 26  2  0
 26 27  1  0
 27 28  2  0
 14 29  1  0
 29 30  2  0
 29 31  1  0
 31 32  1  0
 32 33  1  0
 33 34  2  0
 34 35  1  0
 35 11  1  0
 28 23  1  0
 35 31  2  0
  1 36  1  0
  1 37  1  0
  1 38  1  0
  2 39  1  0
  2 40  1  0
  3 41  1  0
  3 42  1  0
  5 43  1  0
  5 44  1  0
  6 45  1  0
  6 46  1  0
  7 47  1  0
  7 48  1  0
  7 49  1  0
 10 50  1  0
 10 51  1  0
 15 52  1  0
 15 53  1  0
 16 54  1  0
 16 55  1  0
 17 56  1  0
 17 57  1  0
 18 58  1  0
 18 59  1  0
 19 60  1  0
 19 61  1  0
 22 62  1  0
 24 63  1  0
 25 64  1  0
 26 65  1  0
 27 66  1  0
 28 67  1  0
 33 68  1  0
 34 69  1  0
M  END
$$$$
