
     RDKit          3D

 30 31  0  0  0  0  0  0  0  0999 V2000
    2.9666   -2.5535    1.3468 N   0  0  0  0  0  0  0  0  0  0  0  0
    2.2790   -1.7401    0.8853 C   0  0  0  0  0  0  0  0  0  0  0  0
    1.4117   -0.7384    0.3777 C   0  0  0  0  0  0  0  0  0  0  0  0
    0.9563    0.3311    1.0544 C   0  0  0  0  0  0  0  0  0  0  0  0
    1.2232    0.6452    2.4183 C   0  0  0  0  0  0  0  0  0  0  0  0
    2.2675    0.3138    3.2826 C   0  0  0  0  0  0  0  0  0  0  0  0
    2.0209    0.9217    4.5420 C   0  0  0  0  0  0  0  0  0  0  0  0
    0.8448    1.6026    4.3810 C   0  0  0  0  0  0  0  0  0  0  0  0
    0.0779    2.4099    5.2755 N   0  0  0  0  0  4  0  0  0  0  0  0
   -0.9784    2.8963    4.8520 O   0  0  0  0  0  0  0  0  0  0  0  0
    0.5391    2.5543    6.4155 O   0  0  0  0  0  1  0  0  0  0  0  0
    0.3567    1.4594    3.1244 O   0  0  0  0  0  0  0  0  0  0  0  0
    1.0082   -0.8646   -1.0519 C   0  0  0  0  0  0  0  0  0  0  0  0
    1.8738   -0.9386   -1.9142 O   0  0  0  0  0  0  0  0  0  0  0  0
   -0.3629   -0.9076   -1.2352 N   0  0  0  0  0  0  0  0  0  0  0  0
   -1.0562   -1.0040   -2.4613 C   0  0  0  0  0  0  0  0  0  0  0  0
   -0.4330   -1.0331   -3.7129 C   0  0  0  0  0  0  0  0  0  0  0  0
   -1.1962   -1.1265   -4.8816 C   0  0  0  0  0  0  0  0  0  0  0  0
   -2.5802   -1.1894   -4.7981 C   0  0  0  0  0  0  0  0  0  0  0  0
   -3.3086   -1.2782   -5.9181 F   0  0  0  0  0  0  0  0  0  0  0  0
   -3.2185   -1.1605   -3.5661 C   0  0  0  0  0  0  0  0  0  0  0  0
   -2.4569   -1.0674   -2.3983 C   0  0  0  0  0  0  0  0  0  0  0  0
    0.3009    1.0400    0.5496 H   0  0  0  0  0  0  0  0  0  0  0  0
    3.1332   -0.2913    3.0436 H   0  0  0  0  0  0  0  0  0  0  0  0
    2.6259    0.8717    5.4373 H   0  0  0  0  0  0  0  0  0  0  0  0
   -0.9483   -0.9040   -0.4080 H   0  0  0  0  0  0  0  0  0  0  0  0
    0.6462   -0.9849   -3.8203 H   0  0  0  0  0  0  0  0  0  0  0  0
   -0.7137   -1.1505   -5.8539 H   0  0  0  0  0  0  0  0  0  0  0  0
   -4.3019   -1.2106   -3.5220 H   0  0  0  0  0  0  0  0  0  0  0  0
   -2.9772   -1.0465   -1.4440 H   0  0  0  0  0  0  0  0  0  0  0  0
  1  2  3  0
  2  3  1  0
  3  4  2  3
  4  5  1  0
  5  6  2  0
  6  7  1  0
  7  8  2  0
  8  9  1  0
  9 10  2  0
  9 11  1  0
  8 12  1  0
  3 13  1  0
 13 14  2  0
 13 15  1  0
 15 16  1  0
 16 17  2  0
 17 18  1  0
 18 19  2  0
 19 20  1  0
 19 21  1  0
 21 22  2  0
 12  5  1  0
 22 16  1  0
  4 23  1  0
  6 24  1  0
  7 25  1  0
 15 26  1  0
 17 27  1  0
 18 28  1  0
 21 29  1  0
 22 30  1  0
M  CHG  2   9   1  11  -1
M  END
$$$$
