
     RDKit          3D

 52 56  0  0  0  0  0  0  0  0999 V2000
    0.2084    1.5219   -2.7173 O   0  0  0  0  0  0  0  0  0  0  0  0
    0.1385    1.0172   -1.6017 C   0  0  0  0  0  0  0  0  0  0  0  0
    1.3786    0.9603   -0.8060 C   0  0  0  0  0  0  0  0  0  0  0  0
    2.3566    0.0686   -1.2397 C   0  0  0  0  0  0  0  0  0  0  0  0
    3.5168   -0.0317   -0.4948 C   0  0  0  0  0  0  0  0  0  0  0  0
    4.5993   -0.9635   -0.8386 C   0  0  0  0  0  0  0  0  0  0  0  0
    4.9413   -1.9775    0.0786 C   0  0  0  0  0  0  0  0  0  0  0  0
    5.9538   -2.9007   -0.1957 C   0  0  0  0  0  0  0  0  0  0  0  0
    6.6558   -2.8230   -1.3939 C   0  0  0  0  0  0  0  0  0  0  0  0
    6.3501   -1.8185   -2.3121 C   0  0  0  0  0  0  0  0  0  0  0  0
    5.3334   -0.8940   -2.0384 C   0  0  0  0  0  0  0  0  0  0  0  0
    5.0551    0.3401   -3.2207 Cl  0  0  0  0  0  0  0  0  0  0  0  0
    3.7081    0.6881    0.6394 N   0  0  0  0  0  0  0  0  0  0  0  0
    2.7795    1.5785    1.0249 C   0  0  0  0  0  0  0  0  0  0  0  0
    3.0214    2.3340    2.1642 C   0  0  0  0  0  0  0  0  0  0  0  0
    2.1082    3.2834    2.6307 C   0  0  0  0  0  0  0  0  0  0  0  0
    0.9230    3.4858    1.9386 C   0  0  0  0  0  0  0  0  0  0  0  0
   -0.3227    4.7647    2.5522 Br  0  0  0  0  0  0  0  0  0  0  0  0
    0.6501    2.7439    0.7939 C   0  0  0  0  0  0  0  0  0  0  0  0
    1.5731    1.7741    0.3286 C   0  0  0  0  0  0  0  0  0  0  0  0
   -1.0289    0.4927   -1.0518 N   0  0  0  0  0  0  0  0  0  0  0  0
   -1.0483   -0.4480    0.0799 C   0  0  0  0  0  0  0  0  0  0  0  0
   -2.3825   -0.4245    0.8502 C   0  0  0  0  0  0  0  0  0  0  0  0
   -3.5154   -0.6104   -0.0811 N   0  0  0  0  0  0  0  0  0  0  0  0
   -4.7547   -0.7088    0.5879 C   0  0  0  0  0  0  0  0  0  0  0  0
   -4.9737   -1.7604    1.4820 C   0  0  0  0  0  0  0  0  0  0  0  0
   -6.1944   -1.8717    2.1461 C   0  0  0  0  0  0  0  0  0  0  0  0
   -7.1867   -0.9380    1.8941 C   0  0  0  0  0  0  0  0  0  0  0  0
   -6.9116    0.0619    0.9813 C   0  0  0  0  0  0  0  0  0  0  0  0
   -5.7316    0.1892    0.3333 N   0  0  0  0  0  0  0  0  0  0  0  0
   -3.5320    0.4193   -1.1491 C   0  0  0  0  0  0  0  0  0  0  0  0
   -2.2053    0.4123   -1.9269 C   0  0  0  0  0  0  0  0  0  0  0  0
    2.2033   -0.5301   -2.1323 H   0  0  0  0  0  0  0  0  0  0  0  0
    4.4091   -2.0468    1.0277 H   0  0  0  0  0  0  0  0  0  0  0  0
    6.1960   -3.6736    0.5315 H   0  0  0  0  0  0  0  0  0  0  0  0
    7.4485   -3.5354   -1.6080 H   0  0  0  0  0  0  0  0  0  0  0  0
    6.9140   -1.7532   -3.2386 H   0  0  0  0  0  0  0  0  0  0  0  0
    3.9543    2.1828    2.7040 H   0  0  0  0  0  0  0  0  0  0  0  0
    2.3390    3.8551    3.5251 H   0  0  0  0  0  0  0  0  0  0  0  0
   -0.2780    2.9210    0.2539 H   0  0  0  0  0  0  0  0  0  0  0  0
   -0.8764   -1.4473   -0.3404 H   0  0  0  0  0  0  0  0  0  0  0  0
   -0.2316   -0.2472    0.7772 H   0  0  0  0  0  0  0  0  0  0  0  0
   -2.4829    0.5372    1.3727 H   0  0  0  0  0  0  0  0  0  0  0  0
   -2.3432   -1.2165    1.6074 H   0  0  0  0  0  0  0  0  0  0  0  0
   -4.2067   -2.5091    1.6504 H   0  0  0  0  0  0  0  0  0  0  0  0
   -6.3668   -2.6863    2.8445 H   0  0  0  0  0  0  0  0  0  0  0  0
   -8.1510   -0.9937    2.3850 H   0  0  0  0  0  0  0  0  0  0  0  0
   -7.6574    0.8112    0.7316 H   0  0  0  0  0  0  0  0  0  0  0  0
   -4.3450    0.2254   -1.8614 H   0  0  0  0  0  0  0  0  0  0  0  0
   -3.6782    1.4180   -0.7141 H   0  0  0  0  0  0  0  0  0  0  0  0
   -2.2002    1.2414   -2.6426 H   0  0  0  0  0  0  0  0  0  0  0  0
   -2.1101   -0.5181   -2.4995 H   0  0  0  0  0  0  0  0  0  0  0  0
  1  2  2  0
  2  3  1  0
  3  4  2  0
  4  5  1  0
  5  6  1  0
  6  7  2  0
  7  8  1  0
  8  9  2  0
  9 10  1  0
 10 11  2  0
 11 12  1  0
  5 13  2  0
 13 14  1  0
 14 15  2  0
 15 16  1  0
 16 17  2  0
 17 18  1  0
 17 19  1  0
 19 20  2  0
  2 21  1  0
 21 22  1  0
 22 23  1  0
 23 24  1  0
 24 25  1  0
 25 26  2  0
 26 27  1  0
 27 28  2  0
 28 29  1  0
 29 30  2  0
 24 31  1  0
 31 32  1  0
 20  3  1  0
 32 21  1  0
 11  6  1  0
 20 14  1  0
 30 25  1  0
  4 33  1  0
  7 34  1  0
  8 35  1  0
  9 36  1  0
 10 37  1  0
 15 38  1  0
 16 39  1  0
 19 40  1  0
 22 41  1  0
 22 42  1  0
 23 43  1  0
 23 44  1  0
 26 45  1  0
 27 46  1  0
 28 47  1  0
 29 48  1  0
 31 49  1  0
 31 50  1  0
 32 51  1  0
 32 52  1  0
M  END
$$$$
