
     RDKit          3D

 38 40  0  0  0  0  0  0  0  0999 V2000
    2.1601    0.3822    1.7516 O   0  0  0  0  0  0  0  0  0  0  0  0
    2.3907    0.7876    0.6149 C   0  0  0  0  0  0  0  0  0  0  0  0
    1.4333    1.4351   -0.1447 N   0  0  0  0  0  0  0  0  0  0  0  0
    0.1172    1.4123    0.3624 N   0  0  0  0  0  0  0  0  0  0  0  0
   -0.8756    1.0005   -0.5154 C   0  0  0  0  0  0  0  0  0  0  0  0
   -0.6597    0.8952   -1.7230 O   0  0  0  0  0  0  0  0  0  0  0  0
   -2.2158    0.7021    0.1544 C   0  0  0  0  0  0  0  0  0  0  0  0
   -2.1481   -0.6710    0.8117 C   0  0  0  0  0  0  0  0  0  0  0  0
   -3.3374   -0.9204    1.5724 O   0  0  0  0  0  0  0  0  0  0  0  0
   -4.4605   -0.5970    0.8540 C   0  0  0  0  0  0  0  0  0  0  0  0
   -5.6743   -1.0875    1.3308 C   0  0  0  0  0  0  0  0  0  0  0  0
   -6.8540   -0.8153    0.6359 C   0  0  0  0  0  0  0  0  0  0  0  0
   -6.8179   -0.0518   -0.5325 C   0  0  0  0  0  0  0  0  0  0  0  0
   -5.6035    0.4513   -1.0024 C   0  0  0  0  0  0  0  0  0  0  0  0
   -4.4280    0.1919   -0.3009 C   0  0  0  0  0  0  0  0  0  0  0  0
   -3.2750    0.7367   -0.8053 O   0  0  0  0  0  0  0  0  0  0  0  0
    3.7177    0.5639   -0.0215 C   0  0  0  0  0  0  0  0  0  0  0  0
    4.1732    1.3505   -1.0901 C   0  0  0  0  0  0  0  0  0  0  0  0
    5.4294    1.1124   -1.6553 C   0  0  0  0  0  0  0  0  0  0  0  0
    6.2417    0.0940   -1.1553 C   0  0  0  0  0  0  0  0  0  0  0  0
    5.7920   -0.6836   -0.0796 C   0  0  0  0  0  0  0  0  0  0  0  0
    6.6482   -1.7522    0.4507 N   0  0  0  0  0  4  0  0  0  0  0  0
    6.1798   -2.4796    1.3369 O   0  0  0  0  0  0  0  0  0  0  0  0
    7.7877   -1.8641   -0.0231 O   0  0  0  0  0  1  0  0  0  0  0  0
    4.5349   -0.4519    0.4932 C   0  0  0  0  0  0  0  0  0  0  0  0
    1.4911    1.4417   -1.1640 H   0  0  0  0  0  0  0  0  0  0  0  0
    0.0556    1.2211    1.3639 H   0  0  0  0  0  0  0  0  0  0  0  0
   -2.4120    1.4879    0.8970 H   0  0  0  0  0  0  0  0  0  0  0  0
   -2.0333   -1.4723    0.0694 H   0  0  0  0  0  0  0  0  0  0  0  0
   -1.3016   -0.7422    1.5029 H   0  0  0  0  0  0  0  0  0  0  0  0
   -5.7005   -1.6902    2.2343 H   0  0  0  0  0  0  0  0  0  0  0  0
   -7.8010   -1.2037    1.0023 H   0  0  0  0  0  0  0  0  0  0  0  0
   -7.7365    0.1543   -1.0761 H   0  0  0  0  0  0  0  0  0  0  0  0
   -5.5751    1.0511   -1.9079 H   0  0  0  0  0  0  0  0  0  0  0  0
    3.5771    2.1706   -1.4837 H   0  0  0  0  0  0  0  0  0  0  0  0
    5.7788    1.7274   -2.4829 H   0  0  0  0  0  0  0  0  0  0  0  0
    7.2175   -0.0765   -1.6075 H   0  0  0  0  0  0  0  0  0  0  0  0
    4.1838   -1.0514    1.3326 H   0  0  0  0  0  0  0  0  0  0  0  0
  1  2  2  0
  2  3  1  0
  3  4  1  0
  4  5  1  0
  5  6  2  0
  5  7  1  0
  7  8  1  0
  8  9  1  0
  9 10  1  0
 10 11  2  0
 11 12  1  0
 12 13  2  0
 13 14  1  0
 14 15  2  0
 15 16  1  0
  2 17  1  0
 17 18  2  0
 18 19  1  0
 19 20  2  0
 20 21  1  0
 21 22  1  0
 22 23  2  0
 22 24  1  0
 21 25  2  0
 16  7  1  0
 25 17  1  0
 15 10  1  0
  3 26  1  0
  4 27  1  0
  7 28  1  0
  8 29  1  0
  8 30  1  0
 11 31  1  0
 12 32  1  0
 13 33  1  0
 14 34  1  0
 18 35  1  0
 19 36  1  0
 20 37  1  0
 25 38  1  0
M  CHG  2  22   1  24  -1
M  END
$$$$
