
     RDKit          3D

 45 47  0  0  0  0  0  0  0  0999 V2000
    2.2847    0.7167   -3.3003 C   0  0  0  0  0  0  0  0  0  0  0  0
    3.0523    0.7191   -2.0124 C   0  0  0  0  0  0  0  0  0  0  0  0
    3.9036   -0.3400   -1.7046 C   0  0  0  0  0  0  0  0  0  0  0  0
    4.5964   -0.3168   -0.4969 C   0  0  0  0  0  0  0  0  0  0  0  0
    4.4160    0.7546    0.3687 C   0  0  0  0  0  0  0  0  0  0  0  0
    3.5470    1.7558   -0.0225 C   0  0  0  0  0  0  0  0  0  0  0  0
    3.2421    2.8687    0.7819 N   0  0  0  0  0  0  0  0  0  0  0  0
    2.3443    2.5576    2.1726 S   0  0  0  0  0  6  0  0  0  0  0  0
    1.9078    3.8425    2.6792 O   0  0  0  0  0  0  0  0  0  0  0  0
    3.0802    1.6398    3.0181 O   0  0  0  0  0  0  0  0  0  0  0  0
    0.9020    1.7134    1.5626 C   0  0  0  0  0  0  0  0  0  0  0  0
    0.8134    0.3238    1.6621 C   0  0  0  0  0  0  0  0  0  0  0  0
   -0.3219   -0.3294    1.1789 C   0  0  0  0  0  0  0  0  0  0  0  0
   -1.3789    0.3956    0.6050 C   0  0  0  0  0  0  0  0  0  0  0  0
   -2.6225   -0.2971    0.0682 C   0  0  0  0  0  0  0  0  0  0  0  0
   -2.3066   -1.3170   -1.0492 C   0  0  0  0  0  0  0  0  0  0  0  0
   -2.4682   -2.7658   -0.5986 C   0  0  0  0  0  0  0  0  0  0  0  0
   -3.8710   -3.0517   -0.0623 C   0  0  0  0  0  0  0  0  0  0  0  0
   -4.5046   -1.8687    0.6709 C   0  0  0  0  0  0  0  0  0  0  0  0
   -3.4585   -0.9021    1.2124 C   0  0  0  0  0  0  0  0  0  0  0  0
   -1.2800    1.7955    0.5385 C   0  0  0  0  0  0  0  0  0  0  0  0
   -0.1472    2.4561    1.0181 C   0  0  0  0  0  0  0  0  0  0  0  0
    2.8703    1.7741   -1.1834 N   0  0  0  0  0  0  0  0  0  0  0  0
    1.6731    1.6201   -3.3909 H   0  0  0  0  0  0  0  0  0  0  0  0
    1.6186   -0.1509   -3.3414 H   0  0  0  0  0  0  0  0  0  0  0  0
    2.9725    0.6839   -4.1509 H   0  0  0  0  0  0  0  0  0  0  0  0
    4.0275   -1.1717   -2.3913 H   0  0  0  0  0  0  0  0  0  0  0  0
    5.2686   -1.1280   -0.2317 H   0  0  0  0  0  0  0  0  0  0  0  0
    4.9386    0.8006    1.3178 H   0  0  0  0  0  0  0  0  0  0  0  0
    2.8029    3.5983    0.2250 H   0  0  0  0  0  0  0  0  0  0  0  0
    1.6192   -0.2567    2.1052 H   0  0  0  0  0  0  0  0  0  0  0  0
   -0.3739   -1.4124    1.2588 H   0  0  0  0  0  0  0  0  0  0  0  0
   -3.2451    0.4757   -0.4059 H   0  0  0  0  0  0  0  0  0  0  0  0
   -1.3036   -1.1636   -1.4653 H   0  0  0  0  0  0  0  0  0  0  0  0
   -3.0043   -1.1459   -1.8804 H   0  0  0  0  0  0  0  0  0  0  0  0
   -1.7309   -2.9924    0.1802 H   0  0  0  0  0  0  0  0  0  0  0  0
   -2.2514   -3.4442   -1.4318 H   0  0  0  0  0  0  0  0  0  0  0  0
   -3.8189   -3.9177    0.6090 H   0  0  0  0  0  0  0  0  0  0  0  0
   -4.5303   -3.3476   -0.8875 H   0  0  0  0  0  0  0  0  0  0  0  0
   -5.1682   -1.3302   -0.0174 H   0  0  0  0  0  0  0  0  0  0  0  0
   -5.1377   -2.2378    1.4857 H   0  0  0  0  0  0  0  0  0  0  0  0
   -2.8250   -1.4327    1.9345 H   0  0  0  0  0  0  0  0  0  0  0  0
   -3.9504   -0.0969    1.7722 H   0  0  0  0  0  0  0  0  0  0  0  0
   -2.0890    2.3848    0.1111 H   0  0  0  0  0  0  0  0  0  0  0  0
   -0.0926    3.5406    0.9619 H   0  0  0  0  0  0  0  0  0  0  0  0
  1  2  1  0
  2  3  2  0
  3  4  1  0
  4  5  2  0
  5  6  1  0
  6  7  1  0
  7  8  1  0
  8  9  2  0
  8 10  2  0
  8 11  1  0
 11 12  2  0
 12 13  1  0
 13 14  2  0
 14 15  1  0
 15 16  1  0
 16 17  1  0
 17 18  1  0
 18 19  1  0
 19 20  1  0
 14 21  1  0
 21 22  2  0
  6 23  2  0
 23  2  1  0
 22 11  1  0
 20 15  1  0
  1 24  1  0
  1 25  1  0
  1 26  1  0
  3 27  1  0
  4 28  1  0
  5 29  1  0
  7 30  1  0
 12 31  1  0
 13 32  1  0
 15 33  1  0
 16 34  1  0
 16 35  1  0
 17 36  1  0
 17 37  1  0
 18 38  1  0
 18 39  1  0
 19 40  1  0
 19 41  1  0
 20 42  1  0
 20 43  1  0
 21 44  1  0
 22 45  1  0
M  END
$$$$
