
     RDKit          3D

 58 61  0  0  0  0  0  0  0  0999 V2000
   -0.2130   -2.4857    2.4328 O   0  0  0  0  0  0  0  0  0  0  0  0
   -0.4614   -1.8883    1.3891 C   0  0  0  0  0  0  0  0  0  0  0  0
    0.4737   -1.9953    0.1749 C   0  0  0  0  0  0  0  0  0  0  0  0
    0.6858   -0.6711   -0.4509 N   0  0  0  0  0  0  0  0  0  0  0  0
    1.5099    0.2213    0.3955 C   0  0  0  0  0  0  0  0  0  0  0  0
    3.0106    0.2275    0.0454 C   0  0  0  0  0  0  0  0  0  0  0  0
    3.2458    0.6871   -1.3657 N   0  0  0  0  0  0  0  0  0  0  0  0
    4.7422    0.2012   -2.0390 S   0  0  0  0  0  6  0  0  0  0  0  0
    4.8032   -1.2423   -1.9533 O   0  0  0  0  0  0  0  0  0  0  0  0
    4.8774    0.8647   -3.3195 O   0  0  0  0  0  0  0  0  0  0  0  0
    5.9173    0.9367   -0.9511 C   0  0  0  0  0  0  0  0  0  0  0  0
    6.2056    2.3018   -1.0878 C   0  0  0  0  0  0  0  0  0  0  0  0
    7.1546    2.8956   -0.2541 C   0  0  0  0  0  0  0  0  0  0  0  0
    7.8208    2.1272    0.7027 C   0  0  0  0  0  0  0  0  0  0  0  0
    7.5371    0.7663    0.8270 C   0  0  0  0  0  0  0  0  0  0  0  0
    6.5870    0.1735   -0.0023 C   0  0  0  0  0  0  0  0  0  0  0  0
    6.3313   -1.1299    0.1680 F   0  0  0  0  0  0  0  0  0  0  0  0
    2.0696    0.4086   -2.2617 C   0  0  0  0  0  0  0  0  0  0  0  0
    1.2869   -0.8329   -1.7940 C   0  0  0  0  0  0  0  0  0  0  0  0
   -1.5796   -1.1182    1.1274 N   0  0  0  0  0  0  0  0  0  0  0  0
   -2.6317   -0.7604    2.0004 C   0  0  0  0  0  0  0  0  0  0  0  0
   -2.6068   -1.0599    3.3671 C   0  0  0  0  0  0  0  0  0  0  0  0
   -3.6406   -0.6419    4.2125 C   0  0  0  0  0  0  0  0  0  0  0  0
   -4.7135    0.0852    3.7064 C   0  0  0  0  0  0  0  0  0  0  0  0
   -4.7688    0.3779    2.3462 C   0  0  0  0  0  0  0  0  0  0  0  0
   -3.7475   -0.0636    1.4885 C   0  0  0  0  0  0  0  0  0  0  0  0
   -3.8660    0.2029    0.0304 C   0  0  0  0  0  0  0  0  0  0  0  0
   -2.8711    0.5556   -0.5993 O   0  0  0  0  0  0  0  0  0  0  0  0
   -5.1542    0.0119   -0.6892 C   0  0  0  0  0  0  0  0  0  0  0  0
   -5.4128    0.8016   -1.8168 C   0  0  0  0  0  0  0  0  0  0  0  0
   -6.6015    0.6378   -2.5300 C   0  0  0  0  0  0  0  0  0  0  0  0
   -7.5307   -0.3192   -2.1225 C   0  0  0  0  0  0  0  0  0  0  0  0
   -7.2783   -1.1081   -1.0020 C   0  0  0  0  0  0  0  0  0  0  0  0
   -6.0886   -0.9500   -0.2873 C   0  0  0  0  0  0  0  0  0  0  0  0
   -0.0179   -2.6756   -0.5307 H   0  0  0  0  0  0  0  0  0  0  0  0
    1.4215   -2.4482    0.4861 H   0  0  0  0  0  0  0  0  0  0  0  0
    1.1188    1.2395    0.2640 H   0  0  0  0  0  0  0  0  0  0  0  0
    1.3867   -0.0024    1.4618 H   0  0  0  0  0  0  0  0  0  0  0  0
    3.4207   -0.7766    0.2000 H   0  0  0  0  0  0  0  0  0  0  0  0
    3.5273    0.9174    0.7217 H   0  0  0  0  0  0  0  0  0  0  0  0
    5.7018    2.8973   -1.8464 H   0  0  0  0  0  0  0  0  0  0  0  0
    7.3805    3.9554   -0.3552 H   0  0  0  0  0  0  0  0  0  0  0  0
    8.5647    2.5880    1.3487 H   0  0  0  0  0  0  0  0  0  0  0  0
    8.0558    0.1595    1.5649 H   0  0  0  0  0  0  0  0  0  0  0  0
    2.3879    0.2662   -3.3001 H   0  0  0  0  0  0  0  0  0  0  0  0
    1.4270    1.2984   -2.2603 H   0  0  0  0  0  0  0  0  0  0  0  0
    1.9687   -1.6941   -1.8108 H   0  0  0  0  0  0  0  0  0  0  0  0
    0.4832   -1.0437   -2.5092 H   0  0  0  0  0  0  0  0  0  0  0  0
   -1.5924   -0.6750    0.2027 H   0  0  0  0  0  0  0  0  0  0  0  0
   -1.7797   -1.6025    3.8160 H   0  0  0  0  0  0  0  0  0  0  0  0
   -3.5943   -0.8757    5.2742 H   0  0  0  0  0  0  0  0  0  0  0  0
   -5.5041    0.4226    4.3718 H   0  0  0  0  0  0  0  0  0  0  0  0
   -5.6101    0.9518    1.9656 H   0  0  0  0  0  0  0  0  0  0  0  0
   -4.6865    1.5432   -2.1440 H   0  0  0  0  0  0  0  0  0  0  0  0
   -6.7954    1.2452   -3.4106 H   0  0  0  0  0  0  0  0  0  0  0  0
   -8.4543   -0.4503   -2.6826 H   0  0  0  0  0  0  0  0  0  0  0  0
   -8.0010   -1.8602   -0.6941 H   0  0  0  0  0  0  0  0  0  0  0  0
   -5.9016   -1.5976    0.5636 H   0  0  0  0  0  0  0  0  0  0  0  0
  1  2  2  0
  2  3  1  0
  3  4  1  0
  4  5  1  0
  5  6  1  0
  6  7  1  0
  7  8  1  0
  8  9  2  0
  8 10  2  0
  8 11  1  0
 11 12  2  0
 12 13  1  0
 13 14  2  0
 14 15  1  0
 15 16  2  0
 16 17  1  0
  7 18  1  0
 18 19  1  0
  2 20  1  0
 20 21  1  0
 21 22  2  0
 22 23  1  0
 23 24  2  0
 24 25  1  0
 25 26  2  0
 26 27  1  0
 27 28  2  0
 27 29  1  0
 29 30  2  0
 30 31  1  0
 31 32  2  0
 32 33  1  0
 33 34  2  0
 19  4  1  0
 26 21  1  0
 34 29  1  0
 16 11  1  0
  3 35  1  0
  3 36  1  0
  5 37  1  0
  5 38  1  0
  6 39  1  0
  6 40  1  0
 12 41  1  0
 13 42  1  0
 14 43  1  0
 15 44  1  0
 18 45  1  0
 18 46  1  0
 19 47  1  0
 19 48  1  0
 20 49  1  0
 22 50  1  0
 23 51  1  0
 24 52  1  0
 25 53  1  0
 30 54  1  0
 31 55  1  0
 32 56  1  0
 33 57  1  0
 34 58  1  0
M  END
$$$$
