
     RDKit          3D

 46 48  0  0  0  0  0  0  0  0999 V2000
   -2.4003    3.6014    0.8378 C   0  0  0  0  0  0  0  0  0  0  0  0
   -1.8865    2.2749    0.7980 O   0  0  0  0  0  0  0  0  0  0  0  0
   -2.6327    1.3385    0.1171 C   0  0  0  0  0  0  0  0  0  0  0  0
   -3.8356    1.5984   -0.5428 C   0  0  0  0  0  0  0  0  0  0  0  0
   -4.5073    0.5689   -1.2069 C   0  0  0  0  0  0  0  0  0  0  0  0
   -3.9912   -0.7305   -1.2117 C   0  0  0  0  0  0  0  0  0  0  0  0
   -4.6961   -1.8279   -1.9544 C   0  0  0  0  0  0  0  0  0  0  0  0
   -2.7756   -0.9883   -0.5619 C   0  0  0  0  0  0  0  0  0  0  0  0
   -2.0972    0.0325    0.1080 C   0  0  0  0  0  0  0  0  0  0  0  0
   -0.8709   -0.1516    0.7865 N   0  0  0  0  0  0  0  0  0  0  0  0
   -0.1531   -1.3156    0.9612 C   0  0  0  0  0  0  0  0  0  0  0  0
   -0.4848   -2.4332    0.5824 O   0  0  0  0  0  0  0  0  0  0  0  0
    1.1671   -1.0814    1.6781 C   0  0  0  0  0  0  0  0  0  0  0  0
    1.7779   -2.3633    2.2182 C   0  0  0  0  0  0  0  0  0  0  0  0
    3.2358   -2.0387    2.2329 C   0  0  0  0  0  0  0  0  0  0  0  0
    4.0939   -2.6583    2.8389 O   0  0  0  0  0  0  0  0  0  0  0  0
    3.4845   -0.9430    1.4621 O   0  0  0  0  0  0  0  0  0  0  0  0
    2.2808   -0.5288    0.7809 C   0  0  0  0  0  0  0  0  0  0  0  0
    2.3178   -1.1221   -0.6448 C   0  0  0  0  0  0  0  0  0  0  0  0
    3.4814   -0.5695   -1.4714 C   0  0  0  0  0  0  0  0  0  0  0  0
    3.4654    0.9546   -1.5140 C   0  0  0  0  0  0  0  0  0  0  0  0
    3.4470    1.5555   -0.1129 C   0  0  0  0  0  0  0  0  0  0  0  0
    2.2857    1.0088    0.7204 C   0  0  0  0  0  0  0  0  0  0  0  0
   -1.7005    4.2121    1.4164 H   0  0  0  0  0  0  0  0  0  0  0  0
   -3.3695    3.6345    1.3464 H   0  0  0  0  0  0  0  0  0  0  0  0
   -2.4630    4.0305   -0.1676 H   0  0  0  0  0  0  0  0  0  0  0  0
   -4.2788    2.5880   -0.5654 H   0  0  0  0  0  0  0  0  0  0  0  0
   -5.4401    0.7887   -1.7225 H   0  0  0  0  0  0  0  0  0  0  0  0
   -5.7738   -1.6394   -2.0024 H   0  0  0  0  0  0  0  0  0  0  0  0
   -4.3049   -1.9005   -2.9738 H   0  0  0  0  0  0  0  0  0  0  0  0
   -4.5576   -2.7903   -1.4506 H   0  0  0  0  0  0  0  0  0  0  0  0
   -2.3786   -1.9983   -0.5940 H   0  0  0  0  0  0  0  0  0  0  0  0
   -0.5380    0.7015    1.2262 H   0  0  0  0  0  0  0  0  0  0  0  0
    0.9926   -0.4107    2.5313 H   0  0  0  0  0  0  0  0  0  0  0  0
    1.6188   -3.2363    1.5790 H   0  0  0  0  0  0  0  0  0  0  0  0
    1.4216   -2.5709    3.2309 H   0  0  0  0  0  0  0  0  0  0  0  0
    1.3834   -0.8990   -1.1735 H   0  0  0  0  0  0  0  0  0  0  0  0
    2.4196   -2.2133   -0.6068 H   0  0  0  0  0  0  0  0  0  0  0  0
    3.4246   -0.9653   -2.4919 H   0  0  0  0  0  0  0  0  0  0  0  0
    4.4333   -0.9156   -1.0509 H   0  0  0  0  0  0  0  0  0  0  0  0
    4.3434    1.3177   -2.0598 H   0  0  0  0  0  0  0  0  0  0  0  0
    2.5818    1.2946   -2.0682 H   0  0  0  0  0  0  0  0  0  0  0  0
    3.3649    2.6462   -0.1825 H   0  0  0  0  0  0  0  0  0  0  0  0
    4.3979    1.3421    0.3904 H   0  0  0  0  0  0  0  0  0  0  0  0
    1.3482    1.3769    0.2899 H   0  0  0  0  0  0  0  0  0  0  0  0
    2.3690    1.4255    1.7318 H   0  0  0  0  0  0  0  0  0  0  0  0
  1  2  1  0
  2  3  1  0
  3  4  2  0
  4  5  1  0
  5  6  2  0
  6  7  1  0
  6  8  1  0
  8  9  2  0
  9 10  1  0
 10 11  1  0
 11 12  2  0
 11 13  1  0
 13 14  1  0
 14 15  1  0
 15 16  2  0
 15 17  1  0
 17 18  1  0
 18 19  1  0
 19 20  1  0
 20 21  1  0
 21 22  1  0
 22 23  1  0
  9  3  1  0
 18 13  1  0
 23 18  1  0
  1 24  1  0
  1 25  1  0
  1 26  1  0
  4 27  1  0
  5 28  1  0
  7 29  1  0
  7 30  1  0
  7 31  1  0
  8 32  1  0
 10 33  1  0
 13 34  1  0
 14 35  1  0
 14 36  1  0
 19 37  1  0
 19 38  1  0
 20 39  1  0
 20 40  1  0
 21 41  1  0
 21 42  1  0
 22 43  1  0
 22 44  1  0
 23 45  1  0
 23 46  1  0
M  END
$$$$
