
     RDKit          3D

 35 36  0  0  0  0  0  0  0  0999 V2000
   -4.0333   -3.2507   -1.2364 N   0  0  0  0  0  0  0  0  0  0  0  0
   -3.6186   -1.9497   -1.1635 C   0  0  0  0  0  0  0  0  0  0  0  0
   -4.2709   -1.0288   -0.2107 C   0  0  0  0  0  0  0  0  0  0  0  0
   -3.8246    0.2257   -0.2184 C   0  0  0  0  0  0  0  0  0  0  0  0
   -2.8139    0.6075   -1.0684 N   0  0  0  0  0  0  0  0  0  0  0  0
   -2.3156    1.9789   -1.0368 C   0  0  0  0  0  0  0  0  0  0  0  0
   -1.1082    2.0564   -0.1048 C   0  0  0  0  0  0  0  0  0  0  0  0
   -1.2184    2.3395    1.0849 O   0  0  0  0  0  0  0  0  0  0  0  0
    0.0851    1.7112   -0.7067 N   0  0  0  0  0  0  0  0  0  0  0  0
    1.3113    1.5522    0.0550 C   0  0  0  0  0  0  0  0  0  0  0  0
    1.3577    0.2163    0.7956 C   0  0  0  0  0  0  0  0  0  0  0  0
    2.7308   -0.0447    1.3565 C   0  0  0  0  0  0  0  0  0  0  0  0
    3.5755   -0.9765    0.7571 C   0  0  0  0  0  0  0  0  0  0  0  0
    4.8424   -1.1812    1.2970 C   0  0  0  0  0  0  0  0  0  0  0  0
    5.2324   -0.4539    2.4143 C   0  0  0  0  0  0  0  0  0  0  0  0
    4.3342    0.4540    2.9471 C   0  0  0  0  0  0  0  0  0  0  0  0
    3.1002    0.6744    2.4433 N   0  0  0  0  0  0  0  0  0  0  0  0
   -2.1834   -0.3057   -1.9158 C   0  0  0  0  0  0  0  0  0  0  0  0
   -1.2157    0.0384   -2.5959 O   0  0  0  0  0  0  0  0  0  0  0  0
   -2.6486   -1.5969   -1.9482 N   0  0  0  0  0  0  0  0  0  0  0  0
   -3.3754   -3.8305   -1.7494 H   0  0  0  0  0  0  0  0  0  0  0  0
   -4.3481   -3.6797   -0.3751 H   0  0  0  0  0  0  0  0  0  0  0  0
   -5.0656   -1.3770    0.4322 H   0  0  0  0  0  0  0  0  0  0  0  0
   -4.2379    0.9793    0.4457 H   0  0  0  0  0  0  0  0  0  0  0  0
   -2.0276    2.3017   -2.0439 H   0  0  0  0  0  0  0  0  0  0  0  0
   -3.0917    2.6664   -0.6823 H   0  0  0  0  0  0  0  0  0  0  0  0
    0.0212    1.2285   -1.6047 H   0  0  0  0  0  0  0  0  0  0  0  0
    1.4007    2.3870    0.7598 H   0  0  0  0  0  0  0  0  0  0  0  0
    2.1346    1.6294   -0.6641 H   0  0  0  0  0  0  0  0  0  0  0  0
    1.0644   -0.5998    0.1231 H   0  0  0  0  0  0  0  0  0  0  0  0
    0.6288    0.2095    1.6152 H   0  0  0  0  0  0  0  0  0  0  0  0
    3.2588   -1.5370   -0.1167 H   0  0  0  0  0  0  0  0  0  0  0  0
    5.5190   -1.9028    0.8481 H   0  0  0  0  0  0  0  0  0  0  0  0
    6.2114   -0.5900    2.8590 H   0  0  0  0  0  0  0  0  0  0  0  0
    4.5891    1.0485    3.8196 H   0  0  0  0  0  0  0  0  0  0  0  0
  1  2  1  0
  2  3  1  0
  3  4  2  0
  4  5  1  0
  5  6  1  0
  6  7  1  0
  7  8  2  0
  7  9  1  0
  9 10  1  0
 10 11  1  0
 11 12  1  0
 12 13  2  0
 13 14  1  0
 14 15  2  0
 15 16  1  0
 16 17  2  0
  5 18  1  0
 18 19  2  0
 18 20  1  0
 20  2  2  0
 17 12  1  0
  1 21  1  0
  1 22  1  0
  3 23  1  0
  4 24  1  0
  6 25  1  0
  6 26  1  0
  9 27  1  0
 10 28  1  0
 10 29  1  0
 11 30  1  0
 11 31  1  0
 13 32  1  0
 14 33  1  0
 15 34  1  0
 16 35  1  0
M  END
$$$$
