
     RDKit          3D

 52 55  0  0  0  0  0  0  0  0999 V2000
    8.8729   -0.1830    1.1095 C   0  0  0  0  0  0  0  0  0  0  0  0
    8.4375    0.2782   -0.2707 C   0  0  0  0  0  0  0  0  0  0  0  0
    7.5028   -0.6366   -0.8409 O   0  0  0  0  0  0  0  0  0  0  0  0
    6.1714   -0.4557   -0.5970 C   0  0  0  0  0  0  0  0  0  0  0  0
    5.6039    0.4821    0.2617 C   0  0  0  0  0  0  0  0  0  0  0  0
    4.2115    0.5512    0.4193 C   0  0  0  0  0  0  0  0  0  0  0  0
    3.3704   -0.3208   -0.2721 C   0  0  0  0  0  0  0  0  0  0  0  0
    1.9636   -0.3061   -0.1750 N   0  0  0  0  0  0  0  0  0  0  0  0
    1.1868    0.4064    0.7148 C   0  0  0  0  0  0  0  0  0  0  0  0
    1.6279    1.0622    1.6544 O   0  0  0  0  0  0  0  0  0  0  0  0
   -0.1881    0.3106    0.4741 N   0  0  0  0  0  0  0  0  0  0  0  0
   -1.0975    0.9771    1.4078 C   0  0  0  0  0  0  0  0  0  0  0  0
   -2.3778    0.1714    1.5966 C   0  0  0  0  0  0  0  0  0  0  0  0
   -3.0766   -0.1590    0.2641 C   0  0  0  0  0  0  0  0  0  0  0  0
   -4.4002    0.4356    0.1745 N   0  0  0  0  0  0  0  0  0  0  0  0
   -4.6900    1.8153    0.2835 C   0  0  0  0  0  0  0  0  0  0  0  0
   -3.9132    2.7261    0.5151 O   0  0  0  0  0  0  0  0  0  0  0  0
   -6.0671    1.9551    0.0656 N   0  0  0  0  0  0  0  0  0  0  0  0
   -6.6138    0.7057   -0.1953 C   0  0  0  0  0  0  0  0  0  0  0  0
   -7.9199    0.3780   -0.4796 C   0  0  0  0  0  0  0  0  0  0  0  0
   -8.1930   -0.9721   -0.7151 C   0  0  0  0  0  0  0  0  0  0  0  0
   -7.1671   -1.9392   -0.6617 C   0  0  0  0  0  0  0  0  0  0  0  0
   -5.8450   -1.5779   -0.3713 C   0  0  0  0  0  0  0  0  0  0  0  0
   -5.5911   -0.2430   -0.1378 C   0  0  0  0  0  0  0  0  0  0  0  0
   -2.2259    0.2150   -0.9565 C   0  0  0  0  0  0  0  0  0  0  0  0
   -0.7755   -0.2060   -0.7617 C   0  0  0  0  0  0  0  0  0  0  0  0
    3.9435   -1.2591   -1.1363 C   0  0  0  0  0  0  0  0  0  0  0  0
    5.3316   -1.3266   -1.2922 C   0  0  0  0  0  0  0  0  0  0  0  0
    9.6494    0.4755    1.5093 H   0  0  0  0  0  0  0  0  0  0  0  0
    9.2658   -1.2042    1.0660 H   0  0  0  0  0  0  0  0  0  0  0  0
    8.0337   -0.1964    1.8109 H   0  0  0  0  0  0  0  0  0  0  0  0
    8.0710    1.3106   -0.2718 H   0  0  0  0  0  0  0  0  0  0  0  0
    9.3147    0.2723   -0.9279 H   0  0  0  0  0  0  0  0  0  0  0  0
    6.2064    1.1779    0.8355 H   0  0  0  0  0  0  0  0  0  0  0  0
    3.8162    1.3070    1.0915 H   0  0  0  0  0  0  0  0  0  0  0  0
    1.4839   -1.0066   -0.7139 H   0  0  0  0  0  0  0  0  0  0  0  0
   -1.3092    1.9762    1.0105 H   0  0  0  0  0  0  0  0  0  0  0  0
   -0.6147    1.1140    2.3814 H   0  0  0  0  0  0  0  0  0  0  0  0
   -3.0470    0.6902    2.2928 H   0  0  0  0  0  0  0  0  0  0  0  0
   -2.1135   -0.7764    2.0857 H   0  0  0  0  0  0  0  0  0  0  0  0
   -3.2047   -1.2482    0.2514 H   0  0  0  0  0  0  0  0  0  0  0  0
   -6.5462    2.8401    0.0823 H   0  0  0  0  0  0  0  0  0  0  0  0
   -8.7027    1.1254   -0.5215 H   0  0  0  0  0  0  0  0  0  0  0  0
   -9.2102   -1.2842   -0.9435 H   0  0  0  0  0  0  0  0  0  0  0  0
   -7.4097   -2.9837   -0.8490 H   0  0  0  0  0  0  0  0  0  0  0  0
   -5.0700   -2.3326   -0.3325 H   0  0  0  0  0  0  0  0  0  0  0  0
   -2.2642    1.2969   -1.1367 H   0  0  0  0  0  0  0  0  0  0  0  0
   -2.6351   -0.2579   -1.8575 H   0  0  0  0  0  0  0  0  0  0  0  0
   -0.1775    0.1365   -1.6137 H   0  0  0  0  0  0  0  0  0  0  0  0
   -0.7059   -1.2994   -0.7209 H   0  0  0  0  0  0  0  0  0  0  0  0
    3.3253   -1.9532   -1.6984 H   0  0  0  0  0  0  0  0  0  0  0  0
    5.7624   -2.0647   -1.9646 H   0  0  0  0  0  0  0  0  0  0  0  0
  1  2  1  0
  2  3  1  0
  3  4  1  0
  4  5  2  0
  5  6  1  0
  6  7  2  0
  7  8  1  0
  8  9  1  0
  9 10  2  0
  9 11  1  0
 11 12  1  0
 12 13  1  0
 13 14  1  0
 14 15  1  0
 15 16  1  0
 16 17  2  0
 16 18  1  0
 18 19  1  0
 19 20  2  0
 20 21  1  0
 21 22  2  0
 22 23  1  0
 23 24  2  0
 14 25  1  0
 25 26  1  0
  7 27  1  0
 27 28  2  0
 28  4  1  0
 26 11  1  0
 24 15  1  0
 24 19  1  0
  1 29  1  0
  1 30  1  0
  1 31  1  0
  2 32  1  0
  2 33  1  0
  5 34  1  0
  6 35  1  0
  8 36  1  0
 12 37  1  0
 12 38  1  0
 13 39  1  0
 13 40  1  0
 14 41  1  0
 18 42  1  0
 20 43  1  0
 21 44  1  0
 22 45  1  0
 23 46  1  0
 25 47  1  0
 25 48  1  0
 26 49  1  0
 26 50  1  0
 27 51  1  0
 28 52  1  0
M  END
$$$$
