
     RDKit          3D

 58 61  0  0  0  0  0  0  0  0999 V2000
   -1.7601    5.1341    0.3881 C   0  0  0  0  0  0  0  0  0  0  0  0
   -2.6084    3.9269    0.1149 C   0  0  0  0  0  0  0  0  0  0  0  0
   -3.9933    4.0470   -0.0386 C   0  0  0  0  0  0  0  0  0  0  0  0
   -4.7710    2.9239   -0.3162 C   0  0  0  0  0  0  0  0  0  0  0  0
   -4.1678    1.6721   -0.4509 C   0  0  0  0  0  0  0  0  0  0  0  0
   -2.7794    1.5256   -0.3165 C   0  0  0  0  0  0  0  0  0  0  0  0
   -2.1752    0.2051   -0.4747 C   0  0  0  0  0  0  0  0  0  0  0  0
   -2.7621   -0.9554   -0.6995 N   0  0  0  0  0  0  0  0  0  0  0  0
   -1.6990   -1.8426   -0.7765 C   0  0  0  0  0  0  0  0  0  0  0  0
   -1.8807   -3.5265   -1.0756 S   0  0  0  0  0  6  0  0  0  0  0  0
   -0.7174   -4.1571   -0.4763 O   0  0  0  0  0  0  0  0  0  0  0  0
   -2.1689   -3.6406   -2.4911 O   0  0  0  0  0  0  0  0  0  0  0  0
   -3.3203   -4.0189   -0.1647 C   0  0  0  0  0  0  0  0  0  0  0  0
   -4.5893   -3.7603   -0.6969 C   0  0  0  0  0  0  0  0  0  0  0  0
   -5.7243   -4.1639    0.0075 C   0  0  0  0  0  0  0  0  0  0  0  0
   -5.5796   -4.8259    1.2227 C   0  0  0  0  0  0  0  0  0  0  0  0
   -6.6703   -5.2116    1.8958 F   0  0  0  0  0  0  0  0  0  0  0  0
   -4.3195   -5.0988    1.7485 C   0  0  0  0  0  0  0  0  0  0  0  0
   -3.1789   -4.6992    1.0510 C   0  0  0  0  0  0  0  0  0  0  0  0
   -0.5070   -1.1801   -0.5770 C   0  0  0  0  0  0  0  0  0  0  0  0
    0.7934   -1.5503   -0.5477 N   0  0  0  0  0  0  0  0  0  0  0  0
    1.7882   -0.6898    0.0825 C   0  0  0  0  0  0  0  0  0  0  0  0
    3.1880   -1.2285   -0.2119 C   0  0  0  0  0  0  0  0  0  0  0  0
    4.2814   -0.4738    0.5539 C   0  0  0  0  0  0  0  0  0  0  0  0
    4.3263    0.9680    0.2762 N   0  0  0  0  0  0  0  0  0  0  0  0
    4.6727    1.2521   -1.1373 C   0  0  0  0  0  0  0  0  0  0  0  0
    5.2648    2.6591   -1.3124 C   0  0  0  0  0  0  0  0  0  0  0  0
    6.5069    2.8280   -0.6136 O   0  0  0  0  0  0  0  0  0  0  0  0
    6.6136    2.0014    0.5531 C   0  0  0  0  0  0  0  0  0  0  0  0
    5.2529    1.6776    1.1882 C   0  0  0  0  0  0  0  0  0  0  0  0
   -0.8105    0.1370   -0.3790 O   0  0  0  0  0  0  0  0  0  0  0  0
   -2.0097    2.6661   -0.0369 C   0  0  0  0  0  0  0  0  0  0  0  0
   -1.2726    5.4658   -0.5335 H   0  0  0  0  0  0  0  0  0  0  0  0
   -2.3614    5.9599    0.7811 H   0  0  0  0  0  0  0  0  0  0  0  0
   -0.9943    4.9038    1.1357 H   0  0  0  0  0  0  0  0  0  0  0  0
   -4.4762    5.0173    0.0574 H   0  0  0  0  0  0  0  0  0  0  0  0
   -5.8477    3.0230   -0.4315 H   0  0  0  0  0  0  0  0  0  0  0  0
   -4.7898    0.8059   -0.6699 H   0  0  0  0  0  0  0  0  0  0  0  0
   -4.6984   -3.2442   -1.6493 H   0  0  0  0  0  0  0  0  0  0  0  0
   -6.7165   -3.9677   -0.3856 H   0  0  0  0  0  0  0  0  0  0  0  0
   -4.2350   -5.6235    2.6960 H   0  0  0  0  0  0  0  0  0  0  0  0
   -2.1961   -4.9216    1.4586 H   0  0  0  0  0  0  0  0  0  0  0  0
    0.9844   -2.5518   -0.4657 H   0  0  0  0  0  0  0  0  0  0  0  0
    1.6148   -0.6687    1.1643 H   0  0  0  0  0  0  0  0  0  0  0  0
    1.7009    0.3346   -0.2973 H   0  0  0  0  0  0  0  0  0  0  0  0
    3.2404   -2.2869    0.0746 H   0  0  0  0  0  0  0  0  0  0  0  0
    3.3784   -1.2007   -1.2912 H   0  0  0  0  0  0  0  0  0  0  0  0
    5.2538   -0.9372    0.3432 H   0  0  0  0  0  0  0  0  0  0  0  0
    4.0891   -0.6263    1.6238 H   0  0  0  0  0  0  0  0  0  0  0  0
    5.4131    0.5276   -1.5008 H   0  0  0  0  0  0  0  0  0  0  0  0
    3.7733    1.1588   -1.7556 H   0  0  0  0  0  0  0  0  0  0  0  0
    4.5642    3.4249   -0.9601 H   0  0  0  0  0  0  0  0  0  0  0  0
    5.4577    2.8577   -2.3719 H   0  0  0  0  0  0  0  0  0  0  0  0
    7.1409    1.0823    0.2739 H   0  0  0  0  0  0  0  0  0  0  0  0
    7.2462    2.5321    1.2717 H   0  0  0  0  0  0  0  0  0  0  0  0
    5.3972    1.1306    2.1276 H   0  0  0  0  0  0  0  0  0  0  0  0
    4.7667    2.6238    1.4578 H   0  0  0  0  0  0  0  0  0  0  0  0
   -0.9287    2.5796    0.0644 H   0  0  0  0  0  0  0  0  0  0  0  0
  1  2  1  0
  2  3  2  0
  3  4  1  0
  4  5  2  0
  5  6  1  0
  6  7  1  0
  7  8  2  0
  8  9  1  0
  9 10  1  0
 10 11  2  0
 10 12  2  0
 10 13  1  0
 13 14  2  0
 14 15  1  0
 15 16  2  0
 16 17  1  0
 16 18  1  0
 18 19  2  0
  9 20  2  0
 20 21  1  0
 21 22  1  0
 22 23  1  0
 23 24  1  0
 24 25  1  0
 25 26  1  0
 26 27  1  0
 27 28  1  0
 28 29  1  0
 29 30  1  0
 20 31  1  0
  6 32  2  0
 32  2  1  0
 31  7  1  0
 19 13  1  0
 30 25  1  0
  1 33  1  0
  1 34  1  0
  1 35  1  0
  3 36  1  0
  4 37  1  0
  5 38  1  0
 14 39  1  0
 15 40  1  0
 18 41  1  0
 19 42  1  0
 21 43  1  0
 22 44  1  0
 22 45  1  0
 23 46  1  0
 23 47  1  0
 24 48  1  0
 24 49  1  0
 26 50  1  0
 26 51  1  0
 27 52  1  0
 27 53  1  0
 29 54  1  0
 29 55  1  0
 30 56  1  0
 30 57  1  0
 32 58  1  0
M  END
$$$$
