
     RDKit          3D

 54 56  0  0  0  0  0  0  0  0999 V2000
    6.2380    2.3029   -0.3368 C   0  0  0  0  0  0  0  0  0  0  0  0
    5.6627    0.9103   -0.0966 C   0  0  0  0  0  0  0  0  0  0  0  0
    4.3285    0.9577    0.5182 N   0  0  0  0  0  0  0  0  0  0  0  0
    3.9386   -0.3631    1.0688 C   0  0  0  0  0  0  0  0  0  0  0  0
    3.5714   -1.4350    0.0127 C   0  0  0  0  0  0  0  0  0  0  0  0
    2.5228   -0.9496   -0.9106 N   0  0  0  0  0  0  0  0  0  0  0  0
    1.1998   -1.0767   -0.4577 C   0  0  0  0  0  0  0  0  0  0  0  0
    0.7181   -2.3081   -0.0600 C   0  0  0  0  0  0  0  0  0  0  0  0
   -0.6028   -2.3812    0.3244 C   0  0  0  0  0  0  0  0  0  0  0  0
   -1.2549   -3.9603    0.8494 S   0  0  0  0  0  0  0  0  0  0  0  0
   -3.0067   -3.8025    0.3173 C   0  0  0  0  0  0  0  0  0  0  0  0
   -3.8662   -3.2927    1.4702 C   0  0  0  0  0  0  0  0  0  0  0  0
   -3.4914   -5.1757   -0.1484 C   0  0  0  0  0  0  0  0  0  0  0  0
   -1.4203   -1.3209    0.3387 N   0  0  0  0  0  0  0  0  0  0  0  0
   -0.8895   -0.1605   -0.0734 C   0  0  0  0  0  0  0  0  0  0  0  0
   -1.7678    1.0278   -0.1039 C   0  0  0  0  0  0  0  0  0  0  0  0
   -3.1296    0.9488    0.2449 C   0  0  0  0  0  0  0  0  0  0  0  0
   -3.9703    2.0713    0.2099 C   0  0  0  0  0  0  0  0  0  0  0  0
   -3.4670    3.3108   -0.1754 C   0  0  0  0  0  0  0  0  0  0  0  0
   -4.1722    4.4790   -0.2547 O   0  0  0  0  0  0  0  0  0  0  0  0
   -5.5471    4.4244    0.1060 C   0  0  0  0  0  0  0  0  0  0  0  0
   -2.1211    3.4143   -0.5231 C   0  0  0  0  0  0  0  0  0  0  0  0
   -1.2851    2.2916   -0.4884 C   0  0  0  0  0  0  0  0  0  0  0  0
    0.3858   -0.0088   -0.4777 N   0  0  0  0  0  0  0  0  0  0  0  0
    2.8614    0.3645   -1.5011 C   0  0  0  0  0  0  0  0  0  0  0  0
    3.2661    1.4018   -0.4217 C   0  0  0  0  0  0  0  0  0  0  0  0
    5.6832    2.8508   -1.1051 H   0  0  0  0  0  0  0  0  0  0  0  0
    7.2771    2.2252   -0.6755 H   0  0  0  0  0  0  0  0  0  0  0  0
    6.2303    2.8959    0.5840 H   0  0  0  0  0  0  0  0  0  0  0  0
    6.3555    0.4005    0.5856 H   0  0  0  0  0  0  0  0  0  0  0  0
    5.6717    0.3417   -1.0334 H   0  0  0  0  0  0  0  0  0  0  0  0
    3.0763   -0.2082    1.7320 H   0  0  0  0  0  0  0  0  0  0  0  0
    4.7368   -0.7500    1.7159 H   0  0  0  0  0  0  0  0  0  0  0  0
    3.2930   -2.3650    0.5193 H   0  0  0  0  0  0  0  0  0  0  0  0
    4.4592   -1.6803   -0.5838 H   0  0  0  0  0  0  0  0  0  0  0  0
    1.3375   -3.1945   -0.0878 H   0  0  0  0  0  0  0  0  0  0  0  0
   -3.0813   -3.1181   -0.5298 H   0  0  0  0  0  0  0  0  0  0  0  0
   -3.5175   -2.3258    1.8464 H   0  0  0  0  0  0  0  0  0  0  0  0
   -3.8801   -3.9974    2.3088 H   0  0  0  0  0  0  0  0  0  0  0  0
   -4.9014   -3.1623    1.1372 H   0  0  0  0  0  0  0  0  0  0  0  0
   -2.8752   -5.5572   -0.9714 H   0  0  0  0  0  0  0  0  0  0  0  0
   -4.5187   -5.1146   -0.5191 H   0  0  0  0  0  0  0  0  0  0  0  0
   -3.4744   -5.9139    0.6607 H   0  0  0  0  0  0  0  0  0  0  0  0
   -3.5558   -0.0056    0.5510 H   0  0  0  0  0  0  0  0  0  0  0  0
   -5.0095    1.9355    0.4885 H   0  0  0  0  0  0  0  0  0  0  0  0
   -5.9618    5.4310   -0.0074 H   0  0  0  0  0  0  0  0  0  0  0  0
   -6.1041    3.7572   -0.5608 H   0  0  0  0  0  0  0  0  0  0  0  0
   -5.6691    4.1295    1.1537 H   0  0  0  0  0  0  0  0  0  0  0  0
   -1.7145    4.3766   -0.8255 H   0  0  0  0  0  0  0  0  0  0  0  0
   -0.2405    2.4151   -0.7680 H   0  0  0  0  0  0  0  0  0  0  0  0
    3.7012    0.2145   -2.1901 H   0  0  0  0  0  0  0  0  0  0  0  0
    2.0474    0.7553   -2.1247 H   0  0  0  0  0  0  0  0  0  0  0  0
    3.5488    2.3395   -0.9117 H   0  0  0  0  0  0  0  0  0  0  0  0
    2.3849    1.6547    0.1802 H   0  0  0  0  0  0  0  0  0  0  0  0
  1  2  1  0
  2  3  1  0
  3  4  1  0
  4  5  1  0
  5  6  1  0
  6  7  1  0
  7  8  2  0
  8  9  1  0
  9 10  1  0
 10 11  1  0
 11 12  1  0
 11 13  1  0
  9 14  2  0
 14 15  1  0
 15 16  1  0
 16 17  2  0
 17 18  1  0
 18 19  2  0
 19 20  1  0
 20 21  1  0
 19 22  1  0
 22 23  2  0
 15 24  2  0
  6 25  1  0
 25 26  1  0
 26  3  1  0
 24  7  1  0
 23 16  1  0
  1 27  1  0
  1 28  1  0
  1 29  1  0
  2 30  1  0
  2 31  1  0
  4 32  1  0
  4 33  1  0
  5 34  1  0
  5 35  1  0
  8 36  1  0
 11 37  1  0
 12 38  1  0
 12 39  1  0
 12 40  1  0
 13 41  1  0
 13 42  1  0
 13 43  1  0
 17 44  1  0
 18 45  1  0
 21 46  1  0
 21 47  1  0
 21 48  1  0
 22 49  1  0
 23 50  1  0
 25 51  1  0
 25 52  1  0
 26 53  1  0
 26 54  1  0
M  END
$$$$
