
     RDKit          3D

 41 42  0  0  0  0  0  0  0  0999 V2000
   -4.0748    0.1559   -1.3586 C   0  0  0  0  0  0  0  0  0  0  0  0
   -3.0149   -0.2678   -0.3728 C   0  0  0  0  0  0  0  0  0  0  0  0
   -2.3589   -1.4492   -0.4045 C   0  0  0  0  0  0  0  0  0  0  0  0
   -2.6487   -2.5664   -1.3746 C   0  0  0  0  0  0  0  0  0  0  0  0
   -1.2434   -1.7740    0.5678 C   0  0  0  0  0  0  0  0  0  0  0  0
   -0.6865   -0.5724    1.3443 C   0  0  0  0  0  0  0  0  0  0  0  0
    0.3553    0.1963    0.5147 C   0  0  0  0  0  0  0  0  0  0  0  0
    0.1579    1.3387    0.1167 O   0  0  0  0  0  0  0  0  0  0  0  0
    1.5141   -0.5371    0.3041 N   0  0  0  0  0  0  0  0  0  0  0  0
    2.6467   -0.1586   -0.4475 C   0  0  0  0  0  0  0  0  0  0  0  0
    3.7412   -1.0370   -0.4276 C   0  0  0  0  0  0  0  0  0  0  0  0
    4.9089   -0.7511   -1.1403 C   0  0  0  0  0  0  0  0  0  0  0  0
    4.9965    0.4193   -1.8888 C   0  0  0  0  0  0  0  0  0  0  0  0
    3.9049    1.2965   -1.9187 C   0  0  0  0  0  0  0  0  0  0  0  0
    3.9945    2.5271   -2.7146 N   0  0  0  0  0  4  0  0  0  0  0  0
    5.1034    2.8284   -3.1810 O   0  0  0  0  0  0  0  0  0  0  0  0
    2.9615    3.1893   -2.8816 O   0  0  0  0  0  1  0  0  0  0  0  0
    2.7308    1.0131   -1.2035 C   0  0  0  0  0  0  0  0  0  0  0  0
   -1.8416    0.3132    1.8345 C   0  0  0  0  0  0  0  0  0  0  0  0
   -1.3132    1.4480    2.6839 C   0  0  0  0  0  0  0  0  0  0  0  0
   -0.2873    1.4204    3.3475 O   0  0  0  0  0  0  0  0  0  0  0  0
   -2.1320    2.5126    2.7516 O   0  0  0  0  0  0  0  0  0  0  0  0
   -2.7326    0.7879    0.6803 C   0  0  0  0  0  0  0  0  0  0  0  0
   -5.0606    0.1347   -0.8833 H   0  0  0  0  0  0  0  0  0  0  0  0
   -3.8810    1.1781   -1.7025 H   0  0  0  0  0  0  0  0  0  0  0  0
   -4.1111   -0.4661   -2.2554 H   0  0  0  0  0  0  0  0  0  0  0  0
   -1.8532   -2.6297   -2.1239 H   0  0  0  0  0  0  0  0  0  0  0  0
   -2.6955   -3.5228   -0.8417 H   0  0  0  0  0  0  0  0  0  0  0  0
   -3.6039   -2.4587   -1.8927 H   0  0  0  0  0  0  0  0  0  0  0  0
   -0.4357   -2.2775    0.0229 H   0  0  0  0  0  0  0  0  0  0  0  0
   -1.6346   -2.5054    1.2876 H   0  0  0  0  0  0  0  0  0  0  0  0
   -0.1467   -0.9567    2.2222 H   0  0  0  0  0  0  0  0  0  0  0  0
    1.5848   -1.4197    0.7946 H   0  0  0  0  0  0  0  0  0  0  0  0
    3.7034   -1.9582    0.1500 H   0  0  0  0  0  0  0  0  0  0  0  0
    5.7486   -1.4418   -1.1093 H   0  0  0  0  0  0  0  0  0  0  0  0
    5.9100    0.6321   -2.4403 H   0  0  0  0  0  0  0  0  0  0  0  0
    1.8997    1.7102   -1.2508 H   0  0  0  0  0  0  0  0  0  0  0  0
   -2.4640   -0.2902    2.5117 H   0  0  0  0  0  0  0  0  0  0  0  0
   -1.6474    3.1514    3.3154 H   0  0  0  0  0  0  0  0  0  0  0  0
   -3.6908    1.1179    1.1047 H   0  0  0  0  0  0  0  0  0  0  0  0
   -2.3042    1.6695    0.1882 H   0  0  0  0  0  0  0  0  0  0  0  0
  1  2  1  0
  2  3  2  0
  3  4  1  0
  3  5  1  0
  5  6  1  0
  6  7  1  0
  7  8  2  0
  7  9  1  0
  9 10  1  0
 10 11  2  0
 11 12  1  0
 12 13  2  0
 13 14  1  0
 14 15  1  0
 15 16  2  0
 15 17  1  0
 14 18  2  0
  6 19  1  0
 19 20  1  0
 20 21  2  0
 20 22  1  0
 19 23  1  0
 23  2  1  0
 18 10  1  0
  1 24  1  0
  1 25  1  0
  1 26  1  0
  4 27  1  0
  4 28  1  0
  4 29  1  0
  5 30  1  0
  5 31  1  0
  6 32  1  0
  9 33  1  0
 11 34  1  0
 12 35  1  0
 13 36  1  0
 18 37  1  0
 19 38  1  0
 22 39  1  0
 23 40  1  0
 23 41  1  0
M  CHG  2  15   1  17  -1
M  END
$$$$
