
     RDKit          3D

 41 44  0  0  0  0  0  0  0  0999 V2000
   -1.8849   -2.1733    2.2788 C   0  0  0  0  0  0  0  0  0  0  0  0
   -2.5741   -0.9068    1.7867 C   0  0  0  0  0  0  0  0  0  0  0  0
   -3.5953   -1.2164    0.6684 C   0  0  0  0  0  0  0  0  0  0  0  0
   -3.4349   -0.0097   -0.1896 C   0  0  0  0  0  0  0  0  0  0  0  0
   -4.2499    0.4168   -1.2265 C   0  0  0  0  0  0  0  0  0  0  0  0
   -3.8853    1.5712   -1.9174 C   0  0  0  0  0  0  0  0  0  0  0  0
   -2.7178    2.2650   -1.5710 C   0  0  0  0  0  0  0  0  0  0  0  0
   -1.9019    1.8141   -0.5273 C   0  0  0  0  0  0  0  0  0  0  0  0
   -2.2709    0.6744    0.1712 C   0  0  0  0  0  0  0  0  0  0  0  0
   -1.5726    0.0386    1.2256 N   0  0  0  0  0  0  0  0  0  0  0  0
   -0.8728    0.9318    2.1838 C   0  0  0  0  0  0  0  0  0  0  0  0
    0.6022    1.1402    1.7998 C   0  0  0  0  0  0  0  0  0  0  0  0
    1.3026    1.9538    2.3961 O   0  0  0  0  0  0  0  0  0  0  0  0
    0.9976    0.3061    0.7707 N   0  0  0  0  0  0  0  0  0  0  0  0
    2.2543    0.1922    0.1576 C   0  0  0  0  0  0  0  0  0  0  0  0
    3.3877    0.9206    0.5659 C   0  0  0  0  0  0  0  0  0  0  0  0
    4.6183    0.7630   -0.0853 C   0  0  0  0  0  0  0  0  0  0  0  0
    4.6817   -0.1258   -1.1341 C   0  0  0  0  0  0  0  0  0  0  0  0
    3.5805   -0.8405   -1.5375 C   0  0  0  0  0  0  0  0  0  0  0  0
    2.3568   -0.7053   -0.9148 C   0  0  0  0  0  0  0  0  0  0  0  0
    3.8513   -1.6621   -2.5874 O   0  0  0  0  0  0  0  0  0  0  0  0
    5.2503   -1.3787   -2.7986 C   0  0  0  0  0  0  0  0  0  0  0  0
    5.7845   -0.4056   -1.8775 O   0  0  0  0  0  0  0  0  0  0  0  0
   -1.1829   -1.9497    3.0887 H   0  0  0  0  0  0  0  0  0  0  0  0
   -2.6191   -2.8923    2.6564 H   0  0  0  0  0  0  0  0  0  0  0  0
   -1.3152   -2.6541    1.4757 H   0  0  0  0  0  0  0  0  0  0  0  0
   -3.0995   -0.4263    2.6247 H   0  0  0  0  0  0  0  0  0  0  0  0
   -4.6074   -1.3135    1.0720 H   0  0  0  0  0  0  0  0  0  0  0  0
   -3.3326   -2.1158    0.1010 H   0  0  0  0  0  0  0  0  0  0  0  0
   -5.1460   -0.1310   -1.4985 H   0  0  0  0  0  0  0  0  0  0  0  0
   -4.5041    1.9322   -2.7353 H   0  0  0  0  0  0  0  0  0  0  0  0
   -2.4378    3.1581   -2.1246 H   0  0  0  0  0  0  0  0  0  0  0  0
   -0.9928    2.3577   -0.2936 H   0  0  0  0  0  0  0  0  0  0  0  0
   -1.3684    1.9059    2.2666 H   0  0  0  0  0  0  0  0  0  0  0  0
   -0.8650    0.4724    3.1793 H   0  0  0  0  0  0  0  0  0  0  0  0
    0.2266   -0.2529    0.4019 H   0  0  0  0  0  0  0  0  0  0  0  0
    3.3396    1.6205    1.3949 H   0  0  0  0  0  0  0  0  0  0  0  0
    5.4915    1.3236    0.2284 H   0  0  0  0  0  0  0  0  0  0  0  0
    1.5074   -1.2835   -1.2606 H   0  0  0  0  0  0  0  0  0  0  0  0
    5.3815   -1.0036   -3.8202 H   0  0  0  0  0  0  0  0  0  0  0  0
    5.8167   -2.3110   -2.6912 H   0  0  0  0  0  0  0  0  0  0  0  0
  1  2  1  0
  2  3  1  0
  3  4  1  0
  4  5  2  0
  5  6  1  0
  6  7  2  0
  7  8  1  0
  8  9  2  0
  9 10  1  0
 10 11  1  0
 11 12  1  0
 12 13  2  0
 12 14  1  0
 14 15  1  0
 15 16  2  0
 16 17  1  0
 17 18  2  0
 18 19  1  0
 19 20  2  0
 19 21  1  0
 21 22  1  0
 22 23  1  0
 10  2  1  0
 20 15  1  0
  9  4  1  0
 23 18  1  0
  1 24  1  0
  1 25  1  0
  1 26  1  0
  2 27  1  0
  3 28  1  0
  3 29  1  0
  5 30  1  0
  6 31  1  0
  7 32  1  0
  8 33  1  0
 11 34  1  0
 11 35  1  0
 14 36  1  0
 16 37  1  0
 17 38  1  0
 20 39  1  0
 22 40  1  0
 22 41  1  0
M  END
$$$$
