
     RDKit          3D

 53 56  0  0  0  0  0  0  0  0999 V2000
   -8.2440   -0.4692    0.3408 C   0  0  0  0  0  0  0  0  0  0  0  0
   -7.1788    0.4706    0.2764 O   0  0  0  0  0  0  0  0  0  0  0  0
   -5.9207   -0.1710    0.0695 C   0  0  0  0  0  0  0  0  0  0  0  0
   -4.8311    0.9036    0.0012 C   0  0  0  0  0  0  0  0  0  0  0  0
   -4.9682    1.8081   -1.2301 C   0  0  0  0  0  0  0  0  0  0  0  0
   -4.2820    1.0123   -2.3301 C   0  0  0  0  0  0  0  0  0  0  0  0
   -3.2535    0.2518   -1.6413 N   0  0  0  0  0  0  0  0  0  0  0  0
   -2.4012   -0.5797   -2.3599 C   0  0  0  0  0  0  0  0  0  0  0  0
   -2.5103   -0.6935   -3.5811 O   0  0  0  0  0  0  0  0  0  0  0  0
   -1.3679   -1.3021   -1.6103 C   0  0  0  0  0  0  0  0  0  0  0  0
   -0.4903   -0.8124   -0.6074 C   0  0  0  0  0  0  0  0  0  0  0  0
    0.2920   -1.8889   -0.2657 C   0  0  0  0  0  0  0  0  0  0  0  0
    1.4078   -2.1147    0.6804 C   0  0  0  0  0  0  0  0  0  0  0  0
    1.8798   -0.8405    1.1341 O   0  0  0  0  0  0  0  0  0  0  0  0
    3.1173   -0.4661    0.6640 C   0  0  0  0  0  0  0  0  0  0  0  0
    3.4640   -0.6015   -0.6817 C   0  0  0  0  0  0  0  0  0  0  0  0
    4.7146   -0.1799   -1.1310 C   0  0  0  0  0  0  0  0  0  0  0  0
    5.6277    0.3975   -0.2446 C   0  0  0  0  0  0  0  0  0  0  0  0
    6.8786    0.8357   -0.6121 O   0  0  0  0  0  0  0  0  0  0  0  0
    7.2584    0.6904   -1.9739 C   0  0  0  0  0  0  0  0  0  0  0  0
    5.2818    0.5680    1.1212 C   0  0  0  0  0  0  0  0  0  0  0  0
    6.1646    1.1589    2.0538 C   0  0  0  0  0  0  0  0  0  0  0  0
    5.8142    1.3285    3.3939 C   0  0  0  0  0  0  0  0  0  0  0  0
    4.5681    0.9112    3.8373 C   0  0  0  0  0  0  0  0  0  0  0  0
    3.6768    0.3235    2.9399 C   0  0  0  0  0  0  0  0  0  0  0  0
    4.0088    0.1387    1.5786 C   0  0  0  0  0  0  0  0  0  0  0  0
   -0.0856   -2.9611   -1.0090 O   0  0  0  0  0  0  0  0  0  0  0  0
   -1.1106   -2.5982   -1.8592 N   0  0  0  0  0  0  0  0  0  0  0  0
   -3.4468    0.2858   -0.1969 C   0  0  0  0  0  0  0  0  0  0  0  0
   -8.3238   -1.0222   -0.6001 H   0  0  0  0  0  0  0  0  0  0  0  0
   -9.1762    0.0781    0.5046 H   0  0  0  0  0  0  0  0  0  0  0  0
   -8.0936   -1.1618    1.1745 H   0  0  0  0  0  0  0  0  0  0  0  0
   -5.7224   -0.8461    0.9108 H   0  0  0  0  0  0  0  0  0  0  0  0
   -5.9582   -0.7654   -0.8509 H   0  0  0  0  0  0  0  0  0  0  0  0
   -4.8736    1.5028    0.9183 H   0  0  0  0  0  0  0  0  0  0  0  0
   -5.9991    2.0700   -1.4842 H   0  0  0  0  0  0  0  0  0  0  0  0
   -4.4171    2.7411   -1.0554 H   0  0  0  0  0  0  0  0  0  0  0  0
   -4.9713    0.3083   -2.8100 H   0  0  0  0  0  0  0  0  0  0  0  0
   -3.8363    1.6489   -3.1007 H   0  0  0  0  0  0  0  0  0  0  0  0
   -0.4166    0.1896   -0.2121 H   0  0  0  0  0  0  0  0  0  0  0  0
    2.1986   -2.7394    0.2475 H   0  0  0  0  0  0  0  0  0  0  0  0
    1.0266   -2.6458    1.5598 H   0  0  0  0  0  0  0  0  0  0  0  0
    2.7691   -1.0169   -1.4062 H   0  0  0  0  0  0  0  0  0  0  0  0
    4.9402   -0.3094   -2.1843 H   0  0  0  0  0  0  0  0  0  0  0  0
    6.6027    1.2710   -2.6313 H   0  0  0  0  0  0  0  0  0  0  0  0
    7.2827   -0.3646   -2.2664 H   0  0  0  0  0  0  0  0  0  0  0  0
    8.2723    1.0880   -2.0816 H   0  0  0  0  0  0  0  0  0  0  0  0
    7.1479    1.4977    1.7314 H   0  0  0  0  0  0  0  0  0  0  0  0
    6.5164    1.7871    4.0847 H   0  0  0  0  0  0  0  0  0  0  0  0
    4.2863    1.0409    4.8787 H   0  0  0  0  0  0  0  0  0  0  0  0
    2.7051    0.0053    3.3127 H   0  0  0  0  0  0  0  0  0  0  0  0
   -2.6786    0.9462    0.2189 H   0  0  0  0  0  0  0  0  0  0  0  0
   -3.3445   -0.7096    0.2449 H   0  0  0  0  0  0  0  0  0  0  0  0
  1  2  1  0
  2  3  1  0
  3  4  1  0
  4  5  1  0
  5  6  1  0
  6  7  1  0
  7  8  1  0
  8  9  2  0
  8 10  1  0
 10 11  1  0
 11 12  2  0
 12 13  1  0
 13 14  1  0
 14 15  1  0
 15 16  2  0
 16 17  1  0
 17 18  2  0
 18 19  1  0
 19 20  1  0
 18 21  1  0
 21 22  2  0
 22 23  1  0
 23 24  2  0
 24 25  1  0
 25 26  2  0
 12 27  1  0
 27 28  1  0
  7 29  1  0
 29  4  1  0
 28 10  2  0
 26 15  1  0
 26 21  1  0
  1 30  1  0
  1 31  1  0
  1 32  1  0
  3 33  1  0
  3 34  1  0
  4 35  1  0
  5 36  1  0
  5 37  1  0
  6 38  1  0
  6 39  1  0
 11 40  1  0
 13 41  1  0
 13 42  1  0
 16 43  1  0
 17 44  1  0
 20 45  1  0
 20 46  1  0
 20 47  1  0
 22 48  1  0
 23 49  1  0
 24 50  1  0
 25 51  1  0
 29 52  1  0
 29 53  1  0
M  END
$$$$
