
     RDKit          3D

 55 57  0  0  0  0  0  0  0  0999 V2000
    1.3673    0.1460   -0.6815 O   0  0  0  0  0  0  0  0  0  0  0  0
    1.4543   -0.9910   -1.1412 C   0  0  0  0  0  0  0  0  0  0  0  0
    0.2556   -1.9388   -1.2311 C   0  0  0  0  0  0  0  0  0  0  0  0
   -0.8447   -1.4600   -0.4614 O   0  0  0  0  0  0  0  0  0  0  0  0
   -0.7020   -1.6367    0.8845 C   0  0  0  0  0  0  0  0  0  0  0  0
    0.2072   -2.2764    1.4026 O   0  0  0  0  0  0  0  0  0  0  0  0
   -1.7810   -0.8872    1.6813 C   0  0  0  0  0  0  0  0  0  0  0  0
   -1.0661    0.1449    2.5706 C   0  0  0  0  0  0  0  0  0  0  0  0
   -1.9998    0.9411    3.4545 C   0  0  0  0  0  0  0  0  0  0  0  0
   -2.1358    2.3252    3.2776 C   0  0  0  0  0  0  0  0  0  0  0  0
   -3.0012    3.0609    4.0890 C   0  0  0  0  0  0  0  0  0  0  0  0
   -3.7361    2.4224    5.0857 C   0  0  0  0  0  0  0  0  0  0  0  0
   -3.6031    1.0484    5.2752 C   0  0  0  0  0  0  0  0  0  0  0  0
   -2.7375    0.3107    4.4661 C   0  0  0  0  0  0  0  0  0  0  0  0
   -2.7717   -0.2406    0.8134 N   0  0  0  0  0  0  0  0  0  0  0  0
   -3.8315   -0.9631    0.2976 C   0  0  0  0  0  0  0  0  0  0  0  0
   -4.0167   -2.1328    0.6276 O   0  0  0  0  0  0  0  0  0  0  0  0
   -4.6504   -0.2365   -0.6641 C   0  0  0  0  0  0  0  0  0  0  0  0
   -4.7453    1.1246   -0.9031 C   0  0  0  0  0  0  0  0  0  0  0  0
   -5.6698    1.4366   -1.9436 C   0  0  0  0  0  0  0  0  0  0  0  0
   -6.2579    0.3072   -2.4641 C   0  0  0  0  0  0  0  0  0  0  0  0
   -5.7033   -1.1153   -1.6973 S   0  0  0  0  0  0  0  0  0  0  0  0
    2.6284   -1.5274   -1.6327 N   0  0  0  0  0  0  0  0  0  0  0  0
    3.8549   -0.7466   -1.7116 C   0  0  0  0  0  0  0  0  0  0  0  0
    5.0845   -1.6677   -1.6582 C   0  0  0  0  0  0  0  0  0  0  0  0
    6.3303   -1.0672   -2.3151 C   0  0  0  0  0  0  0  0  0  0  0  0
    6.3181    0.4543   -2.2812 C   0  0  0  0  0  0  0  0  0  0  0  0
    5.1080    1.0287   -3.0195 C   0  0  0  0  0  0  0  0  0  0  0  0
    3.8733    0.1254   -2.9698 C   0  0  0  0  0  0  0  0  0  0  0  0
    0.5362   -2.9559   -0.9343 H   0  0  0  0  0  0  0  0  0  0  0  0
   -0.0656   -1.9715   -2.2773 H   0  0  0  0  0  0  0  0  0  0  0  0
   -2.2995   -1.6360    2.2916 H   0  0  0  0  0  0  0  0  0  0  0  0
   -0.3302   -0.3530    3.2160 H   0  0  0  0  0  0  0  0  0  0  0  0
   -0.4853    0.8307    1.9385 H   0  0  0  0  0  0  0  0  0  0  0  0
   -1.5663    2.8426    2.5089 H   0  0  0  0  0  0  0  0  0  0  0  0
   -3.1002    4.1337    3.9453 H   0  0  0  0  0  0  0  0  0  0  0  0
   -4.4097    2.9953    5.7174 H   0  0  0  0  0  0  0  0  0  0  0  0
   -4.1736    0.5497    6.0544 H   0  0  0  0  0  0  0  0  0  0  0  0
   -2.6451   -0.7604    4.6329 H   0  0  0  0  0  0  0  0  0  0  0  0
   -2.4652    0.5704    0.2951 H   0  0  0  0  0  0  0  0  0  0  0  0
   -4.1940    1.8748   -0.3492 H   0  0  0  0  0  0  0  0  0  0  0  0
   -5.8969    2.4389   -2.2862 H   0  0  0  0  0  0  0  0  0  0  0  0
   -6.9943    0.2461   -3.2538 H   0  0  0  0  0  0  0  0  0  0  0  0
    2.5906   -2.4115   -2.1240 H   0  0  0  0  0  0  0  0  0  0  0  0
    3.8787   -0.0836   -0.8364 H   0  0  0  0  0  0  0  0  0  0  0  0
    5.2987   -1.8993   -0.6068 H   0  0  0  0  0  0  0  0  0  0  0  0
    4.8756   -2.6337   -2.1359 H   0  0  0  0  0  0  0  0  0  0  0  0
    7.2286   -1.4514   -1.8185 H   0  0  0  0  0  0  0  0  0  0  0  0
    6.3848   -1.4012   -3.3591 H   0  0  0  0  0  0  0  0  0  0  0  0
    7.2398    0.8522   -2.7208 H   0  0  0  0  0  0  0  0  0  0  0  0
    6.3007    0.7906   -1.2367 H   0  0  0  0  0  0  0  0  0  0  0  0
    5.3663    1.2120   -4.0696 H   0  0  0  0  0  0  0  0  0  0  0  0
    4.8679    2.0085   -2.5892 H   0  0  0  0  0  0  0  0  0  0  0  0
    3.8601   -0.5204   -3.8581 H   0  0  0  0  0  0  0  0  0  0  0  0
    2.9699    0.7436   -3.0359 H   0  0  0  0  0  0  0  0  0  0  0  0
  1  2  2  0
  2  3  1  0
  3  4  1  0
  4  5  1  0
  5  6  2  0
  5  7  1  0
  7  8  1  0
  8  9  1  0
  9 10  2  0
 10 11  1  0
 11 12  2  0
 12 13  1  0
 13 14  2  0
  7 15  1  0
 15 16  1  0
 16 17  2  0
 16 18  1  0
 18 19  2  0
 19 20  1  0
 20 21  2  0
 21 22  1  0
  2 23  1  0
 23 24  1  0
 24 25  1  0
 25 26  1  0
 26 27  1  0
 27 28  1  0
 28 29  1  0
 14  9  1  0
 22 18  1  0
 29 24  1  0
  3 30  1  0
  3 31  1  0
  7 32  1  0
  8 33  1  0
  8 34  1  0
 10 35  1  0
 11 36  1  0
 12 37  1  0
 13 38  1  0
 14 39  1  0
 15 40  1  0
 19 41  1  0
 20 42  1  0
 21 43  1  0
 23 44  1  0
 24 45  1  0
 25 46  1  0
 25 47  1  0
 26 48  1  0
 26 49  1  0
 27 50  1  0
 27 51  1  0
 28 52  1  0
 28 53  1  0
 29 54  1  0
 29 55  1  0
M  END
$$$$
