
     RDKit          3D

 39 40  0  0  0  0  0  0  0  0999 V2000
   -3.9901   -1.4154   -0.6966 C   0  0  0  0  0  0  0  0  0  0  0  0
   -3.6382   -0.0984   -1.3702 C   0  0  0  0  0  0  0  0  0  0  0  0
   -3.0741    0.8854   -0.4407 N   0  0  0  0  0  0  0  0  0  0  0  0
   -4.0144    1.8112    0.2063 C   0  0  0  0  0  0  0  0  0  0  0  0
   -4.4486    1.3445    1.5898 C   0  0  0  0  0  0  0  0  0  0  0  0
   -1.7122    0.7966   -0.1514 C   0  0  0  0  0  0  0  0  0  0  0  0
   -0.9975   -0.0489   -0.7063 O   0  0  0  0  0  0  0  0  0  0  0  0
   -1.0923    1.7622    0.8575 C   0  0  0  0  0  0  0  0  0  0  0  0
    0.2886    2.6499    0.0671 S   0  0  0  0  0  0  0  0  0  0  0  0
    1.5961    1.6120    0.5235 C   0  0  0  0  0  0  0  0  0  0  0  0
    2.1635    1.5720    1.7060 N   0  0  0  0  0  0  0  0  0  0  0  0
    3.1625    0.6264    1.6488 N   0  0  0  0  0  0  0  0  0  0  0  0
    3.1956    0.1119    0.4265 C   0  0  0  0  0  0  0  0  0  0  0  0
    4.1317   -0.9179   -0.0303 C   0  0  0  0  0  0  0  0  0  0  0  0
    4.5943   -1.8727    0.8803 C   0  0  0  0  0  0  0  0  0  0  0  0
    5.4826   -2.8395    0.4394 C   0  0  0  0  0  0  0  0  0  0  0  0
    5.9366   -2.9171   -0.8290 N   0  0  0  0  0  0  0  0  0  0  0  0
    5.4989   -1.9744   -1.6881 C   0  0  0  0  0  0  0  0  0  0  0  0
    4.6126   -0.9661   -1.3413 C   0  0  0  0  0  0  0  0  0  0  0  0
    2.1664    0.6791   -0.3075 N   0  0  0  0  0  0  0  0  0  0  0  0
    1.7113    0.2916   -1.6276 N   0  0  0  0  0  0  0  0  0  0  0  0
   -4.3456   -2.1337   -1.4404 H   0  0  0  0  0  0  0  0  0  0  0  0
   -4.7803   -1.2873    0.0473 H   0  0  0  0  0  0  0  0  0  0  0  0
   -3.1211   -1.8502   -0.1910 H   0  0  0  0  0  0  0  0  0  0  0  0
   -4.5202    0.3291   -1.8607 H   0  0  0  0  0  0  0  0  0  0  0  0
   -2.9052   -0.2933   -2.1641 H   0  0  0  0  0  0  0  0  0  0  0  0
   -3.5466    2.8000    0.2687 H   0  0  0  0  0  0  0  0  0  0  0  0
   -4.8956    1.9406   -0.4374 H   0  0  0  0  0  0  0  0  0  0  0  0
   -5.0380    0.4244    1.5277 H   0  0  0  0  0  0  0  0  0  0  0  0
   -3.5915    1.1445    2.2388 H   0  0  0  0  0  0  0  0  0  0  0  0
   -5.0735    2.1069    2.0701 H   0  0  0  0  0  0  0  0  0  0  0  0
   -1.7868    2.5164    1.2224 H   0  0  0  0  0  0  0  0  0  0  0  0
   -0.7587    1.1854    1.7288 H   0  0  0  0  0  0  0  0  0  0  0  0
    4.2723   -1.8622    1.9179 H   0  0  0  0  0  0  0  0  0  0  0  0
    5.8654   -3.5963    1.1163 H   0  0  0  0  0  0  0  0  0  0  0  0
    5.8961   -2.0470   -2.6971 H   0  0  0  0  0  0  0  0  0  0  0  0
    4.3276   -0.2296   -2.0862 H   0  0  0  0  0  0  0  0  0  0  0  0
    1.7271   -0.7280   -1.7049 H   0  0  0  0  0  0  0  0  0  0  0  0
    0.7014    0.4882   -1.6917 H   0  0  0  0  0  0  0  0  0  0  0  0
  1  2  1  0
  2  3  1  0
  3  4  1  0
  4  5  1  0
  3  6  1  0
  6  7  2  0
  6  8  1  0
  8  9  1  0
  9 10  1  0
 10 11  2  0
 11 12  1  0
 12 13  2  0
 13 14  1  0
 14 15  2  0
 15 16  1  0
 16 17  2  0
 17 18  1  0
 18 19  2  0
 13 20  1  0
 20 21  1  0
 20 10  1  0
 19 14  1  0
  1 22  1  0
  1 23  1  0
  1 24  1  0
  2 25  1  0
  2 26  1  0
  4 27  1  0
  4 28  1  0
  5 29  1  0
  5 30  1  0
  5 31  1  0
  8 32  1  0
  8 33  1  0
 15 34  1  0
 16 35  1  0
 18 36  1  0
 19 37  1  0
 21 38  1  0
 21 39  1  0
M  END
$$$$
