
     RDKit          3D

 52 54  0  0  0  0  0  0  0  0999 V2000
   -4.4985    3.1689   -1.6204 C   0  0  0  0  0  0  0  0  0  0  0  0
   -3.8303    1.9732   -0.9120 C   0  0  0  0  0  0  0  0  0  0  0  0
   -4.3183    1.9640    0.5495 C   0  0  0  0  0  0  0  0  0  0  0  0
   -2.2883    2.1673   -0.9798 C   0  0  0  0  0  0  0  0  0  0  0  0
   -1.5543    0.9033   -0.6364 C   0  0  0  0  0  0  0  0  0  0  0  0
   -2.1922   -0.3177   -0.7802 C   0  0  0  0  0  0  0  0  0  0  0  0
   -1.2040   -1.6020   -0.2557 S   0  0  0  0  0  0  0  0  0  0  0  0
    0.0663   -0.5655    0.1663 C   0  0  0  0  0  0  0  0  0  0  0  0
    1.2391   -1.0508    0.7215 N   0  0  0  0  0  0  0  0  0  0  0  0
    1.5576   -2.3568    1.0431 C   0  0  0  0  0  0  0  0  0  0  0  0
    0.8555   -3.3557    0.9098 O   0  0  0  0  0  0  0  0  0  0  0  0
    2.9587   -2.4867    1.6509 C   0  0  0  0  0  0  0  0  0  0  0  0
    3.6946   -1.2721    1.5192 O   0  0  0  0  0  0  0  0  0  0  0  0
    5.0534   -1.3882    1.6409 C   0  0  0  0  0  0  0  0  0  0  0  0
    5.6636   -2.2493    2.5585 C   0  0  0  0  0  0  0  0  0  0  0  0
    7.0576   -2.2960    2.6540 C   0  0  0  0  0  0  0  0  0  0  0  0
    7.8399   -1.4765    1.8410 C   0  0  0  0  0  0  0  0  0  0  0  0
    9.5545   -1.5404    1.9656 Cl  0  0  0  0  0  0  0  0  0  0  0  0
    7.2451   -0.6043    0.9339 C   0  0  0  0  0  0  0  0  0  0  0  0
    5.8532   -0.5562    0.8407 C   0  0  0  0  0  0  0  0  0  0  0  0
    5.1471    0.5337   -0.3021 Cl  0  0  0  0  0  0  0  0  0  0  0  0
   -0.2062    0.7646   -0.1283 C   0  0  0  0  0  0  0  0  0  0  0  0
    0.7835    1.8150    0.1078 C   0  0  0  0  0  0  0  0  0  0  0  0
    0.7099    2.9108   -0.7023 N   0  0  0  0  0  0  0  0  0  0  0  0
    1.6888    1.7148    0.9305 O   0  0  0  0  0  0  0  0  0  0  0  0
   -3.6055   -0.5230   -1.3059 C   0  0  0  0  0  0  0  0  0  0  0  0
   -4.4859   -1.3023   -0.3092 C   0  0  0  0  0  0  0  0  0  0  0  0
   -3.5628   -1.3037   -2.6364 C   0  0  0  0  0  0  0  0  0  0  0  0
   -4.2569    0.7674   -1.6491 N   0  0  0  0  0  0  0  0  0  0  0  0
   -4.2080    4.1165   -1.1521 H   0  0  0  0  0  0  0  0  0  0  0  0
   -5.5917    3.1008   -1.5785 H   0  0  0  0  0  0  0  0  0  0  0  0
   -4.2094    3.2230   -2.6770 H   0  0  0  0  0  0  0  0  0  0  0  0
   -4.1432    2.9372    1.0241 H   0  0  0  0  0  0  0  0  0  0  0  0
   -5.3944    1.7624    0.6085 H   0  0  0  0  0  0  0  0  0  0  0  0
   -3.8012    1.2183    1.1599 H   0  0  0  0  0  0  0  0  0  0  0  0
   -1.9913    2.9769   -0.3024 H   0  0  0  0  0  0  0  0  0  0  0  0
   -1.9935    2.4608   -1.9964 H   0  0  0  0  0  0  0  0  0  0  0  0
    1.9465   -0.3467    0.9464 H   0  0  0  0  0  0  0  0  0  0  0  0
    3.4630   -3.3054    1.1225 H   0  0  0  0  0  0  0  0  0  0  0  0
    2.8303   -2.7285    2.7117 H   0  0  0  0  0  0  0  0  0  0  0  0
    5.0776   -2.8761    3.2244 H   0  0  0  0  0  0  0  0  0  0  0  0
    7.5262   -2.9677    3.3700 H   0  0  0  0  0  0  0  0  0  0  0  0
    7.8586    0.0348    0.3057 H   0  0  0  0  0  0  0  0  0  0  0  0
    0.2338    2.8412   -1.5896 H   0  0  0  0  0  0  0  0  0  0  0  0
    1.5107    3.5264   -0.6592 H   0  0  0  0  0  0  0  0  0  0  0  0
   -5.5216   -1.3741   -0.6623 H   0  0  0  0  0  0  0  0  0  0  0  0
   -4.1288   -2.3307   -0.1767 H   0  0  0  0  0  0  0  0  0  0  0  0
   -4.5040   -0.8412    0.6828 H   0  0  0  0  0  0  0  0  0  0  0  0
   -4.5664   -1.4260   -3.0627 H   0  0  0  0  0  0  0  0  0  0  0  0
   -3.1462   -2.3095   -2.5044 H   0  0  0  0  0  0  0  0  0  0  0  0
   -2.9426   -0.7917   -3.3832 H   0  0  0  0  0  0  0  0  0  0  0  0
   -5.2695    0.6635   -1.6115 H   0  0  0  0  0  0  0  0  0  0  0  0
  1  2  1  0
  2  3  1  0
  2  4  1  0
  4  5  1  0
  5  6  2  0
  6  7  1  0
  7  8  1  0
  8  9  1  0
  9 10  1  0
 10 11  2  0
 10 12  1  0
 12 13  1  0
 13 14  1  0
 14 15  2  0
 15 16  1  0
 16 17  2  0
 17 18  1  0
 17 19  1  0
 19 20  2  0
 20 21  1  0
  8 22  2  0
 22 23  1  0
 23 24  1  0
 23 25  2  0
  6 26  1  0
 26 27  1  0
 26 28  1  0
 26 29  1  0
 29  2  1  0
 22  5  1  0
 20 14  1  0
  1 30  1  0
  1 31  1  0
  1 32  1  0
  3 33  1  0
  3 34  1  0
  3 35  1  0
  4 36  1  0
  4 37  1  0
  9 38  1  0
 12 39  1  0
 12 40  1  0
 15 41  1  0
 16 42  1  0
 19 43  1  0
 24 44  1  0
 24 45  1  0
 27 46  1  0
 27 47  1  0
 27 48  1  0
 28 49  1  0
 28 50  1  0
 28 51  1  0
 29 52  1  0
M  END
$$$$
