
     RDKit          3D

 46 48  0  0  0  0  0  0  0  0999 V2000
    7.7893    1.5170    0.2324 C   0  0  0  0  0  0  0  0  0  0  0  0
    6.4462    0.8658    0.3554 C   0  0  0  0  0  0  0  0  0  0  0  0
    5.9852    0.4228    1.3975 O   0  0  0  0  0  0  0  0  0  0  0  0
    5.8214    0.8575   -0.8544 O   0  0  0  0  0  0  0  0  0  0  0  0
    4.5279    0.2297   -0.8824 C   0  0  0  0  0  0  0  0  0  0  0  0
    3.4546    1.2044   -0.4045 C   0  0  0  0  0  0  0  0  0  0  0  0
    2.0432    0.6569   -0.5954 C   0  0  0  0  0  0  0  0  0  0  0  0
    1.8346   -0.5314    0.2289 N   0  0  0  0  0  0  0  0  0  0  0  0
    0.5880   -1.1860    0.2682 C   0  0  0  0  0  0  0  0  0  0  0  0
   -0.3955   -0.9611   -0.7416 C   0  0  0  0  0  0  0  0  0  0  0  0
   -1.6462   -1.6255   -0.8159 C   0  0  0  0  0  0  0  0  0  0  0  0
   -2.8333   -1.2891   -2.0778 S   0  0  0  0  0  0  0  0  0  0  0  0
   -3.9144   -0.1757   -1.2013 C   0  0  0  0  0  0  0  0  0  0  0  0
   -5.0522   -0.6653   -0.5557 C   0  0  0  0  0  0  0  0  0  0  0  0
   -5.8993    0.2049    0.1346 C   0  0  0  0  0  0  0  0  0  0  0  0
   -5.6270    1.5783    0.1756 C   0  0  0  0  0  0  0  0  0  0  0  0
   -6.5272    2.5003    0.9437 C   0  0  0  0  0  0  0  0  0  0  0  0
   -4.4848    2.0651   -0.4701 C   0  0  0  0  0  0  0  0  0  0  0  0
   -3.6369    1.1944   -1.1606 C   0  0  0  0  0  0  0  0  0  0  0  0
   -1.8833   -2.5992    0.1808 C   0  0  0  0  0  0  0  0  0  0  0  0
   -2.9411   -3.3958    0.3909 N   0  0  0  0  0  0  0  0  0  0  0  0
   -2.6422   -4.1477    1.5090 O   0  0  0  0  0  0  0  0  0  0  0  0
   -1.3987   -3.8312    2.0175 N   0  0  0  0  0  0  0  0  0  0  0  0
   -0.8925   -2.8873    1.2110 C   0  0  0  0  0  0  0  0  0  0  0  0
    0.3342   -2.1975    1.2320 C   0  0  0  0  0  0  0  0  0  0  0  0
    1.2770   -2.5451    2.2562 N   0  0  0  0  0  4  0  0  0  0  0  0
    1.7024   -1.6159    2.9594 O   0  0  0  0  0  0  0  0  0  0  0  0
    1.6244   -3.7299    2.3430 O   0  0  0  0  0  1  0  0  0  0  0  0
    8.4024    0.9699   -0.4882 H   0  0  0  0  0  0  0  0  0  0  0  0
    8.2931    1.4962    1.2034 H   0  0  0  0  0  0  0  0  0  0  0  0
    7.6698    2.5584   -0.0777 H   0  0  0  0  0  0  0  0  0  0  0  0
    4.3425   -0.0526   -1.9245 H   0  0  0  0  0  0  0  0  0  0  0  0
    4.5389   -0.6970   -0.2964 H   0  0  0  0  0  0  0  0  0  0  0  0
    3.6224    1.4604    0.6484 H   0  0  0  0  0  0  0  0  0  0  0  0
    3.5553    2.1456   -0.9603 H   0  0  0  0  0  0  0  0  0  0  0  0
    1.3233    1.4346   -0.3133 H   0  0  0  0  0  0  0  0  0  0  0  0
    1.8987    0.4198   -1.6559 H   0  0  0  0  0  0  0  0  0  0  0  0
    2.2513   -0.4324    1.1645 H   0  0  0  0  0  0  0  0  0  0  0  0
   -0.1977   -0.2273   -1.5227 H   0  0  0  0  0  0  0  0  0  0  0  0
   -5.2869   -1.7276   -0.5748 H   0  0  0  0  0  0  0  0  0  0  0  0
   -6.7752   -0.1975    0.6405 H   0  0  0  0  0  0  0  0  0  0  0  0
   -6.3969    3.5410    0.6248 H   0  0  0  0  0  0  0  0  0  0  0  0
   -6.3049    2.4330    2.0142 H   0  0  0  0  0  0  0  0  0  0  0  0
   -7.5779    2.2376    0.7792 H   0  0  0  0  0  0  0  0  0  0  0  0
   -4.2491    3.1270   -0.4452 H   0  0  0  0  0  0  0  0  0  0  0  0
   -2.7631    1.5971   -1.6663 H   0  0  0  0  0  0  0  0  0  0  0  0
  1  2  1  0
  2  3  2  0
  2  4  1  0
  4  5  1  0
  5  6  1  0
  6  7  1  0
  7  8  1  0
  8  9  1  0
  9 10  1  0
 10 11  2  0
 11 12  1  0
 12 13  1  0
 13 14  2  0
 14 15  1  0
 15 16  2  0
 16 17  1  0
 16 18  1  0
 18 19  2  0
 11 20  1  0
 20 21  2  0
 21 22  1  0
 22 23  1  0
 23 24  2  0
 24 25  1  0
 25 26  1  0
 26 27  2  0
 26 28  1  0
 25  9  2  0
 19 13  1  0
 24 20  1  0
  1 29  1  0
  1 30  1  0
  1 31  1  0
  5 32  1  0
  5 33  1  0
  6 34  1  0
  6 35  1  0
  7 36  1  0
  7 37  1  0
  8 38  1  0
 10 39  1  0
 14 40  1  0
 15 41  1  0
 17 42  1  0
 17 43  1  0
 17 44  1  0
 18 45  1  0
 19 46  1  0
M  CHG  2  26   1  28  -1
M  END
$$$$
