
     RDKit          3D

 39 42  0  0  0  0  0  0  0  0999 V2000
   -0.3755    4.8781    1.7122 N   0  0  0  0  0  0  0  0  0  0  0  0
   -0.1528    3.7770    1.4184 C   0  0  0  0  0  0  0  0  0  0  0  0
    0.1583    2.3927    1.0398 C   0  0  0  0  0  0  0  0  0  0  0  0
   -1.2436    1.2672    1.3258 S   0  0  0  0  0  0  0  0  0  0  0  0
   -0.6159   -0.1820    0.5464 C   0  0  0  0  0  0  0  0  0  0  0  0
    0.6712   -0.3314    0.6046 N   0  0  0  0  0  0  0  0  0  0  0  0
    1.2003   -1.3534   -0.1148 C   0  0  0  0  0  0  0  0  0  0  0  0
    0.4971   -2.1975   -0.8625 C   0  0  0  0  0  0  0  0  0  0  0  0
    1.4523   -3.3464   -1.6969 S   0  0  0  0  0  0  0  0  0  0  0  0
    2.9350   -2.6271   -1.0185 C   0  0  0  0  0  0  0  0  0  0  0  0
    4.4572   -3.1980   -1.3780 S   0  0  0  0  0  0  0  0  0  0  0  0
    2.5651   -1.5749   -0.1759 N   0  0  0  0  0  0  0  0  0  0  0  0
    3.5069   -0.6950    0.5165 C   0  0  0  0  0  0  0  0  0  0  0  0
    3.6395    0.6227   -0.1727 C   0  0  0  0  0  0  0  0  0  0  0  0
    3.9127    1.8949    0.2904 C   0  0  0  0  0  0  0  0  0  0  0  0
    3.9161    2.7435   -0.8428 C   0  0  0  0  0  0  0  0  0  0  0  0
    3.6542    1.9380   -1.9254 C   0  0  0  0  0  0  0  0  0  0  0  0
    3.4841    0.6512   -1.5299 O   0  0  0  0  0  0  0  0  0  0  0  0
   -0.9643   -2.0842   -0.9192 C   0  0  0  0  0  0  0  0  0  0  0  0
   -1.6197   -2.8869   -1.5803 O   0  0  0  0  0  0  0  0  0  0  0  0
   -1.4888   -1.0367   -0.1426 N   0  0  0  0  0  0  0  0  0  0  0  0
   -2.9200   -0.9335   -0.0656 C   0  0  0  0  0  0  0  0  0  0  0  0
   -3.5768   -0.8676    1.1753 C   0  0  0  0  0  0  0  0  0  0  0  0
   -4.9708   -0.7855    1.2411 C   0  0  0  0  0  0  0  0  0  0  0  0
   -5.7149   -0.7835    0.0689 C   0  0  0  0  0  0  0  0  0  0  0  0
   -7.0500   -0.7069    0.1340 F   0  0  0  0  0  0  0  0  0  0  0  0
   -5.0922   -0.8704   -1.1684 C   0  0  0  0  0  0  0  0  0  0  0  0
   -3.6987   -0.9523   -1.2358 C   0  0  0  0  0  0  0  0  0  0  0  0
    0.4316    2.3622   -0.0203 H   0  0  0  0  0  0  0  0  0  0  0  0
    1.0166    2.0485    1.6255 H   0  0  0  0  0  0  0  0  0  0  0  0
    4.4939   -1.1609    0.5844 H   0  0  0  0  0  0  0  0  0  0  0  0
    3.1559   -0.5536    1.5459 H   0  0  0  0  0  0  0  0  0  0  0  0
    4.0948    2.1738    1.3193 H   0  0  0  0  0  0  0  0  0  0  0  0
    4.1003    3.8087   -0.8715 H   0  0  0  0  0  0  0  0  0  0  0  0
    3.5661    2.1158   -2.9885 H   0  0  0  0  0  0  0  0  0  0  0  0
   -3.0217   -0.9110    2.1095 H   0  0  0  0  0  0  0  0  0  0  0  0
   -5.4794   -0.7337    2.1989 H   0  0  0  0  0  0  0  0  0  0  0  0
   -5.6920   -0.8801   -2.0733 H   0  0  0  0  0  0  0  0  0  0  0  0
   -3.2322   -1.0218   -2.2166 H   0  0  0  0  0  0  0  0  0  0  0  0
  1  2  3  0
  2  3  1  0
  3  4  1  0
  4  5  1  0
  5  6  2  0
  6  7  1  0
  7  8  2  0
  8  9  1  0
  9 10  1  0
 10 11  2  0
 10 12  1  0
 12 13  1  0
 13 14  1  0
 14 15  2  0
 15 16  1  0
 16 17  2  0
 17 18  1  0
  8 19  1  0
 19 20  2  0
 19 21  1  0
 21 22  1  0
 22 23  2  0
 23 24  1  0
 24 25  2  0
 25 26  1  0
 25 27  1  0
 27 28  2  0
 21  5  1  0
 28 22  1  0
 12  7  1  0
 18 14  1  0
  3 29  1  0
  3 30  1  0
 13 31  1  0
 13 32  1  0
 15 33  1  0
 16 34  1  0
 17 35  1  0
 23 36  1  0
 24 37  1  0
 27 38  1  0
 28 39  1  0
M  END
$$$$
