
     RDKit          3D

 46 48  0  0  0  0  0  0  0  0999 V2000
    8.2134    0.3297    0.6645 C   0  0  0  0  0  0  0  0  0  0  0  0
    7.3875   -0.4934   -0.1504 O   0  0  0  0  0  0  0  0  0  0  0  0
    6.0363   -0.3317   -0.0231 C   0  0  0  0  0  0  0  0  0  0  0  0
    5.2695   -1.1644   -0.8422 C   0  0  0  0  0  0  0  0  0  0  0  0
    3.8715   -1.1091   -0.8184 C   0  0  0  0  0  0  0  0  0  0  0  0
    3.2230   -0.2112    0.0351 C   0  0  0  0  0  0  0  0  0  0  0  0
    1.7337   -0.1019    0.1076 C   0  0  0  0  0  0  0  0  0  0  0  0
    1.2331    0.7680    0.8217 O   0  0  0  0  0  0  0  0  0  0  0  0
    0.8976   -1.0731   -0.7213 C   0  0  0  0  0  0  0  0  0  0  0  0
   -0.5007   -0.8759   -0.4189 N   0  0  0  0  0  0  0  0  0  0  0  0
   -1.1566   -1.4831    0.6002 C   0  0  0  0  0  0  0  0  0  0  0  0
   -0.7147   -2.3173    1.3722 O   0  0  0  0  0  0  0  0  0  0  0  0
   -2.4465   -1.0106    0.6331 N   0  0  0  0  0  0  0  0  0  0  0  0
   -2.6763    0.0742   -0.3068 C   0  0  0  0  0  0  0  0  0  0  0  0
   -2.7884    1.4287    0.4081 C   0  0  0  0  0  0  0  0  0  0  0  0
   -4.1542    1.8341    0.9646 C   0  0  0  0  0  0  0  0  0  0  0  0
   -4.9932    0.7105    1.5621 C   0  0  0  0  0  0  0  0  0  0  0  0
   -5.5434   -0.3274    0.5754 C   0  0  0  0  0  0  0  0  0  0  0  0
   -5.2351   -0.0836   -0.8967 C   0  0  0  0  0  0  0  0  0  0  0  0
   -3.7754   -0.2679   -1.3200 C   0  0  0  0  0  0  0  0  0  0  0  0
   -1.3065    0.0380   -1.0332 C   0  0  0  0  0  0  0  0  0  0  0  0
   -0.9947    0.7309   -1.9942 O   0  0  0  0  0  0  0  0  0  0  0  0
    3.9938    0.6250    0.8547 C   0  0  0  0  0  0  0  0  0  0  0  0
    5.3924    0.5653    0.8268 C   0  0  0  0  0  0  0  0  0  0  0  0
    8.0700    1.3892    0.4283 H   0  0  0  0  0  0  0  0  0  0  0  0
    9.2556    0.0779    0.4456 H   0  0  0  0  0  0  0  0  0  0  0  0
    8.0395    0.1336    1.7277 H   0  0  0  0  0  0  0  0  0  0  0  0
    5.7695   -1.8649   -1.5082 H   0  0  0  0  0  0  0  0  0  0  0  0
    3.3273   -1.7766   -1.4792 H   0  0  0  0  0  0  0  0  0  0  0  0
    1.0653   -0.8749   -1.7842 H   0  0  0  0  0  0  0  0  0  0  0  0
    1.1706   -2.1009   -0.4634 H   0  0  0  0  0  0  0  0  0  0  0  0
   -3.0488   -1.2771    1.3997 H   0  0  0  0  0  0  0  0  0  0  0  0
   -2.4675    2.2309   -0.2706 H   0  0  0  0  0  0  0  0  0  0  0  0
   -2.0661    1.4543    1.2368 H   0  0  0  0  0  0  0  0  0  0  0  0
   -4.7268    2.3576    0.1902 H   0  0  0  0  0  0  0  0  0  0  0  0
   -3.9847    2.5891    1.7437 H   0  0  0  0  0  0  0  0  0  0  0  0
   -4.4280    0.2046    2.3539 H   0  0  0  0  0  0  0  0  0  0  0  0
   -5.8491    1.1703    2.0740 H   0  0  0  0  0  0  0  0  0  0  0  0
   -6.6353   -0.3511    0.6909 H   0  0  0  0  0  0  0  0  0  0  0  0
   -5.2091   -1.3306    0.8646 H   0  0  0  0  0  0  0  0  0  0  0  0
   -5.5797    0.9154   -1.1883 H   0  0  0  0  0  0  0  0  0  0  0  0
   -5.8444   -0.7731   -1.4960 H   0  0  0  0  0  0  0  0  0  0  0  0
   -3.6477   -1.3141   -1.6341 H   0  0  0  0  0  0  0  0  0  0  0  0
   -3.6284    0.3202   -2.2361 H   0  0  0  0  0  0  0  0  0  0  0  0
    3.5089    1.3329    1.5257 H   0  0  0  0  0  0  0  0  0  0  0  0
    5.9429    1.2333    1.4812 H   0  0  0  0  0  0  0  0  0  0  0  0
  1  2  1  0
  2  3  1  0
  3  4  2  0
  4  5  1  0
  5  6  2  0
  6  7  1  0
  7  8  2  0
  7  9  1  0
  9 10  1  0
 10 11  1  0
 11 12  2  0
 11 13  1  0
 13 14  1  0
 14 15  1  0
 15 16  1  0
 16 17  1  0
 17 18  1  0
 18 19  1  0
 19 20  1  0
 14 21  1  0
 21 22  2  0
  6 23  1  0
 23 24  2  0
 24  3  1  0
 21 10  1  0
 20 14  1  0
  1 25  1  0
  1 26  1  0
  1 27  1  0
  4 28  1  0
  5 29  1  0
  9 30  1  0
  9 31  1  0
 13 32  1  0
 15 33  1  0
 15 34  1  0
 16 35  1  0
 16 36  1  0
 17 37  1  0
 17 38  1  0
 18 39  1  0
 18 40  1  0
 19 41  1  0
 19 42  1  0
 20 43  1  0
 20 44  1  0
 23 45  1  0
 24 46  1  0
M  END
$$$$
