
     RDKit          3D

 61 65  0  0  0  0  0  0  0  0999 V2000
   -8.0295    1.7308   -1.3063 C   0  0  0  0  0  0  0  0  0  0  0  0
   -7.0289    0.7554   -0.7623 C   0  0  0  0  0  0  0  0  0  0  0  0
   -6.0584    1.1713    0.1566 C   0  0  0  0  0  0  0  0  0  0  0  0
   -5.1518    0.2544    0.6948 C   0  0  0  0  0  0  0  0  0  0  0  0
   -5.2144   -1.1004    0.3380 C   0  0  0  0  0  0  0  0  0  0  0  0
   -4.2456   -2.0959    0.9248 C   0  0  0  0  0  0  0  0  0  0  0  0
   -3.1298   -2.3433    0.0370 N   0  0  0  0  0  0  0  0  0  0  0  0
   -3.2075   -3.2953   -0.9277 N   0  0  0  0  0  0  0  0  0  0  0  0
   -2.0318   -3.3366   -1.5542 N   0  0  0  0  0  0  0  0  0  0  0  0
   -1.2232   -2.4240   -0.9523 C   0  0  0  0  0  0  0  0  0  0  0  0
    0.1450   -2.0701   -1.2084 C   0  0  0  0  0  0  0  0  0  0  0  0
    0.8549   -2.5526   -2.0822 O   0  0  0  0  0  0  0  0  0  0  0  0
    0.6083   -1.0990   -0.3288 N   0  0  0  0  0  0  0  0  0  0  0  0
   -0.1601   -0.5261    0.6793 C   0  0  0  0  0  0  0  0  0  0  0  0
    0.5330    0.4841    1.5893 C   0  0  0  0  0  0  0  0  0  0  0  0
    1.4863   -0.2332    2.5538 C   0  0  0  0  0  0  0  0  0  0  0  0
    2.8938   -0.4225    1.9996 C   0  0  0  0  0  0  0  0  0  0  0  0
    3.4490    0.8202    1.3991 N   0  0  0  0  0  0  0  0  0  0  0  0
    5.0634    1.1916    1.8704 S   0  0  0  0  0  6  0  0  0  0  0  0
    5.0597    1.1522    3.3218 O   0  0  0  0  0  0  0  0  0  0  0  0
    5.4492    2.4159    1.2003 O   0  0  0  0  0  0  0  0  0  0  0  0
    6.0686   -0.0995    1.3041 C   0  0  0  0  0  0  0  0  0  0  0  0
    6.0390   -0.6023    0.0597 C   0  0  0  0  0  0  0  0  0  0  0  0
    5.2086   -0.1855   -1.0741 C   0  0  0  0  0  0  0  0  0  0  0  0
    4.3225   -1.1030   -1.6507 C   0  0  0  0  0  0  0  0  0  0  0  0
    3.5462   -0.7352   -2.7516 C   0  0  0  0  0  0  0  0  0  0  0  0
    3.6499    0.5489   -3.2840 C   0  0  0  0  0  0  0  0  0  0  0  0
    4.5467    1.4592   -2.7319 C   0  0  0  0  0  0  0  0  0  0  0  0
    5.3289    1.0899   -1.6363 C   0  0  0  0  0  0  0  0  0  0  0  0
    2.5505    2.0007    1.4303 C   0  0  0  0  0  0  0  0  0  0  0  0
    1.2065    1.6243    0.8197 C   0  0  0  0  0  0  0  0  0  0  0  0
   -1.4053   -0.8419    0.9178 N   0  0  0  0  0  0  0  0  0  0  0  0
   -1.8829   -1.7858    0.0697 C   0  0  0  0  0  0  0  0  0  0  0  0
   -6.1844   -1.5127   -0.5850 C   0  0  0  0  0  0  0  0  0  0  0  0
   -7.0864   -0.5935   -1.1250 C   0  0  0  0  0  0  0  0  0  0  0  0
   -7.5919    2.7298   -1.4019 H   0  0  0  0  0  0  0  0  0  0  0  0
   -8.3710    1.4269   -2.3025 H   0  0  0  0  0  0  0  0  0  0  0  0
   -8.8960    1.7838   -0.6406 H   0  0  0  0  0  0  0  0  0  0  0  0
   -6.0072    2.2122    0.4643 H   0  0  0  0  0  0  0  0  0  0  0  0
   -4.4003    0.6035    1.4009 H   0  0  0  0  0  0  0  0  0  0  0  0
   -4.7443   -3.0530    1.1194 H   0  0  0  0  0  0  0  0  0  0  0  0
   -3.8514   -1.7448    1.8850 H   0  0  0  0  0  0  0  0  0  0  0  0
    1.5548   -0.7884   -0.5068 H   0  0  0  0  0  0  0  0  0  0  0  0
   -0.2613    0.9291    2.2061 H   0  0  0  0  0  0  0  0  0  0  0  0
    1.5551    0.3604    3.4756 H   0  0  0  0  0  0  0  0  0  0  0  0
    1.0784   -1.2076    2.8518 H   0  0  0  0  0  0  0  0  0  0  0  0
    2.8942   -1.1958    1.2254 H   0  0  0  0  0  0  0  0  0  0  0  0
    3.5314   -0.8037    2.8043 H   0  0  0  0  0  0  0  0  0  0  0  0
    6.7493   -0.5060    2.0397 H   0  0  0  0  0  0  0  0  0  0  0  0
    6.7099   -1.4299   -0.1687 H   0  0  0  0  0  0  0  0  0  0  0  0
    4.2401   -2.1152   -1.2605 H   0  0  0  0  0  0  0  0  0  0  0  0
    2.8689   -1.4548   -3.2095 H   0  0  0  0  0  0  0  0  0  0  0  0
    3.0484    0.8307   -4.1440 H   0  0  0  0  0  0  0  0  0  0  0  0
    4.6567    2.4524   -3.1617 H   0  0  0  0  0  0  0  0  0  0  0  0
    6.0435    1.8079   -1.2367 H   0  0  0  0  0  0  0  0  0  0  0  0
    2.9773    2.8107    0.8306 H   0  0  0  0  0  0  0  0  0  0  0  0
    2.4303    2.3658    2.4561 H   0  0  0  0  0  0  0  0  0  0  0  0
    0.5477    2.5014    0.8304 H   0  0  0  0  0  0  0  0  0  0  0  0
    1.3489    1.3759   -0.2385 H   0  0  0  0  0  0  0  0  0  0  0  0
   -6.2446   -2.5560   -0.8930 H   0  0  0  0  0  0  0  0  0  0  0  0
   -7.8369   -0.9431   -1.8304 H   0  0  0  0  0  0  0  0  0  0  0  0
  1  2  1  0
  2  3  2  0
  3  4  1  0
  4  5  2  0
  5  6  1  0
  6  7  1  0
  7  8  1  0
  8  9  2  0
  9 10  1  0
 10 11  1  0
 11 12  2  0
 11 13  1  0
 13 14  1  0
 14 15  1  0
 15 16  1  0
 16 17  1  0
 17 18  1  0
 18 19  1  0
 19 20  2  0
 19 21  2  0
 19 22  1  0
 22 23  2  3
 23 24  1  0
 24 25  2  0
 25 26  1  0
 26 27  2  0
 27 28  1  0
 28 29  2  0
 18 30  1  0
 30 31  1  0
 14 32  2  0
 32 33  1  0
  5 34  1  0
 34 35  2  0
 35  2  1  0
 33  7  1  0
 33 10  2  0
 31 15  1  0
 29 24  1  0
  1 36  1  0
  1 37  1  0
  1 38  1  0
  3 39  1  0
  4 40  1  0
  6 41  1  0
  6 42  1  0
 13 43  1  0
 15 44  1  0
 16 45  1  0
 16 46  1  0
 17 47  1  0
 17 48  1  0
 22 49  1  0
 23 50  1  0
 25 51  1  0
 26 52  1  0
 27 53  1  0
 28 54  1  0
 29 55  1  0
 30 56  1  0
 30 57  1  0
 31 58  1  0
 31 59  1  0
 34 60  1  0
 35 61  1  0
M  END
$$$$
