
     RDKit          3D

 42 44  0  0  0  0  0  0  0  0999 V2000
   -5.2190    1.5986   -1.1801 C   0  0  0  0  0  0  0  0  0  0  0  0
   -4.6252    0.1829   -1.2456 C   0  0  0  0  0  0  0  0  0  0  0  0
   -5.5133   -0.7984   -0.4648 C   0  0  0  0  0  0  0  0  0  0  0  0
   -4.5889   -0.2615   -2.7191 C   0  0  0  0  0  0  0  0  0  0  0  0
   -3.2529    0.1676   -0.7331 N   0  0  0  0  0  0  0  0  0  0  0  0
   -2.8631    0.5027    0.5517 C   0  0  0  0  0  0  0  0  0  0  0  0
   -3.6388    0.8571    1.4336 O   0  0  0  0  0  0  0  0  0  0  0  0
   -1.4002    0.3858    0.7432 C   0  0  0  0  0  0  0  0  0  0  0  0
   -0.5665   -0.0186   -0.2798 N   0  0  0  0  0  0  0  0  0  0  0  0
    0.6296    0.0029    0.2606 C   0  0  0  0  0  0  0  0  0  0  0  0
    1.8275   -0.3058   -0.3108 N   0  0  0  0  0  0  0  0  0  0  0  0
    2.8879   -0.1948    0.4368 C   0  0  0  0  0  0  0  0  0  0  0  0
    4.2227   -0.5153   -0.1474 C   0  0  0  0  0  0  0  0  0  0  0  0
    5.3831    0.1726    0.2301 C   0  0  0  0  0  0  0  0  0  0  0  0
    6.6118   -0.1604   -0.3460 C   0  0  0  0  0  0  0  0  0  0  0  0
    6.6857   -1.1712   -1.3037 C   0  0  0  0  0  0  0  0  0  0  0  0
    5.5315   -1.8470   -1.6957 C   0  0  0  0  0  0  0  0  0  0  0  0
    4.3016   -1.5175   -1.1236 C   0  0  0  0  0  0  0  0  0  0  0  0
    2.8636    0.2149    1.8787 C   0  0  0  0  0  0  0  0  0  0  0  0
    1.6557    0.5087    2.3981 C   0  0  0  0  0  0  0  0  0  0  0  0
    1.4365    0.9248    3.8017 C   0  0  0  0  0  0  0  0  0  0  0  0
    0.8942    2.1620    3.9018 F   0  0  0  0  0  0  0  0  0  0  0  0
    0.6481    0.0625    4.4868 F   0  0  0  0  0  0  0  0  0  0  0  0
    2.6142    0.9783    4.4866 F   0  0  0  0  0  0  0  0  0  0  0  0
    0.5286    0.4118    1.5955 N   0  0  0  0  0  0  0  0  0  0  0  0
   -0.7647    0.6536    1.8942 N   0  0  0  0  0  0  0  0  0  0  0  0
   -4.5800    2.3175   -1.7059 H   0  0  0  0  0  0  0  0  0  0  0  0
   -6.2131    1.6323   -1.6402 H   0  0  0  0  0  0  0  0  0  0  0  0
   -5.3253    1.9504   -0.1489 H   0  0  0  0  0  0  0  0  0  0  0  0
   -5.6275   -0.5024    0.5829 H   0  0  0  0  0  0  0  0  0  0  0  0
   -5.0861   -1.8078   -0.4739 H   0  0  0  0  0  0  0  0  0  0  0  0
   -6.5180   -0.8540   -0.8990 H   0  0  0  0  0  0  0  0  0  0  0  0
   -3.9634    0.4102   -3.3187 H   0  0  0  0  0  0  0  0  0  0  0  0
   -5.5919   -0.2703   -3.1604 H   0  0  0  0  0  0  0  0  0  0  0  0
   -4.1692   -1.2696   -2.8172 H   0  0  0  0  0  0  0  0  0  0  0  0
   -2.4930   -0.1031   -1.3535 H   0  0  0  0  0  0  0  0  0  0  0  0
    5.3539    0.9873    0.9477 H   0  0  0  0  0  0  0  0  0  0  0  0
    7.5125    0.3758   -0.0558 H   0  0  0  0  0  0  0  0  0  0  0  0
    7.6427   -1.4259   -1.7533 H   0  0  0  0  0  0  0  0  0  0  0  0
    5.5870   -2.6276   -2.4507 H   0  0  0  0  0  0  0  0  0  0  0  0
    3.4070   -2.0485   -1.4434 H   0  0  0  0  0  0  0  0  0  0  0  0
    3.7746    0.2394    2.4639 H   0  0  0  0  0  0  0  0  0  0  0  0
  1  2  1  0
  2  3  1  0
  2  4  1  0
  2  5  1  0
  5  6  1  0
  6  7  2  0
  6  8  1  0
  8  9  1  0
  9 10  2  0
 10 11  1  0
 11 12  2  0
 12 13  1  0
 13 14  2  0
 14 15  1  0
 15 16  2  0
 16 17  1  0
 17 18  2  0
 12 19  1  0
 19 20  2  0
 20 21  1  0
 21 22  1  0
 21 23  1  0
 21 24  1  0
 20 25  1  0
 25 26  1  0
 26  8  2  0
 25 10  1  0
 18 13  1  0
  1 27  1  0
  1 28  1  0
  1 29  1  0
  3 30  1  0
  3 31  1  0
  3 32  1  0
  4 33  1  0
  4 34  1  0
  4 35  1  0
  5 36  1  0
 14 37  1  0
 15 38  1  0
 16 39  1  0
 17 40  1  0
 18 41  1  0
 19 42  1  0
M  END
$$$$
