
     RDKit          3D

 47 50  0  0  0  0  0  0  0  0999 V2000
   -2.6720    2.4199   -1.2963 O   0  0  0  0  0  0  0  0  0  0  0  0
   -2.8363    1.2364   -1.0681 C   0  0  0  0  0  0  0  0  0  0  0  0
   -4.1362    0.6302   -0.7907 C   0  0  0  0  0  0  0  0  0  0  0  0
   -5.3770    1.2095   -0.6122 C   0  0  0  0  0  0  0  0  0  0  0  0
   -6.4559    0.3492   -0.3837 C   0  0  0  0  0  0  0  0  0  0  0  0
   -6.2714   -1.0490   -0.3469 C   0  0  0  0  0  0  0  0  0  0  0  0
   -5.0049   -1.6109   -0.5378 C   0  0  0  0  0  0  0  0  0  0  0  0
   -3.9551   -0.7400   -0.7553 C   0  0  0  0  0  0  0  0  0  0  0  0
   -2.5388   -1.0038   -1.0037 C   0  0  0  0  0  0  0  0  0  0  0  0
   -2.0731   -2.1207   -1.1270 O   0  0  0  0  0  0  0  0  0  0  0  0
   -1.9287    0.2141   -1.0950 N   0  0  0  0  0  0  0  0  0  0  0  0
   -0.5350    0.4214   -1.4098 C   0  0  0  0  0  0  0  0  0  0  0  0
    0.4009   -0.3219   -0.5645 N   0  0  0  0  0  0  0  0  0  0  0  0
    0.4214   -0.0016    0.7961 C   0  0  0  0  0  0  0  0  0  0  0  0
   -0.4168    0.7604    1.2882 O   0  0  0  0  0  0  0  0  0  0  0  0
    1.5659   -0.5694    1.6580 C   0  0  0  0  0  0  0  0  0  0  0  0
    1.9032    0.2274    2.7872 O   0  0  0  0  0  0  0  0  0  0  0  0
    2.6578    1.3492    2.5807 C   0  0  0  0  0  0  0  0  0  0  0  0
    3.1644    1.7954    1.3589 C   0  0  0  0  0  0  0  0  0  0  0  0
    3.9278    2.9664    1.3004 C   0  0  0  0  0  0  0  0  0  0  0  0
    4.1885    3.6951    2.4595 C   0  0  0  0  0  0  0  0  0  0  0  0
    3.6856    3.2552    3.6808 C   0  0  0  0  0  0  0  0  0  0  0  0
    2.9238    2.0869    3.7380 C   0  0  0  0  0  0  0  0  0  0  0  0
    1.1820   -1.3424   -1.1721 C   0  0  0  0  0  0  0  0  0  0  0  0
    1.2472   -2.6256   -0.6101 C   0  0  0  0  0  0  0  0  0  0  0  0
    2.0098   -3.6276   -1.2153 C   0  0  0  0  0  0  0  0  0  0  0  0
    2.7025   -3.3491   -2.3858 C   0  0  0  0  0  0  0  0  0  0  0  0
    3.4342   -4.3088   -2.9658 F   0  0  0  0  0  0  0  0  0  0  0  0
    2.6399   -2.0897   -2.9679 C   0  0  0  0  0  0  0  0  0  0  0  0
    1.8740   -1.0879   -2.3661 C   0  0  0  0  0  0  0  0  0  0  0  0
   -5.5042    2.2865   -0.6482 H   0  0  0  0  0  0  0  0  0  0  0  0
   -7.4520    0.7622   -0.2339 H   0  0  0  0  0  0  0  0  0  0  0  0
   -7.1279   -1.6974   -0.1691 H   0  0  0  0  0  0  0  0  0  0  0  0
   -4.8494   -2.6846   -0.5171 H   0  0  0  0  0  0  0  0  0  0  0  0
   -0.2934    1.4872   -1.3167 H   0  0  0  0  0  0  0  0  0  0  0  0
   -0.4172    0.1455   -2.4633 H   0  0  0  0  0  0  0  0  0  0  0  0
    2.4652   -0.7926    1.0762 H   0  0  0  0  0  0  0  0  0  0  0  0
    1.2026   -1.5196    2.0645 H   0  0  0  0  0  0  0  0  0  0  0  0
    2.9882    1.2646    0.4308 H   0  0  0  0  0  0  0  0  0  0  0  0
    4.3181    3.3117    0.3463 H   0  0  0  0  0  0  0  0  0  0  0  0
    4.7797    4.6057    2.4103 H   0  0  0  0  0  0  0  0  0  0  0  0
    3.8812    3.8199    4.5883 H   0  0  0  0  0  0  0  0  0  0  0  0
    2.5285    1.7493    4.6930 H   0  0  0  0  0  0  0  0  0  0  0  0
    0.6581   -2.8816    0.2674 H   0  0  0  0  0  0  0  0  0  0  0  0
    2.0496   -4.6261   -0.7908 H   0  0  0  0  0  0  0  0  0  0  0  0
    3.1880   -1.8956   -3.8847 H   0  0  0  0  0  0  0  0  0  0  0  0
    1.8572   -0.1032   -2.8268 H   0  0  0  0  0  0  0  0  0  0  0  0
  1  2  2  0
  2  3  1  0
  3  4  2  0
  4  5  1  0
  5  6  2  0
  6  7  1  0
  7  8  2  0
  8  9  1  0
  9 10  2  0
  9 11  1  0
 11 12  1  0
 12 13  1  0
 13 14  1  0
 14 15  2  0
 14 16  1  0
 16 17  1  0
 17 18  1  0
 18 19  2  0
 19 20  1  0
 20 21  2  0
 21 22  1  0
 22 23  2  0
 13 24  1  0
 24 25  2  0
 25 26  1  0
 26 27  2  0
 27 28  1  0
 27 29  1  0
 29 30  2  0
 11  2  1  0
 23 18  1  0
 30 24  1  0
  8  3  1  0
  4 31  1  0
  5 32  1  0
  6 33  1  0
  7 34  1  0
 12 35  1  0
 12 36  1  0
 16 37  1  0
 16 38  1  0
 19 39  1  0
 20 40  1  0
 21 41  1  0
 22 42  1  0
 23 43  1  0
 25 44  1  0
 26 45  1  0
 29 46  1  0
 30 47  1  0
M  END
$$$$
