
     RDKit          3D

 52 55  0  0  0  0  0  0  0  0999 V2000
   -3.5400   -1.9199    0.8913 C   0  0  0  0  0  0  0  0  0  0  0  0
   -3.3000   -0.5241    1.0529 O   0  0  0  0  0  0  0  0  0  0  0  0
   -4.4144    0.1919    1.4493 C   0  0  0  0  0  0  0  0  0  0  0  0
   -5.5520   -0.5043    1.7086 N   0  0  0  0  0  0  0  0  0  0  0  0
   -6.6323    0.1979    2.1112 C   0  0  0  0  0  0  0  0  0  0  0  0
   -6.6367    1.5703    2.2730 C   0  0  0  0  0  0  0  0  0  0  0  0
   -5.4611    2.2655    2.0039 C   0  0  0  0  0  0  0  0  0  0  0  0
   -4.3141    1.5781    1.5798 C   0  0  0  0  0  0  0  0  0  0  0  0
   -3.0887    2.3838    1.3072 C   0  0  0  0  0  0  0  0  0  0  0  0
   -3.0825    3.5878    1.5498 O   0  0  0  0  0  0  0  0  0  0  0  0
   -1.9954    1.7385    0.7831 N   0  0  0  0  0  0  0  0  0  0  0  0
   -0.7276    2.4075    0.5687 C   0  0  0  0  0  0  0  0  0  0  0  0
    0.0695    2.5324    1.8875 C   0  0  0  0  0  0  0  0  0  0  0  0
    0.6761    1.1852    2.3239 C   0  0  0  0  0  0  0  0  0  0  0  0
    1.6525    0.6118    1.2773 C   0  0  0  0  0  0  0  0  0  0  0  0
    1.1085    0.7738   -0.1012 C   0  0  0  0  0  0  0  0  0  0  0  0
    0.0337    1.5883   -0.4162 C   0  0  0  0  0  0  0  0  0  0  0  0
   -0.1614    1.4115   -1.7876 C   0  0  0  0  0  0  0  0  0  0  0  0
    0.7036    0.5482   -2.3124 N   0  0  0  0  0  0  0  0  0  0  0  0
    1.5330    0.1840   -1.2871 N   0  0  0  0  0  0  0  0  0  0  0  0
    2.6331   -0.6877   -1.5692 C   0  0  0  0  0  0  0  0  0  0  0  0
    2.7003   -1.2988   -2.8356 C   0  0  0  0  0  0  0  0  0  0  0  0
    3.7494   -2.1657   -3.1721 C   0  0  0  0  0  0  0  0  0  0  0  0
    3.7718   -2.8420   -4.5110 C   0  0  0  0  0  0  0  0  0  0  0  0
    4.7392   -2.4352   -2.2236 C   0  0  0  0  0  0  0  0  0  0  0  0
    4.7119   -1.8147   -0.9698 C   0  0  0  0  0  0  0  0  0  0  0  0
    5.7789   -2.1156    0.0431 C   0  0  0  0  0  0  0  0  0  0  0  0
    3.6530   -0.9486   -0.6474 C   0  0  0  0  0  0  0  0  0  0  0  0
   -4.2954   -2.1064    0.1203 H   0  0  0  0  0  0  0  0  0  0  0  0
   -2.6044   -2.3798    0.5584 H   0  0  0  0  0  0  0  0  0  0  0  0
   -3.8194   -2.3869    1.8419 H   0  0  0  0  0  0  0  0  0  0  0  0
   -7.5232   -0.3923    2.3078 H   0  0  0  0  0  0  0  0  0  0  0  0
   -7.5307    2.0900    2.6002 H   0  0  0  0  0  0  0  0  0  0  0  0
   -5.4407    3.3472    2.1242 H   0  0  0  0  0  0  0  0  0  0  0  0
   -2.0250    0.7280    0.6860 H   0  0  0  0  0  0  0  0  0  0  0  0
   -0.9231    3.4091    0.1683 H   0  0  0  0  0  0  0  0  0  0  0  0
    0.8872    3.2517    1.7475 H   0  0  0  0  0  0  0  0  0  0  0  0
   -0.5669    2.9239    2.6894 H   0  0  0  0  0  0  0  0  0  0  0  0
    1.2010    1.3064    3.2786 H   0  0  0  0  0  0  0  0  0  0  0  0
   -0.1336    0.4652    2.4997 H   0  0  0  0  0  0  0  0  0  0  0  0
    1.8263   -0.4426    1.5146 H   0  0  0  0  0  0  0  0  0  0  0  0
    2.6012    1.1551    1.3558 H   0  0  0  0  0  0  0  0  0  0  0  0
   -0.9123    1.8585   -2.4270 H   0  0  0  0  0  0  0  0  0  0  0  0
    1.9220   -1.1129   -3.5756 H   0  0  0  0  0  0  0  0  0  0  0  0
    4.7989   -3.0609   -4.8214 H   0  0  0  0  0  0  0  0  0  0  0  0
    3.3309   -2.1995   -5.2803 H   0  0  0  0  0  0  0  0  0  0  0  0
    3.2088   -3.7792   -4.4661 H   0  0  0  0  0  0  0  0  0  0  0  0
    5.5444   -3.1259   -2.4671 H   0  0  0  0  0  0  0  0  0  0  0  0
    5.4783   -2.9682    0.6596 H   0  0  0  0  0  0  0  0  0  0  0  0
    6.7291   -2.3510   -0.4477 H   0  0  0  0  0  0  0  0  0  0  0  0
    5.9556   -1.2522    0.6931 H   0  0  0  0  0  0  0  0  0  0  0  0
    3.6825   -0.4770    0.3249 H   0  0  0  0  0  0  0  0  0  0  0  0
  1  2  1  0
  2  3  1  0
  3  4  2  0
  4  5  1  0
  5  6  2  0
  6  7  1  0
  7  8  2  0
  8  9  1  0
  9 10  2  0
  9 11  1  0
 11 12  1  0
 12 13  1  0
 13 14  1  0
 14 15  1  0
 15 16  1  0
 16 17  2  0
 17 18  1  0
 18 19  2  0
 19 20  1  0
 20 21  1  0
 21 22  2  0
 22 23  1  0
 23 24  1  0
 23 25  2  0
 25 26  1  0
 26 27  1  0
 26 28  2  0
  8  3  1  0
 17 12  1  0
 28 21  1  0
 20 16  1  0
  1 29  1  0
  1 30  1  0
  1 31  1  0
  5 32  1  0
  6 33  1  0
  7 34  1  0
 11 35  1  0
 12 36  1  0
 13 37  1  0
 13 38  1  0
 14 39  1  0
 14 40  1  0
 15 41  1  0
 15 42  1  0
 18 43  1  0
 22 44  1  0
 24 45  1  0
 24 46  1  0
 24 47  1  0
 25 48  1  0
 27 49  1  0
 27 50  1  0
 27 51  1  0
 28 52  1  0
M  END
$$$$
