
     RDKit          3D

 57 59  0  0  0  0  0  0  0  0999 V2000
    5.5310    0.3860   -1.3892 C   0  0  0  0  0  0  0  0  0  0  0  0
    5.5887    0.7004    0.0812 C   0  0  0  0  0  0  0  0  0  0  0  0
    6.8349    0.7785    0.7209 C   0  0  0  0  0  0  0  0  0  0  0  0
    6.9143    1.0477    2.0850 C   0  0  0  0  0  0  0  0  0  0  0  0
    5.7497    1.2362    2.8212 C   0  0  0  0  0  0  0  0  0  0  0  0
    4.5019    1.1499    2.1979 C   0  0  0  0  0  0  0  0  0  0  0  0
    4.4101    0.8742    0.8308 C   0  0  0  0  0  0  0  0  0  0  0  0
    3.2434    0.7659    0.1237 O   0  0  0  0  0  0  0  0  0  0  0  0
    1.9974    0.6895    0.8210 C   0  0  0  0  0  0  0  0  0  0  0  0
    1.7331   -0.7245    1.3595 C   0  0  0  0  0  0  0  0  0  0  0  0
    1.6689   -1.7282    0.2878 N   0  0  0  0  0  0  0  0  0  0  0  0
    0.6027   -1.7773   -0.6266 C   0  0  0  0  0  0  0  0  0  0  0  0
   -0.6866   -1.3189   -0.2770 C   0  0  0  0  0  0  0  0  0  0  0  0
   -1.8017   -1.3960   -1.1372 C   0  0  0  0  0  0  0  0  0  0  0  0
   -3.0780   -0.9212   -0.7961 N   0  0  0  0  0  0  0  0  0  0  0  0
   -3.3755   -0.6667    0.6313 C   0  0  0  0  0  0  0  0  0  0  0  0
   -4.8815   -0.3786    0.8259 C   0  0  0  0  0  0  0  0  0  0  0  0
   -5.4142    0.7389    0.0107 N   0  0  0  0  0  0  0  0  0  0  0  0
   -4.8988    2.0629    0.4203 C   0  0  0  0  0  0  0  0  0  0  0  0
   -5.2470    2.4655    1.8635 C   0  0  0  0  0  0  0  0  0  0  0  0
   -4.2907    1.9362    2.7810 O   0  0  0  0  0  0  0  0  0  0  0  0
   -5.0767    0.4589   -1.4064 C   0  0  0  0  0  0  0  0  0  0  0  0
   -3.5862    0.1424   -1.6956 C   0  0  0  0  0  0  0  0  0  0  0  0
   -1.6154   -2.0170   -2.3789 C   0  0  0  0  0  0  0  0  0  0  0  0
   -0.3772   -2.5362   -2.7507 C   0  0  0  0  0  0  0  0  0  0  0  0
    0.7136   -2.4245   -1.8761 C   0  0  0  0  0  0  0  0  0  0  0  0
    1.9833   -3.0022   -2.3215 N   0  0  0  0  0  4  0  0  0  0  0  0
    3.0333   -2.4402   -1.9742 O   0  0  0  0  0  0  0  0  0  0  0  0
    1.9328   -4.0071   -3.0476 O   0  0  0  0  0  1  0  0  0  0  0  0
    5.1761   -0.6376   -1.5391 H   0  0  0  0  0  0  0  0  0  0  0  0
    4.8654    1.0824   -1.9091 H   0  0  0  0  0  0  0  0  0  0  0  0
    6.5179    0.4753   -1.8555 H   0  0  0  0  0  0  0  0  0  0  0  0
    7.7516    0.6275    0.1560 H   0  0  0  0  0  0  0  0  0  0  0  0
    7.8840    1.1093    2.5714 H   0  0  0  0  0  0  0  0  0  0  0  0
    5.8109    1.4499    3.8852 H   0  0  0  0  0  0  0  0  0  0  0  0
    3.6266    1.3083    2.8161 H   0  0  0  0  0  0  0  0  0  0  0  0
    1.2237    0.9573    0.0925 H   0  0  0  0  0  0  0  0  0  0  0  0
    1.9254    1.4451    1.6098 H   0  0  0  0  0  0  0  0  0  0  0  0
    0.8316   -0.7420    1.9791 H   0  0  0  0  0  0  0  0  0  0  0  0
    2.5554   -1.0244    2.0182 H   0  0  0  0  0  0  0  0  0  0  0  0
    2.5770   -1.7720   -0.1967 H   0  0  0  0  0  0  0  0  0  0  0  0
   -0.8288   -0.8754    0.7007 H   0  0  0  0  0  0  0  0  0  0  0  0
   -2.7861    0.1791    1.0044 H   0  0  0  0  0  0  0  0  0  0  0  0
   -3.1211   -1.5514    1.2282 H   0  0  0  0  0  0  0  0  0  0  0  0
   -5.1024   -0.2303    1.8875 H   0  0  0  0  0  0  0  0  0  0  0  0
   -5.4422   -1.2828    0.5509 H   0  0  0  0  0  0  0  0  0  0  0  0
   -5.3671    2.8075   -0.2358 H   0  0  0  0  0  0  0  0  0  0  0  0
   -3.8149    2.1372    0.2785 H   0  0  0  0  0  0  0  0  0  0  0  0
   -6.2487    2.1234    2.1446 H   0  0  0  0  0  0  0  0  0  0  0  0
   -5.2179    3.5563    1.9550 H   0  0  0  0  0  0  0  0  0  0  0  0
   -4.6140    2.1564    3.6721 H   0  0  0  0  0  0  0  0  0  0  0  0
   -5.4014    1.2931   -2.0401 H   0  0  0  0  0  0  0  0  0  0  0  0
   -5.6785   -0.4022   -1.7258 H   0  0  0  0  0  0  0  0  0  0  0  0
   -2.9794    1.0479   -1.5723 H   0  0  0  0  0  0  0  0  0  0  0  0
   -3.5149   -0.1552   -2.7477 H   0  0  0  0  0  0  0  0  0  0  0  0
   -2.4581   -2.1433   -3.0550 H   0  0  0  0  0  0  0  0  0  0  0  0
   -0.2800   -3.0339   -3.7132 H   0  0  0  0  0  0  0  0  0  0  0  0
  1  2  1  0
  2  3  2  0
  3  4  1  0
  4  5  2  0
  5  6  1  0
  6  7  2  0
  7  8  1  0
  8  9  1  0
  9 10  1  0
 10 11  1  0
 11 12  1  0
 12 13  2  0
 13 14  1  0
 14 15  1  0
 15 16  1  0
 16 17  1  0
 17 18  1  0
 18 19  1  0
 19 20  1  0
 20 21  1  0
 18 22  1  0
 22 23  1  0
 14 24  2  0
 24 25  1  0
 25 26  2  0
 26 27  1  0
 27 28  2  0
 27 29  1  0
  7  2  1  0
 26 12  1  0
 23 15  1  0
  1 30  1  0
  1 31  1  0
  1 32  1  0
  3 33  1  0
  4 34  1  0
  5 35  1  0
  6 36  1  0
  9 37  1  0
  9 38  1  0
 10 39  1  0
 10 40  1  0
 11 41  1  0
 13 42  1  0
 16 43  1  0
 16 44  1  0
 17 45  1  0
 17 46  1  0
 19 47  1  0
 19 48  1  0
 20 49  1  0
 20 50  1  0
 21 51  1  0
 22 52  1  0
 22 53  1  0
 23 54  1  0
 23 55  1  0
 24 56  1  0
 25 57  1  0
M  CHG  2  27   1  29  -1
M  END
$$$$
