
     RDKit          3D

 37 38  0  0  0  0  0  0  0  0999 V2000
   -4.6718   -0.2455   -1.9838 C   0  0  0  0  0  0  0  0  0  0  0  0
   -3.8140   -0.2671   -0.7995 N   0  0  0  0  0  0  0  0  0  0  0  0
   -2.4616   -0.5686   -0.9392 C   0  0  0  0  0  0  0  0  0  0  0  0
   -1.9622   -0.8651   -2.2052 N   0  0  0  0  0  0  0  0  0  0  0  0
   -1.6683   -0.5566    0.1554 C   0  0  0  0  0  0  0  0  0  0  0  0
   -0.2024   -0.8446    0.0247 C   0  0  0  0  0  0  0  0  0  0  0  0
    0.1930   -1.6622   -0.8146 O   0  0  0  0  0  0  0  0  0  0  0  0
    0.7622   -0.0604    0.9085 C   0  0  0  0  0  0  0  0  0  0  0  0
    2.0545   -0.0666    0.2899 O   0  0  0  0  0  0  0  0  0  0  0  0
    2.9723    0.7232    0.9060 C   0  0  0  0  0  0  0  0  0  0  0  0
    2.7460    1.4124    1.8881 O   0  0  0  0  0  0  0  0  0  0  0  0
    4.2937    0.6281    0.1987 C   0  0  0  0  0  0  0  0  0  0  0  0
    4.4925   -0.2347   -0.8783 C   0  0  0  0  0  0  0  0  0  0  0  0
    5.7475   -0.2694   -1.4828 C   0  0  0  0  0  0  0  0  0  0  0  0
    6.7607    0.5504   -0.9994 C   0  0  0  0  0  0  0  0  0  0  0  0
    6.4796    1.3774    0.0750 C   0  0  0  0  0  0  0  0  0  0  0  0
    5.2758    1.4355    0.6823 N   0  0  0  0  0  0  0  0  0  0  0  0
   -2.2478   -0.2513    1.4781 C   0  0  0  0  0  0  0  0  0  0  0  0
   -1.5504   -0.3597    2.4851 O   0  0  0  0  0  0  0  0  0  0  0  0
   -3.5705    0.1220    1.5116 N   0  0  0  0  0  0  0  0  0  0  0  0
   -4.1638    0.4446    2.7970 C   0  0  0  0  0  0  0  0  0  0  0  0
   -4.4141    0.0552    0.4166 C   0  0  0  0  0  0  0  0  0  0  0  0
   -5.6242    0.2628    0.5235 O   0  0  0  0  0  0  0  0  0  0  0  0
   -5.6689    0.1498   -1.7711 H   0  0  0  0  0  0  0  0  0  0  0  0
   -4.7852   -1.2676   -2.3592 H   0  0  0  0  0  0  0  0  0  0  0  0
   -4.2230    0.3913   -2.7532 H   0  0  0  0  0  0  0  0  0  0  0  0
   -2.5919   -1.4564   -2.7394 H   0  0  0  0  0  0  0  0  0  0  0  0
   -1.0398   -1.3202   -2.1607 H   0  0  0  0  0  0  0  0  0  0  0  0
    0.8379   -0.5579    1.8799 H   0  0  0  0  0  0  0  0  0  0  0  0
    0.4035    0.9701    1.0050 H   0  0  0  0  0  0  0  0  0  0  0  0
    3.6980   -0.8745   -1.2490 H   0  0  0  0  0  0  0  0  0  0  0  0
    5.9319   -0.9327   -2.3237 H   0  0  0  0  0  0  0  0  0  0  0  0
    7.7479    0.5448   -1.4488 H   0  0  0  0  0  0  0  0  0  0  0  0
    7.2385    2.0357    0.4892 H   0  0  0  0  0  0  0  0  0  0  0  0
   -4.6404   -0.4580    3.1927 H   0  0  0  0  0  0  0  0  0  0  0  0
   -3.4107    0.7921    3.5100 H   0  0  0  0  0  0  0  0  0  0  0  0
   -4.9241    1.2236    2.6828 H   0  0  0  0  0  0  0  0  0  0  0  0
  1  2  1  0
  2  3  1  0
  3  4  1  0
  3  5  2  0
  5  6  1  0
  6  7  2  0
  6  8  1  0
  8  9  1  0
  9 10  1  0
 10 11  2  0
 10 12  1  0
 12 13  2  0
 13 14  1  0
 14 15  2  0
 15 16  1  0
 16 17  2  0
  5 18  1  0
 18 19  2  0
 18 20  1  0
 20 21  1  0
 20 22  1  0
 22 23  2  0
 22  2  1  0
 17 12  1  0
  1 24  1  0
  1 25  1  0
  1 26  1  0
  4 27  1  0
  4 28  1  0
  8 29  1  0
  8 30  1  0
 13 31  1  0
 14 32  1  0
 15 33  1  0
 16 34  1  0
 21 35  1  0
 21 36  1  0
 21 37  1  0
M  END
$$$$
