
     RDKit          3D

 57 59  0  0  0  0  0  0  0  0999 V2000
    5.8523    1.8378   -0.5300 C   0  0  0  0  0  0  0  0  0  0  0  0
    4.9453    1.7709    0.7015 C   0  0  0  0  0  0  0  0  0  0  0  0
    5.2477    2.9499    1.6296 C   0  0  0  0  0  0  0  0  0  0  0  0
    3.4535    1.7728    0.3193 C   0  0  0  0  0  0  0  0  0  0  0  0
    3.0211    0.5402   -0.4010 C   0  0  0  0  0  0  0  0  0  0  0  0
    2.8251   -0.7569    0.1240 C   0  0  0  0  0  0  0  0  0  0  0  0
    2.4223   -1.5031   -0.9565 C   0  0  0  0  0  0  0  0  0  0  0  0
    2.0255   -2.9144   -1.1412 C   0  0  0  0  0  0  0  0  0  0  0  0
    0.6129   -3.0301   -0.8450 N   0  0  0  0  0  0  0  0  0  0  0  0
    0.1714   -3.2818    0.4327 C   0  0  0  0  0  0  0  0  0  0  0  0
    0.9332   -3.5297    1.3640 O   0  0  0  0  0  0  0  0  0  0  0  0
   -1.3298   -3.1651    0.6504 C   0  0  0  0  0  0  0  0  0  0  0  0
   -2.1575   -3.9843   -0.3509 C   0  0  0  0  0  0  0  0  0  0  0  0
   -2.9432   -3.1091   -1.3186 C   0  0  0  0  0  0  0  0  0  0  0  0
   -3.7898   -2.0980   -0.5723 C   0  0  0  0  0  0  0  0  0  0  0  0
   -4.9332   -1.8303   -0.9293 O   0  0  0  0  0  0  0  0  0  0  0  0
   -3.1438   -1.4849    0.4937 N   0  0  0  0  0  0  0  0  0  0  0  0
   -3.7777   -0.3440    1.1474 C   0  0  0  0  0  0  0  0  0  0  0  0
   -3.3123    0.9761    0.5749 C   0  0  0  0  0  0  0  0  0  0  0  0
   -2.3536    1.7484    1.2446 C   0  0  0  0  0  0  0  0  0  0  0  0
   -1.9068    2.9521    0.6994 C   0  0  0  0  0  0  0  0  0  0  0  0
   -2.4103    3.3967   -0.5232 C   0  0  0  0  0  0  0  0  0  0  0  0
   -3.3650    2.6396   -1.2169 C   0  0  0  0  0  0  0  0  0  0  0  0
   -3.9280    3.1131   -2.5346 C   0  0  0  0  0  0  0  0  0  0  0  0
   -3.2248    4.1426   -3.0860 F   0  0  0  0  0  0  0  0  0  0  0  0
   -3.9513    2.1337   -3.4813 F   0  0  0  0  0  0  0  0  0  0  0  0
   -5.2101    3.5580   -2.4220 F   0  0  0  0  0  0  0  0  0  0  0  0
   -3.8121    1.4322   -0.6550 C   0  0  0  0  0  0  0  0  0  0  0  0
   -1.7121   -1.6848    0.6783 C   0  0  0  0  0  0  0  0  0  0  0  0
    2.3771   -0.7072   -2.0580 O   0  0  0  0  0  0  0  0  0  0  0  0
    2.7491    0.5788   -1.7117 N   0  0  0  0  0  0  0  0  0  0  0  0
    5.6426    2.7302   -1.1296 H   0  0  0  0  0  0  0  0  0  0  0  0
    5.7208    0.9594   -1.1697 H   0  0  0  0  0  0  0  0  0  0  0  0
    6.9063    1.8709   -0.2333 H   0  0  0  0  0  0  0  0  0  0  0  0
    5.1790    0.8469    1.2463 H   0  0  0  0  0  0  0  0  0  0  0  0
    5.0400    3.9065    1.1380 H   0  0  0  0  0  0  0  0  0  0  0  0
    4.6393    2.8960    2.5385 H   0  0  0  0  0  0  0  0  0  0  0  0
    6.3004    2.9456    1.9329 H   0  0  0  0  0  0  0  0  0  0  0  0
    3.2248    2.6604   -0.2850 H   0  0  0  0  0  0  0  0  0  0  0  0
    2.8451    1.8601    1.2292 H   0  0  0  0  0  0  0  0  0  0  0  0
    2.9489   -1.1013    1.1407 H   0  0  0  0  0  0  0  0  0  0  0  0
    2.1725   -3.2335   -2.1778 H   0  0  0  0  0  0  0  0  0  0  0  0
    2.6073   -3.5739   -0.4892 H   0  0  0  0  0  0  0  0  0  0  0  0
   -0.0225   -2.6496   -1.5328 H   0  0  0  0  0  0  0  0  0  0  0  0
   -1.5266   -3.5935    1.6437 H   0  0  0  0  0  0  0  0  0  0  0  0
   -1.5386   -4.6975   -0.9069 H   0  0  0  0  0  0  0  0  0  0  0  0
   -2.8770   -4.5884    0.2184 H   0  0  0  0  0  0  0  0  0  0  0  0
   -3.6052   -3.7397   -1.9222 H   0  0  0  0  0  0  0  0  0  0  0  0
   -2.2798   -2.5695   -2.0025 H   0  0  0  0  0  0  0  0  0  0  0  0
   -4.8685   -0.4120    1.0571 H   0  0  0  0  0  0  0  0  0  0  0  0
   -3.5540   -0.4027    2.2192 H   0  0  0  0  0  0  0  0  0  0  0  0
   -1.9467    1.4169    2.1976 H   0  0  0  0  0  0  0  0  0  0  0  0
   -1.1644    3.5455    1.2278 H   0  0  0  0  0  0  0  0  0  0  0  0
   -2.0518    4.3390   -0.9353 H   0  0  0  0  0  0  0  0  0  0  0  0
   -4.5580    0.8377   -1.1856 H   0  0  0  0  0  0  0  0  0  0  0  0
   -1.1988   -1.1142   -0.1053 H   0  0  0  0  0  0  0  0  0  0  0  0
   -1.4098   -1.2582    1.6422 H   0  0  0  0  0  0  0  0  0  0  0  0
  1  2  1  0
  2  3  1  0
  2  4  1  0
  4  5  1  0
  5  6  1  0
  6  7  2  0
  7  8  1  0
  8  9  1  0
  9 10  1  0
 10 11  2  0
 10 12  1  0
 12 13  1  0
 13 14  1  0
 14 15  1  0
 15 16  2  0
 15 17  1  0
 17 18  1  0
 18 19  1  0
 19 20  2  0
 20 21  1  0
 21 22  2  0
 22 23  1  0
 23 24  1  0
 24 25  1  0
 24 26  1  0
 24 27  1  0
 23 28  2  0
 17 29  1  0
  7 30  1  0
 30 31  1  0
 31  5  2  0
 29 12  1  0
 28 19  1  0
  1 32  1  0
  1 33  1  0
  1 34  1  0
  2 35  1  0
  3 36  1  0
  3 37  1  0
  3 38  1  0
  4 39  1  0
  4 40  1  0
  6 41  1  0
  8 42  1  0
  8 43  1  0
  9 44  1  0
 12 45  1  0
 13 46  1  0
 13 47  1  0
 14 48  1  0
 14 49  1  0
 18 50  1  0
 18 51  1  0
 20 52  1  0
 21 53  1  0
 22 54  1  0
 28 55  1  0
 29 56  1  0
 29 57  1  0
M  END
$$$$
