
     RDKit          3D

 43 45  0  0  0  0  0  0  0  0999 V2000
   -7.3692   -0.1539   -1.1471 C   0  0  0  0  0  0  0  0  0  0  0  0
   -6.9093    0.1440    0.0754 C   0  0  0  0  0  0  0  0  0  0  0  0
   -6.1313   -0.8046    0.9454 C   0  0  0  0  0  0  0  0  0  0  0  0
   -4.7359   -0.3966    0.9572 N   0  0  0  0  0  0  0  0  0  0  0  0
   -4.3473    0.5583    1.8844 C   0  0  0  0  0  0  0  0  0  0  0  0
   -5.1035    1.0710    2.7070 O   0  0  0  0  0  0  0  0  0  0  0  0
   -3.0389    0.9319    1.8592 N   0  0  0  0  0  0  0  0  0  0  0  0
   -2.1082    0.4231    0.9727 C   0  0  0  0  0  0  0  0  0  0  0  0
   -0.8481    0.8949    1.0600 N   0  0  0  0  0  0  0  0  0  0  0  0
    0.0468    0.3851    0.1851 C   0  0  0  0  0  0  0  0  0  0  0  0
    1.3615    0.8245    0.2166 C   0  0  0  0  0  0  0  0  0  0  0  0
    2.3272    0.3188   -0.6592 C   0  0  0  0  0  0  0  0  0  0  0  0
    3.6384    0.8114   -0.5935 N   0  0  0  0  0  0  0  0  0  0  0  0
    4.4323    0.2109    0.2317 C   0  0  0  0  0  0  0  0  0  0  0  0
    5.7550    0.5197    0.4542 N   0  0  0  0  0  0  0  0  0  0  0  0
    6.3024    1.7481   -0.1062 C   0  0  0  0  0  0  0  0  0  0  0  0
    6.4426   -0.0132    1.6189 C   0  0  0  0  0  0  0  0  0  0  0  0
    1.9567   -0.6336   -1.6170 C   0  0  0  0  0  0  0  0  0  0  0  0
    2.9604   -1.1793   -2.5928 C   0  0  0  0  0  0  0  0  0  0  0  0
    0.6293   -1.0858   -1.6472 C   0  0  0  0  0  0  0  0  0  0  0  0
   -0.3271   -0.5973   -0.7681 C   0  0  0  0  0  0  0  0  0  0  0  0
   -1.5871   -1.0630   -0.8389 N   0  0  0  0  0  0  0  0  0  0  0  0
   -2.4688   -0.5329    0.0456 C   0  0  0  0  0  0  0  0  0  0  0  0
   -3.8736   -0.9965    0.0318 C   0  0  0  0  0  0  0  0  0  0  0  0
   -4.2238   -1.8722   -0.7569 O   0  0  0  0  0  0  0  0  0  0  0  0
   -7.1797   -1.1214   -1.6051 H   0  0  0  0  0  0  0  0  0  0  0  0
   -7.9338    0.5723   -1.7235 H   0  0  0  0  0  0  0  0  0  0  0  0
   -7.1189    1.1257    0.4960 H   0  0  0  0  0  0  0  0  0  0  0  0
   -6.5426   -0.7820    1.9611 H   0  0  0  0  0  0  0  0  0  0  0  0
   -6.2243   -1.8357    0.5857 H   0  0  0  0  0  0  0  0  0  0  0  0
   -2.7298    1.6317    2.5192 H   0  0  0  0  0  0  0  0  0  0  0  0
    1.6493    1.5847    0.9383 H   0  0  0  0  0  0  0  0  0  0  0  0
    4.0876   -0.6421    0.8479 H   0  0  0  0  0  0  0  0  0  0  0  0
    7.3963    1.7538   -0.0519 H   0  0  0  0  0  0  0  0  0  0  0  0
    5.9256    2.6181    0.4416 H   0  0  0  0  0  0  0  0  0  0  0  0
    6.0333    1.8528   -1.1627 H   0  0  0  0  0  0  0  0  0  0  0  0
    6.1674    0.5522    2.5151 H   0  0  0  0  0  0  0  0  0  0  0  0
    7.5293    0.0391    1.4938 H   0  0  0  0  0  0  0  0  0  0  0  0
    6.1850   -1.0658    1.7783 H   0  0  0  0  0  0  0  0  0  0  0  0
    2.4815   -1.8133   -3.3465 H   0  0  0  0  0  0  0  0  0  0  0  0
    3.7063   -1.7853   -2.0689 H   0  0  0  0  0  0  0  0  0  0  0  0
    3.4617   -0.3638   -3.1242 H   0  0  0  0  0  0  0  0  0  0  0  0
    0.3252   -1.8336   -2.3776 H   0  0  0  0  0  0  0  0  0  0  0  0
  1  2  2  0
  2  3  1  0
  3  4  1  0
  4  5  1  0
  5  6  2  0
  5  7  1  0
  7  8  1  0
  8  9  2  0
  9 10  1  0
 10 11  2  0
 11 12  1  0
 12 13  1  0
 13 14  2  3
 14 15  1  0
 15 16  1  0
 15 17  1  0
 12 18  2  0
 18 19  1  0
 18 20  1  0
 20 21  2  0
 21 22  1  0
 22 23  2  0
 23 24  1  0
 24 25  2  0
 24  4  1  0
 23  8  1  0
 21 10  1  0
  1 26  1  0
  1 27  1  0
  2 28  1  0
  3 29  1  0
  3 30  1  0
  7 31  1  0
 11 32  1  0
 14 33  1  0
 16 34  1  0
 16 35  1  0
 16 36  1  0
 17 37  1  0
 17 38  1  0
 17 39  1  0
 19 40  1  0
 19 41  1  0
 19 42  1  0
 20 43  1  0
M  END
$$$$
