
     RDKit          3D

 47 49  0  0  0  0  0  0  0  0999 V2000
    4.4501    2.6788   -3.3051 C   0  0  0  0  0  0  0  0  0  0  0  0
    3.1183    2.2851   -2.7270 C   0  0  0  0  0  0  0  0  0  0  0  0
    2.5296    3.0940   -1.7452 C   0  0  0  0  0  0  0  0  0  0  0  0
    1.2940    2.7602   -1.1878 C   0  0  0  0  0  0  0  0  0  0  0  0
    0.6105    1.6106   -1.6040 C   0  0  0  0  0  0  0  0  0  0  0  0
   -0.7199    1.2064   -0.9928 C   0  0  0  0  0  0  0  0  0  0  0  0
   -1.7484    2.3409   -1.0404 C   0  0  0  0  0  0  0  0  0  0  0  0
   -0.4985    0.7411    0.3665 N   0  0  0  0  0  0  0  0  0  0  0  0
   -1.4197   -0.0399    1.0279 C   0  0  0  0  0  0  0  0  0  0  0  0
   -2.4952   -0.3546    0.5326 O   0  0  0  0  0  0  0  0  0  0  0  0
   -1.0025   -0.4895    2.3401 C   0  0  0  0  0  0  0  0  0  0  0  0
   -1.3092   -1.7168    3.0117 C   0  0  0  0  0  0  0  0  0  0  0  0
   -2.0692   -2.8778    2.5451 C   0  0  0  0  0  0  0  0  0  0  0  0
   -1.9384   -3.3576    1.2349 C   0  0  0  0  0  0  0  0  0  0  0  0
   -2.6632   -4.4758    0.8121 C   0  0  0  0  0  0  0  0  0  0  0  0
   -3.5192   -5.1303    1.6957 C   0  0  0  0  0  0  0  0  0  0  0  0
   -3.6505   -4.6708    3.0039 C   0  0  0  0  0  0  0  0  0  0  0  0
   -2.9276   -3.5527    3.4271 C   0  0  0  0  0  0  0  0  0  0  0  0
   -0.7603   -1.7254    4.2391 N   0  0  0  0  0  0  0  0  0  0  0  0
   -0.1071   -0.5269    4.3871 O   0  0  0  0  0  0  0  0  0  0  0  0
   -0.2591    0.2188    3.2655 C   0  0  0  0  0  0  0  0  0  0  0  0
    0.3466    1.5647    3.3118 C   0  0  0  0  0  0  0  0  0  0  0  0
    1.2059    0.7957   -2.5794 C   0  0  0  0  0  0  0  0  0  0  0  0
    2.4500    1.1196   -3.1478 C   0  0  0  0  0  0  0  0  0  0  0  0
    3.0383    0.2144   -4.1961 C   0  0  0  0  0  0  0  0  0  0  0  0
    5.1978    1.9070   -3.0974 H   0  0  0  0  0  0  0  0  0  0  0  0
    4.8150    3.6164   -2.8725 H   0  0  0  0  0  0  0  0  0  0  0  0
    4.3671    2.8268   -4.3864 H   0  0  0  0  0  0  0  0  0  0  0  0
    3.0327    3.9970   -1.4051 H   0  0  0  0  0  0  0  0  0  0  0  0
    0.8733    3.4096   -0.4236 H   0  0  0  0  0  0  0  0  0  0  0  0
   -1.1355    0.3653   -1.5630 H   0  0  0  0  0  0  0  0  0  0  0  0
   -1.8630    2.7246   -2.0602 H   0  0  0  0  0  0  0  0  0  0  0  0
   -2.7309    1.9950   -0.7021 H   0  0  0  0  0  0  0  0  0  0  0  0
   -1.4661    3.1778   -0.3923 H   0  0  0  0  0  0  0  0  0  0  0  0
    0.4477    0.7774    0.7195 H   0  0  0  0  0  0  0  0  0  0  0  0
   -1.2721   -2.8735    0.5263 H   0  0  0  0  0  0  0  0  0  0  0  0
   -2.5590   -4.8341   -0.2087 H   0  0  0  0  0  0  0  0  0  0  0  0
   -4.0827   -5.9987    1.3649 H   0  0  0  0  0  0  0  0  0  0  0  0
   -4.3144   -5.1805    3.6971 H   0  0  0  0  0  0  0  0  0  0  0  0
   -3.0400   -3.2080    4.4534 H   0  0  0  0  0  0  0  0  0  0  0  0
    1.3215    1.5615    2.8153 H   0  0  0  0  0  0  0  0  0  0  0  0
    0.4930    1.8964    4.3447 H   0  0  0  0  0  0  0  0  0  0  0  0
   -0.2943    2.2999    2.8157 H   0  0  0  0  0  0  0  0  0  0  0  0
    0.6930   -0.1091   -2.9040 H   0  0  0  0  0  0  0  0  0  0  0  0
    4.0116   -0.1648   -3.8690 H   0  0  0  0  0  0  0  0  0  0  0  0
    3.1542    0.7536   -5.1415 H   0  0  0  0  0  0  0  0  0  0  0  0
    2.3958   -0.6518   -4.3867 H   0  0  0  0  0  0  0  0  0  0  0  0
  1  2  1  0
  2  3  2  0
  3  4  1  0
  4  5  2  0
  5  6  1  0
  6  7  1  0
  6  8  1  0
  8  9  1  0
  9 10  2  0
  9 11  1  0
 11 12  1  0
 12 13  1  0
 13 14  2  0
 14 15  1  0
 15 16  2  0
 16 17  1  0
 17 18  2  0
 12 19  2  0
 19 20  1  0
 20 21  1  0
 21 22  1  0
  5 23  1  0
 23 24  2  0
 24 25  1  0
 24  2  1  0
 21 11  2  0
 18 13  1  0
  1 26  1  0
  1 27  1  0
  1 28  1  0
  3 29  1  0
  4 30  1  0
  6 31  1  0
  7 32  1  0
  7 33  1  0
  7 34  1  0
  8 35  1  0
 14 36  1  0
 15 37  1  0
 16 38  1  0
 17 39  1  0
 18 40  1  0
 22 41  1  0
 22 42  1  0
 22 43  1  0
 23 44  1  0
 25 45  1  0
 25 46  1  0
 25 47  1  0
M  END
$$$$
