
     RDKit          3D

 37 40  0  0  0  0  0  0  0  0999 V2000
    2.3223    2.3209    1.0224 O   0  0  0  0  0  0  0  0  0  0  0  0
    2.8976    1.3288    0.6280 C   0  0  0  0  0  0  0  0  0  0  0  0
    4.2149    1.0462    0.8244 O   0  0  0  0  0  0  0  0  0  0  0  0
    4.4341   -0.1555    0.2386 C   0  0  0  0  0  0  0  0  0  0  0  0
    5.7786   -0.6296    0.3459 C   0  0  0  0  0  0  0  0  0  0  0  0
    6.9078   -0.0967    0.9425 C   0  0  0  0  0  0  0  0  0  0  0  0
    7.9601   -1.0196    0.7266 C   0  0  0  0  0  0  0  0  0  0  0  0
    7.4145   -2.0590    0.0129 C   0  0  0  0  0  0  0  0  0  0  0  0
    6.0975   -1.8335   -0.2227 O   0  0  0  0  0  0  0  0  0  0  0  0
    3.4360   -0.7356   -0.3423 N   0  0  0  0  0  0  0  0  0  0  0  0
    2.4016    0.1507   -0.1472 C   0  0  0  0  0  0  0  0  0  0  0  0
    1.1650   -0.1067   -0.5916 C   0  0  0  0  0  0  0  0  0  0  0  0
    0.0159    0.7151   -0.4602 C   0  0  0  0  0  0  0  0  0  0  0  0
   -0.1626    2.0899   -0.5358 C   0  0  0  0  0  0  0  0  0  0  0  0
   -1.5408    2.3664   -0.3605 C   0  0  0  0  0  0  0  0  0  0  0  0
   -2.1662    1.1500   -0.2080 C   0  0  0  0  0  0  0  0  0  0  0  0
   -3.5489    0.7253    0.0009 C   0  0  0  0  0  0  0  0  0  0  0  0
   -4.5801    1.6712    0.0917 C   0  0  0  0  0  0  0  0  0  0  0  0
   -5.9056    1.2741    0.2869 C   0  0  0  0  0  0  0  0  0  0  0  0
   -6.2212   -0.0785    0.3971 C   0  0  0  0  0  0  0  0  0  0  0  0
   -5.2130   -1.0482    0.3203 C   0  0  0  0  0  0  0  0  0  0  0  0
   -5.5445   -2.5164    0.4160 C   0  0  0  0  0  0  0  0  0  0  0  0
   -6.6968   -2.7624    1.1014 F   0  0  0  0  0  0  0  0  0  0  0  0
   -4.5792   -3.2435    1.0445 F   0  0  0  0  0  0  0  0  0  0  0  0
   -5.7096   -3.0909   -0.8073 F   0  0  0  0  0  0  0  0  0  0  0  0
   -3.8845   -0.6337    0.1150 C   0  0  0  0  0  0  0  0  0  0  0  0
   -1.2332    0.1587   -0.2847 O   0  0  0  0  0  0  0  0  0  0  0  0
    6.9627    0.8458    1.4708 H   0  0  0  0  0  0  0  0  0  0  0  0
    8.9884   -0.9385    1.0507 H   0  0  0  0  0  0  0  0  0  0  0  0
    7.8078   -2.9852   -0.3836 H   0  0  0  0  0  0  0  0  0  0  0  0
    0.9966   -1.0654   -1.0769 H   0  0  0  0  0  0  0  0  0  0  0  0
    0.6136    2.8241   -0.7031 H   0  0  0  0  0  0  0  0  0  0  0  0
   -2.0101    3.3394   -0.3554 H   0  0  0  0  0  0  0  0  0  0  0  0
   -4.3661    2.7342    0.0101 H   0  0  0  0  0  0  0  0  0  0  0  0
   -6.6915    2.0232    0.3515 H   0  0  0  0  0  0  0  0  0  0  0  0
   -7.2588   -0.3747    0.5455 H   0  0  0  0  0  0  0  0  0  0  0  0
   -3.1022   -1.3902    0.0458 H   0  0  0  0  0  0  0  0  0  0  0  0
  1  2  2  0
  2  3  1  0
  3  4  1  0
  4  5  1  0
  5  6  2  0
  6  7  1  0
  7  8  2  0
  8  9  1  0
  4 10  2  0
 10 11  1  0
 11 12  2  3
 12 13  1  0
 13 14  2  0
 14 15  1  0
 15 16  2  0
 16 17  1  0
 17 18  2  0
 18 19  1  0
 19 20  2  0
 20 21  1  0
 21 22  1  0
 22 23  1  0
 22 24  1  0
 22 25  1  0
 21 26  2  0
 16 27  1  0
 11  2  1  0
 27 13  1  0
  9  5  1  0
 26 17  1  0
  6 28  1  0
  7 29  1  0
  8 30  1  0
 12 31  1  0
 14 32  1  0
 15 33  1  0
 18 34  1  0
 19 35  1  0
 20 36  1  0
 26 37  1  0
M  END
$$$$
