
     RDKit          3D

 44 46  0  0  0  0  0  0  0  0999 V2000
    3.2027    0.9487   -3.8563 C   0  0  0  0  0  0  0  0  0  0  0  0
    2.8700    0.7337   -2.4089 C   0  0  0  0  0  0  0  0  0  0  0  0
    3.2477   -0.4481   -1.7599 C   0  0  0  0  0  0  0  0  0  0  0  0
    2.9644   -0.6365   -0.4036 C   0  0  0  0  0  0  0  0  0  0  0  0
    2.3058    0.3630    0.3225 C   0  0  0  0  0  0  0  0  0  0  0  0
    1.9675    0.2144    1.7624 C   0  0  0  0  0  0  0  0  0  0  0  0
    1.4576    1.0993    2.4295 O   0  0  0  0  0  0  0  0  0  0  0  0
    2.2682   -1.0348    2.2047 O   0  0  0  0  0  0  0  0  0  0  0  0
    1.8906   -1.2805    3.5657 C   0  0  0  0  0  0  0  0  0  0  0  0
    0.3801   -1.4578    3.7247 C   0  0  0  0  0  0  0  0  0  0  0  0
   -0.2367   -1.0990    4.7228 O   0  0  0  0  0  0  0  0  0  0  0  0
   -0.2148   -2.1062    2.6579 N   0  0  0  0  0  0  0  0  0  0  0  0
   -1.6562   -2.0630    2.4739 C   0  0  0  0  0  0  0  0  0  0  0  0
   -2.0729   -0.7934    1.7205 C   0  0  0  0  0  0  0  0  0  0  0  0
   -3.5911   -0.6941    1.6199 C   0  0  0  0  0  0  0  0  0  0  0  0
   -3.9798    0.5167    0.9584 O   0  0  0  0  0  0  0  0  0  0  0  0
   -3.2309    0.7374   -0.1686 C   0  0  0  0  0  0  0  0  0  0  0  0
   -3.7060    1.6990   -1.0583 C   0  0  0  0  0  0  0  0  0  0  0  0
   -3.0090    1.9585   -2.2397 C   0  0  0  0  0  0  0  0  0  0  0  0
   -1.8380    1.2566   -2.5295 C   0  0  0  0  0  0  0  0  0  0  0  0
   -1.3552    0.3029   -1.6324 C   0  0  0  0  0  0  0  0  0  0  0  0
   -2.0419    0.0568   -0.4452 C   0  0  0  0  0  0  0  0  0  0  0  0
   -1.4969   -0.8744    0.3989 O   0  0  0  0  0  0  0  0  0  0  0  0
    1.9428    1.5526   -0.3210 C   0  0  0  0  0  0  0  0  0  0  0  0
    2.2280    1.7383   -1.6760 C   0  0  0  0  0  0  0  0  0  0  0  0
    2.4211    1.5362   -4.3506 H   0  0  0  0  0  0  0  0  0  0  0  0
    4.1567    1.4779   -3.9469 H   0  0  0  0  0  0  0  0  0  0  0  0
    3.2764   -0.0060   -4.3882 H   0  0  0  0  0  0  0  0  0  0  0  0
    3.7688   -1.2318   -2.3069 H   0  0  0  0  0  0  0  0  0  0  0  0
    3.2706   -1.5654    0.0701 H   0  0  0  0  0  0  0  0  0  0  0  0
    2.3751   -2.2091    3.8837 H   0  0  0  0  0  0  0  0  0  0  0  0
    2.2451   -0.4736    4.2168 H   0  0  0  0  0  0  0  0  0  0  0  0
    0.3438   -2.1960    1.8161 H   0  0  0  0  0  0  0  0  0  0  0  0
   -1.9167   -2.9564    1.8965 H   0  0  0  0  0  0  0  0  0  0  0  0
   -2.1473   -2.1156    3.4511 H   0  0  0  0  0  0  0  0  0  0  0  0
   -1.6582    0.0975    2.2119 H   0  0  0  0  0  0  0  0  0  0  0  0
   -4.0175   -1.5404    1.0656 H   0  0  0  0  0  0  0  0  0  0  0  0
   -4.0441   -0.6811    2.6170 H   0  0  0  0  0  0  0  0  0  0  0  0
   -4.6222    2.2384   -0.8358 H   0  0  0  0  0  0  0  0  0  0  0  0
   -3.3826    2.7047   -2.9361 H   0  0  0  0  0  0  0  0  0  0  0  0
   -1.2975    1.4546   -3.4511 H   0  0  0  0  0  0  0  0  0  0  0  0
   -0.4386   -0.2367   -1.8533 H   0  0  0  0  0  0  0  0  0  0  0  0
    1.4305    2.3404    0.2289 H   0  0  0  0  0  0  0  0  0  0  0  0
    1.9406    2.6725   -2.1546 H   0  0  0  0  0  0  0  0  0  0  0  0
  1  2  1  0
  2  3  2  0
  3  4  1  0
  4  5  2  0
  5  6  1  0
  6  7  2  0
  6  8  1  0
  8  9  1  0
  9 10  1  0
 10 11  2  0
 10 12  1  0
 12 13  1  0
 13 14  1  0
 14 15  1  0
 15 16  1  0
 16 17  1  0
 17 18  2  0
 18 19  1  0
 19 20  2  0
 20 21  1  0
 21 22  2  0
 22 23  1  0
  5 24  1  0
 24 25  2  0
 25  2  1  0
 23 14  1  0
 22 17  1  0
  1 26  1  0
  1 27  1  0
  1 28  1  0
  3 29  1  0
  4 30  1  0
  9 31  1  0
  9 32  1  0
 12 33  1  0
 13 34  1  0
 13 35  1  0
 14 36  1  0
 15 37  1  0
 15 38  1  0
 18 39  1  0
 19 40  1  0
 20 41  1  0
 21 42  1  0
 24 43  1  0
 25 44  1  0
M  END
$$$$
