
     RDKit          3D

 41 44  0  0  0  0  0  0  0  0999 V2000
    1.2294   -2.2687   -2.7600 O   0  0  0  0  0  0  0  0  0  0  0  0
    1.2692   -1.4577   -1.8352 C   0  0  0  0  0  0  0  0  0  0  0  0
    2.5237   -1.0203   -1.2636 C   0  0  0  0  0  0  0  0  0  0  0  0
    3.4542   -2.1395   -0.3787 S   0  0  0  0  0  0  0  0  0  0  0  0
    4.6824   -0.9786   -0.0528 C   0  0  0  0  0  0  0  0  0  0  0  0
    5.8556   -1.1833    0.7005 C   0  0  0  0  0  0  0  0  0  0  0  0
    6.7536   -0.1263    0.8583 C   0  0  0  0  0  0  0  0  0  0  0  0
    6.4967    1.1075    0.2799 C   0  0  0  0  0  0  0  0  0  0  0  0
    5.3322    1.3063   -0.4678 C   0  0  0  0  0  0  0  0  0  0  0  0
    4.3942    0.2551   -0.6454 C   0  0  0  0  0  0  0  0  0  0  0  0
    3.1435    0.2052   -1.3578 C   0  0  0  0  0  0  0  0  0  0  0  0
    2.5273    1.5524   -2.2301 Cl  0  0  0  0  0  0  0  0  0  0  0  0
    0.0981   -0.9241   -1.2967 N   0  0  0  0  0  0  0  0  0  0  0  0
    0.0268   -0.1236   -0.0666 C   0  0  0  0  0  0  0  0  0  0  0  0
   -1.3305   -0.2425    0.6540 C   0  0  0  0  0  0  0  0  0  0  0  0
   -2.4423    0.1005   -0.2470 N   0  0  0  0  0  0  0  0  0  0  0  0
   -3.6946    0.4428    0.2582 C   0  0  0  0  0  0  0  0  0  0  0  0
   -4.6470    1.0806   -0.5593 C   0  0  0  0  0  0  0  0  0  0  0  0
   -5.9128    1.4510   -0.0837 C   0  0  0  0  0  0  0  0  0  0  0  0
   -6.2669    1.1963    1.2358 C   0  0  0  0  0  0  0  0  0  0  0  0
   -5.3517    0.5750    2.0761 C   0  0  0  0  0  0  0  0  0  0  0  0
   -4.0921    0.2109    1.5921 C   0  0  0  0  0  0  0  0  0  0  0  0
   -3.2696   -0.4070    2.4564 F   0  0  0  0  0  0  0  0  0  0  0  0
   -2.2823   -0.2368   -1.6743 C   0  0  0  0  0  0  0  0  0  0  0  0
   -1.1825   -1.2893   -1.9026 C   0  0  0  0  0  0  0  0  0  0  0  0
    6.0628   -2.1507    1.1504 H   0  0  0  0  0  0  0  0  0  0  0  0
    7.6627   -0.2753    1.4366 H   0  0  0  0  0  0  0  0  0  0  0  0
    7.2035    1.9247    0.4048 H   0  0  0  0  0  0  0  0  0  0  0  0
    5.1496    2.2805   -0.9165 H   0  0  0  0  0  0  0  0  0  0  0  0
    0.1904    0.9197   -0.3594 H   0  0  0  0  0  0  0  0  0  0  0  0
    0.8284   -0.4132    0.6193 H   0  0  0  0  0  0  0  0  0  0  0  0
   -1.4600   -1.2682    1.0203 H   0  0  0  0  0  0  0  0  0  0  0  0
   -1.3029    0.4375    1.5134 H   0  0  0  0  0  0  0  0  0  0  0  0
   -4.4073    1.3291   -1.5902 H   0  0  0  0  0  0  0  0  0  0  0  0
   -6.6155    1.9459   -0.7499 H   0  0  0  0  0  0  0  0  0  0  0  0
   -7.2470    1.4824    1.6071 H   0  0  0  0  0  0  0  0  0  0  0  0
   -5.6043    0.3633    3.1103 H   0  0  0  0  0  0  0  0  0  0  0  0
   -2.0276    0.6794   -2.2206 H   0  0  0  0  0  0  0  0  0  0  0  0
   -3.2120   -0.6379   -2.0956 H   0  0  0  0  0  0  0  0  0  0  0  0
   -1.0536   -1.4582   -2.9774 H   0  0  0  0  0  0  0  0  0  0  0  0
   -1.4818   -2.2448   -1.4539 H   0  0  0  0  0  0  0  0  0  0  0  0
  1  2  2  0
  2  3  1  0
  3  4  1  0
  4  5  1  0
  5  6  2  0
  6  7  1  0
  7  8  2  0
  8  9  1  0
  9 10  2  0
 10 11  1  0
 11 12  1  0
  2 13  1  0
 13 14  1  0
 14 15  1  0
 15 16  1  0
 16 17  1  0
 17 18  2  0
 18 19  1  0
 19 20  2  0
 20 21  1  0
 21 22  2  0
 22 23  1  0
 16 24  1  0
 24 25  1  0
 11  3  2  0
 25 13  1  0
 10  5  1  0
 22 17  1  0
  6 26  1  0
  7 27  1  0
  8 28  1  0
  9 29  1  0
 14 30  1  0
 14 31  1  0
 15 32  1  0
 15 33  1  0
 18 34  1  0
 19 35  1  0
 20 36  1  0
 21 37  1  0
 24 38  1  0
 24 39  1  0
 25 40  1  0
 25 41  1  0
M  END
$$$$
