
     RDKit          3D

 30 31  0  0  0  0  0  0  0  0999 V2000
    5.9925   -2.6763   -0.3487 N   0  0  0  0  0  0  0  0  0  0  0  0
    4.9509   -2.1825   -0.4774 C   0  0  0  0  0  0  0  0  0  0  0  0
    3.6435   -1.5367   -0.6160 C   0  0  0  0  0  0  0  0  0  0  0  0
    3.2120   -0.9455    0.7180 C   0  0  0  0  0  0  0  0  0  0  0  0
    1.9668   -0.2109    0.6042 N   0  0  0  0  0  0  0  0  0  0  0  0
    1.7710    1.1131    0.8398 C   0  0  0  0  0  0  0  0  0  0  0  0
    0.4280    1.3546    0.6123 C   0  0  0  0  0  0  0  0  0  0  0  0
   -0.1919    2.6454    0.7984 C   0  0  0  0  0  0  0  0  0  0  0  0
   -1.4704    2.7877    0.6780 N   0  0  0  0  0  0  0  0  0  0  0  0
   -1.8093    4.1257    0.9156 O   0  0  0  0  0  0  0  0  0  0  0  0
   -0.1008    0.0878    0.2093 C   0  0  0  0  0  0  0  0  0  0  0  0
   -1.4570   -0.2764   -0.1959 C   0  0  0  0  0  0  0  0  0  0  0  0
   -2.1209    0.4268   -1.2098 C   0  0  0  0  0  0  0  0  0  0  0  0
   -3.4111    0.0555   -1.6006 C   0  0  0  0  0  0  0  0  0  0  0  0
   -4.0369   -1.0268   -0.9851 C   0  0  0  0  0  0  0  0  0  0  0  0
   -5.6246   -1.4826   -1.4669 Cl  0  0  0  0  0  0  0  0  0  0  0  0
   -3.3838   -1.7448    0.0143 C   0  0  0  0  0  0  0  0  0  0  0  0
   -2.0944   -1.3724    0.4046 C   0  0  0  0  0  0  0  0  0  0  0  0
    0.8565   -0.8579    0.2333 N   0  0  0  0  0  0  0  0  0  0  0  0
    2.9077   -2.2679   -0.9706 H   0  0  0  0  0  0  0  0  0  0  0  0
    3.6993   -0.7502   -1.3782 H   0  0  0  0  0  0  0  0  0  0  0  0
    3.9710   -0.2566    1.1085 H   0  0  0  0  0  0  0  0  0  0  0  0
    3.0557   -1.7267    1.4720 H   0  0  0  0  0  0  0  0  0  0  0  0
    2.5733    1.7638    1.1607 H   0  0  0  0  0  0  0  0  0  0  0  0
    0.4634    3.4955    1.0597 H   0  0  0  0  0  0  0  0  0  0  0  0
   -2.7824    4.1112    0.8369 H   0  0  0  0  0  0  0  0  0  0  0  0
   -1.6404    1.2688   -1.7024 H   0  0  0  0  0  0  0  0  0  0  0  0
   -3.9173    0.6132   -2.3836 H   0  0  0  0  0  0  0  0  0  0  0  0
   -3.8664   -2.5936    0.4906 H   0  0  0  0  0  0  0  0  0  0  0  0
   -1.5836   -1.9411    1.1790 H   0  0  0  0  0  0  0  0  0  0  0  0
  1  2  3  0
  2  3  1  0
  3  4  1  0
  4  5  1  0
  5  6  1  0
  6  7  2  0
  7  8  1  0
  8  9  2  3
  9 10  1  0
  7 11  1  0
 11 12  1  0
 12 13  2  0
 13 14  1  0
 14 15  2  0
 15 16  1  0
 15 17  1  0
 17 18  2  0
 11 19  2  0
 19  5  1  0
 18 12  1  0
  3 20  1  0
  3 21  1  0
  4 22  1  0
  4 23  1  0
  6 24  1  0
  8 25  1  0
 10 26  1  0
 13 27  1  0
 14 28  1  0
 17 29  1  0
 18 30  1  0
M  END
$$$$
