
     RDKit          3D

 63 66  0  0  0  0  0  0  0  0999 V2000
    7.9140   -1.8102   -1.4430 C   0  0  0  0  0  0  0  0  0  0  0  0
    6.5257   -1.1997   -1.2256 C   0  0  0  0  0  0  0  0  0  0  0  0
    5.5366   -2.2870   -0.7481 C   0  0  0  0  0  0  0  0  0  0  0  0
    4.1899   -1.7751   -0.5537 N   0  0  0  0  0  0  0  0  0  0  0  0
    3.6220   -1.6922    0.7016 C   0  0  0  0  0  0  0  0  0  0  0  0
    4.1388   -2.1336    1.7215 O   0  0  0  0  0  0  0  0  0  0  0  0
    2.3167   -0.9859    0.7774 C   0  0  0  0  0  0  0  0  0  0  0  0
    2.0326   -0.2300    1.9171 C   0  0  0  0  0  0  0  0  0  0  0  0
    0.8155    0.4473    2.0173 C   0  0  0  0  0  0  0  0  0  0  0  0
   -0.1342    0.3689    0.9941 C   0  0  0  0  0  0  0  0  0  0  0  0
   -1.2734    1.0821    1.2332 O   0  0  0  0  0  0  0  0  0  0  0  0
   -2.3354    1.0631    0.2740 C   0  0  0  0  0  0  0  0  0  0  0  0
   -3.2348   -0.1535    0.4905 C   0  0  0  0  0  0  0  0  0  0  0  0
   -4.4782   -0.0817   -0.3931 C   0  0  0  0  0  0  0  0  0  0  0  0
   -5.2303    1.1611   -0.1509 N   0  0  0  0  0  0  0  0  0  0  0  0
   -6.4464    1.2129   -0.9954 C   0  0  0  0  0  0  0  0  0  0  0  0
   -7.4993    0.1795   -0.6330 C   0  0  0  0  0  0  0  0  0  0  0  0
   -8.0860    0.1929    0.6323 C   0  0  0  0  0  0  0  0  0  0  0  0
   -9.0485   -0.7640    0.9379 C   0  0  0  0  0  0  0  0  0  0  0  0
   -9.3991   -1.7059   -0.0209 C   0  0  0  0  0  0  0  0  0  0  0  0
   -8.7673   -1.6529   -1.2519 C   0  0  0  0  0  0  0  0  0  0  0  0
   -7.8298   -0.7368   -1.5800 N   0  0  0  0  0  0  0  0  0  0  0  0
   -4.3948    2.3430   -0.4047 C   0  0  0  0  0  0  0  0  0  0  0  0
   -3.1546    2.3373    0.4833 C   0  0  0  0  0  0  0  0  0  0  0  0
    0.1441   -0.4021   -0.1351 C   0  0  0  0  0  0  0  0  0  0  0  0
    1.3661   -1.0789   -0.2452 C   0  0  0  0  0  0  0  0  0  0  0  0
    6.6317    0.0162   -0.3182 C   0  0  0  0  0  0  0  0  0  0  0  0
    6.6416    1.3020   -0.8838 C   0  0  0  0  0  0  0  0  0  0  0  0
    6.7412    2.4373   -0.0774 C   0  0  0  0  0  0  0  0  0  0  0  0
    6.8360    2.3041    1.3052 C   0  0  0  0  0  0  0  0  0  0  0  0
    6.8384    1.0355    1.8809 C   0  0  0  0  0  0  0  0  0  0  0  0
    6.7440   -0.1009    1.0750 C   0  0  0  0  0  0  0  0  0  0  0  0
    8.6153   -1.0658   -1.8374 H   0  0  0  0  0  0  0  0  0  0  0  0
    8.3339   -2.2008   -0.5087 H   0  0  0  0  0  0  0  0  0  0  0  0
    7.8648   -2.6359   -2.1614 H   0  0  0  0  0  0  0  0  0  0  0  0
    6.1602   -0.8539   -2.2028 H   0  0  0  0  0  0  0  0  0  0  0  0
    5.4569   -3.0651   -1.5163 H   0  0  0  0  0  0  0  0  0  0  0  0
    5.8925   -2.7739    0.1663 H   0  0  0  0  0  0  0  0  0  0  0  0
    3.7738   -1.2508   -1.3111 H   0  0  0  0  0  0  0  0  0  0  0  0
    2.7585   -0.1614    2.7242 H   0  0  0  0  0  0  0  0  0  0  0  0
    0.6032    1.0391    2.9051 H   0  0  0  0  0  0  0  0  0  0  0  0
   -1.9466    1.0935   -0.7511 H   0  0  0  0  0  0  0  0  0  0  0  0
   -3.5250   -0.2192    1.5480 H   0  0  0  0  0  0  0  0  0  0  0  0
   -2.6870   -1.0787    0.2779 H   0  0  0  0  0  0  0  0  0  0  0  0
   -5.0968   -0.9572   -0.1622 H   0  0  0  0  0  0  0  0  0  0  0  0
   -4.1836   -0.1606   -1.4481 H   0  0  0  0  0  0  0  0  0  0  0  0
   -6.1834    1.1105   -2.0564 H   0  0  0  0  0  0  0  0  0  0  0  0
   -6.9285    2.1937   -0.8879 H   0  0  0  0  0  0  0  0  0  0  0  0
   -7.7869    0.9314    1.3700 H   0  0  0  0  0  0  0  0  0  0  0  0
   -9.5163   -0.7752    1.9178 H   0  0  0  0  0  0  0  0  0  0  0  0
  -10.1445   -2.4647    0.1868 H   0  0  0  0  0  0  0  0  0  0  0  0
   -9.0053   -2.3694   -2.0324 H   0  0  0  0  0  0  0  0  0  0  0  0
   -4.0955    2.3920   -1.4603 H   0  0  0  0  0  0  0  0  0  0  0  0
   -4.9640    3.2546   -0.1854 H   0  0  0  0  0  0  0  0  0  0  0  0
   -3.4428    2.4299    1.5387 H   0  0  0  0  0  0  0  0  0  0  0  0
   -2.5332    3.2147    0.2673 H   0  0  0  0  0  0  0  0  0  0  0  0
   -0.5677   -0.5120   -0.9454 H   0  0  0  0  0  0  0  0  0  0  0  0
    1.5485   -1.6977   -1.1193 H   0  0  0  0  0  0  0  0  0  0  0  0
    6.5721    1.4293   -1.9618 H   0  0  0  0  0  0  0  0  0  0  0  0
    6.7438    3.4262   -0.5288 H   0  0  0  0  0  0  0  0  0  0  0  0
    6.9089    3.1866    1.9345 H   0  0  0  0  0  0  0  0  0  0  0  0
    6.9089    0.9264    2.9600 H   0  0  0  0  0  0  0  0  0  0  0  0
    6.7428   -1.0783    1.5539 H   0  0  0  0  0  0  0  0  0  0  0  0
  1  2  1  0
  2  3  1  0
  3  4  1  0
  4  5  1  0
  5  6  2  0
  5  7  1  0
  7  8  2  0
  8  9  1  0
  9 10  2  0
 10 11  1  0
 11 12  1  0
 12 13  1  0
 13 14  1  0
 14 15  1  0
 15 16  1  0
 16 17  1  0
 17 18  2  0
 18 19  1  0
 19 20  2  0
 20 21  1  0
 21 22  2  0
 15 23  1  0
 23 24  1  0
 10 25  1  0
 25 26  2  0
  2 27  1  0
 27 28  2  0
 28 29  1  0
 29 30  2  0
 30 31  1  0
 31 32  2  0
 26  7  1  0
 32 27  1  0
 24 12  1  0
 22 17  1  0
  1 33  1  0
  1 34  1  0
  1 35  1  0
  2 36  1  0
  3 37  1  0
  3 38  1  0
  4 39  1  0
  8 40  1  0
  9 41  1  0
 12 42  1  0
 13 43  1  0
 13 44  1  0
 14 45  1  0
 14 46  1  0
 16 47  1  0
 16 48  1  0
 18 49  1  0
 19 50  1  0
 20 51  1  0
 21 52  1  0
 23 53  1  0
 23 54  1  0
 24 55  1  0
 24 56  1  0
 25 57  1  0
 26 58  1  0
 28 59  1  0
 29 60  1  0
 30 61  1  0
 31 62  1  0
 32 63  1  0
M  END
$$$$
