
     RDKit          3D

 51 53  0  0  0  0  0  0  0  0999 V2000
   -0.8056    5.8335   -0.3892 C   0  0  0  0  0  0  0  0  0  0  0  0
   -1.5260    4.5797   -0.8635 C   0  0  0  0  0  0  0  0  0  0  0  0
   -0.9815    4.1126   -2.2119 C   0  0  0  0  0  0  0  0  0  0  0  0
   -1.8387    2.6126   -2.8045 S   0  0  0  0  0  0  0  0  0  0  0  0
   -1.0520    1.3356   -1.8289 C   0  0  0  0  0  0  0  0  0  0  0  0
   -1.5288    0.0463   -1.9309 C   0  0  0  0  0  0  0  0  0  0  0  0
   -0.9104   -0.9266   -1.1714 C   0  0  0  0  0  0  0  0  0  0  0  0
   -1.3199   -2.2540   -1.2314 N   0  0  0  0  0  0  0  0  0  0  0  0
   -0.5012   -3.2317   -0.4949 C   0  0  0  0  0  0  0  0  0  0  0  0
   -0.9747   -4.6631   -0.8321 C   0  0  0  0  0  0  0  0  0  0  0  0
   -2.3775   -4.9425   -0.4483 N   0  0  0  0  0  0  0  0  0  0  0  0
   -2.9700   -5.9283   -1.3479 C   0  0  0  0  0  0  0  0  0  0  0  0
   -3.1782   -3.7038   -0.3821 C   0  0  0  0  0  0  0  0  0  0  0  0
   -2.7552   -2.5685   -1.3458 C   0  0  0  0  0  0  0  0  0  0  0  0
    0.1359   -0.6088   -0.3906 N   0  0  0  0  0  0  0  0  0  0  0  0
    0.5416    0.6736   -0.3462 C   0  0  0  0  0  0  0  0  0  0  0  0
    1.6799    1.0070    0.5352 C   0  0  0  0  0  0  0  0  0  0  0  0
    2.3252    0.0243    1.3099 C   0  0  0  0  0  0  0  0  0  0  0  0
    3.4046    0.3342    2.1507 C   0  0  0  0  0  0  0  0  0  0  0  0
    3.8694    1.6435    2.2389 C   0  0  0  0  0  0  0  0  0  0  0  0
    4.9063    2.0815    3.0144 O   0  0  0  0  0  0  0  0  0  0  0  0
    5.5680    1.1071    3.8111 C   0  0  0  0  0  0  0  0  0  0  0  0
    3.2464    2.6337    1.4806 C   0  0  0  0  0  0  0  0  0  0  0  0
    2.1693    2.3213    0.6425 C   0  0  0  0  0  0  0  0  0  0  0  0
   -0.0218    1.6704   -1.0430 N   0  0  0  0  0  0  0  0  0  0  0  0
   -1.2105    6.1616    0.5733 H   0  0  0  0  0  0  0  0  0  0  0  0
   -0.9282    6.6518   -1.1060 H   0  0  0  0  0  0  0  0  0  0  0  0
    0.2651    5.6450   -0.2608 H   0  0  0  0  0  0  0  0  0  0  0  0
   -2.5977    4.7981   -0.9442 H   0  0  0  0  0  0  0  0  0  0  0  0
   -1.4095    3.8030   -0.0998 H   0  0  0  0  0  0  0  0  0  0  0  0
    0.1009    3.9504   -2.1793 H   0  0  0  0  0  0  0  0  0  0  0  0
   -1.1579    4.8932   -2.9604 H   0  0  0  0  0  0  0  0  0  0  0  0
   -2.3427   -0.1913   -2.6021 H   0  0  0  0  0  0  0  0  0  0  0  0
    0.5520   -3.1457   -0.7903 H   0  0  0  0  0  0  0  0  0  0  0  0
   -0.5681   -3.0589    0.5871 H   0  0  0  0  0  0  0  0  0  0  0  0
   -0.8378   -4.8074   -1.9130 H   0  0  0  0  0  0  0  0  0  0  0  0
   -0.3261   -5.3872   -0.3263 H   0  0  0  0  0  0  0  0  0  0  0  0
   -3.9694   -6.2126   -1.0006 H   0  0  0  0  0  0  0  0  0  0  0  0
   -3.0559   -5.5544   -2.3744 H   0  0  0  0  0  0  0  0  0  0  0  0
   -2.3708   -6.8455   -1.3618 H   0  0  0  0  0  0  0  0  0  0  0  0
   -4.2465   -3.9177   -0.5129 H   0  0  0  0  0  0  0  0  0  0  0  0
   -3.0857   -3.3222    0.6438 H   0  0  0  0  0  0  0  0  0  0  0  0
   -3.3826   -1.6984   -1.1171 H   0  0  0  0  0  0  0  0  0  0  0  0
   -2.9648   -2.8662   -2.3799 H   0  0  0  0  0  0  0  0  0  0  0  0
    1.9852   -1.0097    1.2640 H   0  0  0  0  0  0  0  0  0  0  0  0
    3.8533   -0.4736    2.7186 H   0  0  0  0  0  0  0  0  0  0  0  0
    6.3623    1.6138    4.3676 H   0  0  0  0  0  0  0  0  0  0  0  0
    4.8829    0.6615    4.5400 H   0  0  0  0  0  0  0  0  0  0  0  0
    6.0367    0.3389    3.1871 H   0  0  0  0  0  0  0  0  0  0  0  0
    3.5998    3.6603    1.5397 H   0  0  0  0  0  0  0  0  0  0  0  0
    1.7109    3.1239    0.0675 H   0  0  0  0  0  0  0  0  0  0  0  0
  1  2  1  0
  2  3  1  0
  3  4  1  0
  4  5  1  0
  5  6  2  0
  6  7  1  0
  7  8  1  0
  8  9  1  0
  9 10  1  0
 10 11  1  0
 11 12  1  0
 11 13  1  0
 13 14  1  0
  7 15  2  0
 15 16  1  0
 16 17  1  0
 17 18  2  0
 18 19  1  0
 19 20  2  0
 20 21  1  0
 21 22  1  0
 20 23  1  0
 23 24  2  0
 16 25  2  0
 25  5  1  0
 14  8  1  0
 24 17  1  0
  1 26  1  0
  1 27  1  0
  1 28  1  0
  2 29  1  0
  2 30  1  0
  3 31  1  0
  3 32  1  0
  6 33  1  0
  9 34  1  0
  9 35  1  0
 10 36  1  0
 10 37  1  0
 12 38  1  0
 12 39  1  0
 12 40  1  0
 13 41  1  0
 13 42  1  0
 14 43  1  0
 14 44  1  0
 18 45  1  0
 19 46  1  0
 22 47  1  0
 22 48  1  0
 22 49  1  0
 23 50  1  0
 24 51  1  0
M  END
$$$$
