
     RDKit          3D

 39 40  0  0  0  0  0  0  0  0999 V2000
    7.5647   -1.0399    0.4460 C   0  0  0  0  0  0  0  0  0  0  0  0
    6.8239   -0.1622   -0.3920 O   0  0  0  0  0  0  0  0  0  0  0  0
    5.4896   -0.0303   -0.1222 C   0  0  0  0  0  0  0  0  0  0  0  0
    4.8058    0.8426   -0.9708 C   0  0  0  0  0  0  0  0  0  0  0  0
    3.4374    1.0711   -0.8086 C   0  0  0  0  0  0  0  0  0  0  0  0
    2.7313    0.4283    0.2136 C   0  0  0  0  0  0  0  0  0  0  0  0
    1.2522    0.6537    0.3806 C   0  0  0  0  0  0  0  0  0  0  0  0
    0.4215   -0.3346   -0.4337 C   0  0  0  0  0  0  0  0  0  0  0  0
   -0.9675   -0.0431   -0.2105 O   0  0  0  0  0  0  0  0  0  0  0  0
   -1.8219   -0.8616   -0.8706 C   0  0  0  0  0  0  0  0  0  0  0  0
   -1.5090   -1.7808   -1.6092 O   0  0  0  0  0  0  0  0  0  0  0  0
   -3.2328   -0.4872   -0.5797 C   0  0  0  0  0  0  0  0  0  0  0  0
   -4.2521   -1.2239   -1.1937 C   0  0  0  0  0  0  0  0  0  0  0  0
   -5.5971   -0.9169   -0.9541 C   0  0  0  0  0  0  0  0  0  0  0  0
   -5.9649    0.1556   -0.1301 C   0  0  0  0  0  0  0  0  0  0  0  0
   -7.3271    0.3120    0.1740 N   0  0  0  0  0  0  0  0  0  0  0  0
   -4.9279    0.8540    0.5205 C   0  0  0  0  0  0  0  0  0  0  0  0
   -5.2304    1.9432    1.4504 N   0  0  0  0  0  4  0  0  0  0  0  0
   -4.4302    2.1426    2.3761 O   0  0  0  0  0  0  0  0  0  0  0  0
   -6.2527    2.6160    1.2435 O   0  0  0  0  0  1  0  0  0  0  0  0
   -3.5723    0.5542    0.2892 C   0  0  0  0  0  0  0  0  0  0  0  0
    3.4177   -0.4507    1.0604 C   0  0  0  0  0  0  0  0  0  0  0  0
    4.7890   -0.6774    0.8951 C   0  0  0  0  0  0  0  0  0  0  0  0
    7.1954   -2.0677    0.3660 H   0  0  0  0  0  0  0  0  0  0  0  0
    8.6037   -1.0323    0.1026 H   0  0  0  0  0  0  0  0  0  0  0  0
    7.5553   -0.6953    1.4854 H   0  0  0  0  0  0  0  0  0  0  0  0
    5.3450    1.3495   -1.7674 H   0  0  0  0  0  0  0  0  0  0  0  0
    2.9313    1.7545   -1.4866 H   0  0  0  0  0  0  0  0  0  0  0  0
    0.9790    0.5842    1.4417 H   0  0  0  0  0  0  0  0  0  0  0  0
    0.9940    1.6817    0.0944 H   0  0  0  0  0  0  0  0  0  0  0  0
    0.6470   -0.2336   -1.5024 H   0  0  0  0  0  0  0  0  0  0  0  0
    0.6336   -1.3631   -0.1169 H   0  0  0  0  0  0  0  0  0  0  0  0
   -4.0067   -2.0552   -1.8542 H   0  0  0  0  0  0  0  0  0  0  0  0
   -6.3624   -1.5354   -1.4202 H   0  0  0  0  0  0  0  0  0  0  0  0
   -7.9651    0.0067   -0.5559 H   0  0  0  0  0  0  0  0  0  0  0  0
   -7.5695    1.2478    0.5130 H   0  0  0  0  0  0  0  0  0  0  0  0
   -2.7946    1.1267    0.7910 H   0  0  0  0  0  0  0  0  0  0  0  0
    2.8899   -0.9679    1.8591 H   0  0  0  0  0  0  0  0  0  0  0  0
    5.2768   -1.3653    1.5773 H   0  0  0  0  0  0  0  0  0  0  0  0
  1  2  1  0
  2  3  1  0
  3  4  2  0
  4  5  1  0
  5  6  2  0
  6  7  1  0
  7  8  1  0
  8  9  1  0
  9 10  1  0
 10 11  2  0
 10 12  1  0
 12 13  2  0
 13 14  1  0
 14 15  2  0
 15 16  1  0
 15 17  1  0
 17 18  1  0
 18 19  2  0
 18 20  1  0
 17 21  2  0
  6 22  1  0
 22 23  2  0
 23  3  1  0
 21 12  1  0
  1 24  1  0
  1 25  1  0
  1 26  1  0
  4 27  1  0
  5 28  1  0
  7 29  1  0
  7 30  1  0
  8 31  1  0
  8 32  1  0
 13 33  1  0
 14 34  1  0
 16 35  1  0
 16 36  1  0
 21 37  1  0
 22 38  1  0
 23 39  1  0
M  CHG  2  18   1  20  -1
M  END
$$$$
