
     RDKit          3D

 47 49  0  0  0  0  0  0  0  0999 V2000
    4.4883   -0.2647    2.9852 C   0  0  0  0  0  0  0  0  0  0  0  0
    3.8577   -0.1578    1.7147 O   0  0  0  0  0  0  0  0  0  0  0  0
    4.5445    0.5174    0.7299 C   0  0  0  0  0  0  0  0  0  0  0  0
    5.8422    1.0209    0.8633 C   0  0  0  0  0  0  0  0  0  0  0  0
    6.4481    1.6850   -0.2062 C   0  0  0  0  0  0  0  0  0  0  0  0
    5.7605    1.8505   -1.4078 C   0  0  0  0  0  0  0  0  0  0  0  0
    4.4640    1.3507   -1.5491 C   0  0  0  0  0  0  0  0  0  0  0  0
    3.8468    0.6844   -0.4873 C   0  0  0  0  0  0  0  0  0  0  0  0
    2.5392    0.1500   -0.5469 N   0  0  0  0  0  0  0  0  0  0  0  0
    1.6117    0.2498   -1.5549 C   0  0  0  0  0  0  0  0  0  0  0  0
    1.7802    0.8752   -2.5994 O   0  0  0  0  0  0  0  0  0  0  0  0
    0.4120   -0.4218   -1.3042 N   0  0  0  0  0  0  0  0  0  0  0  0
    0.1930   -1.3455   -0.1883 C   0  0  0  0  0  0  0  0  0  0  0  0
   -1.0333   -2.2310   -0.3909 C   0  0  0  0  0  0  0  0  0  0  0  0
   -2.3062   -1.4020   -0.6432 C   0  0  0  0  0  0  0  0  0  0  0  0
   -2.9330   -0.9596    0.6828 C   0  0  0  0  0  0  0  0  0  0  0  0
   -2.3073   -1.0136    1.7412 O   0  0  0  0  0  0  0  0  0  0  0  0
   -4.3360   -0.4354    0.7091 C   0  0  0  0  0  0  0  0  0  0  0  0
   -4.7900    0.1710    1.8934 C   0  0  0  0  0  0  0  0  0  0  0  0
   -6.0902    0.6747    1.9819 C   0  0  0  0  0  0  0  0  0  0  0  0
   -6.9389    0.5677    0.8887 C   0  0  0  0  0  0  0  0  0  0  0  0
   -8.1886    1.0464    0.9705 F   0  0  0  0  0  0  0  0  0  0  0  0
   -6.5107   -0.0327   -0.2908 C   0  0  0  0  0  0  0  0  0  0  0  0
   -5.2081   -0.5361   -0.3842 C   0  0  0  0  0  0  0  0  0  0  0  0
   -2.0304   -0.1798   -1.5343 C   0  0  0  0  0  0  0  0  0  0  0  0
   -0.6844   -0.2519   -2.2503 C   0  0  0  0  0  0  0  0  0  0  0  0
    5.4090   -0.8538    2.9248 H   0  0  0  0  0  0  0  0  0  0  0  0
    3.8032   -0.7949    3.6540 H   0  0  0  0  0  0  0  0  0  0  0  0
    4.6757    0.7248    3.4173 H   0  0  0  0  0  0  0  0  0  0  0  0
    6.4107    0.9105    1.7811 H   0  0  0  0  0  0  0  0  0  0  0  0
    7.4575    2.0752   -0.1040 H   0  0  0  0  0  0  0  0  0  0  0  0
    6.2333    2.3664   -2.2416 H   0  0  0  0  0  0  0  0  0  0  0  0
    3.9631    1.4936   -2.5020 H   0  0  0  0  0  0  0  0  0  0  0  0
    2.2441   -0.2546    0.3304 H   0  0  0  0  0  0  0  0  0  0  0  0
    0.0939   -0.7406    0.7197 H   0  0  0  0  0  0  0  0  0  0  0  0
    1.0793   -1.9787   -0.0717 H   0  0  0  0  0  0  0  0  0  0  0  0
   -0.8595   -2.8816   -1.2579 H   0  0  0  0  0  0  0  0  0  0  0  0
   -1.1576   -2.8969    0.4710 H   0  0  0  0  0  0  0  0  0  0  0  0
   -3.0136   -2.0802   -1.1360 H   0  0  0  0  0  0  0  0  0  0  0  0
   -4.1308    0.2541    2.7557 H   0  0  0  0  0  0  0  0  0  0  0  0
   -6.4426    1.1454    2.8955 H   0  0  0  0  0  0  0  0  0  0  0  0
   -7.1956   -0.1054   -1.1301 H   0  0  0  0  0  0  0  0  0  0  0  0
   -4.9118   -1.0058   -1.3151 H   0  0  0  0  0  0  0  0  0  0  0  0
   -2.0596    0.7424   -0.9398 H   0  0  0  0  0  0  0  0  0  0  0  0
   -2.8256   -0.0865   -2.2828 H   0  0  0  0  0  0  0  0  0  0  0  0
   -0.5459    0.6576   -2.8462 H   0  0  0  0  0  0  0  0  0  0  0  0
   -0.6582   -1.0997   -2.9452 H   0  0  0  0  0  0  0  0  0  0  0  0
  1  2  1  0
  2  3  1  0
  3  4  2  0
  4  5  1  0
  5  6  2  0
  6  7  1  0
  7  8  2  0
  8  9  1  0
  9 10  1  0
 10 11  2  0
 10 12  1  0
 12 13  1  0
 13 14  1  0
 14 15  1  0
 15 16  1  0
 16 17  2  0
 16 18  1  0
 18 19  2  0
 19 20  1  0
 20 21  2  0
 21 22  1  0
 21 23  1  0
 23 24  2  0
 15 25  1  0
 25 26  1  0
  8  3  1  0
 26 12  1  0
 24 18  1  0
  1 27  1  0
  1 28  1  0
  1 29  1  0
  4 30  1  0
  5 31  1  0
  6 32  1  0
  7 33  1  0
  9 34  1  0
 13 35  1  0
 13 36  1  0
 14 37  1  0
 14 38  1  0
 15 39  1  0
 19 40  1  0
 20 41  1  0
 23 42  1  0
 24 43  1  0
 25 44  1  0
 25 45  1  0
 26 46  1  0
 26 47  1  0
M  END
$$$$
