
     RDKit          3D

 54 56  0  0  0  0  0  0  0  0999 V2000
   -4.6535    2.5813    2.9611 C   0  0  0  0  0  0  0  0  0  0  0  0
   -4.0572    1.2420    2.5749 C   0  0  0  0  0  0  0  0  0  0  0  0
   -3.0558    1.4690    1.5795 O   0  0  0  0  0  0  0  0  0  0  0  0
   -2.4722    0.3348    1.0956 C   0  0  0  0  0  0  0  0  0  0  0  0
   -2.7563   -0.7969    1.4743 O   0  0  0  0  0  0  0  0  0  0  0  0
   -1.4574    0.6029    0.0831 C   0  0  0  0  0  0  0  0  0  0  0  0
   -1.6358    1.5244   -0.9391 C   0  0  0  0  0  0  0  0  0  0  0  0
   -2.6785    2.3459   -1.2050 N   0  0  0  0  0  0  0  0  0  0  0  0
   -3.6679    1.9470   -1.9320 C   0  0  0  0  0  0  0  0  0  0  0  0
   -4.0454    0.7965   -2.6109 N   0  0  0  0  0  0  0  0  0  0  0  0
   -3.3970   -0.4938   -2.4397 C   0  0  0  0  0  0  0  0  0  0  0  0
   -5.3851    0.7331   -3.1922 C   0  0  0  0  0  0  0  0  0  0  0  0
   -0.2280    1.6530   -1.9116 S   0  0  0  0  0  0  0  0  0  0  0  0
    0.5820    0.4029   -1.0730 C   0  0  0  0  0  0  0  0  0  0  0  0
    1.9002    0.0456   -1.5507 C   0  0  0  0  0  0  0  0  0  0  0  0
    2.5906   -0.9204   -1.0249 N   0  0  0  0  0  0  0  0  0  0  0  0
    3.8120   -1.0938   -1.6148 N   0  0  0  0  0  0  0  0  0  0  0  0
    4.9463   -0.5355   -0.9522 C   0  0  0  0  0  0  0  0  0  0  0  0
    6.2245   -0.8400   -1.4448 C   0  0  0  0  0  0  0  0  0  0  0  0
    7.3684   -0.2748   -0.8735 C   0  0  0  0  0  0  0  0  0  0  0  0
    7.2476    0.6172    0.1890 C   0  0  0  0  0  0  0  0  0  0  0  0
    5.9846    0.9476    0.6748 C   0  0  0  0  0  0  0  0  0  0  0  0
    4.8419    0.3833    0.1000 C   0  0  0  0  0  0  0  0  0  0  0  0
   -0.1832   -0.0758   -0.0214 C   0  0  0  0  0  0  0  0  0  0  0  0
    0.3081   -1.0946    0.8974 C   0  0  0  0  0  0  0  0  0  0  0  0
    1.0542   -0.7199    2.0223 C   0  0  0  0  0  0  0  0  0  0  0  0
    1.5153   -1.6945    2.9106 C   0  0  0  0  0  0  0  0  0  0  0  0
    1.2243   -3.0383    2.6763 C   0  0  0  0  0  0  0  0  0  0  0  0
    1.7893   -4.2379    3.7733 Cl  0  0  0  0  0  0  0  0  0  0  0  0
    0.4758   -3.4175    1.5627 C   0  0  0  0  0  0  0  0  0  0  0  0
    0.0158   -2.4447    0.6714 C   0  0  0  0  0  0  0  0  0  0  0  0
   -3.8784    3.2502    3.3501 H   0  0  0  0  0  0  0  0  0  0  0  0
   -5.0922    3.0745    2.0866 H   0  0  0  0  0  0  0  0  0  0  0  0
   -5.4287    2.4578    3.7230 H   0  0  0  0  0  0  0  0  0  0  0  0
   -3.6013    0.7735    3.4540 H   0  0  0  0  0  0  0  0  0  0  0  0
   -4.8407    0.5898    2.1737 H   0  0  0  0  0  0  0  0  0  0  0  0
   -4.4359    2.7302   -2.0702 H   0  0  0  0  0  0  0  0  0  0  0  0
   -3.8292   -1.2516   -3.1029 H   0  0  0  0  0  0  0  0  0  0  0  0
   -3.5206   -0.8558   -1.4150 H   0  0  0  0  0  0  0  0  0  0  0  0
   -2.3361   -0.4433   -2.6935 H   0  0  0  0  0  0  0  0  0  0  0  0
   -5.6852    1.7033   -3.6040 H   0  0  0  0  0  0  0  0  0  0  0  0
   -5.4275    0.0119   -4.0156 H   0  0  0  0  0  0  0  0  0  0  0  0
   -6.1122    0.4371   -2.4290 H   0  0  0  0  0  0  0  0  0  0  0  0
    2.3166    0.6260   -2.3963 H   0  0  0  0  0  0  0  0  0  0  0  0
    4.0278   -2.0826   -1.7799 H   0  0  0  0  0  0  0  0  0  0  0  0
    6.3370   -1.5191   -2.2865 H   0  0  0  0  0  0  0  0  0  0  0  0
    8.3505   -0.5252   -1.2641 H   0  0  0  0  0  0  0  0  0  0  0  0
    8.1347    1.0574    0.6347 H   0  0  0  0  0  0  0  0  0  0  0  0
    5.8840    1.6469    1.4996 H   0  0  0  0  0  0  0  0  0  0  0  0
    3.8682    0.6543    0.4988 H   0  0  0  0  0  0  0  0  0  0  0  0
    1.2869    0.3259    2.2078 H   0  0  0  0  0  0  0  0  0  0  0  0
    2.0997   -1.4004    3.7778 H   0  0  0  0  0  0  0  0  0  0  0  0
    0.2455   -4.4639    1.3832 H   0  0  0  0  0  0  0  0  0  0  0  0
   -0.5706   -2.7450   -0.1930 H   0  0  0  0  0  0  0  0  0  0  0  0
  1  2  1  0
  2  3  1  0
  3  4  1  0
  4  5  2  0
  4  6  1  0
  6  7  2  0
  7  8  1  0
  8  9  2  3
  9 10  1  0
 10 11  1  0
 10 12  1  0
  7 13  1  0
 13 14  1  0
 14 15  1  0
 15 16  2  3
 16 17  1  0
 17 18  1  0
 18 19  2  0
 19 20  1  0
 20 21  2  0
 21 22  1  0
 22 23  2  0
 14 24  2  0
 24 25  1  0
 25 26  2  0
 26 27  1  0
 27 28  2  0
 28 29  1  0
 28 30  1  0
 30 31  2  0
 24  6  1  0
 31 25  1  0
 23 18  1  0
  1 32  1  0
  1 33  1  0
  1 34  1  0
  2 35  1  0
  2 36  1  0
  9 37  1  0
 11 38  1  0
 11 39  1  0
 11 40  1  0
 12 41  1  0
 12 42  1  0
 12 43  1  0
 15 44  1  0
 17 45  1  0
 19 46  1  0
 20 47  1  0
 21 48  1  0
 22 49  1  0
 23 50  1  0
 26 51  1  0
 27 52  1  0
 30 53  1  0
 31 54  1  0
M  END
$$$$
