
     RDKit          3D

 46 49  0  0  0  0  0  0  0  0999 V2000
   -3.7698    0.7024   -2.7360 C   0  0  0  0  0  0  0  0  0  0  0  0
   -4.1223   -0.6616   -2.1551 C   0  0  0  0  0  0  0  0  0  0  0  0
   -3.9765   -0.7701   -0.6203 C   0  0  0  0  0  0  0  0  0  0  0  0
   -5.0100    0.1182    0.0961 C   0  0  0  0  0  0  0  0  0  0  0  0
   -4.8565    0.0393    1.6129 C   0  0  0  0  0  0  0  0  0  0  0  0
   -3.3995    0.1434    2.0667 C   0  0  0  0  0  0  0  0  0  0  0  0
   -2.4432    0.4709    0.9221 C   0  0  0  0  0  0  0  0  0  0  0  0
   -2.5987   -0.4940   -0.1703 N   0  0  0  0  0  0  0  0  0  0  0  0
   -1.5908   -1.4084   -0.5219 C   0  0  0  0  0  0  0  0  0  0  0  0
   -1.8741   -2.5027   -1.0108 O   0  0  0  0  0  0  0  0  0  0  0  0
   -0.2024   -1.0399   -0.2935 C   0  0  0  0  0  0  0  0  0  0  0  0
    0.7895   -1.8238    0.2643 C   0  0  0  0  0  0  0  0  0  0  0  0
    2.0516   -1.1603    0.2764 C   0  0  0  0  0  0  0  0  0  0  0  0
    3.3231   -1.6232    0.7920 C   0  0  0  0  0  0  0  0  0  0  0  0
    3.4284   -2.7238    1.3309 O   0  0  0  0  0  0  0  0  0  0  0  0
    4.3802   -0.7109    0.6238 N   0  0  0  0  0  0  0  0  0  0  0  0
    5.6409   -1.0743    1.0861 C   0  0  0  0  0  0  0  0  0  0  0  0
    6.6993   -0.2665    0.9706 C   0  0  0  0  0  0  0  0  0  0  0  0
    6.5561    1.0221    0.3539 C   0  0  0  0  0  0  0  0  0  0  0  0
    5.3710    1.4410   -0.1154 C   0  0  0  0  0  0  0  0  0  0  0  0
    5.1712    2.7737   -0.7673 C   0  0  0  0  0  0  0  0  0  0  0  0
    4.1704    0.5386    0.0092 C   0  0  0  0  0  0  0  0  0  0  0  0
    3.0210    0.9511   -0.4478 N   0  0  0  0  0  0  0  0  0  0  0  0
    1.9953    0.0822   -0.3038 C   0  0  0  0  0  0  0  0  0  0  0  0
    0.4308    0.4445   -0.8775 S   0  0  0  0  0  0  0  0  0  0  0  0
   -2.7456    0.9934   -2.4853 H   0  0  0  0  0  0  0  0  0  0  0  0
   -3.8494    0.6724   -3.8277 H   0  0  0  0  0  0  0  0  0  0  0  0
   -4.4494    1.4816   -2.3802 H   0  0  0  0  0  0  0  0  0  0  0  0
   -3.4885   -1.4106   -2.6434 H   0  0  0  0  0  0  0  0  0  0  0  0
   -5.1538   -0.9080   -2.4357 H   0  0  0  0  0  0  0  0  0  0  0  0
   -4.1935   -1.8112   -0.3438 H   0  0  0  0  0  0  0  0  0  0  0  0
   -6.0271   -0.1792   -0.1852 H   0  0  0  0  0  0  0  0  0  0  0  0
   -4.8960    1.1660   -0.2058 H   0  0  0  0  0  0  0  0  0  0  0  0
   -5.2772   -0.9062    1.9766 H   0  0  0  0  0  0  0  0  0  0  0  0
   -5.4494    0.8359    2.0778 H   0  0  0  0  0  0  0  0  0  0  0  0
   -3.3087    0.8991    2.8554 H   0  0  0  0  0  0  0  0  0  0  0  0
   -3.1038   -0.8125    2.5179 H   0  0  0  0  0  0  0  0  0  0  0  0
   -1.4279    0.4705    1.3244 H   0  0  0  0  0  0  0  0  0  0  0  0
   -2.6423    1.4700    0.5182 H   0  0  0  0  0  0  0  0  0  0  0  0
    0.6152   -2.8230    0.6488 H   0  0  0  0  0  0  0  0  0  0  0  0
    5.7355   -2.0532    1.5508 H   0  0  0  0  0  0  0  0  0  0  0  0
    7.6766   -0.5659    1.3361 H   0  0  0  0  0  0  0  0  0  0  0  0
    7.4432    1.6447    0.2806 H   0  0  0  0  0  0  0  0  0  0  0  0
    4.8141    2.6504   -1.7950 H   0  0  0  0  0  0  0  0  0  0  0  0
    4.4406    3.3694   -0.2103 H   0  0  0  0  0  0  0  0  0  0  0  0
    6.1023    3.3490   -0.8089 H   0  0  0  0  0  0  0  0  0  0  0  0
  1  2  1  0
  2  3  1  0
  3  4  1  0
  4  5  1  0
  5  6  1  0
  6  7  1  0
  7  8  1  0
  8  9  1  0
  9 10  2  0
  9 11  1  0
 11 12  2  0
 12 13  1  0
 13 14  1  0
 14 15  2  0
 14 16  1  0
 16 17  1  0
 17 18  2  0
 18 19  1  0
 19 20  2  0
 20 21  1  0
 20 22  1  0
 22 23  2  0
 23 24  1  0
 24 25  1  0
  8  3  1  0
 25 11  1  0
 24 13  2  0
 22 16  1  0
  1 26  1  0
  1 27  1  0
  1 28  1  0
  2 29  1  0
  2 30  1  0
  3 31  1  0
  4 32  1  0
  4 33  1  0
  5 34  1  0
  5 35  1  0
  6 36  1  0
  6 37  1  0
  7 38  1  0
  7 39  1  0
 12 40  1  0
 17 41  1  0
 18 42  1  0
 19 43  1  0
 21 44  1  0
 21 45  1  0
 21 46  1  0
M  END
$$$$
