
     RDKit          3D

 46 48  0  0  0  0  0  0  0  0999 V2000
    3.4153   -2.7199    0.2924 C   0  0  0  0  0  0  0  0  0  0  0  0
    3.7345   -1.3044   -0.1502 C   0  0  0  0  0  0  0  0  0  0  0  0
    2.5348   -0.6378   -0.5657 O   0  0  0  0  0  0  0  0  0  0  0  0
    2.1715   -0.8122   -1.8816 C   0  0  0  0  0  0  0  0  0  0  0  0
    2.8149   -1.4904   -2.6729 O   0  0  0  0  0  0  0  0  0  0  0  0
    0.8488   -0.0767   -2.1695 C   0  0  0  0  0  0  0  0  0  0  0  0
    0.6307   -0.1513   -3.7008 C   0  0  0  0  0  0  0  0  0  0  0  0
    0.4840   -1.4172   -4.1604 F   0  0  0  0  0  0  0  0  0  0  0  0
    1.6368    0.4284   -4.4017 F   0  0  0  0  0  0  0  0  0  0  0  0
   -0.5070    0.5142   -4.0531 F   0  0  0  0  0  0  0  0  0  0  0  0
    1.0020    1.3270   -1.7490 N   0  0  0  0  0  0  0  0  0  0  0  0
    0.4486    1.6626   -0.6468 C   0  0  0  0  0  0  0  0  0  0  0  0
    0.5834    3.0157   -0.0654 C   0  0  0  0  0  0  0  0  0  0  0  0
    1.2209    4.0279   -0.7886 C   0  0  0  0  0  0  0  0  0  0  0  0
    1.3458    5.2997   -0.2322 C   0  0  0  0  0  0  0  0  0  0  0  0
    0.8290    5.5176    1.0346 C   0  0  0  0  0  0  0  0  0  0  0  0
    0.2099    4.5646    1.7650 N   0  0  0  0  0  0  0  0  0  0  0  0
    0.1030    3.3359    1.1993 C   0  0  0  0  0  0  0  0  0  0  0  0
   -0.3228    0.8845    0.1229 O   0  0  0  0  0  0  0  0  0  0  0  0
   -0.6894   -0.3077   -0.3855 C   0  0  0  0  0  0  0  0  0  0  0  0
   -1.6383   -0.9503    0.3822 N   0  0  0  0  0  0  0  0  0  0  0  0
   -2.2802   -0.3196    1.5380 C   0  0  0  0  0  0  0  0  0  0  0  0
   -3.6691   -0.9005    1.7842 C   0  0  0  0  0  0  0  0  0  0  0  0
   -3.6268   -2.4071    2.0234 C   0  0  0  0  0  0  0  0  0  0  0  0
   -2.4732   -3.0834    1.2872 C   0  0  0  0  0  0  0  0  0  0  0  0
   -2.0612   -2.3125    0.0371 C   0  0  0  0  0  0  0  0  0  0  0  0
   -0.2148   -0.7997   -1.4649 N   0  0  0  0  0  0  0  0  0  0  0  0
    3.0072   -3.3082   -0.5356 H   0  0  0  0  0  0  0  0  0  0  0  0
    2.6566   -2.7137    1.0821 H   0  0  0  0  0  0  0  0  0  0  0  0
    4.3123   -3.2204    0.6682 H   0  0  0  0  0  0  0  0  0  0  0  0
    4.1383   -0.7376    0.6950 H   0  0  0  0  0  0  0  0  0  0  0  0
    4.4951   -1.2901   -0.9390 H   0  0  0  0  0  0  0  0  0  0  0  0
    1.6196    3.8351   -1.7821 H   0  0  0  0  0  0  0  0  0  0  0  0
    1.8352    6.1007   -0.7757 H   0  0  0  0  0  0  0  0  0  0  0  0
    0.9022    6.4923    1.5094 H   0  0  0  0  0  0  0  0  0  0  0  0
   -0.3945    2.6046    1.8292 H   0  0  0  0  0  0  0  0  0  0  0  0
   -2.3950    0.7585    1.3762 H   0  0  0  0  0  0  0  0  0  0  0  0
   -1.6469   -0.4554    2.4226 H   0  0  0  0  0  0  0  0  0  0  0  0
   -4.1443   -0.4031    2.6373 H   0  0  0  0  0  0  0  0  0  0  0  0
   -4.3023   -0.6958    0.9109 H   0  0  0  0  0  0  0  0  0  0  0  0
   -3.5344   -2.6148    3.0963 H   0  0  0  0  0  0  0  0  0  0  0  0
   -4.5817   -2.8437    1.7070 H   0  0  0  0  0  0  0  0  0  0  0  0
   -2.7515   -4.1110    1.0273 H   0  0  0  0  0  0  0  0  0  0  0  0
   -1.6115   -3.1543    1.9643 H   0  0  0  0  0  0  0  0  0  0  0  0
   -1.2445   -2.8644   -0.4430 H   0  0  0  0  0  0  0  0  0  0  0  0
   -2.8913   -2.2662   -0.6776 H   0  0  0  0  0  0  0  0  0  0  0  0
  1  2  1  0
  2  3  1  0
  3  4  1  0
  4  5  2  0
  4  6  1  0
  6  7  1  0
  7  8  1  0
  7  9  1  0
  7 10  1  0
  6 11  1  0
 11 12  2  0
 12 13  1  0
 13 14  2  0
 14 15  1  0
 15 16  2  0
 16 17  1  0
 17 18  2  0
 12 19  1  0
 19 20  1  0
 20 21  1  0
 21 22  1  0
 22 23  1  0
 23 24  1  0
 24 25  1  0
 25 26  1  0
 20 27  2  0
 27  6  1  0
 18 13  1  0
 26 21  1  0
  1 28  1  0
  1 29  1  0
  1 30  1  0
  2 31  1  0
  2 32  1  0
 14 33  1  0
 15 34  1  0
 16 35  1  0
 18 36  1  0
 22 37  1  0
 22 38  1  0
 23 39  1  0
 23 40  1  0
 24 41  1  0
 24 42  1  0
 25 43  1  0
 25 44  1  0
 26 45  1  0
 26 46  1  0
M  END
$$$$
