
     RDKit          3D

 37 38  0  0  0  0  0  0  0  0999 V2000
   -3.1308    2.5711   -0.5818 C   0  0  0  0  0  0  0  0  0  0  0  0
   -3.3374    1.0858   -0.5700 C   0  0  0  0  0  0  0  0  0  0  0  0
   -4.6116    0.5613   -0.3929 C   0  0  0  0  0  0  0  0  0  0  0  0
   -4.7810   -0.8262   -0.3957 C   0  0  0  0  0  0  0  0  0  0  0  0
   -6.1424   -1.4345   -0.1997 C   0  0  0  0  0  0  0  0  0  0  0  0
   -7.1423   -0.6741   -0.7263 F   0  0  0  0  0  0  0  0  0  0  0  0
   -6.4496   -1.5985    1.1152 F   0  0  0  0  0  0  0  0  0  0  0  0
   -6.2681   -2.6630   -0.7726 F   0  0  0  0  0  0  0  0  0  0  0  0
   -3.6516   -1.6358   -0.5536 C   0  0  0  0  0  0  0  0  0  0  0  0
   -2.4049   -1.0432   -0.7100 C   0  0  0  0  0  0  0  0  0  0  0  0
   -1.2740   -1.8777   -0.9106 N   0  0  0  0  0  0  0  0  0  0  0  0
   -0.0641   -1.1099   -0.8564 N   0  0  0  0  0  0  0  0  0  0  0  0
    0.7554   -1.4094    0.2330 C   0  0  0  0  0  0  0  0  0  0  0  0
    0.5212   -2.3569    0.9751 O   0  0  0  0  0  0  0  0  0  0  0  0
    1.8149   -0.5303    0.3058 N   0  0  0  0  0  0  0  0  0  0  0  0
    2.8083   -0.5999    1.2616 C   0  0  0  0  0  0  0  0  0  0  0  0
    2.7260   -1.1497    2.3521 O   0  0  0  0  0  0  0  0  0  0  0  0
    4.0691    0.1179    0.9241 C   0  0  0  0  0  0  0  0  0  0  0  0
    5.2789   -0.4189    1.3859 C   0  0  0  0  0  0  0  0  0  0  0  0
    6.4879    0.2171    1.0930 C   0  0  0  0  0  0  0  0  0  0  0  0
    6.4864    1.3952    0.3485 C   0  0  0  0  0  0  0  0  0  0  0  0
    7.9729    2.1801   -0.0137 Cl  0  0  0  0  0  0  0  0  0  0  0  0
    5.2861    1.9475   -0.0991 C   0  0  0  0  0  0  0  0  0  0  0  0
    4.0738    1.3127    0.1905 C   0  0  0  0  0  0  0  0  0  0  0  0
   -2.2443    0.3047   -0.7359 N   0  0  0  0  0  0  0  0  0  0  0  0
   -2.0750    2.8160   -0.7360 H   0  0  0  0  0  0  0  0  0  0  0  0
   -3.4453    3.0039    0.3730 H   0  0  0  0  0  0  0  0  0  0  0  0
   -3.7084    3.0270   -1.3919 H   0  0  0  0  0  0  0  0  0  0  0  0
   -5.4647    1.2229   -0.2615 H   0  0  0  0  0  0  0  0  0  0  0  0
   -3.7448   -2.7187   -0.5627 H   0  0  0  0  0  0  0  0  0  0  0  0
   -1.2512   -2.5981   -0.1757 H   0  0  0  0  0  0  0  0  0  0  0  0
   -0.2743   -0.1164   -0.9795 H   0  0  0  0  0  0  0  0  0  0  0  0
    2.0446   -0.1185   -0.5837 H   0  0  0  0  0  0  0  0  0  0  0  0
    5.2806   -1.3352    1.9753 H   0  0  0  0  0  0  0  0  0  0  0  0
    7.4214   -0.2089    1.4527 H   0  0  0  0  0  0  0  0  0  0  0  0
    5.2887    2.8779   -0.6626 H   0  0  0  0  0  0  0  0  0  0  0  0
    3.1496    1.7827   -0.1335 H   0  0  0  0  0  0  0  0  0  0  0  0
  1  2  1  0
  2  3  2  0
  3  4  1  0
  4  5  1  0
  5  6  1  0
  5  7  1  0
  5  8  1  0
  4  9  2  0
  9 10  1  0
 10 11  1  0
 11 12  1  0
 12 13  1  0
 13 14  2  0
 13 15  1  0
 15 16  1  0
 16 17  2  0
 16 18  1  0
 18 19  2  0
 19 20  1  0
 20 21  2  0
 21 22  1  0
 21 23  1  0
 23 24  2  0
 10 25  2  0
 25  2  1  0
 24 18  1  0
  1 26  1  0
  1 27  1  0
  1 28  1  0
  3 29  1  0
  9 30  1  0
 11 31  1  0
 12 32  1  0
 15 33  1  0
 19 34  1  0
 20 35  1  0
 23 36  1  0
 24 37  1  0
M  END
$$$$
