
     RDKit          3D

 41 43  0  0  0  0  0  0  0  0999 V2000
   -4.4763   -1.9749    0.8310 O   0  0  0  0  0  0  0  0  0  0  0  0
   -3.9815   -0.8985    0.5199 C   0  0  0  0  0  0  0  0  0  0  0  0
   -2.6344   -0.6010    0.4155 N   0  0  0  0  0  0  0  0  0  0  0  0
   -1.5448   -1.4451    0.7204 C   0  0  0  0  0  0  0  0  0  0  0  0
   -1.6751   -2.7155    1.2718 C   0  0  0  0  0  0  0  0  0  0  0  0
   -0.5387   -3.4775    1.5455 C   0  0  0  0  0  0  0  0  0  0  0  0
    0.7395   -2.9783    1.2751 C   0  0  0  0  0  0  0  0  0  0  0  0
    0.8985   -1.7088    0.7292 C   0  0  0  0  0  0  0  0  0  0  0  0
    2.1288   -1.0896    0.4106 N   0  0  0  0  0  0  0  0  0  0  0  0
    3.4462   -1.4600    0.5337 C   0  0  0  0  0  0  0  0  0  0  0  0
    4.1240   -2.8526    1.1567 S   0  0  0  0  0  0  0  0  0  0  0  0
    4.3592   -0.5239    0.0647 N   0  0  0  0  0  0  0  0  0  0  0  0
    4.1402    0.7319   -0.4993 C   0  0  0  0  0  0  0  0  0  0  0  0
    2.9957    1.1752   -0.6179 O   0  0  0  0  0  0  0  0  0  0  0  0
    5.3433    1.4497   -0.9105 C   0  0  0  0  0  0  0  0  0  0  0  0
    6.6663    1.0420   -0.9742 C   0  0  0  0  0  0  0  0  0  0  0  0
    7.5393    2.0733   -1.4357 C   0  0  0  0  0  0  0  0  0  0  0  0
    6.8612    3.2361   -1.7158 C   0  0  0  0  0  0  0  0  0  0  0  0
    5.1860    3.0838   -1.4275 S   0  0  0  0  0  0  0  0  0  0  0  0
   -0.2569   -0.9530    0.4565 C   0  0  0  0  0  0  0  0  0  0  0  0
   -4.8970    0.2240    0.1677 C   0  0  0  0  0  0  0  0  0  0  0  0
   -6.0983   -0.0739   -0.4871 C   0  0  0  0  0  0  0  0  0  0  0  0
   -6.9794    0.9512   -0.8342 C   0  0  0  0  0  0  0  0  0  0  0  0
   -6.6688    2.2738   -0.5187 C   0  0  0  0  0  0  0  0  0  0  0  0
   -5.4825    2.5743    0.1514 C   0  0  0  0  0  0  0  0  0  0  0  0
   -4.5968    1.5521    0.4999 C   0  0  0  0  0  0  0  0  0  0  0  0
   -2.3947    0.2954    0.0130 H   0  0  0  0  0  0  0  0  0  0  0  0
   -2.6448   -3.1439    1.5042 H   0  0  0  0  0  0  0  0  0  0  0  0
   -0.6498   -4.4711    1.9741 H   0  0  0  0  0  0  0  0  0  0  0  0
    1.5734   -3.6254    1.5086 H   0  0  0  0  0  0  0  0  0  0  0  0
    2.0220   -0.1574    0.0065 H   0  0  0  0  0  0  0  0  0  0  0  0
    5.3130   -0.8301    0.1806 H   0  0  0  0  0  0  0  0  0  0  0  0
    7.0218    0.0524   -0.7161 H   0  0  0  0  0  0  0  0  0  0  0  0
    8.6105    1.9647   -1.5593 H   0  0  0  0  0  0  0  0  0  0  0  0
    7.2679    4.1701   -2.0803 H   0  0  0  0  0  0  0  0  0  0  0  0
   -0.1487    0.0409    0.0277 H   0  0  0  0  0  0  0  0  0  0  0  0
   -6.3475   -1.1056   -0.7279 H   0  0  0  0  0  0  0  0  0  0  0  0
   -7.9099    0.7165   -1.3453 H   0  0  0  0  0  0  0  0  0  0  0  0
   -7.3591    3.0708   -0.7853 H   0  0  0  0  0  0  0  0  0  0  0  0
   -5.2547    3.6051    0.4127 H   0  0  0  0  0  0  0  0  0  0  0  0
   -3.6972    1.8029    1.0552 H   0  0  0  0  0  0  0  0  0  0  0  0
  1  2  2  0
  2  3  1  0
  3  4  1  0
  4  5  2  0
  5  6  1  0
  6  7  2  0
  7  8  1  0
  8  9  1  0
  9 10  1  0
 10 11  2  0
 10 12  1  0
 12 13  1  0
 13 14  2  0
 13 15  1  0
 15 16  2  0
 16 17  1  0
 17 18  2  0
 18 19  1  0
  8 20  2  0
  2 21  1  0
 21 22  2  0
 22 23  1  0
 23 24  2  0
 24 25  1  0
 25 26  2  0
 20  4  1  0
 26 21  1  0
 19 15  1  0
  3 27  1  0
  5 28  1  0
  6 29  1  0
  7 30  1  0
  9 31  1  0
 12 32  1  0
 16 33  1  0
 17 34  1  0
 18 35  1  0
 20 36  1  0
 22 37  1  0
 23 38  1  0
 24 39  1  0
 25 40  1  0
 26 41  1  0
M  END
$$$$
