
     RDKit          3D

 46 49  0  0  0  0  0  0  0  0999 V2000
   -3.5556   -1.1204   -1.9735 O   0  0  0  0  0  0  0  0  0  0  0  0
   -3.5761   -0.4493   -0.9471 C   0  0  0  0  0  0  0  0  0  0  0  0
   -2.4742   -0.1035   -0.1868 N   0  0  0  0  0  0  0  0  0  0  0  0
   -1.1238   -0.4381   -0.4237 C   0  0  0  0  0  0  0  0  0  0  0  0
   -0.6796   -1.1966   -1.5083 C   0  0  0  0  0  0  0  0  0  0  0  0
    0.6836   -1.4812   -1.6684 C   0  0  0  0  0  0  0  0  0  0  0  0
    1.6232   -1.0160   -0.7502 C   0  0  0  0  0  0  0  0  0  0  0  0
    2.9739   -1.3110   -0.9490 N   0  0  0  0  0  0  0  0  0  0  0  0
    3.8373   -0.8928   -0.0792 C   0  0  0  0  0  0  0  0  0  0  0  0
    3.5049   -0.1663    1.0463 N   0  0  0  0  0  0  0  0  0  0  0  0
    2.1855    0.2141    1.2885 C   0  0  0  0  0  0  0  0  0  0  0  0
    1.8237    0.9112    2.2340 O   0  0  0  0  0  0  0  0  0  0  0  0
    1.1780   -0.2632    0.3277 C   0  0  0  0  0  0  0  0  0  0  0  0
   -0.1821    0.0301    0.4986 C   0  0  0  0  0  0  0  0  0  0  0  0
    4.5170    0.2662    2.0083 C   0  0  0  0  0  0  0  0  0  0  0  0
    5.4185    1.3644    1.4476 C   0  0  0  0  0  0  0  0  0  0  0  0
    6.5483    0.8311    0.5686 C   0  0  0  0  0  0  0  0  0  0  0  0
    6.0838    0.0671   -0.6688 C   0  0  0  0  0  0  0  0  0  0  0  0
    5.2994   -1.1997   -0.3417 C   0  0  0  0  0  0  0  0  0  0  0  0
   -4.9065    0.0410   -0.4691 C   0  0  0  0  0  0  0  0  0  0  0  0
   -6.0493   -0.2982   -1.2163 C   0  0  0  0  0  0  0  0  0  0  0  0
   -7.3157    0.1413   -0.8020 C   0  0  0  0  0  0  0  0  0  0  0  0
   -8.5070   -0.2176   -1.5849 N   0  0  0  0  0  4  0  0  0  0  0  0
   -8.3456   -0.9166   -2.5936 O   0  0  0  0  0  0  0  0  0  0  0  0
   -9.6020    0.2022   -1.1854 O   0  0  0  0  0  1  0  0  0  0  0  0
   -7.4569    0.9202    0.3546 C   0  0  0  0  0  0  0  0  0  0  0  0
   -6.3238    1.2568    1.0954 C   0  0  0  0  0  0  0  0  0  0  0  0
   -5.0646    0.8186    0.6829 C   0  0  0  0  0  0  0  0  0  0  0  0
   -4.0072    1.1685    1.4306 F   0  0  0  0  0  0  0  0  0  0  0  0
   -2.6408    0.4574    0.6430 H   0  0  0  0  0  0  0  0  0  0  0  0
   -1.3647   -1.5852   -2.2555 H   0  0  0  0  0  0  0  0  0  0  0  0
    1.0128   -2.0708   -2.5209 H   0  0  0  0  0  0  0  0  0  0  0  0
   -0.4899    0.6236    1.3564 H   0  0  0  0  0  0  0  0  0  0  0  0
    5.1066   -0.6035    2.3194 H   0  0  0  0  0  0  0  0  0  0  0  0
    4.0317    0.6447    2.9146 H   0  0  0  0  0  0  0  0  0  0  0  0
    5.8793    1.8962    2.2893 H   0  0  0  0  0  0  0  0  0  0  0  0
    4.8260    2.1013    0.8920 H   0  0  0  0  0  0  0  0  0  0  0  0
    7.1639    1.6789    0.2436 H   0  0  0  0  0  0  0  0  0  0  0  0
    7.2035    0.1874    1.1689 H   0  0  0  0  0  0  0  0  0  0  0  0
    5.4929    0.7305   -1.3122 H   0  0  0  0  0  0  0  0  0  0  0  0
    6.9759   -0.2166   -1.2406 H   0  0  0  0  0  0  0  0  0  0  0  0
    5.3508   -1.8755   -1.2049 H   0  0  0  0  0  0  0  0  0  0  0  0
    5.7324   -1.7425    0.5045 H   0  0  0  0  0  0  0  0  0  0  0  0
   -5.9419   -0.9038   -2.1166 H   0  0  0  0  0  0  0  0  0  0  0  0
   -8.4332    1.2684    0.6882 H   0  0  0  0  0  0  0  0  0  0  0  0
   -6.4127    1.8601    1.9956 H   0  0  0  0  0  0  0  0  0  0  0  0
  1  2  2  0
  2  3  1  0
  3  4  1  0
  4  5  2  0
  5  6  1  0
  6  7  2  0
  7  8  1  0
  8  9  2  0
  9 10  1  0
 10 11  1  0
 11 12  2  0
 11 13  1  0
 13 14  2  0
 10 15  1  0
 15 16  1  0
 16 17  1  0
 17 18  1  0
 18 19  1  0
  2 20  1  0
 20 21  2  0
 21 22  1  0
 22 23  1  0
 23 24  2  0
 23 25  1  0
 22 26  2  0
 26 27  1  0
 27 28  2  0
 28 29  1  0
 14  4  1  0
 28 20  1  0
 13  7  1  0
 19  9  1  0
  3 30  1  0
  5 31  1  0
  6 32  1  0
 14 33  1  0
 15 34  1  0
 15 35  1  0
 16 36  1  0
 16 37  1  0
 17 38  1  0
 17 39  1  0
 18 40  1  0
 18 41  1  0
 19 42  1  0
 19 43  1  0
 21 44  1  0
 26 45  1  0
 27 46  1  0
M  CHG  2  23   1  25  -1
M  END
$$$$
