
     RDKit          3D

 55 57  0  0  0  0  0  0  0  0999 V2000
   -7.0744   -0.2472    3.4257 C   0  0  0  0  0  0  0  0  0  0  0  0
   -6.9988    0.3762    2.1528 O   0  0  0  0  0  0  0  0  0  0  0  0
   -6.2362   -0.2358    1.1875 C   0  0  0  0  0  0  0  0  0  0  0  0
   -5.5468   -1.4390    1.3704 C   0  0  0  0  0  0  0  0  0  0  0  0
   -4.7982   -1.9907    0.3278 C   0  0  0  0  0  0  0  0  0  0  0  0
   -4.7293   -1.3433   -0.9066 C   0  0  0  0  0  0  0  0  0  0  0  0
   -3.9567   -1.9289   -2.0021 C   0  0  0  0  0  0  0  0  0  0  0  0
   -2.6376   -1.7844   -2.1921 C   0  0  0  0  0  0  0  0  0  0  0  0
   -1.8054   -2.5283   -3.5080 S   0  0  0  0  0  0  0  0  0  0  0  0
   -0.2405   -1.8961   -3.0092 C   0  0  0  0  0  0  0  0  0  0  0  0
    1.1579   -2.2630   -3.8398 S   0  0  0  0  0  0  0  0  0  0  0  0
   -0.3935   -1.1076   -1.8889 N   0  0  0  0  0  0  0  0  0  0  0  0
    0.6987   -0.4360   -1.1791 C   0  0  0  0  0  0  0  0  0  0  0  0
    1.2378   -1.3042   -0.0344 C   0  0  0  0  0  0  0  0  0  0  0  0
    2.1229   -0.5227    0.9362 C   0  0  0  0  0  0  0  0  0  0  0  0
    3.4754   -0.1387    0.3593 C   0  0  0  0  0  0  0  0  0  0  0  0
    3.7838   -0.3997   -0.7952 O   0  0  0  0  0  0  0  0  0  0  0  0
    4.2536    0.5266    1.2921 N   0  0  0  0  0  0  0  0  0  0  0  0
    5.5767    0.9906    1.1360 C   0  0  0  0  0  0  0  0  0  0  0  0
    6.1356    1.6833    2.2194 C   0  0  0  0  0  0  0  0  0  0  0  0
    7.4423    2.1715    2.1600 C   0  0  0  0  0  0  0  0  0  0  0  0
    8.2082    1.9690    1.0136 C   0  0  0  0  0  0  0  0  0  0  0  0
    7.6644    1.2777   -0.0764 C   0  0  0  0  0  0  0  0  0  0  0  0
    8.4461    1.0387   -1.3159 C   0  0  0  0  0  0  0  0  0  0  0  0
    8.0669    0.4393   -2.3036 O   0  0  0  0  0  0  0  0  0  0  0  0
    9.6824    1.5679   -1.2616 O   0  0  0  0  0  0  0  0  0  0  0  0
    6.3493    0.7903   -0.0117 C   0  0  0  0  0  0  0  0  0  0  0  0
   -1.6727   -1.0129   -1.3598 C   0  0  0  0  0  0  0  0  0  0  0  0
   -1.9664   -0.4021   -0.3425 O   0  0  0  0  0  0  0  0  0  0  0  0
   -5.4144   -0.1383   -1.0979 C   0  0  0  0  0  0  0  0  0  0  0  0
   -6.1684    0.4211   -0.0589 C   0  0  0  0  0  0  0  0  0  0  0  0
   -6.8787    1.5928   -0.1599 O   0  0  0  0  0  0  0  0  0  0  0  0
   -6.7821    2.3211   -1.3745 C   0  0  0  0  0  0  0  0  0  0  0  0
   -7.5495   -1.2311    3.3552 H   0  0  0  0  0  0  0  0  0  0  0  0
   -7.7014    0.3782    4.0675 H   0  0  0  0  0  0  0  0  0  0  0  0
   -6.0866   -0.3157    3.8931 H   0  0  0  0  0  0  0  0  0  0  0  0
   -5.5697   -1.9736    2.3131 H   0  0  0  0  0  0  0  0  0  0  0  0
   -4.2679   -2.9258    0.4922 H   0  0  0  0  0  0  0  0  0  0  0  0
   -4.5489   -2.5280   -2.6894 H   0  0  0  0  0  0  0  0  0  0  0  0
    0.3097    0.5067   -0.7728 H   0  0  0  0  0  0  0  0  0  0  0  0
    1.4928   -0.1733   -1.8830 H   0  0  0  0  0  0  0  0  0  0  0  0
    0.3971   -1.7163    0.5373 H   0  0  0  0  0  0  0  0  0  0  0  0
    1.7819   -2.1638   -0.4441 H   0  0  0  0  0  0  0  0  0  0  0  0
    2.3075   -1.1468    1.8188 H   0  0  0  0  0  0  0  0  0  0  0  0
    1.6088    0.3863    1.2695 H   0  0  0  0  0  0  0  0  0  0  0  0
    3.8250    0.7075    2.1920 H   0  0  0  0  0  0  0  0  0  0  0  0
    5.5611    1.8568    3.1268 H   0  0  0  0  0  0  0  0  0  0  0  0
    7.8632    2.7065    3.0075 H   0  0  0  0  0  0  0  0  0  0  0  0
    9.2255    2.3519    0.9781 H   0  0  0  0  0  0  0  0  0  0  0  0
   10.0650    1.3372   -2.1347 H   0  0  0  0  0  0  0  0  0  0  0  0
    5.9574    0.2547   -0.8725 H   0  0  0  0  0  0  0  0  0  0  0  0
   -5.3468    0.3476   -2.0648 H   0  0  0  0  0  0  0  0  0  0  0  0
   -5.7499    2.6298   -1.5701 H   0  0  0  0  0  0  0  0  0  0  0  0
   -7.3854    3.2283   -1.2695 H   0  0  0  0  0  0  0  0  0  0  0  0
   -7.1908    1.7478   -2.2125 H   0  0  0  0  0  0  0  0  0  0  0  0
  1  2  1  0
  2  3  1  0
  3  4  2  0
  4  5  1  0
  5  6  2  0
  6  7  1  0
  7  8  2  3
  8  9  1  0
  9 10  1  0
 10 11  2  0
 10 12  1  0
 12 13  1  0
 13 14  1  0
 14 15  1  0
 15 16  1  0
 16 17  2  0
 16 18  1  0
 18 19  1  0
 19 20  2  0
 20 21  1  0
 21 22  2  0
 22 23  1  0
 23 24  1  0
 24 25  2  0
 24 26  1  0
 23 27  2  0
 12 28  1  0
 28 29  2  0
  6 30  1  0
 30 31  2  0
 31 32  1  0
 32 33  1  0
 31  3  1  0
 28  8  1  0
 27 19  1  0
  1 34  1  0
  1 35  1  0
  1 36  1  0
  4 37  1  0
  5 38  1  0
  7 39  1  0
 13 40  1  0
 13 41  1  0
 14 42  1  0
 14 43  1  0
 15 44  1  0
 15 45  1  0
 18 46  1  0
 20 47  1  0
 21 48  1  0
 22 49  1  0
 26 50  1  0
 27 51  1  0
 30 52  1  0
 33 53  1  0
 33 54  1  0
 33 55  1  0
M  END
$$$$
