
     RDKit          3D

 57 61  0  0  0  0  0  0  0  0999 V2000
   -3.7419    3.8370   -1.4895 C   0  0  0  0  0  0  0  0  0  0  0  0
   -4.5819    3.8465   -0.3812 C   0  0  0  0  0  0  0  0  0  0  0  0
   -4.5236    2.8067    0.5488 C   0  0  0  0  0  0  0  0  0  0  0  0
   -3.6172    1.7386    0.3970 C   0  0  0  0  0  0  0  0  0  0  0  0
   -3.6365    0.6333    1.4483 C   0  0  0  0  0  0  0  0  0  0  0  0
   -4.5754   -0.5404    1.2093 C   0  0  0  0  0  0  0  0  0  0  0  0
   -5.1466   -1.1979    2.3166 C   0  0  0  0  0  0  0  0  0  0  0  0
   -6.0103   -2.2817    2.1438 C   0  0  0  0  0  0  0  0  0  0  0  0
   -6.3168   -2.7302    0.8625 C   0  0  0  0  0  0  0  0  0  0  0  0
   -5.7565   -2.0989   -0.2451 C   0  0  0  0  0  0  0  0  0  0  0  0
   -4.8912   -1.0150   -0.0742 C   0  0  0  0  0  0  0  0  0  0  0  0
   -2.2580    0.0686    1.6377 C   0  0  0  0  0  0  0  0  0  0  0  0
   -1.5264    0.3586    2.7293 N   0  0  0  0  0  0  0  0  0  0  0  0
   -0.3558   -0.3742    2.5438 O   0  0  0  0  0  0  0  0  0  0  0  0
   -0.4884   -1.0316    1.3553 C   0  0  0  0  0  0  0  0  0  0  0  0
    0.6461   -1.9109    0.9443 C   0  0  0  0  0  0  0  0  0  0  0  0
    1.7218   -1.2070    0.2116 N   0  0  0  0  0  0  0  0  0  0  0  0
    2.4225   -0.2327    1.0666 C   0  0  0  0  0  0  0  0  0  0  0  0
    3.8617    0.0692    0.6227 C   0  0  0  0  0  0  0  0  0  0  0  0
    3.9976   -0.0324   -0.8999 C   0  0  0  0  0  0  0  0  0  0  0  0
    5.3762    0.3557   -1.3970 C   0  0  0  0  0  0  0  0  0  0  0  0
    5.5147    1.3493   -2.3716 C   0  0  0  0  0  0  0  0  0  0  0  0
    6.7863    1.6840   -2.8133 C   0  0  0  0  0  0  0  0  0  0  0  0
    7.9168    1.1035   -2.3611 N   0  0  0  0  0  0  0  0  0  0  0  0
    7.7664    0.1441   -1.4254 C   0  0  0  0  0  0  0  0  0  0  0  0
    6.5387   -0.2593   -0.9207 C   0  0  0  0  0  0  0  0  0  0  0  0
    3.5855   -1.4361   -1.3831 C   0  0  0  0  0  0  0  0  0  0  0  0
    2.6504   -2.1551   -0.4032 C   0  0  0  0  0  0  0  0  0  0  0  0
   -1.6424   -0.8087    0.7657 N   0  0  0  0  0  0  0  0  0  0  0  0
   -2.7921    1.7437   -0.7413 C   0  0  0  0  0  0  0  0  0  0  0  0
   -2.8503    2.7850   -1.6712 C   0  0  0  0  0  0  0  0  0  0  0  0
   -3.7852    4.6445   -2.2142 H   0  0  0  0  0  0  0  0  0  0  0  0
   -5.2862    4.6616   -0.2402 H   0  0  0  0  0  0  0  0  0  0  0  0
   -5.1998    2.8341    1.4014 H   0  0  0  0  0  0  0  0  0  0  0  0
   -3.9316    1.1081    2.3961 H   0  0  0  0  0  0  0  0  0  0  0  0
   -4.9164   -0.8694    3.3287 H   0  0  0  0  0  0  0  0  0  0  0  0
   -6.4415   -2.7767    3.0102 H   0  0  0  0  0  0  0  0  0  0  0  0
   -6.9881   -3.5739    0.7260 H   0  0  0  0  0  0  0  0  0  0  0  0
   -5.9890   -2.4505   -1.2467 H   0  0  0  0  0  0  0  0  0  0  0  0
   -4.4630   -0.5515   -0.9597 H   0  0  0  0  0  0  0  0  0  0  0  0
    1.0506   -2.4315    1.8217 H   0  0  0  0  0  0  0  0  0  0  0  0
    0.2172   -2.6852    0.2941 H   0  0  0  0  0  0  0  0  0  0  0  0
    2.4674   -0.5726    2.1081 H   0  0  0  0  0  0  0  0  0  0  0  0
    1.8505    0.7018    1.0597 H   0  0  0  0  0  0  0  0  0  0  0  0
    4.1503    1.0678    0.9730 H   0  0  0  0  0  0  0  0  0  0  0  0
    4.5399   -0.6408    1.1136 H   0  0  0  0  0  0  0  0  0  0  0  0
    3.2775    0.6813   -1.3246 H   0  0  0  0  0  0  0  0  0  0  0  0
    4.6509    1.8608   -2.7859 H   0  0  0  0  0  0  0  0  0  0  0  0
    6.9301    2.4521   -3.5673 H   0  0  0  0  0  0  0  0  0  0  0  0
    8.6898   -0.3113   -1.0787 H   0  0  0  0  0  0  0  0  0  0  0  0
    6.5022   -1.0435   -0.1733 H   0  0  0  0  0  0  0  0  0  0  0  0
    4.4564   -2.0799   -1.5533 H   0  0  0  0  0  0  0  0  0  0  0  0
    3.0928   -1.3351   -2.3586 H   0  0  0  0  0  0  0  0  0  0  0  0
    2.1085   -2.9244   -0.9666 H   0  0  0  0  0  0  0  0  0  0  0  0
    3.2343   -2.6797    0.3641 H   0  0  0  0  0  0  0  0  0  0  0  0
   -2.0928    0.9333   -0.9331 H   0  0  0  0  0  0  0  0  0  0  0  0
   -2.1983    2.7691   -2.5406 H   0  0  0  0  0  0  0  0  0  0  0  0
  1  2  2  0
  2  3  1  0
  3  4  2  0
  4  5  1  0
  5  6  1  0
  6  7  2  0
  7  8  1  0
  8  9  2  0
  9 10  1  0
 10 11  2  0
  5 12  1  0
 12 13  2  0
 13 14  1  0
 14 15  1  0
 15 16  1  0
 16 17  1  0
 17 18  1  0
 18 19  1  0
 19 20  1  0
 20 21  1  0
 21 22  2  0
 22 23  1  0
 23 24  2  0
 24 25  1  0
 25 26  2  0
 20 27  1  0
 27 28  1  0
 15 29  2  0
  4 30  1  0
 30 31  2  0
 31  1  1  0
 11  6  1  0
 29 12  1  0
 28 17  1  0
 26 21  1  0
  1 32  1  0
  2 33  1  0
  3 34  1  0
  5 35  1  0
  7 36  1  0
  8 37  1  0
  9 38  1  0
 10 39  1  0
 11 40  1  0
 16 41  1  0
 16 42  1  0
 18 43  1  0
 18 44  1  0
 19 45  1  0
 19 46  1  0
 20 47  1  0
 22 48  1  0
 23 49  1  0
 25 50  1  0
 26 51  1  0
 27 52  1  0
 27 53  1  0
 28 54  1  0
 28 55  1  0
 30 56  1  0
 31 57  1  0
M  END
$$$$
