
     RDKit          3D

 46 48  0  0  0  0  0  0  0  0999 V2000
    6.7312    2.3107    2.1753 C   0  0  0  0  0  0  0  0  0  0  0  0
    5.6450    1.4653    2.7662 C   0  0  0  0  0  0  0  0  0  0  0  0
    5.8345    0.4728    3.4535 O   0  0  0  0  0  0  0  0  0  0  0  0
    4.4258    1.9641    2.4171 O   0  0  0  0  0  0  0  0  0  0  0  0
    3.2912    1.2606    2.9454 C   0  0  0  0  0  0  0  0  0  0  0  0
    2.9041    0.0818    2.0572 C   0  0  0  0  0  0  0  0  0  0  0  0
    2.5728    0.5296    0.6339 C   0  0  0  0  0  0  0  0  0  0  0  0
    2.1710   -0.6041   -0.1999 N   0  0  0  0  0  0  0  0  0  0  0  0
    0.9264   -1.2448   -0.1007 C   0  0  0  0  0  0  0  0  0  0  0  0
   -0.1799   -0.6148    0.5427 C   0  0  0  0  0  0  0  0  0  0  0  0
   -1.4848   -1.1632    0.6337 C   0  0  0  0  0  0  0  0  0  0  0  0
   -2.8054   -0.3451    1.4708 S   0  0  0  0  0  0  0  0  0  0  0  0
   -3.7321    0.2691    0.0764 C   0  0  0  0  0  0  0  0  0  0  0  0
   -4.8757   -0.4065   -0.3559 C   0  0  0  0  0  0  0  0  0  0  0  0
   -5.6040    0.0684   -1.4494 C   0  0  0  0  0  0  0  0  0  0  0  0
   -5.1955    1.2232   -2.1266 C   0  0  0  0  0  0  0  0  0  0  0  0
   -5.9964    1.7527   -3.2799 C   0  0  0  0  0  0  0  0  0  0  0  0
   -4.0616    1.9104   -1.6771 C   0  0  0  0  0  0  0  0  0  0  0  0
   -3.3328    1.4350   -0.5836 C   0  0  0  0  0  0  0  0  0  0  0  0
   -1.6629   -2.4253    0.0233 C   0  0  0  0  0  0  0  0  0  0  0  0
   -2.7409   -3.2197   -0.0448 N   0  0  0  0  0  0  0  0  0  0  0  0
   -2.3552   -4.3329   -0.7633 O   0  0  0  0  0  0  0  0  0  0  0  0
   -1.0310   -4.2585   -1.1454 N   0  0  0  0  0  0  0  0  0  0  0  0
   -0.5722   -3.0868   -0.6825 C   0  0  0  0  0  0  0  0  0  0  0  0
    0.6956   -2.4804   -0.7624 C   0  0  0  0  0  0  0  0  0  0  0  0
    1.7190   -3.1674   -1.4986 N   0  0  0  0  0  4  0  0  0  0  0  0
    1.4757   -3.4830   -2.6704 O   0  0  0  0  0  0  0  0  0  0  0  0
    2.7965   -3.3571   -0.9132 O   0  0  0  0  0  1  0  0  0  0  0  0
    6.6477    2.3130    1.0852 H   0  0  0  0  0  0  0  0  0  0  0  0
    6.6640    3.3278    2.5694 H   0  0  0  0  0  0  0  0  0  0  0  0
    7.7051    1.8947    2.4491 H   0  0  0  0  0  0  0  0  0  0  0  0
    2.4653    1.9795    2.9947 H   0  0  0  0  0  0  0  0  0  0  0  0
    3.4821    0.9309    3.9737 H   0  0  0  0  0  0  0  0  0  0  0  0
    3.7277   -0.6417    2.0173 H   0  0  0  0  0  0  0  0  0  0  0  0
    2.0494   -0.4344    2.5084 H   0  0  0  0  0  0  0  0  0  0  0  0
    1.8190    1.3238    0.6215 H   0  0  0  0  0  0  0  0  0  0  0  0
    3.4684    0.9642    0.1741 H   0  0  0  0  0  0  0  0  0  0  0  0
    2.9498   -1.2591   -0.3389 H   0  0  0  0  0  0  0  0  0  0  0  0
   -0.0391    0.3595    1.0090 H   0  0  0  0  0  0  0  0  0  0  0  0
   -5.2076   -1.3107    0.1496 H   0  0  0  0  0  0  0  0  0  0  0  0
   -6.4928   -0.4719   -1.7687 H   0  0  0  0  0  0  0  0  0  0  0  0
   -6.7068    2.5066   -2.9266 H   0  0  0  0  0  0  0  0  0  0  0  0
   -6.5531    0.9491   -3.7741 H   0  0  0  0  0  0  0  0  0  0  0  0
   -5.3410    2.2045   -4.0326 H   0  0  0  0  0  0  0  0  0  0  0  0
   -3.7401    2.8226   -2.1747 H   0  0  0  0  0  0  0  0  0  0  0  0
   -2.4568    1.9872   -0.2523 H   0  0  0  0  0  0  0  0  0  0  0  0
  1  2  1  0
  2  3  2  0
  2  4  1  0
  4  5  1  0
  5  6  1  0
  6  7  1  0
  7  8  1  0
  8  9  1  0
  9 10  1  0
 10 11  2  0
 11 12  1  0
 12 13  1  0
 13 14  2  0
 14 15  1  0
 15 16  2  0
 16 17  1  0
 16 18  1  0
 18 19  2  0
 11 20  1  0
 20 21  2  0
 21 22  1  0
 22 23  1  0
 23 24  2  0
 24 25  1  0
 25 26  1  0
 26 27  2  0
 26 28  1  0
 25  9  2  0
 19 13  1  0
 24 20  1  0
  1 29  1  0
  1 30  1  0
  1 31  1  0
  5 32  1  0
  5 33  1  0
  6 34  1  0
  6 35  1  0
  7 36  1  0
  7 37  1  0
  8 38  1  0
 10 39  1  0
 14 40  1  0
 15 41  1  0
 17 42  1  0
 17 43  1  0
 17 44  1  0
 18 45  1  0
 19 46  1  0
M  CHG  2  26   1  28  -1
M  END
$$$$
