
     RDKit          3D

 63 68  0  0  0  0  0  0  0  0999 V2000
   -1.9759    3.7010    4.7840 C   0  0  0  0  0  0  0  0  0  0  0  0
   -1.6118    2.3568    4.4991 O   0  0  0  0  0  0  0  0  0  0  0  0
   -1.7301    1.9478    3.1991 C   0  0  0  0  0  0  0  0  0  0  0  0
   -2.1328    2.7379    2.1235 C   0  0  0  0  0  0  0  0  0  0  0  0
   -2.2112    2.1902    0.8375 C   0  0  0  0  0  0  0  0  0  0  0  0
   -1.8906    0.8441    0.6039 C   0  0  0  0  0  0  0  0  0  0  0  0
   -1.9845    0.2674   -0.8122 C   0  0  0  0  0  0  0  0  0  0  0  0
   -2.9418   -0.9108   -0.8680 C   0  0  0  0  0  0  0  0  0  0  0  0
   -4.3180   -0.7269   -0.6856 C   0  0  0  0  0  0  0  0  0  0  0  0
   -5.1840   -1.8204   -0.7043 C   0  0  0  0  0  0  0  0  0  0  0  0
   -4.6975   -3.1211   -0.9025 C   0  0  0  0  0  0  0  0  0  0  0  0
   -5.5722   -4.2205   -0.9153 C   0  0  0  0  0  0  0  0  0  0  0  0
   -5.0929   -5.5158   -1.1117 C   0  0  0  0  0  0  0  0  0  0  0  0
   -3.7324   -5.7295   -1.2984 C   0  0  0  0  0  0  0  0  0  0  0  0
   -2.8507   -4.6473   -1.2881 C   0  0  0  0  0  0  0  0  0  0  0  0
   -3.3103   -3.3272   -1.0904 C   0  0  0  0  0  0  0  0  0  0  0  0
   -2.4482   -2.2051   -1.0752 C   0  0  0  0  0  0  0  0  0  0  0  0
   -1.1007   -2.4375   -1.2606 O   0  0  0  0  0  0  0  0  0  0  0  0
   -0.2453   -1.3756   -1.5428 C   0  0  0  0  0  0  0  0  0  0  0  0
    1.0071   -1.7592   -1.9828 N   0  0  0  0  0  0  0  0  0  0  0  0
    1.8378   -0.8052   -2.2500 C   0  0  0  0  0  0  0  0  0  0  0  0
    1.5814    0.5458   -2.1865 N   0  0  0  0  0  0  0  0  0  0  0  0
    2.6882    1.4797   -2.4163 C   0  0  0  0  0  0  0  0  0  0  0  0
    3.3366    1.9186   -1.0841 C   0  0  0  0  0  0  0  0  0  0  0  0
    4.0635    0.8417   -0.3857 N   0  0  0  0  0  0  0  0  0  0  0  0
    5.3080    0.4556   -1.0898 C   0  0  0  0  0  0  0  0  0  0  0  0
    6.3528   -0.1450   -0.1368 C   0  0  0  0  0  0  0  0  0  0  0  0
    6.8007    0.8031    0.8404 O   0  0  0  0  0  0  0  0  0  0  0  0
    5.7776    1.7243    1.2426 C   0  0  0  0  0  0  0  0  0  0  0  0
    4.3530    1.1914    1.0238 C   0  0  0  0  0  0  0  0  0  0  0  0
    0.3274    0.9694   -1.7691 C   0  0  0  0  0  0  0  0  0  0  0  0
   -0.0808    2.2014   -1.7266 N   0  0  0  0  0  0  0  0  0  0  0  0
   -0.6375   -0.0981   -1.3613 C   0  0  0  0  0  0  0  0  0  0  0  0
   -1.4783    0.0601    1.6927 C   0  0  0  0  0  0  0  0  0  0  0  0
   -1.4019    0.6098    2.9750 C   0  0  0  0  0  0  0  0  0  0  0  0
   -1.3208    4.4059    4.2616 H   0  0  0  0  0  0  0  0  0  0  0  0
   -3.0282    3.8856    4.5439 H   0  0  0  0  0  0  0  0  0  0  0  0
   -1.8471    3.8618    5.8588 H   0  0  0  0  0  0  0  0  0  0  0  0
   -2.3880    3.7848    2.2451 H   0  0  0  0  0  0  0  0  0  0  0  0
   -2.5109    2.8297    0.0091 H   0  0  0  0  0  0  0  0  0  0  0  0
   -2.4187    1.0244   -1.4815 H   0  0  0  0  0  0  0  0  0  0  0  0
   -4.7212    0.2690   -0.5144 H   0  0  0  0  0  0  0  0  0  0  0  0
   -6.2478   -1.6481   -0.5544 H   0  0  0  0  0  0  0  0  0  0  0  0
   -6.6405   -4.0746   -0.7705 H   0  0  0  0  0  0  0  0  0  0  0  0
   -5.7823   -6.3557   -1.1185 H   0  0  0  0  0  0  0  0  0  0  0  0
   -3.3525   -6.7360   -1.4522 H   0  0  0  0  0  0  0  0  0  0  0  0
   -1.7893   -4.8392   -1.4374 H   0  0  0  0  0  0  0  0  0  0  0  0
    2.8575   -1.0601   -2.5813 H   0  0  0  0  0  0  0  0  0  0  0  0
    2.3324    2.3643   -2.9566 H   0  0  0  0  0  0  0  0  0  0  0  0
    3.4395    1.0362   -3.0815 H   0  0  0  0  0  0  0  0  0  0  0  0
    4.0053    2.7686   -1.2706 H   0  0  0  0  0  0  0  0  0  0  0  0
    2.5343    2.2935   -0.4361 H   0  0  0  0  0  0  0  0  0  0  0  0
    5.0704   -0.2738   -1.8705 H   0  0  0  0  0  0  0  0  0  0  0  0
    5.7600    1.3320   -1.5723 H   0  0  0  0  0  0  0  0  0  0  0  0
    5.9553   -1.0238    0.3844 H   0  0  0  0  0  0  0  0  0  0  0  0
    7.2318   -0.4724   -0.7013 H   0  0  0  0  0  0  0  0  0  0  0  0
    5.9283    2.6584    0.6889 H   0  0  0  0  0  0  0  0  0  0  0  0
    5.9368    1.9461    2.3029 H   0  0  0  0  0  0  0  0  0  0  0  0
    3.6200    1.8992    1.4277 H   0  0  0  0  0  0  0  0  0  0  0  0
    4.2360    0.2707    1.6093 H   0  0  0  0  0  0  0  0  0  0  0  0
    0.6352    2.8532   -2.0356 H   0  0  0  0  0  0  0  0  0  0  0  0
   -1.2155   -0.9869    1.5542 H   0  0  0  0  0  0  0  0  0  0  0  0
   -1.0844   -0.0141    3.8068 H   0  0  0  0  0  0  0  0  0  0  0  0
  1  2  1  0
  2  3  1  0
  3  4  2  0
  4  5  1  0
  5  6  2  0
  6  7  1  0
  7  8  1  0
  8  9  2  0
  9 10  1  0
 10 11  2  0
 11 12  1  0
 12 13  2  0
 13 14  1  0
 14 15  2  0
 15 16  1  0
 16 17  2  0
 17 18  1  0
 18 19  1  0
 19 20  1  0
 20 21  2  0
 21 22  1  0
 22 23  1  0
 23 24  1  0
 24 25  1  0
 25 26  1  0
 26 27  1  0
 27 28  1  0
 28 29  1  0
 29 30  1  0
 22 31  1  0
 31 32  2  3
 31 33  1  0
  6 34  1  0
 34 35  2  0
 35  3  1  0
 33  7  1  0
 17  8  1  0
 33 19  2  0
 16 11  1  0
 30 25  1  0
  1 36  1  0
  1 37  1  0
  1 38  1  0
  4 39  1  0
  5 40  1  0
  7 41  1  0
  9 42  1  0
 10 43  1  0
 12 44  1  0
 13 45  1  0
 14 46  1  0
 15 47  1  0
 21 48  1  0
 23 49  1  0
 23 50  1  0
 24 51  1  0
 24 52  1  0
 26 53  1  0
 26 54  1  0
 27 55  1  0
 27 56  1  0
 29 57  1  0
 29 58  1  0
 30 59  1  0
 30 60  1  0
 32 61  1  0
 34 62  1  0
 35 63  1  0
M  END
$$$$
