
     RDKit          3D

 40 41  0  0  0  0  0  0  0  0999 V2000
    1.4872   -0.8234    3.0003 C   0  0  0  0  0  0  0  0  0  0  0  0
    0.1942   -0.6107    2.2339 C   0  0  0  0  0  0  0  0  0  0  0  0
    0.3677   -0.0011    0.8330 C   0  0  0  0  0  0  0  0  0  0  0  0
    1.0676   -0.9401   -0.1737 C   0  0  0  0  0  0  0  0  0  0  0  0
    2.5758   -0.8520   -0.1846 C   0  0  0  0  0  0  0  0  0  0  0  0
    3.3603   -1.9817    0.0842 C   0  0  0  0  0  0  0  0  0  0  0  0
    4.7539   -1.9001    0.0598 C   0  0  0  0  0  0  0  0  0  0  0  0
    5.3776   -0.6924   -0.2463 C   0  0  0  0  0  0  0  0  0  0  0  0
    4.6086    0.4327   -0.5355 C   0  0  0  0  0  0  0  0  0  0  0  0
    3.2154    0.3525   -0.5107 C   0  0  0  0  0  0  0  0  0  0  0  0
   -0.9798    0.2706    0.3683 O   0  0  0  0  0  0  0  0  0  0  0  0
   -1.0928    1.2192   -0.5924 C   0  0  0  0  0  0  0  0  0  0  0  0
   -0.1952    1.8926   -1.0697 O   0  0  0  0  0  0  0  0  0  0  0  0
   -2.5217    1.4394   -0.8864 C   0  0  0  0  0  0  0  0  0  0  0  0
   -2.9727    2.7687   -0.8567 C   0  0  0  0  0  0  0  0  0  0  0  0
   -4.3212    3.0594   -1.0667 C   0  0  0  0  0  0  0  0  0  0  0  0
   -5.2251    2.0276   -1.3115 C   0  0  0  0  0  0  0  0  0  0  0  0
   -4.7797    0.7047   -1.3621 C   0  0  0  0  0  0  0  0  0  0  0  0
   -3.4230    0.4023   -1.1571 C   0  0  0  0  0  0  0  0  0  0  0  0
   -2.9635   -0.9937   -1.3157 C   0  0  0  0  0  0  0  0  0  0  0  0
   -1.8982   -1.3614   -1.7695 O   0  0  0  0  0  0  0  0  0  0  0  0
   -3.8894   -1.8736   -0.8931 O   0  0  0  0  0  0  0  0  0  0  0  0
    1.2659   -1.0803    4.0415 H   0  0  0  0  0  0  0  0  0  0  0  0
    2.0690   -1.6478    2.5828 H   0  0  0  0  0  0  0  0  0  0  0  0
    2.1032    0.0810    3.0000 H   0  0  0  0  0  0  0  0  0  0  0  0
   -0.4509    0.0557    2.8219 H   0  0  0  0  0  0  0  0  0  0  0  0
   -0.3566   -1.5573    2.1660 H   0  0  0  0  0  0  0  0  0  0  0  0
    0.8973    0.9537    0.9404 H   0  0  0  0  0  0  0  0  0  0  0  0
    0.7322   -0.7226   -1.1959 H   0  0  0  0  0  0  0  0  0  0  0  0
    0.7446   -1.9735    0.0078 H   0  0  0  0  0  0  0  0  0  0  0  0
    2.8909   -2.9346    0.3176 H   0  0  0  0  0  0  0  0  0  0  0  0
    5.3525   -2.7810    0.2753 H   0  0  0  0  0  0  0  0  0  0  0  0
    6.4621   -0.6299   -0.2687 H   0  0  0  0  0  0  0  0  0  0  0  0
    5.0917    1.3727   -0.7886 H   0  0  0  0  0  0  0  0  0  0  0  0
    2.6290    1.2359   -0.7598 H   0  0  0  0  0  0  0  0  0  0  0  0
   -2.2723    3.5790   -0.6598 H   0  0  0  0  0  0  0  0  0  0  0  0
   -4.6660    4.0907   -1.0372 H   0  0  0  0  0  0  0  0  0  0  0  0
   -6.2766    2.2533   -1.4757 H   0  0  0  0  0  0  0  0  0  0  0  0
   -5.4942   -0.0869   -1.5800 H   0  0  0  0  0  0  0  0  0  0  0  0
   -3.4679   -2.7476   -1.0350 H   0  0  0  0  0  0  0  0  0  0  0  0
  1  2  1  0
  2  3  1  0
  3  4  1  0
  4  5  1  0
  5  6  2  0
  6  7  1  0
  7  8  2  0
  8  9  1  0
  9 10  2  0
  3 11  1  0
 11 12  1  0
 12 13  2  0
 12 14  1  0
 14 15  2  0
 15 16  1  0
 16 17  2  0
 17 18  1  0
 18 19  2  0
 19 20  1  0
 20 21  2  0
 20 22  1  0
 10  5  1  0
 19 14  1  0
  1 23  1  0
  1 24  1  0
  1 25  1  0
  2 26  1  0
  2 27  1  0
  3 28  1  0
  4 29  1  0
  4 30  1  0
  6 31  1  0
  7 32  1  0
  8 33  1  0
  9 34  1  0
 10 35  1  0
 15 36  1  0
 16 37  1  0
 17 38  1  0
 18 39  1  0
 22 40  1  0
M  END
$$$$
