
     RDKit          3D

 32 33  0  0  0  0  0  0  0  0999 V2000
   -3.4224    0.2338    2.3965 C   0  0  0  0  0  0  0  0  0  0  0  0
   -4.0190    0.5258    1.1373 O   0  0  0  0  0  0  0  0  0  0  0  0
   -3.1878    0.5137    0.0464 C   0  0  0  0  0  0  0  0  0  0  0  0
   -1.8204    0.2330    0.0537 C   0  0  0  0  0  0  0  0  0  0  0  0
   -1.0794    0.2644   -1.1414 C   0  0  0  0  0  0  0  0  0  0  0  0
    0.3524   -0.0637   -1.0847 C   0  0  0  0  0  0  0  0  0  0  0  0
    1.2906    0.5927   -1.7839 C   0  0  0  0  0  0  0  0  0  0  0  0
    2.7584    0.3114   -1.7603 C   0  0  0  0  0  0  0  0  0  0  0  0
    3.3975    0.6398   -2.7616 O   0  0  0  0  0  0  0  0  0  0  0  0
    3.4011   -0.2949   -0.6081 C   0  0  0  0  0  0  0  0  0  0  0  0
    4.7011   -0.7557   -0.4518 C   0  0  0  0  0  0  0  0  0  0  0  0
    4.8262   -1.2251    0.8812 C   0  0  0  0  0  0  0  0  0  0  0  0
    3.5964   -1.0119    1.4533 C   0  0  0  0  0  0  0  0  0  0  0  0
    3.0920   -1.2750    2.7638 N   0  0  0  0  0  4  0  0  0  0  0  0
    3.8963   -1.7487    3.5769 O   0  0  0  0  0  0  0  0  0  0  0  0
    1.9003   -1.0201    2.9834 O   0  0  0  0  0  1  0  0  0  0  0  0
    2.7276   -0.4434    0.5773 O   0  0  0  0  0  0  0  0  0  0  0  0
   -1.7298    0.5556   -2.3490 C   0  0  0  0  0  0  0  0  0  0  0  0
   -3.0960    0.8359   -2.3634 C   0  0  0  0  0  0  0  0  0  0  0  0
   -3.8070    0.8142   -1.1713 C   0  0  0  0  0  0  0  0  0  0  0  0
   -5.1462    1.0924   -1.2130 O   0  0  0  0  0  0  0  0  0  0  0  0
   -3.0120   -0.7812    2.4123 H   0  0  0  0  0  0  0  0  0  0  0  0
   -4.2069    0.2875    3.1574 H   0  0  0  0  0  0  0  0  0  0  0  0
   -2.6586    0.9754    2.6526 H   0  0  0  0  0  0  0  0  0  0  0  0
   -1.3040   -0.0047    0.9790 H   0  0  0  0  0  0  0  0  0  0  0  0
    0.6038   -0.8804   -0.4142 H   0  0  0  0  0  0  0  0  0  0  0  0
    1.0250    1.3880   -2.4747 H   0  0  0  0  0  0  0  0  0  0  0  0
    5.4619   -0.7445   -1.2228 H   0  0  0  0  0  0  0  0  0  0  0  0
    5.6959   -1.6567    1.3582 H   0  0  0  0  0  0  0  0  0  0  0  0
   -1.1870    0.5568   -3.2911 H   0  0  0  0  0  0  0  0  0  0  0  0
   -3.6037    1.0639   -3.2958 H   0  0  0  0  0  0  0  0  0  0  0  0
   -5.4465    1.0218   -0.2858 H   0  0  0  0  0  0  0  0  0  0  0  0
  1  2  1  0
  2  3  1  0
  3  4  2  0
  4  5  1  0
  5  6  1  0
  6  7  2  3
  7  8  1  0
  8  9  2  0
  8 10  1  0
 10 11  2  0
 11 12  1  0
 12 13  2  0
 13 14  1  0
 14 15  2  0
 14 16  1  0
 13 17  1  0
  5 18  2  0
 18 19  1  0
 19 20  2  0
 20 21  1  0
 20  3  1  0
 17 10  1  0
  1 22  1  0
  1 23  1  0
  1 24  1  0
  4 25  1  0
  6 26  1  0
  7 27  1  0
 11 28  1  0
 12 29  1  0
 18 30  1  0
 19 31  1  0
 21 32  1  0
M  CHG  2  14   1  16  -1
M  END
$$$$
