
     RDKit          3D

 52 55  0  0  0  0  0  0  0  0999 V2000
   -3.2723    0.4973   -2.3100 C   0  0  0  0  0  0  0  0  0  0  0  0
   -3.2960    1.0421   -0.9078 C   0  0  0  0  0  0  0  0  0  0  0  0
   -2.6290    2.2591   -0.6679 C   0  0  0  0  0  0  0  0  0  0  0  0
   -2.6055    2.8367    0.6036 C   0  0  0  0  0  0  0  0  0  0  0  0
   -3.2585    2.1986    1.6605 C   0  0  0  0  0  0  0  0  0  0  0  0
   -3.2220    2.7931    3.0014 N   0  0  0  0  0  4  0  0  0  0  0  0
   -2.7883    3.9489    3.1075 O   0  0  0  0  0  0  0  0  0  0  0  0
   -3.6147    2.0972    3.9481 O   0  0  0  0  0  1  0  0  0  0  0  0
   -3.9362    0.9929    1.4528 C   0  0  0  0  0  0  0  0  0  0  0  0
   -3.9523    0.4134    0.1708 C   0  0  0  0  0  0  0  0  0  0  0  0
   -4.8577   -1.1226    0.0139 S   0  0  0  0  0  6  0  0  0  0  0  0
   -5.0650   -1.4585   -1.3759 O   0  0  0  0  0  0  0  0  0  0  0  0
   -5.9856   -1.0391    0.9194 O   0  0  0  0  0  0  0  0  0  0  0  0
   -3.7935   -2.2430    0.7111 N   0  0  0  0  0  0  0  0  0  0  0  0
   -2.6514   -2.6268   -0.0436 C   0  0  0  0  0  0  0  0  0  0  0  0
   -2.7478   -3.6102   -1.0224 C   0  0  0  0  0  0  0  0  0  0  0  0
   -1.6297   -3.9222   -1.7909 C   0  0  0  0  0  0  0  0  0  0  0  0
   -0.4228   -3.2494   -1.5760 C   0  0  0  0  0  0  0  0  0  0  0  0
   -0.3004   -2.2579   -0.5844 C   0  0  0  0  0  0  0  0  0  0  0  0
    0.9746   -1.5537   -0.3729 C   0  0  0  0  0  0  0  0  0  0  0  0
    1.4313   -1.1350    0.8668 C   0  0  0  0  0  0  0  0  0  0  0  0
    2.6538   -0.4628    0.9586 C   0  0  0  0  0  0  0  0  0  0  0  0
    3.4058   -0.2064   -0.1797 C   0  0  0  0  0  0  0  0  0  0  0  0
    4.6183    0.4444   -0.1218 N   0  0  0  0  0  0  0  0  0  0  0  0
    4.9661    1.3978    0.9259 C   0  0  0  0  0  0  0  0  0  0  0  0
    5.9271    2.3738    0.2441 C   0  0  0  0  0  0  0  0  0  0  0  0
    6.5155    1.5614   -0.8988 C   0  0  0  0  0  0  0  0  0  0  0  0
    5.3215    0.7354   -1.3665 C   0  0  0  0  0  0  0  0  0  0  0  0
    2.9346   -0.6501   -1.3642 N   0  0  0  0  0  0  0  0  0  0  0  0
    1.7224   -1.3182   -1.4680 N   0  0  0  0  0  0  0  0  0  0  0  0
   -1.4442   -1.9584    0.1760 C   0  0  0  0  0  0  0  0  0  0  0  0
   -4.2717    0.5415   -2.7535 H   0  0  0  0  0  0  0  0  0  0  0  0
   -2.8879   -0.5260   -2.3268 H   0  0  0  0  0  0  0  0  0  0  0  0
   -2.6087    1.0853   -2.9543 H   0  0  0  0  0  0  0  0  0  0  0  0
   -2.1147    2.7720   -1.4820 H   0  0  0  0  0  0  0  0  0  0  0  0
   -2.0761    3.7769    0.7483 H   0  0  0  0  0  0  0  0  0  0  0  0
   -4.4515    0.4996    2.2766 H   0  0  0  0  0  0  0  0  0  0  0  0
   -4.3205   -2.9897    1.1653 H   0  0  0  0  0  0  0  0  0  0  0  0
   -3.6898   -4.1167   -1.2142 H   0  0  0  0  0  0  0  0  0  0  0  0
   -1.6959   -4.6799   -2.5678 H   0  0  0  0  0  0  0  0  0  0  0  0
    0.4368   -3.5060   -2.1958 H   0  0  0  0  0  0  0  0  0  0  0  0
    0.8693   -1.3386    1.7719 H   0  0  0  0  0  0  0  0  0  0  0  0
    3.0128   -0.1626    1.9370 H   0  0  0  0  0  0  0  0  0  0  0  0
    5.4652    0.8747    1.7493 H   0  0  0  0  0  0  0  0  0  0  0  0
    4.1010    1.9429    1.3209 H   0  0  0  0  0  0  0  0  0  0  0  0
    6.6881    2.7580    0.9296 H   0  0  0  0  0  0  0  0  0  0  0  0
    5.3676    3.2281   -0.1567 H   0  0  0  0  0  0  0  0  0  0  0  0
    7.3081    0.9038   -0.5216 H   0  0  0  0  0  0  0  0  0  0  0  0
    6.9321    2.1854   -1.6941 H   0  0  0  0  0  0  0  0  0  0  0  0
    5.6479   -0.1739   -1.8822 H   0  0  0  0  0  0  0  0  0  0  0  0
    4.6947    1.3318   -2.0415 H   0  0  0  0  0  0  0  0  0  0  0  0
   -1.4050   -1.1841    0.9379 H   0  0  0  0  0  0  0  0  0  0  0  0
  1  2  1  0
  2  3  2  0
  3  4  1  0
  4  5  2  0
  5  6  1  0
  6  7  2  0
  6  8  1  0
  5  9  1  0
  9 10  2  0
 10 11  1  0
 11 12  2  0
 11 13  2  0
 11 14  1  0
 14 15  1  0
 15 16  2  0
 16 17  1  0
 17 18  2  0
 18 19  1  0
 19 20  1  0
 20 21  2  0
 21 22  1  0
 22 23  2  0
 23 24  1  0
 24 25  1  0
 25 26  1  0
 26 27  1  0
 27 28  1  0
 23 29  1  0
 29 30  2  0
 19 31  2  0
 10  2  1  0
 31 15  1  0
 30 20  1  0
 28 24  1  0
  1 32  1  0
  1 33  1  0
  1 34  1  0
  3 35  1  0
  4 36  1  0
  9 37  1  0
 14 38  1  0
 16 39  1  0
 17 40  1  0
 18 41  1  0
 21 42  1  0
 22 43  1  0
 25 44  1  0
 25 45  1  0
 26 46  1  0
 26 47  1  0
 27 48  1  0
 27 49  1  0
 28 50  1  0
 28 51  1  0
 31 52  1  0
M  CHG  2   6   1   8  -1
M  END
$$$$
