
     RDKit          3D

 42 44  0  0  0  0  0  0  0  0999 V2000
    1.7199    4.3765   -0.5181 C   0  0  0  0  0  0  0  0  0  0  0  0
    0.0171    3.9846   -0.0389 S   0  0  0  0  0  0  0  0  0  0  0  0
    0.0799    2.1923   -0.0216 C   0  0  0  0  0  0  0  0  0  0  0  0
    1.3055    1.6485    0.1094 N   0  0  0  0  0  0  0  0  0  0  0  0
    1.3750    0.3121    0.2051 C   0  0  0  0  0  0  0  0  0  0  0  0
    2.7090   -0.3037    0.3560 C   0  0  0  0  0  0  0  0  0  0  0  0
    2.8718   -1.7020    0.4139 C   0  0  0  0  0  0  0  0  0  0  0  0
    4.1342   -2.2877    0.5562 C   0  0  0  0  0  0  0  0  0  0  0  0
    5.2679   -1.4861    0.6444 C   0  0  0  0  0  0  0  0  0  0  0  0
    5.1403   -0.1018    0.5904 C   0  0  0  0  0  0  0  0  0  0  0  0
    3.8762    0.4801    0.4478 C   0  0  0  0  0  0  0  0  0  0  0  0
    0.3044   -0.5027    0.1790 N   0  0  0  0  0  0  0  0  0  0  0  0
   -0.9195    0.0389    0.0231 C   0  0  0  0  0  0  0  0  0  0  0  0
   -2.0212   -0.8289   -0.0016 N   0  0  0  0  0  0  0  0  0  0  0  0
   -1.7694   -2.1862    0.5248 C   0  0  0  0  0  0  0  0  0  0  0  0
   -3.0401   -3.0327    0.3584 C   0  0  0  0  0  0  0  0  0  0  0  0
   -3.4397   -3.2076   -1.0103 O   0  0  0  0  0  0  0  0  0  0  0  0
   -2.8999   -2.2128   -1.8915 C   0  0  0  0  0  0  0  0  0  0  0  0
   -2.8123   -0.8122   -1.2605 C   0  0  0  0  0  0  0  0  0  0  0  0
   -1.0660    1.4181   -0.0670 C   0  0  0  0  0  0  0  0  0  0  0  0
   -2.3972    2.0292   -0.1290 C   0  0  0  0  0  0  0  0  0  0  0  0
   -3.1629    2.1439    1.1605 C   0  0  0  0  0  0  0  0  0  0  0  0
   -2.8457    2.3964   -1.2110 O   0  0  0  0  0  0  0  0  0  0  0  0
    1.9796    3.8882   -1.4615 H   0  0  0  0  0  0  0  0  0  0  0  0
    2.4236    4.0722    0.2615 H   0  0  0  0  0  0  0  0  0  0  0  0
    1.8095    5.4577   -0.6547 H   0  0  0  0  0  0  0  0  0  0  0  0
    2.0030   -2.3549    0.3458 H   0  0  0  0  0  0  0  0  0  0  0  0
    4.2279   -3.3699    0.5970 H   0  0  0  0  0  0  0  0  0  0  0  0
    6.2494   -1.9396    0.7549 H   0  0  0  0  0  0  0  0  0  0  0  0
    6.0226    0.5294    0.6591 H   0  0  0  0  0  0  0  0  0  0  0  0
    3.8082    1.5662    0.4097 H   0  0  0  0  0  0  0  0  0  0  0  0
   -1.5079   -2.1303    1.5879 H   0  0  0  0  0  0  0  0  0  0  0  0
   -0.9467   -2.6718   -0.0157 H   0  0  0  0  0  0  0  0  0  0  0  0
   -2.8907   -4.0290    0.7864 H   0  0  0  0  0  0  0  0  0  0  0  0
   -3.8800   -2.5686    0.8883 H   0  0  0  0  0  0  0  0  0  0  0  0
   -3.5374   -2.1822   -2.7810 H   0  0  0  0  0  0  0  0  0  0  0  0
   -1.9086   -2.5505   -2.2164 H   0  0  0  0  0  0  0  0  0  0  0  0
   -3.8232   -0.4721   -1.0075 H   0  0  0  0  0  0  0  0  0  0  0  0
   -2.3963   -0.1272   -2.0082 H   0  0  0  0  0  0  0  0  0  0  0  0
   -4.0465    1.5023    1.1132 H   0  0  0  0  0  0  0  0  0  0  0  0
   -2.5515    1.8391    2.0146 H   0  0  0  0  0  0  0  0  0  0  0  0
   -3.4625    3.1850    1.3071 H   0  0  0  0  0  0  0  0  0  0  0  0
  1  2  1  0
  2  3  1  0
  3  4  2  0
  4  5  1  0
  5  6  1  0
  6  7  2  0
  7  8  1  0
  8  9  2  0
  9 10  1  0
 10 11  2  0
  5 12  2  0
 12 13  1  0
 13 14  1  0
 14 15  1  0
 15 16  1  0
 16 17  1  0
 17 18  1  0
 18 19  1  0
 13 20  2  0
 20 21  1  0
 21 22  1  0
 21 23  2  0
 20  3  1  0
 11  6  1  0
 19 14  1  0
  1 24  1  0
  1 25  1  0
  1 26  1  0
  7 27  1  0
  8 28  1  0
  9 29  1  0
 10 30  1  0
 11 31  1  0
 15 32  1  0
 15 33  1  0
 16 34  1  0
 16 35  1  0
 18 36  1  0
 18 37  1  0
 19 38  1  0
 19 39  1  0
 22 40  1  0
 22 41  1  0
 22 42  1  0
M  END
$$$$
