
     RDKit          3D

 46 50  0  0  0  0  0  0  0  0999 V2000
   -7.9420    0.3622    0.8193 C   0  0  0  0  0  0  0  0  0  0  0  0
   -6.4552    0.5366    0.6528 C   0  0  0  0  0  0  0  0  0  0  0  0
   -5.9352    1.8433    0.5546 C   0  0  0  0  0  0  0  0  0  0  0  0
   -4.5546    2.0309    0.3995 C   0  0  0  0  0  0  0  0  0  0  0  0
   -3.8383    3.2064    0.2854 N   0  0  0  0  0  0  0  0  0  0  0  0
   -2.6070    2.7961    0.1660 C   0  0  0  0  0  0  0  0  0  0  0  0
   -1.1142    3.6243   -0.0143 S   0  0  0  0  0  0  0  0  0  0  0  0
   -0.2566    2.0804   -0.0779 C   0  0  0  0  0  0  0  0  0  0  0  0
    1.0774    2.0596   -0.2110 C   0  0  0  0  0  0  0  0  0  0  0  0
    1.9051    0.9083   -0.2842 C   0  0  0  0  0  0  0  0  0  0  0  0
    1.7497   -0.3115   -0.9286 C   0  0  0  0  0  0  0  0  0  0  0  0
    2.9159   -1.0818   -0.7007 C   0  0  0  0  0  0  0  0  0  0  0  0
    3.7603   -0.2961    0.0483 C   0  0  0  0  0  0  0  0  0  0  0  0
    5.0913   -0.4619    0.6267 C   0  0  0  0  0  0  0  0  0  0  0  0
    5.3243    0.0587    1.9160 C   0  0  0  0  0  0  0  0  0  0  0  0
    6.5525   -0.1073    2.5613 C   0  0  0  0  0  0  0  0  0  0  0  0
    7.5790   -0.8000    1.9310 C   0  0  0  0  0  0  0  0  0  0  0  0
    7.3781   -1.3175    0.6524 C   0  0  0  0  0  0  0  0  0  0  0  0
    6.1433   -1.1511   -0.0050 C   0  0  0  0  0  0  0  0  0  0  0  0
    6.0321   -1.6627   -1.3913 C   0  0  0  0  0  0  0  0  0  0  0  0
    5.4780   -1.1351   -2.3348 O   0  0  0  0  0  0  0  0  0  0  0  0
    6.6406   -2.8575   -1.5219 O   0  0  0  0  0  0  0  0  0  0  0  0
    3.1539    0.8998    0.2985 O   0  0  0  0  0  0  0  0  0  0  0  0
   -1.2002    0.9263    0.0702 C   0  0  0  0  0  0  0  0  0  0  0  0
   -1.0004   -0.2719    0.1025 O   0  0  0  0  0  0  0  0  0  0  0  0
   -2.4700    1.4500    0.1913 N   0  0  0  0  0  0  0  0  0  0  0  0
   -3.7218    0.9101    0.3452 C   0  0  0  0  0  0  0  0  0  0  0  0
   -4.2005   -0.4001    0.4394 C   0  0  0  0  0  0  0  0  0  0  0  0
   -5.5889   -0.5783    0.5953 C   0  0  0  0  0  0  0  0  0  0  0  0
   -6.1256   -1.9833    0.6994 C   0  0  0  0  0  0  0  0  0  0  0  0
   -8.4600    1.3269    0.8430 H   0  0  0  0  0  0  0  0  0  0  0  0
   -8.1614   -0.1521    1.7603 H   0  0  0  0  0  0  0  0  0  0  0  0
   -8.3536   -0.2114   -0.0171 H   0  0  0  0  0  0  0  0  0  0  0  0
   -6.5826    2.7136    0.5969 H   0  0  0  0  0  0  0  0  0  0  0  0
    1.6204    3.0025   -0.2353 H   0  0  0  0  0  0  0  0  0  0  0  0
    0.8916   -0.6200   -1.5099 H   0  0  0  0  0  0  0  0  0  0  0  0
    3.1122   -2.0834   -1.0556 H   0  0  0  0  0  0  0  0  0  0  0  0
    4.5310    0.5939    2.4370 H   0  0  0  0  0  0  0  0  0  0  0  0
    6.7010    0.3026    3.5575 H   0  0  0  0  0  0  0  0  0  0  0  0
    8.5363   -0.9317    2.4291 H   0  0  0  0  0  0  0  0  0  0  0  0
    8.1951   -1.8425    0.1613 H   0  0  0  0  0  0  0  0  0  0  0  0
    6.4997   -3.0906   -2.4636 H   0  0  0  0  0  0  0  0  0  0  0  0
   -3.5210   -1.2476    0.3941 H   0  0  0  0  0  0  0  0  0  0  0  0
   -6.6319   -2.1265    1.6592 H   0  0  0  0  0  0  0  0  0  0  0  0
   -5.3232   -2.7262    0.6366 H   0  0  0  0  0  0  0  0  0  0  0  0
   -6.8248   -2.1845   -0.1183 H   0  0  0  0  0  0  0  0  0  0  0  0
  1  2  1  0
  2  3  2  0
  3  4  1  0
  4  5  1  0
  5  6  2  0
  6  7  1  0
  7  8  1  0
  8  9  2  3
  9 10  1  0
 10 11  2  0
 11 12  1  0
 12 13  2  0
 13 14  1  0
 14 15  2  0
 15 16  1  0
 16 17  2  0
 17 18  1  0
 18 19  2  0
 19 20  1  0
 20 21  2  0
 20 22  1  0
 13 23  1  0
  8 24  1  0
 24 25  2  0
 24 26  1  0
 26 27  1  0
 27 28  1  0
 28 29  2  0
 29 30  1  0
 29  2  1  0
 27  4  2  0
 26  6  1  0
 23 10  1  0
 19 14  1  0
  1 31  1  0
  1 32  1  0
  1 33  1  0
  3 34  1  0
  9 35  1  0
 11 36  1  0
 12 37  1  0
 15 38  1  0
 16 39  1  0
 17 40  1  0
 18 41  1  0
 22 42  1  0
 28 43  1  0
 30 44  1  0
 30 45  1  0
 30 46  1  0
M  END
$$$$
