
     RDKit          3D

 55 59  0  0  0  0  0  0  0  0999 V2000
    4.2313   -2.4485    0.3551 C   0  0  0  0  0  0  0  0  0  0  0  0
    3.9675   -1.0654    0.0419 N   0  0  0  0  0  0  0  0  0  0  0  0
    2.8090   -0.5762   -0.5222 C   0  0  0  0  0  0  0  0  0  0  0  0
    1.7343   -1.3834   -0.7610 N   0  0  0  0  0  0  0  0  0  0  0  0
    0.8779   -1.5938    0.4350 C   0  0  0  0  0  0  0  0  0  0  0  0
   -0.5830   -1.9235    0.0581 C   0  0  0  0  0  0  0  0  0  0  0  0
   -1.2798   -0.8940   -0.7581 N   0  0  0  0  0  0  0  0  0  0  0  0
   -2.0603    0.0687    0.0764 C   0  0  0  0  0  0  0  0  0  0  0  0
   -2.6760    1.2152   -0.7409 C   0  0  0  0  0  0  0  0  0  0  0  0
   -2.3772    2.5492   -0.4160 C   0  0  0  0  0  0  0  0  0  0  0  0
   -2.9283    3.6022   -1.1511 C   0  0  0  0  0  0  0  0  0  0  0  0
   -3.7884    3.3394   -2.2156 C   0  0  0  0  0  0  0  0  0  0  0  0
   -4.0989    2.0229   -2.5489 C   0  0  0  0  0  0  0  0  0  0  0  0
   -3.5457    0.9685   -1.8181 C   0  0  0  0  0  0  0  0  0  0  0  0
   -3.1605   -0.5966    0.9198 C   0  0  0  0  0  0  0  0  0  0  0  0
   -3.9270   -1.6702    0.4323 C   0  0  0  0  0  0  0  0  0  0  0  0
   -4.9406   -2.2362    1.2086 C   0  0  0  0  0  0  0  0  0  0  0  0
   -5.2086   -1.7340    2.4804 C   0  0  0  0  0  0  0  0  0  0  0  0
   -4.4660   -0.6641    2.9767 C   0  0  0  0  0  0  0  0  0  0  0  0
   -3.4518   -0.0974    2.2014 C   0  0  0  0  0  0  0  0  0  0  0  0
   -0.2870   -0.1762   -1.6101 C   0  0  0  0  0  0  0  0  0  0  0  0
    0.9519   -1.0216   -1.9703 C   0  0  0  0  0  0  0  0  0  0  0  0
    2.9139    0.7091   -0.7734 N   0  0  0  0  0  0  0  0  0  0  0  0
    4.1528    1.0771   -0.3131 C   0  0  0  0  0  0  0  0  0  0  0  0
    4.7622    2.3409   -0.3111 C   0  0  0  0  0  0  0  0  0  0  0  0
    6.0493    2.4704    0.2222 C   0  0  0  0  0  0  0  0  0  0  0  0
    6.7185    1.3617    0.7410 C   0  0  0  0  0  0  0  0  0  0  0  0
    6.1277    0.0926    0.7471 C   0  0  0  0  0  0  0  0  0  0  0  0
    4.8394   -0.0151    0.2101 C   0  0  0  0  0  0  0  0  0  0  0  0
    3.8441   -3.0843   -0.4464 H   0  0  0  0  0  0  0  0  0  0  0  0
    5.3090   -2.6083    0.4416 H   0  0  0  0  0  0  0  0  0  0  0  0
    3.7450   -2.6830    1.3052 H   0  0  0  0  0  0  0  0  0  0  0  0
    1.2880   -2.4259    1.0176 H   0  0  0  0  0  0  0  0  0  0  0  0
    0.8837   -0.7052    1.0811 H   0  0  0  0  0  0  0  0  0  0  0  0
   -1.1304   -2.1723    0.9721 H   0  0  0  0  0  0  0  0  0  0  0  0
   -0.5836   -2.8495   -0.5322 H   0  0  0  0  0  0  0  0  0  0  0  0
   -1.3452    0.5121    0.7865 H   0  0  0  0  0  0  0  0  0  0  0  0
   -1.7048    2.7761    0.4075 H   0  0  0  0  0  0  0  0  0  0  0  0
   -2.6841    4.6296   -0.8938 H   0  0  0  0  0  0  0  0  0  0  0  0
   -4.2160    4.1602   -2.7869 H   0  0  0  0  0  0  0  0  0  0  0  0
   -4.7682    1.8158   -3.3797 H   0  0  0  0  0  0  0  0  0  0  0  0
   -3.7891   -0.0531   -2.0972 H   0  0  0  0  0  0  0  0  0  0  0  0
   -3.7338   -2.0696   -0.5620 H   0  0  0  0  0  0  0  0  0  0  0  0
   -5.5252   -3.0646    0.8149 H   0  0  0  0  0  0  0  0  0  0  0  0
   -6.0028   -2.1697    3.0811 H   0  0  0  0  0  0  0  0  0  0  0  0
   -4.6831   -0.2634    3.9638 H   0  0  0  0  0  0  0  0  0  0  0  0
   -2.8968    0.7478    2.5984 H   0  0  0  0  0  0  0  0  0  0  0  0
   -0.7789    0.1235   -2.5420 H   0  0  0  0  0  0  0  0  0  0  0  0
    0.0682    0.7356   -1.1131 H   0  0  0  0  0  0  0  0  0  0  0  0
    0.6358   -1.9494   -2.4651 H   0  0  0  0  0  0  0  0  0  0  0  0
    1.5704   -0.4887   -2.7051 H   0  0  0  0  0  0  0  0  0  0  0  0
    4.2358    3.1968   -0.7162 H   0  0  0  0  0  0  0  0  0  0  0  0
    6.5308    3.4452    0.2287 H   0  0  0  0  0  0  0  0  0  0  0  0
    7.7193    1.4859    1.1474 H   0  0  0  0  0  0  0  0  0  0  0  0
    6.6555   -0.7632    1.1508 H   0  0  0  0  0  0  0  0  0  0  0  0
  1  2  1  0
  2  3  1  0
  3  4  1  0
  4  5  1  0
  5  6  1  0
  6  7  1  0
  7  8  1  0
  8  9  1  0
  9 10  2  0
 10 11  1  0
 11 12  2  0
 12 13  1  0
 13 14  2  0
  8 15  1  0
 15 16  2  0
 16 17  1  0
 17 18  2  0
 18 19  1  0
 19 20  2  0
  7 21  1  0
 21 22  1  0
  3 23  2  0
 23 24  1  0
 24 25  2  0
 25 26  1  0
 26 27  2  0
 27 28  1  0
 28 29  2  0
 29  2  1  0
 22  4  1  0
 29 24  1  0
 14  9  1  0
 20 15  1  0
  1 30  1  0
  1 31  1  0
  1 32  1  0
  5 33  1  0
  5 34  1  0
  6 35  1  0
  6 36  1  0
  8 37  1  0
 10 38  1  0
 11 39  1  0
 12 40  1  0
 13 41  1  0
 14 42  1  0
 16 43  1  0
 17 44  1  0
 18 45  1  0
 19 46  1  0
 20 47  1  0
 21 48  1  0
 21 49  1  0
 22 50  1  0
 22 51  1  0
 25 52  1  0
 26 53  1  0
 27 54  1  0
 28 55  1  0
M  END
$$$$
