
     RDKit          3D

 57 61  0  0  0  0  0  0  0  0999 V2000
   -4.4540    2.7424    2.2455 C   0  0  0  0  0  0  0  0  0  0  0  0
   -5.4123    2.6323    1.1178 N   0  0  0  0  0  0  0  0  0  0  0  0
   -6.5224    3.6014    1.2646 C   0  0  0  0  0  0  0  0  0  0  0  0
   -4.7063    2.6591   -0.4447 S   0  0  0  0  0  6  0  0  0  0  0  0
   -3.8173    3.7994   -0.5174 O   0  0  0  0  0  0  0  0  0  0  0  0
   -5.7654    2.4786   -1.4175 O   0  0  0  0  0  0  0  0  0  0  0  0
   -3.7260    1.1781   -0.4581 C   0  0  0  0  0  0  0  0  0  0  0  0
   -4.3281   -0.0357   -0.7789 C   0  0  0  0  0  0  0  0  0  0  0  0
   -3.5624   -1.2093   -0.7989 C   0  0  0  0  0  0  0  0  0  0  0  0
   -2.1883   -1.2168   -0.4892 C   0  0  0  0  0  0  0  0  0  0  0  0
   -1.4552   -2.4050   -0.4346 N   0  0  0  0  0  0  0  0  0  0  0  0
   -2.0035   -3.6878   -0.9055 C   0  0  0  0  0  0  0  0  0  0  0  0
   -1.0666   -4.7243   -0.2941 C   0  0  0  0  0  0  0  0  0  0  0  0
   -0.8017   -4.1348    1.0817 C   0  0  0  0  0  0  0  0  0  0  0  0
   -0.6500   -2.6427    0.7929 C   0  0  0  0  0  0  0  0  0  0  0  0
   -1.6027    0.0523   -0.2430 C   0  0  0  0  0  0  0  0  0  0  0  0
   -0.1389    0.2329   -0.0710 C   0  0  0  0  0  0  0  0  0  0  0  0
    0.2518    0.8151    0.9372 O   0  0  0  0  0  0  0  0  0  0  0  0
    0.5993   -0.2803   -1.1132 N   0  0  0  0  0  0  0  0  0  0  0  0
    1.9605   -0.1936   -1.1591 C   0  0  0  0  0  0  0  0  0  0  0  0
    2.7726    0.4075   -0.3342 N   0  0  0  0  0  0  0  0  0  0  0  0
    4.0855    0.2505   -0.7683 C   0  0  0  0  0  0  0  0  0  0  0  0
    4.2309   -0.4984   -1.9421 C   0  0  0  0  0  0  0  0  0  0  0  0
    5.4918   -0.7651   -2.5108 C   0  0  0  0  0  0  0  0  0  0  0  0
    6.6287   -0.2472   -1.8797 C   0  0  0  0  0  0  0  0  0  0  0  0
    6.5298    0.5174   -0.7086 C   0  0  0  0  0  0  0  0  0  0  0  0
    7.6667    1.0488   -0.0716 C   0  0  0  0  0  0  0  0  0  0  0  0
    7.5380    1.8154    1.0974 C   0  0  0  0  0  0  0  0  0  0  0  0
    6.2804    2.0591    1.6484 C   0  0  0  0  0  0  0  0  0  0  0  0
    5.1391    1.5441    1.0333 C   0  0  0  0  0  0  0  0  0  0  0  0
    5.2539    0.7713   -0.1443 C   0  0  0  0  0  0  0  0  0  0  0  0
    2.6687   -0.9873   -2.4918 S   0  0  0  0  0  0  0  0  0  0  0  0
   -2.3582    1.2380   -0.2168 C   0  0  0  0  0  0  0  0  0  0  0  0
   -4.9995    2.7506    3.1950 H   0  0  0  0  0  0  0  0  0  0  0  0
   -3.8722    3.6710    2.1810 H   0  0  0  0  0  0  0  0  0  0  0  0
   -3.7820    1.8803    2.2759 H   0  0  0  0  0  0  0  0  0  0  0  0
   -7.0742    3.3849    2.1849 H   0  0  0  0  0  0  0  0  0  0  0  0
   -6.1510    4.6281    1.3089 H   0  0  0  0  0  0  0  0  0  0  0  0
   -7.2386    3.5072    0.4427 H   0  0  0  0  0  0  0  0  0  0  0  0
   -5.3920   -0.0816   -1.0071 H   0  0  0  0  0  0  0  0  0  0  0  0
   -4.0872   -2.1268   -1.0430 H   0  0  0  0  0  0  0  0  0  0  0  0
   -3.0191   -3.8697   -0.5254 H   0  0  0  0  0  0  0  0  0  0  0  0
   -2.0076   -3.7438   -2.0029 H   0  0  0  0  0  0  0  0  0  0  0  0
   -1.5175   -5.7220   -0.2501 H   0  0  0  0  0  0  0  0  0  0  0  0
   -0.1343   -4.7875   -0.8687 H   0  0  0  0  0  0  0  0  0  0  0  0
   -1.6660   -4.3054    1.7393 H   0  0  0  0  0  0  0  0  0  0  0  0
    0.0851   -4.5583    1.5672 H   0  0  0  0  0  0  0  0  0  0  0  0
    0.4049   -2.4226    0.5884 H   0  0  0  0  0  0  0  0  0  0  0  0
   -0.9800   -2.0552    1.6575 H   0  0  0  0  0  0  0  0  0  0  0  0
    0.1421   -0.8421   -1.8200 H   0  0  0  0  0  0  0  0  0  0  0  0
    5.5867   -1.3482   -3.4251 H   0  0  0  0  0  0  0  0  0  0  0  0
    7.6013   -0.4418   -2.3272 H   0  0  0  0  0  0  0  0  0  0  0  0
    8.6631    0.8675   -0.4801 H   0  0  0  0  0  0  0  0  0  0  0  0
    8.4276    2.2153    1.5796 H   0  0  0  0  0  0  0  0  0  0  0  0
    6.1809    2.6558    2.5574 H   0  0  0  0  0  0  0  0  0  0  0  0
    4.1561    1.7401    1.4656 H   0  0  0  0  0  0  0  0  0  0  0  0
   -1.8650    2.1889   -0.0190 H   0  0  0  0  0  0  0  0  0  0  0  0
  1  2  1  0
  2  3  1  0
  2  4  1  0
  4  5  2  0
  4  6  2  0
  4  7  1  0
  7  8  2  0
  8  9  1  0
  9 10  2  0
 10 11  1  0
 11 12  1  0
 12 13  1  0
 13 14  1  0
 14 15  1  0
 10 16  1  0
 16 17  1  0
 17 18  2  0
 17 19  1  0
 19 20  1  0
 20 21  2  0
 21 22  1  0
 22 23  2  0
 23 24  1  0
 24 25  2  0
 25 26  1  0
 26 27  2  0
 27 28  1  0
 28 29  2  0
 29 30  1  0
 30 31  2  0
 23 32  1  0
 16 33  2  0
 33  7  1  0
 15 11  1  0
 32 20  1  0
 31 22  1  0
 31 26  1  0
  1 34  1  0
  1 35  1  0
  1 36  1  0
  3 37  1  0
  3 38  1  0
  3 39  1  0
  8 40  1  0
  9 41  1  0
 12 42  1  0
 12 43  1  0
 13 44  1  0
 13 45  1  0
 14 46  1  0
 14 47  1  0
 15 48  1  0
 15 49  1  0
 19 50  1  0
 24 51  1  0
 25 52  1  0
 27 53  1  0
 28 54  1  0
 29 55  1  0
 30 56  1  0
 33 57  1  0
M  END
$$$$
