
     RDKit          3D

 53 56  0  0  0  0  0  0  0  0999 V2000
    6.6967    2.1623    0.4567 C   0  0  0  0  0  0  0  0  0  0  0  0
    5.7369    1.0175    0.3320 C   0  0  0  0  0  0  0  0  0  0  0  0
    4.3751    1.2450    0.3435 C   0  0  0  0  0  0  0  0  0  0  0  0
    3.5275    0.1452    0.2181 C   0  0  0  0  0  0  0  0  0  0  0  0
    2.0776    0.4406    0.1685 C   0  0  0  0  0  0  0  0  0  0  0  0
    1.5738    1.0215    1.1192 O   0  0  0  0  0  0  0  0  0  0  0  0
    1.4638    0.0412   -1.0032 N   0  0  0  0  0  0  0  0  0  0  0  0
    0.1085    0.1984   -1.3566 C   0  0  0  0  0  0  0  0  0  0  0  0
   -0.3013   -0.3666   -2.5676 C   0  0  0  0  0  0  0  0  0  0  0  0
   -1.6310   -0.2724   -2.9882 C   0  0  0  0  0  0  0  0  0  0  0  0
   -2.5904    0.3879   -2.2074 C   0  0  0  0  0  0  0  0  0  0  0  0
   -3.9991    0.4720   -2.7258 C   0  0  0  0  0  0  0  0  0  0  0  0
   -2.1691    0.9718   -0.9975 C   0  0  0  0  0  0  0  0  0  0  0  0
   -3.3004    1.8847    0.0428 S   0  0  0  0  0  6  0  0  0  0  0  0
   -4.1170    2.7213   -0.8105 O   0  0  0  0  0  0  0  0  0  0  0  0
   -2.5705    2.4573    1.1543 O   0  0  0  0  0  0  0  0  0  0  0  0
   -4.2908    0.6535    0.6886 N   0  0  0  0  0  0  0  0  0  0  0  0
   -3.6091   -0.3088    1.6180 C   0  0  0  0  0  0  0  0  0  0  0  0
   -4.0156   -0.0547    3.0725 C   0  0  0  0  0  0  0  0  0  0  0  0
   -5.4226   -0.2290    3.2963 O   0  0  0  0  0  0  0  0  0  0  0  0
   -6.2249    0.1249    2.1606 C   0  0  0  0  0  0  0  0  0  0  0  0
   -5.5717    1.1804    1.2645 C   0  0  0  0  0  0  0  0  0  0  0  0
   -0.8286    0.8775   -0.5794 C   0  0  0  0  0  0  0  0  0  0  0  0
    4.0379   -1.1691    0.1314 C   0  0  0  0  0  0  0  0  0  0  0  0
    3.2505   -2.3489    0.0788 C   0  0  0  0  0  0  0  0  0  0  0  0
    3.8442   -3.6057   -0.0180 C   0  0  0  0  0  0  0  0  0  0  0  0
    5.2272   -3.7051   -0.0554 C   0  0  0  0  0  0  0  0  0  0  0  0
    6.0063   -2.5480    0.0171 C   0  0  0  0  0  0  0  0  0  0  0  0
    5.4407   -1.2839    0.1182 C   0  0  0  0  0  0  0  0  0  0  0  0
    6.2617   -0.2225    0.2022 N   0  0  0  0  0  0  0  0  0  0  0  0
    6.5610    2.8618   -0.3740 H   0  0  0  0  0  0  0  0  0  0  0  0
    7.7320    1.8067    0.4375 H   0  0  0  0  0  0  0  0  0  0  0  0
    6.5355    2.6899    1.4020 H   0  0  0  0  0  0  0  0  0  0  0  0
    3.9738    2.2495    0.4404 H   0  0  0  0  0  0  0  0  0  0  0  0
    2.0517   -0.4191   -1.6891 H   0  0  0  0  0  0  0  0  0  0  0  0
    0.4055   -0.8928   -3.2049 H   0  0  0  0  0  0  0  0  0  0  0  0
   -1.9118   -0.7212   -3.9398 H   0  0  0  0  0  0  0  0  0  0  0  0
   -4.1596   -0.2345   -3.5480 H   0  0  0  0  0  0  0  0  0  0  0  0
   -4.2038    1.4755   -3.1102 H   0  0  0  0  0  0  0  0  0  0  0  0
   -4.7261    0.2120   -1.9523 H   0  0  0  0  0  0  0  0  0  0  0  0
   -2.5211   -0.2596    1.5251 H   0  0  0  0  0  0  0  0  0  0  0  0
   -3.9128   -1.3170    1.3116 H   0  0  0  0  0  0  0  0  0  0  0  0
   -3.4925   -0.7502    3.7364 H   0  0  0  0  0  0  0  0  0  0  0  0
   -3.7460    0.9608    3.3842 H   0  0  0  0  0  0  0  0  0  0  0  0
   -6.4240   -0.7923    1.5942 H   0  0  0  0  0  0  0  0  0  0  0  0
   -7.1845    0.4907    2.5392 H   0  0  0  0  0  0  0  0  0  0  0  0
   -6.2493    1.4317    0.4422 H   0  0  0  0  0  0  0  0  0  0  0  0
   -5.3706    2.0833    1.8530 H   0  0  0  0  0  0  0  0  0  0  0  0
   -0.5360    1.3506    0.3538 H   0  0  0  0  0  0  0  0  0  0  0  0
    2.1648   -2.2991    0.1359 H   0  0  0  0  0  0  0  0  0  0  0  0
    3.2295   -4.5017   -0.0535 H   0  0  0  0  0  0  0  0  0  0  0  0
    5.7072   -4.6779   -0.1273 H   0  0  0  0  0  0  0  0  0  0  0  0
    7.0909   -2.6353    0.0024 H   0  0  0  0  0  0  0  0  0  0  0  0
  1  2  1  0
  2  3  2  0
  3  4  1  0
  4  5  1  0
  5  6  2  0
  5  7  1  0
  7  8  1  0
  8  9  2  0
  9 10  1  0
 10 11  2  0
 11 12  1  0
 11 13  1  0
 13 14  1  0
 14 15  2  0
 14 16  2  0
 14 17  1  0
 17 18  1  0
 18 19  1  0
 19 20  1  0
 20 21  1  0
 21 22  1  0
 13 23  2  0
  4 24  2  0
 24 25  1  0
 25 26  2  0
 26 27  1  0
 27 28  2  0
 28 29  1  0
 29 30  2  0
 30  2  1  0
 23  8  1  0
 29 24  1  0
 22 17  1  0
  1 31  1  0
  1 32  1  0
  1 33  1  0
  3 34  1  0
  7 35  1  0
  9 36  1  0
 10 37  1  0
 12 38  1  0
 12 39  1  0
 12 40  1  0
 18 41  1  0
 18 42  1  0
 19 43  1  0
 19 44  1  0
 21 45  1  0
 21 46  1  0
 22 47  1  0
 22 48  1  0
 23 49  1  0
 25 50  1  0
 26 51  1  0
 27 52  1  0
 28 53  1  0
M  END
$$$$
