
     RDKit          3D

 55 58  0  0  0  0  0  0  0  0999 V2000
   -4.7283   -4.2797    2.4112 C   0  0  0  0  0  0  0  0  0  0  0  0
   -4.0167   -3.2444    3.1646 N   0  0  0  0  0  0  0  0  0  0  0  0
   -4.5209   -2.9821    4.5116 C   0  0  0  0  0  0  0  0  0  0  0  0
   -3.3802   -2.2268    2.4502 C   0  0  0  0  0  0  0  0  0  0  0  0
   -3.0625   -0.9878    3.0188 C   0  0  0  0  0  0  0  0  0  0  0  0
   -2.4011    0.0279    2.3001 C   0  0  0  0  0  0  0  0  0  0  0  0
   -2.0031   -0.1384    0.9668 C   0  0  0  0  0  0  0  0  0  0  0  0
   -1.3414    0.8710    0.2377 N   0  0  0  0  0  0  0  0  0  0  0  0
   -0.5541    0.6767   -0.8972 C   0  0  0  0  0  0  0  0  0  0  0  0
   -0.1042   -0.4439   -1.3542 N   0  0  0  0  0  0  0  0  0  0  0  0
    0.6469   -0.4456   -2.4986 C   0  0  0  0  0  0  0  0  0  0  0  0
    0.1596   -0.3954   -3.6229 O   0  0  0  0  0  0  0  0  0  0  0  0
    2.1322   -0.6072   -2.2509 C   0  0  0  0  0  0  0  0  0  0  0  0
    2.9510   -0.1290   -3.4430 C   0  0  0  0  0  0  0  0  0  0  0  0
    4.4293   -0.1871   -3.1496 C   0  0  0  0  0  0  0  0  0  0  0  0
    5.1430   -1.3776   -3.3354 C   0  0  0  0  0  0  0  0  0  0  0  0
    6.5045   -1.4389   -3.0358 C   0  0  0  0  0  0  0  0  0  0  0  0
    7.1630   -0.3133   -2.5457 C   0  0  0  0  0  0  0  0  0  0  0  0
    6.4611    0.8748   -2.3548 C   0  0  0  0  0  0  0  0  0  0  0  0
    5.0992    0.9382   -2.6520 C   0  0  0  0  0  0  0  0  0  0  0  0
   -0.1625    2.2552   -1.6342 S   0  0  0  0  0  0  0  0  0  0  0  0
   -1.3900    3.1214   -0.6067 C   0  0  0  0  0  0  0  0  0  0  0  0
   -1.0063    4.5417   -0.2364 C   0  0  0  0  0  0  0  0  0  0  0  0
   -0.2271    4.4490    1.3613 S   0  0  0  0  0  6  0  0  0  0  0  0
    1.1620    4.8334    1.2400 O   0  0  0  0  0  0  0  0  0  0  0  0
   -1.1183    5.0561    2.3290 O   0  0  0  0  0  0  0  0  0  0  0  0
   -0.3201    2.6919    1.5754 C   0  0  0  0  0  0  0  0  0  0  0  0
   -1.4743    2.2708    0.6686 C   0  0  0  0  0  0  0  0  0  0  0  0
   -2.3156   -1.3780    0.3998 C   0  0  0  0  0  0  0  0  0  0  0  0
   -2.9750   -2.3918    1.1204 C   0  0  0  0  0  0  0  0  0  0  0  0
   -5.4676   -3.8357    1.7307 H   0  0  0  0  0  0  0  0  0  0  0  0
   -4.0291   -4.9054    1.8426 H   0  0  0  0  0  0  0  0  0  0  0  0
   -5.2685   -4.9597    3.0798 H   0  0  0  0  0  0  0  0  0  0  0  0
   -4.8999   -3.9000    4.9750 H   0  0  0  0  0  0  0  0  0  0  0  0
   -3.7273   -2.6204    5.1737 H   0  0  0  0  0  0  0  0  0  0  0  0
   -5.3397   -2.2554    4.4881 H   0  0  0  0  0  0  0  0  0  0  0  0
   -3.3203   -0.7665    4.0502 H   0  0  0  0  0  0  0  0  0  0  0  0
   -2.1987    0.9421    2.8474 H   0  0  0  0  0  0  0  0  0  0  0  0
    2.4024   -0.0341   -1.3584 H   0  0  0  0  0  0  0  0  0  0  0  0
    2.3277   -1.6628   -2.0404 H   0  0  0  0  0  0  0  0  0  0  0  0
    2.6698    0.8961   -3.7139 H   0  0  0  0  0  0  0  0  0  0  0  0
    2.7316   -0.7373   -4.3292 H   0  0  0  0  0  0  0  0  0  0  0  0
    4.6415   -2.2648   -3.7141 H   0  0  0  0  0  0  0  0  0  0  0  0
    7.0505   -2.3665   -3.1835 H   0  0  0  0  0  0  0  0  0  0  0  0
    8.2234   -0.3613   -2.3127 H   0  0  0  0  0  0  0  0  0  0  0  0
    6.9742    1.7524   -1.9722 H   0  0  0  0  0  0  0  0  0  0  0  0
    4.5646    1.8719   -2.4921 H   0  0  0  0  0  0  0  0  0  0  0  0
   -2.3335    3.1024   -1.1637 H   0  0  0  0  0  0  0  0  0  0  0  0
   -1.9024    5.1593   -0.1152 H   0  0  0  0  0  0  0  0  0  0  0  0
   -0.3349    5.0251   -0.9504 H   0  0  0  0  0  0  0  0  0  0  0  0
    0.6413    2.2581    1.2830 H   0  0  0  0  0  0  0  0  0  0  0  0
   -0.4998    2.4695    2.6292 H   0  0  0  0  0  0  0  0  0  0  0  0
   -2.4403    2.4803    1.1476 H   0  0  0  0  0  0  0  0  0  0  0  0
   -2.0674   -1.6016   -0.6353 H   0  0  0  0  0  0  0  0  0  0  0  0
   -3.1477   -3.3266    0.5958 H   0  0  0  0  0  0  0  0  0  0  0  0
  1  2  1  0
  2  3  1  0
  2  4  1  0
  4  5  2  0
  5  6  1  0
  6  7  2  0
  7  8  1  0
  8  9  1  0
  9 10  2  3
 10 11  1  0
 11 12  2  0
 11 13  1  0
 13 14  1  0
 14 15  1  0
 15 16  2  0
 16 17  1  0
 17 18  2  0
 18 19  1  0
 19 20  2  0
  9 21  1  0
 21 22  1  0
 22 23  1  0
 23 24  1  0
 24 25  2  0
 24 26  2  0
 24 27  1  0
 27 28  1  0
  7 29  1  0
 29 30  2  0
 30  4  1  0
 28  8  1  0
 20 15  1  0
 28 22  1  0
  1 31  1  0
  1 32  1  0
  1 33  1  0
  3 34  1  0
  3 35  1  0
  3 36  1  0
  5 37  1  0
  6 38  1  0
 13 39  1  0
 13 40  1  0
 14 41  1  0
 14 42  1  0
 16 43  1  0
 17 44  1  0
 18 45  1  0
 19 46  1  0
 20 47  1  0
 22 48  1  0
 23 49  1  0
 23 50  1  0
 27 51  1  0
 27 52  1  0
 28 53  1  0
 29 54  1  0
 30 55  1  0
M  END
$$$$
