
     RDKit          3D

 36 38  0  0  0  0  0  0  0  0999 V2000
   -4.3900    2.3303    0.2752 C   0  0  0  0  0  0  0  0  0  0  0  0
   -3.4127    1.2690    0.1632 N   0  0  0  0  0  0  0  0  0  0  0  0
   -2.0548    1.4582    0.1249 C   0  0  0  0  0  0  0  0  0  0  0  0
   -1.4536    0.2227    0.0141 C   0  0  0  0  0  0  0  0  0  0  0  0
   -0.0476   -0.0332   -0.0628 C   0  0  0  0  0  0  0  0  0  0  0  0
    0.9310    0.8827    0.0407 C   0  0  0  0  0  0  0  0  0  0  0  0
    2.3587    0.5554   -0.0414 C   0  0  0  0  0  0  0  0  0  0  0  0
    2.8673   -0.3034   -1.0149 C   0  0  0  0  0  0  0  0  0  0  0  0
    4.2329   -0.5605   -1.0623 C   0  0  0  0  0  0  0  0  0  0  0  0
    5.0732    0.0167   -0.1748 N   0  0  0  0  0  4  0  0  0  0  0  0
    6.5169   -0.2657   -0.2493 C   0  0  0  0  0  0  0  0  0  0  0  0
    4.6062    0.8708    0.7629 C   0  0  0  0  0  0  0  0  0  0  0  0
    3.2482    1.1586    0.8453 C   0  0  0  0  0  0  0  0  0  0  0  0
   -2.4956   -0.7580   -0.0171 C   0  0  0  0  0  0  0  0  0  0  0  0
   -2.5213   -2.1669   -0.1164 C   0  0  0  0  0  0  0  0  0  0  0  0
   -3.7499   -2.8333   -0.1185 C   0  0  0  0  0  0  0  0  0  0  0  0
   -3.7740   -4.5514   -0.2409 Cl  0  0  0  0  0  0  0  0  0  0  0  0
   -4.9472   -2.1339   -0.0240 C   0  0  0  0  0  0  0  0  0  0  0  0
   -4.9503   -0.7398    0.0763 C   0  0  0  0  0  0  0  0  0  0  0  0
   -3.7131   -0.0743    0.0779 C   0  0  0  0  0  0  0  0  0  0  0  0
   -3.8790    3.2951    0.3260 H   0  0  0  0  0  0  0  0  0  0  0  0
   -5.0355    2.2996   -0.6063 H   0  0  0  0  0  0  0  0  0  0  0  0
   -4.9702    2.1706    1.1876 H   0  0  0  0  0  0  0  0  0  0  0  0
   -1.6409    2.4562    0.1768 H   0  0  0  0  0  0  0  0  0  0  0  0
    0.2276   -1.0762   -0.2043 H   0  0  0  0  0  0  0  0  0  0  0  0
    0.6911    1.9285    0.2180 H   0  0  0  0  0  0  0  0  0  0  0  0
    2.2107   -0.7681   -1.7484 H   0  0  0  0  0  0  0  0  0  0  0  0
    4.6625   -1.2218   -1.8096 H   0  0  0  0  0  0  0  0  0  0  0  0
    6.9492   -0.1887    0.7517 H   0  0  0  0  0  0  0  0  0  0  0  0
    6.6642   -1.2799   -0.6293 H   0  0  0  0  0  0  0  0  0  0  0  0
    6.9600    0.4716   -0.9232 H   0  0  0  0  0  0  0  0  0  0  0  0
    5.3261    1.3203    1.4412 H   0  0  0  0  0  0  0  0  0  0  0  0
    2.8905    1.8462    1.6100 H   0  0  0  0  0  0  0  0  0  0  0  0
   -1.5980   -2.7314   -0.1892 H   0  0  0  0  0  0  0  0  0  0  0  0
   -5.8944   -2.6685   -0.0270 H   0  0  0  0  0  0  0  0  0  0  0  0
   -5.8881   -0.1975    0.1504 H   0  0  0  0  0  0  0  0  0  0  0  0
  1  2  1  0
  2  3  1  0
  3  4  2  0
  4  5  1  0
  5  6  2  3
  6  7  1  0
  7  8  2  0
  8  9  1  0
  9 10  2  0
 10 11  1  0
 10 12  1  0
 12 13  2  0
  4 14  1  0
 14 15  2  0
 15 16  1  0
 16 17  1  0
 16 18  2  0
 18 19  1  0
 19 20  2  0
 20  2  1  0
 13  7  1  0
 20 14  1  0
  1 21  1  0
  1 22  1  0
  1 23  1  0
  3 24  1  0
  5 25  1  0
  6 26  1  0
  8 27  1  0
  9 28  1  0
 11 29  1  0
 11 30  1  0
 11 31  1  0
 12 32  1  0
 13 33  1  0
 15 34  1  0
 18 35  1  0
 19 36  1  0
M  CHG  1  10   1
M  END
$$$$
