
     RDKit          3D

 23 24  0  0  0  0  0  0  0  0999 V2000
   -5.0464    0.2952    0.4180 C   0  0  0  0  0  0  0  0  0  0  0  0
   -4.2571    1.7091   -0.3809 S   0  0  0  0  0  0  0  0  0  0  0  0
   -2.6023    1.1443   -0.4867 C   0  0  0  0  0  0  0  0  0  0  0  0
   -2.2350   -0.0277   -0.0243 N   0  0  0  0  0  0  0  0  0  0  0  0
   -0.8807   -0.2117   -0.2404 C   0  0  0  0  0  0  0  0  0  0  0  0
   -0.1364   -1.3549    0.1192 C   0  0  0  0  0  0  0  0  0  0  0  0
    1.2339   -1.4114   -0.1575 C   0  0  0  0  0  0  0  0  0  0  0  0
    1.8619   -0.3335   -0.7809 C   0  0  0  0  0  0  0  0  0  0  0  0
    3.5917   -0.4278   -1.1518 S   0  0  0  0  0  6  0  0  0  0  0  0
    4.2714    0.2960    0.2009 N   0  0  0  0  0  0  0  0  0  0  0  0
    3.8836    0.4457   -2.2636 O   0  0  0  0  0  0  0  0  0  0  0  0
    4.0101   -1.8092   -1.1178 O   0  0  0  0  0  0  0  0  0  0  0  0
    1.1487    0.8108   -1.1627 C   0  0  0  0  0  0  0  0  0  0  0  0
   -0.2257    0.8469   -0.8748 C   0  0  0  0  0  0  0  0  0  0  0  0
   -1.3690    2.0930   -1.1998 S   0  0  0  0  0  0  0  0  0  0  0  0
   -4.6080    0.1120    1.4030 H   0  0  0  0  0  0  0  0  0  0  0  0
   -6.1110    0.5069    0.5501 H   0  0  0  0  0  0  0  0  0  0  0  0
   -4.9487   -0.6027   -0.1986 H   0  0  0  0  0  0  0  0  0  0  0  0
   -0.6367   -2.1864    0.6071 H   0  0  0  0  0  0  0  0  0  0  0  0
    1.7967   -2.3011    0.1185 H   0  0  0  0  0  0  0  0  0  0  0  0
    4.7727    1.1419   -0.0729 H   0  0  0  0  0  0  0  0  0  0  0  0
    4.8512   -0.3790    0.7009 H   0  0  0  0  0  0  0  0  0  0  0  0
    1.6350    1.6434   -1.6635 H   0  0  0  0  0  0  0  0  0  0  0  0
  1  2  1  0
  2  3  1  0
  3  4  2  0
  4  5  1  0
  5  6  2  0
  6  7  1  0
  7  8  2  0
  8  9  1  0
  9 10  1  0
  9 11  2  0
  9 12  2  0
  8 13  1  0
 13 14  2  0
 14 15  1  0
 15  3  1  0
 14  5  1  0
  1 16  1  0
  1 17  1  0
  1 18  1  0
  6 19  1  0
  7 20  1  0
 10 21  1  0
 10 22  1  0
 13 23  1  0
M  END
$$$$
