
     RDKit          3D

 45 48  0  0  0  0  0  0  0  0999 V2000
   -2.9278   -2.7704   -1.0503 C   0  0  0  0  0  0  0  0  0  0  0  0
   -2.9394   -1.3784   -0.5279 C   0  0  0  0  0  0  0  0  0  0  0  0
   -3.9891   -0.4702   -0.6074 C   0  0  0  0  0  0  0  0  0  0  0  0
   -5.2026   -0.5614   -1.1372 O   0  0  0  0  0  0  0  0  0  0  0  0
   -3.5834    0.6818   -0.0032 N   0  0  0  0  0  0  0  0  0  0  0  0
   -2.2979    0.5551    0.4537 C   0  0  0  0  0  0  0  0  0  0  0  0
   -1.5658    1.5361    1.1257 C   0  0  0  0  0  0  0  0  0  0  0  0
   -0.2604    1.1953    1.4813 C   0  0  0  0  0  0  0  0  0  0  0  0
    0.2345   -0.0818    1.1814 C   0  0  0  0  0  0  0  0  0  0  0  0
    1.8994   -0.5091    1.6313 S   0  0  0  0  0  6  0  0  0  0  0  0
    1.8365   -1.7426    2.3861 O   0  0  0  0  0  0  0  0  0  0  0  0
    2.5551    0.6665    2.1664 O   0  0  0  0  0  0  0  0  0  0  0  0
    2.6205   -0.8427    0.1174 N   0  0  0  0  0  0  0  0  0  0  0  0
    2.6979    0.2982   -0.8395 C   0  0  0  0  0  0  0  0  0  0  0  0
    4.1352    0.7413   -1.0762 C   0  0  0  0  0  0  0  0  0  0  0  0
    4.9905   -0.3917   -1.6387 C   0  0  0  0  0  0  0  0  0  0  0  0
    4.5433   -1.7622   -1.1346 C   0  0  0  0  0  0  0  0  0  0  0  0
    3.8598   -1.6603    0.2228 C   0  0  0  0  0  0  0  0  0  0  0  0
   -0.5435   -1.0564    0.5238 C   0  0  0  0  0  0  0  0  0  0  0  0
   -1.8548   -0.7173    0.1440 C   0  0  0  0  0  0  0  0  0  0  0  0
   -2.2072    2.8734    1.3598 C   0  0  0  0  0  0  0  0  0  0  0  0
   -3.7481    2.7392    1.3689 C   0  0  0  0  0  0  0  0  0  0  0  0
   -4.3006    1.9342    0.1730 C   0  0  0  0  0  0  0  0  0  0  0  0
   -3.8738   -3.2754   -0.8296 H   0  0  0  0  0  0  0  0  0  0  0  0
   -2.7833   -2.7649   -2.1353 H   0  0  0  0  0  0  0  0  0  0  0  0
   -2.1243   -3.3618   -0.6007 H   0  0  0  0  0  0  0  0  0  0  0  0
   -5.2893   -1.4566   -1.5083 H   0  0  0  0  0  0  0  0  0  0  0  0
    0.3668    1.9222    1.9934 H   0  0  0  0  0  0  0  0  0  0  0  0
    2.2382   -0.0243   -1.7815 H   0  0  0  0  0  0  0  0  0  0  0  0
    2.1136    1.1549   -0.4895 H   0  0  0  0  0  0  0  0  0  0  0  0
    4.1617    1.5966   -1.7608 H   0  0  0  0  0  0  0  0  0  0  0  0
    4.5693    1.0854   -0.1287 H   0  0  0  0  0  0  0  0  0  0  0  0
    6.0379   -0.2143   -1.3668 H   0  0  0  0  0  0  0  0  0  0  0  0
    4.9512   -0.3852   -2.7345 H   0  0  0  0  0  0  0  0  0  0  0  0
    3.8467   -2.2028   -1.8595 H   0  0  0  0  0  0  0  0  0  0  0  0
    5.4064   -2.4350   -1.0787 H   0  0  0  0  0  0  0  0  0  0  0  0
    3.5892   -2.6680    0.5566 H   0  0  0  0  0  0  0  0  0  0  0  0
    4.5451   -1.2244    0.9592 H   0  0  0  0  0  0  0  0  0  0  0  0
   -0.1350   -2.0403    0.3121 H   0  0  0  0  0  0  0  0  0  0  0  0
   -1.8981    3.5588    0.5623 H   0  0  0  0  0  0  0  0  0  0  0  0
   -1.8759    3.2917    2.3167 H   0  0  0  0  0  0  0  0  0  0  0  0
   -4.2069    3.7340    1.3906 H   0  0  0  0  0  0  0  0  0  0  0  0
   -4.0471    2.2309    2.2960 H   0  0  0  0  0  0  0  0  0  0  0  0
   -5.3599    1.7054    0.3264 H   0  0  0  0  0  0  0  0  0  0  0  0
   -4.1848    2.4966   -0.7600 H   0  0  0  0  0  0  0  0  0  0  0  0
  1  2  1  0
  2  3  2  0
  3  4  1  0
  3  5  1  0
  5  6  1  0
  6  7  2  0
  7  8  1  0
  8  9  2  0
  9 10  1  0
 10 11  2  0
 10 12  2  0
 10 13  1  0
 13 14  1  0
 14 15  1  0
 15 16  1  0
 16 17  1  0
 17 18  1  0
  9 19  1  0
 19 20  2  0
  7 21  1  0
 21 22  1  0
 22 23  1  0
 20  2  1  0
 23  5  1  0
 20  6  1  0
 18 13  1  0
  1 24  1  0
  1 25  1  0
  1 26  1  0
  4 27  1  0
  8 28  1  0
 14 29  1  0
 14 30  1  0
 15 31  1  0
 15 32  1  0
 16 33  1  0
 16 34  1  0
 17 35  1  0
 17 36  1  0
 18 37  1  0
 18 38  1  0
 19 39  1  0
 21 40  1  0
 21 41  1  0
 22 42  1  0
 22 43  1  0
 23 44  1  0
 23 45  1  0
M  END
$$$$
