
     RDKit          3D

 43 45  0  0  0  0  0  0  0  0999 V2000
    0.5305   -3.2476   -2.0182 O   0  0  0  0  0  0  0  0  0  0  0  0
   -0.0371   -2.5457   -1.1819 C   0  0  0  0  0  0  0  0  0  0  0  0
   -1.1075   -3.1423   -0.2574 C   0  0  0  0  0  0  0  0  0  0  0  0
   -1.7215   -2.2110    0.6791 N   0  0  0  0  0  0  0  0  0  0  0  0
   -1.1436   -1.9233    1.8999 C   0  0  0  0  0  0  0  0  0  0  0  0
   -0.0981   -2.4472    2.2721 O   0  0  0  0  0  0  0  0  0  0  0  0
   -1.9417   -0.9349    2.7508 C   0  0  0  0  0  0  0  0  0  0  0  0
   -1.0119   -0.1935    3.7041 C   0  0  0  0  0  0  0  0  0  0  0  0
   -1.7587    0.6740    4.5681 O   0  0  0  0  0  0  0  0  0  0  0  0
   -2.7043    1.3840    3.8742 C   0  0  0  0  0  0  0  0  0  0  0  0
   -3.2742    2.4713    4.5331 C   0  0  0  0  0  0  0  0  0  0  0  0
   -4.2339    3.2502    3.8852 C   0  0  0  0  0  0  0  0  0  0  0  0
   -4.6232    2.9401    2.5791 C   0  0  0  0  0  0  0  0  0  0  0  0
   -4.0604    1.8447    1.9220 C   0  0  0  0  0  0  0  0  0  0  0  0
   -3.1126    1.0584    2.5749 C   0  0  0  0  0  0  0  0  0  0  0  0
   -2.6196   -0.0155    1.8791 O   0  0  0  0  0  0  0  0  0  0  0  0
    0.1820   -1.1866   -0.9778 N   0  0  0  0  0  0  0  0  0  0  0  0
    1.0151   -0.3891   -1.7175 N   0  0  0  0  0  0  0  0  0  0  0  0
    2.1424   -0.9038   -2.1010 C   0  0  0  0  0  0  0  0  0  0  0  0
    3.1142   -0.1386   -2.9083 C   0  0  0  0  0  0  0  0  0  0  0  0
    2.8436    1.1705   -3.3205 C   0  0  0  0  0  0  0  0  0  0  0  0
    3.7937    1.8750   -4.0645 C   0  0  0  0  0  0  0  0  0  0  0  0
    5.0100    1.2743   -4.3946 C   0  0  0  0  0  0  0  0  0  0  0  0
    5.2651   -0.0305   -3.9793 C   0  0  0  0  0  0  0  0  0  0  0  0
    6.4419   -0.6516   -4.2771 O   0  0  0  0  0  0  0  0  0  0  0  0
    4.3275   -0.7448   -3.2409 C   0  0  0  0  0  0  0  0  0  0  0  0
   -1.9101   -3.5398   -0.8846 H   0  0  0  0  0  0  0  0  0  0  0  0
   -0.6484   -3.9615    0.3026 H   0  0  0  0  0  0  0  0  0  0  0  0
   -2.5568   -1.7001    0.4096 H   0  0  0  0  0  0  0  0  0  0  0  0
   -2.6984   -1.5087    3.3039 H   0  0  0  0  0  0  0  0  0  0  0  0
   -0.2736    0.4112    3.1588 H   0  0  0  0  0  0  0  0  0  0  0  0
   -0.4605   -0.8900    4.3444 H   0  0  0  0  0  0  0  0  0  0  0  0
   -2.9648    2.7159    5.5475 H   0  0  0  0  0  0  0  0  0  0  0  0
   -4.6753    4.1013    4.3979 H   0  0  0  0  0  0  0  0  0  0  0  0
   -5.3694    3.5502    2.0748 H   0  0  0  0  0  0  0  0  0  0  0  0
   -4.3709    1.6020    0.9087 H   0  0  0  0  0  0  0  0  0  0  0  0
   -0.5333   -0.6779   -0.4682 H   0  0  0  0  0  0  0  0  0  0  0  0
    2.4595   -1.9216   -1.8103 H   0  0  0  0  0  0  0  0  0  0  0  0
    1.8997    1.6453   -3.0629 H   0  0  0  0  0  0  0  0  0  0  0  0
    3.5849    2.8930   -4.3844 H   0  0  0  0  0  0  0  0  0  0  0  0
    5.7400    1.8346   -4.9716 H   0  0  0  0  0  0  0  0  0  0  0  0
    7.0087   -0.0293   -4.7624 H   0  0  0  0  0  0  0  0  0  0  0  0
    4.5513   -1.7611   -2.9296 H   0  0  0  0  0  0  0  0  0  0  0  0
  1  2  2  0
  2  3  1  0
  3  4  1  0
  4  5  1  0
  5  6  2  0
  5  7  1  0
  7  8  1  0
  8  9  1  0
  9 10  1  0
 10 11  2  0
 11 12  1  0
 12 13  2  0
 13 14  1  0
 14 15  2  0
 15 16  1  0
  2 17  1  0
 17 18  1  0
 18 19  2  3
 19 20  1  0
 20 21  2  0
 21 22  1  0
 22 23  2  0
 23 24  1  0
 24 25  1  0
 24 26  2  0
 16  7  1  0
 26 20  1  0
 15 10  1  0
  3 27  1  0
  3 28  1  0
  4 29  1  0
  7 30  1  0
  8 31  1  0
  8 32  1  0
 11 33  1  0
 12 34  1  0
 13 35  1  0
 14 36  1  0
 17 37  1  0
 19 38  1  0
 21 39  1  0
 22 40  1  0
 23 41  1  0
 25 42  1  0
 26 43  1  0
M  END
$$$$
