
     RDKit          3D

 54 56  0  0  0  0  0  0  0  0999 V2000
   -1.4940   -1.6545   -1.8276 C   0  0  0  0  0  0  0  0  0  0  0  0
   -2.8844   -1.2723   -1.3771 C   0  0  0  0  0  0  0  0  0  0  0  0
   -3.9354   -2.1456   -1.6980 C   0  0  0  0  0  0  0  0  0  0  0  0
   -5.2307   -1.8754   -1.2826 C   0  0  0  0  0  0  0  0  0  0  0  0
   -5.4978   -0.7075   -0.5682 C   0  0  0  0  0  0  0  0  0  0  0  0
   -4.4788    0.2163   -0.2424 C   0  0  0  0  0  0  0  0  0  0  0  0
   -4.9029    1.5403    0.3981 C   0  0  0  0  0  0  0  0  0  0  0  0
   -5.8511    2.3309   -0.5136 C   0  0  0  0  0  0  0  0  0  0  0  0
   -5.5516    1.3218    1.7702 C   0  0  0  0  0  0  0  0  0  0  0  0
   -3.1474   -0.0988   -0.6173 C   0  0  0  0  0  0  0  0  0  0  0  0
   -2.0428    0.7428   -0.3313 N   0  0  0  0  0  0  0  0  0  0  0  0
   -1.7381    1.2543    0.9265 C   0  0  0  0  0  0  0  0  0  0  0  0
   -2.3628    1.0541    1.9687 O   0  0  0  0  0  0  0  0  0  0  0  0
   -0.4738    2.1025    0.9212 C   0  0  0  0  0  0  0  0  0  0  0  0
    0.7154    1.2433    1.2343 C   0  0  0  0  0  0  0  0  0  0  0  0
    1.2970    1.0049    2.4657 C   0  0  0  0  0  0  0  0  0  0  0  0
    2.4061    0.1152    2.3741 C   0  0  0  0  0  0  0  0  0  0  0  0
    2.6373   -0.3076    1.0761 C   0  0  0  0  0  0  0  0  0  0  0  0
    3.8562   -1.4296    0.4044 S   0  0  0  0  0  6  0  0  0  0  0  0
    3.5170   -1.6534   -0.9875 O   0  0  0  0  0  0  0  0  0  0  0  0
    3.9009   -2.5203    1.3585 O   0  0  0  0  0  0  0  0  0  0  0  0
    5.3549   -0.6238    0.4674 N   0  0  0  0  0  0  0  0  0  0  0  0
    5.5169    0.5581   -0.4352 C   0  0  0  0  0  0  0  0  0  0  0  0
    5.9218    0.1484   -1.8583 C   0  0  0  0  0  0  0  0  0  0  0  0
    7.0903   -0.6843   -1.8579 O   0  0  0  0  0  0  0  0  0  0  0  0
    6.8684   -1.8701   -1.0797 C   0  0  0  0  0  0  0  0  0  0  0  0
    6.5565   -1.5105    0.3750 C   0  0  0  0  0  0  0  0  0  0  0  0
    1.5363    0.4105   -0.0208 S   0  0  0  0  0  0  0  0  0  0  0  0
   -1.1011   -0.9048   -2.5237 H   0  0  0  0  0  0  0  0  0  0  0  0
   -0.8298   -1.7461   -0.9609 H   0  0  0  0  0  0  0  0  0  0  0  0
   -1.4846   -2.6173   -2.3485 H   0  0  0  0  0  0  0  0  0  0  0  0
   -3.7474   -3.0509   -2.2685 H   0  0  0  0  0  0  0  0  0  0  0  0
   -6.0402   -2.5571   -1.5281 H   0  0  0  0  0  0  0  0  0  0  0  0
   -6.5293   -0.5059   -0.2850 H   0  0  0  0  0  0  0  0  0  0  0  0
   -4.0339    2.1897    0.5395 H   0  0  0  0  0  0  0  0  0  0  0  0
   -6.0844    3.3094   -0.0713 H   0  0  0  0  0  0  0  0  0  0  0  0
   -5.3958    2.5119   -1.4937 H   0  0  0  0  0  0  0  0  0  0  0  0
   -6.8013    1.8090   -0.6689 H   0  0  0  0  0  0  0  0  0  0  0  0
   -5.7390    2.2825    2.2600 H   0  0  0  0  0  0  0  0  0  0  0  0
   -4.9105    0.7293    2.4258 H   0  0  0  0  0  0  0  0  0  0  0  0
   -6.5129    0.8009    1.6918 H   0  0  0  0  0  0  0  0  0  0  0  0
   -1.2249    0.6031   -0.9159 H   0  0  0  0  0  0  0  0  0  0  0  0
   -0.5921    2.8956    1.6703 H   0  0  0  0  0  0  0  0  0  0  0  0
   -0.3617    2.6096   -0.0480 H   0  0  0  0  0  0  0  0  0  0  0  0
    0.9328    1.4350    3.3942 H   0  0  0  0  0  0  0  0  0  0  0  0
    3.0005   -0.2229    3.2171 H   0  0  0  0  0  0  0  0  0  0  0  0
    4.6074    1.1656   -0.4516 H   0  0  0  0  0  0  0  0  0  0  0  0
    6.3065    1.1880   -0.0024 H   0  0  0  0  0  0  0  0  0  0  0  0
    5.1179   -0.3692   -2.3867 H   0  0  0  0  0  0  0  0  0  0  0  0
    6.1591    1.0450   -2.4393 H   0  0  0  0  0  0  0  0  0  0  0  0
    6.0652   -2.4617   -1.5401 H   0  0  0  0  0  0  0  0  0  0  0  0
    7.7874   -2.4680   -1.1222 H   0  0  0  0  0  0  0  0  0  0  0  0
    6.4290   -2.4075    0.9869 H   0  0  0  0  0  0  0  0  0  0  0  0
    7.3999   -0.9528    0.8020 H   0  0  0  0  0  0  0  0  0  0  0  0
  1  2  1  0
  2  3  2  0
  3  4  1  0
  4  5  2  0
  5  6  1  0
  6  7  1  0
  7  8  1  0
  7  9  1  0
  6 10  2  0
 10 11  1  0
 11 12  1  0
 12 13  2  0
 12 14  1  0
 14 15  1  0
 15 16  2  0
 16 17  1  0
 17 18  2  0
 18 19  1  0
 19 20  2  0
 19 21  2  0
 19 22  1  0
 22 23  1  0
 23 24  1  0
 24 25  1  0
 25 26  1  0
 26 27  1  0
 18 28  1  0
 10  2  1  0
 28 15  1  0
 27 22  1  0
  1 29  1  0
  1 30  1  0
  1 31  1  0
  3 32  1  0
  4 33  1  0
  5 34  1  0
  7 35  1  0
  8 36  1  0
  8 37  1  0
  8 38  1  0
  9 39  1  0
  9 40  1  0
  9 41  1  0
 11 42  1  0
 14 43  1  0
 14 44  1  0
 16 45  1  0
 17 46  1  0
 23 47  1  0
 23 48  1  0
 24 49  1  0
 24 50  1  0
 26 51  1  0
 26 52  1  0
 27 53  1  0
 27 54  1  0
M  END
$$$$
