
     RDKit          3D

 68 71  0  0  0  0  0  0  0  0999 V2000
    3.7279    4.4863    0.3404 C   0  0  0  0  0  0  0  0  0  0  0  0
    2.3596    4.1535   -0.7984 S   0  0  0  0  0  0  0  0  0  0  0  0
    3.2355    3.1625   -2.0574 C   0  0  0  0  0  0  0  0  0  0  0  0
    3.8794    1.8706   -1.5506 C   0  0  0  0  0  0  0  0  0  0  0  0
    2.9180    0.9140   -0.8265 C   0  0  0  0  0  0  0  0  0  0  0  0
    3.6443   -0.2861   -0.4073 N   0  0  0  0  0  0  0  0  0  0  0  0
    4.3364   -0.3411    0.7767 C   0  0  0  0  0  0  0  0  0  0  0  0
    4.2546    0.5220    1.6442 O   0  0  0  0  0  0  0  0  0  0  0  0
    5.1765   -1.5440    1.0080 C   0  0  0  0  0  0  0  0  0  0  0  0
    5.1547   -2.0816    2.3062 C   0  0  0  0  0  0  0  0  0  0  0  0
    5.9172   -3.2079    2.6217 C   0  0  0  0  0  0  0  0  0  0  0  0
    6.7182   -3.7996    1.6469 C   0  0  0  0  0  0  0  0  0  0  0  0
    6.7570   -3.2648    0.3583 C   0  0  0  0  0  0  0  0  0  0  0  0
    5.9926   -2.1364    0.0340 C   0  0  0  0  0  0  0  0  0  0  0  0
    6.1589   -1.5181   -1.5728 Cl  0  0  0  0  0  0  0  0  0  0  0  0
    1.7907    0.4268   -1.7624 C   0  0  0  0  0  0  0  0  0  0  0  0
    2.0363    0.2044   -2.9535 O   0  0  0  0  0  0  0  0  0  0  0  0
    0.5497    0.1105   -1.2072 N   0  0  0  0  0  0  0  0  0  0  0  0
   -0.5332   -0.1525   -2.1556 C   0  0  0  0  0  0  0  0  0  0  0  0
   -1.7529   -0.8436   -1.5231 C   0  0  0  0  0  0  0  0  0  0  0  0
   -2.2538   -0.0985   -0.3403 N   0  0  0  0  0  0  0  0  0  0  0  0
   -3.4736   -0.7395    0.2420 C   0  0  0  0  0  0  0  0  0  0  0  0
   -4.6152   -0.9214   -0.7681 C   0  0  0  0  0  0  0  0  0  0  0  0
   -5.2748   -2.1596   -0.8638 C   0  0  0  0  0  0  0  0  0  0  0  0
   -6.3239   -2.3425   -1.7672 C   0  0  0  0  0  0  0  0  0  0  0  0
   -6.7336   -1.2908   -2.5840 C   0  0  0  0  0  0  0  0  0  0  0  0
   -6.0958   -0.0547   -2.4978 C   0  0  0  0  0  0  0  0  0  0  0  0
   -5.0468    0.1306   -1.5954 C   0  0  0  0  0  0  0  0  0  0  0  0
   -4.0071   -0.0075    1.4822 C   0  0  0  0  0  0  0  0  0  0  0  0
   -4.4326   -0.7423    2.6015 C   0  0  0  0  0  0  0  0  0  0  0  0
   -4.9262   -0.0935    3.7361 C   0  0  0  0  0  0  0  0  0  0  0  0
   -5.0117    1.2968    3.7647 C   0  0  0  0  0  0  0  0  0  0  0  0
   -4.6093    2.0403    2.6580 C   0  0  0  0  0  0  0  0  0  0  0  0
   -4.1152    1.3940    1.5234 C   0  0  0  0  0  0  0  0  0  0  0  0
   -1.1464   -0.0637    0.6471 C   0  0  0  0  0  0  0  0  0  0  0  0
    0.1180    0.6244    0.0970 C   0  0  0  0  0  0  0  0  0  0  0  0
    4.0250    3.5761    0.8680 H   0  0  0  0  0  0  0  0  0  0  0  0
    3.4028    5.2189    1.0847 H   0  0  0  0  0  0  0  0  0  0  0  0
    4.5834    4.9016   -0.1995 H   0  0  0  0  0  0  0  0  0  0  0  0
    2.5084    2.9313   -2.8433 H   0  0  0  0  0  0  0  0  0  0  0  0
    3.9994    3.7968   -2.5199 H   0  0  0  0  0  0  0  0  0  0  0  0
    4.7209    2.1153   -0.8899 H   0  0  0  0  0  0  0  0  0  0  0  0
    4.3325    1.3596   -2.4109 H   0  0  0  0  0  0  0  0  0  0  0  0
    2.5306    1.4156    0.0593 H   0  0  0  0  0  0  0  0  0  0  0  0
    3.8213   -0.9836   -1.1229 H   0  0  0  0  0  0  0  0  0  0  0  0
    4.5388   -1.6183    3.0765 H   0  0  0  0  0  0  0  0  0  0  0  0
    5.8931   -3.6178    3.6294 H   0  0  0  0  0  0  0  0  0  0  0  0
    7.3211   -4.6727    1.8921 H   0  0  0  0  0  0  0  0  0  0  0  0
    7.3988   -3.7276   -0.3888 H   0  0  0  0  0  0  0  0  0  0  0  0
   -0.1588   -0.7682   -2.9812 H   0  0  0  0  0  0  0  0  0  0  0  0
   -0.8317    0.8141   -2.5816 H   0  0  0  0  0  0  0  0  0  0  0  0
   -2.5163   -0.9124   -2.3053 H   0  0  0  0  0  0  0  0  0  0  0  0
   -1.4843   -1.8713   -1.2405 H   0  0  0  0  0  0  0  0  0  0  0  0
   -3.1662   -1.7454    0.5667 H   0  0  0  0  0  0  0  0  0  0  0  0
   -4.9772   -2.9923   -0.2304 H   0  0  0  0  0  0  0  0  0  0  0  0
   -6.8237   -3.3053   -1.8302 H   0  0  0  0  0  0  0  0  0  0  0  0
   -7.5509   -1.4321   -3.2865 H   0  0  0  0  0  0  0  0  0  0  0  0
   -6.4155    0.7686   -3.1320 H   0  0  0  0  0  0  0  0  0  0  0  0
   -4.5585    1.1010   -1.5429 H   0  0  0  0  0  0  0  0  0  0  0  0
   -4.3844   -1.8280    2.5971 H   0  0  0  0  0  0  0  0  0  0  0  0
   -5.2425   -0.6741    4.6003 H   0  0  0  0  0  0  0  0  0  0  0  0
   -5.3952    1.8015    4.6477 H   0  0  0  0  0  0  0  0  0  0  0  0
   -4.6798    3.1248    2.6758 H   0  0  0  0  0  0  0  0  0  0  0  0
   -3.8004    1.9902    0.6700 H   0  0  0  0  0  0  0  0  0  0  0  0
   -1.4343    0.4820    1.5513 H   0  0  0  0  0  0  0  0  0  0  0  0
   -0.8875   -1.0853    0.9564 H   0  0  0  0  0  0  0  0  0  0  0  0
    0.9154    0.4891    0.8329 H   0  0  0  0  0  0  0  0  0  0  0  0
   -0.0576    1.7009   -0.0220 H   0  0  0  0  0  0  0  0  0  0  0  0
  1  2  1  0
  2  3  1  0
  3  4  1  0
  4  5  1  0
  5  6  1  0
  6  7  1  0
  7  8  2  0
  7  9  1  0
  9 10  2  0
 10 11  1  0
 11 12  2  0
 12 13  1  0
 13 14  2  0
 14 15  1  0
  5 16  1  0
 16 17  2  0
 16 18  1  0
 18 19  1  0
 19 20  1  0
 20 21  1  0
 21 22  1  0
 22 23  1  0
 23 24  2  0
 24 25  1  0
 25 26  2  0
 26 27  1  0
 27 28  2  0
 22 29  1  0
 29 30  2  0
 30 31  1  0
 31 32  2  0
 32 33  1  0
 33 34  2  0
 21 35  1  0
 35 36  1  0
 14  9  1  0
 36 18  1  0
 28 23  1  0
 34 29  1  0
  1 37  1  0
  1 38  1  0
  1 39  1  0
  3 40  1  0
  3 41  1  0
  4 42  1  0
  4 43  1  0
  5 44  1  0
  6 45  1  0
 10 46  1  0
 11 47  1  0
 12 48  1  0
 13 49  1  0
 19 50  1  0
 19 51  1  0
 20 52  1  0
 20 53  1  0
 22 54  1  0
 24 55  1  0
 25 56  1  0
 26 57  1  0
 27 58  1  0
 28 59  1  0
 30 60  1  0
 31 61  1  0
 32 62  1  0
 33 63  1  0
 34 64  1  0
 35 65  1  0
 35 66  1  0
 36 67  1  0
 36 68  1  0
M  END
$$$$
