
     RDKit          3D

 40 42  0  0  0  0  0  0  0  0999 V2000
    6.8192   -1.6776    0.5050 C   0  0  0  0  0  0  0  0  0  0  0  0
    5.4216   -1.4893    0.6901 O   0  0  0  0  0  0  0  0  0  0  0  0
    4.7976   -0.6202   -0.1632 C   0  0  0  0  0  0  0  0  0  0  0  0
    5.4024    0.0865   -1.2000 C   0  0  0  0  0  0  0  0  0  0  0  0
    4.6379    0.9411   -1.9963 C   0  0  0  0  0  0  0  0  0  0  0  0
    3.2689    1.0948   -1.7610 C   0  0  0  0  0  0  0  0  0  0  0  0
    2.6508    0.3969   -0.7248 C   0  0  0  0  0  0  0  0  0  0  0  0
    1.2758    0.4876   -0.4217 N   0  0  0  0  0  0  0  0  0  0  0  0
    0.3377    1.3148   -1.0126 C   0  0  0  0  0  0  0  0  0  0  0  0
    0.5428    2.1725   -1.8627 O   0  0  0  0  0  0  0  0  0  0  0  0
   -1.0523    1.1421   -0.5036 C   0  0  0  0  0  0  0  0  0  0  0  0
   -1.8631    2.2729   -0.3800 C   0  0  0  0  0  0  0  0  0  0  0  0
   -3.1662    2.1484    0.1024 C   0  0  0  0  0  0  0  0  0  0  0  0
   -3.6788    0.8925    0.4612 C   0  0  0  0  0  0  0  0  0  0  0  0
   -2.8801   -0.2549    0.2989 C   0  0  0  0  0  0  0  0  0  0  0  0
   -1.5647   -0.1201   -0.1758 C   0  0  0  0  0  0  0  0  0  0  0  0
   -3.3879   -1.6273    0.6714 C   0  0  0  0  0  0  0  0  0  0  0  0
   -4.9081   -1.6948    0.8029 C   0  0  0  0  0  0  0  0  0  0  0  0
   -5.4226   -0.5274    1.6348 C   0  0  0  0  0  0  0  0  0  0  0  0
   -5.1060    0.7983    0.9455 C   0  0  0  0  0  0  0  0  0  0  0  0
    3.4261   -0.4612    0.0666 C   0  0  0  0  0  0  0  0  0  0  0  0
    7.0324   -2.1081   -0.4790 H   0  0  0  0  0  0  0  0  0  0  0  0
    7.3672   -0.7415    0.6553 H   0  0  0  0  0  0  0  0  0  0  0  0
    7.1634   -2.3896    1.2613 H   0  0  0  0  0  0  0  0  0  0  0  0
    6.4611   -0.0032   -1.4176 H   0  0  0  0  0  0  0  0  0  0  0  0
    5.1069    1.4928   -2.8076 H   0  0  0  0  0  0  0  0  0  0  0  0
    2.7132    1.7657   -2.4087 H   0  0  0  0  0  0  0  0  0  0  0  0
    0.9648   -0.0710    0.3623 H   0  0  0  0  0  0  0  0  0  0  0  0
   -1.4804    3.2531   -0.6572 H   0  0  0  0  0  0  0  0  0  0  0  0
   -3.7843    3.0395    0.1933 H   0  0  0  0  0  0  0  0  0  0  0  0
   -0.9584   -1.0120   -0.3157 H   0  0  0  0  0  0  0  0  0  0  0  0
   -2.9289   -1.9098    1.6272 H   0  0  0  0  0  0  0  0  0  0  0  0
   -3.0673   -2.3598   -0.0791 H   0  0  0  0  0  0  0  0  0  0  0  0
   -5.1953   -2.6454    1.2660 H   0  0  0  0  0  0  0  0  0  0  0  0
   -5.3707   -1.6689   -0.1920 H   0  0  0  0  0  0  0  0  0  0  0  0
   -6.5048   -0.6158    1.7825 H   0  0  0  0  0  0  0  0  0  0  0  0
   -4.9589   -0.5520    2.6291 H   0  0  0  0  0  0  0  0  0  0  0  0
   -5.7672    0.9224    0.0786 H   0  0  0  0  0  0  0  0  0  0  0  0
   -5.3173    1.6172    1.6435 H   0  0  0  0  0  0  0  0  0  0  0  0
    2.9736   -1.0213    0.8807 H   0  0  0  0  0  0  0  0  0  0  0  0
  1  2  1  0
  2  3  1  0
  3  4  2  0
  4  5  1  0
  5  6  2  0
  6  7  1  0
  7  8  1  0
  8  9  1  0
  9 10  2  0
  9 11  1  0
 11 12  2  0
 12 13  1  0
 13 14  2  0
 14 15  1  0
 15 16  2  0
 15 17  1  0
 17 18  1  0
 18 19  1  0
 19 20  1  0
  7 21  2  0
 21  3  1  0
 16 11  1  0
 20 14  1  0
  1 22  1  0
  1 23  1  0
  1 24  1  0
  4 25  1  0
  5 26  1  0
  6 27  1  0
  8 28  1  0
 12 29  1  0
 13 30  1  0
 16 31  1  0
 17 32  1  0
 17 33  1  0
 18 34  1  0
 18 35  1  0
 19 36  1  0
 19 37  1  0
 20 38  1  0
 20 39  1  0
 21 40  1  0
M  END
$$$$
