
     RDKit          3D

 46 48  0  0  0  0  0  0  0  0999 V2000
   -3.6779    3.4185   -0.2077 C   0  0  0  0  0  0  0  0  0  0  0  0
   -2.5138    4.3117    0.1792 C   0  0  0  0  0  0  0  0  0  0  0  0
   -1.3178    3.5314    0.2960 O   0  0  0  0  0  0  0  0  0  0  0  0
   -0.6207    3.3648   -0.8436 C   0  0  0  0  0  0  0  0  0  0  0  0
   -0.8648    3.7915   -1.9571 O   0  0  0  0  0  0  0  0  0  0  0  0
    0.5519    2.4638   -0.5872 C   0  0  0  0  0  0  0  0  0  0  0  0
    1.5154    2.7467    0.2434 N   0  0  0  0  0  0  0  0  0  0  0  0
    2.3803    1.6813    0.1876 N   0  0  0  0  0  0  0  0  0  0  0  0
    2.1063    0.8473   -0.9847 C   0  0  0  0  0  0  0  0  0  0  0  0
    2.4600   -0.6419   -0.9650 C   0  0  0  0  0  0  0  0  0  0  0  0
    2.3530   -1.3152   -1.9946 O   0  0  0  0  0  0  0  0  0  0  0  0
    2.9930   -1.3053    0.2570 C   0  0  0  0  0  0  0  0  0  0  0  0
    2.5735   -0.9741    1.5483 C   0  0  0  0  0  0  0  0  0  0  0  0
    3.1058   -1.6446    2.6531 C   0  0  0  0  0  0  0  0  0  0  0  0
    4.0497   -2.6546    2.4732 C   0  0  0  0  0  0  0  0  0  0  0  0
    4.4586   -3.0039    1.1880 C   0  0  0  0  0  0  0  0  0  0  0  0
    3.9283   -2.3358    0.0829 C   0  0  0  0  0  0  0  0  0  0  0  0
    0.6368    1.1530   -1.3155 C   0  0  0  0  0  0  0  0  0  0  0  0
   -0.3980    0.1496   -0.8420 C   0  0  0  0  0  0  0  0  0  0  0  0
   -0.9091   -0.7834   -1.7566 C   0  0  0  0  0  0  0  0  0  0  0  0
   -1.8570   -1.7361   -1.3649 C   0  0  0  0  0  0  0  0  0  0  0  0
   -2.3106   -1.7740   -0.0486 C   0  0  0  0  0  0  0  0  0  0  0  0
   -3.2299   -2.6470    0.4633 O   0  0  0  0  0  0  0  0  0  0  0  0
   -3.7443   -3.6303   -0.4259 C   0  0  0  0  0  0  0  0  0  0  0  0
   -1.8041   -0.8538    0.8692 C   0  0  0  0  0  0  0  0  0  0  0  0
   -0.8548    0.0959    0.4820 C   0  0  0  0  0  0  0  0  0  0  0  0
   -4.6097    3.9896   -0.2453 H   0  0  0  0  0  0  0  0  0  0  0  0
   -3.7920    2.6019    0.5129 H   0  0  0  0  0  0  0  0  0  0  0  0
   -3.5100    2.9575   -1.1864 H   0  0  0  0  0  0  0  0  0  0  0  0
   -2.7027    4.7604    1.1598 H   0  0  0  0  0  0  0  0  0  0  0  0
   -2.3867    5.1344   -0.5340 H   0  0  0  0  0  0  0  0  0  0  0  0
    3.3399    1.8967    0.4635 H   0  0  0  0  0  0  0  0  0  0  0  0
    2.7453    1.2837   -1.7667 H   0  0  0  0  0  0  0  0  0  0  0  0
    1.8211   -0.2119    1.7238 H   0  0  0  0  0  0  0  0  0  0  0  0
    2.7753   -1.3830    3.6556 H   0  0  0  0  0  0  0  0  0  0  0  0
    4.4580   -3.1769    3.3349 H   0  0  0  0  0  0  0  0  0  0  0  0
    5.1845   -3.8004    1.0444 H   0  0  0  0  0  0  0  0  0  0  0  0
    4.2461   -2.6248   -0.9173 H   0  0  0  0  0  0  0  0  0  0  0  0
    0.5170    1.3369   -2.3901 H   0  0  0  0  0  0  0  0  0  0  0  0
   -0.5606   -0.7896   -2.7889 H   0  0  0  0  0  0  0  0  0  0  0  0
   -2.2130   -2.4353   -2.1142 H   0  0  0  0  0  0  0  0  0  0  0  0
   -2.9473   -4.2823   -0.7984 H   0  0  0  0  0  0  0  0  0  0  0  0
   -4.2949   -3.1665   -1.2510 H   0  0  0  0  0  0  0  0  0  0  0  0
   -4.4482   -4.2526    0.1351 H   0  0  0  0  0  0  0  0  0  0  0  0
   -2.1491   -0.8792    1.9003 H   0  0  0  0  0  0  0  0  0  0  0  0
   -0.4828    0.7857    1.2379 H   0  0  0  0  0  0  0  0  0  0  0  0
  1  2  1  0
  2  3  1  0
  3  4  1  0
  4  5  2  0
  4  6  1  0
  6  7  2  0
  7  8  1  0
  8  9  1  0
  9 10  1  0
 10 11  2  0
 10 12  1  0
 12 13  2  0
 13 14  1  0
 14 15  2  0
 15 16  1  0
 16 17  2  0
  9 18  1  0
 18 19  1  0
 19 20  2  0
 20 21  1  0
 21 22  2  0
 22 23  1  0
 23 24  1  0
 22 25  1  0
 25 26  2  0
 18  6  1  0
 26 19  1  0
 17 12  1  0
  1 27  1  0
  1 28  1  0
  1 29  1  0
  2 30  1  0
  2 31  1  0
  8 32  1  0
  9 33  1  0
 13 34  1  0
 14 35  1  0
 15 36  1  0
 16 37  1  0
 17 38  1  0
 18 39  1  0
 20 40  1  0
 21 41  1  0
 24 42  1  0
 24 43  1  0
 24 44  1  0
 25 45  1  0
 26 46  1  0
M  END
$$$$
