
     RDKit          3D

 51 53  0  0  0  0  0  0  0  0999 V2000
   -6.0046   -0.1674   -1.5107 C   0  0  0  0  0  0  0  0  0  0  0  0
   -4.9895    0.8002   -1.2860 O   0  0  0  0  0  0  0  0  0  0  0  0
   -3.8716    0.3982   -0.5973 C   0  0  0  0  0  0  0  0  0  0  0  0
   -3.7475   -0.8313    0.0566 C   0  0  0  0  0  0  0  0  0  0  0  0
   -2.5711   -1.1637    0.7480 C   0  0  0  0  0  0  0  0  0  0  0  0
   -1.4840   -0.2715    0.7643 C   0  0  0  0  0  0  0  0  0  0  0  0
   -1.6291    0.9766    0.1284 C   0  0  0  0  0  0  0  0  0  0  0  0
   -2.8031    1.3114   -0.5585 C   0  0  0  0  0  0  0  0  0  0  0  0
   -3.0036    2.5066   -1.2036 O   0  0  0  0  0  0  0  0  0  0  0  0
   -1.8629    3.3218   -1.4352 C   0  0  0  0  0  0  0  0  0  0  0  0
   -0.2047   -0.6155    1.5333 C   0  0  0  0  0  0  0  0  0  0  0  0
    1.0779   -0.2132    0.8073 C   0  0  0  0  0  0  0  0  0  0  0  0
    1.9883    0.6714    1.4131 C   0  0  0  0  0  0  0  0  0  0  0  0
    3.1678    1.0382    0.7605 C   0  0  0  0  0  0  0  0  0  0  0  0
    4.1145    1.8886    1.2717 O   0  0  0  0  0  0  0  0  0  0  0  0
    3.8253    2.5340    2.5045 C   0  0  0  0  0  0  0  0  0  0  0  0
    3.4400    0.4979   -0.5090 C   0  0  0  0  0  0  0  0  0  0  0  0
    4.5867    0.8981   -1.1629 O   0  0  0  0  0  0  0  0  0  0  0  0
    5.6096   -0.0807   -0.9968 C   0  0  0  0  0  0  0  0  0  0  0  0
    2.5386   -0.3748   -1.1419 C   0  0  0  0  0  0  0  0  0  0  0  0
    2.8871   -0.8140   -2.3928 O   0  0  0  0  0  0  0  0  0  0  0  0
    1.9485   -1.6298   -3.0817 C   0  0  0  0  0  0  0  0  0  0  0  0
    1.3707   -0.7353   -0.4678 C   0  0  0  0  0  0  0  0  0  0  0  0
   -0.0963   -2.0444    1.8847 N   0  0  0  0  0  0  0  0  0  0  0  0
   -1.3409   -2.5360    2.4681 C   0  0  0  0  0  0  0  0  0  0  0  0
   -2.4666   -2.5040    1.4338 C   0  0  0  0  0  0  0  0  0  0  0  0
   -6.4754   -0.4690   -0.5695 H   0  0  0  0  0  0  0  0  0  0  0  0
   -6.7774    0.2931   -2.1333 H   0  0  0  0  0  0  0  0  0  0  0  0
   -5.6127   -1.0315   -2.0555 H   0  0  0  0  0  0  0  0  0  0  0  0
   -4.5589   -1.5525    0.0526 H   0  0  0  0  0  0  0  0  0  0  0  0
   -0.8060    1.6826    0.1814 H   0  0  0  0  0  0  0  0  0  0  0  0
   -1.0744    2.7689   -1.9552 H   0  0  0  0  0  0  0  0  0  0  0  0
   -2.1693    4.1487   -2.0817 H   0  0  0  0  0  0  0  0  0  0  0  0
   -1.4932    3.7526   -0.4988 H   0  0  0  0  0  0  0  0  0  0  0  0
   -0.2659   -0.0485    2.4735 H   0  0  0  0  0  0  0  0  0  0  0  0
    1.7532    1.0605    2.3987 H   0  0  0  0  0  0  0  0  0  0  0  0
    3.7362    1.8046    3.3152 H   0  0  0  0  0  0  0  0  0  0  0  0
    2.9292    3.1565    2.4292 H   0  0  0  0  0  0  0  0  0  0  0  0
    4.6679    3.1899    2.7427 H   0  0  0  0  0  0  0  0  0  0  0  0
    6.5449    0.3471   -1.3699 H   0  0  0  0  0  0  0  0  0  0  0  0
    5.7568   -0.3389    0.0593 H   0  0  0  0  0  0  0  0  0  0  0  0
    5.3940   -0.9785   -1.5834 H   0  0  0  0  0  0  0  0  0  0  0  0
    1.8097   -2.5879   -2.5689 H   0  0  0  0  0  0  0  0  0  0  0  0
    2.3553   -1.8403   -4.0745 H   0  0  0  0  0  0  0  0  0  0  0  0
    0.9941   -1.1107   -3.2176 H   0  0  0  0  0  0  0  0  0  0  0  0
    0.6560   -1.4256   -0.9063 H   0  0  0  0  0  0  0  0  0  0  0  0
    0.6672   -2.1524    2.5495 H   0  0  0  0  0  0  0  0  0  0  0  0
   -1.6086   -1.9471    3.3563 H   0  0  0  0  0  0  0  0  0  0  0  0
   -1.1981   -3.5704    2.8026 H   0  0  0  0  0  0  0  0  0  0  0  0
   -2.2918   -3.2717    0.6676 H   0  0  0  0  0  0  0  0  0  0  0  0
   -3.4123   -2.7409    1.9380 H   0  0  0  0  0  0  0  0  0  0  0  0
  1  2  1  0
  2  3  1  0
  3  4  2  0
  4  5  1  0
  5  6  2  0
  6  7  1  0
  7  8  2  0
  8  9  1  0
  9 10  1  0
  6 11  1  0
 11 12  1  0
 12 13  2  0
 13 14  1  0
 14 15  1  0
 15 16  1  0
 14 17  2  0
 17 18  1  0
 18 19  1  0
 17 20  1  0
 20 21  1  0
 21 22  1  0
 20 23  2  0
 11 24  1  0
 24 25  1  0
 25 26  1  0
  8  3  1  0
 23 12  1  0
 26  5  1  0
  1 27  1  0
  1 28  1  0
  1 29  1  0
  4 30  1  0
  7 31  1  0
 10 32  1  0
 10 33  1  0
 10 34  1  0
 11 35  1  0
 13 36  1  0
 16 37  1  0
 16 38  1  0
 16 39  1  0
 19 40  1  0
 19 41  1  0
 19 42  1  0
 22 43  1  0
 22 44  1  0
 22 45  1  0
 23 46  1  0
 24 47  1  0
 25 48  1  0
 25 49  1  0
 26 50  1  0
 26 51  1  0
M  END
$$$$
