
     RDKit          3D

 55 57  0  0  0  0  0  0  0  0999 V2000
    7.6088    1.5112   -1.1785 C   0  0  0  0  0  0  0  0  0  0  0  0
    6.6410    1.6568   -0.1470 O   0  0  0  0  0  0  0  0  0  0  0  0
    5.3575    1.2949   -0.4489 C   0  0  0  0  0  0  0  0  0  0  0  0
    4.9108    0.7909   -1.6686 C   0  0  0  0  0  0  0  0  0  0  0  0
    3.5617    0.4574   -1.8429 C   0  0  0  0  0  0  0  0  0  0  0  0
    2.6339    0.6231   -0.8019 C   0  0  0  0  0  0  0  0  0  0  0  0
    1.1760    0.2301   -1.0181 C   0  0  0  0  0  0  0  0  0  0  0  0
    0.0473    1.6694   -0.7683 S   0  0  0  0  0  0  0  0  0  0  0  0
   -0.7476    1.2681    0.7825 C   0  0  0  0  0  0  0  0  0  0  0  0
   -0.6561    2.2503    1.7832 C   0  0  0  0  0  0  0  0  0  0  0  0
   -1.3287    2.1057    2.9955 C   0  0  0  0  0  0  0  0  0  0  0  0
   -2.1177    0.9844    3.2159 C   0  0  0  0  0  0  0  0  0  0  0  0
   -2.2313    0.0072    2.2253 C   0  0  0  0  0  0  0  0  0  0  0  0
   -1.5491    0.1264    1.0012 C   0  0  0  0  0  0  0  0  0  0  0  0
   -1.6931   -0.9233    0.0396 N   0  0  0  0  0  0  0  0  0  0  0  0
   -3.0606   -1.3340   -0.3273 C   0  0  0  0  0  0  0  0  0  0  0  0
   -3.6548   -0.4312   -1.4312 C   0  0  0  0  0  0  0  0  0  0  0  0
   -5.0394   -0.7856   -1.8076 N   0  0  0  0  0  0  0  0  0  0  0  0
   -5.3923   -0.1341   -3.0725 C   0  0  0  0  0  0  0  0  0  0  0  0
   -6.0000   -0.3989   -0.7721 C   0  0  0  0  0  0  0  0  0  0  0  0
   -0.6439   -1.4207   -0.7352 C   0  0  0  0  0  0  0  0  0  0  0  0
   -0.8360   -2.0965   -1.7513 O   0  0  0  0  0  0  0  0  0  0  0  0
    0.7972   -1.0850   -0.3135 C   0  0  0  0  0  0  0  0  0  0  0  0
    1.0581   -1.0337    1.0953 O   0  0  0  0  0  0  0  0  0  0  0  0
    0.9522   -2.2189    1.7497 C   0  0  0  0  0  0  0  0  0  0  0  0
    1.2521   -2.0283    3.2045 C   0  0  0  0  0  0  0  0  0  0  0  0
    0.6483   -3.2854    1.2385 O   0  0  0  0  0  0  0  0  0  0  0  0
    3.0969    1.1291    0.4214 C   0  0  0  0  0  0  0  0  0  0  0  0
    4.4435    1.4611    0.5920 C   0  0  0  0  0  0  0  0  0  0  0  0
    7.7144    0.4625   -1.4754 H   0  0  0  0  0  0  0  0  0  0  0  0
    8.5730    1.8432   -0.7816 H   0  0  0  0  0  0  0  0  0  0  0  0
    7.3673    2.1441   -2.0388 H   0  0  0  0  0  0  0  0  0  0  0  0
    5.5833    0.6435   -2.5070 H   0  0  0  0  0  0  0  0  0  0  0  0
    3.2447    0.0650   -2.8078 H   0  0  0  0  0  0  0  0  0  0  0  0
    1.0578    0.0470   -2.0952 H   0  0  0  0  0  0  0  0  0  0  0  0
   -0.0651    3.1501    1.6185 H   0  0  0  0  0  0  0  0  0  0  0  0
   -1.2440    2.8744    3.7598 H   0  0  0  0  0  0  0  0  0  0  0  0
   -2.6443    0.8655    4.1599 H   0  0  0  0  0  0  0  0  0  0  0  0
   -2.8277   -0.8745    2.4474 H   0  0  0  0  0  0  0  0  0  0  0  0
   -3.6987   -1.3424    0.5588 H   0  0  0  0  0  0  0  0  0  0  0  0
   -3.0296   -2.3701   -0.6879 H   0  0  0  0  0  0  0  0  0  0  0  0
   -3.5991    0.6230   -1.1286 H   0  0  0  0  0  0  0  0  0  0  0  0
   -3.0076   -0.5285   -2.3128 H   0  0  0  0  0  0  0  0  0  0  0  0
   -5.3414    0.9587   -3.0030 H   0  0  0  0  0  0  0  0  0  0  0  0
   -6.4058   -0.4142   -3.3811 H   0  0  0  0  0  0  0  0  0  0  0  0
   -4.7223   -0.4617   -3.8754 H   0  0  0  0  0  0  0  0  0  0  0  0
   -5.8221   -0.9437    0.1597 H   0  0  0  0  0  0  0  0  0  0  0  0
   -5.9672    0.6754   -0.5574 H   0  0  0  0  0  0  0  0  0  0  0  0
   -7.0202   -0.6545   -1.0812 H   0  0  0  0  0  0  0  0  0  0  0  0
    1.4410   -1.8763   -0.7257 H   0  0  0  0  0  0  0  0  0  0  0  0
    0.4920   -1.3882    3.6587 H   0  0  0  0  0  0  0  0  0  0  0  0
    1.2411   -2.9997    3.7070 H   0  0  0  0  0  0  0  0  0  0  0  0
    2.2459   -1.5890    3.3243 H   0  0  0  0  0  0  0  0  0  0  0  0
    2.4168    1.2719    1.2579 H   0  0  0  0  0  0  0  0  0  0  0  0
    4.7834    1.8538    1.5473 H   0  0  0  0  0  0  0  0  0  0  0  0
  1  2  1  0
  2  3  1  0
  3  4  2  0
  4  5  1  0
  5  6  2  0
  6  7  1  0
  7  8  1  0
  8  9  1  0
  9 10  2  0
 10 11  1  0
 11 12  2  0
 12 13  1  0
 13 14  2  0
 14 15  1  0
 15 16  1  0
 16 17  1  0
 17 18  1  0
 18 19  1  0
 18 20  1  0
 15 21  1  0
 21 22  2  0
 21 23  1  0
 23 24  1  0
 24 25  1  0
 25 26  1  0
 25 27  2  0
  6 28  1  0
 28 29  2  0
 29  3  1  0
 23  7  1  0
 14  9  1  0
  1 30  1  0
  1 31  1  0
  1 32  1  0
  4 33  1  0
  5 34  1  0
  7 35  1  0
 10 36  1  0
 11 37  1  0
 12 38  1  0
 13 39  1  0
 16 40  1  0
 16 41  1  0
 17 42  1  0
 17 43  1  0
 19 44  1  0
 19 45  1  0
 19 46  1  0
 20 47  1  0
 20 48  1  0
 20 49  1  0
 23 50  1  0
 26 51  1  0
 26 52  1  0
 26 53  1  0
 28 54  1  0
 29 55  1  0
M  END
$$$$
