
     RDKit          3D

 38 39  0  0  0  0  0  0  0  0999 V2000
   -5.4797   -0.4157    2.9733 C   0  0  0  0  0  0  0  0  0  0  0  0
   -5.1382    0.5452    1.9836 O   0  0  0  0  0  0  0  0  0  0  0  0
   -3.9865    0.3384    1.2650 C   0  0  0  0  0  0  0  0  0  0  0  0
   -3.0496   -0.6615    1.5462 C   0  0  0  0  0  0  0  0  0  0  0  0
   -1.8928   -0.7871    0.7709 C   0  0  0  0  0  0  0  0  0  0  0  0
   -1.6624    0.0888   -0.2948 C   0  0  0  0  0  0  0  0  0  0  0  0
   -0.4229   -0.0200   -1.1316 C   0  0  0  0  0  0  0  0  0  0  0  0
   -0.4020    0.5639   -2.2921 N   0  0  0  0  0  0  0  0  0  0  0  0
    0.6592   -0.7323   -0.6598 N   0  0  0  0  0  0  0  0  0  0  0  0
    1.8767   -0.3545   -1.2640 O   0  0  0  0  0  0  0  0  0  0  0  0
    2.8993   -0.3138   -0.3437 C   0  0  0  0  0  0  0  0  0  0  0  0
    2.7263   -0.5223    0.8521 O   0  0  0  0  0  0  0  0  0  0  0  0
    4.1917    0.0703   -1.0268 C   0  0  0  0  0  0  0  0  0  0  0  0
    5.3552   -0.6255   -0.3893 C   0  0  0  0  0  0  0  0  0  0  0  0
    5.8453   -1.8905   -0.6606 C   0  0  0  0  0  0  0  0  0  0  0  0
    6.9696   -2.2182    0.1506 C   0  0  0  0  0  0  0  0  0  0  0  0
    7.3074   -1.1916    1.0057 C   0  0  0  0  0  0  0  0  0  0  0  0
    6.2753    0.1598    0.8273 S   0  0  0  0  0  0  0  0  0  0  0  0
   -2.6054    1.0833   -0.5892 C   0  0  0  0  0  0  0  0  0  0  0  0
   -3.7625    1.2180    0.1862 C   0  0  0  0  0  0  0  0  0  0  0  0
   -4.7340    2.1650   -0.0288 O   0  0  0  0  0  0  0  0  0  0  0  0
   -4.5444    3.0723   -1.1046 C   0  0  0  0  0  0  0  0  0  0  0  0
   -6.4231   -0.1033    3.4302 H   0  0  0  0  0  0  0  0  0  0  0  0
   -4.7279   -0.4590    3.7678 H   0  0  0  0  0  0  0  0  0  0  0  0
   -5.6364   -1.4017    2.5234 H   0  0  0  0  0  0  0  0  0  0  0  0
   -3.1894   -1.3604    2.3644 H   0  0  0  0  0  0  0  0  0  0  0  0
   -1.1961   -1.5864    1.0106 H   0  0  0  0  0  0  0  0  0  0  0  0
    0.5090    0.3538   -2.7138 H   0  0  0  0  0  0  0  0  0  0  0  0
    0.7475   -0.7856    0.3606 H   0  0  0  0  0  0  0  0  0  0  0  0
    4.2902    1.1607   -0.9899 H   0  0  0  0  0  0  0  0  0  0  0  0
    4.1428   -0.2228   -2.0828 H   0  0  0  0  0  0  0  0  0  0  0  0
    5.4168   -2.5569   -1.4028 H   0  0  0  0  0  0  0  0  0  0  0  0
    7.5049   -3.1596    0.1110 H   0  0  0  0  0  0  0  0  0  0  0  0
    8.1135   -1.1739    1.7292 H   0  0  0  0  0  0  0  0  0  0  0  0
   -2.4100    1.7425   -1.4299 H   0  0  0  0  0  0  0  0  0  0  0  0
   -4.5268    2.5483   -2.0651 H   0  0  0  0  0  0  0  0  0  0  0  0
   -3.6408    3.6760   -0.9627 H   0  0  0  0  0  0  0  0  0  0  0  0
   -5.3997    3.7565   -1.1176 H   0  0  0  0  0  0  0  0  0  0  0  0
  1  2  1  0
  2  3  1  0
  3  4  2  0
  4  5  1  0
  5  6  2  0
  6  7  1  0
  7  8  2  3
  7  9  1  0
  9 10  1  0
 10 11  1  0
 11 12  2  0
 11 13  1  0
 13 14  1  0
 14 15  2  0
 15 16  1  0
 16 17  2  0
 17 18  1  0
  6 19  1  0
 19 20  2  0
 20 21  1  0
 21 22  1  0
 20  3  1  0
 18 14  1  0
  1 23  1  0
  1 24  1  0
  1 25  1  0
  4 26  1  0
  5 27  1  0
  8 28  1  0
  9 29  1  0
 13 30  1  0
 13 31  1  0
 15 32  1  0
 16 33  1  0
 17 34  1  0
 19 35  1  0
 22 36  1  0
 22 37  1  0
 22 38  1  0
M  END
$$$$
