
     RDKit          3D

 36 37  0  0  0  0  0  0  0  0999 V2000
    6.5711   -0.0908   -0.3851 C   0  0  0  0  0  0  0  0  0  0  0  0
    5.1961    0.3424   -0.3950 N   0  0  0  0  0  0  0  0  0  0  0  0
    4.1645   -0.5744   -0.2970 C   0  0  0  0  0  0  0  0  0  0  0  0
    4.3485   -1.7878   -0.2712 O   0  0  0  0  0  0  0  0  0  0  0  0
    2.7821    0.0730   -0.2305 C   0  0  0  0  0  0  0  0  0  0  0  0
    1.7641   -0.9204   -0.1282 O   0  0  0  0  0  0  0  0  0  0  0  0
    0.5063   -0.4306   -0.0566 C   0  0  0  0  0  0  0  0  0  0  0  0
    0.2134    0.7579   -0.0714 O   0  0  0  0  0  0  0  0  0  0  0  0
   -0.5007   -1.5324    0.0458 C   0  0  0  0  0  0  0  0  0  0  0  0
   -0.0694   -2.8732    0.0541 C   0  0  0  0  0  0  0  0  0  0  0  0
   -0.9904   -3.9141    0.1492 C   0  0  0  0  0  0  0  0  0  0  0  0
   -2.3467   -3.6268    0.2366 C   0  0  0  0  0  0  0  0  0  0  0  0
   -2.7895   -2.3003    0.2294 C   0  0  0  0  0  0  0  0  0  0  0  0
   -1.8845   -1.2350    0.1347 C   0  0  0  0  0  0  0  0  0  0  0  0
   -2.3092    0.1197    0.1246 N   0  0  0  0  0  0  0  0  0  0  0  0
   -3.5934    0.6372    0.2026 C   0  0  0  0  0  0  0  0  0  0  0  0
   -4.6070   -0.0486    0.2995 O   0  0  0  0  0  0  0  0  0  0  0  0
   -3.6470    2.0951    0.1603 C   0  0  0  0  0  0  0  0  0  0  0  0
   -2.6855    3.0891    0.0537 C   0  0  0  0  0  0  0  0  0  0  0  0
   -3.3679    4.3315    0.0669 C   0  0  0  0  0  0  0  0  0  0  0  0
   -4.7023    4.0313    0.1801 C   0  0  0  0  0  0  0  0  0  0  0  0
   -4.8826    2.6893    0.2371 O   0  0  0  0  0  0  0  0  0  0  0  0
    6.6941   -0.9811   -1.0077 H   0  0  0  0  0  0  0  0  0  0  0  0
    6.8568   -0.3235    0.6441 H   0  0  0  0  0  0  0  0  0  0  0  0
    7.1941    0.7208   -0.7679 H   0  0  0  0  0  0  0  0  0  0  0  0
    5.0028    1.3211   -0.2254 H   0  0  0  0  0  0  0  0  0  0  0  0
    2.6363    0.6593   -1.1451 H   0  0  0  0  0  0  0  0  0  0  0  0
    2.7531    0.7241    0.6510 H   0  0  0  0  0  0  0  0  0  0  0  0
    0.9873   -3.1265   -0.0134 H   0  0  0  0  0  0  0  0  0  0  0  0
   -0.6490   -4.9466    0.1548 H   0  0  0  0  0  0  0  0  0  0  0  0
   -3.0715   -4.4347    0.3110 H   0  0  0  0  0  0  0  0  0  0  0  0
   -3.8611   -2.1392    0.2999 H   0  0  0  0  0  0  0  0  0  0  0  0
   -1.5526    0.7968    0.0501 H   0  0  0  0  0  0  0  0  0  0  0  0
   -1.6161    2.9501   -0.0253 H   0  0  0  0  0  0  0  0  0  0  0  0
   -2.9397    5.3219    0.0016 H   0  0  0  0  0  0  0  0  0  0  0  0
   -5.6044    4.6252    0.2311 H   0  0  0  0  0  0  0  0  0  0  0  0
  1  2  1  0
  2  3  1  0
  3  4  2  0
  3  5  1  0
  5  6  1  0
  6  7  1  0
  7  8  2  0
  7  9  1  0
  9 10  2  0
 10 11  1  0
 11 12  2  0
 12 13  1  0
 13 14  2  0
 14 15  1  0
 15 16  1  0
 16 17  2  0
 16 18  1  0
 18 19  2  0
 19 20  1  0
 20 21  2  0
 21 22  1  0
 14  9  1  0
 22 18  1  0
  1 23  1  0
  1 24  1  0
  1 25  1  0
  2 26  1  0
  5 27  1  0
  5 28  1  0
 10 29  1  0
 11 30  1  0
 12 31  1  0
 13 32  1  0
 15 33  1  0
 19 34  1  0
 20 35  1  0
 21 36  1  0
M  END
$$$$
