
     RDKit          3D

 40 43  0  0  0  0  0  0  0  0999 V2000
    2.2570   -2.9294   -0.5409 O   0  0  0  0  0  0  0  0  0  0  0  0
    1.9696   -1.7622    0.2620 S   0  0  0  0  0  6  0  0  0  0  0  0
    1.5262   -1.8955    1.6358 O   0  0  0  0  0  0  0  0  0  0  0  0
    3.4075   -0.7669    0.2633 C   0  0  0  0  0  0  0  0  0  0  0  0
    4.0973   -0.4734    1.4613 C   0  0  0  0  0  0  0  0  0  0  0  0
    5.2639    0.3321    1.4951 C   0  0  0  0  0  0  0  0  0  0  0  0
    5.8301    0.9060    0.3417 C   0  0  0  0  0  0  0  0  0  0  0  0
    5.1504    0.6205   -0.8587 C   0  0  0  0  0  0  0  0  0  0  0  0
    5.4388    1.0210   -2.1016 N   0  0  0  0  0  0  0  0  0  0  0  0
    4.4649    0.4655   -2.9115 O   0  0  0  0  0  0  0  0  0  0  0  0
    3.5542   -0.2767   -2.1838 N   0  0  0  0  0  0  0  0  0  0  0  0
    3.9493   -0.2085   -0.9055 C   0  0  0  0  0  0  0  0  0  0  0  0
    0.8122   -0.8080   -0.5308 N   0  0  0  0  0  0  0  0  0  0  0  0
    0.3559    0.4188    0.1953 C   0  0  0  0  0  0  0  0  0  0  0  0
   -1.0286    0.2426    0.8478 C   0  0  0  0  0  0  0  0  0  0  0  0
   -2.0497   -0.1100   -0.1535 N   0  0  0  0  0  0  0  0  0  0  0  0
   -3.3572    0.3481   -0.0397 C   0  0  0  0  0  0  0  0  0  0  0  0
   -3.9188    0.6110    1.2238 C   0  0  0  0  0  0  0  0  0  0  0  0
   -5.2370    1.0636    1.3761 C   0  0  0  0  0  0  0  0  0  0  0  0
   -6.0410    1.2661    0.2607 C   0  0  0  0  0  0  0  0  0  0  0  0
   -5.5246    1.0115   -1.0036 C   0  0  0  0  0  0  0  0  0  0  0  0
   -4.2097    0.5593   -1.1438 C   0  0  0  0  0  0  0  0  0  0  0  0
   -3.7699    0.3586   -2.3973 F   0  0  0  0  0  0  0  0  0  0  0  0
   -1.5654   -0.7462   -1.3913 C   0  0  0  0  0  0  0  0  0  0  0  0
   -0.3188   -1.6057   -1.1116 C   0  0  0  0  0  0  0  0  0  0  0  0
    3.7293   -0.8843    2.4037 H   0  0  0  0  0  0  0  0  0  0  0  0
    5.7457    0.5118    2.4576 H   0  0  0  0  0  0  0  0  0  0  0  0
    6.7217    1.5198    0.3695 H   0  0  0  0  0  0  0  0  0  0  0  0
    0.3245    1.2362   -0.5361 H   0  0  0  0  0  0  0  0  0  0  0  0
    1.0831    0.7196    0.9566 H   0  0  0  0  0  0  0  0  0  0  0  0
   -1.2743    1.1879    1.3464 H   0  0  0  0  0  0  0  0  0  0  0  0
   -0.9907   -0.5441    1.6100 H   0  0  0  0  0  0  0  0  0  0  0  0
   -3.3413    0.4367    2.1282 H   0  0  0  0  0  0  0  0  0  0  0  0
   -5.6322    1.2477    2.3723 H   0  0  0  0  0  0  0  0  0  0  0  0
   -7.0633    1.6157    0.3758 H   0  0  0  0  0  0  0  0  0  0  0  0
   -6.1310    1.1629   -1.8908 H   0  0  0  0  0  0  0  0  0  0  0  0
   -1.3261    0.0255   -2.1328 H   0  0  0  0  0  0  0  0  0  0  0  0
   -2.3316   -1.4092   -1.8100 H   0  0  0  0  0  0  0  0  0  0  0  0
   -0.5945   -2.4107   -0.4189 H   0  0  0  0  0  0  0  0  0  0  0  0
    0.0242   -2.0574   -2.0488 H   0  0  0  0  0  0  0  0  0  0  0  0
  1  2  2  0
  2  3  2  0
  2  4  1  0
  4  5  2  0
  5  6  1  0
  6  7  2  0
  7  8  1  0
  8  9  2  0
  9 10  1  0
 10 11  1  0
 11 12  2  0
  2 13  1  0
 13 14  1  0
 14 15  1  0
 15 16  1  0
 16 17  1  0
 17 18  2  0
 18 19  1  0
 19 20  2  0
 20 21  1  0
 21 22  2  0
 22 23  1  0
 16 24  1  0
 24 25  1  0
 12  4  1  0
 25 13  1  0
 12  8  1  0
 22 17  1  0
  5 26  1  0
  6 27  1  0
  7 28  1  0
 14 29  1  0
 14 30  1  0
 15 31  1  0
 15 32  1  0
 18 33  1  0
 19 34  1  0
 20 35  1  0
 21 36  1  0
 24 37  1  0
 24 38  1  0
 25 39  1  0
 25 40  1  0
M  END
$$$$
