
     RDKit          3D

 40 42  0  0  0  0  0  0  0  0999 V2000
    6.0704    1.3036    0.6621 C   0  0  0  0  0  0  0  0  0  0  0  0
    5.4843    0.4225   -0.4304 C   0  0  0  0  0  0  0  0  0  0  0  0
    3.9896    0.2795   -0.2934 C   0  0  0  0  0  0  0  0  0  0  0  0
    3.4438   -0.7524    0.4792 C   0  0  0  0  0  0  0  0  0  0  0  0
    2.0593   -0.8769    0.6180 C   0  0  0  0  0  0  0  0  0  0  0  0
    1.2014    0.0323   -0.0113 C   0  0  0  0  0  0  0  0  0  0  0  0
   -0.2624   -0.1257    0.1595 C   0  0  0  0  0  0  0  0  0  0  0  0
   -0.7876   -1.0038    0.9579 N   0  0  0  0  0  0  0  0  0  0  0  0
   -2.2679   -0.8905    0.7953 N   0  0  0  0  0  0  0  0  0  0  0  0
   -3.2578   -1.0100    2.1749 S   0  0  0  0  0  6  0  0  0  0  0  0
   -2.5567    0.2580    3.2092 C   0  0  0  0  0  0  0  0  0  0  0  0
   -3.0229   -2.2804    2.8292 O   0  0  0  0  0  0  0  0  0  0  0  0
   -4.5989   -0.5858    1.8216 O   0  0  0  0  0  0  0  0  0  0  0  0
   -2.5957    0.1497   -0.2023 C   0  0  0  0  0  0  0  0  0  0  0  0
   -3.3030   -0.4868   -1.3730 C   0  0  0  0  0  0  0  0  0  0  0  0
   -4.6282   -0.3189   -1.7360 C   0  0  0  0  0  0  0  0  0  0  0  0
   -4.9834   -1.0748   -2.8897 C   0  0  0  0  0  0  0  0  0  0  0  0
   -3.9230   -1.8073   -3.3706 C   0  0  0  0  0  0  0  0  0  0  0  0
   -2.5134   -1.5879   -2.4318 S   0  0  0  0  0  0  0  0  0  0  0  0
   -1.2433    0.7757   -0.5482 C   0  0  0  0  0  0  0  0  0  0  0  0
    1.7413    1.0690   -0.7790 C   0  0  0  0  0  0  0  0  0  0  0  0
    3.1277    1.1913   -0.9160 C   0  0  0  0  0  0  0  0  0  0  0  0
    5.8745    0.8873    1.6561 H   0  0  0  0  0  0  0  0  0  0  0  0
    5.6442    2.3121    0.6305 H   0  0  0  0  0  0  0  0  0  0  0  0
    7.1545    1.3896    0.5380 H   0  0  0  0  0  0  0  0  0  0  0  0
    5.7260    0.8420   -1.4146 H   0  0  0  0  0  0  0  0  0  0  0  0
    5.9542   -0.5682   -0.3997 H   0  0  0  0  0  0  0  0  0  0  0  0
    4.0930   -1.4693    0.9781 H   0  0  0  0  0  0  0  0  0  0  0  0
    1.6599   -1.6925    1.2182 H   0  0  0  0  0  0  0  0  0  0  0  0
   -3.1456    0.3024    4.1283 H   0  0  0  0  0  0  0  0  0  0  0  0
   -1.5241   -0.0007    3.4492 H   0  0  0  0  0  0  0  0  0  0  0  0
   -2.6128    1.2170    2.6914 H   0  0  0  0  0  0  0  0  0  0  0  0
   -3.2348    0.9322    0.2235 H   0  0  0  0  0  0  0  0  0  0  0  0
   -5.3209    0.3075   -1.1849 H   0  0  0  0  0  0  0  0  0  0  0  0
   -5.9707   -1.0913   -3.3349 H   0  0  0  0  0  0  0  0  0  0  0  0
   -3.9103   -2.4734   -4.2223 H   0  0  0  0  0  0  0  0  0  0  0  0
   -1.1654    1.7751   -0.1044 H   0  0  0  0  0  0  0  0  0  0  0  0
   -1.0398    0.8483   -1.6195 H   0  0  0  0  0  0  0  0  0  0  0  0
    1.1105    1.7969   -1.2798 H   0  0  0  0  0  0  0  0  0  0  0  0
    3.5339    2.0048   -1.5142 H   0  0  0  0  0  0  0  0  0  0  0  0
  1  2  1  0
  2  3  1  0
  3  4  2  0
  4  5  1  0
  5  6  2  0
  6  7  1  0
  7  8  2  0
  8  9  1  0
  9 10  1  0
 10 11  1  0
 10 12  2  0
 10 13  2  0
  9 14  1  0
 14 15  1  0
 15 16  2  0
 16 17  1  0
 17 18  2  0
 18 19  1  0
 14 20  1  0
  6 21  1  0
 21 22  2  0
 22  3  1  0
 20  7  1  0
 19 15  1  0
  1 23  1  0
  1 24  1  0
  1 25  1  0
  2 26  1  0
  2 27  1  0
  4 28  1  0
  5 29  1  0
 11 30  1  0
 11 31  1  0
 11 32  1  0
 14 33  1  0
 16 34  1  0
 17 35  1  0
 18 36  1  0
 20 37  1  0
 20 38  1  0
 21 39  1  0
 22 40  1  0
M  END
$$$$
