
     RDKit          3D

 54 57  0  0  0  0  0  0  0  0999 V2000
    8.2632   -0.9569    2.1104 C   0  0  0  0  0  0  0  0  0  0  0  0
    6.8721   -0.6650    2.1072 O   0  0  0  0  0  0  0  0  0  0  0  0
    6.1549   -1.0598    1.0103 C   0  0  0  0  0  0  0  0  0  0  0  0
    6.6706   -1.7132   -0.1083 C   0  0  0  0  0  0  0  0  0  0  0  0
    5.8258   -2.0577   -1.1637 C   0  0  0  0  0  0  0  0  0  0  0  0
    4.4656   -1.7510   -1.1023 C   0  0  0  0  0  0  0  0  0  0  0  0
    3.9330   -1.0983    0.0155 C   0  0  0  0  0  0  0  0  0  0  0  0
    2.5499   -0.8194   -0.0061 N   0  0  0  0  0  0  0  0  0  0  0  0
    1.7936   -0.2301    0.9901 C   0  0  0  0  0  0  0  0  0  0  0  0
    2.1721    0.1031    2.1060 O   0  0  0  0  0  0  0  0  0  0  0  0
    0.3691   -0.0515    0.5945 C   0  0  0  0  0  0  0  0  0  0  0  0
   -0.5788   -0.3091    1.5100 C   0  0  0  0  0  0  0  0  0  0  0  0
   -1.9990   -0.2726    1.1961 C   0  0  0  0  0  0  0  0  0  0  0  0
   -2.9933   -0.5747    2.2651 C   0  0  0  0  0  0  0  0  0  0  0  0
   -2.6080   -0.8463    3.4043 O   0  0  0  0  0  0  0  0  0  0  0  0
   -4.3234   -0.5339    1.8867 N   0  0  0  0  0  0  0  0  0  0  0  0
   -5.3128   -0.7904    2.8304 C   0  0  0  0  0  0  0  0  0  0  0  0
   -6.6128   -0.7734    2.5111 C   0  0  0  0  0  0  0  0  0  0  0  0
   -7.0141   -0.4857    1.1603 C   0  0  0  0  0  0  0  0  0  0  0  0
   -6.0952   -0.2351    0.2202 C   0  0  0  0  0  0  0  0  0  0  0  0
   -4.6470   -0.2521    0.5732 C   0  0  0  0  0  0  0  0  0  0  0  0
   -3.7819   -0.0064   -0.3569 N   0  0  0  0  0  0  0  0  0  0  0  0
   -2.4384   -0.0032   -0.0552 C   0  0  0  0  0  0  0  0  0  0  0  0
   -1.4824    0.2909   -1.0622 N   0  0  0  0  0  0  0  0  0  0  0  0
   -1.9482    0.6381   -2.4206 C   0  0  0  0  0  0  0  0  0  0  0  0
   -2.4802    2.0836   -2.5136 C   0  0  0  0  0  0  0  0  0  0  0  0
   -3.1438    2.3007   -3.8762 C   0  0  0  0  0  0  0  0  0  0  0  0
   -1.3842    3.1292   -2.3037 C   0  0  0  0  0  0  0  0  0  0  0  0
   -0.1104    0.3326   -0.7775 C   0  0  0  0  0  0  0  0  0  0  0  0
    0.7468    0.7060   -1.6873 N   0  0  0  0  0  0  0  0  0  0  0  0
    4.7877   -0.7551    1.0651 C   0  0  0  0  0  0  0  0  0  0  0  0
    8.6812   -0.5831    3.0501 H   0  0  0  0  0  0  0  0  0  0  0  0
    8.4403   -2.0368    2.0737 H   0  0  0  0  0  0  0  0  0  0  0  0
    8.7761   -0.4434    1.2905 H   0  0  0  0  0  0  0  0  0  0  0  0
    7.7221   -1.9664   -0.1903 H   0  0  0  0  0  0  0  0  0  0  0  0
    6.2285   -2.5655   -2.0366 H   0  0  0  0  0  0  0  0  0  0  0  0
    3.8326   -2.0298   -1.9411 H   0  0  0  0  0  0  0  0  0  0  0  0
    2.0535   -1.1382   -0.8334 H   0  0  0  0  0  0  0  0  0  0  0  0
   -0.2999   -0.5985    2.5223 H   0  0  0  0  0  0  0  0  0  0  0  0
   -4.9856   -1.0065    3.8447 H   0  0  0  0  0  0  0  0  0  0  0  0
   -7.3774   -0.9742    3.2547 H   0  0  0  0  0  0  0  0  0  0  0  0
   -8.0734   -0.4772    0.9243 H   0  0  0  0  0  0  0  0  0  0  0  0
   -6.3551   -0.0140   -0.8074 H   0  0  0  0  0  0  0  0  0  0  0  0
   -2.7400   -0.0649   -2.7129 H   0  0  0  0  0  0  0  0  0  0  0  0
   -1.1583    0.4813   -3.1658 H   0  0  0  0  0  0  0  0  0  0  0  0
   -3.2451    2.2459   -1.7448 H   0  0  0  0  0  0  0  0  0  0  0  0
   -3.9673    1.5942   -4.0247 H   0  0  0  0  0  0  0  0  0  0  0  0
   -3.5566    3.3123   -3.9520 H   0  0  0  0  0  0  0  0  0  0  0  0
   -2.4274    2.1647   -4.6935 H   0  0  0  0  0  0  0  0  0  0  0  0
   -0.9650    3.0674   -1.2948 H   0  0  0  0  0  0  0  0  0  0  0  0
   -0.5700    3.0035   -3.0251 H   0  0  0  0  0  0  0  0  0  0  0  0
   -1.7862    4.1410   -2.4251 H   0  0  0  0  0  0  0  0  0  0  0  0
    1.7001    0.7878   -1.3161 H   0  0  0  0  0  0  0  0  0  0  0  0
    4.4223   -0.2428    1.9500 H   0  0  0  0  0  0  0  0  0  0  0  0
  1  2  1  0
  2  3  1  0
  3  4  2  0
  4  5  1  0
  5  6  2  0
  6  7  1  0
  7  8  1  0
  8  9  1  0
  9 10  2  0
  9 11  1  0
 11 12  2  0
 12 13  1  0
 13 14  1  0
 14 15  2  0
 14 16  1  0
 16 17  1  0
 17 18  2  0
 18 19  1  0
 19 20  2  0
 20 21  1  0
 21 22  2  0
 22 23  1  0
 23 24  1  0
 24 25  1  0
 25 26  1  0
 26 27  1  0
 26 28  1  0
 24 29  1  0
 29 30  2  3
  7 31  2  0
 31  3  1  0
 29 11  1  0
 23 13  2  0
 21 16  1  0
  1 32  1  0
  1 33  1  0
  1 34  1  0
  4 35  1  0
  5 36  1  0
  6 37  1  0
  8 38  1  0
 12 39  1  0
 17 40  1  0
 18 41  1  0
 19 42  1  0
 20 43  1  0
 25 44  1  0
 25 45  1  0
 26 46  1  0
 27 47  1  0
 27 48  1  0
 27 49  1  0
 28 50  1  0
 28 51  1  0
 28 52  1  0
 30 53  1  0
 31 54  1  0
M  END
$$$$
