
     RDKit          3D

 42 44  0  0  0  0  0  0  0  0999 V2000
   -2.4286   -0.2962   -4.3488 C   0  0  0  0  0  0  0  0  0  0  0  0
   -2.9324   -0.1890   -2.9649 C   0  0  0  0  0  0  0  0  0  0  0  0
   -4.2805   -0.1790   -2.8176 O   0  0  0  0  0  0  0  0  0  0  0  0
   -4.5990   -0.0913   -1.4808 N   0  0  0  0  0  0  0  0  0  0  0  0
   -3.4337   -0.0598   -0.8186 C   0  0  0  0  0  0  0  0  0  0  0  0
   -3.4302   -0.0399    0.6363 C   0  0  0  0  0  0  0  0  0  0  0  0
   -3.8180    1.1275    1.3029 C   0  0  0  0  0  0  0  0  0  0  0  0
   -4.1531    2.2243    0.6073 F   0  0  0  0  0  0  0  0  0  0  0  0
   -3.8179    1.2044    2.6938 C   0  0  0  0  0  0  0  0  0  0  0  0
   -3.4263    0.1005    3.4460 C   0  0  0  0  0  0  0  0  0  0  0  0
   -3.0337   -1.0731    2.8008 C   0  0  0  0  0  0  0  0  0  0  0  0
   -3.0347   -1.1458    1.4023 C   0  0  0  0  0  0  0  0  0  0  0  0
   -2.5154   -2.6292    0.6810 Cl  0  0  0  0  0  0  0  0  0  0  0  0
   -2.3298   -0.0853   -1.7269 C   0  0  0  0  0  0  0  0  0  0  0  0
   -0.8976   -0.0671   -1.5058 C   0  0  0  0  0  0  0  0  0  0  0  0
   -0.1060   -0.5490   -2.3142 O   0  0  0  0  0  0  0  0  0  0  0  0
   -0.4807    0.5824   -0.3524 N   0  0  0  0  0  0  0  0  0  0  0  0
    0.7709    0.6188    0.2227 C   0  0  0  0  0  0  0  0  0  0  0  0
    0.9096    1.4552    1.6577 S   0  0  0  0  0  0  0  0  0  0  0  0
    1.7532   -0.0540   -0.4463 N   0  0  0  0  0  0  0  0  0  0  0  0
    3.1740   -0.2460   -0.1540 C   0  0  0  0  0  0  0  0  0  0  0  0
    4.0107    1.0379   -0.1313 C   0  0  0  0  0  0  0  0  0  0  0  0
    5.4282    0.5953    0.2105 C   0  0  0  0  0  0  0  0  0  0  0  0
    5.2416   -0.7680    1.3525 S   0  0  0  0  0  6  0  0  0  0  0  0
    5.4835   -0.2904    2.6973 O   0  0  0  0  0  0  0  0  0  0  0  0
    5.9348   -1.9163    0.8054 O   0  0  0  0  0  0  0  0  0  0  0  0
    3.4867   -1.0081    1.1302 C   0  0  0  0  0  0  0  0  0  0  0  0
   -1.6936    0.4885   -4.5532 H   0  0  0  0  0  0  0  0  0  0  0  0
   -3.2394   -0.1944   -5.0770 H   0  0  0  0  0  0  0  0  0  0  0  0
   -1.9513   -1.2681   -4.5064 H   0  0  0  0  0  0  0  0  0  0  0  0
   -4.1188    2.1281    3.1804 H   0  0  0  0  0  0  0  0  0  0  0  0
   -3.4230    0.1532    4.5328 H   0  0  0  0  0  0  0  0  0  0  0  0
   -2.7265   -1.9311    3.3961 H   0  0  0  0  0  0  0  0  0  0  0  0
   -1.1668    1.0997    0.1776 H   0  0  0  0  0  0  0  0  0  0  0  0
    1.4508   -0.4466   -1.3409 H   0  0  0  0  0  0  0  0  0  0  0  0
    3.5397   -0.8542   -0.9941 H   0  0  0  0  0  0  0  0  0  0  0  0
    3.9786    1.5660   -1.0899 H   0  0  0  0  0  0  0  0  0  0  0  0
    3.6590    1.7345    0.6350 H   0  0  0  0  0  0  0  0  0  0  0  0
    5.9461    0.2193   -0.6767 H   0  0  0  0  0  0  0  0  0  0  0  0
    6.0142    1.3908    0.6755 H   0  0  0  0  0  0  0  0  0  0  0  0
    2.9854   -0.6062    2.0115 H   0  0  0  0  0  0  0  0  0  0  0  0
    3.2698   -2.0756    1.0444 H   0  0  0  0  0  0  0  0  0  0  0  0
  1  2  1  0
  2  3  1  0
  3  4  1  0
  4  5  2  0
  5  6  1  0
  6  7  2  0
  7  8  1  0
  7  9  1  0
  9 10  2  0
 10 11  1  0
 11 12  2  0
 12 13  1  0
  5 14  1  0
 14 15  1  0
 15 16  2  0
 15 17  1  0
 17 18  1  0
 18 19  2  0
 18 20  1  0
 20 21  1  0
 21 22  1  0
 22 23  1  0
 23 24  1  0
 24 25  2  0
 24 26  2  0
 24 27  1  0
 14  2  2  0
 27 21  1  0
 12  6  1  0
  1 28  1  0
  1 29  1  0
  1 30  1  0
  9 31  1  0
 10 32  1  0
 11 33  1  0
 17 34  1  0
 20 35  1  0
 21 36  1  0
 22 37  1  0
 22 38  1  0
 23 39  1  0
 23 40  1  0
 27 41  1  0
 27 42  1  0
M  END
$$$$
