
     RDKit          3D

 41 44  0  0  0  0  0  0  0  0999 V2000
    1.0619    2.5576    1.2575 O   0  0  0  0  0  0  0  0  0  0  0  0
    1.2280    1.3531    1.0629 C   0  0  0  0  0  0  0  0  0  0  0  0
    2.3569    0.8517    0.3057 C   0  0  0  0  0  0  0  0  0  0  0  0
    2.6091    1.4472   -1.2718 S   0  0  0  0  0  0  0  0  0  0  0  0
    4.0057    0.4704   -1.5052 C   0  0  0  0  0  0  0  0  0  0  0  0
    4.8029    0.4052   -2.6654 C   0  0  0  0  0  0  0  0  0  0  0  0
    5.9121   -0.4422   -2.6797 C   0  0  0  0  0  0  0  0  0  0  0  0
    6.2269   -1.2076   -1.5671 C   0  0  0  0  0  0  0  0  0  0  0  0
    5.4340   -1.1390   -0.4177 C   0  0  0  0  0  0  0  0  0  0  0  0
    4.2959   -0.2911   -0.3691 C   0  0  0  0  0  0  0  0  0  0  0  0
    3.3359   -0.0445    0.6763 C   0  0  0  0  0  0  0  0  0  0  0  0
    3.4433   -0.8056    2.2151 Cl  0  0  0  0  0  0  0  0  0  0  0  0
    0.3226    0.4127    1.5737 N   0  0  0  0  0  0  0  0  0  0  0  0
    0.0131   -0.8395    0.8679 C   0  0  0  0  0  0  0  0  0  0  0  0
   -1.1773   -0.6419   -0.0990 C   0  0  0  0  0  0  0  0  0  0  0  0
   -2.3429   -0.0567    0.6177 N   0  0  0  0  0  0  0  0  0  0  0  0
   -3.5420   -0.0949   -0.1209 C   0  0  0  0  0  0  0  0  0  0  0  0
   -4.2860    1.0583   -0.4225 C   0  0  0  0  0  0  0  0  0  0  0  0
   -5.4816    0.9940   -1.1528 C   0  0  0  0  0  0  0  0  0  0  0  0
   -5.9729   -0.2306   -1.5941 C   0  0  0  0  0  0  0  0  0  0  0  0
   -5.2699   -1.3926   -1.3004 C   0  0  0  0  0  0  0  0  0  0  0  0
   -4.0800   -1.3194   -0.5742 C   0  0  0  0  0  0  0  0  0  0  0  0
   -3.4625   -2.4777   -0.2859 F   0  0  0  0  0  0  0  0  0  0  0  0
   -2.0192    1.1798    1.3724 C   0  0  0  0  0  0  0  0  0  0  0  0
   -0.8292    0.9258    2.3193 C   0  0  0  0  0  0  0  0  0  0  0  0
    4.5622    1.0077   -3.5373 H   0  0  0  0  0  0  0  0  0  0  0  0
    6.5344   -0.4981   -3.5700 H   0  0  0  0  0  0  0  0  0  0  0  0
    7.0948   -1.8628   -1.5853 H   0  0  0  0  0  0  0  0  0  0  0  0
    5.6988   -1.7451    0.4463 H   0  0  0  0  0  0  0  0  0  0  0  0
    0.8712   -1.2151    0.3071 H   0  0  0  0  0  0  0  0  0  0  0  0
   -0.2412   -1.5872    1.6286 H   0  0  0  0  0  0  0  0  0  0  0  0
   -0.8816    0.0355   -0.9109 H   0  0  0  0  0  0  0  0  0  0  0  0
   -1.4052   -1.6140   -0.5460 H   0  0  0  0  0  0  0  0  0  0  0  0
   -3.9460    2.0422   -0.1132 H   0  0  0  0  0  0  0  0  0  0  0  0
   -6.0266    1.9088   -1.3745 H   0  0  0  0  0  0  0  0  0  0  0  0
   -6.9009   -0.2788   -2.1571 H   0  0  0  0  0  0  0  0  0  0  0  0
   -5.6391   -2.3614   -1.6206 H   0  0  0  0  0  0  0  0  0  0  0  0
   -1.7652    1.9880    0.6752 H   0  0  0  0  0  0  0  0  0  0  0  0
   -2.8770    1.4924    1.9794 H   0  0  0  0  0  0  0  0  0  0  0  0
   -1.0967    0.1713    3.0689 H   0  0  0  0  0  0  0  0  0  0  0  0
   -0.5670    1.8441    2.8552 H   0  0  0  0  0  0  0  0  0  0  0  0
  1  2  2  0
  2  3  1  0
  3  4  1  0
  4  5  1  0
  5  6  2  0
  6  7  1  0
  7  8  2  0
  8  9  1  0
  9 10  2  0
 10 11  1  0
 11 12  1  0
  2 13  1  0
 13 14  1  0
 14 15  1  0
 15 16  1  0
 16 17  1  0
 17 18  2  0
 18 19  1  0
 19 20  2  0
 20 21  1  0
 21 22  2  0
 22 23  1  0
 16 24  1  0
 24 25  1  0
 11  3  2  0
 25 13  1  0
 10  5  1  0
 22 17  1  0
  6 26  1  0
  7 27  1  0
  8 28  1  0
  9 29  1  0
 14 30  1  0
 14 31  1  0
 15 32  1  0
 15 33  1  0
 18 34  1  0
 19 35  1  0
 20 36  1  0
 21 37  1  0
 24 38  1  0
 24 39  1  0
 25 40  1  0
 25 41  1  0
M  END
$$$$
