
     RDKit          3D

 46 49  0  0  0  0  0  0  0  0999 V2000
   -3.0881   -1.7762   -2.2770 C   0  0  0  0  0  0  0  0  0  0  0  0
   -1.8403   -1.0194   -2.2483 N   0  0  0  0  0  0  0  0  0  0  0  0
   -1.9385    0.2693   -2.9266 C   0  0  0  0  0  0  0  0  0  0  0  0
   -1.3117   -0.8981   -0.9302 N   0  0  0  0  0  0  0  0  0  0  0  0
   -2.0677   -0.2451    0.0670 C   0  0  0  0  0  0  0  0  0  0  0  0
   -3.1361    0.4699   -0.1456 N   0  0  0  0  0  0  0  0  0  0  0  0
   -1.5896   -0.4203    1.5132 C   0  0  0  0  0  0  0  0  0  0  0  0
   -2.2009   -1.6549    2.0392 C   0  0  0  0  0  0  0  0  0  0  0  0
   -2.6725   -2.6243    2.4692 N   0  0  0  0  0  0  0  0  0  0  0  0
   -0.0526   -0.4943    1.6151 C   0  0  0  0  0  0  0  0  0  0  0  0
    0.5885    0.8948    1.7074 C   0  0  0  0  0  0  0  0  0  0  0  0
    1.4288    1.1899    2.8110 C   0  0  0  0  0  0  0  0  0  0  0  0
    2.0433    2.4393    2.9473 C   0  0  0  0  0  0  0  0  0  0  0  0
    1.8112    3.3767    1.9678 C   0  0  0  0  0  0  0  0  0  0  0  0
    1.0104    3.1038    0.8862 C   0  0  0  0  0  0  0  0  0  0  0  0
    0.3906    1.8809    0.7233 C   0  0  0  0  0  0  0  0  0  0  0  0
    0.9181    4.1570    0.0303 O   0  0  0  0  0  0  0  0  0  0  0  0
    1.7554    5.1237    0.6990 C   0  0  0  0  0  0  0  0  0  0  0  0
    2.3227    4.6355    1.9320 O   0  0  0  0  0  0  0  0  0  0  0  0
    0.5636   -1.3157    0.5039 C   0  0  0  0  0  0  0  0  0  0  0  0
   -0.0509   -1.4797   -0.6881 C   0  0  0  0  0  0  0  0  0  0  0  0
    0.6140   -2.2677   -1.8075 C   0  0  0  0  0  0  0  0  0  0  0  0
    2.1214   -2.4134   -1.6270 C   0  0  0  0  0  0  0  0  0  0  0  0
    2.4551   -2.9126   -0.2374 C   0  0  0  0  0  0  0  0  0  0  0  0
    1.8496   -2.0129    0.8107 C   0  0  0  0  0  0  0  0  0  0  0  0
    2.3586   -1.9106    1.9257 O   0  0  0  0  0  0  0  0  0  0  0  0
   -3.9367   -1.2418   -1.8398 H   0  0  0  0  0  0  0  0  0  0  0  0
   -3.3500   -2.0198   -3.3129 H   0  0  0  0  0  0  0  0  0  0  0  0
   -2.9743   -2.7312   -1.7513 H   0  0  0  0  0  0  0  0  0  0  0  0
   -0.9941    0.8208   -2.8533 H   0  0  0  0  0  0  0  0  0  0  0  0
   -2.7412    0.9088   -2.5488 H   0  0  0  0  0  0  0  0  0  0  0  0
   -2.1233    0.1096   -3.9949 H   0  0  0  0  0  0  0  0  0  0  0  0
   -3.5398    0.8419    0.7195 H   0  0  0  0  0  0  0  0  0  0  0  0
   -1.9601    0.4215    2.1130 H   0  0  0  0  0  0  0  0  0  0  0  0
    0.1591   -1.0037    2.5673 H   0  0  0  0  0  0  0  0  0  0  0  0
    1.6240    0.4311    3.5693 H   0  0  0  0  0  0  0  0  0  0  0  0
    2.6883    2.6586    3.7907 H   0  0  0  0  0  0  0  0  0  0  0  0
   -0.2171    1.7172   -0.1598 H   0  0  0  0  0  0  0  0  0  0  0  0
    1.1558    6.0148    0.9175 H   0  0  0  0  0  0  0  0  0  0  0  0
    2.5721    5.4061    0.0246 H   0  0  0  0  0  0  0  0  0  0  0  0
    0.4644   -1.7787   -2.7768 H   0  0  0  0  0  0  0  0  0  0  0  0
    0.1472   -3.2590   -1.8645 H   0  0  0  0  0  0  0  0  0  0  0  0
    2.5218   -3.1012   -2.3802 H   0  0  0  0  0  0  0  0  0  0  0  0
    2.6022   -1.4404   -1.7939 H   0  0  0  0  0  0  0  0  0  0  0  0
    2.0769   -3.9284   -0.0803 H   0  0  0  0  0  0  0  0  0  0  0  0
    3.5424   -2.9219   -0.1058 H   0  0  0  0  0  0  0  0  0  0  0  0
  1  2  1  0
  2  3  1  0
  2  4  1  0
  4  5  1  0
  5  6  2  3
  5  7  1  0
  7  8  1  0
  8  9  3  0
  7 10  1  0
 10 11  1  0
 11 12  2  0
 12 13  1  0
 13 14  2  0
 14 15  1  0
 15 16  2  0
 15 17  1  0
 17 18  1  0
 18 19  1  0
 10 20  1  0
 20 21  2  0
 21 22  1  0
 22 23  1  0
 23 24  1  0
 24 25  1  0
 25 26  2  0
 21  4  1  0
 16 11  1  0
 25 20  1  0
 19 14  1  0
  1 27  1  0
  1 28  1  0
  1 29  1  0
  3 30  1  0
  3 31  1  0
  3 32  1  0
  6 33  1  0
  7 34  1  0
 10 35  1  0
 12 36  1  0
 13 37  1  0
 16 38  1  0
 18 39  1  0
 18 40  1  0
 22 41  1  0
 22 42  1  0
 23 43  1  0
 23 44  1  0
 24 45  1  0
 24 46  1  0
M  END
$$$$
