
     RDKit          3D

 47 49  0  0  0  0  0  0  0  0999 V2000
   -5.0106    2.5164    1.7376 C   0  0  0  0  0  0  0  0  0  0  0  0
   -4.2729    2.4779    0.5244 O   0  0  0  0  0  0  0  0  0  0  0  0
   -3.8513    1.2509    0.0856 C   0  0  0  0  0  0  0  0  0  0  0  0
   -3.9753    0.0560    0.7983 C   0  0  0  0  0  0  0  0  0  0  0  0
   -3.5061   -1.1468    0.2531 C   0  0  0  0  0  0  0  0  0  0  0  0
   -2.9084   -1.1713   -1.0114 C   0  0  0  0  0  0  0  0  0  0  0  0
   -2.4373   -2.4423   -1.5647 C   0  0  0  0  0  0  0  0  0  0  0  0
   -1.1576   -2.7842   -1.7727 C   0  0  0  0  0  0  0  0  0  0  0  0
   -0.7085   -4.3147   -2.4310 S   0  0  0  0  0  0  0  0  0  0  0  0
    1.0115   -3.9583   -2.3564 C   0  0  0  0  0  0  0  0  0  0  0  0
    2.1642   -5.0701   -2.8207 S   0  0  0  0  0  0  0  0  0  0  0  0
    1.2022   -2.6837   -1.8684 N   0  0  0  0  0  0  0  0  0  0  0  0
    2.5106   -2.0556   -1.6518 C   0  0  0  0  0  0  0  0  0  0  0  0
    3.0022   -2.2559   -0.2233 C   0  0  0  0  0  0  0  0  0  0  0  0
    4.2863   -1.4888   -0.0029 C   0  0  0  0  0  0  0  0  0  0  0  0
    5.1274   -1.3590   -0.8858 O   0  0  0  0  0  0  0  0  0  0  0  0
    4.4539   -1.0409    1.2806 N   0  0  0  0  0  0  0  0  0  0  0  0
    4.1969    0.2001    1.5184 C   0  0  0  0  0  0  0  0  0  0  0  0
    4.3339    0.7620    2.7548 N   0  0  0  0  0  0  0  0  0  0  0  0
    3.6173    2.0034    2.9543 C   0  0  0  0  0  0  0  0  0  0  0  0
    3.6438    2.7270    1.6119 C   0  0  0  0  0  0  0  0  0  0  0  0
    3.5629    1.3862    0.3816 S   0  0  0  0  0  0  0  0  0  0  0  0
    0.0677   -1.9862   -1.4796 C   0  0  0  0  0  0  0  0  0  0  0  0
    0.0739   -0.8884   -0.9411 O   0  0  0  0  0  0  0  0  0  0  0  0
   -2.7947    0.0165   -1.7356 C   0  0  0  0  0  0  0  0  0  0  0  0
   -3.2392    1.2169   -1.1762 C   0  0  0  0  0  0  0  0  0  0  0  0
   -3.1145    2.3574   -1.9319 O   0  0  0  0  0  0  0  0  0  0  0  0
   -1.8883    3.0137   -1.6091 C   0  0  0  0  0  0  0  0  0  0  0  0
   -5.3198    3.5521    1.9081 H   0  0  0  0  0  0  0  0  0  0  0  0
   -4.3885    2.2122    2.5855 H   0  0  0  0  0  0  0  0  0  0  0  0
   -5.9167    1.9053    1.6718 H   0  0  0  0  0  0  0  0  0  0  0  0
   -4.4284    0.0225    1.7833 H   0  0  0  0  0  0  0  0  0  0  0  0
   -3.6099   -2.0632    0.8302 H   0  0  0  0  0  0  0  0  0  0  0  0
   -3.2355   -3.1424   -1.8047 H   0  0  0  0  0  0  0  0  0  0  0  0
    3.2364   -2.4510   -2.3699 H   0  0  0  0  0  0  0  0  0  0  0  0
    2.4162   -0.9836   -1.8659 H   0  0  0  0  0  0  0  0  0  0  0  0
    3.1917   -3.3139   -0.0135 H   0  0  0  0  0  0  0  0  0  0  0  0
    2.2460   -1.9095    0.4905 H   0  0  0  0  0  0  0  0  0  0  0  0
    4.3992    0.1067    3.5243 H   0  0  0  0  0  0  0  0  0  0  0  0
    4.0852    2.6058    3.7388 H   0  0  0  0  0  0  0  0  0  0  0  0
    2.5862    1.7890    3.2592 H   0  0  0  0  0  0  0  0  0  0  0  0
    4.5884    3.2636    1.4772 H   0  0  0  0  0  0  0  0  0  0  0  0
    2.8132    3.4288    1.5018 H   0  0  0  0  0  0  0  0  0  0  0  0
   -2.3486    0.0265   -2.7260 H   0  0  0  0  0  0  0  0  0  0  0  0
   -1.8458    3.2970   -0.5518 H   0  0  0  0  0  0  0  0  0  0  0  0
   -1.8317    3.9288   -2.2061 H   0  0  0  0  0  0  0  0  0  0  0  0
   -1.0275    2.3870   -1.8683 H   0  0  0  0  0  0  0  0  0  0  0  0
  1  2  1  0
  2  3  1  0
  3  4  2  0
  4  5  1  0
  5  6  2  0
  6  7  1  0
  7  8  2  3
  8  9  1  0
  9 10  1  0
 10 11  2  0
 10 12  1  0
 12 13  1  0
 13 14  1  0
 14 15  1  0
 15 16  2  0
 15 17  1  0
 17 18  2  3
 18 19  1  0
 19 20  1  0
 20 21  1  0
 21 22  1  0
 12 23  1  0
 23 24  2  0
  6 25  1  0
 25 26  2  0
 26 27  1  0
 27 28  1  0
 26  3  1  0
 23  8  1  0
 22 18  1  0
  1 29  1  0
  1 30  1  0
  1 31  1  0
  4 32  1  0
  5 33  1  0
  7 34  1  0
 13 35  1  0
 13 36  1  0
 14 37  1  0
 14 38  1  0
 19 39  1  0
 20 40  1  0
 20 41  1  0
 21 42  1  0
 21 43  1  0
 25 44  1  0
 28 45  1  0
 28 46  1  0
 28 47  1  0
M  END
$$$$
