
     RDKit          3D

 51 54  0  0  0  0  0  0  0  0999 V2000
    5.4973    2.3632   -0.4774 C   0  0  0  0  0  0  0  0  0  0  0  0
    4.6661    1.1186   -0.7455 C   0  0  0  0  0  0  0  0  0  0  0  0
    4.2471    0.4355    0.5571 C   0  0  0  0  0  0  0  0  0  0  0  0
    3.4406   -0.7966    0.2992 C   0  0  0  0  0  0  0  0  0  0  0  0
    2.0647   -0.9491    0.1890 C   0  0  0  0  0  0  0  0  0  0  0  0
    1.0195    0.0708    0.2689 C   0  0  0  0  0  0  0  0  0  0  0  0
    1.2686    1.2630    0.4205 O   0  0  0  0  0  0  0  0  0  0  0  0
   -0.2512   -0.4716    0.1428 N   0  0  0  0  0  0  0  0  0  0  0  0
   -1.3589    0.3194    0.2119 N   0  0  0  0  0  0  0  0  0  0  0  0
   -2.4894   -0.2890    0.0354 C   0  0  0  0  0  0  0  0  0  0  0  0
   -3.8135    0.3909    0.0939 C   0  0  0  0  0  0  0  0  0  0  0  0
   -4.9178   -0.4343    0.4144 C   0  0  0  0  0  0  0  0  0  0  0  0
   -4.6631   -1.7656    0.6381 O   0  0  0  0  0  0  0  0  0  0  0  0
   -5.7444   -2.5907    1.0561 C   0  0  0  0  0  0  0  0  0  0  0  0
   -6.1894    0.1297    0.4964 C   0  0  0  0  0  0  0  0  0  0  0  0
   -6.3702    1.4926    0.2672 C   0  0  0  0  0  0  0  0  0  0  0  0
   -5.2936    2.3252   -0.0592 C   0  0  0  0  0  0  0  0  0  0  0  0
   -5.5325    3.6907   -0.2922 C   0  0  0  0  0  0  0  0  0  0  0  0
   -4.4971    4.5550   -0.6354 C   0  0  0  0  0  0  0  0  0  0  0  0
   -3.2088    4.0606   -0.7541 C   0  0  0  0  0  0  0  0  0  0  0  0
   -2.9580    2.7044   -0.5241 C   0  0  0  0  0  0  0  0  0  0  0  0
   -3.9832    1.7909   -0.1593 C   0  0  0  0  0  0  0  0  0  0  0  0
    1.7739   -2.2711   -0.0213 N   0  0  0  0  0  0  0  0  0  0  0  0
    2.9082   -2.9447   -0.0611 N   0  0  0  0  0  0  0  0  0  0  0  0
    3.9543   -2.0798    0.1025 N   0  0  0  0  0  0  0  0  0  0  0  0
    5.2964   -2.5393    0.0637 C   0  0  0  0  0  0  0  0  0  0  0  0
    6.3236   -1.7070    0.2372 N   0  0  0  0  0  0  0  0  0  0  0  0
    7.4470   -2.5257    0.1421 O   0  0  0  0  0  0  0  0  0  0  0  0
    7.0889   -3.8493   -0.0881 N   0  0  0  0  0  0  0  0  0  0  0  0
    5.7580   -3.8535   -0.1471 C   0  0  0  0  0  0  0  0  0  0  0  0
    5.0135   -4.9522   -0.3733 N   0  0  0  0  0  0  0  0  0  0  0  0
    6.4117    2.1132    0.0700 H   0  0  0  0  0  0  0  0  0  0  0  0
    5.7853    2.8371   -1.4209 H   0  0  0  0  0  0  0  0  0  0  0  0
    4.9322    3.0931    0.1111 H   0  0  0  0  0  0  0  0  0  0  0  0
    3.7780    1.3988   -1.3252 H   0  0  0  0  0  0  0  0  0  0  0  0
    5.2447    0.4298   -1.3720 H   0  0  0  0  0  0  0  0  0  0  0  0
    5.1188    0.2139    1.1804 H   0  0  0  0  0  0  0  0  0  0  0  0
    3.6566    1.1377    1.1580 H   0  0  0  0  0  0  0  0  0  0  0  0
   -0.3462   -1.4741    0.0084 H   0  0  0  0  0  0  0  0  0  0  0  0
   -2.5044   -1.3782   -0.1491 H   0  0  0  0  0  0  0  0  0  0  0  0
   -6.5091   -2.6615    0.2759 H   0  0  0  0  0  0  0  0  0  0  0  0
   -5.3491   -3.5969    1.2257 H   0  0  0  0  0  0  0  0  0  0  0  0
   -6.1700   -2.2371    2.0011 H   0  0  0  0  0  0  0  0  0  0  0  0
   -7.0685   -0.4582    0.7386 H   0  0  0  0  0  0  0  0  0  0  0  0
   -7.3766    1.9018    0.3425 H   0  0  0  0  0  0  0  0  0  0  0  0
   -6.5387    4.0972   -0.2094 H   0  0  0  0  0  0  0  0  0  0  0  0
   -4.6974    5.6082   -0.8111 H   0  0  0  0  0  0  0  0  0  0  0  0
   -2.3886    4.7214   -1.0234 H   0  0  0  0  0  0  0  0  0  0  0  0
   -1.9275    2.3770   -0.6390 H   0  0  0  0  0  0  0  0  0  0  0  0
    5.4473   -5.8672   -0.3116 H   0  0  0  0  0  0  0  0  0  0  0  0
    4.0045   -4.9469   -0.2337 H   0  0  0  0  0  0  0  0  0  0  0  0
  1  2  1  0
  2  3  1  0
  3  4  1  0
  4  5  2  0
  5  6  1  0
  6  7  2  0
  6  8  1  0
  8  9  1  0
  9 10  2  3
 10 11  1  0
 11 12  2  0
 12 13  1  0
 13 14  1  0
 12 15  1  0
 15 16  2  0
 16 17  1  0
 17 18  2  0
 18 19  1  0
 19 20  2  0
 20 21  1  0
 21 22  2  0
  5 23  1  0
 23 24  2  0
 24 25  1  0
 25 26  1  0
 26 27  2  0
 27 28  1  0
 28 29  1  0
 29 30  2  0
 30 31  1  0
 25  4  1  0
 30 26  1  0
 22 11  1  0
 22 17  1  0
  1 32  1  0
  1 33  1  0
  1 34  1  0
  2 35  1  0
  2 36  1  0
  3 37  1  0
  3 38  1  0
  8 39  1  0
 10 40  1  0
 14 41  1  0
 14 42  1  0
 14 43  1  0
 15 44  1  0
 16 45  1  0
 18 46  1  0
 19 47  1  0
 20 48  1  0
 21 49  1  0
 31 50  1  0
 31 51  1  0
M  END
$$$$
