
     RDKit          3D

 32 33  0  0  0  0  0  0  0  0999 V2000
   -1.8279   -3.3856   -2.7296 N   0  0  0  0  0  0  0  0  0  0  0  0
   -2.1937   -2.4714   -2.1149 C   0  0  0  0  0  0  0  0  0  0  0  0
   -2.6443   -1.3551   -1.3309 C   0  0  0  0  0  0  0  0  0  0  0  0
   -4.0289   -1.1263   -1.2542 C   0  0  0  0  0  0  0  0  0  0  0  0
   -4.5106   -0.0419   -0.5167 C   0  0  0  0  0  0  0  0  0  0  0  0
   -5.9558    0.2027   -0.4348 N   0  0  0  0  0  4  0  0  0  0  0  0
   -6.3387    1.1807    0.2220 O   0  0  0  0  0  0  0  0  0  0  0  0
   -6.7054   -0.5860   -1.0267 O   0  0  0  0  0  1  0  0  0  0  0  0
   -3.6227    0.8160    0.1338 C   0  0  0  0  0  0  0  0  0  0  0  0
   -2.2449    0.5792    0.0510 C   0  0  0  0  0  0  0  0  0  0  0  0
   -1.7219   -0.5212   -0.6514 C   0  0  0  0  0  0  0  0  0  0  0  0
   -0.3398   -0.7158   -0.8025 N   0  0  0  0  0  0  0  0  0  0  0  0
    0.6134   -0.0370    0.0875 C   0  0  0  0  0  0  0  0  0  0  0  0
    2.0459   -0.4535   -0.2661 C   0  0  0  0  0  0  0  0  0  0  0  0
    3.0976    0.2441    0.5616 C   0  0  0  0  0  0  0  0  0  0  0  0
    4.4232    0.2401    0.1310 C   0  0  0  0  0  0  0  0  0  0  0  0
    5.3907    0.8595    0.9174 C   0  0  0  0  0  0  0  0  0  0  0  0
    5.0154    1.4577    2.1130 C   0  0  0  0  0  0  0  0  0  0  0  0
    3.6809    1.4084    2.4749 C   0  0  0  0  0  0  0  0  0  0  0  0
    2.7203    0.8144    1.7315 N   0  0  0  0  0  0  0  0  0  0  0  0
   -4.7141   -1.7930   -1.7771 H   0  0  0  0  0  0  0  0  0  0  0  0
   -3.9762    1.6755    0.7009 H   0  0  0  0  0  0  0  0  0  0  0  0
   -1.5882    1.2838    0.5561 H   0  0  0  0  0  0  0  0  0  0  0  0
   -0.0910   -1.6928   -0.9595 H   0  0  0  0  0  0  0  0  0  0  0  0
    0.3906   -0.2984    1.1293 H   0  0  0  0  0  0  0  0  0  0  0  0
    0.5245    1.0498   -0.0285 H   0  0  0  0  0  0  0  0  0  0  0  0
    2.1614   -1.5363   -0.1326 H   0  0  0  0  0  0  0  0  0  0  0  0
    2.2253   -0.2374   -1.3273 H   0  0  0  0  0  0  0  0  0  0  0  0
    4.7042   -0.2372   -0.8027 H   0  0  0  0  0  0  0  0  0  0  0  0
    6.4295    0.8720    0.5996 H   0  0  0  0  0  0  0  0  0  0  0  0
    5.7445    1.9472    2.7485 H   0  0  0  0  0  0  0  0  0  0  0  0
    3.3369    1.8577    3.4022 H   0  0  0  0  0  0  0  0  0  0  0  0
  1  2  3  0
  2  3  1  0
  3  4  2  0
  4  5  1  0
  5  6  1  0
  6  7  2  0
  6  8  1  0
  5  9  2  0
  9 10  1  0
 10 11  2  0
 11 12  1  0
 12 13  1  0
 13 14  1  0
 14 15  1  0
 15 16  2  0
 16 17  1  0
 17 18  2  0
 18 19  1  0
 19 20  2  0
 11  3  1  0
 20 15  1  0
  4 21  1  0
  9 22  1  0
 10 23  1  0
 12 24  1  0
 13 25  1  0
 13 26  1  0
 14 27  1  0
 14 28  1  0
 16 29  1  0
 17 30  1  0
 18 31  1  0
 19 32  1  0
M  CHG  2   6   1   8  -1
M  END
$$$$
