
     RDKit          3D

 47 50  0  0  0  0  0  0  0  0999 V2000
    5.7964   -1.3107   -3.7140 C   0  0  0  0  0  0  0  0  0  0  0  0
    4.7087   -0.9508   -2.7318 C   0  0  0  0  0  0  0  0  0  0  0  0
    3.5581   -1.3377   -2.9075 O   0  0  0  0  0  0  0  0  0  0  0  0
    5.1781   -0.1975   -1.6710 N   0  0  0  0  0  0  0  0  0  0  0  0
    4.4398    0.2958   -0.5737 C   0  0  0  0  0  0  0  0  0  0  0  0
    5.1327    1.0597    0.3707 C   0  0  0  0  0  0  0  0  0  0  0  0
    4.4683    1.5852    1.4792 C   0  0  0  0  0  0  0  0  0  0  0  0
    3.1039    1.3511    1.6573 C   0  0  0  0  0  0  0  0  0  0  0  0
    2.3968    0.5872    0.7302 C   0  0  0  0  0  0  0  0  0  0  0  0
    1.0190    0.2993    0.8332 N   0  0  0  0  0  0  0  0  0  0  0  0
    0.1555    0.6848    1.8397 C   0  0  0  0  0  0  0  0  0  0  0  0
    0.4116    1.3331    2.8442 O   0  0  0  0  0  0  0  0  0  0  0  0
   -1.2402    0.2323    1.6306 C   0  0  0  0  0  0  0  0  0  0  0  0
   -1.8943    0.6745    0.4773 C   0  0  0  0  0  0  0  0  0  0  0  0
   -3.2005    0.2700    0.2602 C   0  0  0  0  0  0  0  0  0  0  0  0
   -3.9897    0.6705   -0.9188 C   0  0  0  0  0  0  0  0  0  0  0  0
   -3.4149    1.0298   -2.1481 C   0  0  0  0  0  0  0  0  0  0  0  0
   -4.2167    1.4023   -3.2288 C   0  0  0  0  0  0  0  0  0  0  0  0
   -5.5889    1.4077   -3.0597 C   0  0  0  0  0  0  0  0  0  0  0  0
   -6.1951    1.0676   -1.9067 N   0  0  0  0  0  0  0  0  0  0  0  0
   -5.3866    0.7056   -0.8764 C   0  0  0  0  0  0  0  0  0  0  0  0
   -3.8399   -0.5308    1.1480 N   0  0  0  0  0  0  0  0  0  0  0  0
   -3.2149   -0.9466    2.2624 C   0  0  0  0  0  0  0  0  0  0  0  0
   -3.9128   -1.7652    3.1412 C   0  0  0  0  0  0  0  0  0  0  0  0
   -3.3358   -2.2479    4.3189 C   0  0  0  0  0  0  0  0  0  0  0  0
   -2.0280   -1.9044    4.6271 C   0  0  0  0  0  0  0  0  0  0  0  0
   -1.3032   -2.4940    6.0695 Cl  0  0  0  0  0  0  0  0  0  0  0  0
   -1.3036   -1.0856    3.7656 C   0  0  0  0  0  0  0  0  0  0  0  0
   -1.8896   -0.5936    2.5708 C   0  0  0  0  0  0  0  0  0  0  0  0
    3.0741    0.0648   -0.3835 C   0  0  0  0  0  0  0  0  0  0  0  0
    6.6097   -0.5798   -3.6995 H   0  0  0  0  0  0  0  0  0  0  0  0
    6.1918   -2.2991   -3.4656 H   0  0  0  0  0  0  0  0  0  0  0  0
    5.3770   -1.3267   -4.7243 H   0  0  0  0  0  0  0  0  0  0  0  0
    6.1642    0.0319   -1.6752 H   0  0  0  0  0  0  0  0  0  0  0  0
    6.1950    1.2603    0.2600 H   0  0  0  0  0  0  0  0  0  0  0  0
    5.0112    2.1802    2.2097 H   0  0  0  0  0  0  0  0  0  0  0  0
    2.6238    1.7787    2.5321 H   0  0  0  0  0  0  0  0  0  0  0  0
    0.6431   -0.2909    0.0996 H   0  0  0  0  0  0  0  0  0  0  0  0
   -1.3914    1.3496   -0.2072 H   0  0  0  0  0  0  0  0  0  0  0  0
   -2.3381    1.0102   -2.2938 H   0  0  0  0  0  0  0  0  0  0  0  0
   -3.7778    1.6772   -4.1816 H   0  0  0  0  0  0  0  0  0  0  0  0
   -6.2549    1.6897   -3.8700 H   0  0  0  0  0  0  0  0  0  0  0  0
   -5.9238    0.4367    0.0314 H   0  0  0  0  0  0  0  0  0  0  0  0
   -4.9391   -2.0382    2.9025 H   0  0  0  0  0  0  0  0  0  0  0  0
   -3.9144   -2.8859    4.9816 H   0  0  0  0  0  0  0  0  0  0  0  0
   -0.2804   -0.8222    4.0284 H   0  0  0  0  0  0  0  0  0  0  0  0
    2.5156   -0.5282   -1.0995 H   0  0  0  0  0  0  0  0  0  0  0  0
  1  2  1  0
  2  3  2  0
  2  4  1  0
  4  5  1  0
  5  6  2  0
  6  7  1  0
  7  8  2  0
  8  9  1  0
  9 10  1  0
 10 11  1  0
 11 12  2  0
 11 13  1  0
 13 14  2  0
 14 15  1  0
 15 16  1  0
 16 17  2  0
 17 18  1  0
 18 19  2  0
 19 20  1  0
 20 21  2  0
 15 22  2  0
 22 23  1  0
 23 24  2  0
 24 25  1  0
 25 26  2  0
 26 27  1  0
 26 28  1  0
 28 29  2  0
  9 30  2  0
 30  5  1  0
 29 13  1  0
 21 16  1  0
 29 23  1  0
  1 31  1  0
  1 32  1  0
  1 33  1  0
  4 34  1  0
  6 35  1  0
  7 36  1  0
  8 37  1  0
 10 38  1  0
 14 39  1  0
 17 40  1  0
 18 41  1  0
 19 42  1  0
 21 43  1  0
 24 44  1  0
 25 45  1  0
 28 46  1  0
 30 47  1  0
M  END
$$$$
