
     RDKit          3D

 63 67  0  0  0  0  0  0  0  0999 V2000
    9.3443    2.2531    0.1204 C   0  0  0  0  0  0  0  0  0  0  0  0
    8.6239    1.4030   -0.7595 O   0  0  0  0  0  0  0  0  0  0  0  0
    7.2956    1.1857   -0.4890 C   0  0  0  0  0  0  0  0  0  0  0  0
    6.5816    1.8248    0.5269 C   0  0  0  0  0  0  0  0  0  0  0  0
    5.2271    1.5397    0.7269 C   0  0  0  0  0  0  0  0  0  0  0  0
    4.5541    0.6112   -0.0794 C   0  0  0  0  0  0  0  0  0  0  0  0
    3.1285    0.3110    0.1391 C   0  0  0  0  0  0  0  0  0  0  0  0
    2.2050    0.3662   -0.9208 C   0  0  0  0  0  0  0  0  0  0  0  0
    0.8483    0.0848   -0.7193 C   0  0  0  0  0  0  0  0  0  0  0  0
    0.3856   -0.2482    0.5553 C   0  0  0  0  0  0  0  0  0  0  0  0
    1.2931   -0.3239    1.6015 C   0  0  0  0  0  0  0  0  0  0  0  0
    2.6510   -0.0422    1.4113 C   0  0  0  0  0  0  0  0  0  0  0  0
    0.7167   -0.7856    3.1903 S   0  0  0  0  0  6  0  0  0  0  0  0
    0.8484   -2.2235    3.2923 O   0  0  0  0  0  0  0  0  0  0  0  0
    1.3479    0.1134    4.1372 O   0  0  0  0  0  0  0  0  0  0  0  0
   -1.0027   -0.4301    3.2413 C   0  0  0  0  0  0  0  0  0  0  0  0
   -1.6274   -0.2751    4.4858 C   0  0  0  0  0  0  0  0  0  0  0  0
   -2.9818    0.0472    4.5396 C   0  0  0  0  0  0  0  0  0  0  0  0
   -3.6944    0.2415    3.3564 C   0  0  0  0  0  0  0  0  0  0  0  0
   -3.0524    0.0905    2.1167 C   0  0  0  0  0  0  0  0  0  0  0  0
   -3.8024    0.4772    0.9079 C   0  0  0  0  0  0  0  0  0  0  0  0
   -3.4440    1.4657    0.2820 O   0  0  0  0  0  0  0  0  0  0  0  0
   -4.8926   -0.3139    0.6180 N   0  0  0  0  0  0  0  0  0  0  0  0
   -5.6119   -0.1512   -0.6371 C   0  0  0  0  0  0  0  0  0  0  0  0
   -7.0214   -0.7331   -0.5289 C   0  0  0  0  0  0  0  0  0  0  0  0
   -7.8415   -0.4840   -1.7969 C   0  0  0  0  0  0  0  0  0  0  0  0
   -6.9914   -0.3680   -3.0632 C   0  0  0  0  0  0  0  0  0  0  0  0
   -5.7272   -1.2110   -2.9741 C   0  0  0  0  0  0  0  0  0  0  0  0
   -4.8359   -0.7889   -1.8035 C   0  0  0  0  0  0  0  0  0  0  0  0
   -1.7004   -0.2679    2.0475 C   0  0  0  0  0  0  0  0  0  0  0  0
   -1.0498   -0.5335    0.7459 C   0  0  0  0  0  0  0  0  0  0  0  0
   -1.6893   -1.0341   -0.1708 O   0  0  0  0  0  0  0  0  0  0  0  0
    5.2806   -0.0254   -1.1014 C   0  0  0  0  0  0  0  0  0  0  0  0
    6.6373    0.2556   -1.3162 C   0  0  0  0  0  0  0  0  0  0  0  0
    7.4048   -0.3293   -2.2938 O   0  0  0  0  0  0  0  0  0  0  0  0
    6.7613   -1.2120   -3.2006 C   0  0  0  0  0  0  0  0  0  0  0  0
    8.9682    3.2801    0.0704 H   0  0  0  0  0  0  0  0  0  0  0  0
   10.3888    2.2657   -0.2066 H   0  0  0  0  0  0  0  0  0  0  0  0
    9.3225    1.8715    1.1467 H   0  0  0  0  0  0  0  0  0  0  0  0
    7.0459    2.5564    1.1796 H   0  0  0  0  0  0  0  0  0  0  0  0
    4.6970    2.0644    1.5201 H   0  0  0  0  0  0  0  0  0  0  0  0
    2.5360    0.6445   -1.9211 H   0  0  0  0  0  0  0  0  0  0  0  0
    0.1563    0.1383   -1.5590 H   0  0  0  0  0  0  0  0  0  0  0  0
    3.3394   -0.1158    2.2530 H   0  0  0  0  0  0  0  0  0  0  0  0
   -1.0625   -0.3999    5.4089 H   0  0  0  0  0  0  0  0  0  0  0  0
   -3.4745    0.1771    5.5011 H   0  0  0  0  0  0  0  0  0  0  0  0
   -4.7381    0.5492    3.3991 H   0  0  0  0  0  0  0  0  0  0  0  0
   -4.9429   -1.2193    1.0686 H   0  0  0  0  0  0  0  0  0  0  0  0
   -5.6968    0.9275   -0.8261 H   0  0  0  0  0  0  0  0  0  0  0  0
   -7.5500   -0.3127    0.3354 H   0  0  0  0  0  0  0  0  0  0  0  0
   -6.9573   -1.8141   -0.3460 H   0  0  0  0  0  0  0  0  0  0  0  0
   -8.5675   -1.2981   -1.9098 H   0  0  0  0  0  0  0  0  0  0  0  0
   -8.4293    0.4351   -1.6840 H   0  0  0  0  0  0  0  0  0  0  0  0
   -7.5863   -0.6658   -3.9341 H   0  0  0  0  0  0  0  0  0  0  0  0
   -6.7131    0.6817   -3.2199 H   0  0  0  0  0  0  0  0  0  0  0  0
   -5.1597   -1.1447   -3.9092 H   0  0  0  0  0  0  0  0  0  0  0  0
   -6.0077   -2.2649   -2.8534 H   0  0  0  0  0  0  0  0  0  0  0  0
   -4.2729   -1.6681   -1.4639 H   0  0  0  0  0  0  0  0  0  0  0  0
   -4.0829   -0.0729   -2.1571 H   0  0  0  0  0  0  0  0  0  0  0  0
    4.7659   -0.7581   -1.7157 H   0  0  0  0  0  0  0  0  0  0  0  0
    7.5054   -1.5408   -3.9326 H   0  0  0  0  0  0  0  0  0  0  0  0
    5.9602   -0.7046   -3.7475 H   0  0  0  0  0  0  0  0  0  0  0  0
    6.3875   -2.1019   -2.6844 H   0  0  0  0  0  0  0  0  0  0  0  0
  1  2  1  0
  2  3  1  0
  3  4  2  0
  4  5  1  0
  5  6  2  0
  6  7  1  0
  7  8  2  0
  8  9  1  0
  9 10  2  0
 10 11  1  0
 11 12  2  0
 11 13  1  0
 13 14  2  0
 13 15  2  0
 13 16  1  0
 16 17  2  0
 17 18  1  0
 18 19  2  0
 19 20  1  0
 20 21  1  0
 21 22  2  0
 21 23  1  0
 23 24  1  0
 24 25  1  0
 25 26  1  0
 26 27  1  0
 27 28  1  0
 28 29  1  0
 20 30  2  0
 30 31  1  0
 31 32  2  0
  6 33  1  0
 33 34  2  0
 34 35  1  0
 35 36  1  0
 34  3  1  0
 12  7  1  0
 30 16  1  0
 31 10  1  0
 29 24  1  0
  1 37  1  0
  1 38  1  0
  1 39  1  0
  4 40  1  0
  5 41  1  0
  8 42  1  0
  9 43  1  0
 12 44  1  0
 17 45  1  0
 18 46  1  0
 19 47  1  0
 23 48  1  0
 24 49  1  0
 25 50  1  0
 25 51  1  0
 26 52  1  0
 26 53  1  0
 27 54  1  0
 27 55  1  0
 28 56  1  0
 28 57  1  0
 29 58  1  0
 29 59  1  0
 33 60  1  0
 36 61  1  0
 36 62  1  0
 36 63  1  0
M  END
$$$$
