
     RDKit          3D

 61 64  0  0  0  0  0  0  0  0999 V2000
    8.2016    1.4697   -0.7085 C   0  0  0  0  0  0  0  0  0  0  0  0
    7.2161    0.4410   -0.2246 C   0  0  0  0  0  0  0  0  0  0  0  0
    7.6437   -0.5098    0.7134 C   0  0  0  0  0  0  0  0  0  0  0  0
    6.7672   -1.4762    1.1952 C   0  0  0  0  0  0  0  0  0  0  0  0
    5.4487   -1.5034    0.7475 C   0  0  0  0  0  0  0  0  0  0  0  0
    4.9870   -0.5780   -0.2020 C   0  0  0  0  0  0  0  0  0  0  0  0
    3.6441   -0.5664   -0.6380 N   0  0  0  0  0  0  0  0  0  0  0  0
    2.7501    0.0459    0.3675 C   0  0  0  0  0  0  0  0  0  0  0  0
    1.3400    0.2398   -0.2263 C   0  0  0  0  0  0  0  0  0  0  0  0
    0.8080   -0.9863   -0.8466 N   0  0  0  0  0  0  0  0  0  0  0  0
   -0.5320   -1.3506   -0.8868 C   0  0  0  0  0  0  0  0  0  0  0  0
   -0.9486   -2.3724   -1.4260 O   0  0  0  0  0  0  0  0  0  0  0  0
   -1.5311   -0.4812   -0.2343 C   0  0  0  0  0  0  0  0  0  0  0  0
   -2.2669   -0.9871    0.8418 C   0  0  0  0  0  0  0  0  0  0  0  0
   -3.2403   -0.1914    1.4495 C   0  0  0  0  0  0  0  0  0  0  0  0
   -3.4803    1.0988    0.9702 C   0  0  0  0  0  0  0  0  0  0  0  0
   -4.5117    1.8865    1.5573 N   0  0  0  0  0  0  0  0  0  0  0  0
   -5.9660    2.0230    0.6960 S   0  0  0  0  0  6  0  0  0  0  0  0
   -5.7061    2.4874   -0.6475 O   0  0  0  0  0  0  0  0  0  0  0  0
   -6.8909    2.7079    1.5732 O   0  0  0  0  0  0  0  0  0  0  0  0
   -6.6356    0.4618    0.5260 C   0  0  0  0  0  0  0  0  0  0  0  0
   -6.5612   -0.4057   -0.5862 C   0  0  0  0  0  0  0  0  0  0  0  0
   -5.9259   -0.2061   -1.9103 C   0  0  0  0  0  0  0  0  0  0  0  0
   -7.1836   -1.5640   -0.3226 N   0  0  0  0  0  0  0  0  0  0  0  0
   -7.6746   -1.4527    0.9632 O   0  0  0  0  0  0  0  0  0  0  0  0
   -7.3423   -0.2378    1.4748 C   0  0  0  0  0  0  0  0  0  0  0  0
   -7.7999    0.0367    2.8494 C   0  0  0  0  0  0  0  0  0  0  0  0
   -2.7641    1.5908   -0.1232 C   0  0  0  0  0  0  0  0  0  0  0  0
   -1.7891    0.7996   -0.7325 C   0  0  0  0  0  0  0  0  0  0  0  0
    1.7426   -1.6919   -1.7360 C   0  0  0  0  0  0  0  0  0  0  0  0
    3.1352   -1.8749   -1.1063 C   0  0  0  0  0  0  0  0  0  0  0  0
    5.8863    0.3937   -0.7079 C   0  0  0  0  0  0  0  0  0  0  0  0
    5.4002    1.4033   -1.7205 C   0  0  0  0  0  0  0  0  0  0  0  0
    9.1159    1.4642   -0.1061 H   0  0  0  0  0  0  0  0  0  0  0  0
    8.4828    1.2646   -1.7458 H   0  0  0  0  0  0  0  0  0  0  0  0
    7.7759    2.4753   -0.6342 H   0  0  0  0  0  0  0  0  0  0  0  0
    8.6678   -0.4985    1.0806 H   0  0  0  0  0  0  0  0  0  0  0  0
    7.1078   -2.2030    1.9275 H   0  0  0  0  0  0  0  0  0  0  0  0
    4.7787   -2.2503    1.1625 H   0  0  0  0  0  0  0  0  0  0  0  0
    3.1335    1.0235    0.6849 H   0  0  0  0  0  0  0  0  0  0  0  0
    2.6810   -0.5958    1.2558 H   0  0  0  0  0  0  0  0  0  0  0  0
    0.6727    0.5926    0.5645 H   0  0  0  0  0  0  0  0  0  0  0  0
    1.3696    1.0031   -1.0130 H   0  0  0  0  0  0  0  0  0  0  0  0
   -2.0893   -2.0014    1.1938 H   0  0  0  0  0  0  0  0  0  0  0  0
   -3.8104   -0.5982    2.2799 H   0  0  0  0  0  0  0  0  0  0  0  0
   -4.6990    1.7089    2.5433 H   0  0  0  0  0  0  0  0  0  0  0  0
   -5.9049   -1.1363   -2.4882 H   0  0  0  0  0  0  0  0  0  0  0  0
   -6.4822    0.5346   -2.4924 H   0  0  0  0  0  0  0  0  0  0  0  0
   -4.8926    0.1334   -1.8029 H   0  0  0  0  0  0  0  0  0  0  0  0
   -8.0690   -0.8880    3.3698 H   0  0  0  0  0  0  0  0  0  0  0  0
   -8.6794    0.6874    2.8361 H   0  0  0  0  0  0  0  0  0  0  0  0
   -7.0129    0.5266    3.4304 H   0  0  0  0  0  0  0  0  0  0  0  0
   -2.9688    2.5857   -0.5134 H   0  0  0  0  0  0  0  0  0  0  0  0
   -1.2492    1.1741   -1.5987 H   0  0  0  0  0  0  0  0  0  0  0  0
    1.8216   -1.0865   -2.6479 H   0  0  0  0  0  0  0  0  0  0  0  0
    1.3411   -2.6690   -2.0254 H   0  0  0  0  0  0  0  0  0  0  0  0
    3.8122   -2.3005   -1.8565 H   0  0  0  0  0  0  0  0  0  0  0  0
    3.0531   -2.5845   -0.2736 H   0  0  0  0  0  0  0  0  0  0  0  0
    4.6426    0.9751   -2.3851 H   0  0  0  0  0  0  0  0  0  0  0  0
    6.2074    1.7431   -2.3760 H   0  0  0  0  0  0  0  0  0  0  0  0
    4.9735    2.2702   -1.2063 H   0  0  0  0  0  0  0  0  0  0  0  0
  1  2  1  0
  2  3  2  0
  3  4  1  0
  4  5  2  0
  5  6  1  0
  6  7  1  0
  7  8  1  0
  8  9  1  0
  9 10  1  0
 10 11  1  0
 11 12  2  0
 11 13  1  0
 13 14  2  0
 14 15  1  0
 15 16  2  0
 16 17  1  0
 17 18  1  0
 18 19  2  0
 18 20  2  0
 18 21  1  0
 21 22  1  0
 22 23  1  0
 22 24  2  0
 24 25  1  0
 25 26  1  0
 26 27  1  0
 16 28  1  0
 28 29  2  0
 10 30  1  0
 30 31  1  0
  6 32  2  0
 32 33  1  0
 32  2  1  0
 31  7  1  0
 29 13  1  0
 26 21  2  0
  1 34  1  0
  1 35  1  0
  1 36  1  0
  3 37  1  0
  4 38  1  0
  5 39  1  0
  8 40  1  0
  8 41  1  0
  9 42  1  0
  9 43  1  0
 14 44  1  0
 15 45  1  0
 17 46  1  0
 23 47  1  0
 23 48  1  0
 23 49  1  0
 27 50  1  0
 27 51  1  0
 27 52  1  0
 28 53  1  0
 29 54  1  0
 30 55  1  0
 30 56  1  0
 31 57  1  0
 31 58  1  0
 33 59  1  0
 33 60  1  0
 33 61  1  0
M  END
$$$$
