
     RDKit          3D

 54 57  0  0  0  0  0  0  0  0999 V2000
   -3.5659    0.8501    0.0277 C   0  0  0  0  0  0  0  0  0  0  0  0
   -4.1138    0.1517    1.2759 C   0  0  0  0  0  0  0  0  0  0  0  0
   -4.7871    1.1641    2.2109 C   0  0  0  0  0  0  0  0  0  0  0  0
   -5.5286    0.4784    3.3619 C   0  0  0  0  0  0  0  0  0  0  0  0
   -4.9752   -0.9016    3.7156 C   0  0  0  0  0  0  0  0  0  0  0  0
   -3.4665   -0.9727    3.5120 C   0  0  0  0  0  0  0  0  0  0  0  0
   -3.0683   -0.6926    2.0482 C   0  0  0  0  0  0  0  0  0  0  0  0
   -2.8004   -1.9363    1.3483 N   0  0  0  0  0  0  0  0  0  0  0  0
   -1.4828   -2.0649    0.9791 C   0  0  0  0  0  0  0  0  0  0  0  0
   -1.0313   -3.0215    0.3722 O   0  0  0  0  0  0  0  0  0  0  0  0
   -0.8054   -0.9702    1.4103 N   0  0  0  0  0  0  0  0  0  0  0  0
    0.5869   -0.7212    1.1304 C   0  0  0  0  0  0  0  0  0  0  0  0
    0.7276   -0.0416   -0.2323 C   0  0  0  0  0  0  0  0  0  0  0  0
   -0.2178    0.4150   -0.8697 O   0  0  0  0  0  0  0  0  0  0  0  0
    2.0331    0.0409   -0.6705 N   0  0  0  0  0  0  0  0  0  0  0  0
    2.3756    0.6046   -1.9687 C   0  0  0  0  0  0  0  0  0  0  0  0
    2.0909   -0.3961   -3.1006 C   0  0  0  0  0  0  0  0  0  0  0  0
    3.1412   -1.5019   -3.1330 C   0  0  0  0  0  0  0  0  0  0  0  0
    4.5238   -0.9180   -3.4102 C   0  0  0  0  0  0  0  0  0  0  0  0
    4.8390    0.3018   -2.5794 C   0  0  0  0  0  0  0  0  0  0  0  0
    6.1699    0.7402   -2.4994 C   0  0  0  0  0  0  0  0  0  0  0  0
    6.5002    1.8876   -1.7787 C   0  0  0  0  0  0  0  0  0  0  0  0
    5.5040    2.6158   -1.1360 C   0  0  0  0  0  0  0  0  0  0  0  0
    4.1766    2.1972   -1.2151 C   0  0  0  0  0  0  0  0  0  0  0  0
    3.8274    1.0444   -1.9404 C   0  0  0  0  0  0  0  0  0  0  0  0
   -1.6444   -0.0893    2.0311 C   0  0  0  0  0  0  0  0  0  0  0  0
   -1.3229    0.9868    2.5186 O   0  0  0  0  0  0  0  0  0  0  0  0
   -3.0949    0.1325   -0.6513 H   0  0  0  0  0  0  0  0  0  0  0  0
   -2.8340    1.6240    0.2795 H   0  0  0  0  0  0  0  0  0  0  0  0
   -4.3783    1.3368   -0.5234 H   0  0  0  0  0  0  0  0  0  0  0  0
   -4.9016   -0.5283    0.9186 H   0  0  0  0  0  0  0  0  0  0  0  0
   -4.0294    1.8424    2.6238 H   0  0  0  0  0  0  0  0  0  0  0  0
   -5.4934    1.7950    1.6578 H   0  0  0  0  0  0  0  0  0  0  0  0
   -5.4893    1.1312    4.2425 H   0  0  0  0  0  0  0  0  0  0  0  0
   -6.5905    0.3745    3.1079 H   0  0  0  0  0  0  0  0  0  0  0  0
   -5.2289   -1.1425    4.7542 H   0  0  0  0  0  0  0  0  0  0  0  0
   -5.4613   -1.6631    3.0928 H   0  0  0  0  0  0  0  0  0  0  0  0
   -3.1032   -1.9570    3.8341 H   0  0  0  0  0  0  0  0  0  0  0  0
   -2.9977   -0.2424    4.1847 H   0  0  0  0  0  0  0  0  0  0  0  0
   -3.4820   -2.6417    1.1014 H   0  0  0  0  0  0  0  0  0  0  0  0
    1.1295   -1.6720    1.1146 H   0  0  0  0  0  0  0  0  0  0  0  0
    1.0069   -0.0599    1.8949 H   0  0  0  0  0  0  0  0  0  0  0  0
    2.7665   -0.4422   -0.1679 H   0  0  0  0  0  0  0  0  0  0  0  0
    1.7389    1.4834   -2.1352 H   0  0  0  0  0  0  0  0  0  0  0  0
    1.0940   -0.8382   -2.9903 H   0  0  0  0  0  0  0  0  0  0  0  0
    2.0996    0.1309   -4.0639 H   0  0  0  0  0  0  0  0  0  0  0  0
    3.1467   -2.0406   -2.1774 H   0  0  0  0  0  0  0  0  0  0  0  0
    2.8917   -2.2348   -3.9086 H   0  0  0  0  0  0  0  0  0  0  0  0
    5.2761   -1.6956   -3.2315 H   0  0  0  0  0  0  0  0  0  0  0  0
    4.5890   -0.6321   -4.4676 H   0  0  0  0  0  0  0  0  0  0  0  0
    6.9592    0.1880   -3.0056 H   0  0  0  0  0  0  0  0  0  0  0  0
    7.5349    2.2154   -1.7237 H   0  0  0  0  0  0  0  0  0  0  0  0
    5.7592    3.5111   -0.5752 H   0  0  0  0  0  0  0  0  0  0  0  0
    3.4063    2.7744   -0.7063 H   0  0  0  0  0  0  0  0  0  0  0  0
  1  2  1  0
  2  3  1  0
  3  4  1  0
  4  5  1  0
  5  6  1  0
  6  7  1  0
  7  8  1  0
  8  9  1  0
  9 10  2  0
  9 11  1  0
 11 12  1  0
 12 13  1  0
 13 14  2  0
 13 15  1  0
 15 16  1  0
 16 17  1  0
 17 18  1  0
 18 19  1  0
 19 20  1  0
 20 21  2  0
 21 22  1  0
 22 23  2  0
 23 24  1  0
 24 25  2  0
 11 26  1  0
 26 27  2  0
  7  2  1  0
 25 16  1  0
 26  7  1  0
 25 20  1  0
  1 28  1  0
  1 29  1  0
  1 30  1  0
  2 31  1  0
  3 32  1  0
  3 33  1  0
  4 34  1  0
  4 35  1  0
  5 36  1  0
  5 37  1  0
  6 38  1  0
  6 39  1  0
  8 40  1  0
 12 41  1  0
 12 42  1  0
 15 43  1  0
 16 44  1  0
 17 45  1  0
 17 46  1  0
 18 47  1  0
 18 48  1  0
 19 49  1  0
 19 50  1  0
 21 51  1  0
 22 52  1  0
 23 53  1  0
 24 54  1  0
M  END
$$$$
