
     RDKit          3D

 51 54  0  0  0  0  0  0  0  0999 V2000
    2.1888   -1.7047   -3.1116 C   0  0  0  0  0  0  0  0  0  0  0  0
    2.4008   -0.2440   -2.6974 C   0  0  0  0  0  0  0  0  0  0  0  0
    1.1318    0.5912   -2.9426 C   0  0  0  0  0  0  0  0  0  0  0  0
    0.5781    0.7010   -1.5558 C   0  0  0  0  0  0  0  0  0  0  0  0
   -0.6750    1.1813   -1.2026 C   0  0  0  0  0  0  0  0  0  0  0  0
   -0.9891    1.2385    0.1560 C   0  0  0  0  0  0  0  0  0  0  0  0
   -2.5885    1.8456    0.6412 S   0  0  0  0  0  6  0  0  0  0  0  0
   -2.7971    3.0850   -0.0766 O   0  0  0  0  0  0  0  0  0  0  0  0
   -2.6734    1.7937    2.0849 O   0  0  0  0  0  0  0  0  0  0  0  0
   -3.6396    0.6672    0.0027 N   0  0  0  0  0  0  0  0  0  0  0  0
   -3.5379   -0.7187    0.5261 C   0  0  0  0  0  0  0  0  0  0  0  0
   -4.3636   -0.9189    1.7930 C   0  0  0  0  0  0  0  0  0  0  0  0
   -5.8066   -0.4615    1.6077 C   0  0  0  0  0  0  0  0  0  0  0  0
   -5.8623    0.9649    1.0706 C   0  0  0  0  0  0  0  0  0  0  0  0
   -5.0448    1.0981   -0.2077 C   0  0  0  0  0  0  0  0  0  0  0  0
   -0.0616    0.8381    1.1298 C   0  0  0  0  0  0  0  0  0  0  0  0
    1.2020    0.3650    0.7492 C   0  0  0  0  0  0  0  0  0  0  0  0
    1.5230    0.3085   -0.5971 C   0  0  0  0  0  0  0  0  0  0  0  0
    2.6928   -0.1315   -1.2469 N   0  0  0  0  0  0  0  0  0  0  0  0
    3.9609   -0.4517   -0.7663 C   0  0  0  0  0  0  0  0  0  0  0  0
    4.8008   -0.9347   -1.5446 O   0  0  0  0  0  0  0  0  0  0  0  0
    4.3371   -0.1468    0.7036 C   0  0  0  0  0  0  0  0  0  0  0  0
    5.8582   -0.0407    1.0407 C   0  0  0  0  0  0  0  0  0  0  0  0
    5.5402   -0.7057    2.3915 C   0  0  0  0  0  0  0  0  0  0  0  0
    4.3124   -1.3356    1.7098 C   0  0  0  0  0  0  0  0  0  0  0  0
    3.0875   -2.3037   -2.9350 H   0  0  0  0  0  0  0  0  0  0  0  0
    1.3717   -2.1673   -2.5468 H   0  0  0  0  0  0  0  0  0  0  0  0
    1.9474   -1.7713   -4.1775 H   0  0  0  0  0  0  0  0  0  0  0  0
    3.2417    0.1645   -3.2713 H   0  0  0  0  0  0  0  0  0  0  0  0
    1.3921    1.5913   -3.3066 H   0  0  0  0  0  0  0  0  0  0  0  0
    0.4327    0.1178   -3.6384 H   0  0  0  0  0  0  0  0  0  0  0  0
   -1.3872    1.5063   -1.9559 H   0  0  0  0  0  0  0  0  0  0  0  0
   -3.8916   -1.3990   -0.2589 H   0  0  0  0  0  0  0  0  0  0  0  0
   -2.4950   -0.9930    0.7101 H   0  0  0  0  0  0  0  0  0  0  0  0
   -3.9156   -0.3690    2.6277 H   0  0  0  0  0  0  0  0  0  0  0  0
   -4.3486   -1.9779    2.0751 H   0  0  0  0  0  0  0  0  0  0  0  0
   -6.3169   -1.1361    0.9092 H   0  0  0  0  0  0  0  0  0  0  0  0
   -6.3423   -0.5226    2.5615 H   0  0  0  0  0  0  0  0  0  0  0  0
   -5.4864    1.6583    1.8323 H   0  0  0  0  0  0  0  0  0  0  0  0
   -6.9038    1.2420    0.8724 H   0  0  0  0  0  0  0  0  0  0  0  0
   -5.0864    2.1256   -0.5828 H   0  0  0  0  0  0  0  0  0  0  0  0
   -5.4774    0.4734   -0.9993 H   0  0  0  0  0  0  0  0  0  0  0  0
   -0.3165    0.8873    2.1870 H   0  0  0  0  0  0  0  0  0  0  0  0
    1.8722    0.0349    1.5289 H   0  0  0  0  0  0  0  0  0  0  0  0
    3.8423    0.7578    1.0805 H   0  0  0  0  0  0  0  0  0  0  0  0
    6.2594    0.9747    1.1020 H   0  0  0  0  0  0  0  0  0  0  0  0
    6.5173   -0.6422    0.4042 H   0  0  0  0  0  0  0  0  0  0  0  0
    6.2893   -1.4075    2.7661 H   0  0  0  0  0  0  0  0  0  0  0  0
    5.2872    0.0064    3.1853 H   0  0  0  0  0  0  0  0  0  0  0  0
    3.4270   -1.4218    2.3439 H   0  0  0  0  0  0  0  0  0  0  0  0
    4.5127   -2.3126    1.2539 H   0  0  0  0  0  0  0  0  0  0  0  0
  1  2  1  0
  2  3  1  0
  3  4  1  0
  4  5  2  0
  5  6  1  0
  6  7  1  0
  7  8  2  0
  7  9  2  0
  7 10  1  0
 10 11  1  0
 11 12  1  0
 12 13  1  0
 13 14  1  0
 14 15  1  0
  6 16  2  0
 16 17  1  0
 17 18  2  0
 18 19  1  0
 19 20  1  0
 20 21  2  0
 20 22  1  0
 22 23  1  0
 23 24  1  0
 24 25  1  0
 19  2  1  0
 25 22  1  0
 18  4  1  0
 15 10  1  0
  1 26  1  0
  1 27  1  0
  1 28  1  0
  2 29  1  0
  3 30  1  0
  3 31  1  0
  5 32  1  0
 11 33  1  0
 11 34  1  0
 12 35  1  0
 12 36  1  0
 13 37  1  0
 13 38  1  0
 14 39  1  0
 14 40  1  0
 15 41  1  0
 15 42  1  0
 16 43  1  0
 17 44  1  0
 22 45  1  0
 23 46  1  0
 23 47  1  0
 24 48  1  0
 24 49  1  0
 25 50  1  0
 25 51  1  0
M  END
$$$$
