
     RDKit          3D

 52 54  0  0  0  0  0  0  0  0999 V2000
    3.7815    2.4945   -0.3207 C   0  0  0  0  0  0  0  0  0  0  0  0
    3.4732    1.9370    1.0673 C   0  0  0  0  0  0  0  0  0  0  0  0
    4.5267    0.9467    1.5995 C   0  0  0  0  0  0  0  0  0  0  0  0
    4.5632   -0.4602    0.9843 C   0  0  0  0  0  0  0  0  0  0  0  0
    5.0189   -0.5456   -0.4497 C   0  0  0  0  0  0  0  0  0  0  0  0
    6.2876   -0.0850   -0.8297 C   0  0  0  0  0  0  0  0  0  0  0  0
    6.7068   -0.1742   -2.1584 C   0  0  0  0  0  0  0  0  0  0  0  0
    5.8676   -0.7338   -3.1195 C   0  0  0  0  0  0  0  0  0  0  0  0
    4.6110   -1.2103   -2.7517 C   0  0  0  0  0  0  0  0  0  0  0  0
    4.1899   -1.1215   -1.4233 C   0  0  0  0  0  0  0  0  0  0  0  0
    2.1290    1.3740    1.1084 N   0  0  0  0  0  0  0  0  0  0  0  0
    1.0215    2.1723    1.3218 C   0  0  0  0  0  0  0  0  0  0  0  0
    1.0824    3.3648    1.5971 O   0  0  0  0  0  0  0  0  0  0  0  0
   -0.3045    1.5129    1.1585 C   0  0  0  0  0  0  0  0  0  0  0  0
   -0.4844    0.1405    1.3589 C   0  0  0  0  0  0  0  0  0  0  0  0
   -1.7501   -0.4374    1.1922 C   0  0  0  0  0  0  0  0  0  0  0  0
   -2.8498    0.3466    0.8366 C   0  0  0  0  0  0  0  0  0  0  0  0
   -4.1523   -0.1608    0.6463 N   0  0  0  0  0  0  0  0  0  0  0  0
   -4.5787   -1.4646    0.8258 C   0  0  0  0  0  0  0  0  0  0  0  0
   -3.9132   -2.4072    1.2364 O   0  0  0  0  0  0  0  0  0  0  0  0
   -6.0148   -1.7041    0.5099 C   0  0  0  0  0  0  0  0  0  0  0  0
   -6.7271   -2.6198    1.2959 C   0  0  0  0  0  0  0  0  0  0  0  0
   -8.0736   -2.8742    1.0313 C   0  0  0  0  0  0  0  0  0  0  0  0
   -8.7099   -2.2232   -0.0255 C   0  0  0  0  0  0  0  0  0  0  0  0
   -7.9935   -1.3272   -0.8189 C   0  0  0  0  0  0  0  0  0  0  0  0
   -8.8543   -0.4635   -2.2643 Br  0  0  0  0  0  0  0  0  0  0  0  0
   -6.6476   -1.0645   -0.5631 C   0  0  0  0  0  0  0  0  0  0  0  0
   -2.6667    1.7227    0.6507 C   0  0  0  0  0  0  0  0  0  0  0  0
   -1.4050    2.3037    0.8147 C   0  0  0  0  0  0  0  0  0  0  0  0
    3.6112    1.7562   -1.1086 H   0  0  0  0  0  0  0  0  0  0  0  0
    4.8154    2.8481   -0.3842 H   0  0  0  0  0  0  0  0  0  0  0  0
    3.1262    3.3441   -0.5446 H   0  0  0  0  0  0  0  0  0  0  0  0
    3.4886    2.7937    1.7543 H   0  0  0  0  0  0  0  0  0  0  0  0
    4.3291    0.8108    2.6721 H   0  0  0  0  0  0  0  0  0  0  0  0
    5.5180    1.4122    1.5374 H   0  0  0  0  0  0  0  0  0  0  0  0
    5.2527   -1.0763    1.5776 H   0  0  0  0  0  0  0  0  0  0  0  0
    3.5834   -0.9388    1.1002 H   0  0  0  0  0  0  0  0  0  0  0  0
    6.9619    0.3451   -0.0925 H   0  0  0  0  0  0  0  0  0  0  0  0
    7.6906    0.1902   -2.4427 H   0  0  0  0  0  0  0  0  0  0  0  0
    6.1949   -0.8040   -4.1534 H   0  0  0  0  0  0  0  0  0  0  0  0
    3.9591   -1.6543   -3.4998 H   0  0  0  0  0  0  0  0  0  0  0  0
    3.2082   -1.5063   -1.1572 H   0  0  0  0  0  0  0  0  0  0  0  0
    1.9815    0.5130    0.6002 H   0  0  0  0  0  0  0  0  0  0  0  0
    0.3378   -0.4959    1.6735 H   0  0  0  0  0  0  0  0  0  0  0  0
   -1.8431   -1.5064    1.3583 H   0  0  0  0  0  0  0  0  0  0  0  0
   -4.8572    0.5272    0.4153 H   0  0  0  0  0  0  0  0  0  0  0  0
   -6.2316   -3.1356    2.1171 H   0  0  0  0  0  0  0  0  0  0  0  0
   -8.6235   -3.5830    1.6462 H   0  0  0  0  0  0  0  0  0  0  0  0
   -9.7583   -2.4286   -0.2277 H   0  0  0  0  0  0  0  0  0  0  0  0
   -6.0964   -0.3930   -1.2147 H   0  0  0  0  0  0  0  0  0  0  0  0
   -3.4996    2.3669    0.3805 H   0  0  0  0  0  0  0  0  0  0  0  0
   -1.2824    3.3761    0.6726 H   0  0  0  0  0  0  0  0  0  0  0  0
  1  2  1  0
  2  3  1  0
  3  4  1  0
  4  5  1  0
  5  6  2  0
  6  7  1  0
  7  8  2  0
  8  9  1  0
  9 10  2  0
  2 11  1  0
 11 12  1  0
 12 13  2  0
 12 14  1  0
 14 15  2  0
 15 16  1  0
 16 17  2  0
 17 18  1  0
 18 19  1  0
 19 20  2  0
 19 21  1  0
 21 22  2  0
 22 23  1  0
 23 24  2  0
 24 25  1  0
 25 26  1  0
 25 27  2  0
 17 28  1  0
 28 29  2  0
 10  5  1  0
 29 14  1  0
 27 21  1  0
  1 30  1  0
  1 31  1  0
  1 32  1  0
  2 33  1  0
  3 34  1  0
  3 35  1  0
  4 36  1  0
  4 37  1  0
  6 38  1  0
  7 39  1  0
  8 40  1  0
  9 41  1  0
 10 42  1  0
 11 43  1  0
 15 44  1  0
 16 45  1  0
 18 46  1  0
 22 47  1  0
 23 48  1  0
 24 49  1  0
 27 50  1  0
 28 51  1  0
 29 52  1  0
M  END
$$$$
