
     RDKit          3D

 61 63  0  0  0  0  0  0  0  0999 V2000
   -6.8406   -2.2469   -1.7376 C   0  0  0  0  0  0  0  0  0  0  0  0
   -5.9340   -2.8618   -0.6807 C   0  0  0  0  0  0  0  0  0  0  0  0
   -4.5464   -2.2038   -0.6825 C   0  0  0  0  0  0  0  0  0  0  0  0
   -3.6343   -2.8339    0.2733 N   0  0  0  0  0  0  0  0  0  0  0  0
   -3.9962   -2.7118    1.6900 C   0  0  0  0  0  0  0  0  0  0  0  0
   -4.4667   -1.3372    2.1845 C   0  0  0  0  0  0  0  0  0  0  0  0
   -4.7012   -1.3446    3.6904 C   0  0  0  0  0  0  0  0  0  0  0  0
   -2.2080   -2.6154   -0.0118 C   0  0  0  0  0  0  0  0  0  0  0  0
   -1.5757   -1.2267    0.2163 C   0  0  0  0  0  0  0  0  0  0  0  0
   -2.1530   -0.2185   -0.6766 N   0  0  0  0  0  0  0  0  0  0  0  0
   -1.9332    1.4090   -0.3545 S   0  0  0  0  0  6  0  0  0  0  0  0
   -2.4863    2.1248   -1.4832 O   0  0  0  0  0  0  0  0  0  0  0  0
   -2.3616    1.6721    1.0010 O   0  0  0  0  0  0  0  0  0  0  0  0
   -0.1645    1.5750   -0.4215 C   0  0  0  0  0  0  0  0  0  0  0  0
    0.5843    1.5241    0.7665 C   0  0  0  0  0  0  0  0  0  0  0  0
    1.9778    1.6428    0.7233 C   0  0  0  0  0  0  0  0  0  0  0  0
    2.5938    1.8276   -0.5053 C   0  0  0  0  0  0  0  0  0  0  0  0
    1.8375    1.9010   -1.6783 C   0  0  0  0  0  0  0  0  0  0  0  0
    0.4552    1.7793   -1.6586 C   0  0  0  0  0  0  0  0  0  0  0  0
    2.7055    2.1072   -2.8773 C   0  0  0  0  0  0  0  0  0  0  0  0
    4.1031    2.1936   -2.2519 C   0  0  0  0  0  0  0  0  0  0  0  0
    3.9626    1.9705   -0.8038 N   0  0  0  0  0  0  0  0  0  0  0  0
    5.0107    1.9190    0.1108 C   0  0  0  0  0  0  0  0  0  0  0  0
    4.8392    1.7302    1.3211 O   0  0  0  0  0  0  0  0  0  0  0  0
    6.4357    2.1139   -0.4861 C   0  0  0  0  0  0  0  0  0  0  0  0
    7.6289    2.2244    0.5103 C   0  0  0  0  0  0  0  0  0  0  0  0
    8.4727    1.4446   -0.5147 C   0  0  0  0  0  0  0  0  0  0  0  0
    7.1529    0.8496   -1.0403 C   0  0  0  0  0  0  0  0  0  0  0  0
   -6.4241   -2.3841   -2.7414 H   0  0  0  0  0  0  0  0  0  0  0  0
   -6.9738   -1.1744   -1.5634 H   0  0  0  0  0  0  0  0  0  0  0  0
   -7.8279   -2.7205   -1.7124 H   0  0  0  0  0  0  0  0  0  0  0  0
   -6.4182   -2.7527    0.2960 H   0  0  0  0  0  0  0  0  0  0  0  0
   -5.8361   -3.9367   -0.8768 H   0  0  0  0  0  0  0  0  0  0  0  0
   -4.1393   -2.3156   -1.6963 H   0  0  0  0  0  0  0  0  0  0  0  0
   -4.6428   -1.1270   -0.5042 H   0  0  0  0  0  0  0  0  0  0  0  0
   -3.1587   -3.0564    2.3115 H   0  0  0  0  0  0  0  0  0  0  0  0
   -4.7966   -3.4351    1.8899 H   0  0  0  0  0  0  0  0  0  0  0  0
   -3.7314   -0.5632    1.9516 H   0  0  0  0  0  0  0  0  0  0  0  0
   -5.4042   -1.0510    1.6933 H   0  0  0  0  0  0  0  0  0  0  0  0
   -5.4676   -2.0779    3.9651 H   0  0  0  0  0  0  0  0  0  0  0  0
   -3.7795   -1.5882    4.2300 H   0  0  0  0  0  0  0  0  0  0  0  0
   -5.0391   -0.3590    4.0250 H   0  0  0  0  0  0  0  0  0  0  0  0
   -1.6358   -3.3356    0.5863 H   0  0  0  0  0  0  0  0  0  0  0  0
   -2.0154   -2.9119   -1.0512 H   0  0  0  0  0  0  0  0  0  0  0  0
   -0.5047   -1.3090   -0.0042 H   0  0  0  0  0  0  0  0  0  0  0  0
   -1.6721   -0.9318    1.2651 H   0  0  0  0  0  0  0  0  0  0  0  0
   -2.2802   -0.4425   -1.6605 H   0  0  0  0  0  0  0  0  0  0  0  0
    0.0910    1.3895    1.7277 H   0  0  0  0  0  0  0  0  0  0  0  0
    2.5442    1.5964    1.6479 H   0  0  0  0  0  0  0  0  0  0  0  0
   -0.1245    1.8432   -2.5753 H   0  0  0  0  0  0  0  0  0  0  0  0
    2.6334    1.2587   -3.5659 H   0  0  0  0  0  0  0  0  0  0  0  0
    2.4513    3.0315   -3.4045 H   0  0  0  0  0  0  0  0  0  0  0  0
    4.5444    3.1831   -2.4154 H   0  0  0  0  0  0  0  0  0  0  0  0
    4.7779    1.4426   -2.6753 H   0  0  0  0  0  0  0  0  0  0  0  0
    6.4707    2.9527   -1.1967 H   0  0  0  0  0  0  0  0  0  0  0  0
    7.4895    1.6900    1.4572 H   0  0  0  0  0  0  0  0  0  0  0  0
    7.9730    3.2400    0.7258 H   0  0  0  0  0  0  0  0  0  0  0  0
    8.9880    2.0841   -1.2405 H   0  0  0  0  0  0  0  0  0  0  0  0
    9.1865    0.7286   -0.1000 H   0  0  0  0  0  0  0  0  0  0  0  0
    6.8595   -0.0850   -0.5479 H   0  0  0  0  0  0  0  0  0  0  0  0
    7.1043    0.7091   -2.1236 H   0  0  0  0  0  0  0  0  0  0  0  0
  1  2  1  0
  2  3  1  0
  3  4  1  0
  4  5  1  0
  5  6  1  0
  6  7  1  0
  4  8  1  0
  8  9  1  0
  9 10  1  0
 10 11  1  0
 11 12  2  0
 11 13  2  0
 11 14  1  0
 14 15  2  0
 15 16  1  0
 16 17  2  0
 17 18  1  0
 18 19  2  0
 18 20  1  0
 20 21  1  0
 21 22  1  0
 22 23  1  0
 23 24  2  0
 23 25  1  0
 25 26  1  0
 26 27  1  0
 27 28  1  0
 19 14  1  0
 28 25  1  0
 22 17  1  0
  1 29  1  0
  1 30  1  0
  1 31  1  0
  2 32  1  0
  2 33  1  0
  3 34  1  0
  3 35  1  0
  5 36  1  0
  5 37  1  0
  6 38  1  0
  6 39  1  0
  7 40  1  0
  7 41  1  0
  7 42  1  0
  8 43  1  0
  8 44  1  0
  9 45  1  0
  9 46  1  0
 10 47  1  0
 15 48  1  0
 16 49  1  0
 19 50  1  0
 20 51  1  0
 20 52  1  0
 21 53  1  0
 21 54  1  0
 25 55  1  0
 26 56  1  0
 26 57  1  0
 27 58  1  0
 27 59  1  0
 28 60  1  0
 28 61  1  0
M  END
$$$$
