
     RDKit          3D

 68 72  0  0  0  0  0  0  0  0999 V2000
    9.0368    1.4463    0.0250 C   0  0  0  0  0  0  0  0  0  0  0  0
    7.9948    1.3486    0.9876 O   0  0  0  0  0  0  0  0  0  0  0  0
    6.7427    1.0727    0.5139 C   0  0  0  0  0  0  0  0  0  0  0  0
    6.3851    0.9066   -0.8204 C   0  0  0  0  0  0  0  0  0  0  0  0
    5.0541    0.6241   -1.1685 C   0  0  0  0  0  0  0  0  0  0  0  0
    4.0450    0.5114   -0.2020 C   0  0  0  0  0  0  0  0  0  0  0  0
    2.7059    0.2203   -0.5057 N   0  0  0  0  0  0  0  0  0  0  0  0
    2.3904   -0.2746   -1.8638 C   0  0  0  0  0  0  0  0  0  0  0  0
    0.9252   -0.7641   -1.9402 C   0  0  0  0  0  0  0  0  0  0  0  0
   -0.0307    0.2900   -1.5420 N   0  0  0  0  0  0  0  0  0  0  0  0
   -1.4344   -0.1082   -1.7212 C   0  0  0  0  0  0  0  0  0  0  0  0
   -1.8781   -1.3580   -1.0061 C   0  0  0  0  0  0  0  0  0  0  0  0
   -1.6431   -2.5952   -1.4260 N   0  0  0  0  0  0  0  0  0  0  0  0
   -2.2480   -3.4039   -0.5190 C   0  0  0  0  0  0  0  0  0  0  0  0
   -2.8782   -2.6904    0.4570 C   0  0  0  0  0  0  0  0  0  0  0  0
   -3.6056   -3.3150    1.5073 C   0  0  0  0  0  0  0  0  0  0  0  0
   -4.2182   -2.7277    2.3919 O   0  0  0  0  0  0  0  0  0  0  0  0
   -3.5677   -4.6892    1.4293 N   0  0  0  0  0  0  0  0  0  0  0  0
   -2.9491   -5.4581    0.4604 C   0  0  0  0  0  0  0  0  0  0  0  0
   -3.0364   -6.6841    0.5314 O   0  0  0  0  0  0  0  0  0  0  0  0
   -2.2657   -4.7818   -0.5436 N   0  0  0  0  0  0  0  0  0  0  0  0
   -1.5885   -5.5081   -1.5995 C   0  0  0  0  0  0  0  0  0  0  0  0
   -2.6381   -1.3776    0.1532 N   0  0  0  0  0  0  0  0  0  0  0  0
   -3.0939   -0.2332    0.9215 C   0  0  0  0  0  0  0  0  0  0  0  0
   -4.4692    0.2577    0.4700 C   0  0  0  0  0  0  0  0  0  0  0  0
   -4.9366    1.4869    1.2554 C   0  0  0  0  0  0  0  0  0  0  0  0
   -4.0343    2.6832    1.0725 C   0  0  0  0  0  0  0  0  0  0  0  0
   -3.9623    3.3401   -0.1636 C   0  0  0  0  0  0  0  0  0  0  0  0
   -3.0995    4.4227   -0.3404 C   0  0  0  0  0  0  0  0  0  0  0  0
   -2.3047    4.8622    0.7162 C   0  0  0  0  0  0  0  0  0  0  0  0
   -2.3746    4.2223    1.9521 C   0  0  0  0  0  0  0  0  0  0  0  0
   -3.2362    3.1388    2.1309 C   0  0  0  0  0  0  0  0  0  0  0  0
    0.2892    0.7581   -0.1833 C   0  0  0  0  0  0  0  0  0  0  0  0
    1.7490    1.2586   -0.0526 C   0  0  0  0  0  0  0  0  0  0  0  0
    4.4341    0.6693    1.1372 C   0  0  0  0  0  0  0  0  0  0  0  0
    5.7590    0.9499    1.4912 C   0  0  0  0  0  0  0  0  0  0  0  0
    8.8573    2.2744   -0.6687 H   0  0  0  0  0  0  0  0  0  0  0  0
    9.1686    0.5008   -0.5120 H   0  0  0  0  0  0  0  0  0  0  0  0
    9.9677    1.6569    0.5604 H   0  0  0  0  0  0  0  0  0  0  0  0
    7.1107    0.9888   -1.6221 H   0  0  0  0  0  0  0  0  0  0  0  0
    4.8299    0.5112   -2.2246 H   0  0  0  0  0  0  0  0  0  0  0  0
    2.5420    0.5209   -2.6051 H   0  0  0  0  0  0  0  0  0  0  0  0
    3.0422   -1.1186   -2.1210 H   0  0  0  0  0  0  0  0  0  0  0  0
    0.8284   -1.6461   -1.2951 H   0  0  0  0  0  0  0  0  0  0  0  0
    0.7230   -1.0782   -2.9710 H   0  0  0  0  0  0  0  0  0  0  0  0
   -2.0839    0.7371   -1.4674 H   0  0  0  0  0  0  0  0  0  0  0  0
   -1.6056   -0.2690   -2.7942 H   0  0  0  0  0  0  0  0  0  0  0  0
   -4.0671   -5.1979    2.1413 H   0  0  0  0  0  0  0  0  0  0  0  0
   -2.0306   -5.2334   -2.5624 H   0  0  0  0  0  0  0  0  0  0  0  0
   -0.5267   -5.2424   -1.5937 H   0  0  0  0  0  0  0  0  0  0  0  0
   -1.6797   -6.5897   -1.4679 H   0  0  0  0  0  0  0  0  0  0  0  0
   -2.3373    0.5474    0.8223 H   0  0  0  0  0  0  0  0  0  0  0  0
   -3.1034   -0.5147    1.9795 H   0  0  0  0  0  0  0  0  0  0  0  0
   -4.4527    0.4790   -0.6044 H   0  0  0  0  0  0  0  0  0  0  0  0
   -5.2059   -0.5444    0.6037 H   0  0  0  0  0  0  0  0  0  0  0  0
   -5.9485    1.7625    0.9325 H   0  0  0  0  0  0  0  0  0  0  0  0
   -5.0180    1.2328    2.3197 H   0  0  0  0  0  0  0  0  0  0  0  0
   -4.5788    3.0141   -0.9983 H   0  0  0  0  0  0  0  0  0  0  0  0
   -3.0501    4.9262   -1.3027 H   0  0  0  0  0  0  0  0  0  0  0  0
   -1.6359    5.7079    0.5781 H   0  0  0  0  0  0  0  0  0  0  0  0
   -1.7601    4.5704    2.7786 H   0  0  0  0  0  0  0  0  0  0  0  0
   -3.2779    2.6517    3.1031 H   0  0  0  0  0  0  0  0  0  0  0  0
   -0.3717    1.5911    0.0834 H   0  0  0  0  0  0  0  0  0  0  0  0
    0.1291   -0.0436    0.5489 H   0  0  0  0  0  0  0  0  0  0  0  0
    1.8807    2.1678   -0.6546 H   0  0  0  0  0  0  0  0  0  0  0  0
    1.9100    1.5313    0.9965 H   0  0  0  0  0  0  0  0  0  0  0  0
    3.7047    0.5439    1.9329 H   0  0  0  0  0  0  0  0  0  0  0  0
    6.0215    1.0612    2.5398 H   0  0  0  0  0  0  0  0  0  0  0  0
  1  2  1  0
  2  3  1  0
  3  4  2  0
  4  5  1  0
  5  6  2  0
  6  7  1  0
  7  8  1  0
  8  9  1  0
  9 10  1  0
 10 11  1  0
 11 12  1  0
 12 13  2  0
 13 14  1  0
 14 15  2  0
 15 16  1  0
 16 17  2  0
 16 18  1  0
 18 19  1  0
 19 20  2  0
 19 21  1  0
 21 22  1  0
 15 23  1  0
 23 24  1  0
 24 25  1  0
 25 26  1  0
 26 27  1  0
 27 28  2  0
 28 29  1  0
 29 30  2  0
 30 31  1  0
 31 32  2  0
 10 33  1  0
 33 34  1  0
  6 35  1  0
 35 36  2  0
 36  3  1  0
 34  7  1  0
 23 12  1  0
 32 27  1  0
 21 14  1  0
  1 37  1  0
  1 38  1  0
  1 39  1  0
  4 40  1  0
  5 41  1  0
  8 42  1  0
  8 43  1  0
  9 44  1  0
  9 45  1  0
 11 46  1  0
 11 47  1  0
 18 48  1  0
 22 49  1  0
 22 50  1  0
 22 51  1  0
 24 52  1  0
 24 53  1  0
 25 54  1  0
 25 55  1  0
 26 56  1  0
 26 57  1  0
 28 58  1  0
 29 59  1  0
 30 60  1  0
 31 61  1  0
 32 62  1  0
 33 63  1  0
 33 64  1  0
 34 65  1  0
 34 66  1  0
 35 67  1  0
 36 68  1  0
M  END
$$$$
