
     RDKit          3D

 39 41  0  0  0  0  0  0  0  0999 V2000
    6.0684    2.9593   -0.1279 C   0  0  0  0  0  0  0  0  0  0  0  0
    4.8084    2.3234   -0.6494 C   0  0  0  0  0  0  0  0  0  0  0  0
    3.7261    3.1403   -1.0110 C   0  0  0  0  0  0  0  0  0  0  0  0
    2.5461    2.5829   -1.5055 C   0  0  0  0  0  0  0  0  0  0  0  0
    2.4227    1.2015   -1.6380 C   0  0  0  0  0  0  0  0  0  0  0  0
    1.2326    0.6408   -2.1177 N   0  0  0  0  0  0  0  0  0  0  0  0
    0.3196    0.3050   -1.2728 C   0  0  0  0  0  0  0  0  0  0  0  0
    0.3575    0.4271    0.0785 N   0  0  0  0  0  0  0  0  0  0  0  0
   -0.7285    0.0039    0.7898 C   0  0  0  0  0  0  0  0  0  0  0  0
   -0.8022    0.0655    2.0067 O   0  0  0  0  0  0  0  0  0  0  0  0
   -1.7711   -0.5272   -0.1381 C   0  0  0  0  0  0  0  0  0  0  0  0
   -2.9775   -1.0355    0.1576 C   0  0  0  0  0  0  0  0  0  0  0  0
   -3.5599   -1.1891    1.4764 C   0  0  0  0  0  0  0  0  0  0  0  0
   -4.7567   -1.6911    1.8237 C   0  0  0  0  0  0  0  0  0  0  0  0
   -5.7605   -2.2049    0.9536 C   0  0  0  0  0  0  0  0  0  0  0  0
   -7.0047   -2.7203    1.3104 C   0  0  0  0  0  0  0  0  0  0  0  0
   -7.6770   -3.1156    0.1301 C   0  0  0  0  0  0  0  0  0  0  0  0
   -6.8190   -2.8270   -0.8979 C   0  0  0  0  0  0  0  0  0  0  0  0
   -5.6752   -2.2846   -0.4187 O   0  0  0  0  0  0  0  0  0  0  0  0
   -1.1929   -0.3997   -1.7733 S   0  0  0  0  0  0  0  0  0  0  0  0
    3.5043    0.3831   -1.3033 C   0  0  0  0  0  0  0  0  0  0  0  0
    4.6998    0.9269   -0.8045 C   0  0  0  0  0  0  0  0  0  0  0  0
    5.8371    0.0065   -0.4553 C   0  0  0  0  0  0  0  0  0  0  0  0
    6.8995    2.7730   -0.8154 H   0  0  0  0  0  0  0  0  0  0  0  0
    5.9584    4.0442   -0.0256 H   0  0  0  0  0  0  0  0  0  0  0  0
    6.3155    2.5616    0.8614 H   0  0  0  0  0  0  0  0  0  0  0  0
    3.7970    4.2220   -0.9175 H   0  0  0  0  0  0  0  0  0  0  0  0
    1.7214    3.2294   -1.7930 H   0  0  0  0  0  0  0  0  0  0  0  0
    1.1527    0.8144    0.5605 H   0  0  0  0  0  0  0  0  0  0  0  0
   -3.5891   -1.3695   -0.6765 H   0  0  0  0  0  0  0  0  0  0  0  0
   -2.9437   -0.8502    2.3090 H   0  0  0  0  0  0  0  0  0  0  0  0
   -4.9927   -1.7106    2.8861 H   0  0  0  0  0  0  0  0  0  0  0  0
   -7.3798   -2.7988    2.3218 H   0  0  0  0  0  0  0  0  0  0  0  0
   -8.6605   -3.5544    0.0421 H   0  0  0  0  0  0  0  0  0  0  0  0
   -6.8688   -2.9403   -1.9717 H   0  0  0  0  0  0  0  0  0  0  0  0
    3.4081   -0.6918   -1.4411 H   0  0  0  0  0  0  0  0  0  0  0  0
    6.0793    0.0889    0.6089 H   0  0  0  0  0  0  0  0  0  0  0  0
    6.7215    0.2509   -1.0521 H   0  0  0  0  0  0  0  0  0  0  0  0
    5.5838   -1.0400   -0.6558 H   0  0  0  0  0  0  0  0  0  0  0  0
  1  2  1  0
  2  3  2  0
  3  4  1  0
  4  5  2  0
  5  6  1  0
  6  7  2  3
  7  8  1  0
  8  9  1  0
  9 10  2  0
  9 11  1  0
 11 12  2  3
 12 13  1  0
 13 14  2  3
 14 15  1  0
 15 16  2  0
 16 17  1  0
 17 18  2  0
 18 19  1  0
 11 20  1  0
  5 21  1  0
 21 22  2  0
 22 23  1  0
 22  2  1  0
 20  7  1  0
 19 15  1  0
  1 24  1  0
  1 25  1  0
  1 26  1  0
  3 27  1  0
  4 28  1  0
  8 29  1  0
 12 30  1  0
 13 31  1  0
 14 32  1  0
 16 33  1  0
 17 34  1  0
 18 35  1  0
 21 36  1  0
 23 37  1  0
 23 38  1  0
 23 39  1  0
M  END
$$$$
