
     RDKit          3D

 71 74  0  0  0  0  0  0  0  0999 V2000
    8.2529   -2.3141   -1.6149 C   0  0  0  0  0  0  0  0  0  0  0  0
    8.2830   -0.9439   -0.9520 C   0  0  0  0  0  0  0  0  0  0  0  0
    7.3595   -0.8919    0.1903 N   0  0  0  0  0  0  0  0  0  0  0  0
    7.9400   -1.2233    1.4971 C   0  0  0  0  0  0  0  0  0  0  0  0
    8.4911    0.0175    2.1862 C   0  0  0  0  0  0  0  0  0  0  0  0
    6.0344   -0.4920    0.0496 C   0  0  0  0  0  0  0  0  0  0  0  0
    5.2017   -0.2526    1.1564 C   0  0  0  0  0  0  0  0  0  0  0  0
    3.8663    0.1557    1.0226 C   0  0  0  0  0  0  0  0  0  0  0  0
    3.3036    0.3310   -0.2383 C   0  0  0  0  0  0  0  0  0  0  0  0
    1.9177    0.7764   -0.3945 C   0  0  0  0  0  0  0  0  0  0  0  0
    0.8461    0.0851    0.0284 C   0  0  0  0  0  0  0  0  0  0  0  0
    0.8514   -1.2983    0.6363 C   0  0  0  0  0  0  0  0  0  0  0  0
   -0.5800   -1.8012    0.4660 C   0  0  0  0  0  0  0  0  0  0  0  0
   -1.3373   -0.5541    0.1707 C   0  0  0  0  0  0  0  0  0  0  0  0
   -2.8047   -0.4925    0.2396 C   0  0  0  0  0  0  0  0  0  0  0  0
   -3.5365   -1.5538    0.3690 N   0  0  0  0  0  0  0  0  0  0  0  0
   -4.9006   -1.4087    0.3884 N   0  0  0  0  0  0  0  0  0  0  0  0
   -5.6329   -0.4236   -0.2639 C   0  0  0  0  0  0  0  0  0  0  0  0
   -5.1841    0.4951   -0.9440 O   0  0  0  0  0  0  0  0  0  0  0  0
   -7.1151   -0.6044   -0.1349 C   0  0  0  0  0  0  0  0  0  0  0  0
   -7.9740   -0.3557   -1.2732 C   0  0  0  0  0  0  0  0  0  0  0  0
   -9.3022   -0.4960   -1.1751 C   0  0  0  0  0  0  0  0  0  0  0  0
   -9.9247   -0.9022    0.1152 C   0  0  0  0  0  0  0  0  0  0  0  0
  -11.1425   -1.0414    0.1731 O   0  0  0  0  0  0  0  0  0  0  0  0
   -9.0429   -1.0895    1.1808 N   0  0  0  0  0  0  0  0  0  0  0  0
   -9.5756   -1.4519    2.4848 C   0  0  0  0  0  0  0  0  0  0  0  0
   -7.6703   -0.9339    1.0445 C   0  0  0  0  0  0  0  0  0  0  0  0
   -0.5498    0.4967   -0.0998 C   0  0  0  0  0  0  0  0  0  0  0  0
   -0.9132    1.7835   -0.4456 N   0  0  0  0  0  0  0  0  0  0  0  0
   -1.7158    2.0826   -1.6508 C   0  0  0  0  0  0  0  0  0  0  0  0
   -2.5374    3.3660   -1.4544 C   0  0  0  0  0  0  0  0  0  0  0  0
   -1.7480    4.5268   -1.1516 O   0  0  0  0  0  0  0  0  0  0  0  0
   -0.5095    4.2166   -0.4938 C   0  0  0  0  0  0  0  0  0  0  0  0
   -0.5813    2.9573    0.3820 C   0  0  0  0  0  0  0  0  0  0  0  0
    4.0984    0.1049   -1.3566 C   0  0  0  0  0  0  0  0  0  0  0  0
    5.4349   -0.3009   -1.2084 C   0  0  0  0  0  0  0  0  0  0  0  0
    8.5122   -3.1016   -0.9005 H   0  0  0  0  0  0  0  0  0  0  0  0
    8.9739   -2.3523   -2.4378 H   0  0  0  0  0  0  0  0  0  0  0  0
    7.2636   -2.5457   -2.0201 H   0  0  0  0  0  0  0  0  0  0  0  0
    8.0827   -0.1484   -1.6794 H   0  0  0  0  0  0  0  0  0  0  0  0
    9.3076   -0.7536   -0.6049 H   0  0  0  0  0  0  0  0  0  0  0  0
    7.2214   -1.7425    2.1415 H   0  0  0  0  0  0  0  0  0  0  0  0
    8.7609   -1.9388    1.3643 H   0  0  0  0  0  0  0  0  0  0  0  0
    8.9293   -0.2508    3.1525 H   0  0  0  0  0  0  0  0  0  0  0  0
    7.7133    0.7659    2.3637 H   0  0  0  0  0  0  0  0  0  0  0  0
    9.2717    0.4888    1.5807 H   0  0  0  0  0  0  0  0  0  0  0  0
    5.5723   -0.3611    2.1706 H   0  0  0  0  0  0  0  0  0  0  0  0
    3.2802    0.3426    1.9187 H   0  0  0  0  0  0  0  0  0  0  0  0
    1.7953    1.7312   -0.8979 H   0  0  0  0  0  0  0  0  0  0  0  0
    1.0987   -1.2343    1.7024 H   0  0  0  0  0  0  0  0  0  0  0  0
    1.5624   -1.9749    0.1528 H   0  0  0  0  0  0  0  0  0  0  0  0
   -0.9285   -2.3034    1.3730 H   0  0  0  0  0  0  0  0  0  0  0  0
   -0.6527   -2.5000   -0.3736 H   0  0  0  0  0  0  0  0  0  0  0  0
   -3.2282    0.5231    0.2115 H   0  0  0  0  0  0  0  0  0  0  0  0
   -5.3826   -2.2558    0.6788 H   0  0  0  0  0  0  0  0  0  0  0  0
   -7.5148   -0.0451   -2.2073 H   0  0  0  0  0  0  0  0  0  0  0  0
   -9.9743   -0.3186   -2.0042 H   0  0  0  0  0  0  0  0  0  0  0  0
   -9.2826   -0.6905    3.2142 H   0  0  0  0  0  0  0  0  0  0  0  0
  -10.6663   -1.5261    2.4738 H   0  0  0  0  0  0  0  0  0  0  0  0
   -9.1609   -2.4204    2.7812 H   0  0  0  0  0  0  0  0  0  0  0  0
   -7.0809   -1.0850    1.9453 H   0  0  0  0  0  0  0  0  0  0  0  0
   -2.3917    1.2566   -1.8987 H   0  0  0  0  0  0  0  0  0  0  0  0
   -1.0255    2.2069   -2.4948 H   0  0  0  0  0  0  0  0  0  0  0  0
   -3.1112    3.5862   -2.3616 H   0  0  0  0  0  0  0  0  0  0  0  0
   -3.2572    3.2349   -0.6376 H   0  0  0  0  0  0  0  0  0  0  0  0
   -0.2364    5.0835    0.1157 H   0  0  0  0  0  0  0  0  0  0  0  0
    0.2598    4.1039   -1.2663 H   0  0  0  0  0  0  0  0  0  0  0  0
    0.3704    2.8220    0.9076 H   0  0  0  0  0  0  0  0  0  0  0  0
   -1.3668    3.0778    1.1393 H   0  0  0  0  0  0  0  0  0  0  0  0
    3.6921    0.2331   -2.3566 H   0  0  0  0  0  0  0  0  0  0  0  0
    5.9901   -0.4768   -2.1239 H   0  0  0  0  0  0  0  0  0  0  0  0
  1  2  1  0
  2  3  1  0
  3  4  1  0
  4  5  1  0
  3  6  1  0
  6  7  2  0
  7  8  1  0
  8  9  2  0
  9 10  1  0
 10 11  2  3
 11 12  1  0
 12 13  1  0
 13 14  1  0
 14 15  1  0
 15 16  2  3
 16 17  1  0
 17 18  1  0
 18 19  2  0
 18 20  1  0
 20 21  1  0
 21 22  2  0
 22 23  1  0
 23 24  2  0
 23 25  1  0
 25 26  1  0
 25 27  1  0
 14 28  2  0
 28 29  1  0
 29 30  1  0
 30 31  1  0
 31 32  1  0
 32 33  1  0
 33 34  1  0
  9 35  1  0
 35 36  2  0
 36  6  1  0
 28 11  1  0
 34 29  1  0
 27 20  2  0
  1 37  1  0
  1 38  1  0
  1 39  1  0
  2 40  1  0
  2 41  1  0
  4 42  1  0
  4 43  1  0
  5 44  1  0
  5 45  1  0
  5 46  1  0
  7 47  1  0
  8 48  1  0
 10 49  1  0
 12 50  1  0
 12 51  1  0
 13 52  1  0
 13 53  1  0
 15 54  1  0
 17 55  1  0
 21 56  1  0
 22 57  1  0
 26 58  1  0
 26 59  1  0
 26 60  1  0
 27 61  1  0
 30 62  1  0
 30 63  1  0
 31 64  1  0
 31 65  1  0
 33 66  1  0
 33 67  1  0
 34 68  1  0
 34 69  1  0
 35 70  1  0
 36 71  1  0
M  END
$$$$
