
     RDKit          3D

 51 54  0  0  0  0  0  0  0  0999 V2000
    3.5734    2.5228    1.2321 C   0  0  0  0  0  0  0  0  0  0  0  0
    2.7240    1.2586    1.3969 C   0  0  0  0  0  0  0  0  0  0  0  0
    1.3352    1.6121    1.9729 C   0  0  0  0  0  0  0  0  0  0  0  0
    0.4621    1.4859    0.7661 C   0  0  0  0  0  0  0  0  0  0  0  0
   -0.8717    1.8520    0.6561 C   0  0  0  0  0  0  0  0  0  0  0  0
   -1.5243    1.5843   -0.5511 C   0  0  0  0  0  0  0  0  0  0  0  0
   -3.2293    2.0522   -0.7349 S   0  0  0  0  0  6  0  0  0  0  0  0
   -3.5511    2.0458   -2.1441 O   0  0  0  0  0  0  0  0  0  0  0  0
   -3.4553    3.2148    0.0951 O   0  0  0  0  0  0  0  0  0  0  0  0
   -4.0348    0.7846   -0.0099 N   0  0  0  0  0  0  0  0  0  0  0  0
   -3.8912   -0.5624   -0.5456 C   0  0  0  0  0  0  0  0  0  0  0  0
   -4.9458   -1.4806    0.0221 C   0  0  0  0  0  0  0  0  0  0  0  0
   -4.6025   -2.5165    0.9022 C   0  0  0  0  0  0  0  0  0  0  0  0
   -5.5890   -3.3535    1.4272 C   0  0  0  0  0  0  0  0  0  0  0  0
   -6.9255   -3.1618    1.0813 C   0  0  0  0  0  0  0  0  0  0  0  0
   -7.2789   -2.1325    0.2110 C   0  0  0  0  0  0  0  0  0  0  0  0
   -6.2949   -1.2951   -0.3156 C   0  0  0  0  0  0  0  0  0  0  0  0
   -0.8480    0.9781   -1.6225 C   0  0  0  0  0  0  0  0  0  0  0  0
    0.4939    0.6049   -1.4846 C   0  0  0  0  0  0  0  0  0  0  0  0
    1.1416    0.8655   -0.2861 C   0  0  0  0  0  0  0  0  0  0  0  0
    2.4788    0.5984    0.0876 N   0  0  0  0  0  0  0  0  0  0  0  0
    3.3940   -0.1276   -0.6755 C   0  0  0  0  0  0  0  0  0  0  0  0
    3.1033   -0.6100   -1.7793 O   0  0  0  0  0  0  0  0  0  0  0  0
    4.8194   -0.3434   -0.0801 C   0  0  0  0  0  0  0  0  0  0  0  0
    5.4809   -1.7334   -0.3183 C   0  0  0  0  0  0  0  0  0  0  0  0
    6.8230   -0.9967   -0.4823 C   0  0  0  0  0  0  0  0  0  0  0  0
    6.0118    0.2484   -0.8854 C   0  0  0  0  0  0  0  0  0  0  0  0
    3.7267    3.0121    2.1997 H   0  0  0  0  0  0  0  0  0  0  0  0
    4.5578    2.2969    0.8146 H   0  0  0  0  0  0  0  0  0  0  0  0
    3.0929    3.2417    0.5591 H   0  0  0  0  0  0  0  0  0  0  0  0
    3.2331    0.5627    2.0719 H   0  0  0  0  0  0  0  0  0  0  0  0
    1.0300    0.8697    2.7188 H   0  0  0  0  0  0  0  0  0  0  0  0
    1.2945    2.6116    2.4161 H   0  0  0  0  0  0  0  0  0  0  0  0
   -1.3898    2.3301    1.4826 H   0  0  0  0  0  0  0  0  0  0  0  0
   -4.2304    0.8952    0.9820 H   0  0  0  0  0  0  0  0  0  0  0  0
   -2.8992   -0.9501   -0.2895 H   0  0  0  0  0  0  0  0  0  0  0  0
   -3.9764   -0.5646   -1.6379 H   0  0  0  0  0  0  0  0  0  0  0  0
   -3.5653   -2.6822    1.1847 H   0  0  0  0  0  0  0  0  0  0  0  0
   -5.3153   -4.1569    2.1065 H   0  0  0  0  0  0  0  0  0  0  0  0
   -7.6926   -3.8142    1.4904 H   0  0  0  0  0  0  0  0  0  0  0  0
   -8.3212   -1.9803   -0.0577 H   0  0  0  0  0  0  0  0  0  0  0  0
   -6.5822   -0.4902   -0.9903 H   0  0  0  0  0  0  0  0  0  0  0  0
   -1.3562    0.7936   -2.5673 H   0  0  0  0  0  0  0  0  0  0  0  0
    1.0011    0.1388   -2.3230 H   0  0  0  0  0  0  0  0  0  0  0  0
    4.9005   -0.0854    0.9817 H   0  0  0  0  0  0  0  0  0  0  0  0
    5.4294   -2.4309    0.5222 H   0  0  0  0  0  0  0  0  0  0  0  0
    5.1509   -2.2506   -1.2266 H   0  0  0  0  0  0  0  0  0  0  0  0
    7.4950   -1.3952   -1.2463 H   0  0  0  0  0  0  0  0  0  0  0  0
    7.3774   -0.8768    0.4555 H   0  0  0  0  0  0  0  0  0  0  0  0
    6.4063    1.2003   -0.5204 H   0  0  0  0  0  0  0  0  0  0  0  0
    5.8339    0.3297   -1.9641 H   0  0  0  0  0  0  0  0  0  0  0  0
  1  2  1  0
  2  3  1  0
  3  4  1  0
  4  5  2  0
  5  6  1  0
  6  7  1  0
  7  8  2  0
  7  9  2  0
  7 10  1  0
 10 11  1  0
 11 12  1  0
 12 13  2  0
 13 14  1  0
 14 15  2  0
 15 16  1  0
 16 17  2  0
  6 18  2  0
 18 19  1  0
 19 20  2  0
 20 21  1  0
 21 22  1  0
 22 23  2  0
 22 24  1  0
 24 25  1  0
 25 26  1  0
 26 27  1  0
 21  2  1  0
 27 24  1  0
 20  4  1  0
 17 12  1  0
  1 28  1  0
  1 29  1  0
  1 30  1  0
  2 31  1  0
  3 32  1  0
  3 33  1  0
  5 34  1  0
 10 35  1  0
 11 36  1  0
 11 37  1  0
 13 38  1  0
 14 39  1  0
 15 40  1  0
 16 41  1  0
 17 42  1  0
 18 43  1  0
 19 44  1  0
 24 45  1  0
 25 46  1  0
 25 47  1  0
 26 48  1  0
 26 49  1  0
 27 50  1  0
 27 51  1  0
M  END
$$$$
