
     RDKit          3D

 51 54  0  0  0  0  0  0  0  0999 V2000
    6.0899   -2.3732    2.6874 C   0  0  0  0  0  0  0  0  0  0  0  0
    5.4880   -1.5836    1.5630 C   0  0  0  0  0  0  0  0  0  0  0  0
    6.2730   -1.1936    0.4720 C   0  0  0  0  0  0  0  0  0  0  0  0
    5.7084   -0.4844   -0.5912 C   0  0  0  0  0  0  0  0  0  0  0  0
    4.3469   -0.1564   -0.5821 C   0  0  0  0  0  0  0  0  0  0  0  0
    3.7227    0.5905   -1.7338 C   0  0  0  0  0  0  0  0  0  0  0  0
    2.9859   -0.3242   -2.5957 N   0  0  0  0  0  0  0  0  0  0  0  0
    1.8154    0.3003   -3.6070 S   0  0  0  0  0  6  0  0  0  0  0  0
    1.5197   -0.7286   -4.5791 O   0  0  0  0  0  0  0  0  0  0  0  0
    2.2231    1.6298   -4.0018 O   0  0  0  0  0  0  0  0  0  0  0  0
    0.4235    0.4184   -2.5115 C   0  0  0  0  0  0  0  0  0  0  0  0
    0.0117    1.6737   -2.0356 C   0  0  0  0  0  0  0  0  0  0  0  0
   -1.0835    1.7703   -1.1698 C   0  0  0  0  0  0  0  0  0  0  0  0
   -1.7503    0.6105   -0.8045 C   0  0  0  0  0  0  0  0  0  0  0  0
   -1.3406   -0.6320   -1.2948 C   0  0  0  0  0  0  0  0  0  0  0  0
   -0.2561   -0.7500   -2.1519 C   0  0  0  0  0  0  0  0  0  0  0  0
   -2.2076   -1.7358   -0.7836 C   0  0  0  0  0  0  0  0  0  0  0  0
   -3.2075   -0.9778    0.0979 C   0  0  0  0  0  0  0  0  0  0  0  0
   -2.8655    0.4527    0.0398 N   0  0  0  0  0  0  0  0  0  0  0  0
   -3.5411    1.4722    0.7050 C   0  0  0  0  0  0  0  0  0  0  0  0
   -3.2041    2.6601    0.6358 O   0  0  0  0  0  0  0  0  0  0  0  0
   -4.7615    1.0246    1.5620 C   0  0  0  0  0  0  0  0  0  0  0  0
   -5.4911    2.1150    2.4026 C   0  0  0  0  0  0  0  0  0  0  0  0
   -6.8092    1.3852    2.0885 C   0  0  0  0  0  0  0  0  0  0  0  0
   -6.1193    0.8324    0.8284 C   0  0  0  0  0  0  0  0  0  0  0  0
    3.5570   -0.5694    0.4999 C   0  0  0  0  0  0  0  0  0  0  0  0
    4.1227   -1.2782    1.5618 C   0  0  0  0  0  0  0  0  0  0  0  0
    7.1360   -2.0905    2.8460 H   0  0  0  0  0  0  0  0  0  0  0  0
    5.5575   -2.1860    3.6260 H   0  0  0  0  0  0  0  0  0  0  0  0
    6.0420   -3.4428    2.4611 H   0  0  0  0  0  0  0  0  0  0  0  0
    7.3322   -1.4403    0.4432 H   0  0  0  0  0  0  0  0  0  0  0  0
    6.3412   -0.1919   -1.4263 H   0  0  0  0  0  0  0  0  0  0  0  0
    4.5031    1.0885   -2.3205 H   0  0  0  0  0  0  0  0  0  0  0  0
    3.0704    1.3724   -1.3292 H   0  0  0  0  0  0  0  0  0  0  0  0
    3.4697   -1.1419   -2.9599 H   0  0  0  0  0  0  0  0  0  0  0  0
    0.5357    2.5800   -2.3328 H   0  0  0  0  0  0  0  0  0  0  0  0
   -1.3901    2.7464   -0.8084 H   0  0  0  0  0  0  0  0  0  0  0  0
    0.0555   -1.7186   -2.5324 H   0  0  0  0  0  0  0  0  0  0  0  0
   -2.7170   -2.2532   -1.6024 H   0  0  0  0  0  0  0  0  0  0  0  0
   -1.6298   -2.4557   -0.1959 H   0  0  0  0  0  0  0  0  0  0  0  0
   -4.2340   -1.1176   -0.2564 H   0  0  0  0  0  0  0  0  0  0  0  0
   -3.1533   -1.3187    1.1376 H   0  0  0  0  0  0  0  0  0  0  0  0
   -4.5142    0.1671    2.2046 H   0  0  0  0  0  0  0  0  0  0  0  0
   -5.4433    3.1272    1.9846 H   0  0  0  0  0  0  0  0  0  0  0  0
   -5.2190    2.1568    3.4607 H   0  0  0  0  0  0  0  0  0  0  0  0
   -7.6783    2.0242    1.9144 H   0  0  0  0  0  0  0  0  0  0  0  0
   -7.0720    0.6141    2.8217 H   0  0  0  0  0  0  0  0  0  0  0  0
   -6.2437    1.4638   -0.0591 H   0  0  0  0  0  0  0  0  0  0  0  0
   -6.3809   -0.1970    0.5704 H   0  0  0  0  0  0  0  0  0  0  0  0
    2.4924   -0.3438    0.5170 H   0  0  0  0  0  0  0  0  0  0  0  0
    3.4893   -1.5910    2.3889 H   0  0  0  0  0  0  0  0  0  0  0  0
  1  2  1  0
  2  3  2  0
  3  4  1  0
  4  5  2  0
  5  6  1  0
  6  7  1  0
  7  8  1  0
  8  9  2  0
  8 10  2  0
  8 11  1  0
 11 12  2  0
 12 13  1  0
 13 14  2  0
 14 15  1  0
 15 16  2  0
 15 17  1  0
 17 18  1  0
 18 19  1  0
 19 20  1  0
 20 21  2  0
 20 22  1  0
 22 23  1  0
 23 24  1  0
 24 25  1  0
  5 26  1  0
 26 27  2  0
 27  2  1  0
 16 11  1  0
 25 22  1  0
 19 14  1  0
  1 28  1  0
  1 29  1  0
  1 30  1  0
  3 31  1  0
  4 32  1  0
  6 33  1  0
  6 34  1  0
  7 35  1  0
 12 36  1  0
 13 37  1  0
 16 38  1  0
 17 39  1  0
 17 40  1  0
 18 41  1  0
 18 42  1  0
 22 43  1  0
 23 44  1  0
 23 45  1  0
 24 46  1  0
 24 47  1  0
 25 48  1  0
 25 49  1  0
 26 50  1  0
 27 51  1  0
M  END
$$$$
