
     RDKit          3D

 51 53  0  0  0  0  0  0  0  0999 V2000
   -5.4978    3.4180   -1.9202 O   0  0  0  0  0  0  0  0  0  0  0  0
   -4.9556    2.9806   -0.9117 C   0  0  0  0  0  0  0  0  0  0  0  0
   -4.0976    3.9025   -0.0322 C   0  0  0  0  0  0  0  0  0  0  0  0
   -2.7187    3.5373    0.0621 O   0  0  0  0  0  0  0  0  0  0  0  0
   -2.4239    2.5595    0.9585 C   0  0  0  0  0  0  0  0  0  0  0  0
   -3.2567    1.9549    1.6220 O   0  0  0  0  0  0  0  0  0  0  0  0
   -0.9383    2.3248    0.9935 C   0  0  0  0  0  0  0  0  0  0  0  0
   -0.5852    1.2797    2.0475 C   0  0  0  0  0  0  0  0  0  0  0  0
    0.8595    1.0395    2.1121 N   0  0  0  0  0  0  0  0  0  0  0  0
    1.4159    0.1260    1.2290 C   0  0  0  0  0  0  0  0  0  0  0  0
    0.7867   -0.4916    0.3812 O   0  0  0  0  0  0  0  0  0  0  0  0
    2.8888    0.0271    1.4383 C   0  0  0  0  0  0  0  0  0  0  0  0
    3.7730   -0.7601    0.8067 C   0  0  0  0  0  0  0  0  0  0  0  0
    3.5022   -1.7211   -0.2452 C   0  0  0  0  0  0  0  0  0  0  0  0
    4.4108   -2.5059   -0.8492 C   0  0  0  0  0  0  0  0  0  0  0  0
    5.8435   -2.5504   -0.5494 C   0  0  0  0  0  0  0  0  0  0  0  0
    6.3141   -3.2364    0.5760 C   0  0  0  0  0  0  0  0  0  0  0  0
    7.6805   -3.2675    0.8591 C   0  0  0  0  0  0  0  0  0  0  0  0
    8.5817   -2.6165    0.0174 C   0  0  0  0  0  0  0  0  0  0  0  0
    8.1181   -1.9344   -1.1072 C   0  0  0  0  0  0  0  0  0  0  0  0
    6.7515   -1.9014   -1.3911 C   0  0  0  0  0  0  0  0  0  0  0  0
    3.3672    1.1301    2.6807 S   0  0  0  0  0  0  0  0  0  0  0  0
    1.7314    1.7112    2.9416 C   0  0  0  0  0  0  0  0  0  0  0  0
    1.3802    2.9105    4.0463 S   0  0  0  0  0  0  0  0  0  0  0  0
   -5.0793    1.7040   -0.3942 N   0  0  0  0  0  0  0  0  0  0  0  0
   -5.7352    0.5883   -0.9607 C   0  0  0  0  0  0  0  0  0  0  0  0
   -5.9675   -0.4924   -0.0979 C   0  0  0  0  0  0  0  0  0  0  0  0
   -6.6168   -1.6357   -0.5598 C   0  0  0  0  0  0  0  0  0  0  0  0
   -6.8372   -2.6514    0.2849 F   0  0  0  0  0  0  0  0  0  0  0  0
   -7.0368   -1.7415   -1.8785 C   0  0  0  0  0  0  0  0  0  0  0  0
   -6.7898   -0.6868   -2.7527 C   0  0  0  0  0  0  0  0  0  0  0  0
   -6.1383    0.4640   -2.2983 C   0  0  0  0  0  0  0  0  0  0  0  0
   -5.8581    1.3962   -3.2161 F   0  0  0  0  0  0  0  0  0  0  0  0
   -4.1271    4.9049   -0.4743 H   0  0  0  0  0  0  0  0  0  0  0  0
   -4.5538    3.9901    0.9620 H   0  0  0  0  0  0  0  0  0  0  0  0
   -0.4406    3.2738    1.2198 H   0  0  0  0  0  0  0  0  0  0  0  0
   -0.6164    1.9891    0.0017 H   0  0  0  0  0  0  0  0  0  0  0  0
   -0.9541    1.5867    3.0320 H   0  0  0  0  0  0  0  0  0  0  0  0
   -1.0858    0.3319    1.8120 H   0  0  0  0  0  0  0  0  0  0  0  0
    4.8194   -0.6803    1.1028 H   0  0  0  0  0  0  0  0  0  0  0  0
    2.4738   -1.8162   -0.5887 H   0  0  0  0  0  0  0  0  0  0  0  0
    4.0906   -3.1808   -1.6404 H   0  0  0  0  0  0  0  0  0  0  0  0
    5.6198   -3.7489    1.2363 H   0  0  0  0  0  0  0  0  0  0  0  0
    8.0421   -3.8009    1.7346 H   0  0  0  0  0  0  0  0  0  0  0  0
    9.6459   -2.6423    0.2373 H   0  0  0  0  0  0  0  0  0  0  0  0
    8.8208   -1.4293   -1.7641 H   0  0  0  0  0  0  0  0  0  0  0  0
    6.4008   -1.3633   -2.2689 H   0  0  0  0  0  0  0  0  0  0  0  0
   -4.7214    1.5779    0.5533 H   0  0  0  0  0  0  0  0  0  0  0  0
   -5.6634   -0.4612    0.9443 H   0  0  0  0  0  0  0  0  0  0  0  0
   -7.5385   -2.6419   -2.2173 H   0  0  0  0  0  0  0  0  0  0  0  0
   -7.0845   -0.7503   -3.7963 H   0  0  0  0  0  0  0  0  0  0  0  0
  1  2  2  0
  2  3  1  0
  3  4  1  0
  4  5  1  0
  5  6  2  0
  5  7  1  0
  7  8  1  0
  8  9  1  0
  9 10  1  0
 10 11  2  0
 10 12  1  0
 12 13  2  3
 13 14  1  0
 14 15  2  3
 15 16  1  0
 16 17  2  0
 17 18  1  0
 18 19  2  0
 19 20  1  0
 20 21  2  0
 12 22  1  0
 22 23  1  0
 23 24  2  0
  2 25  1  0
 25 26  1  0
 26 27  2  0
 27 28  1  0
 28 29  1  0
 28 30  2  0
 30 31  1  0
 31 32  2  0
 32 33  1  0
 23  9  1  0
 32 26  1  0
 21 16  1  0
  3 34  1  0
  3 35  1  0
  7 36  1  0
  7 37  1  0
  8 38  1  0
  8 39  1  0
 13 40  1  0
 14 41  1  0
 15 42  1  0
 17 43  1  0
 18 44  1  0
 19 45  1  0
 20 46  1  0
 21 47  1  0
 25 48  1  0
 27 49  1  0
 30 50  1  0
 31 51  1  0
M  END
$$$$
