
     RDKit          3D

 46 50  0  0  0  0  0  0  0  0999 V2000
    4.4849    1.6467    0.4576 O   0  0  0  0  0  0  0  0  0  0  0  0
    5.1184    0.6768    0.0716 C   0  0  0  0  0  0  0  0  0  0  0  0
    4.6919   -0.6364    0.0210 O   0  0  0  0  0  0  0  0  0  0  0  0
    3.3818   -0.8123    0.4734 C   0  0  0  0  0  0  0  0  0  0  0  0
    3.1875   -1.3951    1.7256 C   0  0  0  0  0  0  0  0  0  0  0  0
    1.8870   -1.6180    2.1783 C   0  0  0  0  0  0  0  0  0  0  0  0
    0.8000   -1.2665    1.3674 C   0  0  0  0  0  0  0  0  0  0  0  0
   -0.5818   -1.4917    1.8287 C   0  0  0  0  0  0  0  0  0  0  0  0
   -0.8077   -2.0033    2.9192 O   0  0  0  0  0  0  0  0  0  0  0  0
   -1.6681   -1.0625    0.9081 C   0  0  0  0  0  0  0  0  0  0  0  0
   -2.9715   -1.2883    1.3276 O   0  0  0  0  0  0  0  0  0  0  0  0
   -3.9660   -0.4819    0.8320 C   0  0  0  0  0  0  0  0  0  0  0  0
   -3.9948    0.8821    1.1139 C   0  0  0  0  0  0  0  0  0  0  0  0
   -5.0340    1.6665    0.6119 C   0  0  0  0  0  0  0  0  0  0  0  0
   -6.0577    1.0920   -0.1602 C   0  0  0  0  0  0  0  0  0  0  0  0
   -7.1087    1.8684   -0.6735 C   0  0  0  0  0  0  0  0  0  0  0  0
   -8.1232    1.2831   -1.4329 C   0  0  0  0  0  0  0  0  0  0  0  0
   -8.1014   -0.0851   -1.6875 C   0  0  0  0  0  0  0  0  0  0  0  0
   -7.0645   -0.8723   -1.1844 C   0  0  0  0  0  0  0  0  0  0  0  0
   -6.0348   -0.2993   -0.4209 C   0  0  0  0  0  0  0  0  0  0  0  0
   -4.9851   -1.0776    0.0903 C   0  0  0  0  0  0  0  0  0  0  0  0
   -1.3025   -0.5524   -0.2798 C   0  0  0  0  0  0  0  0  0  0  0  0
   -0.0189   -0.3493   -0.7269 O   0  0  0  0  0  0  0  0  0  0  0  0
    1.0098   -0.7020    0.1090 C   0  0  0  0  0  0  0  0  0  0  0  0
    2.3066   -0.4785   -0.3504 C   0  0  0  0  0  0  0  0  0  0  0  0
    6.5094    0.7684   -0.4254 C   0  0  0  0  0  0  0  0  0  0  0  0
    7.1145    2.0207   -0.4510 C   0  0  0  0  0  0  0  0  0  0  0  0
    8.3816    2.2398   -0.8840 N   0  0  0  0  0  0  0  0  0  0  0  0
    9.0748    1.1577   -1.3097 C   0  0  0  0  0  0  0  0  0  0  0  0
    8.5549   -0.1277   -1.3201 C   0  0  0  0  0  0  0  0  0  0  0  0
    9.5914   -1.5795   -1.9307 Br  0  0  0  0  0  0  0  0  0  0  0  0
    7.2519   -0.3298   -0.8719 C   0  0  0  0  0  0  0  0  0  0  0  0
    4.0355   -1.6685    2.3470 H   0  0  0  0  0  0  0  0  0  0  0  0
    1.7202   -2.0629    3.1573 H   0  0  0  0  0  0  0  0  0  0  0  0
   -3.2213    1.3361    1.7269 H   0  0  0  0  0  0  0  0  0  0  0  0
   -5.0446    2.7313    0.8346 H   0  0  0  0  0  0  0  0  0  0  0  0
   -7.1462    2.9386   -0.4830 H   0  0  0  0  0  0  0  0  0  0  0  0
   -8.9315    1.8962   -1.8230 H   0  0  0  0  0  0  0  0  0  0  0  0
   -8.8926   -0.5416   -2.2765 H   0  0  0  0  0  0  0  0  0  0  0  0
   -7.0667   -1.9399   -1.3926 H   0  0  0  0  0  0  0  0  0  0  0  0
   -4.9535   -2.1493   -0.0887 H   0  0  0  0  0  0  0  0  0  0  0  0
   -2.0032   -0.2400   -1.0439 H   0  0  0  0  0  0  0  0  0  0  0  0
    2.4734   -0.0421   -1.3302 H   0  0  0  0  0  0  0  0  0  0  0  0
    6.5893    2.9134   -0.1163 H   0  0  0  0  0  0  0  0  0  0  0  0
   10.0856    1.3669   -1.6494 H   0  0  0  0  0  0  0  0  0  0  0  0
    6.8300   -1.3307   -0.8741 H   0  0  0  0  0  0  0  0  0  0  0  0
  1  2  2  0
  2  3  1  0
  3  4  1  0
  4  5  2  0
  5  6  1  0
  6  7  2  0
  7  8  1  0
  8  9  2  0
  8 10  1  0
 10 11  1  0
 11 12  1  0
 12 13  2  0
 13 14  1  0
 14 15  2  0
 15 16  1  0
 16 17  2  0
 17 18  1  0
 18 19  2  0
 19 20  1  0
 20 21  2  0
 10 22  2  0
 22 23  1  0
 23 24  1  0
 24 25  2  0
  2 26  1  0
 26 27  2  0
 27 28  1  0
 28 29  2  0
 29 30  1  0
 30 31  1  0
 30 32  2  0
 25  4  1  0
 32 26  1  0
 24  7  1  0
 21 12  1  0
 20 15  1  0
  5 33  1  0
  6 34  1  0
 13 35  1  0
 14 36  1  0
 16 37  1  0
 17 38  1  0
 18 39  1  0
 19 40  1  0
 21 41  1  0
 22 42  1  0
 25 43  1  0
 27 44  1  0
 29 45  1  0
 32 46  1  0
M  END
$$$$
