
     RDKit          3D

 43 45  0  0  0  0  0  0  0  0999 V2000
    6.5114    1.9129   -2.2215 C   0  0  0  0  0  0  0  0  0  0  0  0
    5.4924    2.1685   -1.2628 O   0  0  0  0  0  0  0  0  0  0  0  0
    4.6743    1.1219   -0.9354 C   0  0  0  0  0  0  0  0  0  0  0  0
    4.7330   -0.1631   -1.4714 C   0  0  0  0  0  0  0  0  0  0  0  0
    3.8359   -1.1405   -1.0362 C   0  0  0  0  0  0  0  0  0  0  0  0
    2.8717   -0.8363   -0.0725 C   0  0  0  0  0  0  0  0  0  0  0  0
    2.7869    0.4521    0.4555 C   0  0  0  0  0  0  0  0  0  0  0  0
    1.8578    0.8362    1.4489 N   0  0  0  0  0  0  0  0  0  0  0  0
    0.8145    0.1409    1.9974 C   0  0  0  0  0  0  0  0  0  0  0  0
    0.4914    0.4564    3.6152 S   0  0  0  0  0  0  0  0  0  0  0  0
    0.0813   -0.7069    1.1859 N   0  0  0  0  0  0  0  0  0  0  0  0
   -0.8288   -1.7391    1.7226 C   0  0  0  0  0  0  0  0  0  0  0  0
   -2.2983   -1.2737    1.7197 C   0  0  0  0  0  0  0  0  0  0  0  0
   -2.6886   -0.8486    0.3516 N   0  0  0  0  0  0  0  0  0  0  0  0
   -4.0537   -0.5028    0.2631 C   0  0  0  0  0  0  0  0  0  0  0  0
   -4.6323   -0.3005   -0.9926 C   0  0  0  0  0  0  0  0  0  0  0  0
   -5.9832    0.0291   -1.0956 C   0  0  0  0  0  0  0  0  0  0  0  0
   -6.7400    0.1431    0.0591 C   0  0  0  0  0  0  0  0  0  0  0  0
   -6.1084   -0.0879    1.2658 C   0  0  0  0  0  0  0  0  0  0  0  0
   -4.8006   -0.4099    1.3851 N   0  0  0  0  0  0  0  0  0  0  0  0
   -1.7987    0.2090   -0.1837 C   0  0  0  0  0  0  0  0  0  0  0  0
   -0.3269   -0.2638   -0.1625 C   0  0  0  0  0  0  0  0  0  0  0  0
    3.7057    1.4188    0.0300 C   0  0  0  0  0  0  0  0  0  0  0  0
    7.2078    1.1474   -1.8634 H   0  0  0  0  0  0  0  0  0  0  0  0
    7.0778    2.8385   -2.3620 H   0  0  0  0  0  0  0  0  0  0  0  0
    6.0813    1.6355   -3.1896 H   0  0  0  0  0  0  0  0  0  0  0  0
    5.4674   -0.4403   -2.2200 H   0  0  0  0  0  0  0  0  0  0  0  0
    3.8942   -2.1484   -1.4401 H   0  0  0  0  0  0  0  0  0  0  0  0
    2.2185   -1.6321    0.2710 H   0  0  0  0  0  0  0  0  0  0  0  0
    2.1492    1.6252    2.0171 H   0  0  0  0  0  0  0  0  0  0  0  0
   -0.5218   -2.0484    2.7260 H   0  0  0  0  0  0  0  0  0  0  0  0
   -0.7212   -2.6159    1.0716 H   0  0  0  0  0  0  0  0  0  0  0  0
   -2.9216   -2.1139    2.0503 H   0  0  0  0  0  0  0  0  0  0  0  0
   -2.4224   -0.4452    2.4286 H   0  0  0  0  0  0  0  0  0  0  0  0
   -4.0434   -0.4239   -1.8948 H   0  0  0  0  0  0  0  0  0  0  0  0
   -6.4357    0.1842   -2.0702 H   0  0  0  0  0  0  0  0  0  0  0  0
   -7.7931    0.3952    0.0212 H   0  0  0  0  0  0  0  0  0  0  0  0
   -6.6518   -0.0210    2.2037 H   0  0  0  0  0  0  0  0  0  0  0  0
   -1.8989    1.1207    0.4204 H   0  0  0  0  0  0  0  0  0  0  0  0
   -2.0512    0.4602   -1.2199 H   0  0  0  0  0  0  0  0  0  0  0  0
    0.2962    0.5576   -0.5245 H   0  0  0  0  0  0  0  0  0  0  0  0
   -0.1991   -1.1182   -0.8375 H   0  0  0  0  0  0  0  0  0  0  0  0
    3.6713    2.4266    0.4369 H   0  0  0  0  0  0  0  0  0  0  0  0
  1  2  1  0
  2  3  1  0
  3  4  2  0
  4  5  1  0
  5  6  2  0
  6  7  1  0
  7  8  1  0
  8  9  1  0
  9 10  2  0
  9 11  1  0
 11 12  1  0
 12 13  1  0
 13 14  1  0
 14 15  1  0
 15 16  2  0
 16 17  1  0
 17 18  2  0
 18 19  1  0
 19 20  2  0
 14 21  1  0
 21 22  1  0
  7 23  2  0
 23  3  1  0
 22 11  1  0
 20 15  1  0
  1 24  1  0
  1 25  1  0
  1 26  1  0
  4 27  1  0
  5 28  1  0
  6 29  1  0
  8 30  1  0
 12 31  1  0
 12 32  1  0
 13 33  1  0
 13 34  1  0
 16 35  1  0
 17 36  1  0
 18 37  1  0
 19 38  1  0
 21 39  1  0
 21 40  1  0
 22 41  1  0
 22 42  1  0
 23 43  1  0
M  END
$$$$
