
     RDKit          3D

 40 42  0  0  0  0  0  0  0  0999 V2000
    5.9815    0.1013   -1.1123 C   0  0  0  0  0  0  0  0  0  0  0  0
    5.4734    0.2564    0.3129 C   0  0  0  0  0  0  0  0  0  0  0  0
    3.9691    0.1812    0.3828 C   0  0  0  0  0  0  0  0  0  0  0  0
    3.3262   -1.0512    0.5542 C   0  0  0  0  0  0  0  0  0  0  0  0
    1.9306   -1.1260    0.6031 C   0  0  0  0  0  0  0  0  0  0  0  0
    1.1612    0.0344    0.4749 C   0  0  0  0  0  0  0  0  0  0  0  0
   -0.3191   -0.0087    0.5201 C   0  0  0  0  0  0  0  0  0  0  0  0
   -1.0562    1.0600    0.5776 N   0  0  0  0  0  0  0  0  0  0  0  0
   -2.4878    0.5866    0.5690 N   0  0  0  0  0  0  0  0  0  0  0  0
   -3.4636    1.0503    1.8933 S   0  0  0  0  0  6  0  0  0  0  0  0
   -3.3021    2.8213    1.8393 C   0  0  0  0  0  0  0  0  0  0  0  0
   -4.8353    0.7027    1.5787 O   0  0  0  0  0  0  0  0  0  0  0  0
   -2.8410    0.5510    3.1036 O   0  0  0  0  0  0  0  0  0  0  0  0
   -2.5105   -0.8730    0.2944 C   0  0  0  0  0  0  0  0  0  0  0  0
   -3.0145   -1.0900   -1.1141 C   0  0  0  0  0  0  0  0  0  0  0  0
   -4.2677   -1.5514   -1.4803 C   0  0  0  0  0  0  0  0  0  0  0  0
   -4.4336   -1.6360   -2.8922 C   0  0  0  0  0  0  0  0  0  0  0  0
   -3.3070   -1.2268   -3.5669 C   0  0  0  0  0  0  0  0  0  0  0  0
   -2.0638   -0.7388   -2.5025 S   0  0  0  0  0  0  0  0  0  0  0  0
   -1.0716   -1.3161    0.5463 C   0  0  0  0  0  0  0  0  0  0  0  0
    1.7995    1.2675    0.3001 C   0  0  0  0  0  0  0  0  0  0  0  0
    3.1939    1.3394    0.2510 C   0  0  0  0  0  0  0  0  0  0  0  0
    5.5868    0.8892   -1.7628 H   0  0  0  0  0  0  0  0  0  0  0  0
    7.0743    0.1601   -1.1330 H   0  0  0  0  0  0  0  0  0  0  0  0
    5.6856   -0.8641   -1.5368 H   0  0  0  0  0  0  0  0  0  0  0  0
    5.8146    1.2135    0.7261 H   0  0  0  0  0  0  0  0  0  0  0  0
    5.9115   -0.5218    0.9496 H   0  0  0  0  0  0  0  0  0  0  0  0
    3.9113   -1.9636    0.6523 H   0  0  0  0  0  0  0  0  0  0  0  0
    1.4730   -2.0998    0.7482 H   0  0  0  0  0  0  0  0  0  0  0  0
   -2.2627    3.0957    2.0260 H   0  0  0  0  0  0  0  0  0  0  0  0
   -3.9386    3.2387    2.6228 H   0  0  0  0  0  0  0  0  0  0  0  0
   -3.6366    3.1773    0.8632 H   0  0  0  0  0  0  0  0  0  0  0  0
   -3.1706   -1.4160    0.9820 H   0  0  0  0  0  0  0  0  0  0  0  0
   -5.0388   -1.8072   -0.7617 H   0  0  0  0  0  0  0  0  0  0  0  0
   -5.3374   -1.9705   -3.3867 H   0  0  0  0  0  0  0  0  0  0  0  0
   -3.1559   -1.1806   -4.6366 H   0  0  0  0  0  0  0  0  0  0  0  0
   -0.6939   -2.0398   -0.1798 H   0  0  0  0  0  0  0  0  0  0  0  0
   -0.9737   -1.7341    1.5551 H   0  0  0  0  0  0  0  0  0  0  0  0
    1.2192    2.1817    0.1953 H   0  0  0  0  0  0  0  0  0  0  0  0
    3.6705    2.3071    0.1082 H   0  0  0  0  0  0  0  0  0  0  0  0
  1  2  1  0
  2  3  1  0
  3  4  2  0
  4  5  1  0
  5  6  2  0
  6  7  1  0
  7  8  2  0
  8  9  1  0
  9 10  1  0
 10 11  1  0
 10 12  2  0
 10 13  2  0
  9 14  1  0
 14 15  1  0
 15 16  2  0
 16 17  1  0
 17 18  2  0
 18 19  1  0
 14 20  1  0
  6 21  1  0
 21 22  2  0
 22  3  1  0
 20  7  1  0
 19 15  1  0
  1 23  1  0
  1 24  1  0
  1 25  1  0
  2 26  1  0
  2 27  1  0
  4 28  1  0
  5 29  1  0
 11 30  1  0
 11 31  1  0
 11 32  1  0
 14 33  1  0
 16 34  1  0
 17 35  1  0
 18 36  1  0
 20 37  1  0
 20 38  1  0
 21 39  1  0
 22 40  1  0
M  END
$$$$
