
     RDKit          3D

 40 42  0  0  0  0  0  0  0  0999 V2000
   -1.2315   -1.7339   -2.0920 C   0  0  0  0  0  0  0  0  0  0  0  0
   -2.3088   -1.1063   -1.2058 C   0  0  0  0  0  0  0  0  0  0  0  0
   -3.3693   -2.1535   -0.8604 C   0  0  0  0  0  0  0  0  0  0  0  0
   -1.7246   -0.5126    0.0900 C   0  0  0  0  0  0  0  0  0  0  0  0
   -0.9014    0.6631   -0.1130 N   0  0  0  0  0  0  0  0  0  0  0  0
    0.4665    0.7483   -0.0833 C   0  0  0  0  0  0  0  0  0  0  0  0
    1.5272   -0.5846    0.2109 S   0  0  0  0  0  0  0  0  0  0  0  0
    3.1380    0.2427    0.0414 C   0  0  0  0  0  0  0  0  0  0  0  0
    4.2520   -0.7472    0.3366 C   0  0  0  0  0  0  0  0  0  0  0  0
    4.7931   -1.3380   -0.6040 O   0  0  0  0  0  0  0  0  0  0  0  0
    4.6593   -1.0040    1.7187 C   0  0  0  0  0  0  0  0  0  0  0  0
    5.6226   -1.9134    2.1306 C   0  0  0  0  0  0  0  0  0  0  0  0
    5.7959   -1.9337    3.5466 C   0  0  0  0  0  0  0  0  0  0  0  0
    4.9585   -1.0357    4.1522 C   0  0  0  0  0  0  0  0  0  0  0  0
    4.8286   -0.7286    5.8360 Cl  0  0  0  0  0  0  0  0  0  0  0  0
    3.9874   -0.1815    3.0651 S   0  0  0  0  0  0  0  0  0  0  0  0
    0.8446    1.9856   -0.2996 N   0  0  0  0  0  0  0  0  0  0  0  0
   -0.2876    2.7436   -0.4564 N   0  0  0  0  0  0  0  0  0  0  0  0
   -1.3369    1.9531   -0.3287 C   0  0  0  0  0  0  0  0  0  0  0  0
   -2.6894    2.4162   -0.4052 C   0  0  0  0  0  0  0  0  0  0  0  0
   -3.1282    3.7133   -0.6245 C   0  0  0  0  0  0  0  0  0  0  0  0
   -4.5428    3.6920   -0.6135 C   0  0  0  0  0  0  0  0  0  0  0  0
   -4.8965    2.3856   -0.3885 C   0  0  0  0  0  0  0  0  0  0  0  0
   -3.7914    1.6102   -0.2616 O   0  0  0  0  0  0  0  0  0  0  0  0
   -0.5143   -0.9818   -2.4351 H   0  0  0  0  0  0  0  0  0  0  0  0
   -1.6788   -2.1868   -2.9834 H   0  0  0  0  0  0  0  0  0  0  0  0
   -0.6819   -2.5164   -1.5579 H   0  0  0  0  0  0  0  0  0  0  0  0
   -2.7964   -0.3161   -1.7889 H   0  0  0  0  0  0  0  0  0  0  0  0
   -3.8158   -2.5702   -1.7697 H   0  0  0  0  0  0  0  0  0  0  0  0
   -4.1756   -1.7088   -0.2673 H   0  0  0  0  0  0  0  0  0  0  0  0
   -2.9393   -2.9795   -0.2841 H   0  0  0  0  0  0  0  0  0  0  0  0
   -1.1406   -1.2681    0.6263 H   0  0  0  0  0  0  0  0  0  0  0  0
   -2.5225   -0.2248    0.7840 H   0  0  0  0  0  0  0  0  0  0  0  0
    3.2186    1.1240    0.6845 H   0  0  0  0  0  0  0  0  0  0  0  0
    3.2576    0.5882   -0.9920 H   0  0  0  0  0  0  0  0  0  0  0  0
    6.1758   -2.5380    1.4369 H   0  0  0  0  0  0  0  0  0  0  0  0
    6.4925   -2.5702    4.0774 H   0  0  0  0  0  0  0  0  0  0  0  0
   -2.4852    4.5712   -0.7733 H   0  0  0  0  0  0  0  0  0  0  0  0
   -5.2164    4.5254   -0.7507 H   0  0  0  0  0  0  0  0  0  0  0  0
   -5.8430    1.8710   -0.2960 H   0  0  0  0  0  0  0  0  0  0  0  0
  1  2  1  0
  2  3  1  0
  2  4  1  0
  4  5  1  0
  5  6  1  0
  6  7  1  0
  7  8  1  0
  8  9  1  0
  9 10  2  0
  9 11  1  0
 11 12  2  0
 12 13  1  0
 13 14  2  0
 14 15  1  0
 14 16  1  0
  6 17  2  0
 17 18  1  0
 18 19  2  0
 19 20  1  0
 20 21  2  0
 21 22  1  0
 22 23  2  0
 23 24  1  0
 19  5  1  0
 24 20  1  0
 16 11  1  0
  1 25  1  0
  1 26  1  0
  1 27  1  0
  2 28  1  0
  3 29  1  0
  3 30  1  0
  3 31  1  0
  4 32  1  0
  4 33  1  0
  8 34  1  0
  8 35  1  0
 12 36  1  0
 13 37  1  0
 21 38  1  0
 22 39  1  0
 23 40  1  0
M  END
$$$$
