
     RDKit          3D

 48 50  0  0  0  0  0  0  0  0999 V2000
    5.8479   -2.2030   -0.8104 C   0  0  0  0  0  0  0  0  0  0  0  0
    5.7395   -0.9513    0.0468 C   0  0  0  0  0  0  0  0  0  0  0  0
    4.7182   -0.0311   -0.4696 N   0  0  0  0  0  0  0  0  0  0  0  0
    5.1469    0.9042   -1.5192 C   0  0  0  0  0  0  0  0  0  0  0  0
    4.5668    0.5361   -2.8785 C   0  0  0  0  0  0  0  0  0  0  0  0
    3.4128   -0.0477    0.0140 C   0  0  0  0  0  0  0  0  0  0  0  0
    2.9068   -1.1179    0.7731 C   0  0  0  0  0  0  0  0  0  0  0  0
    1.5926   -1.1402    1.2651 C   0  0  0  0  0  0  0  0  0  0  0  0
    0.7295   -0.0791    1.0102 C   0  0  0  0  0  0  0  0  0  0  0  0
   -0.6320   -0.0914    1.5471 C   0  0  0  0  0  0  0  0  0  0  0  0
   -1.7633   -0.4453    0.9038 C   0  0  0  0  0  0  0  0  0  0  0  0
   -1.8097   -0.8924   -0.5052 C   0  0  0  0  0  0  0  0  0  0  0  0
   -0.8616   -0.8958   -1.2793 O   0  0  0  0  0  0  0  0  0  0  0  0
   -3.0358   -1.3119   -0.9286 N   0  0  0  0  0  0  0  0  0  0  0  0
   -4.2307   -1.1210   -0.3047 C   0  0  0  0  0  0  0  0  0  0  0  0
   -5.2693   -1.3726   -0.9142 O   0  0  0  0  0  0  0  0  0  0  0  0
   -4.1900   -0.6471    0.9886 N   0  0  0  0  0  0  0  0  0  0  0  0
   -5.4615   -0.4336    1.6663 C   0  0  0  0  0  0  0  0  0  0  0  0
   -5.9875    0.9118    1.3014 C   0  0  0  0  0  0  0  0  0  0  0  0
   -6.8848    1.3513    0.3492 C   0  0  0  0  0  0  0  0  0  0  0  0
   -6.9631    2.7572    0.4930 C   0  0  0  0  0  0  0  0  0  0  0  0
   -6.1099    3.0854    1.5199 C   0  0  0  0  0  0  0  0  0  0  0  0
   -5.5113    1.9722    2.0149 O   0  0  0  0  0  0  0  0  0  0  0  0
   -3.0269   -0.3805    1.6923 C   0  0  0  0  0  0  0  0  0  0  0  0
   -3.0118   -0.1232    2.8953 O   0  0  0  0  0  0  0  0  0  0  0  0
    1.1959    0.9992    0.2652 C   0  0  0  0  0  0  0  0  0  0  0  0
    2.5121    1.0061   -0.2221 C   0  0  0  0  0  0  0  0  0  0  0  0
    6.1813   -1.9585   -1.8237 H   0  0  0  0  0  0  0  0  0  0  0  0
    6.5778   -2.8942   -0.3773 H   0  0  0  0  0  0  0  0  0  0  0  0
    4.8898   -2.7252   -0.8909 H   0  0  0  0  0  0  0  0  0  0  0  0
    6.7154   -0.4496    0.0610 H   0  0  0  0  0  0  0  0  0  0  0  0
    5.5536   -1.2176    1.0938 H   0  0  0  0  0  0  0  0  0  0  0  0
    4.8985    1.9379   -1.2547 H   0  0  0  0  0  0  0  0  0  0  0  0
    6.2403    0.8917   -1.6097 H   0  0  0  0  0  0  0  0  0  0  0  0
    4.9438    1.2208   -3.6449 H   0  0  0  0  0  0  0  0  0  0  0  0
    3.4746    0.5936   -2.8882 H   0  0  0  0  0  0  0  0  0  0  0  0
    4.8474   -0.4814   -3.1673 H   0  0  0  0  0  0  0  0  0  0  0  0
    3.5206   -1.9866    0.9890 H   0  0  0  0  0  0  0  0  0  0  0  0
    1.2607   -1.9988    1.8430 H   0  0  0  0  0  0  0  0  0  0  0  0
   -0.6703    0.2218    2.5908 H   0  0  0  0  0  0  0  0  0  0  0  0
   -3.0882   -1.5942   -1.8973 H   0  0  0  0  0  0  0  0  0  0  0  0
   -6.1772   -1.2077    1.3653 H   0  0  0  0  0  0  0  0  0  0  0  0
   -5.3465   -0.5076    2.7530 H   0  0  0  0  0  0  0  0  0  0  0  0
   -7.4092    0.7293   -0.3643 H   0  0  0  0  0  0  0  0  0  0  0  0
   -7.5649    3.4473   -0.0813 H   0  0  0  0  0  0  0  0  0  0  0  0
   -5.8295    4.0160    1.9939 H   0  0  0  0  0  0  0  0  0  0  0  0
    0.5489    1.8450    0.0486 H   0  0  0  0  0  0  0  0  0  0  0  0
    2.8131    1.8796   -0.7914 H   0  0  0  0  0  0  0  0  0  0  0  0
  1  2  1  0
  2  3  1  0
  3  4  1  0
  4  5  1  0
  3  6  1  0
  6  7  2  0
  7  8  1  0
  8  9  2  0
  9 10  1  0
 10 11  2  3
 11 12  1  0
 12 13  2  0
 12 14  1  0
 14 15  1  0
 15 16  2  0
 15 17  1  0
 17 18  1  0
 18 19  1  0
 19 20  2  0
 20 21  1  0
 21 22  2  0
 22 23  1  0
 17 24  1  0
 24 25  2  0
  9 26  1  0
 26 27  2  0
 27  6  1  0
 24 11  1  0
 23 19  1  0
  1 28  1  0
  1 29  1  0
  1 30  1  0
  2 31  1  0
  2 32  1  0
  4 33  1  0
  4 34  1  0
  5 35  1  0
  5 36  1  0
  5 37  1  0
  7 38  1  0
  8 39  1  0
 10 40  1  0
 14 41  1  0
 18 42  1  0
 18 43  1  0
 20 44  1  0
 21 45  1  0
 22 46  1  0
 26 47  1  0
 27 48  1  0
M  END
$$$$
