
     RDKit          3D

 57 60  0  0  0  0  0  0  0  0999 V2000
    5.5242    4.2362    1.2230 C   0  0  0  0  0  0  0  0  0  0  0  0
    6.3185    2.9859    1.5848 C   0  0  0  0  0  0  0  0  0  0  0  0
    6.3120    1.8778    0.5158 C   0  0  0  0  0  0  0  0  0  0  0  0
    6.8339    2.3646   -0.8368 C   0  0  0  0  0  0  0  0  0  0  0  0
    4.9873    1.2863    0.3792 N   0  0  0  0  0  0  0  0  0  0  0  0
    4.8054    0.0279   -0.1546 C   0  0  0  0  0  0  0  0  0  0  0  0
    5.7253   -0.6973   -0.5191 O   0  0  0  0  0  0  0  0  0  0  0  0
    3.3997   -0.4520   -0.2540 C   0  0  0  0  0  0  0  0  0  0  0  0
    3.1564   -1.8236   -0.1406 C   0  0  0  0  0  0  0  0  0  0  0  0
    1.8553   -2.3214   -0.2498 C   0  0  0  0  0  0  0  0  0  0  0  0
    0.7809   -1.4564   -0.4922 C   0  0  0  0  0  0  0  0  0  0  0  0
   -0.6213   -1.9938   -0.6460 C   0  0  0  0  0  0  0  0  0  0  0  0
   -1.4963   -2.1743    0.9339 S   0  0  0  0  0  0  0  0  0  0  0  0
   -2.4592   -0.7354    0.9251 C   0  0  0  0  0  0  0  0  0  0  0  0
   -1.9785    0.4789    0.7999 N   0  0  0  0  0  0  0  0  0  0  0  0
   -3.0684    1.3080    0.8710 C   0  0  0  0  0  0  0  0  0  0  0  0
   -3.1253    2.6994    0.7965 C   0  0  0  0  0  0  0  0  0  0  0  0
   -4.3902    3.2543    0.8911 C   0  0  0  0  0  0  0  0  0  0  0  0
   -5.5359    2.5475    1.0510 N   0  0  0  0  0  0  0  0  0  0  0  0
   -5.4781    1.1987    1.1302 C   0  0  0  0  0  0  0  0  0  0  0  0
   -4.2409    0.5775    1.0338 C   0  0  0  0  0  0  0  0  0  0  0  0
   -3.8266   -0.7378    1.0450 N   0  0  0  0  0  0  0  0  0  0  0  0
   -4.7015   -1.8959    1.1569 C   0  0  0  0  0  0  0  0  0  0  0  0
   -4.9270   -2.5754   -0.1763 C   0  0  0  0  0  0  0  0  0  0  0  0
   -4.5774   -3.9286   -0.3441 C   0  0  0  0  0  0  0  0  0  0  0  0
   -4.7833   -4.5662   -1.5683 C   0  0  0  0  0  0  0  0  0  0  0  0
   -5.3458   -3.8582   -2.6257 C   0  0  0  0  0  0  0  0  0  0  0  0
   -5.5426   -4.4706   -3.8002 F   0  0  0  0  0  0  0  0  0  0  0  0
   -5.7101   -2.5244   -2.4819 C   0  0  0  0  0  0  0  0  0  0  0  0
   -5.5058   -1.8840   -1.2584 C   0  0  0  0  0  0  0  0  0  0  0  0
    1.0329   -0.0829   -0.6036 C   0  0  0  0  0  0  0  0  0  0  0  0
    2.3336    0.4186   -0.4908 C   0  0  0  0  0  0  0  0  0  0  0  0
    4.4705    4.0051    1.0344 H   0  0  0  0  0  0  0  0  0  0  0  0
    5.9366    4.7277    0.3351 H   0  0  0  0  0  0  0  0  0  0  0  0
    5.5633    4.9589    2.0476 H   0  0  0  0  0  0  0  0  0  0  0  0
    5.9227    2.5833    2.5256 H   0  0  0  0  0  0  0  0  0  0  0  0
    7.3561    3.2796    1.7825 H   0  0  0  0  0  0  0  0  0  0  0  0
    6.9841    1.0817    0.8645 H   0  0  0  0  0  0  0  0  0  0  0  0
    6.1418    3.0744   -1.3066 H   0  0  0  0  0  0  0  0  0  0  0  0
    7.8086    2.8514   -0.7239 H   0  0  0  0  0  0  0  0  0  0  0  0
    6.9587    1.5283   -1.5349 H   0  0  0  0  0  0  0  0  0  0  0  0
    4.1912    1.7762    0.7619 H   0  0  0  0  0  0  0  0  0  0  0  0
    3.9821   -2.5073    0.0331 H   0  0  0  0  0  0  0  0  0  0  0  0
    1.6883   -3.3902   -0.1511 H   0  0  0  0  0  0  0  0  0  0  0  0
   -0.5698   -2.9887   -1.1071 H   0  0  0  0  0  0  0  0  0  0  0  0
   -1.1965   -1.3769   -1.3486 H   0  0  0  0  0  0  0  0  0  0  0  0
   -2.2350    3.3035    0.6667 H   0  0  0  0  0  0  0  0  0  0  0  0
   -4.5229    4.3329    0.8337 H   0  0  0  0  0  0  0  0  0  0  0  0
   -6.4169    0.6782    1.2521 H   0  0  0  0  0  0  0  0  0  0  0  0
   -4.2590   -2.5772    1.8939 H   0  0  0  0  0  0  0  0  0  0  0  0
   -5.6648   -1.5751    1.5692 H   0  0  0  0  0  0  0  0  0  0  0  0
   -4.1368   -4.4970    0.4751 H   0  0  0  0  0  0  0  0  0  0  0  0
   -4.5103   -5.6097   -1.7041 H   0  0  0  0  0  0  0  0  0  0  0  0
   -6.1521   -1.9922   -3.3211 H   0  0  0  0  0  0  0  0  0  0  0  0
   -5.8002   -0.8395   -1.1656 H   0  0  0  0  0  0  0  0  0  0  0  0
    0.2118    0.6065   -0.7860 H   0  0  0  0  0  0  0  0  0  0  0  0
    2.4970    1.4828   -0.6215 H   0  0  0  0  0  0  0  0  0  0  0  0
  1  2  1  0
  2  3  1  0
  3  4  1  0
  3  5  1  0
  5  6  1  0
  6  7  2  0
  6  8  1  0
  8  9  2  0
  9 10  1  0
 10 11  2  0
 11 12  1  0
 12 13  1  0
 13 14  1  0
 14 15  2  0
 15 16  1  0
 16 17  2  0
 17 18  1  0
 18 19  2  0
 19 20  1  0
 20 21  2  0
 21 22  1  0
 22 23  1  0
 23 24  1  0
 24 25  2  0
 25 26  1  0
 26 27  2  0
 27 28  1  0
 27 29  1  0
 29 30  2  0
 11 31  1  0
 31 32  2  0
 32  8  1  0
 22 14  1  0
 30 24  1  0
 21 16  1  0
  1 33  1  0
  1 34  1  0
  1 35  1  0
  2 36  1  0
  2 37  1  0
  3 38  1  0
  4 39  1  0
  4 40  1  0
  4 41  1  0
  5 42  1  0
  9 43  1  0
 10 44  1  0
 12 45  1  0
 12 46  1  0
 17 47  1  0
 18 48  1  0
 20 49  1  0
 23 50  1  0
 23 51  1  0
 25 52  1  0
 26 53  1  0
 29 54  1  0
 30 55  1  0
 31 56  1  0
 32 57  1  0
M  END
$$$$
