
     RDKit          3D

 67 69  0  0  0  0  0  0  0  0999 V2000
   -2.8743   -0.5915   -5.1851 C   0  0  0  0  0  0  0  0  0  0  0  0
   -3.2656   -0.0411   -3.8007 C   0  0  0  0  0  0  0  0  0  0  0  0
   -3.5493    1.4624   -3.9437 C   0  0  0  0  0  0  0  0  0  0  0  0
   -4.5275   -0.7785   -3.3263 C   0  0  0  0  0  0  0  0  0  0  0  0
   -2.1416   -0.2827   -2.8826 N   0  0  0  0  0  0  0  0  0  0  0  0
   -2.1204    0.0644   -1.5389 C   0  0  0  0  0  0  0  0  0  0  0  0
   -3.0356    0.6837   -1.0023 O   0  0  0  0  0  0  0  0  0  0  0  0
   -0.8039   -0.3169   -0.7978 C   0  0  0  0  0  0  0  0  0  0  0  0
   -0.3025   -1.7557   -0.9633 C   0  0  0  0  0  0  0  0  0  0  0  0
    1.0710   -2.0144   -0.7703 C   0  0  0  0  0  0  0  0  0  0  0  0
    1.5869   -3.3036   -0.9146 C   0  0  0  0  0  0  0  0  0  0  0  0
    0.7365   -4.3455   -1.2542 C   0  0  0  0  0  0  0  0  0  0  0  0
    1.2283   -5.5830   -1.3954 F   0  0  0  0  0  0  0  0  0  0  0  0
   -0.6197   -4.1221   -1.4502 C   0  0  0  0  0  0  0  0  0  0  0  0
   -1.1385   -2.8329   -1.3053 C   0  0  0  0  0  0  0  0  0  0  0  0
   -0.7376    0.1684    0.6074 N   0  0  0  0  0  0  0  0  0  0  0  0
    0.0905    1.2229    1.0099 C   0  0  0  0  0  0  0  0  0  0  0  0
    0.2305    1.5258    2.1980 O   0  0  0  0  0  0  0  0  0  0  0  0
    0.8057    2.0319   -0.0643 C   0  0  0  0  0  0  0  0  0  0  0  0
    1.6799    3.1246    0.5493 C   0  0  0  0  0  0  0  0  0  0  0  0
    2.9672    2.5475    1.1201 C   0  0  0  0  0  0  0  0  0  0  0  0
    3.4274    1.4824    0.7189 O   0  0  0  0  0  0  0  0  0  0  0  0
    3.5441    3.3867    2.0430 N   0  0  0  0  0  0  0  0  0  0  0  0
    4.7309    3.2129    2.7540 C   0  0  0  0  0  0  0  0  0  0  0  0
    5.5677    2.1139    2.6244 C   0  0  0  0  0  0  0  0  0  0  0  0
    6.7287    2.0583    3.3956 C   0  0  0  0  0  0  0  0  0  0  0  0
    7.0186    3.0971    4.2689 C   0  0  0  0  0  0  0  0  0  0  0  0
    6.1305    4.1551    4.3329 C   0  0  0  0  0  0  0  0  0  0  0  0
    5.0002    4.2350    3.5961 N   0  0  0  0  0  0  0  0  0  0  0  0
   -1.4891   -0.4959    1.6904 C   0  0  0  0  0  0  0  0  0  0  0  0
   -0.6633   -1.5517    2.4530 C   0  0  0  0  0  0  0  0  0  0  0  0
   -1.5891   -2.7491    2.6495 C   0  0  0  0  0  0  0  0  0  0  0  0
   -2.9906   -2.1817    2.5012 C   0  0  0  0  0  0  0  0  0  0  0  0
   -2.8320   -1.1649    1.3801 C   0  0  0  0  0  0  0  0  0  0  0  0
   -2.6585   -1.6655   -5.1358 H   0  0  0  0  0  0  0  0  0  0  0  0
   -3.6754   -0.4432   -5.9176 H   0  0  0  0  0  0  0  0  0  0  0  0
   -1.9738   -0.0963   -5.5666 H   0  0  0  0  0  0  0  0  0  0  0  0
   -4.3201    1.6489   -4.7001 H   0  0  0  0  0  0  0  0  0  0  0  0
   -2.6453    2.0047   -4.2435 H   0  0  0  0  0  0  0  0  0  0  0  0
   -3.9010    1.9065   -3.0072 H   0  0  0  0  0  0  0  0  0  0  0  0
   -4.8896   -0.3977   -2.3661 H   0  0  0  0  0  0  0  0  0  0  0  0
   -4.3310   -1.8489   -3.1989 H   0  0  0  0  0  0  0  0  0  0  0  0
   -5.3445   -0.6690   -4.0490 H   0  0  0  0  0  0  0  0  0  0  0  0
   -1.3565   -0.8136   -3.2430 H   0  0  0  0  0  0  0  0  0  0  0  0
   -0.0826    0.2591   -1.3853 H   0  0  0  0  0  0  0  0  0  0  0  0
    1.7492   -1.2093   -0.4867 H   0  0  0  0  0  0  0  0  0  0  0  0
    2.6434   -3.4983   -0.7573 H   0  0  0  0  0  0  0  0  0  0  0  0
   -1.2670   -4.9543   -1.7097 H   0  0  0  0  0  0  0  0  0  0  0  0
   -2.2063   -2.6930   -1.4609 H   0  0  0  0  0  0  0  0  0  0  0  0
    1.4239    1.3747   -0.6813 H   0  0  0  0  0  0  0  0  0  0  0  0
    0.0405    2.5011   -0.6930 H   0  0  0  0  0  0  0  0  0  0  0  0
    1.1362    3.6825    1.3197 H   0  0  0  0  0  0  0  0  0  0  0  0
    1.9719    3.8349   -0.2332 H   0  0  0  0  0  0  0  0  0  0  0  0
    3.0655    4.2357    2.3112 H   0  0  0  0  0  0  0  0  0  0  0  0
    5.3470    1.2973    1.9487 H   0  0  0  0  0  0  0  0  0  0  0  0
    7.3967    1.2059    3.3119 H   0  0  0  0  0  0  0  0  0  0  0  0
    7.9113    3.0830    4.8835 H   0  0  0  0  0  0  0  0  0  0  0  0
    6.3078    4.9940    4.9997 H   0  0  0  0  0  0  0  0  0  0  0  0
   -1.7293    0.2881    2.4240 H   0  0  0  0  0  0  0  0  0  0  0  0
   -0.3632   -1.1466    3.4272 H   0  0  0  0  0  0  0  0  0  0  0  0
    0.2555   -1.8478    1.9406 H   0  0  0  0  0  0  0  0  0  0  0  0
   -1.4023   -3.4943    1.8675 H   0  0  0  0  0  0  0  0  0  0  0  0
   -1.4366   -3.2353    3.6173 H   0  0  0  0  0  0  0  0  0  0  0  0
   -3.7290   -2.9521    2.2626 H   0  0  0  0  0  0  0  0  0  0  0  0
   -3.3004   -1.6827    3.4269 H   0  0  0  0  0  0  0  0  0  0  0  0
   -3.6550   -0.4433    1.3718 H   0  0  0  0  0  0  0  0  0  0  0  0
   -2.8451   -1.6870    0.4255 H   0  0  0  0  0  0  0  0  0  0  0  0
  1  2  1  0
  2  3  1  0
  2  4  1  0
  2  5  1  0
  5  6  1  0
  6  7  2  0
  6  8  1  0
  8  9  1  0
  9 10  2  0
 10 11  1  0
 11 12  2  0
 12 13  1  0
 12 14  1  0
 14 15  2  0
  8 16  1  0
 16 17  1  0
 17 18  2  0
 17 19  1  0
 19 20  1  0
 20 21  1  0
 21 22  2  0
 21 23  1  0
 23 24  1  0
 24 25  2  0
 25 26  1  0
 26 27  2  0
 27 28  1  0
 28 29  2  0
 16 30  1  0
 30 31  1  0
 31 32  1  0
 32 33  1  0
 33 34  1  0
 15  9  1  0
 29 24  1  0
 34 30  1  0
  1 35  1  0
  1 36  1  0
  1 37  1  0
  3 38  1  0
  3 39  1  0
  3 40  1  0
  4 41  1  0
  4 42  1  0
  4 43  1  0
  5 44  1  0
  8 45  1  0
 10 46  1  0
 11 47  1  0
 14 48  1  0
 15 49  1  0
 19 50  1  0
 19 51  1  0
 20 52  1  0
 20 53  1  0
 23 54  1  0
 25 55  1  0
 26 56  1  0
 27 57  1  0
 28 58  1  0
 30 59  1  0
 31 60  1  0
 31 61  1  0
 32 62  1  0
 32 63  1  0
 33 64  1  0
 33 65  1  0
 34 66  1  0
 34 67  1  0
M  END
$$$$
