
     RDKit          3D

 56 60  0  0  0  0  0  0  0  0999 V2000
    3.3996   -0.8541    3.3409 C   0  0  0  0  0  0  0  0  0  0  0  0
    3.8900   -0.9118    1.9421 C   0  0  0  0  0  0  0  0  0  0  0  0
    3.3180   -1.7435    1.0619 N   0  0  0  0  0  0  0  0  0  0  0  0
    4.0006   -1.5360   -0.0890 N   0  0  0  0  0  0  0  0  0  0  0  0
    3.6318   -2.3073   -1.2736 C   0  0  0  0  0  0  0  0  0  0  0  0
    2.6604   -1.5536   -2.1502 C   0  0  0  0  0  0  0  0  0  0  0  0
    3.0167   -1.1658   -3.4498 C   0  0  0  0  0  0  0  0  0  0  0  0
    2.1098   -0.4776   -4.2578 C   0  0  0  0  0  0  0  0  0  0  0  0
    0.8399   -0.1621   -3.7736 C   0  0  0  0  0  0  0  0  0  0  0  0
    0.4705   -0.5301   -2.4757 C   0  0  0  0  0  0  0  0  0  0  0  0
   -0.8906   -0.1657   -1.9906 C   0  0  0  0  0  0  0  0  0  0  0  0
   -1.8011   -0.0252   -2.7978 O   0  0  0  0  0  0  0  0  0  0  0  0
   -1.0128    0.0258   -0.6290 N   0  0  0  0  0  0  0  0  0  0  0  0
   -2.2421    0.4581    0.0441 C   0  0  0  0  0  0  0  0  0  0  0  0
   -2.6786    1.8703   -0.4170 C   0  0  0  0  0  0  0  0  0  0  0  0
   -3.9370    2.3229    0.3445 C   0  0  0  0  0  0  0  0  0  0  0  0
   -3.6313    2.3661    1.8501 C   0  0  0  0  0  0  0  0  0  0  0  0
   -3.2157    0.9707    2.3417 C   0  0  0  0  0  0  0  0  0  0  0  0
   -4.3576   -0.0230    2.0792 C   0  0  0  0  0  0  0  0  0  0  0  0
   -4.6664   -0.0806    0.5752 C   0  0  0  0  0  0  0  0  0  0  0  0
   -5.0742    1.3198    0.0866 C   0  0  0  0  0  0  0  0  0  0  0  0
   -3.4087   -0.5357   -0.1864 C   0  0  0  0  0  0  0  0  0  0  0  0
   -1.9660    0.5163    1.5715 C   0  0  0  0  0  0  0  0  0  0  0  0
    1.3737   -1.2428   -1.6768 C   0  0  0  0  0  0  0  0  0  0  0  0
    4.9985   -0.5954    0.0301 C   0  0  0  0  0  0  0  0  0  0  0  0
    5.8799   -0.1867   -1.0904 C   0  0  0  0  0  0  0  0  0  0  0  0
    4.9338   -0.1821    1.3405 C   0  0  0  0  0  0  0  0  0  0  0  0
    5.9961    1.0974    2.2028 Br  0  0  0  0  0  0  0  0  0  0  0  0
    2.5624   -1.5400    3.5020 H   0  0  0  0  0  0  0  0  0  0  0  0
    4.1965   -1.1285    4.0384 H   0  0  0  0  0  0  0  0  0  0  0  0
    3.0563    0.1556    3.5849 H   0  0  0  0  0  0  0  0  0  0  0  0
    3.1870   -3.2523   -0.9397 H   0  0  0  0  0  0  0  0  0  0  0  0
    4.5545   -2.5567   -1.8082 H   0  0  0  0  0  0  0  0  0  0  0  0
    4.0018   -1.4002   -3.8485 H   0  0  0  0  0  0  0  0  0  0  0  0
    2.3900   -0.1859   -5.2673 H   0  0  0  0  0  0  0  0  0  0  0  0
    0.1373    0.3746   -4.4085 H   0  0  0  0  0  0  0  0  0  0  0  0
   -0.1567    0.0978   -0.0944 H   0  0  0  0  0  0  0  0  0  0  0  0
   -1.8646    2.5888   -0.2535 H   0  0  0  0  0  0  0  0  0  0  0  0
   -2.8872    1.8833   -1.4933 H   0  0  0  0  0  0  0  0  0  0  0  0
   -4.2377    3.3187    0.0003 H   0  0  0  0  0  0  0  0  0  0  0  0
   -4.5146    2.7102    2.4021 H   0  0  0  0  0  0  0  0  0  0  0  0
   -2.8301    3.0882    2.0495 H   0  0  0  0  0  0  0  0  0  0  0  0
   -2.9964    1.0069    3.4146 H   0  0  0  0  0  0  0  0  0  0  0  0
   -4.0792   -1.0195    2.4435 H   0  0  0  0  0  0  0  0  0  0  0  0
   -5.2535    0.2802    2.6346 H   0  0  0  0  0  0  0  0  0  0  0  0
   -5.4833   -0.7878    0.3934 H   0  0  0  0  0  0  0  0  0  0  0  0
   -5.9844    1.6457    0.6047 H   0  0  0  0  0  0  0  0  0  0  0  0
   -5.3113    1.2887   -0.9839 H   0  0  0  0  0  0  0  0  0  0  0  0
   -3.1170   -1.5424    0.1406 H   0  0  0  0  0  0  0  0  0  0  0  0
   -3.6517   -0.6180   -1.2521 H   0  0  0  0  0  0  0  0  0  0  0  0
   -1.6443   -0.4693    1.9341 H   0  0  0  0  0  0  0  0  0  0  0  0
   -1.1353    1.2043    1.7793 H   0  0  0  0  0  0  0  0  0  0  0  0
    1.0820   -1.5784   -0.6827 H   0  0  0  0  0  0  0  0  0  0  0  0
    6.6678    0.4948   -0.7559 H   0  0  0  0  0  0  0  0  0  0  0  0
    6.3710   -1.0557   -1.5389 H   0  0  0  0  0  0  0  0  0  0  0  0
    5.3035    0.3284   -1.8651 H   0  0  0  0  0  0  0  0  0  0  0  0
  1  2  1  0
  2  3  2  0
  3  4  1  0
  4  5  1  0
  5  6  1  0
  6  7  2  0
  7  8  1  0
  8  9  2  0
  9 10  1  0
 10 11  1  0
 11 12  2  0
 11 13  1  0
 13 14  1  0
 14 15  1  0
 15 16  1  0
 16 17  1  0
 17 18  1  0
 18 19  1  0
 19 20  1  0
 20 21  1  0
 20 22  1  0
 18 23  1  0
 10 24  2  0
  4 25  1  0
 25 26  1  0
 25 27  2  0
 27 28  1  0
 27  2  1  0
 24  6  1  0
 22 14  1  0
 23 14  1  0
 21 16  1  0
  1 29  1  0
  1 30  1  0
  1 31  1  0
  5 32  1  0
  5 33  1  0
  7 34  1  0
  8 35  1  0
  9 36  1  0
 13 37  1  0
 15 38  1  0
 15 39  1  0
 16 40  1  0
 17 41  1  0
 17 42  1  0
 18 43  1  0
 19 44  1  0
 19 45  1  0
 20 46  1  0
 21 47  1  0
 21 48  1  0
 22 49  1  0
 22 50  1  0
 23 51  1  0
 23 52  1  0
 24 53  1  0
 26 54  1  0
 26 55  1  0
 26 56  1  0
M  END
$$$$
