
     RDKit          3D

 52 55  0  0  0  0  0  0  0  0999 V2000
    7.2942    1.4177   -0.5283 C   0  0  0  0  0  0  0  0  0  0  0  0
    6.3454    2.3636   -1.2482 C   0  0  0  0  0  0  0  0  0  0  0  0
    4.9208    1.8717   -1.2020 C   0  0  0  0  0  0  0  0  0  0  0  0
    4.0773    2.2389   -0.1467 C   0  0  0  0  0  0  0  0  0  0  0  0
    2.7621    1.7706   -0.0960 C   0  0  0  0  0  0  0  0  0  0  0  0
    2.2740    0.9241   -1.0975 C   0  0  0  0  0  0  0  0  0  0  0  0
    0.8743    0.4452   -1.0132 C   0  0  0  0  0  0  0  0  0  0  0  0
    0.0481    0.8241   -0.0855 N   0  0  0  0  0  0  0  0  0  0  0  0
   -1.1332    0.1741   -0.3028 N   0  0  0  0  0  0  0  0  0  0  0  0
   -2.2829    0.5302    0.4002 C   0  0  0  0  0  0  0  0  0  0  0  0
   -3.5263   -0.0843    0.1747 C   0  0  0  0  0  0  0  0  0  0  0  0
   -4.6696    0.2794    0.8968 C   0  0  0  0  0  0  0  0  0  0  0  0
   -4.5814    1.2722    1.8707 C   0  0  0  0  0  0  0  0  0  0  0  0
   -6.0265    1.7262    2.7876 S   0  0  0  0  0  6  0  0  0  0  0  0
   -5.9798    0.6157    4.0540 N   0  0  0  0  0  0  0  0  0  0  0  0
   -7.1903    1.4356    1.9846 O   0  0  0  0  0  0  0  0  0  0  0  0
   -5.8036    3.0181    3.3953 O   0  0  0  0  0  0  0  0  0  0  0  0
   -3.3714    1.9156    2.1126 C   0  0  0  0  0  0  0  0  0  0  0  0
   -2.2390    1.5374    1.3836 C   0  0  0  0  0  0  0  0  0  0  0  0
   -1.0575   -0.8036   -1.3903 C   0  0  0  0  0  0  0  0  0  0  0  0
   -1.1212   -2.2461   -0.9041 C   0  0  0  0  0  0  0  0  0  0  0  0
   -1.7510   -3.2177   -1.7032 C   0  0  0  0  0  0  0  0  0  0  0  0
   -1.8028   -4.5506   -1.2912 C   0  0  0  0  0  0  0  0  0  0  0  0
   -1.2215   -4.9196   -0.0848 C   0  0  0  0  0  0  0  0  0  0  0  0
   -1.2719   -6.1993    0.3071 F   0  0  0  0  0  0  0  0  0  0  0  0
   -0.5870   -3.9818    0.7185 C   0  0  0  0  0  0  0  0  0  0  0  0
   -0.5337   -2.6485    0.3094 C   0  0  0  0  0  0  0  0  0  0  0  0
    0.2977   -0.4995   -2.0312 C   0  0  0  0  0  0  0  0  0  0  0  0
    3.1136    0.5501   -2.1513 C   0  0  0  0  0  0  0  0  0  0  0  0
    4.4300    1.0198   -2.1997 C   0  0  0  0  0  0  0  0  0  0  0  0
    7.0237    1.3114    0.5276 H   0  0  0  0  0  0  0  0  0  0  0  0
    8.3190    1.7992   -0.5789 H   0  0  0  0  0  0  0  0  0  0  0  0
    7.2806    0.4202   -0.9805 H   0  0  0  0  0  0  0  0  0  0  0  0
    6.6608    2.4820   -2.2919 H   0  0  0  0  0  0  0  0  0  0  0  0
    6.4058    3.3622   -0.7985 H   0  0  0  0  0  0  0  0  0  0  0  0
    4.4378    2.8932    0.6444 H   0  0  0  0  0  0  0  0  0  0  0  0
    2.1231    2.0714    0.7319 H   0  0  0  0  0  0  0  0  0  0  0  0
   -3.6336   -0.8669   -0.5706 H   0  0  0  0  0  0  0  0  0  0  0  0
   -5.6165   -0.2158    0.6906 H   0  0  0  0  0  0  0  0  0  0  0  0
   -5.2742   -0.1087    3.9228 H   0  0  0  0  0  0  0  0  0  0  0  0
   -5.8426    1.1244    4.9291 H   0  0  0  0  0  0  0  0  0  0  0  0
   -3.2911    2.7064    2.8543 H   0  0  0  0  0  0  0  0  0  0  0  0
   -1.2980    2.0467    1.5853 H   0  0  0  0  0  0  0  0  0  0  0  0
   -1.8528   -0.6215   -2.1246 H   0  0  0  0  0  0  0  0  0  0  0  0
   -2.2079   -2.9428   -2.6517 H   0  0  0  0  0  0  0  0  0  0  0  0
   -2.2913   -5.3030   -1.9022 H   0  0  0  0  0  0  0  0  0  0  0  0
   -0.1390   -4.2909    1.6574 H   0  0  0  0  0  0  0  0  0  0  0  0
   -0.0370   -1.9187    0.9480 H   0  0  0  0  0  0  0  0  0  0  0  0
    0.1728    0.0375   -2.9776 H   0  0  0  0  0  0  0  0  0  0  0  0
    0.9294   -1.3791   -2.1814 H   0  0  0  0  0  0  0  0  0  0  0  0
    2.7712   -0.1030   -2.9479 H   0  0  0  0  0  0  0  0  0  0  0  0
    5.0731    0.7165   -3.0237 H   0  0  0  0  0  0  0  0  0  0  0  0
  1  2  1  0
  2  3  1  0
  3  4  2  0
  4  5  1  0
  5  6  2  0
  6  7  1  0
  7  8  2  0
  8  9  1  0
  9 10  1  0
 10 11  2  0
 11 12  1  0
 12 13  2  0
 13 14  1  0
 14 15  1  0
 14 16  2  0
 14 17  2  0
 13 18  1  0
 18 19  2  0
  9 20  1  0
 20 21  1  0
 21 22  2  0
 22 23  1  0
 23 24  2  0
 24 25  1  0
 24 26  1  0
 26 27  2  0
 20 28  1  0
  6 29  1  0
 29 30  2  0
 30  3  1  0
 28  7  1  0
 19 10  1  0
 27 21  1  0
  1 31  1  0
  1 32  1  0
  1 33  1  0
  2 34  1  0
  2 35  1  0
  4 36  1  0
  5 37  1  0
 11 38  1  0
 12 39  1  0
 15 40  1  0
 15 41  1  0
 18 42  1  0
 19 43  1  0
 20 44  1  0
 22 45  1  0
 23 46  1  0
 26 47  1  0
 27 48  1  0
 28 49  1  0
 28 50  1  0
 29 51  1  0
 30 52  1  0
M  END
$$$$
