
     RDKit          3D

 53 55  0  0  0  0  0  0  0  0999 V2000
    6.1613   -3.2075    3.3377 C   0  0  0  0  0  0  0  0  0  0  0  0
    5.2983   -3.6347    2.2909 O   0  0  0  0  0  0  0  0  0  0  0  0
    4.7057   -2.6551    1.5423 C   0  0  0  0  0  0  0  0  0  0  0  0
    4.8238   -1.2825    1.7483 C   0  0  0  0  0  0  0  0  0  0  0  0
    4.1614   -0.3862    0.9028 C   0  0  0  0  0  0  0  0  0  0  0  0
    3.3676   -0.8470   -0.1569 C   0  0  0  0  0  0  0  0  0  0  0  0
    2.6935    0.0432   -1.0081 C   0  0  0  0  0  0  0  0  0  0  0  0
    1.8872   -0.4239   -2.0595 C   0  0  0  0  0  0  0  0  0  0  0  0
    1.1415    0.5438   -2.9665 C   0  0  0  0  0  0  0  0  0  0  0  0
    2.1128    1.2284   -3.9298 C   0  0  0  0  0  0  0  0  0  0  0  0
    0.3121    1.5708   -2.1732 C   0  0  0  0  0  0  0  0  0  0  0  0
    0.4840    2.7784   -2.3017 O   0  0  0  0  0  0  0  0  0  0  0  0
   -0.6382    0.9689   -1.3577 N   0  0  0  0  0  0  0  0  0  0  0  0
   -1.5328    1.5966   -0.4677 C   0  0  0  0  0  0  0  0  0  0  0  0
   -1.5683    2.9738   -0.2356 C   0  0  0  0  0  0  0  0  0  0  0  0
   -2.4643    3.5230    0.6890 C   0  0  0  0  0  0  0  0  0  0  0  0
   -3.3485    2.7019    1.3802 C   0  0  0  0  0  0  0  0  0  0  0  0
   -3.3410    1.3304    1.1253 C   0  0  0  0  0  0  0  0  0  0  0  0
   -4.4662    0.2678    2.0052 S   0  0  0  0  0  6  0  0  0  0  0  0
   -3.9212   -1.0732    1.9552 O   0  0  0  0  0  0  0  0  0  0  0  0
   -4.7640    0.9068    3.2693 O   0  0  0  0  0  0  0  0  0  0  0  0
   -5.8679    0.3048    1.0401 N   0  0  0  0  0  0  0  0  0  0  0  0
   -5.7927   -0.3668   -0.2676 C   0  0  0  0  0  0  0  0  0  0  0  0
   -6.6217    1.5702    1.0023 C   0  0  0  0  0  0  0  0  0  0  0  0
   -2.4232    0.7725    0.2266 C   0  0  0  0  0  0  0  0  0  0  0  0
    1.7806   -1.8050   -2.2669 C   0  0  0  0  0  0  0  0  0  0  0  0
    2.4496   -2.6998   -1.4294 C   0  0  0  0  0  0  0  0  0  0  0  0
    3.2427   -2.2361   -0.3685 C   0  0  0  0  0  0  0  0  0  0  0  0
    3.9169   -3.1231    0.4864 C   0  0  0  0  0  0  0  0  0  0  0  0
    6.9975   -2.6205    2.9451 H   0  0  0  0  0  0  0  0  0  0  0  0
    6.5785   -4.0997    3.8143 H   0  0  0  0  0  0  0  0  0  0  0  0
    5.6089   -2.6498    4.1001 H   0  0  0  0  0  0  0  0  0  0  0  0
    5.4201   -0.8735    2.5562 H   0  0  0  0  0  0  0  0  0  0  0  0
    4.2691    0.6804    1.0811 H   0  0  0  0  0  0  0  0  0  0  0  0
    2.7944    1.1163   -0.8440 H   0  0  0  0  0  0  0  0  0  0  0  0
    0.4183   -0.0178   -3.5734 H   0  0  0  0  0  0  0  0  0  0  0  0
    2.8419    1.8509   -3.3996 H   0  0  0  0  0  0  0  0  0  0  0  0
    1.5718    1.8781   -4.6266 H   0  0  0  0  0  0  0  0  0  0  0  0
    2.6684    0.4909   -4.5192 H   0  0  0  0  0  0  0  0  0  0  0  0
   -0.6585   -0.0453   -1.3682 H   0  0  0  0  0  0  0  0  0  0  0  0
   -0.8933    3.6547   -0.7446 H   0  0  0  0  0  0  0  0  0  0  0  0
   -2.4580    4.5950    0.8725 H   0  0  0  0  0  0  0  0  0  0  0  0
   -4.0302    3.1326    2.1103 H   0  0  0  0  0  0  0  0  0  0  0  0
   -5.1944    0.2133   -0.9750 H   0  0  0  0  0  0  0  0  0  0  0  0
   -6.7994   -0.4829   -0.6826 H   0  0  0  0  0  0  0  0  0  0  0  0
   -5.3734   -1.3713   -0.1703 H   0  0  0  0  0  0  0  0  0  0  0  0
   -6.7310    1.9971    2.0026 H   0  0  0  0  0  0  0  0  0  0  0  0
   -7.6333    1.3859    0.6254 H   0  0  0  0  0  0  0  0  0  0  0  0
   -6.1370    2.2979    0.3442 H   0  0  0  0  0  0  0  0  0  0  0  0
   -2.4097   -0.3042    0.0753 H   0  0  0  0  0  0  0  0  0  0  0  0
    1.1795   -2.2017   -3.0827 H   0  0  0  0  0  0  0  0  0  0  0  0
    2.3489   -3.7686   -1.6120 H   0  0  0  0  0  0  0  0  0  0  0  0
    3.8317   -4.1980    0.3350 H   0  0  0  0  0  0  0  0  0  0  0  0
  1  2  1  0
  2  3  1  0
  3  4  2  0
  4  5  1  0
  5  6  2  0
  6  7  1  0
  7  8  2  0
  8  9  1  0
  9 10  1  0
  9 11  1  0
 11 12  2  0
 11 13  1  0
 13 14  1  0
 14 15  2  0
 15 16  1  0
 16 17  2  0
 17 18  1  0
 18 19  1  0
 19 20  2  0
 19 21  2  0
 19 22  1  0
 22 23  1  0
 22 24  1  0
 18 25  2  0
  8 26  1  0
 26 27  2  0
 27 28  1  0
 28 29  2  0
 29  3  1  0
 28  6  1  0
 25 14  1  0
  1 30  1  0
  1 31  1  0
  1 32  1  0
  4 33  1  0
  5 34  1  0
  7 35  1  0
  9 36  1  0
 10 37  1  0
 10 38  1  0
 10 39  1  0
 13 40  1  0
 15 41  1  0
 16 42  1  0
 17 43  1  0
 23 44  1  0
 23 45  1  0
 23 46  1  0
 24 47  1  0
 24 48  1  0
 24 49  1  0
 25 50  1  0
 26 51  1  0
 27 52  1  0
 29 53  1  0
M  END
$$$$
