
     RDKit          3D

 51 54  0  0  0  0  0  0  0  0999 V2000
    3.9890    1.3924    1.8863 C   0  0  0  0  0  0  0  0  0  0  0  0
    5.0005    0.9338    0.8451 C   0  0  0  0  0  0  0  0  0  0  0  0
    4.3671    0.5924   -0.5086 C   0  0  0  0  0  0  0  0  0  0  0  0
    3.5470   -0.6594   -0.4754 C   0  0  0  0  0  0  0  0  0  0  0  0
    2.1715   -0.8236   -0.3824 C   0  0  0  0  0  0  0  0  0  0  0  0
    1.1218    0.1930   -0.3075 C   0  0  0  0  0  0  0  0  0  0  0  0
    1.3591    1.3956   -0.3501 O   0  0  0  0  0  0  0  0  0  0  0  0
   -0.1435   -0.3673   -0.1983 N   0  0  0  0  0  0  0  0  0  0  0  0
   -1.2544    0.4186   -0.1237 N   0  0  0  0  0  0  0  0  0  0  0  0
   -2.3829   -0.2153   -0.0582 C   0  0  0  0  0  0  0  0  0  0  0  0
   -3.7027    0.4640    0.0430 C   0  0  0  0  0  0  0  0  0  0  0  0
   -4.7213   -0.2594    0.7034 C   0  0  0  0  0  0  0  0  0  0  0  0
   -4.4037   -1.5104    1.1767 O   0  0  0  0  0  0  0  0  0  0  0  0
   -5.2754   -2.0831    2.1440 C   0  0  0  0  0  0  0  0  0  0  0  0
   -5.9870    0.3086    0.8336 C   0  0  0  0  0  0  0  0  0  0  0  0
   -6.2398    1.5846    0.3328 C   0  0  0  0  0  0  0  0  0  0  0  0
   -5.2453    2.3181   -0.3244 C   0  0  0  0  0  0  0  0  0  0  0  0
   -5.5532    3.5951   -0.8226 C   0  0  0  0  0  0  0  0  0  0  0  0
   -4.6026    4.3520   -1.5022 C   0  0  0  0  0  0  0  0  0  0  0  0
   -3.3319    3.8353   -1.6968 C   0  0  0  0  0  0  0  0  0  0  0  0
   -3.0128    2.5657   -1.2044 C   0  0  0  0  0  0  0  0  0  0  0  0
   -3.9485    1.7688   -0.4927 C   0  0  0  0  0  0  0  0  0  0  0  0
    1.8794   -2.1626   -0.3658 N   0  0  0  0  0  0  0  0  0  0  0  0
    3.0105   -2.8366   -0.4507 N   0  0  0  0  0  0  0  0  0  0  0  0
    4.0534   -1.9612   -0.5368 N   0  0  0  0  0  0  0  0  0  0  0  0
    5.3862   -2.4274   -0.6829 C   0  0  0  0  0  0  0  0  0  0  0  0
    6.4062   -1.5832   -0.8344 N   0  0  0  0  0  0  0  0  0  0  0  0
    7.5185   -2.4109   -0.9703 O   0  0  0  0  0  0  0  0  0  0  0  0
    7.1615   -3.7530   -0.8983 N   0  0  0  0  0  0  0  0  0  0  0  0
    5.8430   -3.7605   -0.7098 C   0  0  0  0  0  0  0  0  0  0  0  0
    5.1046   -4.8781   -0.5712 N   0  0  0  0  0  0  0  0  0  0  0  0
    3.4228    2.2566    1.5283 H   0  0  0  0  0  0  0  0  0  0  0  0
    3.2839    0.5963    2.1417 H   0  0  0  0  0  0  0  0  0  0  0  0
    4.5055    1.6851    2.8068 H   0  0  0  0  0  0  0  0  0  0  0  0
    5.5587    0.0797    1.2441 H   0  0  0  0  0  0  0  0  0  0  0  0
    5.7264    1.7431    0.6935 H   0  0  0  0  0  0  0  0  0  0  0  0
    5.1489    0.5088   -1.2709 H   0  0  0  0  0  0  0  0  0  0  0  0
    3.7569    1.4383   -0.8432 H   0  0  0  0  0  0  0  0  0  0  0  0
   -0.2324   -1.3791   -0.1822 H   0  0  0  0  0  0  0  0  0  0  0  0
   -2.3988   -1.3202   -0.0500 H   0  0  0  0  0  0  0  0  0  0  0  0
   -6.2252   -2.3796    1.6860 H   0  0  0  0  0  0  0  0  0  0  0  0
   -5.4372   -1.4034    2.9872 H   0  0  0  0  0  0  0  0  0  0  0  0
   -4.7968   -2.9871    2.5306 H   0  0  0  0  0  0  0  0  0  0  0  0
   -6.8060   -0.2152    1.3150 H   0  0  0  0  0  0  0  0  0  0  0  0
   -7.2385    2.0014    0.4551 H   0  0  0  0  0  0  0  0  0  0  0  0
   -6.5481    4.0151   -0.6879 H   0  0  0  0  0  0  0  0  0  0  0  0
   -4.8575    5.3365   -1.8837 H   0  0  0  0  0  0  0  0  0  0  0  0
   -2.5789    4.4113   -2.2291 H   0  0  0  0  0  0  0  0  0  0  0  0
   -2.0020    2.2113   -1.3924 H   0  0  0  0  0  0  0  0  0  0  0  0
    4.0872   -4.8495   -0.6281 H   0  0  0  0  0  0  0  0  0  0  0  0
    5.5166   -5.7754   -0.8032 H   0  0  0  0  0  0  0  0  0  0  0  0
  1  2  1  0
  2  3  1  0
  3  4  1  0
  4  5  2  0
  5  6  1  0
  6  7  2  0
  6  8  1  0
  8  9  1  0
  9 10  2  3
 10 11  1  0
 11 12  2  0
 12 13  1  0
 13 14  1  0
 12 15  1  0
 15 16  2  0
 16 17  1  0
 17 18  2  0
 18 19  1  0
 19 20  2  0
 20 21  1  0
 21 22  2  0
  5 23  1  0
 23 24  2  0
 24 25  1  0
 25 26  1  0
 26 27  2  0
 27 28  1  0
 28 29  1  0
 29 30  2  0
 30 31  1  0
 25  4  1  0
 30 26  1  0
 22 11  1  0
 22 17  1  0
  1 32  1  0
  1 33  1  0
  1 34  1  0
  2 35  1  0
  2 36  1  0
  3 37  1  0
  3 38  1  0
  8 39  1  0
 10 40  1  0
 14 41  1  0
 14 42  1  0
 14 43  1  0
 15 44  1  0
 16 45  1  0
 18 46  1  0
 19 47  1  0
 20 48  1  0
 21 49  1  0
 31 50  1  0
 31 51  1  0
M  END
$$$$
