
     RDKit          3D

 54 57  0  0  0  0  0  0  0  0999 V2000
   -4.3821   -4.3567   -2.9863 C   0  0  0  0  0  0  0  0  0  0  0  0
   -3.5794   -4.1384   -1.8332 O   0  0  0  0  0  0  0  0  0  0  0  0
   -3.5094   -2.8565   -1.3624 C   0  0  0  0  0  0  0  0  0  0  0  0
   -2.7052   -2.6926   -0.2327 C   0  0  0  0  0  0  0  0  0  0  0  0
   -2.5452   -1.4339    0.3535 C   0  0  0  0  0  0  0  0  0  0  0  0
   -3.1907   -0.3154   -0.1848 C   0  0  0  0  0  0  0  0  0  0  0  0
   -3.0108    1.0102    0.4208 C   0  0  0  0  0  0  0  0  0  0  0  0
   -4.3798    1.7902    1.0897 S   0  0  0  0  0  0  0  0  0  0  0  0
   -3.4718    3.1575    1.5928 C   0  0  0  0  0  0  0  0  0  0  0  0
   -3.9633    4.2967    2.2618 C   0  0  0  0  0  0  0  0  0  0  0  0
   -3.0786    5.3250    2.5916 C   0  0  0  0  0  0  0  0  0  0  0  0
   -1.7349    5.2283    2.2636 C   0  0  0  0  0  0  0  0  0  0  0  0
   -1.2524    4.0957    1.6012 C   0  0  0  0  0  0  0  0  0  0  0  0
   -2.1232    3.0284    1.2561 C   0  0  0  0  0  0  0  0  0  0  0  0
   -1.8640    1.7740    0.5812 C   0  0  0  0  0  0  0  0  0  0  0  0
   -0.5620    1.3207    0.1014 C   0  0  0  0  0  0  0  0  0  0  0  0
   -0.3054    1.2130   -1.2674 C   0  0  0  0  0  0  0  0  0  0  0  0
    0.9462    0.7777   -1.7100 C   0  0  0  0  0  0  0  0  0  0  0  0
    1.9550    0.4517   -0.7989 C   0  0  0  0  0  0  0  0  0  0  0  0
    3.1223    0.0369   -1.3755 O   0  0  0  0  0  0  0  0  0  0  0  0
    4.2472   -0.2393   -0.5354 C   0  0  0  0  0  0  0  0  0  0  0  0
    4.2199   -1.6985   -0.0426 C   0  0  0  0  0  0  0  0  0  0  0  0
    5.3268   -2.1474    0.8187 N   0  0  0  0  0  0  0  0  0  0  0  0
    5.3688   -1.4416    2.0955 C   0  0  0  0  0  0  0  0  0  0  0  0
    6.6209   -2.0954    0.1450 C   0  0  0  0  0  0  0  0  0  0  0  0
    1.6983    0.5612    0.5676 C   0  0  0  0  0  0  0  0  0  0  0  0
    0.4455    0.9963    1.0162 C   0  0  0  0  0  0  0  0  0  0  0  0
   -3.9954   -0.4835   -1.3197 C   0  0  0  0  0  0  0  0  0  0  0  0
   -4.1552   -1.7459   -1.9049 C   0  0  0  0  0  0  0  0  0  0  0  0
   -5.4308   -4.1108   -2.7896 H   0  0  0  0  0  0  0  0  0  0  0  0
   -3.9986   -3.7974   -3.8461 H   0  0  0  0  0  0  0  0  0  0  0  0
   -4.3307   -5.4216   -3.2326 H   0  0  0  0  0  0  0  0  0  0  0  0
   -2.1964   -3.5528    0.1956 H   0  0  0  0  0  0  0  0  0  0  0  0
   -1.9136   -1.3364    1.2331 H   0  0  0  0  0  0  0  0  0  0  0  0
   -5.0165    4.3759    2.5164 H   0  0  0  0  0  0  0  0  0  0  0  0
   -3.4493    6.2082    3.1065 H   0  0  0  0  0  0  0  0  0  0  0  0
   -1.0523    6.0351    2.5190 H   0  0  0  0  0  0  0  0  0  0  0  0
   -0.1970    4.0378    1.3448 H   0  0  0  0  0  0  0  0  0  0  0  0
   -1.0723    1.4618   -1.9967 H   0  0  0  0  0  0  0  0  0  0  0  0
    1.1359    0.6906   -2.7772 H   0  0  0  0  0  0  0  0  0  0  0  0
    4.3343    0.4921    0.2749 H   0  0  0  0  0  0  0  0  0  0  0  0
    5.1301   -0.0912   -1.1672 H   0  0  0  0  0  0  0  0  0  0  0  0
    4.1670   -2.3572   -0.9203 H   0  0  0  0  0  0  0  0  0  0  0  0
    3.2748   -1.8911    0.4803 H   0  0  0  0  0  0  0  0  0  0  0  0
    6.1060   -1.9039    2.7616 H   0  0  0  0  0  0  0  0  0  0  0  0
    4.4020   -1.5068    2.6068 H   0  0  0  0  0  0  0  0  0  0  0  0
    5.6310   -0.3841    1.9844 H   0  0  0  0  0  0  0  0  0  0  0  0
    6.5887   -2.6479   -0.8005 H   0  0  0  0  0  0  0  0  0  0  0  0
    6.9465   -1.0705   -0.0627 H   0  0  0  0  0  0  0  0  0  0  0  0
    7.3896   -2.5753    0.7611 H   0  0  0  0  0  0  0  0  0  0  0  0
    2.4410    0.3082    1.3159 H   0  0  0  0  0  0  0  0  0  0  0  0
    0.2593    1.0709    2.0855 H   0  0  0  0  0  0  0  0  0  0  0  0
   -4.5020    0.3712   -1.7631 H   0  0  0  0  0  0  0  0  0  0  0  0
   -4.7887   -1.8233   -2.7818 H   0  0  0  0  0  0  0  0  0  0  0  0
  1  2  1  0
  2  3  1  0
  3  4  2  0
  4  5  1  0
  5  6  2  0
  6  7  1  0
  7  8  1  0
  8  9  1  0
  9 10  2  0
 10 11  1  0
 11 12  2  0
 12 13  1  0
 13 14  2  0
 14 15  1  0
 15 16  1  0
 16 17  2  0
 17 18  1  0
 18 19  2  0
 19 20  1  0
 20 21  1  0
 21 22  1  0
 22 23  1  0
 23 24  1  0
 23 25  1  0
 19 26  1  0
 26 27  2  0
  6 28  1  0
 28 29  2  0
 29  3  1  0
 15  7  2  0
 27 16  1  0
 14  9  1  0
  1 30  1  0
  1 31  1  0
  1 32  1  0
  4 33  1  0
  5 34  1  0
 10 35  1  0
 11 36  1  0
 12 37  1  0
 13 38  1  0
 17 39  1  0
 18 40  1  0
 21 41  1  0
 21 42  1  0
 22 43  1  0
 22 44  1  0
 24 45  1  0
 24 46  1  0
 24 47  1  0
 25 48  1  0
 25 49  1  0
 25 50  1  0
 26 51  1  0
 27 52  1  0
 28 53  1  0
 29 54  1  0
M  END
$$$$
