
     RDKit          3D

 48 51  0  0  0  0  0  0  0  0999 V2000
   -7.4261   -2.7217   -1.0111 C   0  0  0  0  0  0  0  0  0  0  0  0
   -6.3791   -1.6963   -0.6830 C   0  0  0  0  0  0  0  0  0  0  0  0
   -6.7580   -0.4988   -0.0883 C   0  0  0  0  0  0  0  0  0  0  0  0
   -5.7937    0.4728    0.2316 C   0  0  0  0  0  0  0  0  0  0  0  0
   -6.2451    1.7492    0.8847 C   0  0  0  0  0  0  0  0  0  0  0  0
   -4.4401    0.1771   -0.0961 C   0  0  0  0  0  0  0  0  0  0  0  0
   -3.1937    0.8926    0.0452 C   0  0  0  0  0  0  0  0  0  0  0  0
   -3.0844    2.1378    0.5677 N   0  0  0  0  0  0  0  0  0  0  0  0
   -2.0921    0.1816   -0.4040 C   0  0  0  0  0  0  0  0  0  0  0  0
   -0.6961    0.6082   -0.4185 C   0  0  0  0  0  0  0  0  0  0  0  0
   -0.3361    1.7413   -0.0876 O   0  0  0  0  0  0  0  0  0  0  0  0
    0.2276   -0.3463   -0.8510 N   0  0  0  0  0  0  0  0  0  0  0  0
    1.6036   -0.1699   -0.5420 N   0  0  0  0  0  0  0  0  0  0  0  0
    2.2665    0.8760   -1.3038 C   0  0  0  0  0  0  0  0  0  0  0  0
    3.7773    0.6525   -1.2751 C   0  0  0  0  0  0  0  0  0  0  0  0
    4.4711    1.0247   -2.2212 O   0  0  0  0  0  0  0  0  0  0  0  0
    4.2677    0.1377   -0.0592 N   0  0  0  0  0  0  0  0  0  0  0  0
    5.6766   -0.0787    0.1421 C   0  0  0  0  0  0  0  0  0  0  0  0
    6.4889   -0.5067   -0.9202 C   0  0  0  0  0  0  0  0  0  0  0  0
    7.8565   -0.7506   -0.7398 C   0  0  0  0  0  0  0  0  0  0  0  0
    8.4433   -0.5720    0.5091 C   0  0  0  0  0  0  0  0  0  0  0  0
    7.6615   -0.1462    1.5772 C   0  0  0  0  0  0  0  0  0  0  0  0
    6.2991    0.0950    1.3914 C   0  0  0  0  0  0  0  0  0  0  0  0
    5.6123    0.5565    2.4483 F   0  0  0  0  0  0  0  0  0  0  0  0
    3.3708    0.1370    1.1081 C   0  0  0  0  0  0  0  0  0  0  0  0
    1.9894   -0.4179    0.7702 C   0  0  0  0  0  0  0  0  0  0  0  0
    1.2618   -0.9590    1.6005 O   0  0  0  0  0  0  0  0  0  0  0  0
   -2.5589   -1.3496   -1.0087 S   0  0  0  0  0  0  0  0  0  0  0  0
   -4.2008   -1.0638   -0.6798 C   0  0  0  0  0  0  0  0  0  0  0  0
   -5.1083   -2.0109   -0.9887 N   0  0  0  0  0  0  0  0  0  0  0  0
   -8.1586   -2.3042   -1.7090 H   0  0  0  0  0  0  0  0  0  0  0  0
   -6.9759   -3.6040   -1.4777 H   0  0  0  0  0  0  0  0  0  0  0  0
   -7.9390   -3.0430   -0.0992 H   0  0  0  0  0  0  0  0  0  0  0  0
   -7.8075   -0.3209    0.1333 H   0  0  0  0  0  0  0  0  0  0  0  0
   -6.1125    2.5894    0.1964 H   0  0  0  0  0  0  0  0  0  0  0  0
   -7.3030    1.7084    1.1651 H   0  0  0  0  0  0  0  0  0  0  0  0
   -5.6739    1.9301    1.8004 H   0  0  0  0  0  0  0  0  0  0  0  0
   -3.8714    2.7717    0.6389 H   0  0  0  0  0  0  0  0  0  0  0  0
   -2.1857    2.6272    0.5273 H   0  0  0  0  0  0  0  0  0  0  0  0
   -0.0868   -1.3143   -0.8348 H   0  0  0  0  0  0  0  0  0  0  0  0
    2.0594    1.8572   -0.8659 H   0  0  0  0  0  0  0  0  0  0  0  0
    1.9230    0.8337   -2.3424 H   0  0  0  0  0  0  0  0  0  0  0  0
    6.0725   -0.6842   -1.9092 H   0  0  0  0  0  0  0  0  0  0  0  0
    8.4591   -1.0827   -1.5824 H   0  0  0  0  0  0  0  0  0  0  0  0
    9.5053   -0.7586    0.6467 H   0  0  0  0  0  0  0  0  0  0  0  0
    8.1028    0.0120    2.5565 H   0  0  0  0  0  0  0  0  0  0  0  0
    3.7661   -0.5291    1.8814 H   0  0  0  0  0  0  0  0  0  0  0  0
    3.2646    1.1599    1.4832 H   0  0  0  0  0  0  0  0  0  0  0  0
  1  2  1  0
  2  3  2  0
  3  4  1  0
  4  5  1  0
  4  6  2  0
  6  7  1  0
  7  8  1  0
  7  9  2  0
  9 10  1  0
 10 11  2  0
 10 12  1  0
 12 13  1  0
 13 14  1  0
 14 15  1  0
 15 16  2  0
 15 17  1  0
 17 18  1  0
 18 19  2  0
 19 20  1  0
 20 21  2  0
 21 22  1  0
 22 23  2  0
 23 24  1  0
 17 25  1  0
 25 26  1  0
 26 27  2  0
  9 28  1  0
 28 29  1  0
 29 30  2  0
 30  2  1  0
 29  6  1  0
 26 13  1  0
 23 18  1  0
  1 31  1  0
  1 32  1  0
  1 33  1  0
  3 34  1  0
  5 35  1  0
  5 36  1  0
  5 37  1  0
  8 38  1  0
  8 39  1  0
 12 40  1  0
 14 41  1  0
 14 42  1  0
 19 43  1  0
 20 44  1  0
 21 45  1  0
 22 46  1  0
 25 47  1  0
 25 48  1  0
M  END
$$$$
