
     RDKit          3D

 63 68  0  0  0  0  0  0  0  0999 V2000
   -2.6779    3.6738    4.7917 C   0  0  0  0  0  0  0  0  0  0  0  0
   -2.3641    2.3007    4.5981 O   0  0  0  0  0  0  0  0  0  0  0  0
   -2.2526    1.8672    3.3060 C   0  0  0  0  0  0  0  0  0  0  0  0
   -2.4403    2.6400    2.1611 C   0  0  0  0  0  0  0  0  0  0  0  0
   -2.2947    2.0673    0.8918 C   0  0  0  0  0  0  0  0  0  0  0  0
   -1.9507    0.7132    0.7461 C   0  0  0  0  0  0  0  0  0  0  0  0
   -1.8009    0.1009   -0.6479 C   0  0  0  0  0  0  0  0  0  0  0  0
   -2.9595   -0.8244   -0.9665 C   0  0  0  0  0  0  0  0  0  0  0  0
   -4.2619   -0.3285   -1.1093 C   0  0  0  0  0  0  0  0  0  0  0  0
   -5.3236   -1.1944   -1.3733 C   0  0  0  0  0  0  0  0  0  0  0  0
   -5.1121   -2.5746   -1.5007 C   0  0  0  0  0  0  0  0  0  0  0  0
   -6.1842   -3.4445   -1.7613 C   0  0  0  0  0  0  0  0  0  0  0  0
   -5.9774   -4.8180   -1.8899 C   0  0  0  0  0  0  0  0  0  0  0  0
   -4.6961   -5.3400   -1.7602 C   0  0  0  0  0  0  0  0  0  0  0  0
   -3.6210   -4.4881   -1.5012 C   0  0  0  0  0  0  0  0  0  0  0  0
   -3.8038   -3.0947   -1.3652 C   0  0  0  0  0  0  0  0  0  0  0  0
   -2.7391   -2.1989   -1.1044 C   0  0  0  0  0  0  0  0  0  0  0  0
   -1.4758   -2.7363   -0.9881 O   0  0  0  0  0  0  0  0  0  0  0  0
   -0.3575   -1.9085   -1.0046 C   0  0  0  0  0  0  0  0  0  0  0  0
    0.8325   -2.5915   -1.1768 N   0  0  0  0  0  0  0  0  0  0  0  0
    1.9051   -1.8751   -1.2466 C   0  0  0  0  0  0  0  0  0  0  0  0
    1.9633   -0.5095   -1.1600 N   0  0  0  0  0  0  0  0  0  0  0  0
    3.2631    0.1688   -1.1955 C   0  0  0  0  0  0  0  0  0  0  0  0
    3.8210    0.3446    0.2343 C   0  0  0  0  0  0  0  0  0  0  0  0
    5.1379    0.9825    0.3767 N   0  0  0  0  0  0  0  0  0  0  0  0
    6.2471    0.2908   -0.2989 C   0  0  0  0  0  0  0  0  0  0  0  0
    6.7929    1.0549   -1.5166 C   0  0  0  0  0  0  0  0  0  0  0  0
    7.2369    2.3817   -1.2071 O   0  0  0  0  0  0  0  0  0  0  0  0
    6.5457    2.9693   -0.0951 C   0  0  0  0  0  0  0  0  0  0  0  0
    5.1194    2.4247    0.0758 C   0  0  0  0  0  0  0  0  0  0  0  0
    0.8061    0.2157   -0.9275 C   0  0  0  0  0  0  0  0  0  0  0  0
    0.8586    1.5072   -0.7960 N   0  0  0  0  0  0  0  0  0  0  0  0
   -0.4708   -0.5705   -0.8449 C   0  0  0  0  0  0  0  0  0  0  0  0
   -1.7768   -0.0582    1.9052 C   0  0  0  0  0  0  0  0  0  0  0  0
   -1.9241    0.5178    3.1693 C   0  0  0  0  0  0  0  0  0  0  0  0
   -3.6615    3.9159    4.3757 H   0  0  0  0  0  0  0  0  0  0  0  0
   -1.9002    4.3202    4.3715 H   0  0  0  0  0  0  0  0  0  0  0  0
   -2.7179    3.8589    5.8694 H   0  0  0  0  0  0  0  0  0  0  0  0
   -2.7035    3.6908    2.2196 H   0  0  0  0  0  0  0  0  0  0  0  0
   -2.4567    2.6940    0.0170 H   0  0  0  0  0  0  0  0  0  0  0  0
   -1.8545    0.9053   -1.3965 H   0  0  0  0  0  0  0  0  0  0  0  0
   -4.4635    0.7352   -1.0039 H   0  0  0  0  0  0  0  0  0  0  0  0
   -6.3252   -0.7809   -1.4727 H   0  0  0  0  0  0  0  0  0  0  0  0
   -7.1949   -3.0559   -1.8662 H   0  0  0  0  0  0  0  0  0  0  0  0
   -6.8169   -5.4781   -2.0910 H   0  0  0  0  0  0  0  0  0  0  0  0
   -4.5284   -6.4092   -1.8597 H   0  0  0  0  0  0  0  0  0  0  0  0
   -2.6264   -4.9207   -1.4045 H   0  0  0  0  0  0  0  0  0  0  0  0
    2.8824   -2.3676   -1.3834 H   0  0  0  0  0  0  0  0  0  0  0  0
    3.1726    1.1341   -1.7055 H   0  0  0  0  0  0  0  0  0  0  0  0
    3.9629   -0.4172   -1.8034 H   0  0  0  0  0  0  0  0  0  0  0  0
    3.8771   -0.6439    0.7098 H   0  0  0  0  0  0  0  0  0  0  0  0
    3.0982    0.9023    0.8439 H   0  0  0  0  0  0  0  0  0  0  0  0
    5.9799   -0.7337   -0.5821 H   0  0  0  0  0  0  0  0  0  0  0  0
    7.0573    0.2020    0.4360 H   0  0  0  0  0  0  0  0  0  0  0  0
    6.0300    1.1284   -2.3002 H   0  0  0  0  0  0  0  0  0  0  0  0
    7.6446    0.5168   -1.9452 H   0  0  0  0  0  0  0  0  0  0  0  0
    6.5183    4.0510   -0.2622 H   0  0  0  0  0  0  0  0  0  0  0  0
    7.1418    2.7950    0.8085 H   0  0  0  0  0  0  0  0  0  0  0  0
    4.6190    2.9583    0.8911 H   0  0  0  0  0  0  0  0  0  0  0  0
    4.5673    2.6261   -0.8489 H   0  0  0  0  0  0  0  0  0  0  0  0
   -0.0533    1.9182   -0.5963 H   0  0  0  0  0  0  0  0  0  0  0  0
   -1.5303   -1.1164    1.8389 H   0  0  0  0  0  0  0  0  0  0  0  0
   -1.7835   -0.0942    4.0573 H   0  0  0  0  0  0  0  0  0  0  0  0
  1  2  1  0
  2  3  1  0
  3  4  2  0
  4  5  1  0
  5  6  2  0
  6  7  1  0
  7  8  1  0
  8  9  2  0
  9 10  1  0
 10 11  2  0
 11 12  1  0
 12 13  2  0
 13 14  1  0
 14 15  2  0
 15 16  1  0
 16 17  2  0
 17 18  1  0
 18 19  1  0
 19 20  1  0
 20 21  2  0
 21 22  1  0
 22 23  1  0
 23 24  1  0
 24 25  1  0
 25 26  1  0
 26 27  1  0
 27 28  1  0
 28 29  1  0
 29 30  1  0
 22 31  1  0
 31 32  2  3
 31 33  1  0
  6 34  1  0
 34 35  2  0
 35  3  1  0
 33  7  1  0
 17  8  1  0
 33 19  2  0
 16 11  1  0
 30 25  1  0
  1 36  1  0
  1 37  1  0
  1 38  1  0
  4 39  1  0
  5 40  1  0
  7 41  1  0
  9 42  1  0
 10 43  1  0
 12 44  1  0
 13 45  1  0
 14 46  1  0
 15 47  1  0
 21 48  1  0
 23 49  1  0
 23 50  1  0
 24 51  1  0
 24 52  1  0
 26 53  1  0
 26 54  1  0
 27 55  1  0
 27 56  1  0
 29 57  1  0
 29 58  1  0
 30 59  1  0
 30 60  1  0
 32 61  1  0
 34 62  1  0
 35 63  1  0
M  END
$$$$
