
     RDKit          3D

 70 72  0  0  0  0  0  0  0  0999 V2000
   -2.5031    3.3975   -1.0179 C   0  0  0  0  0  0  0  0  0  0  0  0
   -3.2123    2.3172   -0.1577 C   0  0  0  0  0  0  0  0  0  0  0  0
   -3.5223    2.9949    1.1967 C   0  0  0  0  0  0  0  0  0  0  0  0
   -4.5295    1.9828   -0.8900 C   0  0  0  0  0  0  0  0  0  0  0  0
   -2.3667    1.0370    0.0513 C   0  0  0  0  0  0  0  0  0  0  0  0
   -1.1216    0.8908   -0.5837 C   0  0  0  0  0  0  0  0  0  0  0  0
   -0.3069   -0.2366   -0.3906 C   0  0  0  0  0  0  0  0  0  0  0  0
    1.0452   -0.3850   -1.1088 C   0  0  0  0  0  0  0  0  0  0  0  0
    0.7982   -0.8701   -2.5353 C   0  0  0  0  0  0  0  0  0  0  0  0
    0.8989   -2.2290   -2.8622 C   0  0  0  0  0  0  0  0  0  0  0  0
    0.6495   -2.6511   -4.1652 C   0  0  0  0  0  0  0  0  0  0  0  0
    0.3005   -1.6997   -5.1083 C   0  0  0  0  0  0  0  0  0  0  0  0
    0.1870   -0.3832   -4.8378 N   0  0  0  0  0  0  0  0  0  0  0  0
    0.4309   -0.0014   -3.5616 C   0  0  0  0  0  0  0  0  0  0  0  0
    1.8962    0.8419   -1.0347 N   0  0  0  0  0  0  0  0  0  0  0  0
    3.2235    0.6510   -1.6741 C   0  0  0  0  0  0  0  0  0  0  0  0
    4.2036   -0.2556   -0.8898 C   0  0  0  0  0  0  0  0  0  0  0  0
    4.4289    0.1433    0.5176 N   0  0  0  0  0  0  0  0  0  0  0  0
    5.3191    1.3271    0.5890 C   0  0  0  0  0  0  0  0  0  0  0  0
    5.8797    1.5351    2.0056 C   0  0  0  0  0  0  0  0  0  0  0  0
    6.4047    0.3053    2.5022 O   0  0  0  0  0  0  0  0  0  0  0  0
    3.1196    0.3807    1.1669 C   0  0  0  0  0  0  0  0  0  0  0  0
    2.1430    1.2763    0.3642 C   0  0  0  0  0  0  0  0  0  0  0  0
   -0.7545   -1.2546    0.4664 C   0  0  0  0  0  0  0  0  0  0  0  0
   -1.9885   -1.1820    1.1356 C   0  0  0  0  0  0  0  0  0  0  0  0
   -2.4359   -2.3107    2.0968 C   0  0  0  0  0  0  0  0  0  0  0  0
   -1.3740   -3.4273    2.2823 C   0  0  0  0  0  0  0  0  0  0  0  0
   -2.7061   -1.7471    3.5106 C   0  0  0  0  0  0  0  0  0  0  0  0
   -3.7034   -3.0095    1.5589 C   0  0  0  0  0  0  0  0  0  0  0  0
   -2.7756   -0.0319    0.8843 C   0  0  0  0  0  0  0  0  0  0  0  0
   -4.0110    0.0382    1.4674 O   0  0  0  0  0  0  0  0  0  0  0  0
   -3.1247    4.2959   -1.1178 H   0  0  0  0  0  0  0  0  0  0  0  0
   -2.3023    3.0393   -2.0345 H   0  0  0  0  0  0  0  0  0  0  0  0
   -1.5546    3.7135   -0.5678 H   0  0  0  0  0  0  0  0  0  0  0  0
   -4.0348    3.9533    1.0502 H   0  0  0  0  0  0  0  0  0  0  0  0
   -4.1740    2.3936    1.8363 H   0  0  0  0  0  0  0  0  0  0  0  0
   -2.6008    3.1931    1.7569 H   0  0  0  0  0  0  0  0  0  0  0  0
   -4.3354    1.4412   -1.8232 H   0  0  0  0  0  0  0  0  0  0  0  0
   -5.0817    2.8954   -1.1444 H   0  0  0  0  0  0  0  0  0  0  0  0
   -5.2069    1.3722   -0.2881 H   0  0  0  0  0  0  0  0  0  0  0  0
   -0.7387    1.6664   -1.2411 H   0  0  0  0  0  0  0  0  0  0  0  0
    1.5881   -1.1882   -0.5945 H   0  0  0  0  0  0  0  0  0  0  0  0
    1.1657   -2.9632   -2.1064 H   0  0  0  0  0  0  0  0  0  0  0  0
    0.7212   -3.6979   -4.4383 H   0  0  0  0  0  0  0  0  0  0  0  0
    0.0950   -1.9800   -6.1372 H   0  0  0  0  0  0  0  0  0  0  0  0
    0.3302    1.0663   -3.3841 H   0  0  0  0  0  0  0  0  0  0  0  0
    3.6791    1.6431   -1.7937 H   0  0  0  0  0  0  0  0  0  0  0  0
    3.1277    0.2723   -2.6970 H   0  0  0  0  0  0  0  0  0  0  0  0
    3.8243   -1.2850   -0.8922 H   0  0  0  0  0  0  0  0  0  0  0  0
    5.1592   -0.3074   -1.4267 H   0  0  0  0  0  0  0  0  0  0  0  0
    6.1856    1.1411   -0.0588 H   0  0  0  0  0  0  0  0  0  0  0  0
    4.8403    2.2451    0.2329 H   0  0  0  0  0  0  0  0  0  0  0  0
    5.1116    1.8875    2.6998 H   0  0  0  0  0  0  0  0  0  0  0  0
    6.6879    2.2727    1.9923 H   0  0  0  0  0  0  0  0  0  0  0  0
    5.8268   -0.3845    2.1158 H   0  0  0  0  0  0  0  0  0  0  0  0
    2.6501   -0.5965    1.3363 H   0  0  0  0  0  0  0  0  0  0  0  0
    3.2520    0.8014    2.1694 H   0  0  0  0  0  0  0  0  0  0  0  0
    1.2102    1.3803    0.9279 H   0  0  0  0  0  0  0  0  0  0  0  0
    2.5472    2.2964    0.3262 H   0  0  0  0  0  0  0  0  0  0  0  0
   -0.1050   -2.1152    0.5980 H   0  0  0  0  0  0  0  0  0  0  0  0
   -0.4343   -3.0290    2.6829 H   0  0  0  0  0  0  0  0  0  0  0  0
   -1.1578   -3.9422    1.3388 H   0  0  0  0  0  0  0  0  0  0  0  0
   -1.7226   -4.1927    2.9867 H   0  0  0  0  0  0  0  0  0  0  0  0
   -2.9313   -2.5526    4.2199 H   0  0  0  0  0  0  0  0  0  0  0  0
   -3.5579   -1.0625    3.5425 H   0  0  0  0  0  0  0  0  0  0  0  0
   -1.8324   -1.2045    3.8907 H   0  0  0  0  0  0  0  0  0  0  0  0
   -3.9676   -3.8765    2.1762 H   0  0  0  0  0  0  0  0  0  0  0  0
   -3.5514   -3.3658    0.5332 H   0  0  0  0  0  0  0  0  0  0  0  0
   -4.5798   -2.3565    1.5544 H   0  0  0  0  0  0  0  0  0  0  0  0
   -4.6248   -0.3144    0.8003 H   0  0  0  0  0  0  0  0  0  0  0  0
  1  2  1  0
  2  3  1  0
  2  4  1  0
  2  5  1  0
  5  6  2  0
  6  7  1  0
  7  8  1  0
  8  9  1  0
  9 10  2  0
 10 11  1  0
 11 12  2  0
 12 13  1  0
 13 14  2  0
  8 15  1  0
 15 16  1  0
 16 17  1  0
 17 18  1  0
 18 19  1  0
 19 20  1  0
 20 21  1  0
 18 22  1  0
 22 23  1  0
  7 24  2  0
 24 25  1  0
 25 26  1  0
 26 27  1  0
 26 28  1  0
 26 29  1  0
 25 30  2  0
 30 31  1  0
 30  5  1  0
 14  9  1  0
 23 15  1  0
  1 32  1  0
  1 33  1  0
  1 34  1  0
  3 35  1  0
  3 36  1  0
  3 37  1  0
  4 38  1  0
  4 39  1  0
  4 40  1  0
  6 41  1  0
  8 42  1  0
 10 43  1  0
 11 44  1  0
 12 45  1  0
 14 46  1  0
 16 47  1  0
 16 48  1  0
 17 49  1  0
 17 50  1  0
 19 51  1  0
 19 52  1  0
 20 53  1  0
 20 54  1  0
 21 55  1  0
 22 56  1  0
 22 57  1  0
 23 58  1  0
 23 59  1  0
 24 60  1  0
 27 61  1  0
 27 62  1  0
 27 63  1  0
 28 64  1  0
 28 65  1  0
 28 66  1  0
 29 67  1  0
 29 68  1  0
 29 69  1  0
 31 70  1  0
M  END
$$$$
