
     RDKit          3D

 62 65  0  0  0  0  0  0  0  0999 V2000
    9.8384   -1.8926   -0.2139 C   0  0  0  0  0  0  0  0  0  0  0  0
    9.0418   -2.4043    0.9720 C   0  0  0  0  0  0  0  0  0  0  0  0
    7.7058   -1.8832    0.9328 O   0  0  0  0  0  0  0  0  0  0  0  0
    6.8017   -2.6119    0.2233 C   0  0  0  0  0  0  0  0  0  0  0  0
    7.0744   -3.6362   -0.3907 O   0  0  0  0  0  0  0  0  0  0  0  0
    5.5370   -2.0612    0.2687 N   0  0  0  0  0  0  0  0  0  0  0  0
    5.2252   -0.8550    1.0381 C   0  0  0  0  0  0  0  0  0  0  0  0
    3.7279   -0.7016    1.3316 C   0  0  0  0  0  0  0  0  0  0  0  0
    2.8899   -0.8286    0.1330 N   0  0  0  0  0  0  0  0  0  0  0  0
    1.6760   -0.1477    0.0959 C   0  0  0  0  0  0  0  0  0  0  0  0
    1.2932    0.5296    1.0513 O   0  0  0  0  0  0  0  0  0  0  0  0
    0.8406   -0.2872   -1.1846 C   0  0  0  0  0  0  0  0  0  0  0  0
   -0.2578    0.6196   -1.1529 O   0  0  0  0  0  0  0  0  0  0  0  0
   -1.3403    0.2517   -1.9053 C   0  0  0  0  0  0  0  0  0  0  0  0
   -1.2228   -0.2962   -3.1860 C   0  0  0  0  0  0  0  0  0  0  0  0
   -2.3661   -0.6153   -3.9192 C   0  0  0  0  0  0  0  0  0  0  0  0
   -3.6296   -0.3738   -3.3804 C   0  0  0  0  0  0  0  0  0  0  0  0
   -3.7548    0.1903   -2.1042 C   0  0  0  0  0  0  0  0  0  0  0  0
   -2.6075    0.5048   -1.3569 C   0  0  0  0  0  0  0  0  0  0  0  0
   -2.7626    1.1559   -0.0086 C   0  0  0  0  0  0  0  0  0  0  0  0
   -4.0721    0.7240    0.6375 C   0  0  0  0  0  0  0  0  0  0  0  0
   -5.2082    0.9375   -0.2529 N   0  0  0  0  0  0  0  0  0  0  0  0
   -6.5444    1.0712    0.3235 C   0  0  0  0  0  0  0  0  0  0  0  0
   -6.6650    2.1685    1.3474 C   0  0  0  0  0  0  0  0  0  0  0  0
   -6.8034    1.8751    2.7141 C   0  0  0  0  0  0  0  0  0  0  0  0
   -6.9033    2.9038    3.6547 C   0  0  0  0  0  0  0  0  0  0  0  0
   -6.8667    4.2349    3.2424 C   0  0  0  0  0  0  0  0  0  0  0  0
   -6.7306    4.5377    1.8881 C   0  0  0  0  0  0  0  0  0  0  0  0
   -6.6310    3.5088    0.9555 C   0  0  0  0  0  0  0  0  0  0  0  0
   -6.4991    3.8290   -0.3392 F   0  0  0  0  0  0  0  0  0  0  0  0
   -5.1215    0.4652   -1.5658 C   0  0  0  0  0  0  0  0  0  0  0  0
   -6.1010    0.2630   -2.2775 O   0  0  0  0  0  0  0  0  0  0  0  0
    3.3974   -1.6904   -0.9430 C   0  0  0  0  0  0  0  0  0  0  0  0
    4.4449   -2.7006   -0.4571 C   0  0  0  0  0  0  0  0  0  0  0  0
    9.3922   -2.2186   -1.1580 H   0  0  0  0  0  0  0  0  0  0  0  0
    9.8463   -0.7979   -0.2268 H   0  0  0  0  0  0  0  0  0  0  0  0
   10.8699   -2.2555   -0.1702 H   0  0  0  0  0  0  0  0  0  0  0  0
    9.4974   -2.0490    1.9033 H   0  0  0  0  0  0  0  0  0  0  0  0
    9.0420   -3.5008    1.0136 H   0  0  0  0  0  0  0  0  0  0  0  0
    5.7876   -0.8591    1.9786 H   0  0  0  0  0  0  0  0  0  0  0  0
    5.5773   -0.0049    0.4408 H   0  0  0  0  0  0  0  0  0  0  0  0
    3.4025   -1.4915    2.0208 H   0  0  0  0  0  0  0  0  0  0  0  0
    3.5460    0.2598    1.8245 H   0  0  0  0  0  0  0  0  0  0  0  0
    0.4904   -1.3262   -1.2336 H   0  0  0  0  0  0  0  0  0  0  0  0
    1.4727   -0.0445   -2.0461 H   0  0  0  0  0  0  0  0  0  0  0  0
   -0.2511   -0.4549   -3.6440 H   0  0  0  0  0  0  0  0  0  0  0  0
   -2.2726   -1.0352   -4.9177 H   0  0  0  0  0  0  0  0  0  0  0  0
   -4.5196   -0.6106   -3.9613 H   0  0  0  0  0  0  0  0  0  0  0  0
   -2.7476    2.2434   -0.1461 H   0  0  0  0  0  0  0  0  0  0  0  0
   -1.9400    0.8860    0.6632 H   0  0  0  0  0  0  0  0  0  0  0  0
   -4.2040    1.2856    1.5675 H   0  0  0  0  0  0  0  0  0  0  0  0
   -4.0485   -0.3458    0.8856 H   0  0  0  0  0  0  0  0  0  0  0  0
   -6.8046    0.0995    0.7643 H   0  0  0  0  0  0  0  0  0  0  0  0
   -7.2844    1.2554   -0.4651 H   0  0  0  0  0  0  0  0  0  0  0  0
   -6.8311    0.8417    3.0542 H   0  0  0  0  0  0  0  0  0  0  0  0
   -7.0091    2.6649    4.7105 H   0  0  0  0  0  0  0  0  0  0  0  0
   -6.9441    5.0343    3.9738 H   0  0  0  0  0  0  0  0  0  0  0  0
   -6.6984    5.5683    1.5514 H   0  0  0  0  0  0  0  0  0  0  0  0
    3.8422   -1.0230   -1.6917 H   0  0  0  0  0  0  0  0  0  0  0  0
    2.5672   -2.2213   -1.4179 H   0  0  0  0  0  0  0  0  0  0  0  0
    3.9815   -3.4095    0.2395 H   0  0  0  0  0  0  0  0  0  0  0  0
    4.8337   -3.2753   -1.3045 H   0  0  0  0  0  0  0  0  0  0  0  0
  1  2  1  0
  2  3  1  0
  3  4  1  0
  4  5  2  0
  4  6  1  0
  6  7  1  0
  7  8  1  0
  8  9  1  0
  9 10  1  0
 10 11  2  0
 10 12  1  0
 12 13  1  0
 13 14  1  0
 14 15  2  0
 15 16  1  0
 16 17  2  0
 17 18  1  0
 18 19  2  0
 19 20  1  0
 20 21  1  0
 21 22  1  0
 22 23  1  0
 23 24  1  0
 24 25  2  0
 25 26  1  0
 26 27  2  0
 27 28  1  0
 28 29  2  0
 29 30  1  0
 22 31  1  0
 31 32  2  0
  9 33  1  0
 33 34  1  0
 34  6  1  0
 19 14  1  0
 29 24  1  0
 31 18  1  0
  1 35  1  0
  1 36  1  0
  1 37  1  0
  2 38  1  0
  2 39  1  0
  7 40  1  0
  7 41  1  0
  8 42  1  0
  8 43  1  0
 12 44  1  0
 12 45  1  0
 15 46  1  0
 16 47  1  0
 17 48  1  0
 20 49  1  0
 20 50  1  0
 21 51  1  0
 21 52  1  0
 23 53  1  0
 23 54  1  0
 25 55  1  0
 26 56  1  0
 27 57  1  0
 28 58  1  0
 33 59  1  0
 33 60  1  0
 34 61  1  0
 34 62  1  0
M  END
$$$$
