
     RDKit          3D

 52 55  0  0  0  0  0  0  0  0999 V2000
    6.5382    2.5043   -2.5573 C   0  0  0  0  0  0  0  0  0  0  0  0
    6.4229    2.1430   -1.0843 C   0  0  0  0  0  0  0  0  0  0  0  0
    5.0948    1.5040   -0.7663 C   0  0  0  0  0  0  0  0  0  0  0  0
    3.9984    2.2928   -0.3980 C   0  0  0  0  0  0  0  0  0  0  0  0
    2.7634    1.7022   -0.1196 C   0  0  0  0  0  0  0  0  0  0  0  0
    2.6065    0.3147   -0.2116 C   0  0  0  0  0  0  0  0  0  0  0  0
    1.2827   -0.2791    0.0884 C   0  0  0  0  0  0  0  0  0  0  0  0
    0.2752    0.4146    0.5253 N   0  0  0  0  0  0  0  0  0  0  0  0
   -0.7774   -0.4442    0.6674 N   0  0  0  0  0  0  0  0  0  0  0  0
   -1.9669   -0.0224    1.2579 C   0  0  0  0  0  0  0  0  0  0  0  0
   -3.0553   -0.8873    1.4647 C   0  0  0  0  0  0  0  0  0  0  0  0
   -4.2436   -0.4479    2.0626 C   0  0  0  0  0  0  0  0  0  0  0  0
   -4.3567    0.8789    2.4716 C   0  0  0  0  0  0  0  0  0  0  0  0
   -5.8472    1.4529    3.2360 S   0  0  0  0  0  6  0  0  0  0  0  0
   -5.4132    1.4442    4.8646 N   0  0  0  0  0  0  0  0  0  0  0  0
   -6.8589    0.4292    3.1048 O   0  0  0  0  0  0  0  0  0  0  0  0
   -6.0694    2.8225    2.8400 O   0  0  0  0  0  0  0  0  0  0  0  0
   -3.3061    1.7702    2.2703 C   0  0  0  0  0  0  0  0  0  0  0  0
   -2.1265    1.3135    1.6739 C   0  0  0  0  0  0  0  0  0  0  0  0
   -0.4909   -1.7887    0.1624 C   0  0  0  0  0  0  0  0  0  0  0  0
   -1.2263   -2.1208   -1.1300 C   0  0  0  0  0  0  0  0  0  0  0  0
   -1.6147   -3.4498   -1.3807 C   0  0  0  0  0  0  0  0  0  0  0  0
   -2.2689   -3.7865   -2.5673 C   0  0  0  0  0  0  0  0  0  0  0  0
   -2.5327   -2.8006   -3.5099 C   0  0  0  0  0  0  0  0  0  0  0  0
   -3.1590   -3.1276   -4.6477 F   0  0  0  0  0  0  0  0  0  0  0  0
   -2.1533   -1.4833   -3.2902 C   0  0  0  0  0  0  0  0  0  0  0  0
   -1.4981   -1.1440   -2.1054 C   0  0  0  0  0  0  0  0  0  0  0  0
    1.0219   -1.7525   -0.0630 C   0  0  0  0  0  0  0  0  0  0  0  0
    3.6969   -0.4776   -0.5835 C   0  0  0  0  0  0  0  0  0  0  0  0
    4.9324    0.1160   -0.8615 C   0  0  0  0  0  0  0  0  0  0  0  0
    5.7581    3.2133   -2.8547 H   0  0  0  0  0  0  0  0  0  0  0  0
    6.4452    1.6169   -3.1925 H   0  0  0  0  0  0  0  0  0  0  0  0
    7.5102    2.9653   -2.7588 H   0  0  0  0  0  0  0  0  0  0  0  0
    7.2361    1.4621   -0.8048 H   0  0  0  0  0  0  0  0  0  0  0  0
    6.5562    3.0421   -0.4704 H   0  0  0  0  0  0  0  0  0  0  0  0
    4.0971    3.3740   -0.3260 H   0  0  0  0  0  0  0  0  0  0  0  0
    1.9249    2.3343    0.1662 H   0  0  0  0  0  0  0  0  0  0  0  0
   -3.0054   -1.9270    1.1546 H   0  0  0  0  0  0  0  0  0  0  0  0
   -5.0667   -1.1468    2.1947 H   0  0  0  0  0  0  0  0  0  0  0  0
   -5.9857    0.7531    5.3521 H   0  0  0  0  0  0  0  0  0  0  0  0
   -4.4168    1.2868    5.0119 H   0  0  0  0  0  0  0  0  0  0  0  0
   -3.3924    2.8143    2.5633 H   0  0  0  0  0  0  0  0  0  0  0  0
   -1.3138    2.0220    1.5217 H   0  0  0  0  0  0  0  0  0  0  0  0
   -0.7251   -2.5402    0.9271 H   0  0  0  0  0  0  0  0  0  0  0  0
   -1.4121   -4.2326   -0.6525 H   0  0  0  0  0  0  0  0  0  0  0  0
   -2.5744   -4.8094   -2.7636 H   0  0  0  0  0  0  0  0  0  0  0  0
   -2.3704   -0.7273   -4.0381 H   0  0  0  0  0  0  0  0  0  0  0  0
   -1.2088   -0.1064   -1.9409 H   0  0  0  0  0  0  0  0  0  0  0  0
    1.3392   -2.1299   -1.0388 H   0  0  0  0  0  0  0  0  0  0  0  0
    1.5502   -2.2855    0.7348 H   0  0  0  0  0  0  0  0  0  0  0  0
    3.6152   -1.5570   -0.6633 H   0  0  0  0  0  0  0  0  0  0  0  0
    5.7708   -0.5129   -1.1545 H   0  0  0  0  0  0  0  0  0  0  0  0
  1  2  1  0
  2  3  1  0
  3  4  2  0
  4  5  1  0
  5  6  2  0
  6  7  1  0
  7  8  2  0
  8  9  1  0
  9 10  1  0
 10 11  2  0
 11 12  1  0
 12 13  2  0
 13 14  1  0
 14 15  1  0
 14 16  2  0
 14 17  2  0
 13 18  1  0
 18 19  2  0
  9 20  1  0
 20 21  1  0
 21 22  2  0
 22 23  1  0
 23 24  2  0
 24 25  1  0
 24 26  1  0
 26 27  2  0
 20 28  1  0
  6 29  1  0
 29 30  2  0
 30  3  1  0
 28  7  1  0
 19 10  1  0
 27 21  1  0
  1 31  1  0
  1 32  1  0
  1 33  1  0
  2 34  1  0
  2 35  1  0
  4 36  1  0
  5 37  1  0
 11 38  1  0
 12 39  1  0
 15 40  1  0
 15 41  1  0
 18 42  1  0
 19 43  1  0
 20 44  1  0
 22 45  1  0
 23 46  1  0
 26 47  1  0
 27 48  1  0
 28 49  1  0
 28 50  1  0
 29 51  1  0
 30 52  1  0
M  END
$$$$
