
     RDKit          3D

 35 37  0  0  0  0  0  0  0  0999 V2000
    0.8993    0.7643   -2.7171 O   0  0  0  0  0  0  0  0  0  0  0  0
    1.7617    0.5223   -1.7369 C   0  0  0  0  0  0  0  0  0  0  0  0
    3.0874    0.7953   -1.9088 N   0  0  0  0  0  0  0  0  0  0  0  0
    3.7934    0.4691   -0.7744 C   0  0  0  0  0  0  0  0  0  0  0  0
    5.1622    0.5783   -0.5022 C   0  0  0  0  0  0  0  0  0  0  0  0
    5.6077    0.1630    0.7555 C   0  0  0  0  0  0  0  0  0  0  0  0
    4.7184   -0.3410    1.7011 C   0  0  0  0  0  0  0  0  0  0  0  0
    3.3521   -0.4437    1.4134 C   0  0  0  0  0  0  0  0  0  0  0  0
    2.8740   -0.0315    0.1511 C   0  0  0  0  0  0  0  0  0  0  0  0
    1.5833    0.0059   -0.4674 C   0  0  0  0  0  0  0  0  0  0  0  0
    0.3144   -0.4053    0.0946 C   0  0  0  0  0  0  0  0  0  0  0  0
   -0.7474   -0.2919   -0.6406 N   0  0  0  0  0  0  0  0  0  0  0  0
   -1.9636   -0.6547   -0.1024 N   0  0  0  0  0  0  0  0  0  0  0  0
   -3.0816   -0.6253   -1.0528 C   0  0  0  0  0  0  0  0  0  0  0  0
   -4.0528    0.4993   -0.7206 C   0  0  0  0  0  0  0  0  0  0  0  0
   -4.6302    0.3501    0.6905 C   0  0  0  0  0  0  0  0  0  0  0  0
   -3.7638   -0.5183    1.6059 C   0  0  0  0  0  0  0  0  0  0  0  0
   -2.2781   -0.3519    1.3016 C   0  0  0  0  0  0  0  0  0  0  0  0
    0.0233    0.4838   -2.3660 H   0  0  0  0  0  0  0  0  0  0  0  0
    3.4799    1.1811   -2.7546 H   0  0  0  0  0  0  0  0  0  0  0  0
    5.8576    0.9702   -1.2375 H   0  0  0  0  0  0  0  0  0  0  0  0
    6.6658    0.2347    0.9976 H   0  0  0  0  0  0  0  0  0  0  0  0
    5.0879   -0.6590    2.6730 H   0  0  0  0  0  0  0  0  0  0  0  0
    2.6736   -0.8403    2.1627 H   0  0  0  0  0  0  0  0  0  0  0  0
    0.3149   -0.8067    1.1199 H   0  0  0  0  0  0  0  0  0  0  0  0
   -2.6926   -0.5177   -2.0717 H   0  0  0  0  0  0  0  0  0  0  0  0
   -3.5834   -1.5980   -0.9944 H   0  0  0  0  0  0  0  0  0  0  0  0
   -3.5268    1.4602   -0.7893 H   0  0  0  0  0  0  0  0  0  0  0  0
   -4.8666    0.5317   -1.4533 H   0  0  0  0  0  0  0  0  0  0  0  0
   -4.7526    1.3475    1.1297 H   0  0  0  0  0  0  0  0  0  0  0  0
   -5.6349   -0.0863    0.6375 H   0  0  0  0  0  0  0  0  0  0  0  0
   -3.9684   -0.2734    2.6540 H   0  0  0  0  0  0  0  0  0  0  0  0
   -4.0433   -1.5708    1.4684 H   0  0  0  0  0  0  0  0  0  0  0  0
   -1.9743    0.6824    1.5016 H   0  0  0  0  0  0  0  0  0  0  0  0
   -1.6967   -1.0235    1.9404 H   0  0  0  0  0  0  0  0  0  0  0  0
  1  2  1  0
  2  3  1  0
  3  4  1  0
  4  5  2  0
  5  6  1  0
  6  7  2  0
  7  8  1  0
  8  9  2  0
  9 10  1  0
 10 11  1  0
 11 12  2  3
 12 13  1  0
 13 14  1  0
 14 15  1  0
 15 16  1  0
 16 17  1  0
 17 18  1  0
 10  2  2  0
 18 13  1  0
  9  4  1  0
  1 19  1  0
  3 20  1  0
  5 21  1  0
  6 22  1  0
  7 23  1  0
  8 24  1  0
 11 25  1  0
 14 26  1  0
 14 27  1  0
 15 28  1  0
 15 29  1  0
 16 30  1  0
 16 31  1  0
 17 32  1  0
 17 33  1  0
 18 34  1  0
 18 35  1  0
M  END
$$$$
