
     RDKit          3D

 44 46  0  0  0  0  0  0  0  0999 V2000
    2.3014    1.0229    1.4024 O   0  0  0  0  0  0  0  0  0  0  0  0
    1.8983    1.2912    0.2709 C   0  0  0  0  0  0  0  0  0  0  0  0
    0.4292    1.4339   -0.1090 C   0  0  0  0  0  0  0  0  0  0  0  0
   -0.4099    1.0508    0.9800 O   0  0  0  0  0  0  0  0  0  0  0  0
   -1.7373    1.2397    0.7472 C   0  0  0  0  0  0  0  0  0  0  0  0
   -2.1976    1.7509   -0.2656 O   0  0  0  0  0  0  0  0  0  0  0  0
   -2.5450    0.7970    1.9571 C   0  0  0  0  0  0  0  0  0  0  0  0
   -3.9207    0.5235    1.5669 N   0  0  0  0  0  0  0  0  0  0  0  0
   -4.8718    1.5105    1.6475 C   0  0  0  0  0  0  0  0  0  0  0  0
   -6.1102    1.3730    1.3138 N   0  0  0  0  0  0  0  0  0  0  0  0
   -6.5128    0.1262    0.8122 C   0  0  0  0  0  0  0  0  0  0  0  0
   -7.8498   -0.0571    0.4529 C   0  0  0  0  0  0  0  0  0  0  0  0
   -8.2887   -1.2828   -0.0568 C   0  0  0  0  0  0  0  0  0  0  0  0
   -7.3903   -2.3387   -0.2130 C   0  0  0  0  0  0  0  0  0  0  0  0
   -6.0524   -2.1700    0.1412 C   0  0  0  0  0  0  0  0  0  0  0  0
   -5.6247   -0.9391    0.6519 C   0  0  0  0  0  0  0  0  0  0  0  0
   -4.2184   -0.7238    1.0404 C   0  0  0  0  0  0  0  0  0  0  0  0
   -3.3849   -1.6127    0.8880 O   0  0  0  0  0  0  0  0  0  0  0  0
    2.7647    1.5170   -0.7867 N   0  0  0  0  0  0  0  0  0  0  0  0
    4.1163    1.1693   -0.5794 N   0  0  0  0  0  0  0  0  0  0  0  0
    4.7348    0.4721   -1.6021 C   0  0  0  0  0  0  0  0  0  0  0  0
    4.2064    0.3185   -2.7012 O   0  0  0  0  0  0  0  0  0  0  0  0
    6.0656   -0.1238   -1.2991 C   0  0  0  0  0  0  0  0  0  0  0  0
    6.8813    0.3535   -0.2635 C   0  0  0  0  0  0  0  0  0  0  0  0
    8.1250   -0.2395   -0.0219 C   0  0  0  0  0  0  0  0  0  0  0  0
    8.5552   -1.3014   -0.8169 C   0  0  0  0  0  0  0  0  0  0  0  0
   10.2369   -2.0982   -0.4869 Br  0  0  0  0  0  0  0  0  0  0  0  0
    7.7577   -1.7746   -1.8570 C   0  0  0  0  0  0  0  0  0  0  0  0
    6.5153   -1.1831   -2.1001 C   0  0  0  0  0  0  0  0  0  0  0  0
    0.2272    0.7854   -0.9692 H   0  0  0  0  0  0  0  0  0  0  0  0
    0.2534    2.4840   -0.3700 H   0  0  0  0  0  0  0  0  0  0  0  0
   -2.5172    1.5992    2.7015 H   0  0  0  0  0  0  0  0  0  0  0  0
   -2.1003   -0.1107    2.3783 H   0  0  0  0  0  0  0  0  0  0  0  0
   -4.5085    2.4744    2.0385 H   0  0  0  0  0  0  0  0  0  0  0  0
   -8.5520    0.7645    0.5699 H   0  0  0  0  0  0  0  0  0  0  0  0
   -9.3325   -1.4103   -0.3336 H   0  0  0  0  0  0  0  0  0  0  0  0
   -7.7323   -3.2910   -0.6113 H   0  0  0  0  0  0  0  0  0  0  0  0
   -5.3486   -2.9900    0.0199 H   0  0  0  0  0  0  0  0  0  0  0  0
    2.4468    1.4037   -1.7515 H   0  0  0  0  0  0  0  0  0  0  0  0
    4.3669    1.0005    0.3952 H   0  0  0  0  0  0  0  0  0  0  0  0
    6.5825    1.1980    0.3514 H   0  0  0  0  0  0  0  0  0  0  0  0
    8.7525    0.1381    0.7821 H   0  0  0  0  0  0  0  0  0  0  0  0
    8.0913   -2.5976   -2.4841 H   0  0  0  0  0  0  0  0  0  0  0  0
    5.8974   -1.5535   -2.9166 H   0  0  0  0  0  0  0  0  0  0  0  0
  1  2  2  0
  2  3  1  0
  3  4  1  0
  4  5  1  0
  5  6  2  0
  5  7  1  0
  7  8  1  0
  8  9  1  0
  9 10  2  0
 10 11  1  0
 11 12  2  0
 12 13  1  0
 13 14  2  0
 14 15  1  0
 15 16  2  0
 16 17  1  0
 17 18  2  0
  2 19  1  0
 19 20  1  0
 20 21  1  0
 21 22  2  0
 21 23  1  0
 23 24  2  0
 24 25  1  0
 25 26  2  0
 26 27  1  0
 26 28  1  0
 28 29  2  0
 17  8  1  0
 29 23  1  0
 16 11  1  0
  3 30  1  0
  3 31  1  0
  7 32  1  0
  7 33  1  0
  9 34  1  0
 12 35  1  0
 13 36  1  0
 14 37  1  0
 15 38  1  0
 19 39  1  0
 20 40  1  0
 24 41  1  0
 25 42  1  0
 28 43  1  0
 29 44  1  0
M  END
$$$$
