
     RDKit          3D

 46 48  0  0  0  0  0  0  0  0999 V2000
   -1.0030    0.5403    1.2433 O   0  0  0  0  0  0  0  0  0  0  0  0
   -0.6612    0.0684    0.1656 C   0  0  0  0  0  0  0  0  0  0  0  0
    0.7984   -0.1427   -0.2001 C   0  0  0  0  0  0  0  0  0  0  0  0
    1.7232    0.1674    0.9806 C   0  0  0  0  0  0  0  0  0  0  0  0
    3.1439   -0.0783    0.6341 N   0  0  0  0  0  0  0  0  0  0  0  0
    3.9228   -0.2442    1.8789 C   0  0  0  0  0  0  0  0  0  0  0  0
    5.3040   -0.8774    1.6919 C   0  0  0  0  0  0  0  0  0  0  0  0
    6.2449   -0.1602    0.7267 C   0  0  0  0  0  0  0  0  0  0  0  0
    5.8227   -0.3317   -0.7276 C   0  0  0  0  0  0  0  0  0  0  0  0
    4.7118    0.6044   -1.1946 C   0  0  0  0  0  0  0  0  0  0  0  0
    3.6863    1.0454   -0.1513 C   0  0  0  0  0  0  0  0  0  0  0  0
   -1.4998   -0.3201   -0.8684 N   0  0  0  0  0  0  0  0  0  0  0  0
   -2.9090   -0.2642   -0.9036 C   0  0  0  0  0  0  0  0  0  0  0  0
   -3.5334   -0.7270   -2.0716 C   0  0  0  0  0  0  0  0  0  0  0  0
   -4.9253   -0.7020   -2.1974 C   0  0  0  0  0  0  0  0  0  0  0  0
   -5.7043   -0.2105   -1.1559 C   0  0  0  0  0  0  0  0  0  0  0  0
   -5.0934    0.2274    0.0219 C   0  0  0  0  0  0  0  0  0  0  0  0
   -3.7010    0.2149    0.1424 C   0  0  0  0  0  0  0  0  0  0  0  0
   -5.8009    0.6933    1.1022 O   0  0  0  0  0  0  0  0  0  0  0  0
   -7.1853    0.3406    1.0118 C   0  0  0  0  0  0  0  0  0  0  0  0
   -7.7193    0.6259   -0.3817 C   0  0  0  0  0  0  0  0  0  0  0  0
   -7.0607   -0.1943   -1.3541 O   0  0  0  0  0  0  0  0  0  0  0  0
    0.9311   -1.1873   -0.5078 H   0  0  0  0  0  0  0  0  0  0  0  0
    1.0198    0.4980   -1.0604 H   0  0  0  0  0  0  0  0  0  0  0  0
    1.4201   -0.4970    1.8011 H   0  0  0  0  0  0  0  0  0  0  0  0
    1.5785    1.1934    1.3444 H   0  0  0  0  0  0  0  0  0  0  0  0
    4.0164    0.7093    2.4160 H   0  0  0  0  0  0  0  0  0  0  0  0
    3.3833   -0.9184    2.5576 H   0  0  0  0  0  0  0  0  0  0  0  0
    5.7888   -0.9153    2.6759 H   0  0  0  0  0  0  0  0  0  0  0  0
    5.1829   -1.9216    1.3755 H   0  0  0  0  0  0  0  0  0  0  0  0
    6.3489    0.8985    0.9895 H   0  0  0  0  0  0  0  0  0  0  0  0
    7.2398   -0.6087    0.8424 H   0  0  0  0  0  0  0  0  0  0  0  0
    6.6948   -0.1693   -1.3737 H   0  0  0  0  0  0  0  0  0  0  0  0
    5.5165   -1.3712   -0.9013 H   0  0  0  0  0  0  0  0  0  0  0  0
    4.1928    0.1278   -2.0364 H   0  0  0  0  0  0  0  0  0  0  0  0
    5.1737    1.5114   -1.6063 H   0  0  0  0  0  0  0  0  0  0  0  0
    2.8931    1.5596   -0.7081 H   0  0  0  0  0  0  0  0  0  0  0  0
    4.1121    1.8232    0.4966 H   0  0  0  0  0  0  0  0  0  0  0  0
   -1.0509   -0.6941   -1.6955 H   0  0  0  0  0  0  0  0  0  0  0  0
   -2.9475   -1.1104   -2.9029 H   0  0  0  0  0  0  0  0  0  0  0  0
   -5.3983   -1.0552   -3.1093 H   0  0  0  0  0  0  0  0  0  0  0  0
   -3.2688    0.5763    1.0695 H   0  0  0  0  0  0  0  0  0  0  0  0
   -7.7281    0.9340    1.7542 H   0  0  0  0  0  0  0  0  0  0  0  0
   -7.2939   -0.7189    1.2751 H   0  0  0  0  0  0  0  0  0  0  0  0
   -7.5768    1.6778   -0.6591 H   0  0  0  0  0  0  0  0  0  0  0  0
   -8.7897    0.4023   -0.4301 H   0  0  0  0  0  0  0  0  0  0  0  0
  1  2  2  0
  2  3  1  0
  3  4  1  0
  4  5  1  0
  5  6  1  0
  6  7  1  0
  7  8  1  0
  8  9  1  0
  9 10  1  0
 10 11  1  0
  2 12  1  0
 12 13  1  0
 13 14  2  0
 14 15  1  0
 15 16  2  0
 16 17  1  0
 17 18  2  0
 17 19  1  0
 19 20  1  0
 20 21  1  0
 21 22  1  0
 11  5  1  0
 18 13  1  0
 22 16  1  0
  3 23  1  0
  3 24  1  0
  4 25  1  0
  4 26  1  0
  6 27  1  0
  6 28  1  0
  7 29  1  0
  7 30  1  0
  8 31  1  0
  8 32  1  0
  9 33  1  0
  9 34  1  0
 10 35  1  0
 10 36  1  0
 11 37  1  0
 11 38  1  0
 12 39  1  0
 14 40  1  0
 15 41  1  0
 18 42  1  0
 20 43  1  0
 20 44  1  0
 21 45  1  0
 21 46  1  0
M  END
$$$$
