
     RDKit          3D

 44 46  0  0  0  0  0  0  0  0999 V2000
    4.7985   -0.2013   -3.8537 C   0  0  0  0  0  0  0  0  0  0  0  0
    4.1335   -0.1173   -2.5091 C   0  0  0  0  0  0  0  0  0  0  0  0
    4.5939   -0.8806   -1.4281 C   0  0  0  0  0  0  0  0  0  0  0  0
    3.9632   -0.7984   -0.1819 C   0  0  0  0  0  0  0  0  0  0  0  0
    2.8615    0.0503   -0.0061 C   0  0  0  0  0  0  0  0  0  0  0  0
    2.1498    0.1711    1.2932 C   0  0  0  0  0  0  0  0  0  0  0  0
    1.3353    1.0479    1.5433 O   0  0  0  0  0  0  0  0  0  0  0  0
    2.4893   -0.8466    2.1236 O   0  0  0  0  0  0  0  0  0  0  0  0
    1.7578   -0.8928    3.3519 C   0  0  0  0  0  0  0  0  0  0  0  0
    0.3387   -1.4283    3.1542 C   0  0  0  0  0  0  0  0  0  0  0  0
    0.0606   -2.6162    3.2738 O   0  0  0  0  0  0  0  0  0  0  0  0
   -0.5907   -0.4663    2.8158 N   0  0  0  0  0  0  0  0  0  0  0  0
   -1.9196   -0.8386    2.3516 C   0  0  0  0  0  0  0  0  0  0  0  0
   -1.9149   -1.1447    0.8422 C   0  0  0  0  0  0  0  0  0  0  0  0
   -3.2061   -1.8013    0.3645 C   0  0  0  0  0  0  0  0  0  0  0  0
   -4.3420   -0.9472    0.5461 O   0  0  0  0  0  0  0  0  0  0  0  0
   -4.0810    0.3293    0.1156 C   0  0  0  0  0  0  0  0  0  0  0  0
   -5.1825    1.1666   -0.0645 C   0  0  0  0  0  0  0  0  0  0  0  0
   -4.9937    2.4849   -0.4865 C   0  0  0  0  0  0  0  0  0  0  0  0
   -3.7041    2.9637   -0.7312 C   0  0  0  0  0  0  0  0  0  0  0  0
   -2.6006    2.1272   -0.5455 C   0  0  0  0  0  0  0  0  0  0  0  0
   -2.7874    0.8134   -0.1088 C   0  0  0  0  0  0  0  0  0  0  0  0
   -1.6548    0.0636    0.0984 O   0  0  0  0  0  0  0  0  0  0  0  0
    2.3992    0.8147   -1.0856 C   0  0  0  0  0  0  0  0  0  0  0  0
    3.0299    0.7284   -2.3298 C   0  0  0  0  0  0  0  0  0  0  0  0
    4.1110   -0.6221   -4.5901 H   0  0  0  0  0  0  0  0  0  0  0  0
    5.1164    0.7954   -4.1819 H   0  0  0  0  0  0  0  0  0  0  0  0
    5.6846   -0.8387   -3.8192 H   0  0  0  0  0  0  0  0  0  0  0  0
    5.4474   -1.5462   -1.5475 H   0  0  0  0  0  0  0  0  0  0  0  0
    4.3427   -1.4008    0.6406 H   0  0  0  0  0  0  0  0  0  0  0  0
    1.7405    0.0902    3.8434 H   0  0  0  0  0  0  0  0  0  0  0  0
    2.2837   -1.5734    4.0312 H   0  0  0  0  0  0  0  0  0  0  0  0
   -0.2137    0.4069    2.4380 H   0  0  0  0  0  0  0  0  0  0  0  0
   -2.2597   -1.7132    2.9194 H   0  0  0  0  0  0  0  0  0  0  0  0
   -2.5699    0.0098    2.5937 H   0  0  0  0  0  0  0  0  0  0  0  0
   -1.0849   -1.8242    0.6144 H   0  0  0  0  0  0  0  0  0  0  0  0
   -3.1371   -2.0593   -0.7022 H   0  0  0  0  0  0  0  0  0  0  0  0
   -3.3948   -2.7298    0.9186 H   0  0  0  0  0  0  0  0  0  0  0  0
   -6.1867    0.7917    0.1226 H   0  0  0  0  0  0  0  0  0  0  0  0
   -5.8513    3.1364   -0.6230 H   0  0  0  0  0  0  0  0  0  0  0  0
   -3.5582    3.9936   -1.0592 H   0  0  0  0  0  0  0  0  0  0  0  0
   -1.5965    2.5045   -0.7199 H   0  0  0  0  0  0  0  0  0  0  0  0
    1.5397    1.4733   -0.9655 H   0  0  0  0  0  0  0  0  0  0  0  0
    2.6533    1.3244   -3.1600 H   0  0  0  0  0  0  0  0  0  0  0  0
  1  2  1  0
  2  3  2  0
  3  4  1  0
  4  5  2  0
  5  6  1  0
  6  7  2  0
  6  8  1  0
  8  9  1  0
  9 10  1  0
 10 11  2  0
 10 12  1  0
 12 13  1  0
 13 14  1  0
 14 15  1  0
 15 16  1  0
 16 17  1  0
 17 18  2  0
 18 19  1  0
 19 20  2  0
 20 21  1  0
 21 22  2  0
 22 23  1  0
  5 24  1  0
 24 25  2  0
 25  2  1  0
 23 14  1  0
 22 17  1  0
  1 26  1  0
  1 27  1  0
  1 28  1  0
  3 29  1  0
  4 30  1  0
  9 31  1  0
  9 32  1  0
 12 33  1  0
 13 34  1  0
 13 35  1  0
 14 36  1  0
 15 37  1  0
 15 38  1  0
 18 39  1  0
 19 40  1  0
 20 41  1  0
 21 42  1  0
 24 43  1  0
 25 44  1  0
M  END
$$$$
