
     RDKit          3D

 49 52  0  0  0  0  0  0  0  0999 V2000
   -3.7058    4.4404   -0.2297 C   0  0  0  0  0  0  0  0  0  0  0  0
   -3.0448    3.2220    0.3894 C   0  0  0  0  0  0  0  0  0  0  0  0
   -2.7617    2.2952   -0.6582 O   0  0  0  0  0  0  0  0  0  0  0  0
   -2.2180    1.0944   -0.2972 C   0  0  0  0  0  0  0  0  0  0  0  0
   -2.0700    0.1833   -1.3458 C   0  0  0  0  0  0  0  0  0  0  0  0
   -1.5159   -1.0791   -1.1224 C   0  0  0  0  0  0  0  0  0  0  0  0
   -1.1022   -1.4432    0.1629 C   0  0  0  0  0  0  0  0  0  0  0  0
   -0.4442   -2.7233    0.3907 C   0  0  0  0  0  0  0  0  0  0  0  0
    0.9010   -3.0224    0.6023 C   0  0  0  0  0  0  0  0  0  0  0  0
    2.0835   -2.1529    0.6517 C   0  0  0  0  0  0  0  0  0  0  0  0
    3.1229   -2.5280    1.1900 O   0  0  0  0  0  0  0  0  0  0  0  0
    1.9379   -0.9097    0.0439 N   0  0  0  0  0  0  0  0  0  0  0  0
    2.9600   -0.0040    0.0645 N   0  0  0  0  0  0  0  0  0  0  0  0
    2.7105    1.1254   -0.5183 C   0  0  0  0  0  0  0  0  0  0  0  0
    3.7119    2.2077   -0.5800 C   0  0  0  0  0  0  0  0  0  0  0  0
    4.9792    2.0444   -0.0132 C   0  0  0  0  0  0  0  0  0  0  0  0
    5.9085    3.0829   -0.0843 C   0  0  0  0  0  0  0  0  0  0  0  0
    5.5720    4.2789   -0.7192 C   0  0  0  0  0  0  0  0  0  0  0  0
    4.3063    4.4407   -1.2847 C   0  0  0  0  0  0  0  0  0  0  0  0
    3.3723    3.4052   -1.2167 C   0  0  0  0  0  0  0  0  0  0  0  0
    1.0249   -4.3729    0.8084 N   0  0  0  0  0  0  0  0  0  0  0  0
   -0.1685   -4.9283    0.7191 N   0  0  0  0  0  0  0  0  0  0  0  0
   -1.0972   -3.9579    0.5030 N   0  0  0  0  0  0  0  0  0  0  0  0
   -2.4809   -4.2650    0.4462 C   0  0  0  0  0  0  0  0  0  0  0  0
   -3.3995   -3.3081    0.3098 N   0  0  0  0  0  0  0  0  0  0  0  0
   -4.6115   -3.9959    0.3193 O   0  0  0  0  0  0  0  0  0  0  0  0
   -4.4140   -5.3646    0.4650 N   0  0  0  0  0  0  0  0  0  0  0  0
   -3.0938   -5.5293    0.5371 C   0  0  0  0  0  0  0  0  0  0  0  0
   -2.4829   -6.7217    0.6705 N   0  0  0  0  0  0  0  0  0  0  0  0
   -1.2487   -0.5311    1.2139 C   0  0  0  0  0  0  0  0  0  0  0  0
   -1.8059    0.7320    0.9847 C   0  0  0  0  0  0  0  0  0  0  0  0
   -3.0490    4.8971   -0.9776 H   0  0  0  0  0  0  0  0  0  0  0  0
   -4.6288    4.1573   -0.7465 H   0  0  0  0  0  0  0  0  0  0  0  0
   -3.9431    5.1859    0.5344 H   0  0  0  0  0  0  0  0  0  0  0  0
   -2.1158    3.5310    0.8822 H   0  0  0  0  0  0  0  0  0  0  0  0
   -3.7291    2.7757    1.1203 H   0  0  0  0  0  0  0  0  0  0  0  0
   -2.3962    0.4591   -2.3465 H   0  0  0  0  0  0  0  0  0  0  0  0
   -1.4142   -1.7662   -1.9599 H   0  0  0  0  0  0  0  0  0  0  0  0
    1.0896   -0.6650   -0.4481 H   0  0  0  0  0  0  0  0  0  0  0  0
    1.7334    1.3299   -0.9930 H   0  0  0  0  0  0  0  0  0  0  0  0
    5.2477    1.1137    0.4828 H   0  0  0  0  0  0  0  0  0  0  0  0
    6.8949    2.9572    0.3556 H   0  0  0  0  0  0  0  0  0  0  0  0
    6.2988    5.0860   -0.7734 H   0  0  0  0  0  0  0  0  0  0  0  0
    4.0496    5.3746   -1.7788 H   0  0  0  0  0  0  0  0  0  0  0  0
    2.3907    3.5444   -1.6612 H   0  0  0  0  0  0  0  0  0  0  0  0
   -3.0339   -7.5315    0.9358 H   0  0  0  0  0  0  0  0  0  0  0  0
   -1.4965   -6.7841    0.9212 H   0  0  0  0  0  0  0  0  0  0  0  0
   -0.9251   -0.7883    2.2214 H   0  0  0  0  0  0  0  0  0  0  0  0
   -1.8983    1.4083    1.8286 H   0  0  0  0  0  0  0  0  0  0  0  0
  1  2  1  0
  2  3  1  0
  3  4  1  0
  4  5  2  0
  5  6  1  0
  6  7  2  0
  7  8  1  0
  8  9  2  0
  9 10  1  0
 10 11  2  0
 10 12  1  0
 12 13  1  0
 13 14  2  3
 14 15  1  0
 15 16  2  0
 16 17  1  0
 17 18  2  0
 18 19  1  0
 19 20  2  0
  9 21  1  0
 21 22  2  0
 22 23  1  0
 23 24  1  0
 24 25  2  0
 25 26  1  0
 26 27  1  0
 27 28  2  0
 28 29  1  0
  7 30  1  0
 30 31  2  0
 31  4  1  0
 23  8  1  0
 28 24  1  0
 20 15  1  0
  1 32  1  0
  1 33  1  0
  1 34  1  0
  2 35  1  0
  2 36  1  0
  5 37  1  0
  6 38  1  0
 12 39  1  0
 14 40  1  0
 16 41  1  0
 17 42  1  0
 18 43  1  0
 19 44  1  0
 20 45  1  0
 29 46  1  0
 29 47  1  0
 30 48  1  0
 31 49  1  0
M  END
$$$$
