
     RDKit          3D

 45 46  0  0  0  0  0  0  0  0999 V2000
    6.5712   -1.2863   -2.0298 C   0  0  0  0  0  0  0  0  0  0  0  0
    5.1540   -1.2920   -2.1476 O   0  0  0  0  0  0  0  0  0  0  0  0
    4.4483   -0.4472   -1.3278 C   0  0  0  0  0  0  0  0  0  0  0  0
    4.9998    0.2584   -0.2541 C   0  0  0  0  0  0  0  0  0  0  0  0
    4.2071    1.1221    0.5071 C   0  0  0  0  0  0  0  0  0  0  0  0
    2.8553    1.2879    0.2040 C   0  0  0  0  0  0  0  0  0  0  0  0
    2.2670    0.5735   -0.8496 C   0  0  0  0  0  0  0  0  0  0  0  0
    0.8474    0.7683   -1.1921 C   0  0  0  0  0  0  0  0  0  0  0  0
   -0.1361    0.8633   -0.2825 C   0  0  0  0  0  0  0  0  0  0  0  0
   -1.5398    1.0606   -0.7323 C   0  0  0  0  0  0  0  0  0  0  0  0
   -1.7806    1.5274   -1.8452 O   0  0  0  0  0  0  0  0  0  0  0  0
   -2.5358    0.7145    0.1666 N   0  0  0  0  0  0  0  0  0  0  0  0
   -3.9201    1.0091   -0.1972 C   0  0  0  0  0  0  0  0  0  0  0  0
   -4.8525    1.1213    1.0179 C   0  0  0  0  0  0  0  0  0  0  0  0
   -4.6294    2.4107    1.8047 C   0  0  0  0  0  0  0  0  0  0  0  0
   -4.7882    0.0129    1.9271 O   0  0  0  0  0  0  0  0  0  0  0  0
   -3.5879   -0.7680    1.9012 C   0  0  0  0  0  0  0  0  0  0  0  0
   -3.8367   -2.0452    1.1000 C   0  0  0  0  0  0  0  0  0  0  0  0
   -2.3385   -0.0062    1.4262 C   0  0  0  0  0  0  0  0  0  0  0  0
    3.0748   -0.3006   -1.6043 C   0  0  0  0  0  0  0  0  0  0  0  0
    2.4987   -0.9636   -2.6669 O   0  0  0  0  0  0  0  0  0  0  0  0
    2.3162   -2.3466   -2.3653 C   0  0  0  0  0  0  0  0  0  0  0  0
    6.8864   -1.6828   -1.0583 H   0  0  0  0  0  0  0  0  0  0  0  0
    6.9796   -0.2848   -2.2029 H   0  0  0  0  0  0  0  0  0  0  0  0
    6.9742   -1.9487   -2.8011 H   0  0  0  0  0  0  0  0  0  0  0  0
    6.0474    0.1667    0.0128 H   0  0  0  0  0  0  0  0  0  0  0  0
    4.6490    1.6781    1.3323 H   0  0  0  0  0  0  0  0  0  0  0  0
    2.2727    1.9950    0.7896 H   0  0  0  0  0  0  0  0  0  0  0  0
    0.6209    0.8019   -2.2576 H   0  0  0  0  0  0  0  0  0  0  0  0
    0.0646    0.8217    0.7779 H   0  0  0  0  0  0  0  0  0  0  0  0
   -4.2507    0.1902   -0.8459 H   0  0  0  0  0  0  0  0  0  0  0  0
   -3.9647    1.9260   -0.7966 H   0  0  0  0  0  0  0  0  0  0  0  0
   -5.8842    1.1499    0.6477 H   0  0  0  0  0  0  0  0  0  0  0  0
   -4.7534    3.2907    1.1666 H   0  0  0  0  0  0  0  0  0  0  0  0
   -3.6341    2.4462    2.2558 H   0  0  0  0  0  0  0  0  0  0  0  0
   -5.3466    2.4779    2.6296 H   0  0  0  0  0  0  0  0  0  0  0  0
   -3.4099   -1.0787    2.9377 H   0  0  0  0  0  0  0  0  0  0  0  0
   -4.7028   -2.5818    1.5037 H   0  0  0  0  0  0  0  0  0  0  0  0
   -2.9685   -2.7115    1.1407 H   0  0  0  0  0  0  0  0  0  0  0  0
   -4.0628   -1.8371    0.0502 H   0  0  0  0  0  0  0  0  0  0  0  0
   -1.4923   -0.6959    1.3394 H   0  0  0  0  0  0  0  0  0  0  0  0
   -2.0712    0.7535    2.1697 H   0  0  0  0  0  0  0  0  0  0  0  0
    1.9542   -2.5036   -1.3432 H   0  0  0  0  0  0  0  0  0  0  0  0
    3.2398   -2.9084   -2.5349 H   0  0  0  0  0  0  0  0  0  0  0  0
    1.5583   -2.7387   -3.0514 H   0  0  0  0  0  0  0  0  0  0  0  0
  1  2  1  0
  2  3  1  0
  3  4  2  0
  4  5  1  0
  5  6  2  0
  6  7  1  0
  7  8  1  0
  8  9  2  3
  9 10  1  0
 10 11  2  0
 10 12  1  0
 12 13  1  0
 13 14  1  0
 14 15  1  0
 14 16  1  0
 16 17  1  0
 17 18  1  0
 17 19  1  0
  7 20  2  0
 20 21  1  0
 21 22  1  0
 20  3  1  0
 19 12  1  0
  1 23  1  0
  1 24  1  0
  1 25  1  0
  4 26  1  0
  5 27  1  0
  6 28  1  0
  8 29  1  0
  9 30  1  0
 13 31  1  0
 13 32  1  0
 14 33  1  0
 15 34  1  0
 15 35  1  0
 15 36  1  0
 17 37  1  0
 18 38  1  0
 18 39  1  0
 18 40  1  0
 19 41  1  0
 19 42  1  0
 22 43  1  0
 22 44  1  0
 22 45  1  0
M  END
$$$$
