
     RDKit          3D

 54 58  0  0  0  0  0  0  0  0999 V2000
   -6.2537   -3.0069    0.8172 C   0  0  0  0  0  0  0  0  0  0  0  0
   -5.1310   -2.0257    0.5088 C   0  0  0  0  0  0  0  0  0  0  0  0
   -3.7279   -2.5954    0.7970 C   0  0  0  0  0  0  0  0  0  0  0  0
   -3.4904   -2.8940    2.2810 C   0  0  0  0  0  0  0  0  0  0  0  0
   -2.6699   -1.7371    0.2348 N   0  0  0  0  0  0  0  0  0  0  0  0
   -1.8933   -2.2299   -0.8122 C   0  0  0  0  0  0  0  0  0  0  0  0
   -0.9321   -1.6037   -1.4215 N   0  0  0  0  0  0  0  0  0  0  0  0
   -0.7161   -0.3601   -0.9360 C   0  0  0  0  0  0  0  0  0  0  0  0
   -1.4051    0.2693    0.0790 C   0  0  0  0  0  0  0  0  0  0  0  0
   -2.4767   -0.4369    0.7357 C   0  0  0  0  0  0  0  0  0  0  0  0
   -3.1476    0.0589    1.6346 O   0  0  0  0  0  0  0  0  0  0  0  0
   -0.8554    1.5559    0.2353 C   0  0  0  0  0  0  0  0  0  0  0  0
   -1.1684    2.5734    1.0745 N   0  0  0  0  0  0  0  0  0  0  0  0
   -0.4169    3.6747    0.9244 C   0  0  0  0  0  0  0  0  0  0  0  0
   -0.6739    4.7618    1.7497 C   0  0  0  0  0  0  0  0  0  0  0  0
    0.0625    5.9433    1.6543 C   0  0  0  0  0  0  0  0  0  0  0  0
    1.0777    6.0416    0.7136 C   0  0  0  0  0  0  0  0  0  0  0  0
    1.3475    4.9571   -0.1227 C   0  0  0  0  0  0  0  0  0  0  0  0
    0.6236    3.7744   -0.0392 C   0  0  0  0  0  0  0  0  0  0  0  0
    0.9418    2.7727   -0.8780 N   0  0  0  0  0  0  0  0  0  0  0  0
    0.1724    1.6789   -0.6972 C   0  0  0  0  0  0  0  0  0  0  0  0
    0.2596    0.4940   -1.3876 N   0  0  0  0  0  0  0  0  0  0  0  0
    1.2100    0.2184   -2.4506 C   0  0  0  0  0  0  0  0  0  0  0  0
    2.4723   -0.4104   -1.9140 C   0  0  0  0  0  0  0  0  0  0  0  0
    3.5231    0.3875   -1.4406 C   0  0  0  0  0  0  0  0  0  0  0  0
    4.6888   -0.1931   -0.9280 C   0  0  0  0  0  0  0  0  0  0  0  0
    4.8182   -1.5806   -0.8784 C   0  0  0  0  0  0  0  0  0  0  0  0
    5.8985   -2.2727   -0.4041 O   0  0  0  0  0  0  0  0  0  0  0  0
    6.9800   -1.5026    0.1047 C   0  0  0  0  0  0  0  0  0  0  0  0
    3.7711   -2.3791   -1.3428 C   0  0  0  0  0  0  0  0  0  0  0  0
    2.6057   -1.8027   -1.8533 C   0  0  0  0  0  0  0  0  0  0  0  0
   -7.2161   -2.5830    0.5125 H   0  0  0  0  0  0  0  0  0  0  0  0
   -6.1134   -3.9485    0.2771 H   0  0  0  0  0  0  0  0  0  0  0  0
   -6.3123   -3.2253    1.8874 H   0  0  0  0  0  0  0  0  0  0  0  0
   -5.3048   -1.1057    1.0775 H   0  0  0  0  0  0  0  0  0  0  0  0
   -5.1947   -1.7517   -0.5520 H   0  0  0  0  0  0  0  0  0  0  0  0
   -3.6660   -3.5621    0.2801 H   0  0  0  0  0  0  0  0  0  0  0  0
   -2.4549   -3.2087    2.4508 H   0  0  0  0  0  0  0  0  0  0  0  0
   -4.1410   -3.7035    2.6267 H   0  0  0  0  0  0  0  0  0  0  0  0
   -3.6832   -2.0230    2.9142 H   0  0  0  0  0  0  0  0  0  0  0  0
   -2.1481   -3.2538   -1.1285 H   0  0  0  0  0  0  0  0  0  0  0  0
   -1.4704    4.6842    2.4869 H   0  0  0  0  0  0  0  0  0  0  0  0
   -0.1608    6.7784    2.3134 H   0  0  0  0  0  0  0  0  0  0  0  0
    1.6598    6.9555    0.6266 H   0  0  0  0  0  0  0  0  0  0  0  0
    2.1433    5.0364   -0.8596 H   0  0  0  0  0  0  0  0  0  0  0  0
    0.7264   -0.4342   -3.1869 H   0  0  0  0  0  0  0  0  0  0  0  0
    1.4333    1.1574   -2.9707 H   0  0  0  0  0  0  0  0  0  0  0  0
    3.4365    1.4729   -1.4597 H   0  0  0  0  0  0  0  0  0  0  0  0
    5.4715    0.4685   -0.5731 H   0  0  0  0  0  0  0  0  0  0  0  0
    7.7518   -2.1974    0.4496 H   0  0  0  0  0  0  0  0  0  0  0  0
    7.4215   -0.8768   -0.6779 H   0  0  0  0  0  0  0  0  0  0  0  0
    6.6666   -0.9003    0.9639 H   0  0  0  0  0  0  0  0  0  0  0  0
    3.8614   -3.4618   -1.3012 H   0  0  0  0  0  0  0  0  0  0  0  0
    1.7994   -2.4486   -2.1955 H   0  0  0  0  0  0  0  0  0  0  0  0
  1  2  1  0
  2  3  1  0
  3  4  1  0
  3  5  1  0
  5  6  1  0
  6  7  2  0
  7  8  1  0
  8  9  2  0
  9 10  1  0
 10 11  2  0
  9 12  1  0
 12 13  2  0
 13 14  1  0
 14 15  2  0
 15 16  1  0
 16 17  2  0
 17 18  1  0
 18 19  2  0
 19 20  1  0
 20 21  2  0
 21 22  1  0
 22 23  1  0
 23 24  1  0
 24 25  2  0
 25 26  1  0
 26 27  2  0
 27 28  1  0
 28 29  1  0
 27 30  1  0
 30 31  2  0
 10  5  1  0
 21 12  1  0
 31 24  1  0
 22  8  1  0
 19 14  1  0
  1 32  1  0
  1 33  1  0
  1 34  1  0
  2 35  1  0
  2 36  1  0
  3 37  1  0
  4 38  1  0
  4 39  1  0
  4 40  1  0
  6 41  1  0
 15 42  1  0
 16 43  1  0
 17 44  1  0
 18 45  1  0
 23 46  1  0
 23 47  1  0
 25 48  1  0
 26 49  1  0
 29 50  1  0
 29 51  1  0
 29 52  1  0
 30 53  1  0
 31 54  1  0
M  END
$$$$
