
     RDKit          3D

 53 56  0  0  0  0  0  0  0  0999 V2000
   -0.5110   -4.8922   -3.8773 C   0  0  0  0  0  0  0  0  0  0  0  0
   -0.1569   -4.0660   -2.7745 O   0  0  0  0  0  0  0  0  0  0  0  0
    0.0197   -2.7335   -3.0352 C   0  0  0  0  0  0  0  0  0  0  0  0
   -0.2360   -2.0937   -4.2443 C   0  0  0  0  0  0  0  0  0  0  0  0
   -0.0097   -0.7161   -4.3776 C   0  0  0  0  0  0  0  0  0  0  0  0
    0.4708    0.0370   -3.3016 C   0  0  0  0  0  0  0  0  0  0  0  0
    0.7125    1.3861   -3.3369 O   0  0  0  0  0  0  0  0  0  0  0  0
    0.2489    2.1001   -4.4748 C   0  0  0  0  0  0  0  0  0  0  0  0
    0.7391   -0.6022   -2.0798 C   0  0  0  0  0  0  0  0  0  0  0  0
    1.2388    0.1691   -0.8768 C   0  0  0  0  0  0  0  0  0  0  0  0
    0.1254    0.8514   -0.2025 N   0  0  0  0  0  0  0  0  0  0  0  0
    0.5409    1.4180    1.0441 N   0  0  0  0  0  0  0  0  0  0  0  0
    0.2005    0.7905    2.2480 C   0  0  0  0  0  0  0  0  0  0  0  0
   -0.5228   -0.4963    2.1849 C   0  0  0  0  0  0  0  0  0  0  0  0
    0.1933   -1.6953    2.1185 C   0  0  0  0  0  0  0  0  0  0  0  0
   -0.5020   -2.8996    2.0221 C   0  0  0  0  0  0  0  0  0  0  0  0
   -1.9028   -2.8984    2.0056 C   0  0  0  0  0  0  0  0  0  0  0  0
   -2.6237   -1.6956    2.0999 C   0  0  0  0  0  0  0  0  0  0  0  0
   -4.1275   -1.7142    2.0622 C   0  0  0  0  0  0  0  0  0  0  0  0
   -1.9237   -0.4875    2.1910 C   0  0  0  0  0  0  0  0  0  0  0  0
    0.4766    1.2898    3.4149 N   0  0  0  0  0  0  0  0  0  0  0  0
    1.1401    2.5239    3.4672 C   0  0  0  0  0  0  0  0  0  0  0  0
    1.4550    3.0590    4.7187 C   0  0  0  0  0  0  0  0  0  0  0  0
    2.1055    4.2930    4.8259 C   0  0  0  0  0  0  0  0  0  0  0  0
    2.4505    5.0061    3.6767 C   0  0  0  0  0  0  0  0  0  0  0  0
    2.1395    4.4868    2.4197 C   0  0  0  0  0  0  0  0  0  0  0  0
    1.4854    3.2507    2.3241 C   0  0  0  0  0  0  0  0  0  0  0  0
    1.1268    2.6864    1.0102 C   0  0  0  0  0  0  0  0  0  0  0  0
    1.3236    3.3314   -0.0190 O   0  0  0  0  0  0  0  0  0  0  0  0
    0.4966   -1.9839   -1.9590 C   0  0  0  0  0  0  0  0  0  0  0  0
   -1.5074   -4.6388   -4.2548 H   0  0  0  0  0  0  0  0  0  0  0  0
    0.2410   -4.8363   -4.6705 H   0  0  0  0  0  0  0  0  0  0  0  0
   -0.5434   -5.9268   -3.5232 H   0  0  0  0  0  0  0  0  0  0  0  0
   -0.6150   -2.6333   -5.1053 H   0  0  0  0  0  0  0  0  0  0  0  0
   -0.2171   -0.2618   -5.3419 H   0  0  0  0  0  0  0  0  0  0  0  0
    0.8076    1.8096   -5.3740 H   0  0  0  0  0  0  0  0  0  0  0  0
   -0.8297    1.9675   -4.6165 H   0  0  0  0  0  0  0  0  0  0  0  0
    0.4317    3.1660   -4.2992 H   0  0  0  0  0  0  0  0  0  0  0  0
    1.7363   -0.5268   -0.1885 H   0  0  0  0  0  0  0  0  0  0  0  0
    2.0132    0.8837   -1.1855 H   0  0  0  0  0  0  0  0  0  0  0  0
   -0.1371    1.6361   -0.8091 H   0  0  0  0  0  0  0  0  0  0  0  0
    1.2807   -1.6916    2.1244 H   0  0  0  0  0  0  0  0  0  0  0  0
    0.0402   -3.8416    1.9438 H   0  0  0  0  0  0  0  0  0  0  0  0
   -2.4328   -3.8450    1.9156 H   0  0  0  0  0  0  0  0  0  0  0  0
   -4.4783   -2.0780    1.0865 H   0  0  0  0  0  0  0  0  0  0  0  0
   -4.5198   -2.3648    2.8505 H   0  0  0  0  0  0  0  0  0  0  0  0
   -4.5451   -0.7149    2.2211 H   0  0  0  0  0  0  0  0  0  0  0  0
   -2.4564    0.4609    2.2578 H   0  0  0  0  0  0  0  0  0  0  0  0
    1.1827    2.5085    5.6170 H   0  0  0  0  0  0  0  0  0  0  0  0
    2.3383    4.6978    5.8078 H   0  0  0  0  0  0  0  0  0  0  0  0
    2.9556    5.9666    3.7602 H   0  0  0  0  0  0  0  0  0  0  0  0
    2.4021    5.0425    1.5202 H   0  0  0  0  0  0  0  0  0  0  0  0
    0.6790   -2.4844   -1.0114 H   0  0  0  0  0  0  0  0  0  0  0  0
  1  2  1  0
  2  3  1  0
  3  4  2  0
  4  5  1  0
  5  6  2  0
  6  7  1  0
  7  8  1  0
  6  9  1  0
  9 10  1  0
 10 11  1  0
 11 12  1  0
 12 13  1  0
 13 14  1  0
 14 15  2  0
 15 16  1  0
 16 17  2  0
 17 18  1  0
 18 19  1  0
 18 20  2  0
 13 21  2  0
 21 22  1  0
 22 23  2  0
 23 24  1  0
 24 25  2  0
 25 26  1  0
 26 27  2  0
 27 28  1  0
 28 29  2  0
  9 30  2  0
 30  3  1  0
 28 12  1  0
 20 14  1  0
 27 22  1  0
  1 31  1  0
  1 32  1  0
  1 33  1  0
  4 34  1  0
  5 35  1  0
  8 36  1  0
  8 37  1  0
  8 38  1  0
 10 39  1  0
 10 40  1  0
 11 41  1  0
 15 42  1  0
 16 43  1  0
 17 44  1  0
 19 45  1  0
 19 46  1  0
 19 47  1  0
 20 48  1  0
 23 49  1  0
 24 50  1  0
 25 51  1  0
 26 52  1  0
 30 53  1  0
M  END
$$$$
