
     RDKit          3D

 43 45  0  0  0  0  0  0  0  0999 V2000
   -1.7131   -3.4633   -0.3930 N   0  0  0  0  0  0  0  0  0  0  0  0
   -0.5048   -2.8712   -0.4228 C   0  0  0  0  0  0  0  0  0  0  0  0
    0.5921   -3.5346   -0.6350 N   0  0  0  0  0  0  0  0  0  0  0  0
    1.6603   -2.4997   -0.5567 C   0  0  0  0  0  0  0  0  0  0  0  0
    0.9518   -1.1292   -0.5140 C   0  0  0  0  0  0  0  0  0  0  0  0
    1.4998   -0.1960    0.5708 C   0  0  0  0  0  0  0  0  0  0  0  0
    2.8869    0.3142    0.2608 C   0  0  0  0  0  0  0  0  0  0  0  0
    4.0064   -0.2177    0.9170 C   0  0  0  0  0  0  0  0  0  0  0  0
    5.2904    0.2442    0.6182 C   0  0  0  0  0  0  0  0  0  0  0  0
    5.4538    1.2407   -0.3379 C   0  0  0  0  0  0  0  0  0  0  0  0
    6.6883    1.7205   -0.6608 O   0  0  0  0  0  0  0  0  0  0  0  0
    4.3569    1.7810   -0.9967 C   0  0  0  0  0  0  0  0  0  0  0  0
    3.0741    1.3195   -0.6990 C   0  0  0  0  0  0  0  0  0  0  0  0
   -0.4317   -1.5258   -0.2256 N   0  0  0  0  0  0  0  0  0  0  0  0
   -1.4930   -0.5948   -0.6063 C   0  0  0  0  0  0  0  0  0  0  0  0
   -2.3665   -0.2565    0.6059 C   0  0  0  0  0  0  0  0  0  0  0  0
   -3.4335    0.7549    0.2665 C   0  0  0  0  0  0  0  0  0  0  0  0
   -4.6217    0.3517   -0.3624 C   0  0  0  0  0  0  0  0  0  0  0  0
   -5.6043    1.2886   -0.6939 C   0  0  0  0  0  0  0  0  0  0  0  0
   -5.4069    2.6369   -0.4025 C   0  0  0  0  0  0  0  0  0  0  0  0
   -4.2291    3.0367    0.2168 C   0  0  0  0  0  0  0  0  0  0  0  0
   -4.0373    4.3331    0.4943 F   0  0  0  0  0  0  0  0  0  0  0  0
   -3.2433    2.1132    0.5514 C   0  0  0  0  0  0  0  0  0  0  0  0
   -2.2485   -3.2065    0.4246 H   0  0  0  0  0  0  0  0  0  0  0  0
   -1.5948   -4.4713   -0.4301 H   0  0  0  0  0  0  0  0  0  0  0  0
    2.3140   -2.5729   -1.4322 H   0  0  0  0  0  0  0  0  0  0  0  0
    2.2618   -2.6921    0.3382 H   0  0  0  0  0  0  0  0  0  0  0  0
    1.0083   -0.6670   -1.5084 H   0  0  0  0  0  0  0  0  0  0  0  0
    0.8373    0.6715    0.6908 H   0  0  0  0  0  0  0  0  0  0  0  0
    1.4910   -0.6978    1.5476 H   0  0  0  0  0  0  0  0  0  0  0  0
    3.8867   -0.9977    1.6663 H   0  0  0  0  0  0  0  0  0  0  0  0
    6.1422   -0.1826    1.1381 H   0  0  0  0  0  0  0  0  0  0  0  0
    7.3513    1.2526   -0.1273 H   0  0  0  0  0  0  0  0  0  0  0  0
    4.5002    2.5602   -1.7400 H   0  0  0  0  0  0  0  0  0  0  0  0
    2.2238    1.7532   -1.2205 H   0  0  0  0  0  0  0  0  0  0  0  0
   -1.0582    0.3329   -1.0012 H   0  0  0  0  0  0  0  0  0  0  0  0
   -2.0970   -1.0104   -1.4228 H   0  0  0  0  0  0  0  0  0  0  0  0
   -1.7403    0.1279    1.4216 H   0  0  0  0  0  0  0  0  0  0  0  0
   -2.8454   -1.1576    1.0071 H   0  0  0  0  0  0  0  0  0  0  0  0
   -4.7898   -0.6977   -0.5991 H   0  0  0  0  0  0  0  0  0  0  0  0
   -6.5219    0.9660   -1.1796 H   0  0  0  0  0  0  0  0  0  0  0  0
   -6.1603    3.3763   -0.6537 H   0  0  0  0  0  0  0  0  0  0  0  0
   -2.3365    2.4667    1.0334 H   0  0  0  0  0  0  0  0  0  0  0  0
  1  2  1  0
  2  3  2  0
  3  4  1  0
  4  5  1  0
  5  6  1  0
  6  7  1  0
  7  8  2  0
  8  9  1  0
  9 10  2  0
 10 11  1  0
 10 12  1  0
 12 13  2  0
  5 14  1  0
 14 15  1  0
 15 16  1  0
 16 17  1  0
 17 18  2  0
 18 19  1  0
 19 20  2  0
 20 21  1  0
 21 22  1  0
 21 23  2  0
 14  2  1  0
 23 17  1  0
 13  7  1  0
  1 24  1  0
  1 25  1  0
  4 26  1  0
  4 27  1  0
  5 28  1  0
  6 29  1  0
  6 30  1  0
  8 31  1  0
  9 32  1  0
 11 33  1  0
 12 34  1  0
 13 35  1  0
 15 36  1  0
 15 37  1  0
 16 38  1  0
 16 39  1  0
 18 40  1  0
 19 41  1  0
 20 42  1  0
 23 43  1  0
M  END
$$$$
