
     RDKit          3D

 34 35  0  0  0  0  0  0  0  0999 V2000
   -2.4183   -3.2065    0.8178 O   0  0  0  0  0  0  0  0  0  0  0  0
   -3.1027   -2.5462    0.0197 N   0  0  0  0  0  4  0  0  0  0  0  0
   -4.0145   -3.0113   -0.6802 O   0  0  0  0  0  1  0  0  0  0  0  0
   -2.8398   -1.1085   -0.0838 C   0  0  0  0  0  0  0  0  0  0  0  0
   -3.9492   -0.2715   -0.3224 C   0  0  0  0  0  0  0  0  0  0  0  0
   -3.7753    1.1114   -0.4469 C   0  0  0  0  0  0  0  0  0  0  0  0
   -4.9591    2.0188   -0.6798 C   0  0  0  0  0  0  0  0  0  0  0  0
   -5.8927    1.4666   -1.5021 F   0  0  0  0  0  0  0  0  0  0  0  0
   -4.6214    3.2104   -1.2449 F   0  0  0  0  0  0  0  0  0  0  0  0
   -5.6085    2.3208    0.4770 F   0  0  0  0  0  0  0  0  0  0  0  0
   -2.4823    1.6298   -0.3237 C   0  0  0  0  0  0  0  0  0  0  0  0
   -1.3846    0.7870   -0.0899 C   0  0  0  0  0  0  0  0  0  0  0  0
   -1.5274   -0.6020    0.0654 C   0  0  0  0  0  0  0  0  0  0  0  0
   -0.4168   -1.4460    0.2062 N   0  0  0  0  0  0  0  0  0  0  0  0
    0.8881   -0.9432    0.6489 C   0  0  0  0  0  0  0  0  0  0  0  0
    1.7781   -0.6123   -0.5498 C   0  0  0  0  0  0  0  0  0  0  0  0
    3.1191   -0.1006   -0.0963 C   0  0  0  0  0  0  0  0  0  0  0  0
    4.2717   -0.8593   -0.2827 C   0  0  0  0  0  0  0  0  0  0  0  0
    5.4904   -0.3470    0.1538 C   0  0  0  0  0  0  0  0  0  0  0  0
    5.5270    0.9023    0.7603 C   0  0  0  0  0  0  0  0  0  0  0  0
    4.3360    1.5915    0.9067 C   0  0  0  0  0  0  0  0  0  0  0  0
    3.1382    1.1193    0.4953 N   0  0  0  0  0  0  0  0  0  0  0  0
   -4.9495   -0.6958   -0.4167 H   0  0  0  0  0  0  0  0  0  0  0  0
   -2.3095    2.7021   -0.4201 H   0  0  0  0  0  0  0  0  0  0  0  0
   -0.4058    1.2591   -0.0323 H   0  0  0  0  0  0  0  0  0  0  0  0
   -0.6640   -2.3254    0.6753 H   0  0  0  0  0  0  0  0  0  0  0  0
    1.3694   -1.7401    1.2311 H   0  0  0  0  0  0  0  0  0  0  0  0
    0.7824   -0.1000    1.3424 H   0  0  0  0  0  0  0  0  0  0  0  0
    1.8991   -1.5018   -1.1808 H   0  0  0  0  0  0  0  0  0  0  0  0
    1.3150    0.1486   -1.1885 H   0  0  0  0  0  0  0  0  0  0  0  0
    4.2304   -1.8331   -0.7602 H   0  0  0  0  0  0  0  0  0  0  0  0
    6.4045   -0.9184    0.0193 H   0  0  0  0  0  0  0  0  0  0  0  0
    6.4605    1.3291    1.1090 H   0  0  0  0  0  0  0  0  0  0  0  0
    4.3115    2.5723    1.3729 H   0  0  0  0  0  0  0  0  0  0  0  0
  1  2  2  0
  2  3  1  0
  2  4  1  0
  4  5  2  0
  5  6  1  0
  6  7  1  0
  7  8  1  0
  7  9  1  0
  7 10  1  0
  6 11  2  0
 11 12  1  0
 12 13  2  0
 13 14  1  0
 14 15  1  0
 15 16  1  0
 16 17  1  0
 17 18  2  0
 18 19  1  0
 19 20  2  0
 20 21  1  0
 21 22  2  0
 13  4  1  0
 22 17  1  0
  5 23  1  0
 11 24  1  0
 12 25  1  0
 14 26  1  0
 15 27  1  0
 15 28  1  0
 16 29  1  0
 16 30  1  0
 18 31  1  0
 19 32  1  0
 20 33  1  0
 21 34  1  0
M  CHG  2   2   1   3  -1
M  END
$$$$
