
     RDKit          3D

 42 44  0  0  0  0  0  0  0  0999 V2000
   -3.7579    1.7614    6.2881 C   0  0  0  0  0  0  0  0  0  0  0  0
   -4.2051    1.5318    4.8532 C   0  0  0  0  0  0  0  0  0  0  0  0
   -3.0234    1.5737    3.8846 C   0  0  0  0  0  0  0  0  0  0  0  0
   -3.4799    1.3420    2.4426 C   0  0  0  0  0  0  0  0  0  0  0  0
   -2.3208    1.3813    1.4783 C   0  0  0  0  0  0  0  0  0  0  0  0
   -1.6107    0.2159    1.1732 C   0  0  0  0  0  0  0  0  0  0  0  0
   -0.5265    0.2575    0.2910 C   0  0  0  0  0  0  0  0  0  0  0  0
   -0.1211    1.4633   -0.2990 C   0  0  0  0  0  0  0  0  0  0  0  0
    1.0179    1.4651   -1.2152 C   0  0  0  0  0  0  0  0  0  0  0  0
    1.7335    2.5842   -1.5815 C   0  0  0  0  0  0  0  0  0  0  0  0
    2.9864    2.1587   -2.6638 S   0  0  0  0  0  0  0  0  0  0  0  0
    2.5171    0.4846   -2.5799 C   0  0  0  0  0  0  0  0  0  0  0  0
    3.2189   -0.5343   -3.3231 C   0  0  0  0  0  0  0  0  0  0  0  0
    4.3229   -0.1863   -4.1589 C   0  0  0  0  0  0  0  0  0  0  0  0
    5.2145    0.1041   -4.8442 N   0  0  0  0  0  0  0  0  0  0  0  0
    2.8000   -1.8084   -3.1681 C   0  0  0  0  0  0  0  0  0  0  0  0
    3.3394   -2.9725   -3.7900 C   0  0  0  0  0  0  0  0  0  0  0  0
    4.0270   -3.1797   -4.9829 C   0  0  0  0  0  0  0  0  0  0  0  0
    4.3064   -4.5637   -5.0996 C   0  0  0  0  0  0  0  0  0  0  0  0
    3.7662   -5.1478   -3.9858 C   0  0  0  0  0  0  0  0  0  0  0  0
    3.1785   -4.2129   -3.2042 O   0  0  0  0  0  0  0  0  0  0  0  0
    1.4802    0.2847   -1.7813 N   0  0  0  0  0  0  0  0  0  0  0  0
   -0.8365    2.6284    0.0107 C   0  0  0  0  0  0  0  0  0  0  0  0
   -1.9224    2.5882    0.8932 C   0  0  0  0  0  0  0  0  0  0  0  0
   -4.6185    1.7273    6.9634 H   0  0  0  0  0  0  0  0  0  0  0  0
   -3.0466    0.9921    6.6052 H   0  0  0  0  0  0  0  0  0  0  0  0
   -3.2785    2.7394    6.3978 H   0  0  0  0  0  0  0  0  0  0  0  0
   -4.7085    0.5604    4.7847 H   0  0  0  0  0  0  0  0  0  0  0  0
   -4.9392    2.2982    4.5785 H   0  0  0  0  0  0  0  0  0  0  0  0
   -2.5179    2.5445    3.9644 H   0  0  0  0  0  0  0  0  0  0  0  0
   -2.2878    0.8109    4.1701 H   0  0  0  0  0  0  0  0  0  0  0  0
   -4.2195    2.0993    2.1533 H   0  0  0  0  0  0  0  0  0  0  0  0
   -3.9908    0.3744    2.3581 H   0  0  0  0  0  0  0  0  0  0  0  0
   -1.8947   -0.7349    1.6187 H   0  0  0  0  0  0  0  0  0  0  0  0
    0.0056   -0.6660    0.0700 H   0  0  0  0  0  0  0  0  0  0  0  0
    1.6027    3.6121   -1.2773 H   0  0  0  0  0  0  0  0  0  0  0  0
    1.9845   -2.0188   -2.4765 H   0  0  0  0  0  0  0  0  0  0  0  0
    4.2972   -2.4268   -5.7108 H   0  0  0  0  0  0  0  0  0  0  0  0
    4.8286   -5.0672   -5.9008 H   0  0  0  0  0  0  0  0  0  0  0  0
    3.7120   -6.1645   -3.6221 H   0  0  0  0  0  0  0  0  0  0  0  0
   -0.5755    3.5853   -0.4322 H   0  0  0  0  0  0  0  0  0  0  0  0
   -2.4578    3.5083    1.1181 H   0  0  0  0  0  0  0  0  0  0  0  0
  1  2  1  0
  2  3  1  0
  3  4  1  0
  4  5  1  0
  5  6  2  0
  6  7  1  0
  7  8  2  0
  8  9  1  0
  9 10  2  0
 10 11  1  0
 11 12  1  0
 12 13  1  0
 13 14  1  0
 14 15  3  0
 13 16  2  3
 16 17  1  0
 17 18  2  0
 18 19  1  0
 19 20  2  0
 20 21  1  0
 12 22  2  0
  8 23  1  0
 23 24  2  0
 24  5  1  0
 22  9  1  0
 21 17  1  0
  1 25  1  0
  1 26  1  0
  1 27  1  0
  2 28  1  0
  2 29  1  0
  3 30  1  0
  3 31  1  0
  4 32  1  0
  4 33  1  0
  6 34  1  0
  7 35  1  0
 10 36  1  0
 16 37  1  0
 18 38  1  0
 19 39  1  0
 20 40  1  0
 23 41  1  0
 24 42  1  0
M  END
$$$$
