
     RDKit          3D

 46 48  0  0  0  0  0  0  0  0999 V2000
   -4.4811   -0.3494    2.4485 C   0  0  0  0  0  0  0  0  0  0  0  0
   -5.0164   -0.7464    1.1282 C   0  0  0  0  0  0  0  0  0  0  0  0
   -6.1787   -1.4590    1.1790 O   0  0  0  0  0  0  0  0  0  0  0  0
   -6.4944   -1.8126   -0.0903 C   0  0  0  0  0  0  0  0  0  0  0  0
   -5.5582   -1.3232   -0.9647 C   0  0  0  0  0  0  0  0  0  0  0  0
   -4.6006   -0.5954   -0.1894 C   0  0  0  0  0  0  0  0  0  0  0  0
   -3.4301    0.0915   -0.7258 C   0  0  0  0  0  0  0  0  0  0  0  0
   -3.0256   -0.1309   -1.8642 O   0  0  0  0  0  0  0  0  0  0  0  0
   -2.8480    1.0208    0.0996 N   0  0  0  0  0  0  0  0  0  0  0  0
   -1.6620    1.7564   -0.2711 C   0  0  0  0  0  0  0  0  0  0  0  0
   -0.5900    1.5604    0.7703 C   0  0  0  0  0  0  0  0  0  0  0  0
   -0.4516    2.4528    1.8415 C   0  0  0  0  0  0  0  0  0  0  0  0
    0.5246    2.2397    2.8148 C   0  0  0  0  0  0  0  0  0  0  0  0
    1.3693    1.1320    2.7313 C   0  0  0  0  0  0  0  0  0  0  0  0
    1.2397    0.2192    1.6770 C   0  0  0  0  0  0  0  0  0  0  0  0
    2.1659   -0.9650    1.5614 C   0  0  0  0  0  0  0  0  0  0  0  0
    3.2648   -0.6702    0.6709 N   0  0  0  0  0  0  0  0  0  0  0  0
    3.2369   -1.0501   -0.6530 C   0  0  0  0  0  0  0  0  0  0  0  0
    2.3528   -1.7636   -1.1193 O   0  0  0  0  0  0  0  0  0  0  0  0
    4.3267   -0.5231   -1.4666 C   0  0  0  0  0  0  0  0  0  0  0  0
    5.4843    0.2262   -1.0971 C   0  0  0  0  0  0  0  0  0  0  0  0
    6.1894    0.4663   -2.2522 C   0  0  0  0  0  0  0  0  0  0  0  0
    5.5519   -0.0770   -3.3157 O   0  0  0  0  0  0  0  0  0  0  0  0
    4.4261   -0.6793   -2.8426 C   0  0  0  0  0  0  0  0  0  0  0  0
    3.5778   -1.3482   -3.8529 C   0  0  0  0  0  0  0  0  0  0  0  0
    0.2564    0.4434    0.7014 C   0  0  0  0  0  0  0  0  0  0  0  0
   -3.4006   -0.5174    2.4983 H   0  0  0  0  0  0  0  0  0  0  0  0
   -4.6847    0.7078    2.6433 H   0  0  0  0  0  0  0  0  0  0  0  0
   -4.9420   -0.9304    3.2539 H   0  0  0  0  0  0  0  0  0  0  0  0
   -7.3911   -2.4055   -0.2051 H   0  0  0  0  0  0  0  0  0  0  0  0
   -5.5484   -1.4637   -2.0388 H   0  0  0  0  0  0  0  0  0  0  0  0
   -3.2933    1.2711    0.9663 H   0  0  0  0  0  0  0  0  0  0  0  0
   -1.9403    2.8143   -0.3341 H   0  0  0  0  0  0  0  0  0  0  0  0
   -1.2936    1.4618   -1.2592 H   0  0  0  0  0  0  0  0  0  0  0  0
   -1.1024    3.3208    1.9231 H   0  0  0  0  0  0  0  0  0  0  0  0
    0.6284    2.9383    3.6405 H   0  0  0  0  0  0  0  0  0  0  0  0
    2.1263    0.9841    3.4982 H   0  0  0  0  0  0  0  0  0  0  0  0
    2.5985   -1.2057    2.5395 H   0  0  0  0  0  0  0  0  0  0  0  0
    1.6128   -1.8500    1.2256 H   0  0  0  0  0  0  0  0  0  0  0  0
    3.8943    0.0660    0.9504 H   0  0  0  0  0  0  0  0  0  0  0  0
    5.7850    0.5515   -0.1105 H   0  0  0  0  0  0  0  0  0  0  0  0
    7.1126    0.9804   -2.4760 H   0  0  0  0  0  0  0  0  0  0  0  0
    3.9417   -1.1598   -4.8680 H   0  0  0  0  0  0  0  0  0  0  0  0
    2.5476   -0.9858   -3.7951 H   0  0  0  0  0  0  0  0  0  0  0  0
    3.5702   -2.4326   -3.6927 H   0  0  0  0  0  0  0  0  0  0  0  0
    0.1491   -0.2603   -0.1253 H   0  0  0  0  0  0  0  0  0  0  0  0
  1  2  1  0
  2  3  1  0
  3  4  1  0
  4  5  2  0
  5  6  1  0
  6  7  1  0
  7  8  2  0
  7  9  1  0
  9 10  1  0
 10 11  1  0
 11 12  2  0
 12 13  1  0
 13 14  2  0
 14 15  1  0
 15 16  1  0
 16 17  1  0
 17 18  1  0
 18 19  2  0
 18 20  1  0
 20 21  1  0
 21 22  2  0
 22 23  1  0
 23 24  1  0
 24 25  1  0
 15 26  2  0
  6  2  2  0
 26 11  1  0
 24 20  2  0
  1 27  1  0
  1 28  1  0
  1 29  1  0
  4 30  1  0
  5 31  1  0
  9 32  1  0
 10 33  1  0
 10 34  1  0
 12 35  1  0
 13 36  1  0
 14 37  1  0
 16 38  1  0
 16 39  1  0
 17 40  1  0
 21 41  1  0
 22 42  1  0
 25 43  1  0
 25 44  1  0
 25 45  1  0
 26 46  1  0
M  END
$$$$
