
     RDKit          3D

 40 42  0  0  0  0  0  0  0  0999 V2000
   -2.5314   -1.9772    0.0361 C   0  0  0  0  0  0  0  0  0  0  0  0
   -3.1995   -0.6188   -0.1760 C   0  0  0  0  0  0  0  0  0  0  0  0
   -3.5130   -0.4222   -1.6585 C   0  0  0  0  0  0  0  0  0  0  0  0
   -2.4121    0.5535    0.4532 C   0  0  0  0  0  0  0  0  0  0  0  0
   -1.0899    0.8137   -0.0785 N   0  0  0  0  0  0  0  0  0  0  0  0
    0.1079    0.3324    0.3918 C   0  0  0  0  0  0  0  0  0  0  0  0
    0.2947   -0.6558    1.7984 S   0  0  0  0  0  0  0  0  0  0  0  0
    2.0978   -0.8815    1.7900 C   0  0  0  0  0  0  0  0  0  0  0  0
    2.5906   -1.7508    2.9433 C   0  0  0  0  0  0  0  0  0  0  0  0
    1.8209   -2.2450    3.7676 O   0  0  0  0  0  0  0  0  0  0  0  0
    4.0410   -1.9545    2.9945 C   0  0  0  0  0  0  0  0  0  0  0  0
    5.0379   -1.4808    2.1546 C   0  0  0  0  0  0  0  0  0  0  0  0
    6.3408   -1.9114    2.5534 C   0  0  0  0  0  0  0  0  0  0  0  0
    6.2799   -2.6924    3.6765 C   0  0  0  0  0  0  0  0  0  0  0  0
    7.6050   -3.4179    4.4918 Cl  0  0  0  0  0  0  0  0  0  0  0  0
    4.7097   -2.9171    4.2558 S   0  0  0  0  0  0  0  0  0  0  0  0
    1.0924    0.7477   -0.3687 N   0  0  0  0  0  0  0  0  0  0  0  0
    0.5580    1.5732   -1.3203 N   0  0  0  0  0  0  0  0  0  0  0  0
   -0.7440    1.6572   -1.1149 C   0  0  0  0  0  0  0  0  0  0  0  0
   -1.5947    2.5189   -1.8798 C   0  0  0  0  0  0  0  0  0  0  0  0
   -1.2629    3.2324   -3.0224 C   0  0  0  0  0  0  0  0  0  0  0  0
   -2.4109    3.9559   -3.4227 C   0  0  0  0  0  0  0  0  0  0  0  0
   -3.3828    3.6547   -2.5024 C   0  0  0  0  0  0  0  0  0  0  0  0
   -2.9024    2.7946   -1.5702 O   0  0  0  0  0  0  0  0  0  0  0  0
   -1.5783   -2.0486   -0.4969 H   0  0  0  0  0  0  0  0  0  0  0  0
   -3.1750   -2.7837   -0.3327 H   0  0  0  0  0  0  0  0  0  0  0  0
   -2.3562   -2.1642    1.1000 H   0  0  0  0  0  0  0  0  0  0  0  0
   -4.1641   -0.6572    0.3486 H   0  0  0  0  0  0  0  0  0  0  0  0
   -2.6043   -0.3892   -2.2669 H   0  0  0  0  0  0  0  0  0  0  0  0
   -4.1294   -1.2469   -2.0335 H   0  0  0  0  0  0  0  0  0  0  0  0
   -4.0791    0.4994   -1.8188 H   0  0  0  0  0  0  0  0  0  0  0  0
   -2.3121    0.3813    1.5311 H   0  0  0  0  0  0  0  0  0  0  0  0
   -2.9957    1.4756    0.3804 H   0  0  0  0  0  0  0  0  0  0  0  0
    2.5726    0.1021    1.8703 H   0  0  0  0  0  0  0  0  0  0  0  0
    2.3867   -1.3610    0.8488 H   0  0  0  0  0  0  0  0  0  0  0  0
    4.8609   -0.8528    1.2885 H   0  0  0  0  0  0  0  0  0  0  0  0
    7.2611   -1.6587    2.0413 H   0  0  0  0  0  0  0  0  0  0  0  0
   -0.2928    3.2231   -3.5024 H   0  0  0  0  0  0  0  0  0  0  0  0
   -2.5133    4.6165   -4.2721 H   0  0  0  0  0  0  0  0  0  0  0  0
   -4.4137    3.9555   -2.3758 H   0  0  0  0  0  0  0  0  0  0  0  0
  1  2  1  0
  2  3  1  0
  2  4  1  0
  4  5  1  0
  5  6  1  0
  6  7  1  0
  7  8  1  0
  8  9  1  0
  9 10  2  0
  9 11  1  0
 11 12  2  0
 12 13  1  0
 13 14  2  0
 14 15  1  0
 14 16  1  0
  6 17  2  0
 17 18  1  0
 18 19  2  0
 19 20  1  0
 20 21  2  0
 21 22  1  0
 22 23  2  0
 23 24  1  0
 19  5  1  0
 24 20  1  0
 16 11  1  0
  1 25  1  0
  1 26  1  0
  1 27  1  0
  2 28  1  0
  3 29  1  0
  3 30  1  0
  3 31  1  0
  4 32  1  0
  4 33  1  0
  8 34  1  0
  8 35  1  0
 12 36  1  0
 13 37  1  0
 21 38  1  0
 22 39  1  0
 23 40  1  0
M  END
$$$$
