
     RDKit          3D

 33 33  0  0  0  0  0  0  0  0999 V2000
    1.4133   -1.7623    3.2782 C   0  0  0  0  0  0  0  0  0  0  0  0
    1.2183   -0.8505    2.3145 C   0  0  0  0  0  0  0  0  0  0  0  0
    1.9266   -0.8420    0.9978 C   0  0  0  0  0  0  0  0  0  0  0  0
    2.7511    0.3549    0.9706 N   0  0  0  0  0  0  0  0  0  0  0  0
    3.2568    0.8870   -0.1788 C   0  0  0  0  0  0  0  0  0  0  0  0
    4.8414    1.3916   -0.2397 S   0  0  0  0  0  0  0  0  0  0  0  0
    2.4333    1.0287   -1.2582 N   0  0  0  0  0  0  0  0  0  0  0  0
    1.0745    1.3204   -1.0413 N   0  0  0  0  0  0  0  0  0  0  0  0
    0.3838    2.0008   -2.0249 C   0  0  0  0  0  0  0  0  0  0  0  0
    0.8585    2.2619   -3.1285 O   0  0  0  0  0  0  0  0  0  0  0  0
   -1.0239    2.4325   -1.6095 C   0  0  0  0  0  0  0  0  0  0  0  0
   -1.5720    1.7243   -0.5060 O   0  0  0  0  0  0  0  0  0  0  0  0
   -2.0474    0.4522   -0.7016 C   0  0  0  0  0  0  0  0  0  0  0  0
   -2.0372   -0.2232   -1.9284 C   0  0  0  0  0  0  0  0  0  0  0  0
   -2.5383   -1.5266   -2.0202 C   0  0  0  0  0  0  0  0  0  0  0  0
   -3.0537   -2.1595   -0.8915 C   0  0  0  0  0  0  0  0  0  0  0  0
   -3.6728   -3.7602   -1.0201 Cl  0  0  0  0  0  0  0  0  0  0  0  0
   -3.0713   -1.5060    0.3373 C   0  0  0  0  0  0  0  0  0  0  0  0
   -2.5705   -0.2047    0.4283 C   0  0  0  0  0  0  0  0  0  0  0  0
   -2.6124    0.5714    1.9762 Cl  0  0  0  0  0  0  0  0  0  0  0  0
    0.8567   -1.7135    4.2097 H   0  0  0  0  0  0  0  0  0  0  0  0
    2.1253   -2.5750    3.1626 H   0  0  0  0  0  0  0  0  0  0  0  0
    0.4883   -0.0595    2.4804 H   0  0  0  0  0  0  0  0  0  0  0  0
    2.5952   -1.7038    0.8816 H   0  0  0  0  0  0  0  0  0  0  0  0
    1.2089   -0.8700    0.1748 H   0  0  0  0  0  0  0  0  0  0  0  0
    3.4500    0.3567    1.7068 H   0  0  0  0  0  0  0  0  0  0  0  0
    2.8356    1.5063   -2.0685 H   0  0  0  0  0  0  0  0  0  0  0  0
    0.7713    1.3967   -0.0709 H   0  0  0  0  0  0  0  0  0  0  0  0
   -0.9444    3.4819   -1.3031 H   0  0  0  0  0  0  0  0  0  0  0  0
   -1.6998    2.4109   -2.4731 H   0  0  0  0  0  0  0  0  0  0  0  0
   -1.6454    0.2233   -2.8380 H   0  0  0  0  0  0  0  0  0  0  0  0
   -2.5248   -2.0427   -2.9780 H   0  0  0  0  0  0  0  0  0  0  0  0
   -3.4752   -2.0021    1.2152 H   0  0  0  0  0  0  0  0  0  0  0  0
  1  2  2  0
  2  3  1  0
  3  4  1  0
  4  5  1  0
  5  6  2  0
  5  7  1  0
  7  8  1  0
  8  9  1  0
  9 10  2  0
  9 11  1  0
 11 12  1  0
 12 13  1  0
 13 14  2  0
 14 15  1  0
 15 16  2  0
 16 17  1  0
 16 18  1  0
 18 19  2  0
 19 20  1  0
 19 13  1  0
  1 21  1  0
  1 22  1  0
  2 23  1  0
  3 24  1  0
  3 25  1  0
  4 26  1  0
  7 27  1  0
  8 28  1  0
 11 29  1  0
 11 30  1  0
 14 31  1  0
 15 32  1  0
 18 33  1  0
M  END
$$$$
