
     RDKit          3D

 43 45  0  0  0  0  0  0  0  0999 V2000
   -1.2407    3.7916    0.3189 C   0  0  0  0  0  0  0  0  0  0  0  0
   -0.7568    2.9364   -0.8366 C   0  0  0  0  0  0  0  0  0  0  0  0
   -0.6010    1.5756   -0.4084 O   0  0  0  0  0  0  0  0  0  0  0  0
   -1.7095    0.7838   -0.4961 C   0  0  0  0  0  0  0  0  0  0  0  0
   -2.7959    1.1866   -0.8966 O   0  0  0  0  0  0  0  0  0  0  0  0
   -1.4752   -0.5976   -0.0497 C   0  0  0  0  0  0  0  0  0  0  0  0
   -0.2687   -1.0937    0.4471 C   0  0  0  0  0  0  0  0  0  0  0  0
    0.9475   -0.4198    0.5249 N   0  0  0  0  0  0  0  0  0  0  0  0
    2.1024   -0.6816    1.2306 C   0  0  0  0  0  0  0  0  0  0  0  0
    2.3965   -1.7589    2.4774 S   0  0  0  0  0  0  0  0  0  0  0  0
    3.1910    0.1000    0.8714 N   0  0  0  0  0  0  0  0  0  0  0  0
    3.3176    1.0829   -0.1013 C   0  0  0  0  0  0  0  0  0  0  0  0
    2.3706    1.4834   -0.7744 O   0  0  0  0  0  0  0  0  0  0  0  0
    4.6615    1.6050   -0.2232 C   0  0  0  0  0  0  0  0  0  0  0  0
    5.1934    2.5733   -1.0530 C   0  0  0  0  0  0  0  0  0  0  0  0
    6.5685    2.6738   -0.7322 C   0  0  0  0  0  0  0  0  0  0  0  0
    6.7950    1.7635    0.2726 C   0  0  0  0  0  0  0  0  0  0  0  0
    5.6480    1.1096    0.5907 O   0  0  0  0  0  0  0  0  0  0  0  0
   -0.3784   -2.7391    0.8640 S   0  0  0  0  0  0  0  0  0  0  0  0
   -2.0161   -2.8231    0.4627 C   0  0  0  0  0  0  0  0  0  0  0  0
   -2.4959   -1.6329   -0.0435 C   0  0  0  0  0  0  0  0  0  0  0  0
   -3.9311   -1.4920   -0.4789 C   0  0  0  0  0  0  0  0  0  0  0  0
   -4.6338   -2.8516   -0.6248 C   0  0  0  0  0  0  0  0  0  0  0  0
   -4.3081   -3.7918    0.5416 C   0  0  0  0  0  0  0  0  0  0  0  0
   -2.8039   -4.0866    0.6184 C   0  0  0  0  0  0  0  0  0  0  0  0
   -2.2248    3.4617    0.6666 H   0  0  0  0  0  0  0  0  0  0  0  0
   -1.3088    4.8420    0.0224 H   0  0  0  0  0  0  0  0  0  0  0  0
   -0.5576    3.7082    1.1706 H   0  0  0  0  0  0  0  0  0  0  0  0
    0.2277    3.2855   -1.1644 H   0  0  0  0  0  0  0  0  0  0  0  0
   -1.4266    3.0109   -1.7008 H   0  0  0  0  0  0  0  0  0  0  0  0
    0.9518    0.4754    0.0287 H   0  0  0  0  0  0  0  0  0  0  0  0
    4.0411   -0.1188    1.3794 H   0  0  0  0  0  0  0  0  0  0  0  0
    4.6448    3.1334   -1.7987 H   0  0  0  0  0  0  0  0  0  0  0  0
    7.3047    3.3284   -1.1782 H   0  0  0  0  0  0  0  0  0  0  0  0
    7.6713    1.4756    0.8378 H   0  0  0  0  0  0  0  0  0  0  0  0
   -4.4624   -0.8883    0.2672 H   0  0  0  0  0  0  0  0  0  0  0  0
   -3.9917   -0.9679   -1.4387 H   0  0  0  0  0  0  0  0  0  0  0  0
   -5.7166   -2.6970   -0.6918 H   0  0  0  0  0  0  0  0  0  0  0  0
   -4.3205   -3.3257   -1.5640 H   0  0  0  0  0  0  0  0  0  0  0  0
   -4.8600   -4.7320    0.4315 H   0  0  0  0  0  0  0  0  0  0  0  0
   -4.6430   -3.3306    1.4797 H   0  0  0  0  0  0  0  0  0  0  0  0
   -2.5276   -4.7798   -0.1858 H   0  0  0  0  0  0  0  0  0  0  0  0
   -2.5785   -4.5779    1.5719 H   0  0  0  0  0  0  0  0  0  0  0  0
  1  2  1  0
  2  3  1  0
  3  4  1  0
  4  5  2  0
  4  6  1  0
  6  7  2  0
  7  8  1  0
  8  9  1  0
  9 10  2  0
  9 11  1  0
 11 12  1  0
 12 13  2  0
 12 14  1  0
 14 15  2  0
 15 16  1  0
 16 17  2  0
 17 18  1  0
  7 19  1  0
 19 20  1  0
 20 21  2  0
 21 22  1  0
 22 23  1  0
 23 24  1  0
 24 25  1  0
 21  6  1  0
 18 14  1  0
 25 20  1  0
  1 26  1  0
  1 27  1  0
  1 28  1  0
  2 29  1  0
  2 30  1  0
  8 31  1  0
 11 32  1  0
 15 33  1  0
 16 34  1  0
 17 35  1  0
 22 36  1  0
 22 37  1  0
 23 38  1  0
 23 39  1  0
 24 40  1  0
 24 41  1  0
 25 42  1  0
 25 43  1  0
M  END
$$$$
