
     RDKit          3D

 40 43  0  0  0  0  0  0  0  0999 V2000
    6.7500    0.3372    2.3962 O   0  0  0  0  0  0  0  0  0  0  0  0
    6.1919    1.2355    1.7497 N   0  0  0  0  0  4  0  0  0  0  0  0
    6.6732    2.3596    1.5491 O   0  0  0  0  0  1  0  0  0  0  0  0
    4.8720    0.9434    1.1765 C   0  0  0  0  0  0  0  0  0  0  0  0
    4.2775   -0.3055    1.4028 C   0  0  0  0  0  0  0  0  0  0  0  0
    3.0198   -0.5807    0.8555 C   0  0  0  0  0  0  0  0  0  0  0  0
    2.3552    0.3807    0.0797 C   0  0  0  0  0  0  0  0  0  0  0  0
    1.0407    0.0973   -0.4929 C   0  0  0  0  0  0  0  0  0  0  0  0
    0.0615    1.0773   -0.5168 N   0  0  0  0  0  0  0  0  0  0  0  0
   -1.0421    0.4493   -1.0676 N   0  0  0  0  0  0  0  0  0  0  0  0
   -2.3071    1.1232   -1.2638 C   0  0  0  0  0  0  0  0  0  0  0  0
   -3.2388    0.9140   -0.0954 C   0  0  0  0  0  0  0  0  0  0  0  0
   -3.0078    1.5667    1.1252 C   0  0  0  0  0  0  0  0  0  0  0  0
   -3.8687    1.3748    2.2066 C   0  0  0  0  0  0  0  0  0  0  0  0
   -4.9682    0.5281    2.0810 C   0  0  0  0  0  0  0  0  0  0  0  0
   -5.2056   -0.1302    0.8758 C   0  0  0  0  0  0  0  0  0  0  0  0
   -4.3452    0.0599   -0.2069 C   0  0  0  0  0  0  0  0  0  0  0  0
   -0.7093   -0.8171   -1.3986 C   0  0  0  0  0  0  0  0  0  0  0  0
   -1.2698   -1.8954   -1.9667 C   0  0  0  0  0  0  0  0  0  0  0  0
   -2.5106   -1.9735   -2.4242 O   0  0  0  0  0  0  0  0  0  0  0  0
   -0.3483   -2.9339   -2.0187 N   0  0  0  0  0  0  0  0  0  0  0  0
    0.8493   -2.4430   -1.4696 C   0  0  0  0  0  0  0  0  0  0  0  0
    1.9239   -3.2172   -1.4351 O   0  0  0  0  0  0  0  0  0  0  0  0
    0.5922   -1.1567   -1.0867 C   0  0  0  0  0  0  0  0  0  0  0  0
    2.9582    1.6307   -0.1282 C   0  0  0  0  0  0  0  0  0  0  0  0
    4.2153    1.9161    0.4133 C   0  0  0  0  0  0  0  0  0  0  0  0
    4.7695   -1.0641    2.0085 H   0  0  0  0  0  0  0  0  0  0  0  0
    2.5508   -1.5398    1.0676 H   0  0  0  0  0  0  0  0  0  0  0  0
   -2.1024    2.1922   -1.3959 H   0  0  0  0  0  0  0  0  0  0  0  0
   -2.7452    0.7654   -2.2019 H   0  0  0  0  0  0  0  0  0  0  0  0
   -2.1451    2.2217    1.2393 H   0  0  0  0  0  0  0  0  0  0  0  0
   -3.6772    1.8833    3.1478 H   0  0  0  0  0  0  0  0  0  0  0  0
   -5.6369    0.3778    2.9242 H   0  0  0  0  0  0  0  0  0  0  0  0
   -6.0598   -0.7952    0.7797 H   0  0  0  0  0  0  0  0  0  0  0  0
   -4.5395   -0.4683   -1.1380 H   0  0  0  0  0  0  0  0  0  0  0  0
   -2.6736   -2.8710   -2.7628 H   0  0  0  0  0  0  0  0  0  0  0  0
   -0.4677   -3.8632   -2.3962 H   0  0  0  0  0  0  0  0  0  0  0  0
    2.6676   -2.6642   -1.1332 H   0  0  0  0  0  0  0  0  0  0  0  0
    2.4422    2.3906   -0.7143 H   0  0  0  0  0  0  0  0  0  0  0  0
    4.6579    2.8940    0.2349 H   0  0  0  0  0  0  0  0  0  0  0  0
  1  2  2  0
  2  3  1  0
  2  4  1  0
  4  5  2  0
  5  6  1  0
  6  7  2  0
  7  8  1  0
  8  9  2  0
  9 10  1  0
 10 11  1  0
 11 12  1  0
 12 13  2  0
 13 14  1  0
 14 15  2  0
 15 16  1  0
 16 17  2  0
 10 18  1  0
 18 19  2  0
 19 20  1  0
 19 21  1  0
 21 22  1  0
 22 23  1  0
 22 24  2  0
  7 25  1  0
 25 26  2  0
 26  4  1  0
 24  8  1  0
 17 12  1  0
 24 18  1  0
  5 27  1  0
  6 28  1  0
 11 29  1  0
 11 30  1  0
 13 31  1  0
 14 32  1  0
 15 33  1  0
 16 34  1  0
 17 35  1  0
 20 36  1  0
 21 37  1  0
 23 38  1  0
 25 39  1  0
 26 40  1  0
M  CHG  2   2   1   3  -1
M  END
$$$$
