
     RDKit          3D

 48 50  0  0  0  0  0  0  0  0999 V2000
    0.9920    1.5369    3.6696 C   0  0  0  0  0  0  0  0  0  0  0  0
    0.8319    0.1299    3.1138 C   0  0  0  0  0  0  0  0  0  0  0  0
    1.6488   -0.0723    1.8749 C   0  0  0  0  0  0  0  0  0  0  0  0
    1.2473   -0.1818    0.6102 C   0  0  0  0  0  0  0  0  0  0  0  0
   -0.1324   -0.0916    0.1386 C   0  0  0  0  0  0  0  0  0  0  0  0
   -0.9146   -1.2479    0.0176 C   0  0  0  0  0  0  0  0  0  0  0  0
   -2.2406   -1.1642   -0.4119 C   0  0  0  0  0  0  0  0  0  0  0  0
   -3.0808   -2.2362   -0.5686 O   0  0  0  0  0  0  0  0  0  0  0  0
   -2.5043   -3.5333   -0.5035 C   0  0  0  0  0  0  0  0  0  0  0  0
   -2.7856    0.1015   -0.6874 C   0  0  0  0  0  0  0  0  0  0  0  0
   -4.0801    0.1909   -1.1518 O   0  0  0  0  0  0  0  0  0  0  0  0
   -4.9777    0.3476   -0.0543 C   0  0  0  0  0  0  0  0  0  0  0  0
   -2.0143    1.2705   -0.5735 C   0  0  0  0  0  0  0  0  0  0  0  0
   -2.6447    2.4483   -0.8810 O   0  0  0  0  0  0  0  0  0  0  0  0
   -1.8448    3.6207   -0.9487 C   0  0  0  0  0  0  0  0  0  0  0  0
   -0.6902    1.1635   -0.1444 C   0  0  0  0  0  0  0  0  0  0  0  0
    2.4282   -0.3826   -0.2781 C   0  0  0  0  0  0  0  0  0  0  0  0
    2.6717    0.7262   -1.3149 C   0  0  0  0  0  0  0  0  0  0  0  0
    3.3802    0.0144   -2.4609 C   0  0  0  0  0  0  0  0  0  0  0  0
    2.6824   -1.3333   -2.5122 C   0  0  0  0  0  0  0  0  0  0  0  0
    2.4830   -1.7168   -1.0471 C   0  0  0  0  0  0  0  0  0  0  0  0
    3.5264   -0.3459    0.7897 C   0  0  0  0  0  0  0  0  0  0  0  0
    4.7263   -0.4530    0.5633 O   0  0  0  0  0  0  0  0  0  0  0  0
    3.0252   -0.1780    2.0582 O   0  0  0  0  0  0  0  0  0  0  0  0
    0.3866    1.6564    4.5738 H   0  0  0  0  0  0  0  0  0  0  0  0
    0.6663    2.2888    2.9428 H   0  0  0  0  0  0  0  0  0  0  0  0
    2.0345    1.7457    3.9326 H   0  0  0  0  0  0  0  0  0  0  0  0
    1.1415   -0.6004    3.8706 H   0  0  0  0  0  0  0  0  0  0  0  0
   -0.2301   -0.0583    2.9216 H   0  0  0  0  0  0  0  0  0  0  0  0
   -0.4720   -2.2046    0.2749 H   0  0  0  0  0  0  0  0  0  0  0  0
   -2.1611   -3.7580    0.5115 H   0  0  0  0  0  0  0  0  0  0  0  0
   -1.6927   -3.6465   -1.2301 H   0  0  0  0  0  0  0  0  0  0  0  0
   -3.2830   -4.2585   -0.7588 H   0  0  0  0  0  0  0  0  0  0  0  0
   -5.9920    0.4148   -0.4590 H   0  0  0  0  0  0  0  0  0  0  0  0
   -4.7743    1.2701    0.5005 H   0  0  0  0  0  0  0  0  0  0  0  0
   -4.9401   -0.5152    0.6198 H   0  0  0  0  0  0  0  0  0  0  0  0
   -2.4816    4.4406   -1.2947 H   0  0  0  0  0  0  0  0  0  0  0  0
   -1.4628    3.8917    0.0409 H   0  0  0  0  0  0  0  0  0  0  0  0
   -1.0290    3.5054   -1.6703 H   0  0  0  0  0  0  0  0  0  0  0  0
   -0.0707    2.0459   -0.0183 H   0  0  0  0  0  0  0  0  0  0  0  0
    1.7316    1.1452   -1.6903 H   0  0  0  0  0  0  0  0  0  0  0  0
    3.2770    1.5558   -0.9336 H   0  0  0  0  0  0  0  0  0  0  0  0
    3.2948    0.5622   -3.4037 H   0  0  0  0  0  0  0  0  0  0  0  0
    4.4449   -0.1144   -2.2347 H   0  0  0  0  0  0  0  0  0  0  0  0
    1.7078   -1.2319   -3.0048 H   0  0  0  0  0  0  0  0  0  0  0  0
    3.2617   -2.0819   -3.0604 H   0  0  0  0  0  0  0  0  0  0  0  0
    1.5834   -2.3293   -0.9397 H   0  0  0  0  0  0  0  0  0  0  0  0
    3.3259   -2.3367   -0.7174 H   0  0  0  0  0  0  0  0  0  0  0  0
  1  2  1  0
  2  3  1  0
  3  4  2  0
  4  5  1  0
  5  6  2  0
  6  7  1  0
  7  8  1  0
  8  9  1  0
  7 10  2  0
 10 11  1  0
 11 12  1  0
 10 13  1  0
 13 14  1  0
 14 15  1  0
 13 16  2  0
  4 17  1  0
 17 18  1  0
 18 19  1  0
 19 20  1  0
 20 21  1  0
 17 22  1  0
 22 23  2  0
 22 24  1  0
 24  3  1  0
 16  5  1  0
 21 17  1  0
  1 25  1  0
  1 26  1  0
  1 27  1  0
  2 28  1  0
  2 29  1  0
  6 30  1  0
  9 31  1  0
  9 32  1  0
  9 33  1  0
 12 34  1  0
 12 35  1  0
 12 36  1  0
 15 37  1  0
 15 38  1  0
 15 39  1  0
 16 40  1  0
 18 41  1  0
 18 42  1  0
 19 43  1  0
 19 44  1  0
 20 45  1  0
 20 46  1  0
 21 47  1  0
 21 48  1  0
M  END
$$$$
