
     RDKit          3D

 55 59  0  0  0  0  0  0  0  0999 V2000
    3.9893   -1.9225   -1.4921 C   0  0  0  0  0  0  0  0  0  0  0  0
    4.0753   -0.8827   -0.4957 N   0  0  0  0  0  0  0  0  0  0  0  0
    3.0359   -0.3981    0.2722 C   0  0  0  0  0  0  0  0  0  0  0  0
    1.7478   -0.8086    0.1058 N   0  0  0  0  0  0  0  0  0  0  0  0
    1.1069   -0.5625   -1.2008 C   0  0  0  0  0  0  0  0  0  0  0  0
   -0.2375    0.1872   -1.0634 C   0  0  0  0  0  0  0  0  0  0  0  0
   -1.2346   -0.5199   -0.2220 N   0  0  0  0  0  0  0  0  0  0  0  0
   -2.3687    0.3734    0.1532 C   0  0  0  0  0  0  0  0  0  0  0  0
   -3.0205    1.0637   -1.0527 C   0  0  0  0  0  0  0  0  0  0  0  0
   -3.4807    0.3310   -2.1599 C   0  0  0  0  0  0  0  0  0  0  0  0
   -4.0771    0.9749   -3.2455 C   0  0  0  0  0  0  0  0  0  0  0  0
   -4.2287    2.3595   -3.2377 C   0  0  0  0  0  0  0  0  0  0  0  0
   -3.7879    3.1011   -2.1446 C   0  0  0  0  0  0  0  0  0  0  0  0
   -3.1888    2.4585   -1.0586 C   0  0  0  0  0  0  0  0  0  0  0  0
   -3.4551   -0.3291    0.9823 C   0  0  0  0  0  0  0  0  0  0  0  0
   -3.8599   -1.6475    0.7137 C   0  0  0  0  0  0  0  0  0  0  0  0
   -4.8582   -2.2582    1.4748 C   0  0  0  0  0  0  0  0  0  0  0  0
   -5.4732   -1.5585    2.5091 C   0  0  0  0  0  0  0  0  0  0  0  0
   -5.0933   -0.2470    2.7825 C   0  0  0  0  0  0  0  0  0  0  0  0
   -4.0938    0.3653    2.0237 C   0  0  0  0  0  0  0  0  0  0  0  0
   -0.5609   -1.1100    0.9696 C   0  0  0  0  0  0  0  0  0  0  0  0
    0.8623   -0.5881    1.2639 C   0  0  0  0  0  0  0  0  0  0  0  0
    3.4856    0.4356    1.1847 N   0  0  0  0  0  0  0  0  0  0  0  0
    4.8306    0.5557    0.9558 C   0  0  0  0  0  0  0  0  0  0  0  0
    5.7793    1.3453    1.6216 C   0  0  0  0  0  0  0  0  0  0  0  0
    7.1128    1.2972    1.1991 C   0  0  0  0  0  0  0  0  0  0  0  0
    7.4939    0.4783    0.1351 C   0  0  0  0  0  0  0  0  0  0  0  0
    6.5613   -0.3176   -0.5402 C   0  0  0  0  0  0  0  0  0  0  0  0
    5.2333   -0.2536   -0.1013 C   0  0  0  0  0  0  0  0  0  0  0  0
    4.9489   -2.4388   -1.5666 H   0  0  0  0  0  0  0  0  0  0  0  0
    3.2291   -2.6497   -1.1982 H   0  0  0  0  0  0  0  0  0  0  0  0
    3.7364   -1.4614   -2.4498 H   0  0  0  0  0  0  0  0  0  0  0  0
    0.9349   -1.5285   -1.6902 H   0  0  0  0  0  0  0  0  0  0  0  0
    1.7573    0.0256   -1.8611 H   0  0  0  0  0  0  0  0  0  0  0  0
   -0.0323    1.1866   -0.6576 H   0  0  0  0  0  0  0  0  0  0  0  0
   -0.6367    0.3210   -2.0738 H   0  0  0  0  0  0  0  0  0  0  0  0
   -1.9391    1.1589    0.7918 H   0  0  0  0  0  0  0  0  0  0  0  0
   -3.3673   -0.7515   -2.1808 H   0  0  0  0  0  0  0  0  0  0  0  0
   -4.4238    0.3934   -4.0953 H   0  0  0  0  0  0  0  0  0  0  0  0
   -4.6957    2.8608   -4.0818 H   0  0  0  0  0  0  0  0  0  0  0  0
   -3.9134    4.1812   -2.1364 H   0  0  0  0  0  0  0  0  0  0  0  0
   -2.8558    3.0557   -0.2142 H   0  0  0  0  0  0  0  0  0  0  0  0
   -3.3895   -2.2073   -0.0910 H   0  0  0  0  0  0  0  0  0  0  0  0
   -5.1558   -3.2799    1.2574 H   0  0  0  0  0  0  0  0  0  0  0  0
   -6.2521   -2.0336    3.0994 H   0  0  0  0  0  0  0  0  0  0  0  0
   -5.5783    0.3013    3.5846 H   0  0  0  0  0  0  0  0  0  0  0  0
   -3.8181    1.3931    2.2471 H   0  0  0  0  0  0  0  0  0  0  0  0
   -1.1524   -1.0009    1.8867 H   0  0  0  0  0  0  0  0  0  0  0  0
   -0.4949   -2.1915    0.7838 H   0  0  0  0  0  0  0  0  0  0  0  0
    1.2578   -1.1263    2.1342 H   0  0  0  0  0  0  0  0  0  0  0  0
    0.8150    0.4779    1.5229 H   0  0  0  0  0  0  0  0  0  0  0  0
    5.4738    1.9798    2.4456 H   0  0  0  0  0  0  0  0  0  0  0  0
    7.8564    1.9051    1.7074 H   0  0  0  0  0  0  0  0  0  0  0  0
    8.5360    0.4566   -0.1759 H   0  0  0  0  0  0  0  0  0  0  0  0
    6.8642   -0.9503   -1.3675 H   0  0  0  0  0  0  0  0  0  0  0  0
  1  2  1  0
  2  3  1  0
  3  4  1  0
  4  5  1  0
  5  6  1  0
  6  7  1  0
  7  8  1  0
  8  9  1  0
  9 10  2  0
 10 11  1  0
 11 12  2  0
 12 13  1  0
 13 14  2  0
  8 15  1  0
 15 16  2  0
 16 17  1  0
 17 18  2  0
 18 19  1  0
 19 20  2  0
  7 21  1  0
 21 22  1  0
  3 23  2  0
 23 24  1  0
 24 25  2  0
 25 26  1  0
 26 27  2  0
 27 28  1  0
 28 29  2  0
 29  2  1  0
 22  4  1  0
 29 24  1  0
 14  9  1  0
 20 15  1  0
  1 30  1  0
  1 31  1  0
  1 32  1  0
  5 33  1  0
  5 34  1  0
  6 35  1  0
  6 36  1  0
  8 37  1  0
 10 38  1  0
 11 39  1  0
 12 40  1  0
 13 41  1  0
 14 42  1  0
 16 43  1  0
 17 44  1  0
 18 45  1  0
 19 46  1  0
 20 47  1  0
 21 48  1  0
 21 49  1  0
 22 50  1  0
 22 51  1  0
 25 52  1  0
 26 53  1  0
 27 54  1  0
 28 55  1  0
M  END
$$$$
