
     RDKit          3D

 38 39  0  0  0  0  0  0  0  0999 V2000
   -3.3557   -0.6664    2.2103 C   0  0  0  0  0  0  0  0  0  0  0  0
   -3.5252    0.4768    1.3733 O   0  0  0  0  0  0  0  0  0  0  0  0
   -2.9643    0.3313    0.1302 C   0  0  0  0  0  0  0  0  0  0  0  0
   -1.6424   -0.1080   -0.0292 C   0  0  0  0  0  0  0  0  0  0  0  0
   -1.0847   -0.2589   -1.3069 C   0  0  0  0  0  0  0  0  0  0  0  0
    0.2913   -0.7302   -1.5253 C   0  0  0  0  0  0  0  0  0  0  0  0
    1.3186   -0.4966   -0.6934 C   0  0  0  0  0  0  0  0  0  0  0  0
    2.6793   -0.9856   -1.0513 C   0  0  0  0  0  0  0  0  0  0  0  0
    2.9385   -1.4450   -2.1582 O   0  0  0  0  0  0  0  0  0  0  0  0
    3.7494   -0.8559   -0.0292 C   0  0  0  0  0  0  0  0  0  0  0  0
    3.4929   -0.9955    1.3413 C   0  0  0  0  0  0  0  0  0  0  0  0
    4.5355   -0.8583    2.2615 C   0  0  0  0  0  0  0  0  0  0  0  0
    5.8253   -0.5949    1.8118 C   0  0  0  0  0  0  0  0  0  0  0  0
    6.8052   -0.4627    2.7479 O   0  0  0  0  0  0  0  0  0  0  0  0
    6.0989   -0.4751    0.4526 C   0  0  0  0  0  0  0  0  0  0  0  0
    5.0581   -0.6108   -0.4699 C   0  0  0  0  0  0  0  0  0  0  0  0
   -1.8847    0.0074   -2.4250 C   0  0  0  0  0  0  0  0  0  0  0  0
   -3.1943    0.4681   -2.2700 C   0  0  0  0  0  0  0  0  0  0  0  0
   -3.7248    0.6682   -0.9962 C   0  0  0  0  0  0  0  0  0  0  0  0
   -5.0154    1.1264   -0.9692 O   0  0  0  0  0  0  0  0  0  0  0  0
   -5.2454    2.1859   -0.0282 C   0  0  0  0  0  0  0  0  0  0  0  0
   -6.3113    3.0733   -0.5254 C   0  0  0  0  0  0  0  0  0  0  0  0
   -7.1460    3.7878   -0.9061 N   0  0  0  0  0  0  0  0  0  0  0  0
   -3.5143   -1.6018    1.6618 H   0  0  0  0  0  0  0  0  0  0  0  0
   -4.1070   -0.6123    3.0041 H   0  0  0  0  0  0  0  0  0  0  0  0
   -2.3692   -0.6545    2.6832 H   0  0  0  0  0  0  0  0  0  0  0  0
   -1.0452   -0.3307    0.8479 H   0  0  0  0  0  0  0  0  0  0  0  0
    0.4624   -1.2775   -2.4531 H   0  0  0  0  0  0  0  0  0  0  0  0
    1.2059    0.0733    0.2197 H   0  0  0  0  0  0  0  0  0  0  0  0
    2.4992   -1.2306    1.7112 H   0  0  0  0  0  0  0  0  0  0  0  0
    4.3451   -0.9645    3.3259 H   0  0  0  0  0  0  0  0  0  0  0  0
    7.6488   -0.2887    2.2965 H   0  0  0  0  0  0  0  0  0  0  0  0
    7.1040   -0.2772    0.0929 H   0  0  0  0  0  0  0  0  0  0  0  0
    5.2671   -0.5172   -1.5346 H   0  0  0  0  0  0  0  0  0  0  0  0
   -1.4910   -0.1230   -3.4314 H   0  0  0  0  0  0  0  0  0  0  0  0
   -3.7965    0.6853   -3.1481 H   0  0  0  0  0  0  0  0  0  0  0  0
   -4.3396    2.7879    0.1310 H   0  0  0  0  0  0  0  0  0  0  0  0
   -5.5684    1.7503    0.9251 H   0  0  0  0  0  0  0  0  0  0  0  0
  1  2  1  0
  2  3  1  0
  3  4  2  0
  4  5  1  0
  5  6  1  0
  6  7  2  3
  7  8  1  0
  8  9  2  0
  8 10  1  0
 10 11  2  0
 11 12  1  0
 12 13  2  0
 13 14  1  0
 13 15  1  0
 15 16  2  0
  5 17  2  0
 17 18  1  0
 18 19  2  0
 19 20  1  0
 20 21  1  0
 21 22  1  0
 22 23  3  0
 19  3  1  0
 16 10  1  0
  1 24  1  0
  1 25  1  0
  1 26  1  0
  4 27  1  0
  6 28  1  0
  7 29  1  0
 11 30  1  0
 12 31  1  0
 14 32  1  0
 15 33  1  0
 16 34  1  0
 17 35  1  0
 18 36  1  0
 21 37  1  0
 21 38  1  0
M  END
$$$$
