
     RDKit          3D

 51 53  0  0  0  0  0  0  0  0999 V2000
   -2.4449   -0.2825   -4.2197 C   0  0  0  0  0  0  0  0  0  0  0  0
   -2.2209   -1.5892   -3.7102 O   0  0  0  0  0  0  0  0  0  0  0  0
   -2.7529   -1.7812   -2.3974 C   0  0  0  0  0  0  0  0  0  0  0  0
   -1.7961   -1.2602   -1.3316 C   0  0  0  0  0  0  0  0  0  0  0  0
   -2.3374   -1.5488    0.0640 C   0  0  0  0  0  0  0  0  0  0  0  0
   -1.5419   -0.9537    1.1200 N   0  0  0  0  0  0  0  0  0  0  0  0
   -0.4441   -1.4990    1.7302 C   0  0  0  0  0  0  0  0  0  0  0  0
    0.3173   -2.9689    1.2316 S   0  0  0  0  0  0  0  0  0  0  0  0
    1.7814   -2.9794    2.3109 C   0  0  0  0  0  0  0  0  0  0  0  0
    2.7117   -1.8025    2.1156 C   0  0  0  0  0  0  0  0  0  0  0  0
    3.4160   -1.3523    3.0118 O   0  0  0  0  0  0  0  0  0  0  0  0
    2.7462   -1.3660    0.8257 O   0  0  0  0  0  0  0  0  0  0  0  0
    3.5749   -0.2148    0.5690 C   0  0  0  0  0  0  0  0  0  0  0  0
    3.9368   -0.2558   -0.9232 C   0  0  0  0  0  0  0  0  0  0  0  0
    4.2490    1.1286   -1.4693 C   0  0  0  0  0  0  0  0  0  0  0  0
    3.0529    2.0743   -1.3341 C   0  0  0  0  0  0  0  0  0  0  0  0
    2.0887    1.6867   -0.2111 C   0  0  0  0  0  0  0  0  0  0  0  0
    2.8288    1.0713    0.9693 C   0  0  0  0  0  0  0  0  0  0  0  0
   -0.0773   -0.7519    2.7390 N   0  0  0  0  0  0  0  0  0  0  0  0
   -0.9241    0.3237    2.7895 N   0  0  0  0  0  0  0  0  0  0  0  0
   -1.7964    0.2158    1.8045 C   0  0  0  0  0  0  0  0  0  0  0  0
   -2.8456    1.1745    1.5996 C   0  0  0  0  0  0  0  0  0  0  0  0
   -3.5574    1.8069    2.6023 C   0  0  0  0  0  0  0  0  0  0  0  0
   -4.5169    2.7344    2.1007 C   0  0  0  0  0  0  0  0  0  0  0  0
   -4.4931    2.8004    0.7298 C   0  0  0  0  0  0  0  0  0  0  0  0
   -3.3191    1.7540    0.0606 S   0  0  0  0  0  0  0  0  0  0  0  0
   -3.5210   -0.0826   -4.3042 H   0  0  0  0  0  0  0  0  0  0  0  0
   -1.9950   -0.2235   -5.2198 H   0  0  0  0  0  0  0  0  0  0  0  0
   -1.9714    0.4723   -3.5865 H   0  0  0  0  0  0  0  0  0  0  0  0
   -3.7452   -1.3212   -2.3123 H   0  0  0  0  0  0  0  0  0  0  0  0
   -2.8844   -2.8585   -2.2683 H   0  0  0  0  0  0  0  0  0  0  0  0
   -0.8104   -1.7229   -1.4707 H   0  0  0  0  0  0  0  0  0  0  0  0
   -1.6267   -0.1889   -1.4671 H   0  0  0  0  0  0  0  0  0  0  0  0
   -3.3695   -1.1929    0.1733 H   0  0  0  0  0  0  0  0  0  0  0  0
   -2.3857   -2.6314    0.2444 H   0  0  0  0  0  0  0  0  0  0  0  0
    2.3473   -3.8943    2.1134 H   0  0  0  0  0  0  0  0  0  0  0  0
    1.4456   -2.9949    3.3553 H   0  0  0  0  0  0  0  0  0  0  0  0
    4.5018   -0.2946    1.1548 H   0  0  0  0  0  0  0  0  0  0  0  0
    3.1232   -0.7024   -1.5074 H   0  0  0  0  0  0  0  0  0  0  0  0
    4.7980   -0.9203   -1.0667 H   0  0  0  0  0  0  0  0  0  0  0  0
    4.5440    1.0623   -2.5257 H   0  0  0  0  0  0  0  0  0  0  0  0
    5.1080    1.5451   -0.9278 H   0  0  0  0  0  0  0  0  0  0  0  0
    2.4989    2.1126   -2.2824 H   0  0  0  0  0  0  0  0  0  0  0  0
    3.4314    3.0895   -1.1599 H   0  0  0  0  0  0  0  0  0  0  0  0
    1.5290    2.5717    0.1127 H   0  0  0  0  0  0  0  0  0  0  0  0
    1.3514    0.9692   -0.5917 H   0  0  0  0  0  0  0  0  0  0  0  0
    2.1180    0.8840    1.7803 H   0  0  0  0  0  0  0  0  0  0  0  0
    3.5539    1.8022    1.3429 H   0  0  0  0  0  0  0  0  0  0  0  0
   -3.3967    1.6074    3.6547 H   0  0  0  0  0  0  0  0  0  0  0  0
   -5.1808    3.3258    2.7202 H   0  0  0  0  0  0  0  0  0  0  0  0
   -5.0990    3.4219    0.0904 H   0  0  0  0  0  0  0  0  0  0  0  0
  1  2  1  0
  2  3  1  0
  3  4  1  0
  4  5  1  0
  5  6  1  0
  6  7  1  0
  7  8  1  0
  8  9  1  0
  9 10  1  0
 10 11  2  0
 10 12  1  0
 12 13  1  0
 13 14  1  0
 14 15  1  0
 15 16  1  0
 16 17  1  0
 17 18  1  0
  7 19  2  0
 19 20  1  0
 20 21  2  0
 21 22  1  0
 22 23  2  0
 23 24  1  0
 24 25  2  0
 25 26  1  0
 21  6  1  0
 26 22  1  0
 18 13  1  0
  1 27  1  0
  1 28  1  0
  1 29  1  0
  3 30  1  0
  3 31  1  0
  4 32  1  0
  4 33  1  0
  5 34  1  0
  5 35  1  0
  9 36  1  0
  9 37  1  0
 13 38  1  0
 14 39  1  0
 14 40  1  0
 15 41  1  0
 15 42  1  0
 16 43  1  0
 16 44  1  0
 17 45  1  0
 17 46  1  0
 18 47  1  0
 18 48  1  0
 23 49  1  0
 24 50  1  0
 25 51  1  0
M  END
$$$$
