
     RDKit          3D

 40 42  0  0  0  0  0  0  0  0999 V2000
    4.8432   -4.0266    0.6133 C   0  0  0  0  0  0  0  0  0  0  0  0
    4.1843   -2.6826    0.7267 C   0  0  0  0  0  0  0  0  0  0  0  0
    4.4094   -1.8786    1.8529 C   0  0  0  0  0  0  0  0  0  0  0  0
    3.7798   -0.6390    1.9758 C   0  0  0  0  0  0  0  0  0  0  0  0
    2.9057   -0.2115    0.9739 C   0  0  0  0  0  0  0  0  0  0  0  0
    2.1140    1.3685    1.0979 S   0  0  0  0  0  6  0  0  0  0  0  0
    2.7386    2.1169    2.1694 O   0  0  0  0  0  0  0  0  0  0  0  0
    1.9979    1.9253   -0.2316 O   0  0  0  0  0  0  0  0  0  0  0  0
    0.5835    0.9232    1.6986 N   0  0  0  0  0  0  0  0  0  0  0  0
   -0.5547    1.2760    0.8416 C   0  0  0  0  0  0  0  0  0  0  0  0
   -1.4111    0.3555    0.2940 C   0  0  0  0  0  0  0  0  0  0  0  0
   -2.3803    1.1116   -0.4246 C   0  0  0  0  0  0  0  0  0  0  0  0
   -3.5254    0.6161   -1.2003 C   0  0  0  0  0  0  0  0  0  0  0  0
   -4.4882    1.5095   -1.6954 C   0  0  0  0  0  0  0  0  0  0  0  0
   -5.5825    1.0510   -2.4344 C   0  0  0  0  0  0  0  0  0  0  0  0
   -5.7289   -0.3100   -2.6905 C   0  0  0  0  0  0  0  0  0  0  0  0
   -4.7825   -1.2110   -2.2091 C   0  0  0  0  0  0  0  0  0  0  0  0
   -3.6875   -0.7519   -1.4692 C   0  0  0  0  0  0  0  0  0  0  0  0
   -2.1281    2.4278   -0.3035 N   0  0  0  0  0  0  0  0  0  0  0  0
   -1.0142    2.5011    0.4491 N   0  0  0  0  0  0  0  0  0  0  0  0
   -0.4651    3.7984    0.7589 C   0  0  0  0  0  0  0  0  0  0  0  0
    2.6684   -1.0029   -0.1528 C   0  0  0  0  0  0  0  0  0  0  0  0
    3.3022   -2.2401   -0.2694 C   0  0  0  0  0  0  0  0  0  0  0  0
    4.2265   -4.7881    1.0996 H   0  0  0  0  0  0  0  0  0  0  0  0
    4.9861   -4.3060   -0.4354 H   0  0  0  0  0  0  0  0  0  0  0  0
    5.8319   -4.0165    1.0833 H   0  0  0  0  0  0  0  0  0  0  0  0
    5.0833   -2.2134    2.6395 H   0  0  0  0  0  0  0  0  0  0  0  0
    3.9768   -0.0208    2.8484 H   0  0  0  0  0  0  0  0  0  0  0  0
    0.5088    1.2844    2.6529 H   0  0  0  0  0  0  0  0  0  0  0  0
   -1.3512   -0.7162    0.4058 H   0  0  0  0  0  0  0  0  0  0  0  0
   -4.3906    2.5772   -1.5066 H   0  0  0  0  0  0  0  0  0  0  0  0
   -6.3162    1.7596   -2.8091 H   0  0  0  0  0  0  0  0  0  0  0  0
   -6.5785   -0.6669   -3.2668 H   0  0  0  0  0  0  0  0  0  0  0  0
   -4.8929   -2.2734   -2.4120 H   0  0  0  0  0  0  0  0  0  0  0  0
   -2.9650   -1.4821   -1.1171 H   0  0  0  0  0  0  0  0  0  0  0  0
    0.1354    3.7329    1.6688 H   0  0  0  0  0  0  0  0  0  0  0  0
    0.1494    4.1197   -0.0844 H   0  0  0  0  0  0  0  0  0  0  0  0
   -1.2867    4.5018    0.9193 H   0  0  0  0  0  0  0  0  0  0  0  0
    1.9955   -0.6628   -0.9377 H   0  0  0  0  0  0  0  0  0  0  0  0
    3.1091   -2.8563   -1.1452 H   0  0  0  0  0  0  0  0  0  0  0  0
  1  2  1  0
  2  3  2  0
  3  4  1  0
  4  5  2  0
  5  6  1  0
  6  7  2  0
  6  8  2  0
  6  9  1  0
  9 10  1  0
 10 11  2  0
 11 12  1  0
 12 13  1  0
 13 14  2  0
 14 15  1  0
 15 16  2  0
 16 17  1  0
 17 18  2  0
 12 19  2  0
 19 20  1  0
 20 21  1  0
  5 22  1  0
 22 23  2  0
 23  2  1  0
 20 10  1  0
 18 13  1  0
  1 24  1  0
  1 25  1  0
  1 26  1  0
  3 27  1  0
  4 28  1  0
  9 29  1  0
 11 30  1  0
 14 31  1  0
 15 32  1  0
 16 33  1  0
 17 34  1  0
 18 35  1  0
 21 36  1  0
 21 37  1  0
 21 38  1  0
 22 39  1  0
 23 40  1  0
M  END
$$$$
