
     RDKit          3D

 34 36  0  0  0  0  0  0  0  0999 V2000
   -5.4112   -0.5439    0.1818 C   0  0  0  0  0  0  0  0  0  0  0  0
   -4.0774    0.0840   -0.0315 C   0  0  0  0  0  0  0  0  0  0  0  0
   -2.8419   -0.5224   -0.0793 C   0  0  0  0  0  0  0  0  0  0  0  0
   -1.7613    0.4052   -0.3022 C   0  0  0  0  0  0  0  0  0  0  0  0
   -0.2963    0.0149   -0.4097 C   0  0  0  0  0  0  0  0  0  0  0  0
   -0.0669   -1.0990   -1.4095 C   0  0  0  0  0  0  0  0  0  0  0  0
    1.2359   -0.9279   -2.1197 C   0  0  0  0  0  0  0  0  0  0  0  0
    1.2777   -1.0065   -3.3529 O   0  0  0  0  0  0  0  0  0  0  0  0
    2.4108   -0.7306   -1.4800 N   0  0  0  0  0  0  0  0  0  0  0  0
    2.8279   -0.6078   -0.1398 C   0  0  0  0  0  0  0  0  0  0  0  0
    4.2345   -0.5338   -0.0087 C   0  0  0  0  0  0  0  0  0  0  0  0
    4.8639   -0.4357    1.2321 C   0  0  0  0  0  0  0  0  0  0  0  0
    4.0966   -0.4082    2.3816 C   0  0  0  0  0  0  0  0  0  0  0  0
    2.7080   -0.4684    2.2765 C   0  0  0  0  0  0  0  0  0  0  0  0
    2.0484   -0.5564    1.0278 C   0  0  0  0  0  0  0  0  0  0  0  0
    0.2759   -0.5730    1.2136 S   0  0  0  0  0  0  0  0  0  0  0  0
   -2.2513    1.7011   -0.4094 C   0  0  0  0  0  0  0  0  0  0  0  0
   -1.4891    2.9674   -0.6337 C   0  0  0  0  0  0  0  0  0  0  0  0
   -3.9538    1.7686   -0.2532 S   0  0  0  0  0  0  0  0  0  0  0  0
   -5.3180   -1.6280    0.3052 H   0  0  0  0  0  0  0  0  0  0  0  0
   -5.8892   -0.1447    1.0825 H   0  0  0  0  0  0  0  0  0  0  0  0
   -6.0688   -0.3602   -0.6742 H   0  0  0  0  0  0  0  0  0  0  0  0
   -2.7079   -1.5912    0.0448 H   0  0  0  0  0  0  0  0  0  0  0  0
    0.2815    0.9088   -0.6724 H   0  0  0  0  0  0  0  0  0  0  0  0
   -0.1145   -2.1097   -0.9863 H   0  0  0  0  0  0  0  0  0  0  0  0
   -0.8394   -1.0619   -2.1906 H   0  0  0  0  0  0  0  0  0  0  0  0
    3.1526   -0.7010   -2.1727 H   0  0  0  0  0  0  0  0  0  0  0  0
    4.8746   -0.5638   -0.8896 H   0  0  0  0  0  0  0  0  0  0  0  0
    5.9480   -0.3871    1.2942 H   0  0  0  0  0  0  0  0  0  0  0  0
    4.5678   -0.3367    3.3584 H   0  0  0  0  0  0  0  0  0  0  0  0
    2.1303   -0.4363    3.2009 H   0  0  0  0  0  0  0  0  0  0  0  0
   -0.9790    2.9332   -1.6020 H   0  0  0  0  0  0  0  0  0  0  0  0
   -0.7352    3.0984    0.1497 H   0  0  0  0  0  0  0  0  0  0  0  0
   -2.1333    3.8527   -0.6258 H   0  0  0  0  0  0  0  0  0  0  0  0
  1  2  1  0
  2  3  2  0
  3  4  1  0
  4  5  1  0
  5  6  1  0
  6  7  1  0
  7  8  2  0
  7  9  1  0
  9 10  1  0
 10 11  2  0
 11 12  1  0
 12 13  2  0
 13 14  1  0
 14 15  2  0
 15 16  1  0
  4 17  2  0
 17 18  1  0
 17 19  1  0
 19  2  1  0
 16  5  1  0
 15 10  1  0
  1 20  1  0
  1 21  1  0
  1 22  1  0
  3 23  1  0
  5 24  1  0
  6 25  1  0
  6 26  1  0
  9 27  1  0
 11 28  1  0
 12 29  1  0
 13 30  1  0
 14 31  1  0
 18 32  1  0
 18 33  1  0
 18 34  1  0
M  END
$$$$
