
     RDKit          3D

 64 64  0  0  0  0  0  0  0  0999 V2000
   -7.7629    1.0505    2.3411 C   0  0  0  0  0  0  0  0  0  0  0  0
   -7.8111    0.6331    0.8800 C   0  0  0  0  0  0  0  0  0  0  0  0
   -6.4165    0.3055    0.3446 C   0  0  0  0  0  0  0  0  0  0  0  0
   -6.4722   -0.1116   -1.1267 C   0  0  0  0  0  0  0  0  0  0  0  0
   -5.1153   -0.5542   -1.6838 C   0  0  0  0  0  0  0  0  0  0  0  0
   -4.0883    0.5791   -1.7444 C   0  0  0  0  0  0  0  0  0  0  0  0
   -2.8047    0.1953   -2.4884 C   0  0  0  0  0  0  0  0  0  0  0  0
   -2.0278   -0.9912   -1.9090 C   0  0  0  0  0  0  0  0  0  0  0  0
   -1.5850   -0.7804   -0.4587 C   0  0  0  0  0  0  0  0  0  0  0  0
   -0.6983   -1.9346    0.0196 C   0  0  0  0  0  0  0  0  0  0  0  0
   -0.3217   -1.8396    1.5015 C   0  0  0  0  0  0  0  0  0  0  0  0
    0.5803   -0.6630    1.8941 C   0  0  0  0  0  0  0  0  0  0  0  0
    2.0826   -0.9692    1.8787 C   0  0  0  0  0  0  0  0  0  0  0  0
    2.7202   -1.2175    0.5105 C   0  0  0  0  0  0  0  0  0  0  0  0
    2.5739   -0.0824   -0.5083 C   0  0  0  0  0  0  0  0  0  0  0  0
    3.2072    1.2457   -0.1011 C   0  0  0  0  0  0  0  0  0  0  0  0
    4.6869    1.1269   -0.0231 N   0  0  0  0  0  4  0  0  0  0  0  0
    5.2991    1.0740    1.1842 C   0  0  0  0  0  0  0  0  0  0  0  0
    6.6824    0.9777    1.2792 C   0  0  0  0  0  0  0  0  0  0  0  0
    7.4339    0.9467    0.1113 C   0  0  0  0  0  0  0  0  0  0  0  0
    8.9018    0.8465    0.1982 C   0  0  0  0  0  0  0  0  0  0  0  0
    9.6362    0.8296   -0.8662 N   0  0  0  0  0  0  0  0  0  0  0  0
   10.9766    0.7286   -0.4782 O   0  0  0  0  0  0  0  0  0  0  0  0
    6.7981    1.0147   -1.1243 C   0  0  0  0  0  0  0  0  0  0  0  0
    5.4148    1.1088   -1.1658 C   0  0  0  0  0  0  0  0  0  0  0  0
   -7.3518    0.2500    2.9643 H   0  0  0  0  0  0  0  0  0  0  0  0
   -7.1428    1.9426    2.4741 H   0  0  0  0  0  0  0  0  0  0  0  0
   -8.7701    1.2797    2.7030 H   0  0  0  0  0  0  0  0  0  0  0  0
   -8.2559    1.4423    0.2891 H   0  0  0  0  0  0  0  0  0  0  0  0
   -8.4648   -0.2409    0.7776 H   0  0  0  0  0  0  0  0  0  0  0  0
   -5.7728    1.1843    0.4624 H   0  0  0  0  0  0  0  0  0  0  0  0
   -5.9753   -0.5031    0.9397 H   0  0  0  0  0  0  0  0  0  0  0  0
   -6.8674    0.7136   -1.7317 H   0  0  0  0  0  0  0  0  0  0  0  0
   -7.1748   -0.9472   -1.2357 H   0  0  0  0  0  0  0  0  0  0  0  0
   -4.7315   -1.3813   -1.0758 H   0  0  0  0  0  0  0  0  0  0  0  0
   -5.2733   -0.9489   -2.6951 H   0  0  0  0  0  0  0  0  0  0  0  0
   -4.5337    1.4397   -2.2592 H   0  0  0  0  0  0  0  0  0  0  0  0
   -3.8372    0.9202   -0.7346 H   0  0  0  0  0  0  0  0  0  0  0  0
   -2.1450    1.0717   -2.5137 H   0  0  0  0  0  0  0  0  0  0  0  0
   -3.0538   -0.0311   -3.5327 H   0  0  0  0  0  0  0  0  0  0  0  0
   -2.6273   -1.9056   -1.9856 H   0  0  0  0  0  0  0  0  0  0  0  0
   -1.1409   -1.1521   -2.5350 H   0  0  0  0  0  0  0  0  0  0  0  0
   -2.4627   -0.7097    0.1934 H   0  0  0  0  0  0  0  0  0  0  0  0
   -1.0454    0.1693   -0.3847 H   0  0  0  0  0  0  0  0  0  0  0  0
    0.1966   -1.9978   -0.6051 H   0  0  0  0  0  0  0  0  0  0  0  0
   -1.2421   -2.8766   -0.1275 H   0  0  0  0  0  0  0  0  0  0  0  0
    0.1467   -2.7817    1.8113 H   0  0  0  0  0  0  0  0  0  0  0  0
   -1.2528   -1.7626    2.0780 H   0  0  0  0  0  0  0  0  0  0  0  0
    0.3310   -0.4028    2.9318 H   0  0  0  0  0  0  0  0  0  0  0  0
    0.3615    0.2343    1.3093 H   0  0  0  0  0  0  0  0  0  0  0  0
    2.6023   -0.1399    2.3715 H   0  0  0  0  0  0  0  0  0  0  0  0
    2.2704   -1.8475    2.5095 H   0  0  0  0  0  0  0  0  0  0  0  0
    2.3024   -2.1344    0.0805 H   0  0  0  0  0  0  0  0  0  0  0  0
    3.7857   -1.4301    0.6599 H   0  0  0  0  0  0  0  0  0  0  0  0
    1.5127    0.0908   -0.7149 H   0  0  0  0  0  0  0  0  0  0  0  0
    3.0118   -0.4205   -1.4553 H   0  0  0  0  0  0  0  0  0  0  0  0
    2.9959    2.0184   -0.8498 H   0  0  0  0  0  0  0  0  0  0  0  0
    2.8301    1.6125    0.8583 H   0  0  0  0  0  0  0  0  0  0  0  0
    4.6724    1.1071    2.0708 H   0  0  0  0  0  0  0  0  0  0  0  0
    7.1577    0.9309    2.2564 H   0  0  0  0  0  0  0  0  0  0  0  0
    9.3522    0.7874    1.2064 H   0  0  0  0  0  0  0  0  0  0  0  0
   11.4539    0.7344   -1.3305 H   0  0  0  0  0  0  0  0  0  0  0  0
    7.3710    0.9966   -2.0496 H   0  0  0  0  0  0  0  0  0  0  0  0
    4.8767    1.1688   -2.1082 H   0  0  0  0  0  0  0  0  0  0  0  0
  1  2  1  0
  2  3  1  0
  3  4  1  0
  4  5  1  0
  5  6  1  0
  6  7  1  0
  7  8  1  0
  8  9  1  0
  9 10  1  0
 10 11  1  0
 11 12  1  0
 12 13  1  0
 13 14  1  0
 14 15  1  0
 15 16  1  0
 16 17  1  0
 17 18  2  0
 18 19  1  0
 19 20  2  0
 20 21  1  0
 21 22  2  3
 22 23  1  0
 20 24  1  0
 24 25  2  0
 25 17  1  0
  1 26  1  0
  1 27  1  0
  1 28  1  0
  2 29  1  0
  2 30  1  0
  3 31  1  0
  3 32  1  0
  4 33  1  0
  4 34  1  0
  5 35  1  0
  5 36  1  0
  6 37  1  0
  6 38  1  0
  7 39  1  0
  7 40  1  0
  8 41  1  0
  8 42  1  0
  9 43  1  0
  9 44  1  0
 10 45  1  0
 10 46  1  0
 11 47  1  0
 11 48  1  0
 12 49  1  0
 12 50  1  0
 13 51  1  0
 13 52  1  0
 14 53  1  0
 14 54  1  0
 15 55  1  0
 15 56  1  0
 16 57  1  0
 16 58  1  0
 18 59  1  0
 19 60  1  0
 21 61  1  0
 23 62  1  0
 24 63  1  0
 25 64  1  0
M  CHG  1  17   1
M  END
$$$$
