
     RDKit          3D

 96102  0  0  0  0  0  0  0  0999 V2000
   -4.0359    2.5097    2.8409 C   0  0  0  0  0  0  0  0  0  0  0  0
   -3.7274    2.7017    1.3605 C   0  0  0  0  0  0  0  0  0  0  0  0
   -2.5363    1.8732    0.8970 C   0  0  0  0  0  0  0  0  0  0  0  0
   -1.3637    2.4534    0.5580 C   0  0  0  0  0  0  0  0  0  0  0  0
   -1.1713    3.8412    0.6909 O   0  0  0  0  0  0  0  0  0  0  0  0
   -1.5212    4.5892   -0.4078 C   0  0  0  0  0  0  0  0  0  0  0  0
   -2.0532    4.1331   -1.4179 O   0  0  0  0  0  0  0  0  0  0  0  0
   -1.2321    5.9425   -0.2491 N   0  0  0  0  0  0  0  0  0  0  0  0
   -0.6573    6.4807    0.9823 C   0  0  0  0  0  0  0  0  0  0  0  0
   -1.7087    6.7668    2.0422 C   0  0  0  0  0  0  0  0  0  0  0  0
   -1.5943    6.8611   -1.3229 C   0  0  0  0  0  0  0  0  0  0  0  0
   -3.0537    7.2878   -1.2681 C   0  0  0  0  0  0  0  0  0  0  0  0
   -0.2476    1.7055    0.2238 N   0  0  0  0  0  0  0  0  0  0  0  0
    1.0257    2.2162    0.1603 C   0  0  0  0  0  0  0  0  0  0  0  0
    1.3877    3.3760    0.0562 O   0  0  0  0  0  0  0  0  0  0  0  0
    1.8938    1.1954    0.3159 O   0  0  0  0  0  0  0  0  0  0  0  0
    1.1779    0.0718    0.5425 C   0  0  0  0  0  0  0  0  0  0  0  0
    1.7125   -1.0168    0.9716 N   0  0  0  0  0  0  0  0  0  0  0  0
    3.1723   -1.0065    1.1898 C   0  0  0  0  0  0  0  0  0  0  0  0
    3.8898   -1.3413   -0.1220 C   0  0  0  0  0  0  0  0  0  0  0  0
    5.3692   -1.5000    0.0337 C   0  0  0  0  0  0  0  0  0  0  0  0
    6.2929   -0.4812    0.1837 C   0  0  0  0  0  0  0  0  0  0  0  0
    7.5417   -1.0361    0.2548 N   0  0  0  0  0  0  0  0  0  0  0  0
    7.4591   -2.4061    0.1502 C   0  0  0  0  0  0  0  0  0  0  0  0
    8.4745   -3.3710    0.1587 C   0  0  0  0  0  0  0  0  0  0  0  0
    8.0941   -4.7104    0.0291 C   0  0  0  0  0  0  0  0  0  0  0  0
    6.7537   -5.0666   -0.0978 C   0  0  0  0  0  0  0  0  0  0  0  0
    5.7501   -4.0891   -0.1002 C   0  0  0  0  0  0  0  0  0  0  0  0
    6.1068   -2.7291    0.0229 C   0  0  0  0  0  0  0  0  0  0  0  0
   -0.2745    0.2383    0.1190 C   0  0  0  0  0  0  0  0  0  0  0  0
   -0.2740   -0.2904   -1.3517 C   0  0  0  0  0  0  0  0  0  0  0  0
   -1.5292   -0.1881   -2.1821 C   0  0  0  0  0  0  0  0  0  0  0  0
   -2.2250   -1.3441   -2.5655 C   0  0  0  0  0  0  0  0  0  0  0  0
   -3.3801   -1.2544   -3.3468 C   0  0  0  0  0  0  0  0  0  0  0  0
   -3.8507   -0.0097   -3.7585 C   0  0  0  0  0  0  0  0  0  0  0  0
   -3.1534    1.1433   -3.4050 C   0  0  0  0  0  0  0  0  0  0  0  0
   -1.9914    1.0513   -2.6369 C   0  0  0  0  0  0  0  0  0  0  0  0
   -1.3321   -0.3780    1.0764 C   0  0  0  0  0  0  0  0  0  0  0  0
   -2.6635    0.4050    0.8580 C   0  0  0  0  0  0  0  0  0  0  0  0
   -3.8466   -0.1887    0.5853 C   0  0  0  0  0  0  0  0  0  0  0  0
   -4.0790   -1.6614    0.4488 C   0  0  0  0  0  0  0  0  0  0  0  0
   -2.8502   -2.4577    0.6977 C   0  0  0  0  0  0  0  0  0  0  0  0
   -1.5647   -1.8890    1.0079 C   0  0  0  0  0  0  0  0  0  0  0  0
   -0.7567   -2.9685    1.3404 C   0  0  0  0  0  0  0  0  0  0  0  0
    0.4775   -3.0728    1.8127 O   0  0  0  0  0  0  0  0  0  0  0  0
   -1.4616   -4.1287    1.1168 N   0  0  0  0  0  0  0  0  0  0  0  0
   -0.9482   -5.4670    1.3779 C   0  0  0  0  0  0  0  0  0  0  0  0
    0.2452   -5.8514    0.5468 C   0  0  0  0  0  0  0  0  0  0  0  0
    1.1000   -6.6477    0.9281 O   0  0  0  0  0  0  0  0  0  0  0  0
    0.2212   -5.3062   -0.7033 O   0  0  0  0  0  0  0  0  0  0  0  0
    1.3240   -5.6822   -1.5245 C   0  0  0  0  0  0  0  0  0  0  0  0
   -2.7364   -3.8320    0.7179 C   0  0  0  0  0  0  0  0  0  0  0  0
   -3.6150   -4.7942    0.4659 O   0  0  0  0  0  0  0  0  0  0  0  0
   -4.3009    1.4748    3.0754 H   0  0  0  0  0  0  0  0  0  0  0  0
   -3.1752    2.7841    3.4609 H   0  0  0  0  0  0  0  0  0  0  0  0
   -4.8800    3.1443    3.1334 H   0  0  0  0  0  0  0  0  0  0  0  0
   -4.6152    2.4753    0.7599 H   0  0  0  0  0  0  0  0  0  0  0  0
   -3.5526    3.7712    1.2001 H   0  0  0  0  0  0  0  0  0  0  0  0
   -0.0902    7.3897    0.7474 H   0  0  0  0  0  0  0  0  0  0  0  0
    0.0600    5.7571    1.3863 H   0  0  0  0  0  0  0  0  0  0  0  0
   -2.4026    7.5464    1.7185 H   0  0  0  0  0  0  0  0  0  0  0  0
   -2.2964    5.8721    2.2752 H   0  0  0  0  0  0  0  0  0  0  0  0
   -1.2284    7.1125    2.9628 H   0  0  0  0  0  0  0  0  0  0  0  0
   -1.4073    6.3635   -2.2837 H   0  0  0  0  0  0  0  0  0  0  0  0
   -0.9376    7.7390   -1.2884 H   0  0  0  0  0  0  0  0  0  0  0  0
   -3.2767    7.8388   -0.3499 H   0  0  0  0  0  0  0  0  0  0  0  0
   -3.2880    7.9388   -2.1173 H   0  0  0  0  0  0  0  0  0  0  0  0
   -3.7282    6.4243   -1.3107 H   0  0  0  0  0  0  0  0  0  0  0  0
    3.4005   -1.7714    1.9398 H   0  0  0  0  0  0  0  0  0  0  0  0
    3.5196   -0.0573    1.6141 H   0  0  0  0  0  0  0  0  0  0  0  0
    3.6959   -0.5542   -0.8606 H   0  0  0  0  0  0  0  0  0  0  0  0
    3.4572   -2.2546   -0.5474 H   0  0  0  0  0  0  0  0  0  0  0  0
    6.1682    0.5933    0.2360 H   0  0  0  0  0  0  0  0  0  0  0  0
    8.4060   -0.5199    0.3537 H   0  0  0  0  0  0  0  0  0  0  0  0
    9.5193   -3.0960    0.2562 H   0  0  0  0  0  0  0  0  0  0  0  0
    8.8573   -5.4857    0.0295 H   0  0  0  0  0  0  0  0  0  0  0  0
    6.4789   -6.1143   -0.1956 H   0  0  0  0  0  0  0  0  0  0  0  0
    4.7088   -4.3817   -0.1973 H   0  0  0  0  0  0  0  0  0  0  0  0
    0.0382   -1.3446   -1.3392 H   0  0  0  0  0  0  0  0  0  0  0  0
    0.5181    0.2145   -1.9283 H   0  0  0  0  0  0  0  0  0  0  0  0
   -1.8762   -2.3285   -2.2563 H   0  0  0  0  0  0  0  0  0  0  0  0
   -3.9127   -2.1580   -3.6308 H   0  0  0  0  0  0  0  0  0  0  0  0
   -4.7508    0.0634   -4.3614 H   0  0  0  0  0  0  0  0  0  0  0  0
   -3.5041    2.1213   -3.7270 H   0  0  0  0  0  0  0  0  0  0  0  0
   -1.4493    1.9652   -2.4057 H   0  0  0  0  0  0  0  0  0  0  0  0
   -1.0207   -0.1785    2.1148 H   0  0  0  0  0  0  0  0  0  0  0  0
   -4.7352    0.4032    0.3877 H   0  0  0  0  0  0  0  0  0  0  0  0
   -4.4686   -1.8786   -0.5544 H   0  0  0  0  0  0  0  0  0  0  0  0
   -4.8520   -1.9578    1.1720 H   0  0  0  0  0  0  0  0  0  0  0  0
    0.9368   -2.2175    1.6715 H   0  0  0  0  0  0  0  0  0  0  0  0
   -1.7376   -6.1969    1.1962 H   0  0  0  0  0  0  0  0  0  0  0  0
   -0.6807   -5.5030    2.4410 H   0  0  0  0  0  0  0  0  0  0  0  0
    1.2423   -5.1358   -2.4706 H   0  0  0  0  0  0  0  0  0  0  0  0
    2.2750   -5.4099   -1.0541 H   0  0  0  0  0  0  0  0  0  0  0  0
    1.2944   -6.7568   -1.7400 H   0  0  0  0  0  0  0  0  0  0  0  0
   -4.4437   -4.3683    0.1817 H   0  0  0  0  0  0  0  0  0  0  0  0
  1  2  1  0
  2  3  1  0
  3  4  2  0
  4  5  1  0
  5  6  1  0
  6  7  2  0
  6  8  1  0
  8  9  1  0
  9 10  1  0
  8 11  1  0
 11 12  1  0
  4 13  1  0
 13 14  1  0
 14 15  2  0
 14 16  1  0
 16 17  1  0
 17 18  2  3
 18 19  1  0
 19 20  1  0
 20 21  1  0
 21 22  2  0
 22 23  1  0
 23 24  1  0
 24 25  2  0
 25 26  1  0
 26 27  2  0
 27 28  1  0
 28 29  2  0
 17 30  1  0
 30 31  1  0
 31 32  1  0
 32 33  2  0
 33 34  1  0
 34 35  2  0
 35 36  1  0
 36 37  2  0
 30 38  1  0
 38 39  1  0
 39 40  2  0
 40 41  1  0
 41 42  1  0
 42 43  1  0
 43 44  2  0
 44 45  1  0
 44 46  1  0
 46 47  1  0
 47 48  1  0
 48 49  2  0
 48 50  1  0
 50 51  1  0
 46 52  1  0
 52 53  1  0
 39  3  1  0
 52 42  2  0
 30 13  1  0
 37 32  1  0
 43 38  1  0
 29 21  1  0
 29 24  1  0
  1 54  1  0
  1 55  1  0
  1 56  1  0
  2 57  1  0
  2 58  1  0
  9 59  1  0
  9 60  1  0
 10 61  1  0
 10 62  1  0
 10 63  1  0
 11 64  1  0
 11 65  1  0
 12 66  1  0
 12 67  1  0
 12 68  1  0
 19 69  1  0
 19 70  1  0
 20 71  1  0
 20 72  1  0
 22 73  1  0
 23 74  1  0
 25 75  1  0
 26 76  1  0
 27 77  1  0
 28 78  1  0
 31 79  1  0
 31 80  1  0
 33 81  1  0
 34 82  1  0
 35 83  1  0
 36 84  1  0
 37 85  1  0
 38 86  1  0
 40 87  1  0
 41 88  1  0
 41 89  1  0
 45 90  1  0
 47 91  1  0
 47 92  1  0
 51 93  1  0
 51 94  1  0
 51 95  1  0
 53 96  1  0
M  END
$$$$
