
     RDKit          3D

 59 62  0  0  0  0  0  0  0  0999 V2000
    2.6894    1.5958   -2.1088 O   0  0  0  0  0  0  0  0  0  0  0  0
    1.6990    1.1516   -1.5330 C   0  0  0  0  0  0  0  0  0  0  0  0
    0.5187    1.1406   -2.2137 N   0  0  0  0  0  0  0  0  0  0  0  0
   -0.4995    0.2745   -1.9596 C   0  0  0  0  0  0  0  0  0  0  0  0
   -1.2476   -0.0928   -2.8606 O   0  0  0  0  0  0  0  0  0  0  0  0
   -0.6574   -0.1228   -0.5106 C   0  0  0  0  0  0  0  0  0  0  0  0
   -1.3437    1.0578    0.2442 C   0  0  0  0  0  0  0  0  0  0  0  0
   -2.7980    1.3398   -0.1604 C   0  0  0  0  0  0  0  0  0  0  0  0
   -3.3093    2.5995    0.4927 C   0  0  0  0  0  0  0  0  0  0  0  0
   -3.2964    3.8165   -0.1938 C   0  0  0  0  0  0  0  0  0  0  0  0
   -3.7578    4.9511    0.4565 C   0  0  0  0  0  0  0  0  0  0  0  0
   -4.2188    4.9555    1.7250 N   0  0  0  0  0  0  0  0  0  0  0  0
   -4.2221    3.7704    2.3712 C   0  0  0  0  0  0  0  0  0  0  0  0
   -3.7822    2.5824    1.8075 C   0  0  0  0  0  0  0  0  0  0  0  0
   -1.4950   -1.4224   -0.3835 C   0  0  0  0  0  0  0  0  0  0  0  0
   -0.8404   -2.6662   -1.0114 C   0  0  0  0  0  0  0  0  0  0  0  0
   -1.7507   -3.8646   -0.9218 C   0  0  0  0  0  0  0  0  0  0  0  0
   -2.6518   -4.1537   -1.9492 C   0  0  0  0  0  0  0  0  0  0  0  0
   -3.4796   -5.2575   -1.8144 C   0  0  0  0  0  0  0  0  0  0  0  0
   -3.4742   -6.0758   -0.7404 N   0  0  0  0  0  0  0  0  0  0  0  0
   -2.5999   -5.7746    0.2434 C   0  0  0  0  0  0  0  0  0  0  0  0
   -1.7319   -4.6943    0.2019 C   0  0  0  0  0  0  0  0  0  0  0  0
    0.7057   -0.2867    0.1529 C   0  0  0  0  0  0  0  0  0  0  0  0
    0.8706   -1.1022    1.0627 O   0  0  0  0  0  0  0  0  0  0  0  0
    1.7101    0.5815   -0.2719 N   0  0  0  0  0  0  0  0  0  0  0  0
    2.9758    0.5566    0.4891 C   0  0  0  0  0  0  0  0  0  0  0  0
    3.6016    1.9441    0.7019 C   0  0  0  0  0  0  0  0  0  0  0  0
    4.7772    1.8815    1.6822 C   0  0  0  0  0  0  0  0  0  0  0  0
    5.5527    0.5632    1.6258 C   0  0  0  0  0  0  0  0  0  0  0  0
    5.4438   -0.1097    0.2637 C   0  0  0  0  0  0  0  0  0  0  0  0
    3.9935   -0.4459   -0.0931 C   0  0  0  0  0  0  0  0  0  0  0  0
    0.6165    1.4111   -3.1839 H   0  0  0  0  0  0  0  0  0  0  0  0
   -1.3129    0.8572    1.3249 H   0  0  0  0  0  0  0  0  0  0  0  0
   -0.7555    1.9764    0.1067 H   0  0  0  0  0  0  0  0  0  0  0  0
   -2.8888    1.4379   -1.2481 H   0  0  0  0  0  0  0  0  0  0  0  0
   -3.4503    0.5079    0.1300 H   0  0  0  0  0  0  0  0  0  0  0  0
   -2.9384    3.8883   -1.2153 H   0  0  0  0  0  0  0  0  0  0  0  0
   -3.7680    5.9161   -0.0424 H   0  0  0  0  0  0  0  0  0  0  0  0
   -4.5999    3.7995    3.3893 H   0  0  0  0  0  0  0  0  0  0  0  0
   -3.8116    1.6657    2.3876 H   0  0  0  0  0  0  0  0  0  0  0  0
   -2.4745   -1.2802   -0.8585 H   0  0  0  0  0  0  0  0  0  0  0  0
   -1.6998   -1.6238    0.6770 H   0  0  0  0  0  0  0  0  0  0  0  0
   -0.5897   -2.4894   -2.0636 H   0  0  0  0  0  0  0  0  0  0  0  0
    0.1076   -2.9084   -0.5183 H   0  0  0  0  0  0  0  0  0  0  0  0
   -2.7128   -3.5347   -2.8387 H   0  0  0  0  0  0  0  0  0  0  0  0
   -4.1920   -5.5186   -2.5915 H   0  0  0  0  0  0  0  0  0  0  0  0
   -2.6149   -6.4461    1.0971 H   0  0  0  0  0  0  0  0  0  0  0  0
   -1.0568   -4.5082    1.0310 H   0  0  0  0  0  0  0  0  0  0  0  0
    2.7303    0.2010    1.4999 H   0  0  0  0  0  0  0  0  0  0  0  0
    2.8519    2.6520    1.0748 H   0  0  0  0  0  0  0  0  0  0  0  0
    3.9692    2.3567   -0.2440 H   0  0  0  0  0  0  0  0  0  0  0  0
    4.4146    2.0343    2.7058 H   0  0  0  0  0  0  0  0  0  0  0  0
    5.4540    2.7190    1.4723 H   0  0  0  0  0  0  0  0  0  0  0  0
    5.1643   -0.1190    2.3933 H   0  0  0  0  0  0  0  0  0  0  0  0
    6.6042    0.7455    1.8761 H   0  0  0  0  0  0  0  0  0  0  0  0
    6.0471   -1.0247    0.2436 H   0  0  0  0  0  0  0  0  0  0  0  0
    5.8615    0.5574   -0.5017 H   0  0  0  0  0  0  0  0  0  0  0  0
    3.9147   -0.5197   -1.1832 H   0  0  0  0  0  0  0  0  0  0  0  0
    3.7485   -1.4465    0.2854 H   0  0  0  0  0  0  0  0  0  0  0  0
  1  2  2  0
  2  3  1  0
  3  4  1  0
  4  5  2  0
  4  6  1  0
  6  7  1  0
  7  8  1  0
  8  9  1  0
  9 10  2  0
 10 11  1  0
 11 12  2  0
 12 13  1  0
 13 14  2  0
  6 15  1  0
 15 16  1  0
 16 17  1  0
 17 18  2  0
 18 19  1  0
 19 20  2  0
 20 21  1  0
 21 22  2  0
  6 23  1  0
 23 24  2  0
 23 25  1  0
 25 26  1  0
 26 27  1  0
 27 28  1  0
 28 29  1  0
 29 30  1  0
 30 31  1  0
 25  2  1  0
 31 26  1  0
 14  9  1  0
 22 17  1  0
  3 32  1  0
  7 33  1  0
  7 34  1  0
  8 35  1  0
  8 36  1  0
 10 37  1  0
 11 38  1  0
 13 39  1  0
 14 40  1  0
 15 41  1  0
 15 42  1  0
 16 43  1  0
 16 44  1  0
 18 45  1  0
 19 46  1  0
 21 47  1  0
 22 48  1  0
 26 49  1  0
 27 50  1  0
 27 51  1  0
 28 52  1  0
 28 53  1  0
 29 54  1  0
 29 55  1  0
 30 56  1  0
 30 57  1  0
 31 58  1  0
 31 59  1  0
M  END
$$$$
