
     RDKit          3D

 36 38  0  0  0  0  0  0  0  0999 V2000
   -0.7596   -2.3406    2.6144 C   0  0  0  0  0  0  0  0  0  0  0  0
   -1.7143   -1.4584    1.8920 C   0  0  0  0  0  0  0  0  0  0  0  0
   -3.0277   -1.1626    2.2000 C   0  0  0  0  0  0  0  0  0  0  0  0
   -3.5291   -0.2716    1.2158 C   0  0  0  0  0  0  0  0  0  0  0  0
   -4.7732    0.3589    1.0169 C   0  0  0  0  0  0  0  0  0  0  0  0
   -4.9481    1.2063   -0.0820 C   0  0  0  0  0  0  0  0  0  0  0  0
   -3.9050    1.4292   -0.9757 C   0  0  0  0  0  0  0  0  0  0  0  0
   -2.6620    0.8138   -0.7991 C   0  0  0  0  0  0  0  0  0  0  0  0
   -2.4960   -0.0370    0.3072 C   0  0  0  0  0  0  0  0  0  0  0  0
   -1.4036   -0.7700    0.7375 N   0  0  0  0  0  0  0  0  0  0  0  0
   -0.1164   -0.7881    0.0570 C   0  0  0  0  0  0  0  0  0  0  0  0
    0.7604    0.3907    0.4767 C   0  0  0  0  0  0  0  0  0  0  0  0
    2.0648    0.3741   -0.1560 N   0  0  0  0  0  0  0  0  0  0  0  0
    2.2437    0.7057   -1.4827 C   0  0  0  0  0  0  0  0  0  0  0  0
    1.3020    0.9800   -2.2212 O   0  0  0  0  0  0  0  0  0  0  0  0
    3.6251    0.6924   -1.9136 C   0  0  0  0  0  0  0  0  0  0  0  0
    4.1969    0.9636   -3.1422 C   0  0  0  0  0  0  0  0  0  0  0  0
    5.5944    0.7942   -2.9880 C   0  0  0  0  0  0  0  0  0  0  0  0
    5.7941    0.4298   -1.6768 C   0  0  0  0  0  0  0  0  0  0  0  0
    7.4829    0.0641   -0.8821 Br  0  0  0  0  0  0  0  0  0  0  0  0
    4.6079    0.3643   -1.0150 O   0  0  0  0  0  0  0  0  0  0  0  0
   -0.5093   -3.2162    2.0073 H   0  0  0  0  0  0  0  0  0  0  0  0
    0.1627   -1.8035    2.8565 H   0  0  0  0  0  0  0  0  0  0  0  0
   -1.1935   -2.6975    3.5542 H   0  0  0  0  0  0  0  0  0  0  0  0
   -3.5755   -1.5479    3.0502 H   0  0  0  0  0  0  0  0  0  0  0  0
   -5.5908    0.1894    1.7108 H   0  0  0  0  0  0  0  0  0  0  0  0
   -5.9072    1.6935   -0.2374 H   0  0  0  0  0  0  0  0  0  0  0  0
   -4.0560    2.0909   -1.8255 H   0  0  0  0  0  0  0  0  0  0  0  0
   -1.8560    0.9969   -1.5043 H   0  0  0  0  0  0  0  0  0  0  0  0
   -0.3085   -0.7903   -1.0215 H   0  0  0  0  0  0  0  0  0  0  0  0
    0.3798   -1.7390    0.2791 H   0  0  0  0  0  0  0  0  0  0  0  0
    0.9301    0.3792    1.5589 H   0  0  0  0  0  0  0  0  0  0  0  0
    0.2744    1.3418    0.2300 H   0  0  0  0  0  0  0  0  0  0  0  0
    2.8965    0.1917    0.3958 H   0  0  0  0  0  0  0  0  0  0  0  0
    3.6570    1.2494   -4.0355 H   0  0  0  0  0  0  0  0  0  0  0  0
    6.3590    0.9228   -3.7415 H   0  0  0  0  0  0  0  0  0  0  0  0
  1  2  1  0
  2  3  2  0
  3  4  1  0
  4  5  2  0
  5  6  1  0
  6  7  2  0
  7  8  1  0
  8  9  2  0
  9 10  1  0
 10 11  1  0
 11 12  1  0
 12 13  1  0
 13 14  1  0
 14 15  2  0
 14 16  1  0
 16 17  2  0
 17 18  1  0
 18 19  2  0
 19 20  1  0
 19 21  1  0
 10  2  1  0
 21 16  1  0
  9  4  1  0
  1 22  1  0
  1 23  1  0
  1 24  1  0
  3 25  1  0
  5 26  1  0
  6 27  1  0
  7 28  1  0
  8 29  1  0
 11 30  1  0
 11 31  1  0
 12 32  1  0
 12 33  1  0
 13 34  1  0
 17 35  1  0
 18 36  1  0
M  END
$$$$
