
     RDKit          3D

 38 39  0  0  0  0  0  0  0  0999 V2000
   -4.1997    1.6800    2.3983 C   0  0  0  0  0  0  0  0  0  0  0  0
   -4.4180    1.1639    1.0904 O   0  0  0  0  0  0  0  0  0  0  0  0
   -3.3138    0.7722    0.3795 C   0  0  0  0  0  0  0  0  0  0  0  0
   -1.9923    1.0713    0.7276 C   0  0  0  0  0  0  0  0  0  0  0  0
   -0.9190    0.5989   -0.0464 C   0  0  0  0  0  0  0  0  0  0  0  0
    0.4474    0.9547    0.3544 C   0  0  0  0  0  0  0  0  0  0  0  0
    1.4780    0.0955    0.3261 C   0  0  0  0  0  0  0  0  0  0  0  0
    2.8147    0.5461    0.8022 C   0  0  0  0  0  0  0  0  0  0  0  0
    2.9746    1.6265    1.3616 O   0  0  0  0  0  0  0  0  0  0  0  0
    3.9664   -0.3749    0.6154 C   0  0  0  0  0  0  0  0  0  0  0  0
    4.0729   -1.2273   -0.4936 C   0  0  0  0  0  0  0  0  0  0  0  0
    5.1865   -2.0623   -0.6309 C   0  0  0  0  0  0  0  0  0  0  0  0
    6.1876   -2.0368    0.3363 C   0  0  0  0  0  0  0  0  0  0  0  0
    7.2899   -2.8347    0.2400 O   0  0  0  0  0  0  0  0  0  0  0  0
    6.0978   -1.1889    1.4347 C   0  0  0  0  0  0  0  0  0  0  0  0
    4.9903   -0.3503    1.5715 C   0  0  0  0  0  0  0  0  0  0  0  0
   -1.1812   -0.1610   -1.1931 C   0  0  0  0  0  0  0  0  0  0  0  0
   -2.4953   -0.4572   -1.5549 C   0  0  0  0  0  0  0  0  0  0  0  0
   -3.5522    0.0262   -0.7843 C   0  0  0  0  0  0  0  0  0  0  0  0
   -4.8189   -0.3311   -1.1720 O   0  0  0  0  0  0  0  0  0  0  0  0
   -5.5086    0.7838   -1.7560 C   0  0  0  0  0  0  0  0  0  0  0  0
   -6.8825    0.3906   -2.1130 C   0  0  0  0  0  0  0  0  0  0  0  0
   -7.9659    0.1012   -2.4186 N   0  0  0  0  0  0  0  0  0  0  0  0
   -3.7055    2.6564    2.3562 H   0  0  0  0  0  0  0  0  0  0  0  0
   -3.6331    0.9755    3.0168 H   0  0  0  0  0  0  0  0  0  0  0  0
   -5.1783    1.8233    2.8661 H   0  0  0  0  0  0  0  0  0  0  0  0
   -1.7702    1.6665    1.6094 H   0  0  0  0  0  0  0  0  0  0  0  0
    0.5880    1.9711    0.7202 H   0  0  0  0  0  0  0  0  0  0  0  0
    1.3611   -0.9322    0.0089 H   0  0  0  0  0  0  0  0  0  0  0  0
    3.3149   -1.2363   -1.2721 H   0  0  0  0  0  0  0  0  0  0  0  0
    5.2587   -2.7174   -1.4941 H   0  0  0  0  0  0  0  0  0  0  0  0
    7.2797   -3.2909   -0.6191 H   0  0  0  0  0  0  0  0  0  0  0  0
    6.8907   -1.1742    2.1785 H   0  0  0  0  0  0  0  0  0  0  0  0
    4.9273    0.3209    2.4267 H   0  0  0  0  0  0  0  0  0  0  0  0
   -0.3696   -0.5231   -1.8202 H   0  0  0  0  0  0  0  0  0  0  0  0
   -2.6926   -1.0609   -2.4370 H   0  0  0  0  0  0  0  0  0  0  0  0
   -5.5505    1.6392   -1.0711 H   0  0  0  0  0  0  0  0  0  0  0  0
   -4.9791    1.0958   -2.6669 H   0  0  0  0  0  0  0  0  0  0  0  0
  1  2  1  0
  2  3  1  0
  3  4  2  0
  4  5  1  0
  5  6  1  0
  6  7  2  3
  7  8  1  0
  8  9  2  0
  8 10  1  0
 10 11  2  0
 11 12  1  0
 12 13  2  0
 13 14  1  0
 13 15  1  0
 15 16  2  0
  5 17  2  0
 17 18  1  0
 18 19  2  0
 19 20  1  0
 20 21  1  0
 21 22  1  0
 22 23  3  0
 19  3  1  0
 16 10  1  0
  1 24  1  0
  1 25  1  0
  1 26  1  0
  4 27  1  0
  6 28  1  0
  7 29  1  0
 11 30  1  0
 12 31  1  0
 14 32  1  0
 15 33  1  0
 16 34  1  0
 17 35  1  0
 18 36  1  0
 21 37  1  0
 21 38  1  0
M  END
$$$$
