
     RDKit          3D

 37 39  0  0  0  0  0  0  0  0999 V2000
   -4.7913   -2.2327   -0.2619 C   0  0  0  0  0  0  0  0  0  0  0  0
   -4.6761   -1.3309   -1.3527 O   0  0  0  0  0  0  0  0  0  0  0  0
   -3.4861   -0.6709   -1.5060 C   0  0  0  0  0  0  0  0  0  0  0  0
   -2.3727   -0.8144   -0.6744 C   0  0  0  0  0  0  0  0  0  0  0  0
   -1.1988   -0.0806   -0.9122 C   0  0  0  0  0  0  0  0  0  0  0  0
   -0.0494   -0.2839   -0.0197 C   0  0  0  0  0  0  0  0  0  0  0  0
    0.6867    0.7222    0.4802 C   0  0  0  0  0  0  0  0  0  0  0  0
    1.7818    0.4577    1.3540 C   0  0  0  0  0  0  0  0  0  0  0  0
    2.2026   -0.7249    1.7581 N   0  0  0  0  0  0  0  0  0  0  0  0
    3.2922   -0.5989    2.6023 C   0  0  0  0  0  0  0  0  0  0  0  0
    3.9896   -1.6595    3.2155 C   0  0  0  0  0  0  0  0  0  0  0  0
    5.0785   -1.3863    4.0500 C   0  0  0  0  0  0  0  0  0  0  0  0
    5.4779   -0.0734    4.2788 C   0  0  0  0  0  0  0  0  0  0  0  0
    4.8022    0.9956    3.6819 C   0  0  0  0  0  0  0  0  0  0  0  0
    3.7102    0.7083    2.8457 C   0  0  0  0  0  0  0  0  0  0  0  0
    2.6924    1.7891    1.9798 S   0  0  0  0  0  0  0  0  0  0  0  0
   -1.1298    0.7871   -2.0134 C   0  0  0  0  0  0  0  0  0  0  0  0
   -2.2308    0.9407   -2.8548 C   0  0  0  0  0  0  0  0  0  0  0  0
   -2.2965    1.7559   -3.9575 O   0  0  0  0  0  0  0  0  0  0  0  0
   -1.1232    2.4934   -4.2806 C   0  0  0  0  0  0  0  0  0  0  0  0
   -3.3989    0.2117   -2.5884 C   0  0  0  0  0  0  0  0  0  0  0  0
   -4.4801    0.3720   -3.4231 O   0  0  0  0  0  0  0  0  0  0  0  0
   -5.7957   -2.6661   -0.2905 H   0  0  0  0  0  0  0  0  0  0  0  0
   -4.0725   -3.0540   -0.3505 H   0  0  0  0  0  0  0  0  0  0  0  0
   -4.6814   -1.7117    0.6949 H   0  0  0  0  0  0  0  0  0  0  0  0
   -2.3965   -1.4885    0.1764 H   0  0  0  0  0  0  0  0  0  0  0  0
    0.1685   -1.3175    0.2466 H   0  0  0  0  0  0  0  0  0  0  0  0
    0.4512    1.7544    0.2394 H   0  0  0  0  0  0  0  0  0  0  0  0
    3.6740   -2.6820    3.0338 H   0  0  0  0  0  0  0  0  0  0  0  0
    5.6136   -2.2075    4.5211 H   0  0  0  0  0  0  0  0  0  0  0  0
    6.3264    0.1259    4.9302 H   0  0  0  0  0  0  0  0  0  0  0  0
    5.1147    2.0198    3.8613 H   0  0  0  0  0  0  0  0  0  0  0  0
   -0.2047    1.3213   -2.2012 H   0  0  0  0  0  0  0  0  0  0  0  0
   -1.3354    3.0810   -5.1790 H   0  0  0  0  0  0  0  0  0  0  0  0
   -0.8639    3.1926   -3.4789 H   0  0  0  0  0  0  0  0  0  0  0  0
   -0.2872    1.8244   -4.5099 H   0  0  0  0  0  0  0  0  0  0  0  0
   -4.1911    1.0167   -4.0954 H   0  0  0  0  0  0  0  0  0  0  0  0
  1  2  1  0
  2  3  1  0
  3  4  2  0
  4  5  1  0
  5  6  1  0
  6  7  2  3
  7  8  1  0
  8  9  2  0
  9 10  1  0
 10 11  2  0
 11 12  1  0
 12 13  2  0
 13 14  1  0
 14 15  2  0
 15 16  1  0
  5 17  2  0
 17 18  1  0
 18 19  1  0
 19 20  1  0
 18 21  2  0
 21 22  1  0
 21  3  1  0
 16  8  1  0
 15 10  1  0
  1 23  1  0
  1 24  1  0
  1 25  1  0
  4 26  1  0
  6 27  1  0
  7 28  1  0
 11 29  1  0
 12 30  1  0
 13 31  1  0
 14 32  1  0
 17 33  1  0
 20 34  1  0
 20 35  1  0
 20 36  1  0
 22 37  1  0
M  END
$$$$
