
     RDKit          3D

 71 76  0  0  0  0  0  0  0  0999 V2000
   -3.6200   -5.4337    1.2236 C   0  0  0  0  0  0  0  0  0  0  0  0
   -2.6941   -4.3710    1.0211 O   0  0  0  0  0  0  0  0  0  0  0  0
   -2.8945   -3.5735   -0.0726 C   0  0  0  0  0  0  0  0  0  0  0  0
   -3.8757   -3.7692   -1.0625 C   0  0  0  0  0  0  0  0  0  0  0  0
   -3.9939   -2.8870   -2.1439 C   0  0  0  0  0  0  0  0  0  0  0  0
   -3.1133   -1.8276   -2.2064 C   0  0  0  0  0  0  0  0  0  0  0  0
   -2.1231   -1.6199   -1.2452 C   0  0  0  0  0  0  0  0  0  0  0  0
   -2.0140   -2.4891   -0.1662 C   0  0  0  0  0  0  0  0  0  0  0  0
   -1.3508   -0.3740   -1.6033 C   0  0  1  0  0  0  0  0  0  0  0  0
   -2.0827    0.1155   -2.8886 C   0  0  0  0  0  0  0  0  0  0  0  0
   -1.8623    1.1065   -3.5716 O   0  0  0  0  0  0  0  0  0  0  0  0
   -3.0789   -0.8279   -3.1677 N   0  0  0  0  0  0  0  0  0  0  0  0
   -1.4543    0.5471   -0.4540 C   0  0  0  0  0  0  0  0  0  0  0  0
   -0.1916    0.9021    0.0315 C   0  0  0  0  0  0  0  0  0  0  0  0
   -0.3598    1.7284    1.1115 C   0  0  0  0  0  0  0  0  0  0  0  0
    0.5029    2.3302    1.9180 O   0  0  0  0  0  0  0  0  0  0  0  0
   -1.7296    1.8815    1.2824 N   0  0  0  0  0  0  0  0  0  0  0  0
   -2.3495    2.5566    2.4201 C   0  0  0  0  0  0  0  0  0  0  0  0
   -2.9874    3.8711    2.0370 C   0  0  0  0  0  0  0  0  0  0  0  0
   -2.2166    4.9129    1.4968 C   0  0  0  0  0  0  0  0  0  0  0  0
   -2.8068    6.1312    1.1543 C   0  0  0  0  0  0  0  0  0  0  0  0
   -4.1723    6.3225    1.3498 C   0  0  0  0  0  0  0  0  0  0  0  0
   -4.9482    5.2984    1.8910 C   0  0  0  0  0  0  0  0  0  0  0  0
   -4.3594    4.0808    2.2405 C   0  0  0  0  0  0  0  0  0  0  0  0
   -2.4089    1.2007    0.2802 C   0  0  0  0  0  0  0  0  0  0  0  0
   -3.7277    1.2141    0.1338 O   0  0  0  0  0  0  0  0  0  0  0  0
    0.8833    0.3046   -0.7879 C   0  0  1  0  0  0  0  0  0  0  0  0
    1.9031   -0.5397   -0.0049 C   0  0  0  0  0  0  0  0  0  0  0  0
    2.8086   -1.2562   -0.9131 N   0  0  0  0  0  0  0  0  0  0  0  0
    4.1754   -1.3325   -0.7422 C   0  0  0  0  0  0  0  0  0  0  0  0
    4.9250   -1.8594   -1.5530 O   0  0  0  0  0  0  0  0  0  0  0  0
    4.5802   -0.7500    0.4142 O   0  0  0  0  0  0  0  0  0  0  0  0
    5.9893   -0.6567    0.7516 C   0  0  0  0  0  0  0  0  0  0  0  0
    6.7543    0.1790   -0.2823 C   0  0  0  0  0  0  0  0  0  0  0  0
    6.0188    0.0939    2.0907 C   0  0  0  0  0  0  0  0  0  0  0  0
    6.6126   -2.0428    0.9489 C   0  0  0  0  0  0  0  0  0  0  0  0
    2.2269   -1.7710   -2.1537 C   0  0  0  0  0  0  0  0  0  0  0  0
    0.6863   -1.7860   -2.1273 C   0  0  0  0  0  0  0  0  0  0  0  0
    0.1286   -0.4663   -1.8337 N   0  0  0  0  0  0  0  0  0  0  0  0
   -4.6364   -5.0521    1.3640 H   0  0  0  0  0  0  0  0  0  0  0  0
   -3.3382   -5.9605    2.1416 H   0  0  0  0  0  0  0  0  0  0  0  0
   -3.5746   -6.1584    0.4041 H   0  0  0  0  0  0  0  0  0  0  0  0
   -4.5706   -4.6013   -1.0103 H   0  0  0  0  0  0  0  0  0  0  0  0
   -4.7634   -3.0311   -2.8934 H   0  0  0  0  0  0  0  0  0  0  0  0
   -1.2622   -2.3275    0.6013 H   0  0  0  0  0  0  0  0  0  0  0  0
   -3.7098   -0.7305   -3.9480 H   0  0  0  0  0  0  0  0  0  0  0  0
    1.3989    2.1426    1.5908 H   0  0  0  0  0  0  0  0  0  0  0  0
   -1.5991    2.7186    3.2027 H   0  0  0  0  0  0  0  0  0  0  0  0
   -3.0898    1.8572    2.8296 H   0  0  0  0  0  0  0  0  0  0  0  0
   -1.1485    4.7806    1.3332 H   0  0  0  0  0  0  0  0  0  0  0  0
   -2.1996    6.9261    0.7316 H   0  0  0  0  0  0  0  0  0  0  0  0
   -4.6340    7.2693    1.0823 H   0  0  0  0  0  0  0  0  0  0  0  0
   -6.0139    5.4544    2.0449 H   0  0  0  0  0  0  0  0  0  0  0  0
   -4.9833    3.3019    2.6751 H   0  0  0  0  0  0  0  0  0  0  0  0
   -4.0567    2.0856    0.4171 H   0  0  0  0  0  0  0  0  0  0  0  0
    1.4212    1.1043   -1.3100 H   0  0  0  0  0  0  0  0  0  0  0  0
    2.4627    0.1024    0.6828 H   0  0  0  0  0  0  0  0  0  0  0  0
    1.3993   -1.2981    0.6088 H   0  0  0  0  0  0  0  0  0  0  0  0
    7.7614    0.4280    0.0721 H   0  0  0  0  0  0  0  0  0  0  0  0
    6.2196    1.1152   -0.5037 H   0  0  0  0  0  0  0  0  0  0  0  0
    6.8692   -0.3469   -1.2350 H   0  0  0  0  0  0  0  0  0  0  0  0
    7.0414    0.2356    2.4587 H   0  0  0  0  0  0  0  0  0  0  0  0
    5.4504   -0.4503    2.8560 H   0  0  0  0  0  0  0  0  0  0  0  0
    5.5500    1.0792    1.9980 H   0  0  0  0  0  0  0  0  0  0  0  0
    7.6326   -1.9657    1.3443 H   0  0  0  0  0  0  0  0  0  0  0  0
    6.0111   -2.6453    1.6400 H   0  0  0  0  0  0  0  0  0  0  0  0
    6.6723   -2.6042    0.0123 H   0  0  0  0  0  0  0  0  0  0  0  0
    2.5852   -1.1338   -2.9708 H   0  0  0  0  0  0  0  0  0  0  0  0
    2.6155   -2.7825   -2.3295 H   0  0  0  0  0  0  0  0  0  0  0  0
    0.3173   -2.1338   -3.0984 H   0  0  0  0  0  0  0  0  0  0  0  0
    0.3922   -2.5224   -1.3747 H   0  0  0  0  0  0  0  0  0  0  0  0
  1  2  1  0
  2  3  1  0
  3  4  2  0
  4  5  1  0
  5  6  2  0
  6  7  1  0
  7  8  2  0
  7  9  1  0
  9 10  1  0
 10 11  2  0
 10 12  1  0
  9 13  1  0
 13 14  1  0
 14 15  2  0
 15 16  1  0
 15 17  1  0
 17 18  1  0
 18 19  1  0
 19 20  2  0
 20 21  1  0
 21 22  2  0
 22 23  1  0
 23 24  2  0
 17 25  1  0
 25 26  1  0
 14 27  1  0
 27 28  1  0
 28 29  1  0
 29 30  1  0
 30 31  2  0
 30 32  1  0
 32 33  1  0
 33 34  1  0
 33 35  1  0
 33 36  1  0
 29 37  1  0
 37 38  1  0
 38 39  1  0
  8  3  1  0
  9 39  1  6
 12  6  1  0
 25 13  2  0
 39 27  1  0
 24 19  1  0
  1 40  1  0
  1 41  1  0
  1 42  1  0
  4 43  1  0
  5 44  1  0
  8 45  1  0
 12 46  1  0
 16 47  1  0
 18 48  1  0
 18 49  1  0
 20 50  1  0
 21 51  1  0
 22 52  1  0
 23 53  1  0
 24 54  1  0
 26 55  1  0
 27 56  1  6
 28 57  1  0
 28 58  1  0
 34 59  1  0
 34 60  1  0
 34 61  1  0
 35 62  1  0
 35 63  1  0
 35 64  1  0
 36 65  1  0
 36 66  1  0
 36 67  1  0
 37 68  1  0
 37 69  1  0
 38 70  1  0
 38 71  1  0
M  END
$$$$
