
     RDKit          3D

 38 40  0  0  0  0  0  0  0  0999 V2000
    3.4979   -3.8237    0.6218 N   0  0  0  0  0  0  0  0  0  0  0  0
    3.2301   -2.6950    0.6743 C   0  0  0  0  0  0  0  0  0  0  0  0
    2.9217   -1.3080    0.6758 C   0  0  0  0  0  0  0  0  0  0  0  0
    3.7617   -0.3192    0.3137 C   0  0  0  0  0  0  0  0  0  0  0  0
    5.0801   -0.4938   -0.2084 C   0  0  0  0  0  0  0  0  0  0  0  0
    5.6624   -1.5113   -0.9514 C   0  0  0  0  0  0  0  0  0  0  0  0
    7.0339   -1.2650   -1.2694 C   0  0  0  0  0  0  0  0  0  0  0  0
    7.4469   -0.0584   -0.7736 C   0  0  0  0  0  0  0  0  0  0  0  0
    9.2168    0.6249   -0.9994 Br  0  0  0  0  0  0  0  0  0  0  0  0
    6.2313    0.7755    0.0511 S   0  0  0  0  0  0  0  0  0  0  0  0
    1.5923   -0.9212    1.2261 C   0  0  0  0  0  0  0  0  0  0  0  0
    1.1570   -1.4280    2.2526 O   0  0  0  0  0  0  0  0  0  0  0  0
    0.8941   -0.0001    0.4748 N   0  0  0  0  0  0  0  0  0  0  0  0
   -0.4461    0.4215    0.8513 C   0  0  0  0  0  0  0  0  0  0  0  0
   -1.5148   -0.6009    0.4552 C   0  0  0  0  0  0  0  0  0  0  0  0
   -2.8959   -0.1158    0.7592 C   0  0  0  0  0  0  0  0  0  0  0  0
   -3.6174   -0.3776    1.9075 C   0  0  0  0  0  0  0  0  0  0  0  0
   -4.8306    0.2469    1.8063 N   0  0  0  0  0  0  0  0  0  0  0  0
   -4.9205    0.9204    0.6108 C   0  0  0  0  0  0  0  0  0  0  0  0
   -5.9649    1.6923    0.0876 C   0  0  0  0  0  0  0  0  0  0  0  0
   -5.7784    2.2653   -1.1735 C   0  0  0  0  0  0  0  0  0  0  0  0
   -4.5946    2.0718   -1.8810 C   0  0  0  0  0  0  0  0  0  0  0  0
   -3.5604    1.2971   -1.3428 C   0  0  0  0  0  0  0  0  0  0  0  0
   -3.7221    0.7083   -0.0714 C   0  0  0  0  0  0  0  0  0  0  0  0
    3.4419    0.7122    0.4635 H   0  0  0  0  0  0  0  0  0  0  0  0
    5.1447   -2.4083   -1.2713 H   0  0  0  0  0  0  0  0  0  0  0  0
    7.6639   -1.9425   -1.8329 H   0  0  0  0  0  0  0  0  0  0  0  0
    1.2332    0.2772   -0.4374 H   0  0  0  0  0  0  0  0  0  0  0  0
   -0.4674    0.5960    1.9337 H   0  0  0  0  0  0  0  0  0  0  0  0
   -0.6246    1.3827    0.3563 H   0  0  0  0  0  0  0  0  0  0  0  0
   -1.3360   -1.5505    0.9751 H   0  0  0  0  0  0  0  0  0  0  0  0
   -1.4322   -0.8254   -0.6158 H   0  0  0  0  0  0  0  0  0  0  0  0
   -3.3677   -0.9571    2.7871 H   0  0  0  0  0  0  0  0  0  0  0  0
   -5.5594    0.2210    2.5058 H   0  0  0  0  0  0  0  0  0  0  0  0
   -6.8892    1.8432    0.6355 H   0  0  0  0  0  0  0  0  0  0  0  0
   -6.5714    2.8695   -1.6083 H   0  0  0  0  0  0  0  0  0  0  0  0
   -4.4720    2.5246   -2.8617 H   0  0  0  0  0  0  0  0  0  0  0  0
   -2.6443    1.1513   -1.9063 H   0  0  0  0  0  0  0  0  0  0  0  0
  1  2  3  0
  2  3  1  0
  3  4  2  3
  4  5  1  0
  5  6  2  0
  6  7  1  0
  7  8  2  0
  8  9  1  0
  8 10  1  0
  3 11  1  0
 11 12  2  0
 11 13  1  0
 13 14  1  0
 14 15  1  0
 15 16  1  0
 16 17  2  0
 17 18  1  0
 18 19  1  0
 19 20  2  0
 20 21  1  0
 21 22  2  0
 22 23  1  0
 23 24  2  0
 10  5  1  0
 24 16  1  0
 24 19  1  0
  4 25  1  0
  6 26  1  0
  7 27  1  0
 13 28  1  0
 14 29  1  0
 14 30  1  0
 15 31  1  0
 15 32  1  0
 17 33  1  0
 18 34  1  0
 20 35  1  0
 21 36  1  0
 22 37  1  0
 23 38  1  0
M  END
$$$$
