
     RDKit          3D

 35 37  0  0  0  0  0  0  0  0999 V2000
    5.9971    0.5757    1.0121 C   0  0  0  0  0  0  0  0  0  0  0  0
    4.6937    0.8574    0.2788 C   0  0  0  0  0  0  0  0  0  0  0  0
    4.4311   -0.1946   -0.7970 C   0  0  0  0  0  0  0  0  0  0  0  0
    2.8950    0.1518   -1.7103 S   0  0  0  0  0  0  0  0  0  0  0  0
    1.6976   -0.4200   -0.5993 C   0  0  0  0  0  0  0  0  0  0  0  0
    1.9191   -1.0522    0.5263 N   0  0  0  0  0  0  0  0  0  0  0  0
    0.6992   -1.3038    1.1005 N   0  0  0  0  0  0  0  0  0  0  0  0
   -0.2441   -0.7665    0.3438 C   0  0  0  0  0  0  0  0  0  0  0  0
   -1.7483   -0.7752    0.7877 C   0  0  0  0  0  0  0  0  0  0  0  0
   -2.1489   -1.5759    1.8386 C   0  0  0  0  0  0  0  0  0  0  0  0
   -3.5004   -1.4584    1.9774 N   0  0  0  0  0  0  0  0  0  0  0  0
   -3.9885   -0.5408    1.0769 C   0  0  0  0  0  0  0  0  0  0  0  0
   -5.3040   -0.0942    0.8927 C   0  0  0  0  0  0  0  0  0  0  0  0
   -5.5288    0.8981   -0.0613 C   0  0  0  0  0  0  0  0  0  0  0  0
   -4.4729    1.4350   -0.7871 C   0  0  0  0  0  0  0  0  0  0  0  0
   -3.1640    0.9736   -0.5917 C   0  0  0  0  0  0  0  0  0  0  0  0
   -2.9018   -0.0625    0.3321 C   0  0  0  0  0  0  0  0  0  0  0  0
    0.3482   -0.2850   -0.7990 N   0  0  0  0  0  0  0  0  0  0  0  0
   -0.2878    0.0659   -2.0392 C   0  0  0  0  0  0  0  0  0  0  0  0
    6.8461    0.5835    0.3210 H   0  0  0  0  0  0  0  0  0  0  0  0
    6.1743    1.3390    1.7762 H   0  0  0  0  0  0  0  0  0  0  0  0
    5.9651   -0.4000    1.5074 H   0  0  0  0  0  0  0  0  0  0  0  0
    4.7529    1.8551   -0.1729 H   0  0  0  0  0  0  0  0  0  0  0  0
    3.8791    0.8786    1.0117 H   0  0  0  0  0  0  0  0  0  0  0  0
    4.4008   -1.2031   -0.3708 H   0  0  0  0  0  0  0  0  0  0  0  0
    5.2488   -0.1820   -1.5261 H   0  0  0  0  0  0  0  0  0  0  0  0
   -1.5806   -2.2462    2.4711 H   0  0  0  0  0  0  0  0  0  0  0  0
   -4.0617   -1.9504    2.6589 H   0  0  0  0  0  0  0  0  0  0  0  0
   -6.1247   -0.4928    1.4808 H   0  0  0  0  0  0  0  0  0  0  0  0
   -6.5384    1.2694   -0.2217 H   0  0  0  0  0  0  0  0  0  0  0  0
   -4.6610    2.2307   -1.5041 H   0  0  0  0  0  0  0  0  0  0  0  0
   -2.3646    1.4557   -1.1390 H   0  0  0  0  0  0  0  0  0  0  0  0
    0.3014   -0.3143   -2.8781 H   0  0  0  0  0  0  0  0  0  0  0  0
   -0.3588    1.1538   -2.0986 H   0  0  0  0  0  0  0  0  0  0  0  0
   -1.2701   -0.4052   -2.0991 H   0  0  0  0  0  0  0  0  0  0  0  0
  1  2  1  0
  2  3  1  0
  3  4  1  0
  4  5  1  0
  5  6  2  0
  6  7  1  0
  7  8  2  0
  8  9  1  0
  9 10  2  0
 10 11  1  0
 11 12  1  0
 12 13  2  0
 13 14  1  0
 14 15  2  0
 15 16  1  0
 16 17  2  0
  8 18  1  0
 18 19  1  0
 18  5  1  0
 17  9  1  0
 17 12  1  0
  1 20  1  0
  1 21  1  0
  1 22  1  0
  2 23  1  0
  2 24  1  0
  3 25  1  0
  3 26  1  0
 10 27  1  0
 11 28  1  0
 13 29  1  0
 14 30  1  0
 15 31  1  0
 16 32  1  0
 19 33  1  0
 19 34  1  0
 19 35  1  0
M  END
$$$$
