
     RDKit          3D

 35 37  0  0  0  0  0  0  0  0999 V2000
    5.5106   -0.6820   -0.1938 C   0  0  0  0  0  0  0  0  0  0  0  0
    4.1367   -0.7569    0.4152 C   0  0  0  0  0  0  0  0  0  0  0  0
    3.3979   -1.9442    0.2986 C   0  0  0  0  0  0  0  0  0  0  0  0
    2.1239   -2.0493    0.8586 C   0  0  0  0  0  0  0  0  0  0  0  0
    1.5623   -0.9687    1.5354 C   0  0  0  0  0  0  0  0  0  0  0  0
    0.2768   -1.0679    2.0820 N   0  0  0  0  0  0  0  0  0  0  0  0
   -0.7316   -0.7081    1.3657 C   0  0  0  0  0  0  0  0  0  0  0  0
   -0.7174   -0.2260    0.0980 N   0  0  0  0  0  0  0  0  0  0  0  0
   -1.9099    0.1163   -0.4736 C   0  0  0  0  0  0  0  0  0  0  0  0
   -1.9947    0.5937   -1.5925 O   0  0  0  0  0  0  0  0  0  0  0  0
   -3.0318   -0.1683    0.4719 C   0  0  0  0  0  0  0  0  0  0  0  0
   -4.3528    0.0126    0.3301 C   0  0  0  0  0  0  0  0  0  0  0  0
   -5.0094    0.5038   -0.8326 C   0  0  0  0  0  0  0  0  0  0  0  0
   -4.8487    0.1964   -2.1726 C   0  0  0  0  0  0  0  0  0  0  0  0
   -5.7426    0.9096   -3.0242 C   0  0  0  0  0  0  0  0  0  0  0  0
   -6.5839    1.7307   -2.3121 C   0  0  0  0  0  0  0  0  0  0  0  0
   -6.3005    1.6331   -0.6318 S   0  0  0  0  0  0  0  0  0  0  0  0
   -2.3662   -0.7933    1.9580 S   0  0  0  0  0  0  0  0  0  0  0  0
    2.3012    0.2084    1.6771 C   0  0  0  0  0  0  0  0  0  0  0  0
    3.5851    0.3316    1.1202 C   0  0  0  0  0  0  0  0  0  0  0  0
    4.3426    1.6192    1.2959 C   0  0  0  0  0  0  0  0  0  0  0  0
    5.5695    0.1509   -0.9016 H   0  0  0  0  0  0  0  0  0  0  0  0
    5.7564   -1.5964   -0.7444 H   0  0  0  0  0  0  0  0  0  0  0  0
    6.2652   -0.5520    0.5882 H   0  0  0  0  0  0  0  0  0  0  0  0
    3.8140   -2.8027   -0.2247 H   0  0  0  0  0  0  0  0  0  0  0  0
    1.5695   -2.9797    0.7704 H   0  0  0  0  0  0  0  0  0  0  0  0
    0.1395   -0.0843   -0.4128 H   0  0  0  0  0  0  0  0  0  0  0  0
   -4.9987   -0.2106    1.1787 H   0  0  0  0  0  0  0  0  0  0  0  0
   -4.1128   -0.5088   -2.5403 H   0  0  0  0  0  0  0  0  0  0  0  0
   -5.7643    0.8206   -4.1032 H   0  0  0  0  0  0  0  0  0  0  0  0
   -7.3572    2.3809   -2.6972 H   0  0  0  0  0  0  0  0  0  0  0  0
    1.8659    1.0346    2.2351 H   0  0  0  0  0  0  0  0  0  0  0  0
    3.7710    2.3453    1.8837 H   0  0  0  0  0  0  0  0  0  0  0  0
    5.2845    1.4378    1.8233 H   0  0  0  0  0  0  0  0  0  0  0  0
    4.5500    2.0737    0.3220 H   0  0  0  0  0  0  0  0  0  0  0  0
  1  2  1  0
  2  3  2  0
  3  4  1  0
  4  5  2  0
  5  6  1  0
  6  7  2  3
  7  8  1  0
  8  9  1  0
  9 10  2  0
  9 11  1  0
 11 12  2  3
 12 13  1  0
 13 14  2  0
 14 15  1  0
 15 16  2  0
 16 17  1  0
 11 18  1  0
  5 19  1  0
 19 20  2  0
 20 21  1  0
 20  2  1  0
 18  7  1  0
 17 13  1  0
  1 22  1  0
  1 23  1  0
  1 24  1  0
  3 25  1  0
  4 26  1  0
  8 27  1  0
 12 28  1  0
 14 29  1  0
 15 30  1  0
 16 31  1  0
 19 32  1  0
 21 33  1  0
 21 34  1  0
 21 35  1  0
M  END
$$$$
