
     RDKit          3D

 43 45  0  0  0  0  0  0  0  0999 V2000
    7.4153   -1.3061    0.4996 C   0  0  0  0  0  0  0  0  0  0  0  0
    6.8572   -0.8427   -0.7235 O   0  0  0  0  0  0  0  0  0  0  0  0
    5.5206   -0.5565   -0.7223 C   0  0  0  0  0  0  0  0  0  0  0  0
    4.6590   -0.6565    0.3672 C   0  0  0  0  0  0  0  0  0  0  0  0
    3.3027   -0.3296    0.2271 C   0  0  0  0  0  0  0  0  0  0  0  0
    2.7833    0.1095   -0.9955 C   0  0  0  0  0  0  0  0  0  0  0  0
    1.4179    0.4169   -1.1864 N   0  0  0  0  0  0  0  0  0  0  0  0
    0.3184    0.0057   -0.5084 C   0  0  0  0  0  0  0  0  0  0  0  0
    0.1543   -1.1666    0.2559 C   0  0  0  0  0  0  0  0  0  0  0  0
   -1.1593   -1.2238    0.6697 C   0  0  0  0  0  0  0  0  0  0  0  0
   -1.7682   -2.2304    1.2972 O   0  0  0  0  0  0  0  0  0  0  0  0
   -1.7944   -0.0545    0.2524 N   0  0  0  0  0  0  0  0  0  0  0  0
   -3.1431    0.3251    0.5269 C   0  0  0  0  0  0  0  0  0  0  0  0
   -3.9310    0.7594   -0.5541 C   0  0  0  0  0  0  0  0  0  0  0  0
   -5.2741    1.0927   -0.3463 C   0  0  0  0  0  0  0  0  0  0  0  0
   -6.1008    1.5308   -1.4777 N   0  0  0  0  0  4  0  0  0  0  0  0
   -7.2509    1.9225   -1.2320 O   0  0  0  0  0  0  0  0  0  0  0  0
   -5.6048    1.4774   -2.6119 O   0  0  0  0  0  1  0  0  0  0  0  0
   -5.8404    0.9984    0.9279 C   0  0  0  0  0  0  0  0  0  0  0  0
   -5.0481    0.5926    2.0038 C   0  0  0  0  0  0  0  0  0  0  0  0
   -3.6873    0.2762    1.8300 C   0  0  0  0  0  0  0  0  0  0  0  0
   -2.8897   -0.0338    3.0714 C   0  0  0  0  0  0  0  0  0  0  0  0
   -0.8921    0.6700   -0.5244 C   0  0  0  0  0  0  0  0  0  0  0  0
   -1.2176    1.8439   -1.0697 O   0  0  0  0  0  0  0  0  0  0  0  0
    3.6598    0.2005   -2.0847 C   0  0  0  0  0  0  0  0  0  0  0  0
    5.0130   -0.1262   -1.9478 C   0  0  0  0  0  0  0  0  0  0  0  0
    7.3351   -0.5452    1.2830 H   0  0  0  0  0  0  0  0  0  0  0  0
    6.9530   -2.2479    0.8134 H   0  0  0  0  0  0  0  0  0  0  0  0
    8.4792   -1.4980    0.3301 H   0  0  0  0  0  0  0  0  0  0  0  0
    5.0035   -0.9814    1.3430 H   0  0  0  0  0  0  0  0  0  0  0  0
    2.6645   -0.3964    1.1039 H   0  0  0  0  0  0  0  0  0  0  0  0
    1.2849    0.9948   -2.0105 H   0  0  0  0  0  0  0  0  0  0  0  0
    0.8812   -1.9492    0.4250 H   0  0  0  0  0  0  0  0  0  0  0  0
   -2.7323   -2.1139    1.2293 H   0  0  0  0  0  0  0  0  0  0  0  0
   -3.5055    0.8102   -1.5556 H   0  0  0  0  0  0  0  0  0  0  0  0
   -6.8849    1.2488    1.1037 H   0  0  0  0  0  0  0  0  0  0  0  0
   -5.4956    0.5530    2.9969 H   0  0  0  0  0  0  0  0  0  0  0  0
   -3.2640    0.5499    3.9205 H   0  0  0  0  0  0  0  0  0  0  0  0
   -2.9727   -1.0937    3.3267 H   0  0  0  0  0  0  0  0  0  0  0  0
   -1.8367    0.2402    2.9594 H   0  0  0  0  0  0  0  0  0  0  0  0
   -0.3826    2.2690   -1.3337 H   0  0  0  0  0  0  0  0  0  0  0  0
    3.2985    0.5149   -3.0603 H   0  0  0  0  0  0  0  0  0  0  0  0
    5.6746   -0.0499   -2.8072 H   0  0  0  0  0  0  0  0  0  0  0  0
  1  2  1  0
  2  3  1  0
  3  4  2  0
  4  5  1  0
  5  6  2  0
  6  7  1  0
  7  8  1  0
  8  9  1  0
  9 10  2  0
 10 11  1  0
 10 12  1  0
 12 13  1  0
 13 14  2  0
 14 15  1  0
 15 16  1  0
 16 17  2  0
 16 18  1  0
 15 19  2  0
 19 20  1  0
 20 21  2  0
 21 22  1  0
 12 23  1  0
 23 24  1  0
  6 25  1  0
 25 26  2  0
 26  3  1  0
 23  8  2  0
 21 13  1  0
  1 27  1  0
  1 28  1  0
  1 29  1  0
  4 30  1  0
  5 31  1  0
  7 32  1  0
  9 33  1  0
 11 34  1  0
 14 35  1  0
 19 36  1  0
 20 37  1  0
 22 38  1  0
 22 39  1  0
 22 40  1  0
 24 41  1  0
 25 42  1  0
 26 43  1  0
M  CHG  2  16   1  18  -1
M  END
$$$$
