
     RDKit          3D

 51 53  0  0  0  0  0  0  0  0999 V2000
    5.1630   -2.5955    0.4605 O   0  0  0  0  0  0  0  0  0  0  0  0
    4.4176   -2.3112   -0.4662 C   0  0  0  0  0  0  0  0  0  0  0  0
    3.3596   -3.0613   -0.9212 N   0  0  0  0  0  0  0  0  0  0  0  0
    2.8665   -4.2031   -0.1962 C   0  0  0  0  0  0  0  0  0  0  0  0
    1.8831   -3.7377    0.8127 C   0  0  0  0  0  0  0  0  0  0  0  0
    1.9118   -3.6555    2.1882 C   0  0  0  0  0  0  0  0  0  0  0  0
    0.6737   -3.0956    2.5799 C   0  0  0  0  0  0  0  0  0  0  0  0
   -0.0400   -2.8608    1.4210 C   0  0  0  0  0  0  0  0  0  0  0  0
   -1.3372   -2.2889    1.1859 C   0  0  0  0  0  0  0  0  0  0  0  0
   -2.0714   -1.9101    2.1837 N   0  0  0  0  0  0  0  0  0  0  0  0
   -3.2840   -1.3180    1.9310 N   0  0  0  0  0  0  0  0  0  0  0  0
   -3.6049   -0.5328    0.8353 C   0  0  0  0  0  0  0  0  0  0  0  0
   -2.9491   -0.3322   -0.1796 O   0  0  0  0  0  0  0  0  0  0  0  0
   -4.9724    0.1606    0.9940 C   0  0  0  0  0  0  0  0  0  0  0  0
   -5.6076   -0.0306    2.0209 O   0  0  0  0  0  0  0  0  0  0  0  0
   -5.2904    0.9412   -0.0959 N   0  0  0  0  0  0  0  0  0  0  0  0
   -6.4448    1.7237   -0.3064 C   0  0  0  0  0  0  0  0  0  0  0  0
   -7.5031    1.7690    0.6063 C   0  0  0  0  0  0  0  0  0  0  0  0
   -8.6281    2.5625    0.3555 C   0  0  0  0  0  0  0  0  0  0  0  0
   -8.7091    3.3212   -0.8096 C   0  0  0  0  0  0  0  0  0  0  0  0
   -7.6655    3.2865   -1.7315 C   0  0  0  0  0  0  0  0  0  0  0  0
   -6.5419    2.4917   -1.4823 C   0  0  0  0  0  0  0  0  0  0  0  0
   -5.1540    2.4942   -2.7847 Br  0  0  0  0  0  0  0  0  0  0  0  0
    0.6937   -3.2627    0.3401 O   0  0  0  0  0  0  0  0  0  0  0  0
    4.6043   -0.9772   -1.2208 C   0  0  0  0  0  0  0  0  0  0  0  0
    3.9063   -0.7547   -2.2013 O   0  0  0  0  0  0  0  0  0  0  0  0
    5.5651   -0.1848   -0.6294 N   0  0  0  0  0  0  0  0  0  0  0  0
    5.9646    1.1088   -1.0034 C   0  0  0  0  0  0  0  0  0  0  0  0
    5.4584    1.7836   -2.1174 C   0  0  0  0  0  0  0  0  0  0  0  0
    5.8914    3.0792   -2.4176 C   0  0  0  0  0  0  0  0  0  0  0  0
    6.8352    3.7075   -1.6061 C   0  0  0  0  0  0  0  0  0  0  0  0
    7.3517    3.0382   -0.4973 C   0  0  0  0  0  0  0  0  0  0  0  0
    6.9211    1.7428   -0.2000 C   0  0  0  0  0  0  0  0  0  0  0  0
    2.7498   -2.6087   -1.5977 H   0  0  0  0  0  0  0  0  0  0  0  0
    3.6995   -4.7280    0.2839 H   0  0  0  0  0  0  0  0  0  0  0  0
    2.3918   -4.8783   -0.9148 H   0  0  0  0  0  0  0  0  0  0  0  0
    2.7341   -3.9500    2.8259 H   0  0  0  0  0  0  0  0  0  0  0  0
    0.3359   -2.8695    3.5822 H   0  0  0  0  0  0  0  0  0  0  0  0
   -1.6533   -2.2194    0.1311 H   0  0  0  0  0  0  0  0  0  0  0  0
   -3.8942   -1.2196    2.7440 H   0  0  0  0  0  0  0  0  0  0  0  0
   -4.5830    0.9663   -0.8311 H   0  0  0  0  0  0  0  0  0  0  0  0
   -7.4892    1.1935    1.5273 H   0  0  0  0  0  0  0  0  0  0  0  0
   -9.4423    2.5846    1.0764 H   0  0  0  0  0  0  0  0  0  0  0  0
   -9.5850    3.9378   -0.9991 H   0  0  0  0  0  0  0  0  0  0  0  0
   -7.7360    3.8825   -2.6395 H   0  0  0  0  0  0  0  0  0  0  0  0
    6.0004   -0.5957    0.1944 H   0  0  0  0  0  0  0  0  0  0  0  0
    4.7289    1.3256   -2.7793 H   0  0  0  0  0  0  0  0  0  0  0  0
    5.4879    3.5955   -3.2845 H   0  0  0  0  0  0  0  0  0  0  0  0
    7.1668    4.7156   -1.8384 H   0  0  0  0  0  0  0  0  0  0  0  0
    8.0872    3.5272    0.1394 H   0  0  0  0  0  0  0  0  0  0  0  0
    7.3373    1.2431    0.6719 H   0  0  0  0  0  0  0  0  0  0  0  0
  1  2  2  0
  2  3  1  0
  3  4  1  0
  4  5  1  0
  5  6  2  0
  6  7  1  0
  7  8  2  0
  8  9  1  0
  9 10  2  3
 10 11  1  0
 11 12  1  0
 12 13  2  0
 12 14  1  0
 14 15  2  0
 14 16  1  0
 16 17  1  0
 17 18  2  0
 18 19  1  0
 19 20  2  0
 20 21  1  0
 21 22  2  0
 22 23  1  0
  8 24  1  0
  2 25  1  0
 25 26  2  0
 25 27  1  0
 27 28  1  0
 28 29  2  0
 29 30  1  0
 30 31  2  0
 31 32  1  0
 32 33  2  0
 24  5  1  0
 33 28  1  0
 22 17  1  0
  3 34  1  0
  4 35  1  0
  4 36  1  0
  6 37  1  0
  7 38  1  0
  9 39  1  0
 11 40  1  0
 16 41  1  0
 18 42  1  0
 19 43  1  0
 20 44  1  0
 21 45  1  0
 27 46  1  0
 29 47  1  0
 30 48  1  0
 31 49  1  0
 32 50  1  0
 33 51  1  0
M  END
$$$$
