
     RDKit          3D

 41 42  0  0  0  0  0  0  0  0999 V2000
    1.5361   -1.6989   -0.9262 C   0  0  0  0  0  0  0  0  0  0  0  0
    1.9769   -0.7101    0.1337 C   0  0  0  0  0  0  0  0  0  0  0  0
    1.3780   -0.5498    1.2775 N   0  0  0  0  0  0  0  0  0  0  0  0
    0.2855   -1.3025    1.5710 N   0  0  0  0  0  0  0  0  0  0  0  0
   -0.4491   -1.0300    2.7176 C   0  0  0  0  0  0  0  0  0  0  0  0
   -0.1585   -0.1971    3.5737 O   0  0  0  0  0  0  0  0  0  0  0  0
   -1.6844   -1.9014    2.8527 C   0  0  0  0  0  0  0  0  0  0  0  0
   -2.7506   -1.7914    1.3777 S   0  0  0  0  0  0  0  0  0  0  0  0
   -3.2161   -0.0284    1.5028 C   0  0  0  0  0  0  0  0  0  0  0  0
   -4.0554    0.3978    0.3225 C   0  0  0  0  0  0  0  0  0  0  0  0
   -5.4561    0.2911    0.4204 C   0  0  0  0  0  0  0  0  0  0  0  0
   -6.2835    0.6619   -0.6411 C   0  0  0  0  0  0  0  0  0  0  0  0
   -5.7266    1.1405   -1.8226 C   0  0  0  0  0  0  0  0  0  0  0  0
   -4.3418    1.2446   -1.9442 C   0  0  0  0  0  0  0  0  0  0  0  0
   -3.5088    0.8734   -0.8820 C   0  0  0  0  0  0  0  0  0  0  0  0
   -1.6353    1.0423   -1.1574 Br  0  0  0  0  0  0  0  0  0  0  0  0
    3.1768    0.1382   -0.1446 C   0  0  0  0  0  0  0  0  0  0  0  0
    3.2478    1.4152    0.4327 C   0  0  0  0  0  0  0  0  0  0  0  0
    4.3533    2.2385    0.2068 C   0  0  0  0  0  0  0  0  0  0  0  0
    5.4036    1.7905   -0.5930 C   0  0  0  0  0  0  0  0  0  0  0  0
    5.3404    0.5095   -1.1580 C   0  0  0  0  0  0  0  0  0  0  0  0
    6.4498    0.0301   -1.9921 N   0  0  0  0  0  4  0  0  0  0  0  0
    7.4356    0.7688   -2.1233 O   0  0  0  0  0  0  0  0  0  0  0  0
    6.3308   -1.0851   -2.5193 O   0  0  0  0  0  1  0  0  0  0  0  0
    4.2333   -0.3239   -0.9356 C   0  0  0  0  0  0  0  0  0  0  0  0
    0.4649   -1.5910   -1.1174 H   0  0  0  0  0  0  0  0  0  0  0  0
    2.0414   -1.5369   -1.8809 H   0  0  0  0  0  0  0  0  0  0  0  0
    1.7417   -2.7155   -0.5794 H   0  0  0  0  0  0  0  0  0  0  0  0
   -0.1286   -1.9033    0.8656 H   0  0  0  0  0  0  0  0  0  0  0  0
   -2.2542   -1.6011    3.7374 H   0  0  0  0  0  0  0  0  0  0  0  0
   -1.3669   -2.9400    2.9892 H   0  0  0  0  0  0  0  0  0  0  0  0
   -2.3300    0.6058    1.5925 H   0  0  0  0  0  0  0  0  0  0  0  0
   -3.7859    0.1125    2.4288 H   0  0  0  0  0  0  0  0  0  0  0  0
   -5.9136   -0.0896    1.3321 H   0  0  0  0  0  0  0  0  0  0  0  0
   -7.3628    0.5726   -0.5449 H   0  0  0  0  0  0  0  0  0  0  0  0
   -6.3694    1.4289   -2.6504 H   0  0  0  0  0  0  0  0  0  0  0  0
   -3.9197    1.6154   -2.8752 H   0  0  0  0  0  0  0  0  0  0  0  0
    2.4375    1.7755    1.0667 H   0  0  0  0  0  0  0  0  0  0  0  0
    4.3934    3.2266    0.6608 H   0  0  0  0  0  0  0  0  0  0  0  0
    6.2594    2.4424   -0.7583 H   0  0  0  0  0  0  0  0  0  0  0  0
    4.2112   -1.3261   -1.3552 H   0  0  0  0  0  0  0  0  0  0  0  0
  1  2  1  0
  2  3  2  3
  3  4  1  0
  4  5  1  0
  5  6  2  0
  5  7  1  0
  7  8  1  0
  8  9  1  0
  9 10  1  0
 10 11  2  0
 11 12  1  0
 12 13  2  0
 13 14  1  0
 14 15  2  0
 15 16  1  0
  2 17  1  0
 17 18  2  0
 18 19  1  0
 19 20  2  0
 20 21  1  0
 21 22  1  0
 22 23  2  0
 22 24  1  0
 21 25  2  0
 15 10  1  0
 25 17  1  0
  1 26  1  0
  1 27  1  0
  1 28  1  0
  4 29  1  0
  7 30  1  0
  7 31  1  0
  9 32  1  0
  9 33  1  0
 11 34  1  0
 12 35  1  0
 13 36  1  0
 14 37  1  0
 18 38  1  0
 19 39  1  0
 20 40  1  0
 25 41  1  0
M  CHG  2  22   1  24  -1
M  END
$$$$
