
     RDKit          3D

 46 49  0  0  0  0  0  0  0  0999 V2000
   -3.1528   -2.1616    2.1433 O   0  0  0  0  0  0  0  0  0  0  0  0
   -2.5534   -1.7993    1.1236 C   0  0  0  0  0  0  0  0  0  0  0  0
   -1.3246   -1.2232    1.2816 N   0  0  0  0  0  0  0  0  0  0  0  0
   -0.4674   -0.7725    0.2724 C   0  0  0  0  0  0  0  0  0  0  0  0
    0.6619   -0.0446    0.6612 C   0  0  0  0  0  0  0  0  0  0  0  0
    1.5611    0.4219   -0.3031 C   0  0  0  0  0  0  0  0  0  0  0  0
    2.7230    1.2230    0.1432 C   0  0  0  0  0  0  0  0  0  0  0  0
    2.5072    2.1568    0.9118 O   0  0  0  0  0  0  0  0  0  0  0  0
    3.9907    0.8910   -0.3148 N   0  0  0  0  0  0  0  0  0  0  0  0
    4.3622   -0.3856   -0.9387 C   0  0  0  0  0  0  0  0  0  0  0  0
    5.7883   -0.7934   -0.5513 C   0  0  0  0  0  0  0  0  0  0  0  0
    6.7757    0.1797   -0.9153 O   0  0  0  0  0  0  0  0  0  0  0  0
    6.3075    1.5362   -0.8682 C   0  0  0  0  0  0  0  0  0  0  0  0
    5.1139    1.7487    0.0659 C   0  0  0  0  0  0  0  0  0  0  0  0
    1.3209    0.1901   -1.6584 C   0  0  0  0  0  0  0  0  0  0  0  0
    0.2037   -0.5540   -2.0417 C   0  0  0  0  0  0  0  0  0  0  0  0
   -0.6945   -1.0423   -1.0815 C   0  0  0  0  0  0  0  0  0  0  0  0
   -2.0382   -2.0539   -1.6467 S   0  0  0  0  0  0  0  0  0  0  0  0
   -3.2080   -1.8902   -0.2656 C   0  0  0  0  0  0  0  0  0  0  0  0
   -4.2341   -0.8506   -0.5040 N   0  0  0  0  0  0  0  0  0  0  0  0
   -3.7506    0.5405   -0.4743 C   0  0  0  0  0  0  0  0  0  0  0  0
   -4.9244    1.5302   -0.3939 C   0  0  0  0  0  0  0  0  0  0  0  0
   -5.6804    1.4026    0.8176 O   0  0  0  0  0  0  0  0  0  0  0  0
   -5.6207    0.0880    1.3873 C   0  0  0  0  0  0  0  0  0  0  0  0
   -5.4406   -1.0179    0.3341 C   0  0  0  0  0  0  0  0  0  0  0  0
   -1.0525   -1.1037    2.2503 H   0  0  0  0  0  0  0  0  0  0  0  0
    0.8488    0.1793    1.7095 H   0  0  0  0  0  0  0  0  0  0  0  0
    3.6577   -1.1710   -0.6505 H   0  0  0  0  0  0  0  0  0  0  0  0
    4.3048   -0.2330   -2.0221 H   0  0  0  0  0  0  0  0  0  0  0  0
    6.0579   -1.7353   -1.0392 H   0  0  0  0  0  0  0  0  0  0  0  0
    5.8596   -0.9527    0.5311 H   0  0  0  0  0  0  0  0  0  0  0  0
    6.0405    1.8233   -1.8919 H   0  0  0  0  0  0  0  0  0  0  0  0
    7.1485    2.1654   -0.5604 H   0  0  0  0  0  0  0  0  0  0  0  0
    4.7983    2.7974    0.0565 H   0  0  0  0  0  0  0  0  0  0  0  0
    5.3833    1.4825    1.0949 H   0  0  0  0  0  0  0  0  0  0  0  0
    1.9883    0.5904   -2.4172 H   0  0  0  0  0  0  0  0  0  0  0  0
    0.0357   -0.7482   -3.0999 H   0  0  0  0  0  0  0  0  0  0  0  0
   -3.7153   -2.8635   -0.2811 H   0  0  0  0  0  0  0  0  0  0  0  0
   -3.1735    0.7553   -1.3794 H   0  0  0  0  0  0  0  0  0  0  0  0
   -3.1077    0.7186    0.3945 H   0  0  0  0  0  0  0  0  0  0  0  0
   -4.5524    2.5588   -0.4398 H   0  0  0  0  0  0  0  0  0  0  0  0
   -5.6084    1.3945   -1.2400 H   0  0  0  0  0  0  0  0  0  0  0  0
   -6.5521   -0.0700    1.9404 H   0  0  0  0  0  0  0  0  0  0  0  0
   -4.8042    0.0720    2.1177 H   0  0  0  0  0  0  0  0  0  0  0  0
   -6.2993   -0.9774   -0.3482 H   0  0  0  0  0  0  0  0  0  0  0  0
   -5.4842   -2.0019    0.8144 H   0  0  0  0  0  0  0  0  0  0  0  0
  1  2  2  0
  2  3  1  0
  3  4  1  0
  4  5  2  0
  5  6  1  0
  6  7  1  0
  7  8  2  0
  7  9  1  0
  9 10  1  0
 10 11  1  0
 11 12  1  0
 12 13  1  0
 13 14  1  0
  6 15  2  0
 15 16  1  0
 16 17  2  0
 17 18  1  0
 18 19  1  0
 19 20  1  0
 20 21  1  0
 21 22  1  0
 22 23  1  0
 23 24  1  0
 24 25  1  0
 19  2  1  0
 25 20  1  0
 17  4  1  0
 14  9  1  0
  3 26  1  0
  5 27  1  0
 10 28  1  0
 10 29  1  0
 11 30  1  0
 11 31  1  0
 13 32  1  0
 13 33  1  0
 14 34  1  0
 14 35  1  0
 15 36  1  0
 16 37  1  0
 19 38  1  0
 21 39  1  0
 21 40  1  0
 22 41  1  0
 22 42  1  0
 24 43  1  0
 24 44  1  0
 25 45  1  0
 25 46  1  0
M  END
$$$$
