
     RDKit          3D

 46 49  0  0  0  0  0  0  0  0999 V2000
    0.0912   -4.9573   -0.7838 C   0  0  0  0  0  0  0  0  0  0  0  0
   -0.6570   -3.7482   -0.8981 O   0  0  0  0  0  0  0  0  0  0  0  0
   -0.1031   -2.6812   -0.2444 C   0  0  0  0  0  0  0  0  0  0  0  0
    0.9385   -2.7468    0.4005 O   0  0  0  0  0  0  0  0  0  0  0  0
   -0.9019   -1.4640   -0.3710 C   0  0  0  0  0  0  0  0  0  0  0  0
   -2.1936   -1.4596   -0.7609 N   0  0  0  0  0  0  0  0  0  0  0  0
   -2.5276   -0.1459   -0.6948 N   0  0  0  0  0  0  0  0  0  0  0  0
   -3.8216    0.3199   -1.0438 C   0  0  0  0  0  0  0  0  0  0  0  0
   -4.8044   -0.5858   -1.4698 C   0  0  0  0  0  0  0  0  0  0  0  0
   -6.0742   -0.1222   -1.8188 C   0  0  0  0  0  0  0  0  0  0  0  0
   -6.3654    1.2395   -1.7476 C   0  0  0  0  0  0  0  0  0  0  0  0
   -5.3914    2.1428   -1.3226 C   0  0  0  0  0  0  0  0  0  0  0  0
   -4.1203    1.6880   -0.9686 C   0  0  0  0  0  0  0  0  0  0  0  0
   -1.5524    0.6967   -0.2707 N   0  0  0  0  0  0  0  0  0  0  0  0
   -0.5224   -0.1367   -0.0864 C   0  0  0  0  0  0  0  0  0  0  0  0
    0.8072    0.3202    0.2979 C   0  0  0  0  0  0  0  0  0  0  0  0
    1.9010    0.0569   -0.4236 N   0  0  0  0  0  0  0  0  0  0  0  0
    2.8578    0.7461    0.2490 N   0  0  0  0  0  0  0  0  0  0  0  0
    4.2154    0.7462   -0.1644 C   0  0  0  0  0  0  0  0  0  0  0  0
    4.6099    0.0026   -1.2856 C   0  0  0  0  0  0  0  0  0  0  0  0
    5.9474    0.0046   -1.6876 C   0  0  0  0  0  0  0  0  0  0  0  0
    6.8902    0.7469   -0.9773 C   0  0  0  0  0  0  0  0  0  0  0  0
    6.5014    1.4904    0.1369 C   0  0  0  0  0  0  0  0  0  0  0  0
    5.1670    1.4908    0.5478 C   0  0  0  0  0  0  0  0  0  0  0  0
    2.4371    1.4466    1.3326 N   0  0  0  0  0  0  0  0  0  0  0  0
    1.1190    1.1664    1.3831 C   0  0  0  0  0  0  0  0  0  0  0  0
    0.2483    1.6909    2.4327 C   0  0  0  0  0  0  0  0  0  0  0  0
    0.4787    2.7172    3.0642 O   0  0  0  0  0  0  0  0  0  0  0  0
   -0.8326    0.8869    2.6697 O   0  0  0  0  0  0  0  0  0  0  0  0
   -1.7122    1.3736    3.6833 C   0  0  0  0  0  0  0  0  0  0  0  0
    0.1757   -5.2602    0.2651 H   0  0  0  0  0  0  0  0  0  0  0  0
    1.0813   -4.8381   -1.2340 H   0  0  0  0  0  0  0  0  0  0  0  0
   -0.4448   -5.7409   -1.3264 H   0  0  0  0  0  0  0  0  0  0  0  0
   -4.5978   -1.6523   -1.5353 H   0  0  0  0  0  0  0  0  0  0  0  0
   -6.8357   -0.8243   -2.1501 H   0  0  0  0  0  0  0  0  0  0  0  0
   -7.3539    1.5974   -2.0239 H   0  0  0  0  0  0  0  0  0  0  0  0
   -5.6220    3.2039   -1.2677 H   0  0  0  0  0  0  0  0  0  0  0  0
   -3.3752    2.4114   -0.6427 H   0  0  0  0  0  0  0  0  0  0  0  0
    3.8911   -0.5851   -1.8527 H   0  0  0  0  0  0  0  0  0  0  0  0
    6.2550   -0.5786   -2.5524 H   0  0  0  0  0  0  0  0  0  0  0  0
    7.9307    0.7464   -1.2923 H   0  0  0  0  0  0  0  0  0  0  0  0
    7.2381    2.0694    0.6885 H   0  0  0  0  0  0  0  0  0  0  0  0
    4.8850    2.0751    1.4222 H   0  0  0  0  0  0  0  0  0  0  0  0
   -2.1558    2.3260    3.3758 H   0  0  0  0  0  0  0  0  0  0  0  0
   -1.1851    1.4807    4.6369 H   0  0  0  0  0  0  0  0  0  0  0  0
   -2.5166    0.6440    3.8095 H   0  0  0  0  0  0  0  0  0  0  0  0
  1  2  1  0
  2  3  1  0
  3  4  2  0
  3  5  1  0
  5  6  2  0
  6  7  1  0
  7  8  1  0
  8  9  2  0
  9 10  1  0
 10 11  2  0
 11 12  1  0
 12 13  2  0
  7 14  1  0
 14 15  2  0
 15 16  1  0
 16 17  2  0
 17 18  1  0
 18 19  1  0
 19 20  2  0
 20 21  1  0
 21 22  2  0
 22 23  1  0
 23 24  2  0
 18 25  1  0
 25 26  2  0
 26 27  1  0
 27 28  2  0
 27 29  1  0
 29 30  1  0
 15  5  1  0
 26 16  1  0
 13  8  1  0
 24 19  1  0
  1 31  1  0
  1 32  1  0
  1 33  1  0
  9 34  1  0
 10 35  1  0
 11 36  1  0
 12 37  1  0
 13 38  1  0
 20 39  1  0
 21 40  1  0
 22 41  1  0
 23 42  1  0
 24 43  1  0
 30 44  1  0
 30 45  1  0
 30 46  1  0
M  END
$$$$
