
     RDKit          3D

 37 37  0  0  0  0  0  0  0  0999 V2000
   -4.3388    1.2669   -0.7045 C   0  0  0  0  0  0  0  0  0  0  0  0
   -3.7320   -0.0760   -1.0811 C   0  0  0  0  0  0  0  0  0  0  0  0
   -2.9114   -0.6198    0.0106 N   0  0  0  0  0  0  0  0  0  0  0  0
   -3.6218   -1.4054    1.0309 C   0  0  0  0  0  0  0  0  0  0  0  0
   -3.7065   -0.6631    2.3580 C   0  0  0  0  0  0  0  0  0  0  0  0
   -1.5353   -0.4201    0.0541 C   0  0  0  0  0  0  0  0  0  0  0  0
   -0.8947    0.5583   -0.7287 C   0  0  0  0  0  0  0  0  0  0  0  0
    0.4920    0.7654   -0.6925 C   0  0  0  0  0  0  0  0  0  0  0  0
    1.2859   -0.0142    0.1408 C   0  0  0  0  0  0  0  0  0  0  0  0
    2.7489    0.1726    0.2005 C   0  0  0  0  0  0  0  0  0  0  0  0
    3.3526    1.0495   -0.5290 N   0  0  0  0  0  0  0  0  0  0  0  0
    4.8325    1.1767   -0.3942 C   0  0  0  0  0  0  0  0  0  0  0  0
    5.2558    1.2274    1.0160 C   0  0  0  0  0  0  0  0  0  0  0  0
    5.5758    1.2406    2.1317 N   0  0  0  0  0  0  0  0  0  0  0  0
    5.5021    0.0668   -1.1615 C   0  0  0  0  0  0  0  0  0  0  0  0
    4.9225   -0.7272   -2.0107 N   0  0  0  0  0  0  0  0  0  0  0  0
    6.9277   -0.1351   -1.0414 C   0  0  0  0  0  0  0  0  0  0  0  0
    8.0774   -0.2514   -0.9220 N   0  0  0  0  0  0  0  0  0  0  0  0
    0.6955   -0.9911    0.9342 C   0  0  0  0  0  0  0  0  0  0  0  0
   -0.6934   -1.1830    0.8849 C   0  0  0  0  0  0  0  0  0  0  0  0
   -4.9055    1.6741   -1.5477 H   0  0  0  0  0  0  0  0  0  0  0  0
   -3.5717    1.9955   -0.4254 H   0  0  0  0  0  0  0  0  0  0  0  0
   -5.0260    1.1649    0.1412 H   0  0  0  0  0  0  0  0  0  0  0  0
   -3.1629    0.0074   -2.0143 H   0  0  0  0  0  0  0  0  0  0  0  0
   -4.5441   -0.7752   -1.3175 H   0  0  0  0  0  0  0  0  0  0  0  0
   -3.1633   -2.3918    1.1621 H   0  0  0  0  0  0  0  0  0  0  0  0
   -4.6473   -1.6127    0.7001 H   0  0  0  0  0  0  0  0  0  0  0  0
   -2.7183   -0.4795    2.7895 H   0  0  0  0  0  0  0  0  0  0  0  0
   -4.2824   -1.2505    3.0802 H   0  0  0  0  0  0  0  0  0  0  0  0
   -4.2012    0.3057    2.2394 H   0  0  0  0  0  0  0  0  0  0  0  0
   -1.4663    1.2106   -1.3825 H   0  0  0  0  0  0  0  0  0  0  0  0
    0.9300    1.5415   -1.3147 H   0  0  0  0  0  0  0  0  0  0  0  0
    3.2915   -0.4955    0.8949 H   0  0  0  0  0  0  0  0  0  0  0  0
    5.1178    2.1181   -0.8790 H   0  0  0  0  0  0  0  0  0  0  0  0
    3.9243   -0.4675   -2.0686 H   0  0  0  0  0  0  0  0  0  0  0  0
    1.2898   -1.6156    1.5958 H   0  0  0  0  0  0  0  0  0  0  0  0
   -1.0992   -1.9671    1.5172 H   0  0  0  0  0  0  0  0  0  0  0  0
  1  2  1  0
  2  3  1  0
  3  4  1  0
  4  5  1  0
  3  6  1  0
  6  7  2  0
  7  8  1  0
  8  9  2  0
  9 10  1  0
 10 11  2  3
 11 12  1  0
 12 13  1  0
 13 14  3  0
 12 15  1  0
 15 16  2  3
 15 17  1  0
 17 18  3  0
  9 19  1  0
 19 20  2  0
 20  6  1  0
  1 21  1  0
  1 22  1  0
  1 23  1  0
  2 24  1  0
  2 25  1  0
  4 26  1  0
  4 27  1  0
  5 28  1  0
  5 29  1  0
  5 30  1  0
  7 31  1  0
  8 32  1  0
 10 33  1  0
 12 34  1  0
 16 35  1  0
 19 36  1  0
 20 37  1  0
M  END
$$$$
