
     RDKit          3D

 46 48  0  0  0  0  0  0  0  0999 V2000
   -3.1062   -0.9547    2.7473 C   0  0  0  0  0  0  0  0  0  0  0  0
   -3.6296   -0.4730    1.4197 C   0  0  0  0  0  0  0  0  0  0  0  0
   -4.8240    0.1587    1.4032 C   0  0  0  0  0  0  0  0  0  0  0  0
   -5.5219    0.6879    0.2252 C   0  0  0  0  0  0  0  0  0  0  0  0
   -5.0114    1.7840   -0.4797 C   0  0  0  0  0  0  0  0  0  0  0  0
   -5.6853    2.2753   -1.5998 C   0  0  0  0  0  0  0  0  0  0  0  0
   -6.8740    1.6773   -2.0169 C   0  0  0  0  0  0  0  0  0  0  0  0
   -7.3917    0.5900   -1.3139 C   0  0  0  0  0  0  0  0  0  0  0  0
   -6.7191    0.0975   -0.1932 C   0  0  0  0  0  0  0  0  0  0  0  0
   -2.9109   -0.8020    0.1900 C   0  0  0  0  0  0  0  0  0  0  0  0
   -1.6106   -1.0189   -0.0692 C   0  0  0  0  0  0  0  0  0  0  0  0
   -1.0982   -1.4447   -1.6861 S   0  0  0  0  0  0  0  0  0  0  0  0
    0.6010   -1.5411   -1.2548 C   0  0  0  0  0  0  0  0  0  0  0  0
    1.8024   -1.9645   -2.3281 S   0  0  0  0  0  0  0  0  0  0  0  0
    0.7250   -1.2452    0.0820 N   0  0  0  0  0  0  0  0  0  0  0  0
    2.0799   -1.1003    0.7659 N   0  0  0  0  0  0  0  0  0  0  0  0
    2.6545    0.5141    0.7581 S   0  0  0  0  0  6  0  0  0  0  0  0
    1.9084    1.2577   -0.2357 O   0  0  0  0  0  0  0  0  0  0  0  0
    2.7165    0.9351    2.1402 O   0  0  0  0  0  0  0  0  0  0  0  0
    4.3154    0.2905    0.1810 C   0  0  0  0  0  0  0  0  0  0  0  0
    5.3088   -0.0946    1.0857 C   0  0  0  0  0  0  0  0  0  0  0  0
    6.6221   -0.2511    0.6394 C   0  0  0  0  0  0  0  0  0  0  0  0
    6.9512   -0.0044   -0.7006 C   0  0  0  0  0  0  0  0  0  0  0  0
    8.3569   -0.2070   -1.1861 C   0  0  0  0  0  0  0  0  0  0  0  0
    5.9446    0.3836   -1.5954 C   0  0  0  0  0  0  0  0  0  0  0  0
    4.6293    0.5433   -1.1559 C   0  0  0  0  0  0  0  0  0  0  0  0
   -0.4095   -0.9313    0.8135 C   0  0  0  0  0  0  0  0  0  0  0  0
   -0.3908   -0.6418    2.0005 O   0  0  0  0  0  0  0  0  0  0  0  0
   -2.6040   -1.9229    2.6541 H   0  0  0  0  0  0  0  0  0  0  0  0
   -2.4231   -0.2207    3.1831 H   0  0  0  0  0  0  0  0  0  0  0  0
   -3.9185   -1.1018    3.4693 H   0  0  0  0  0  0  0  0  0  0  0  0
   -5.3588    0.3330    2.3360 H   0  0  0  0  0  0  0  0  0  0  0  0
   -4.0874    2.2612   -0.1601 H   0  0  0  0  0  0  0  0  0  0  0  0
   -5.2833    3.1256   -2.1448 H   0  0  0  0  0  0  0  0  0  0  0  0
   -7.3984    2.0603   -2.8884 H   0  0  0  0  0  0  0  0  0  0  0  0
   -8.3194    0.1252   -1.6379 H   0  0  0  0  0  0  0  0  0  0  0  0
   -7.1313   -0.7524    0.3453 H   0  0  0  0  0  0  0  0  0  0  0  0
   -3.5818   -0.8793   -0.6704 H   0  0  0  0  0  0  0  0  0  0  0  0
    2.0102   -1.3702    1.7557 H   0  0  0  0  0  0  0  0  0  0  0  0
    5.0736   -0.2720    2.1329 H   0  0  0  0  0  0  0  0  0  0  0  0
    7.3914   -0.5619    1.3436 H   0  0  0  0  0  0  0  0  0  0  0  0
    8.5936    0.4892   -1.9972 H   0  0  0  0  0  0  0  0  0  0  0  0
    8.4810   -1.2313   -1.5504 H   0  0  0  0  0  0  0  0  0  0  0  0
    9.0787   -0.0267   -0.3825 H   0  0  0  0  0  0  0  0  0  0  0  0
    6.1808    0.5667   -2.6417 H   0  0  0  0  0  0  0  0  0  0  0  0
    3.8635    0.8576   -1.8613 H   0  0  0  0  0  0  0  0  0  0  0  0
  1  2  1  0
  2  3  2  3
  3  4  1  0
  4  5  2  0
  5  6  1  0
  6  7  2  0
  7  8  1  0
  8  9  2  0
  2 10  1  0
 10 11  2  3
 11 12  1  0
 12 13  1  0
 13 14  2  0
 13 15  1  0
 15 16  1  0
 16 17  1  0
 17 18  2  0
 17 19  2  0
 17 20  1  0
 20 21  2  0
 21 22  1  0
 22 23  2  0
 23 24  1  0
 23 25  1  0
 25 26  2  0
 15 27  1  0
 27 28  2  0
  9  4  1  0
 27 11  1  0
 26 20  1  0
  1 29  1  0
  1 30  1  0
  1 31  1  0
  3 32  1  0
  5 33  1  0
  6 34  1  0
  7 35  1  0
  8 36  1  0
  9 37  1  0
 10 38  1  0
 16 39  1  0
 21 40  1  0
 22 41  1  0
 24 42  1  0
 24 43  1  0
 24 44  1  0
 25 45  1  0
 26 46  1  0
M  END
$$$$
