
     RDKit          3D

 56 59  0  0  0  0  0  0  0  0999 V2000
   -2.5236   -4.8716    2.4315 C   0  0  0  0  0  0  0  0  0  0  0  0
   -1.5504   -4.5450    1.3155 C   0  0  0  0  0  0  0  0  0  0  0  0
   -1.3345   -3.1303    1.2518 O   0  0  0  0  0  0  0  0  0  0  0  0
   -2.1773   -2.4440    0.4219 C   0  0  0  0  0  0  0  0  0  0  0  0
   -3.1563   -2.9359   -0.1300 O   0  0  0  0  0  0  0  0  0  0  0  0
   -1.8717   -1.0157    0.3816 C   0  0  0  0  0  0  0  0  0  0  0  0
   -0.6083   -0.4549    0.3236 C   0  0  0  0  0  0  0  0  0  0  0  0
    0.6694   -0.9198    0.1218 N   0  0  0  0  0  0  0  0  0  0  0  0
    0.9988   -2.0780   -0.5560 C   0  0  0  0  0  0  0  0  0  0  0  0
    0.2068   -2.9040   -1.0015 O   0  0  0  0  0  0  0  0  0  0  0  0
    2.5084   -2.3241   -0.6019 C   0  0  0  0  0  0  0  0  0  0  0  0
    3.2658   -1.0795   -0.7755 N   0  0  0  0  0  0  0  0  0  0  0  0
    3.4754   -0.3190    0.3542 N   0  0  0  0  0  0  0  0  0  0  0  0
    4.1518    0.7878    0.2457 C   0  0  0  0  0  0  0  0  0  0  0  0
    4.3449    1.5933    1.5182 C   0  0  0  0  0  0  0  0  0  0  0  0
    5.4105    1.7549    2.0738 O   0  0  0  0  0  0  0  0  0  0  0  0
    3.1921    2.1231    1.9381 O   0  0  0  0  0  0  0  0  0  0  0  0
    4.7067    1.2926   -1.0156 C   0  0  0  0  0  0  0  0  0  0  0  0
    5.4530    2.4739   -1.1057 C   0  0  0  0  0  0  0  0  0  0  0  0
    5.9311    2.9004   -2.3478 C   0  0  0  0  0  0  0  0  0  0  0  0
    5.6667    2.1544   -3.4956 C   0  0  0  0  0  0  0  0  0  0  0  0
    4.9259    0.9762   -3.4044 C   0  0  0  0  0  0  0  0  0  0  0  0
    4.4475    0.5458   -2.1600 C   0  0  0  0  0  0  0  0  0  0  0  0
    3.6724   -0.7052   -2.0548 C   0  0  0  0  0  0  0  0  0  0  0  0
    3.4286   -1.3518   -3.0690 O   0  0  0  0  0  0  0  0  0  0  0  0
   -0.6155    1.2347    0.5621 S   0  0  0  0  0  0  0  0  0  0  0  0
   -2.3099    1.2845    0.5608 C   0  0  0  0  0  0  0  0  0  0  0  0
   -2.8763    0.0300    0.4412 C   0  0  0  0  0  0  0  0  0  0  0  0
   -4.3678   -0.1642    0.4701 C   0  0  0  0  0  0  0  0  0  0  0  0
   -5.1302    1.1538    0.2559 C   0  0  0  0  0  0  0  0  0  0  0  0
   -4.5295    2.3074    1.0848 C   0  0  0  0  0  0  0  0  0  0  0  0
   -5.3655    3.5770    0.9354 C   0  0  0  0  0  0  0  0  0  0  0  0
   -3.0656    2.5728    0.6722 C   0  0  0  0  0  0  0  0  0  0  0  0
   -3.4976   -4.4049    2.2562 H   0  0  0  0  0  0  0  0  0  0  0  0
   -2.1548   -4.4840    3.3874 H   0  0  0  0  0  0  0  0  0  0  0  0
   -2.6638   -5.9525    2.5200 H   0  0  0  0  0  0  0  0  0  0  0  0
   -1.8930   -4.9464    0.3547 H   0  0  0  0  0  0  0  0  0  0  0  0
   -0.5811   -5.0071    1.5251 H   0  0  0  0  0  0  0  0  0  0  0  0
    1.4299   -0.2592    0.2693 H   0  0  0  0  0  0  0  0  0  0  0  0
    2.7245   -3.0096   -1.4275 H   0  0  0  0  0  0  0  0  0  0  0  0
    2.8173   -2.7976    0.3363 H   0  0  0  0  0  0  0  0  0  0  0  0
    3.4086    2.5736    2.7806 H   0  0  0  0  0  0  0  0  0  0  0  0
    5.6835    3.0766   -0.2304 H   0  0  0  0  0  0  0  0  0  0  0  0
    6.5146    3.8163   -2.4209 H   0  0  0  0  0  0  0  0  0  0  0  0
    6.0415    2.4866   -4.4617 H   0  0  0  0  0  0  0  0  0  0  0  0
    4.7256    0.3939   -4.3026 H   0  0  0  0  0  0  0  0  0  0  0  0
   -4.6781   -0.8770   -0.3019 H   0  0  0  0  0  0  0  0  0  0  0  0
   -4.6441   -0.5886    1.4437 H   0  0  0  0  0  0  0  0  0  0  0  0
   -5.1019    1.4192   -0.8095 H   0  0  0  0  0  0  0  0  0  0  0  0
   -6.1847    1.0028    0.5163 H   0  0  0  0  0  0  0  0  0  0  0  0
   -4.5474    2.0122    2.1434 H   0  0  0  0  0  0  0  0  0  0  0  0
   -6.3922    3.4072    1.2764 H   0  0  0  0  0  0  0  0  0  0  0  0
   -5.4064    3.9074   -0.1081 H   0  0  0  0  0  0  0  0  0  0  0  0
   -4.9437    4.3918    1.5332 H   0  0  0  0  0  0  0  0  0  0  0  0
   -3.0350    3.0816   -0.3000 H   0  0  0  0  0  0  0  0  0  0  0  0
   -2.5954    3.2382    1.4062 H   0  0  0  0  0  0  0  0  0  0  0  0
  1  2  1  0
  2  3  1  0
  3  4  1  0
  4  5  2  0
  4  6  1  0
  6  7  2  0
  7  8  1  0
  8  9  1  0
  9 10  2  0
  9 11  1  0
 11 12  1  0
 12 13  1  0
 13 14  2  0
 14 15  1  0
 15 16  2  0
 15 17  1  0
 14 18  1  0
 18 19  2  0
 19 20  1  0
 20 21  2  0
 21 22  1  0
 22 23  2  0
 23 24  1  0
 24 25  2  0
  7 26  1  0
 26 27  1  0
 27 28  2  0
 28 29  1  0
 29 30  1  0
 30 31  1  0
 31 32  1  0
 31 33  1  0
 28  6  1  0
 24 12  1  0
 33 27  1  0
 23 18  1  0
  1 34  1  0
  1 35  1  0
  1 36  1  0
  2 37  1  0
  2 38  1  0
  8 39  1  0
 11 40  1  0
 11 41  1  0
 17 42  1  0
 19 43  1  0
 20 44  1  0
 21 45  1  0
 22 46  1  0
 29 47  1  0
 29 48  1  0
 30 49  1  0
 30 50  1  0
 31 51  1  0
 32 52  1  0
 32 53  1  0
 32 54  1  0
 33 55  1  0
 33 56  1  0
M  END
$$$$
