
     RDKit          3D

 61 63  0  0  0  0  0  0  0  0999 V2000
   -4.4845    1.8274   -2.6004 C   0  0  0  0  0  0  0  0  0  0  0  0
   -4.8678    0.7011   -1.6510 C   0  0  0  0  0  0  0  0  0  0  0  0
   -3.8786    0.5947   -0.4845 C   0  0  0  0  0  0  0  0  0  0  0  0
   -4.2705   -0.4098    0.5158 N   0  0  0  0  0  0  0  0  0  0  0  0
   -4.2232   -1.7927    0.0168 C   0  0  0  0  0  0  0  0  0  0  0  0
   -5.6289   -2.3544   -0.2315 C   0  0  0  0  0  0  0  0  0  0  0  0
   -6.4621   -2.4631    1.0403 C   0  0  0  0  0  0  0  0  0  0  0  0
   -3.5286   -0.2509    1.7811 C   0  0  0  0  0  0  0  0  0  0  0  0
   -1.9934   -0.3842    1.7158 C   0  0  0  0  0  0  0  0  0  0  0  0
   -1.4340   -0.2447    3.0623 N   0  0  0  0  0  0  0  0  0  0  0  0
   -0.1022   -1.1433    3.5223 S   0  0  0  0  0  6  0  0  0  0  0  0
    0.2991   -0.6554    4.8218 O   0  0  0  0  0  0  0  0  0  0  0  0
   -0.4092   -2.5363    3.2860 O   0  0  0  0  0  0  0  0  0  0  0  0
    1.1345   -0.6374    2.3517 C   0  0  0  0  0  0  0  0  0  0  0  0
    1.6048    0.6858    2.3895 C   0  0  0  0  0  0  0  0  0  0  0  0
    2.5731    1.1141    1.4749 C   0  0  0  0  0  0  0  0  0  0  0  0
    3.0650    0.2043    0.5526 C   0  0  0  0  0  0  0  0  0  0  0  0
    2.6024   -1.1146    0.5339 C   0  0  0  0  0  0  0  0  0  0  0  0
    1.6320   -1.5552    1.4226 C   0  0  0  0  0  0  0  0  0  0  0  0
    3.2553   -1.9036   -0.5544 C   0  0  0  0  0  0  0  0  0  0  0  0
    4.3082   -0.9170   -1.0733 C   0  0  0  0  0  0  0  0  0  0  0  0
    4.0439    0.3864   -0.4427 N   0  0  0  0  0  0  0  0  0  0  0  0
    4.6929    1.5787   -0.7463 C   0  0  0  0  0  0  0  0  0  0  0  0
    4.4137    2.6524   -0.2013 O   0  0  0  0  0  0  0  0  0  0  0  0
    5.8014    1.4831   -1.8359 C   0  0  0  0  0  0  0  0  0  0  0  0
    6.6942    2.7368   -2.0712 C   0  0  0  0  0  0  0  0  0  0  0  0
    6.6860    2.3842   -3.5698 C   0  0  0  0  0  0  0  0  0  0  0  0
    5.3575    1.6500   -3.3172 C   0  0  0  0  0  0  0  0  0  0  0  0
   -4.4841    2.7937   -2.0860 H   0  0  0  0  0  0  0  0  0  0  0  0
   -3.4873    1.6617   -3.0221 H   0  0  0  0  0  0  0  0  0  0  0  0
   -5.1998    1.8836   -3.4274 H   0  0  0  0  0  0  0  0  0  0  0  0
   -5.8794    0.8857   -1.2689 H   0  0  0  0  0  0  0  0  0  0  0  0
   -4.8949   -0.2340   -2.2217 H   0  0  0  0  0  0  0  0  0  0  0  0
   -2.8731    0.3891   -0.8734 H   0  0  0  0  0  0  0  0  0  0  0  0
   -3.8355    1.5796    0.0008 H   0  0  0  0  0  0  0  0  0  0  0  0
   -3.7265   -2.4603    0.7328 H   0  0  0  0  0  0  0  0  0  0  0  0
   -3.6305   -1.8648   -0.9033 H   0  0  0  0  0  0  0  0  0  0  0  0
   -6.1714   -1.7435   -0.9622 H   0  0  0  0  0  0  0  0  0  0  0  0
   -5.5281   -3.3543   -0.6708 H   0  0  0  0  0  0  0  0  0  0  0  0
   -5.9529   -3.0806    1.7897 H   0  0  0  0  0  0  0  0  0  0  0  0
   -7.4278   -2.9277    0.8178 H   0  0  0  0  0  0  0  0  0  0  0  0
   -6.6596   -1.4787    1.4779 H   0  0  0  0  0  0  0  0  0  0  0  0
   -3.7767    0.7319    2.2049 H   0  0  0  0  0  0  0  0  0  0  0  0
   -3.9227   -0.9688    2.5133 H   0  0  0  0  0  0  0  0  0  0  0  0
   -1.7202   -1.3499    1.2816 H   0  0  0  0  0  0  0  0  0  0  0  0
   -1.5690    0.4055    1.0880 H   0  0  0  0  0  0  0  0  0  0  0  0
   -1.5737    0.6204    3.5809 H   0  0  0  0  0  0  0  0  0  0  0  0
    1.2272    1.3834    3.1328 H   0  0  0  0  0  0  0  0  0  0  0  0
    2.9300    2.1382    1.5157 H   0  0  0  0  0  0  0  0  0  0  0  0
    1.2758   -2.5804    1.3956 H   0  0  0  0  0  0  0  0  0  0  0  0
    2.5300   -2.1467   -1.3375 H   0  0  0  0  0  0  0  0  0  0  0  0
    3.7177   -2.8216   -0.1814 H   0  0  0  0  0  0  0  0  0  0  0  0
    5.3169   -1.2346   -0.7861 H   0  0  0  0  0  0  0  0  0  0  0  0
    4.2736   -0.8256   -2.1626 H   0  0  0  0  0  0  0  0  0  0  0  0
    6.4382    0.5975   -1.6944 H   0  0  0  0  0  0  0  0  0  0  0  0
    7.6761    2.7145   -1.5909 H   0  0  0  0  0  0  0  0  0  0  0  0
    6.2111    3.6952   -1.8455 H   0  0  0  0  0  0  0  0  0  0  0  0
    6.6382    3.2301   -4.2591 H   0  0  0  0  0  0  0  0  0  0  0  0
    7.5048    1.7213   -3.8719 H   0  0  0  0  0  0  0  0  0  0  0  0
    4.4701    2.2802   -3.4518 H   0  0  0  0  0  0  0  0  0  0  0  0
    5.2230    0.7232   -3.8828 H   0  0  0  0  0  0  0  0  0  0  0  0
  1  2  1  0
  2  3  1  0
  3  4  1  0
  4  5  1  0
  5  6  1  0
  6  7  1  0
  4  8  1  0
  8  9  1  0
  9 10  1  0
 10 11  1  0
 11 12  2  0
 11 13  2  0
 11 14  1  0
 14 15  2  0
 15 16  1  0
 16 17  2  0
 17 18  1  0
 18 19  2  0
 18 20  1  0
 20 21  1  0
 21 22  1  0
 22 23  1  0
 23 24  2  0
 23 25  1  0
 25 26  1  0
 26 27  1  0
 27 28  1  0
 19 14  1  0
 28 25  1  0
 22 17  1  0
  1 29  1  0
  1 30  1  0
  1 31  1  0
  2 32  1  0
  2 33  1  0
  3 34  1  0
  3 35  1  0
  5 36  1  0
  5 37  1  0
  6 38  1  0
  6 39  1  0
  7 40  1  0
  7 41  1  0
  7 42  1  0
  8 43  1  0
  8 44  1  0
  9 45  1  0
  9 46  1  0
 10 47  1  0
 15 48  1  0
 16 49  1  0
 19 50  1  0
 20 51  1  0
 20 52  1  0
 21 53  1  0
 21 54  1  0
 25 55  1  0
 26 56  1  0
 26 57  1  0
 27 58  1  0
 27 59  1  0
 28 60  1  0
 28 61  1  0
M  END
$$$$
