
     RDKit          3D

 43 45  0  0  0  0  0  0  0  0999 V2000
   -3.7542   -3.6951    1.0406 C   0  0  0  0  0  0  0  0  0  0  0  0
   -3.7302   -2.5280    0.1500 N   0  0  0  0  0  0  0  0  0  0  0  0
   -3.3860   -2.9677   -1.2117 C   0  0  0  0  0  0  0  0  0  0  0  0
   -2.7371   -1.5448    0.6455 C   0  0  0  0  0  0  0  0  0  0  0  0
   -2.8952   -0.1727    0.0355 C   0  0  0  0  0  0  0  0  0  0  0  0
   -4.1432    0.4047   -0.2640 C   0  0  0  0  0  0  0  0  0  0  0  0
   -5.3089   -0.2937   -0.0938 O   0  0  0  0  0  0  0  0  0  0  0  0
   -4.2706    1.7148   -0.7618 C   0  0  0  0  0  0  0  0  0  0  0  0
   -3.1403    2.5019   -0.9783 C   0  0  0  0  0  0  0  0  0  0  0  0
   -1.9188    1.9352   -0.6762 C   0  0  0  0  0  0  0  0  0  0  0  0
   -1.7913    0.6393   -0.1776 C   0  0  0  0  0  0  0  0  0  0  0  0
   -0.4809    0.2928    0.0694 O   0  0  0  0  0  0  0  0  0  0  0  0
    0.2959    1.4007   -0.2868 C   0  0  0  0  0  0  0  0  0  0  0  0
    1.6304    1.3887   -0.1694 C   0  0  0  0  0  0  0  0  0  0  0  0
    2.5385    2.4658   -0.5047 C   0  0  0  0  0  0  0  0  0  0  0  0
    3.8751    2.4400   -0.3733 C   0  0  0  0  0  0  0  0  0  0  0  0
    4.6622    1.3184    0.1422 C   0  0  0  0  0  0  0  0  0  0  0  0
    5.2383    0.4018   -0.7431 C   0  0  0  0  0  0  0  0  0  0  0  0
    5.9827   -0.6731   -0.2535 C   0  0  0  0  0  0  0  0  0  0  0  0
    6.1531   -0.8358    1.1211 C   0  0  0  0  0  0  0  0  0  0  0  0
    5.5797    0.0750    2.0079 C   0  0  0  0  0  0  0  0  0  0  0  0
    4.8350    1.1504    1.5202 C   0  0  0  0  0  0  0  0  0  0  0  0
   -0.5807    2.5029   -0.7800 C   0  0  0  0  0  0  0  0  0  0  0  0
   -0.2958    3.6114   -1.1773 O   0  0  0  0  0  0  0  0  0  0  0  0
   -2.7787   -4.1914    1.1009 H   0  0  0  0  0  0  0  0  0  0  0  0
   -4.0560   -3.3994    2.0515 H   0  0  0  0  0  0  0  0  0  0  0  0
   -4.4944   -4.4258    0.6955 H   0  0  0  0  0  0  0  0  0  0  0  0
   -4.1313   -3.6826   -1.5784 H   0  0  0  0  0  0  0  0  0  0  0  0
   -3.3940   -2.1268   -1.9132 H   0  0  0  0  0  0  0  0  0  0  0  0
   -2.4003   -3.4451   -1.2565 H   0  0  0  0  0  0  0  0  0  0  0  0
   -2.8680   -1.4068    1.7273 H   0  0  0  0  0  0  0  0  0  0  0  0
   -1.7202   -1.9290    0.4938 H   0  0  0  0  0  0  0  0  0  0  0  0
   -5.0558   -1.2325    0.0570 H   0  0  0  0  0  0  0  0  0  0  0  0
   -5.2604    2.1099   -0.9789 H   0  0  0  0  0  0  0  0  0  0  0  0
   -3.2145    3.5138   -1.3611 H   0  0  0  0  0  0  0  0  0  0  0  0
    2.0821    0.4759    0.2150 H   0  0  0  0  0  0  0  0  0  0  0  0
    2.1004    3.3797   -0.9043 H   0  0  0  0  0  0  0  0  0  0  0  0
    4.4573    3.3106   -0.6676 H   0  0  0  0  0  0  0  0  0  0  0  0
    5.1086    0.5189   -1.8164 H   0  0  0  0  0  0  0  0  0  0  0  0
    6.4297   -1.3827   -0.9448 H   0  0  0  0  0  0  0  0  0  0  0  0
    6.7340   -1.6722    1.5013 H   0  0  0  0  0  0  0  0  0  0  0  0
    5.7130   -0.0510    3.0792 H   0  0  0  0  0  0  0  0  0  0  0  0
    4.3907    1.8554    2.2189 H   0  0  0  0  0  0  0  0  0  0  0  0
  1  2  1  0
  2  3  1  0
  2  4  1  0
  4  5  1  0
  5  6  2  0
  6  7  1  0
  6  8  1  0
  8  9  2  0
  9 10  1  0
 10 11  2  0
 11 12  1  0
 12 13  1  0
 13 14  2  3
 14 15  1  0
 15 16  2  3
 16 17  1  0
 17 18  2  0
 18 19  1  0
 19 20  2  0
 20 21  1  0
 21 22  2  0
 13 23  1  0
 23 24  2  0
 11  5  1  0
 22 17  1  0
 23 10  1  0
  1 25  1  0
  1 26  1  0
  1 27  1  0
  3 28  1  0
  3 29  1  0
  3 30  1  0
  4 31  1  0
  4 32  1  0
  7 33  1  0
  8 34  1  0
  9 35  1  0
 14 36  1  0
 15 37  1  0
 16 38  1  0
 18 39  1  0
 19 40  1  0
 20 41  1  0
 21 42  1  0
 22 43  1  0
M  END
$$$$
