
     RDKit          3D

 59 63  0  0  0  0  0  0  0  0999 V2000
   -3.4604    2.1215   -1.8221 C   0  0  0  0  0  0  0  0  0  0  0  0
   -2.5492    1.4300   -0.8168 C   0  0  0  0  0  0  0  0  0  0  0  0
   -1.5830    0.4583   -1.5216 C   0  0  0  0  0  0  0  0  0  0  0  0
   -0.6970   -0.2512   -0.5582 N   0  0  0  0  0  0  0  0  0  0  0  0
   -1.1798   -1.5633   -0.3258 C   0  0  0  0  0  0  0  0  0  0  0  0
   -2.4332   -1.7244    0.1560 N   0  0  0  0  0  0  0  0  0  0  0  0
   -2.8740   -2.9810    0.3554 C   0  0  0  0  0  0  0  0  0  0  0  0
   -4.1488   -3.1880    0.8692 C   0  0  0  0  0  0  0  0  0  0  0  0
   -4.6451   -4.4744    1.0866 C   0  0  0  0  0  0  0  0  0  0  0  0
   -3.8524   -5.5739    0.7843 C   0  0  0  0  0  0  0  0  0  0  0  0
   -2.5713   -5.3767    0.2677 C   0  0  0  0  0  0  0  0  0  0  0  0
   -2.0696   -4.0996    0.0487 C   0  0  0  0  0  0  0  0  0  0  0  0
   -0.8342   -3.9473   -0.4575 N   0  0  0  0  0  0  0  0  0  0  0  0
   -0.3836   -2.6745   -0.6419 C   0  0  0  0  0  0  0  0  0  0  0  0
    0.9843   -2.4689   -1.2546 C   0  0  0  0  0  0  0  0  0  0  0  0
    1.5689   -3.6919   -1.8301 C   0  0  0  0  0  0  0  0  0  0  0  0
    2.0712   -4.6047   -2.3461 N   0  0  0  0  0  0  0  0  0  0  0  0
    1.9904   -1.8876   -0.2668 C   0  0  0  0  0  0  0  0  0  0  0  0
    1.9590   -2.0934    0.9449 O   0  0  0  0  0  0  0  0  0  0  0  0
    2.9854   -1.1204   -0.8551 N   0  0  0  0  0  0  0  0  0  0  0  0
    4.0403   -0.5070   -0.0798 C   0  0  0  0  0  0  0  0  0  0  0  0
    3.6998    0.9129    0.2937 C   0  0  0  0  0  0  0  0  0  0  0  0
    3.5252    1.2650    1.6517 C   0  0  0  0  0  0  0  0  0  0  0  0
    3.2284    2.5798    2.0230 C   0  0  0  0  0  0  0  0  0  0  0  0
    3.0939    3.5145    1.0209 C   0  0  0  0  0  0  0  0  0  0  0  0
    3.2535    3.1826   -0.3026 C   0  0  0  0  0  0  0  0  0  0  0  0
    3.5612    1.8984   -0.6991 C   0  0  0  0  0  0  0  0  0  0  0  0
    3.0684    4.2451   -1.1305 O   0  0  0  0  0  0  0  0  0  0  0  0
    2.7617    5.2826   -0.1748 C   0  0  0  0  0  0  0  0  0  0  0  0
    2.7857    4.8270    1.1936 O   0  0  0  0  0  0  0  0  0  0  0  0
   -0.6013    0.4633    0.7504 C   0  0  0  0  0  0  0  0  0  0  0  0
   -0.6368    1.9929    0.5379 C   0  0  0  0  0  0  0  0  0  0  0  0
   -0.5304    2.7321    1.8648 C   0  0  0  0  0  0  0  0  0  0  0  0
   -1.8422    2.4584   -0.1018 O   0  0  0  0  0  0  0  0  0  0  0  0
   -4.0603    1.3963   -2.3801 H   0  0  0  0  0  0  0  0  0  0  0  0
   -4.1369    2.8151   -1.3110 H   0  0  0  0  0  0  0  0  0  0  0  0
   -2.8774    2.7175   -2.5330 H   0  0  0  0  0  0  0  0  0  0  0  0
   -3.1776    0.8965   -0.0939 H   0  0  0  0  0  0  0  0  0  0  0  0
   -0.9205    1.0334   -2.1813 H   0  0  0  0  0  0  0  0  0  0  0  0
   -2.1290   -0.2426   -2.1670 H   0  0  0  0  0  0  0  0  0  0  0  0
   -4.7678   -2.3263    1.1070 H   0  0  0  0  0  0  0  0  0  0  0  0
   -5.6448   -4.6124    1.4907 H   0  0  0  0  0  0  0  0  0  0  0  0
   -4.2240   -6.5823    0.9485 H   0  0  0  0  0  0  0  0  0  0  0  0
   -1.9475   -6.2355    0.0298 H   0  0  0  0  0  0  0  0  0  0  0  0
    0.8644   -1.7572   -2.0834 H   0  0  0  0  0  0  0  0  0  0  0  0
    2.9135   -0.8575   -1.8284 H   0  0  0  0  0  0  0  0  0  0  0  0
    4.2459   -1.1117    0.8103 H   0  0  0  0  0  0  0  0  0  0  0  0
    4.9476   -0.5132   -0.6940 H   0  0  0  0  0  0  0  0  0  0  0  0
    3.6197    0.5050    2.4270 H   0  0  0  0  0  0  0  0  0  0  0  0
    3.0963    2.8532    3.0639 H   0  0  0  0  0  0  0  0  0  0  0  0
    3.6904    1.6701   -1.7514 H   0  0  0  0  0  0  0  0  0  0  0  0
    3.4928    6.0908   -0.2885 H   0  0  0  0  0  0  0  0  0  0  0  0
    1.7633    5.6777   -0.3953 H   0  0  0  0  0  0  0  0  0  0  0  0
   -1.4236    0.1885    1.4251 H   0  0  0  0  0  0  0  0  0  0  0  0
    0.3372    0.1795    1.2399 H   0  0  0  0  0  0  0  0  0  0  0  0
    0.1984    2.2887   -0.1071 H   0  0  0  0  0  0  0  0  0  0  0  0
   -1.4228    2.5615    2.4773 H   0  0  0  0  0  0  0  0  0  0  0  0
   -0.4682    3.8125    1.6958 H   0  0  0  0  0  0  0  0  0  0  0  0
    0.3458    2.4157    2.4353 H   0  0  0  0  0  0  0  0  0  0  0  0
  1  2  1  0
  2  3  1  0
  3  4  1  0
  4  5  1  0
  5  6  2  0
  6  7  1  0
  7  8  2  0
  8  9  1  0
  9 10  2  0
 10 11  1  0
 11 12  2  0
 12 13  1  0
 13 14  2  0
 14 15  1  0
 15 16  1  0
 16 17  3  0
 15 18  1  0
 18 19  2  0
 18 20  1  0
 20 21  1  0
 21 22  1  0
 22 23  2  0
 23 24  1  0
 24 25  2  0
 25 26  1  0
 26 27  2  0
 26 28  1  0
 28 29  1  0
 29 30  1  0
  4 31  1  0
 31 32  1  0
 32 33  1  0
 32 34  1  0
 34  2  1  0
 14  5  1  0
 27 22  1  0
 12  7  1  0
 30 25  1  0
  1 35  1  0
  1 36  1  0
  1 37  1  0
  2 38  1  0
  3 39  1  0
  3 40  1  0
  8 41  1  0
  9 42  1  0
 10 43  1  0
 11 44  1  0
 15 45  1  0
 20 46  1  0
 21 47  1  0
 21 48  1  0
 23 49  1  0
 24 50  1  0
 27 51  1  0
 29 52  1  0
 29 53  1  0
 31 54  1  0
 31 55  1  0
 32 56  1  0
 33 57  1  0
 33 58  1  0
 33 59  1  0
M  END
$$$$
