
     RDKit          3D

 55 56  0  0  0  0  0  0  0  0999 V2000
   -4.9899    1.8958    3.3220 C   0  0  0  0  0  0  0  0  0  0  0  0
   -4.6627    1.8998    1.8277 C   0  0  0  0  0  0  0  0  0  0  0  0
   -3.2194    1.9296    1.6411 N   0  0  0  0  0  0  0  0  0  0  0  0
   -2.6174    2.7936    0.7519 C   0  0  0  0  0  0  0  0  0  0  0  0
   -3.2153    3.6763    0.1479 O   0  0  0  0  0  0  0  0  0  0  0  0
   -1.1376    2.5210    0.5790 C   0  0  0  0  0  0  0  0  0  0  0  0
   -0.4659    3.6406   -0.2028 C   0  0  0  0  0  0  0  0  0  0  0  0
    1.3296    3.3573   -0.3909 S   0  0  0  0  0  0  0  0  0  0  0  0
    1.3243    2.0677   -1.6911 C   0  0  0  0  0  0  0  0  0  0  0  0
    1.6636    0.6934   -1.1268 C   0  0  0  0  0  0  0  0  0  0  0  0
    3.1514    0.4853   -0.9161 C   0  0  0  0  0  0  0  0  0  0  0  0
    4.0154    1.1305   -1.4986 O   0  0  0  0  0  0  0  0  0  0  0  0
    3.4282   -0.5468   -0.0425 N   0  0  0  0  0  0  0  0  0  0  0  0
    4.7852   -1.0319    0.1598 C   0  0  0  0  0  0  0  0  0  0  0  0
    5.0360   -1.2615    1.6514 C   0  0  0  0  0  0  0  0  0  0  0  0
    5.0111   -2.2588   -0.7094 C   0  0  0  0  0  0  0  0  0  0  0  0
    4.7135   -3.5613   -0.2801 C   0  0  0  0  0  0  0  0  0  0  0  0
    4.9144   -4.6551   -1.1268 C   0  0  0  0  0  0  0  0  0  0  0  0
    5.4033   -4.4624   -2.4168 C   0  0  0  0  0  0  0  0  0  0  0  0
    5.6876   -3.1756   -2.8650 C   0  0  0  0  0  0  0  0  0  0  0  0
    5.4888   -2.0828   -2.0198 C   0  0  0  0  0  0  0  0  0  0  0  0
   -5.2376    0.7270    1.0497 C   0  0  0  0  0  0  0  0  0  0  0  0
   -5.4136   -0.5476    1.6098 C   0  0  0  0  0  0  0  0  0  0  0  0
   -5.9228   -1.5997    0.8434 C   0  0  0  0  0  0  0  0  0  0  0  0
   -6.2513   -1.3972   -0.4950 C   0  0  0  0  0  0  0  0  0  0  0  0
   -6.0668   -0.1440   -1.0718 C   0  0  0  0  0  0  0  0  0  0  0  0
   -5.5606    0.9082   -0.3069 C   0  0  0  0  0  0  0  0  0  0  0  0
   -6.0692    1.8191    3.4909 H   0  0  0  0  0  0  0  0  0  0  0  0
   -4.6394    2.8232    3.7891 H   0  0  0  0  0  0  0  0  0  0  0  0
   -4.4991    1.0711    3.8504 H   0  0  0  0  0  0  0  0  0  0  0  0
   -5.0979    2.8209    1.4189 H   0  0  0  0  0  0  0  0  0  0  0  0
   -2.7057    1.1105    1.9363 H   0  0  0  0  0  0  0  0  0  0  0  0
   -0.6832    2.4221    1.5720 H   0  0  0  0  0  0  0  0  0  0  0  0
   -1.0436    1.5644    0.0535 H   0  0  0  0  0  0  0  0  0  0  0  0
   -0.9181    3.7753   -1.1913 H   0  0  0  0  0  0  0  0  0  0  0  0
   -0.5895    4.5893    0.3317 H   0  0  0  0  0  0  0  0  0  0  0  0
    0.3377    2.0380   -2.1645 H   0  0  0  0  0  0  0  0  0  0  0  0
    2.0382    2.3697   -2.4640 H   0  0  0  0  0  0  0  0  0  0  0  0
    1.3526   -0.0684   -1.8528 H   0  0  0  0  0  0  0  0  0  0  0  0
    1.1192    0.4951   -0.1968 H   0  0  0  0  0  0  0  0  0  0  0  0
    2.6797   -1.1823    0.1946 H   0  0  0  0  0  0  0  0  0  0  0  0
    5.4941   -0.2555   -0.1563 H   0  0  0  0  0  0  0  0  0  0  0  0
    4.2990   -1.9395    2.0957 H   0  0  0  0  0  0  0  0  0  0  0  0
    6.0345   -1.6766    1.8257 H   0  0  0  0  0  0  0  0  0  0  0  0
    4.9632   -0.3142    2.1978 H   0  0  0  0  0  0  0  0  0  0  0  0
    4.3226   -3.7472    0.7162 H   0  0  0  0  0  0  0  0  0  0  0  0
    4.6872   -5.6595   -0.7791 H   0  0  0  0  0  0  0  0  0  0  0  0
    5.5587   -5.3137   -3.0740 H   0  0  0  0  0  0  0  0  0  0  0  0
    6.0626   -3.0190   -3.8734 H   0  0  0  0  0  0  0  0  0  0  0  0
    5.7034   -1.0807   -2.3909 H   0  0  0  0  0  0  0  0  0  0  0  0
   -5.1593   -0.7447    2.6478 H   0  0  0  0  0  0  0  0  0  0  0  0
   -6.0631   -2.5796    1.2925 H   0  0  0  0  0  0  0  0  0  0  0  0
   -6.6485   -2.2163   -1.0890 H   0  0  0  0  0  0  0  0  0  0  0  0
   -6.3145    0.0171   -2.1177 H   0  0  0  0  0  0  0  0  0  0  0  0
   -5.4132    1.8802   -0.7764 H   0  0  0  0  0  0  0  0  0  0  0  0
  1  2  1  0
  2  3  1  0
  3  4  1  0
  4  5  2  0
  4  6  1  0
  6  7  1  0
  7  8  1  0
  8  9  1  0
  9 10  1  0
 10 11  1  0
 11 12  2  0
 11 13  1  0
 13 14  1  0
 14 15  1  0
 14 16  1  0
 16 17  2  0
 17 18  1  0
 18 19  2  0
 19 20  1  0
 20 21  2  0
  2 22  1  0
 22 23  2  0
 23 24  1  0
 24 25  2  0
 25 26  1  0
 26 27  2  0
 21 16  1  0
 27 22  1  0
  1 28  1  0
  1 29  1  0
  1 30  1  0
  2 31  1  0
  3 32  1  0
  6 33  1  0
  6 34  1  0
  7 35  1  0
  7 36  1  0
  9 37  1  0
  9 38  1  0
 10 39  1  0
 10 40  1  0
 13 41  1  0
 14 42  1  0
 15 43  1  0
 15 44  1  0
 15 45  1  0
 17 46  1  0
 18 47  1  0
 19 48  1  0
 20 49  1  0
 21 50  1  0
 23 51  1  0
 24 52  1  0
 25 53  1  0
 26 54  1  0
 27 55  1  0
M  END
$$$$
