
     RDKit          3D

 37 39  0  0  0  0  0  0  0  0999 V2000
   -0.3567   -3.1593   -1.7998 C   0  0  0  0  0  0  0  0  0  0  0  0
   -1.5793   -2.6277   -2.3035 O   0  0  0  0  0  0  0  0  0  0  0  0
   -1.7837   -1.2685   -2.0837 C   0  0  0  0  0  0  0  0  0  0  0  0
   -2.8378   -0.7346   -2.8345 C   0  0  0  0  0  0  0  0  0  0  0  0
   -3.1785    0.6109   -2.7433 C   0  0  0  0  0  0  0  0  0  0  0  0
   -2.4835    1.4756   -1.8891 C   0  0  0  0  0  0  0  0  0  0  0  0
   -2.7484    2.8113   -1.7386 O   0  0  0  0  0  0  0  0  0  0  0  0
   -3.7338    3.3880   -2.5906 C   0  0  0  0  0  0  0  0  0  0  0  0
   -1.4436    0.9186   -1.1084 C   0  0  0  0  0  0  0  0  0  0  0  0
   -0.4417    1.7021    0.0570 S   0  0  0  0  0  0  0  0  0  0  0  0
    0.3789    0.2237    0.3964 C   0  0  0  0  0  0  0  0  0  0  0  0
    1.3805    0.1068    1.3200 N   0  0  0  0  0  0  0  0  0  0  0  0
    1.6526    1.1407    2.3177 C   0  0  0  0  0  0  0  0  0  0  0  0
    2.1892    0.5275    3.6118 C   0  0  0  0  0  0  0  0  0  0  0  0
    3.4484   -0.3060    3.3833 C   0  0  0  0  0  0  0  0  0  0  0  0
    3.4808   -0.9654    2.0058 C   0  0  0  0  0  0  0  0  0  0  0  0
    2.0837   -1.1698    1.4220 C   0  0  0  0  0  0  0  0  0  0  0  0
   -0.0342   -0.7857   -0.3388 N   0  0  0  0  0  0  0  0  0  0  0  0
   -1.0749   -0.4264   -1.1860 C   0  0  0  0  0  0  0  0  0  0  0  0
    0.5049   -2.5765   -2.1388 H   0  0  0  0  0  0  0  0  0  0  0  0
   -0.3905   -3.2565   -0.7099 H   0  0  0  0  0  0  0  0  0  0  0  0
   -0.2450   -4.1619   -2.2185 H   0  0  0  0  0  0  0  0  0  0  0  0
   -3.3936   -1.3856   -3.5070 H   0  0  0  0  0  0  0  0  0  0  0  0
   -4.0100    0.9594   -3.3471 H   0  0  0  0  0  0  0  0  0  0  0  0
   -4.7320    3.0306   -2.3189 H   0  0  0  0  0  0  0  0  0  0  0  0
   -3.7142    4.4702   -2.4356 H   0  0  0  0  0  0  0  0  0  0  0  0
   -3.5138    3.2071   -3.6498 H   0  0  0  0  0  0  0  0  0  0  0  0
    0.7448    1.6958    2.5820 H   0  0  0  0  0  0  0  0  0  0  0  0
    2.3791    1.8554    1.9107 H   0  0  0  0  0  0  0  0  0  0  0  0
    2.3987    1.3131    4.3494 H   0  0  0  0  0  0  0  0  0  0  0  0
    1.4111   -0.1142    4.0518 H   0  0  0  0  0  0  0  0  0  0  0  0
    3.5133   -1.0693    4.1716 H   0  0  0  0  0  0  0  0  0  0  0  0
    4.3416    0.3242    3.4945 H   0  0  0  0  0  0  0  0  0  0  0  0
    4.0674   -0.3346    1.3196 H   0  0  0  0  0  0  0  0  0  0  0  0
    4.0105   -1.9235    2.0685 H   0  0  0  0  0  0  0  0  0  0  0  0
    1.5063   -1.8630    2.0470 H   0  0  0  0  0  0  0  0  0  0  0  0
    2.2037   -1.6324    0.4327 H   0  0  0  0  0  0  0  0  0  0  0  0
  1  2  1  0
  2  3  1  0
  3  4  2  0
  4  5  1  0
  5  6  2  0
  6  7  1  0
  7  8  1  0
  6  9  1  0
  9 10  1  0
 10 11  1  0
 11 12  1  0
 12 13  1  0
 13 14  1  0
 14 15  1  0
 15 16  1  0
 16 17  1  0
 11 18  2  0
 18 19  1  0
 19  3  1  0
 19  9  2  0
 17 12  1  0
  1 20  1  0
  1 21  1  0
  1 22  1  0
  4 23  1  0
  5 24  1  0
  8 25  1  0
  8 26  1  0
  8 27  1  0
 13 28  1  0
 13 29  1  0
 14 30  1  0
 14 31  1  0
 15 32  1  0
 15 33  1  0
 16 34  1  0
 16 35  1  0
 17 36  1  0
 17 37  1  0
M  END
$$$$
