
     RDKit          3D

 39 41  0  0  0  0  0  0  0  0999 V2000
   -1.4485   -1.7856    2.6386 O   0  0  0  0  0  0  0  0  0  0  0  0
   -0.3825   -1.3228    2.2739 C   0  0  0  0  0  0  0  0  0  0  0  0
    0.7404   -1.1026    3.0527 N   0  0  0  0  0  0  0  0  0  0  0  0
    1.8193   -0.8557    2.2009 N   0  0  0  0  0  0  0  0  0  0  0  0
    1.2771   -0.6841    0.9331 C   0  0  0  0  0  0  0  0  0  0  0  0
    2.1240   -0.1740   -0.1516 C   0  0  0  0  0  0  0  0  0  0  0  0
    2.2883   -0.9229   -1.3257 C   0  0  0  0  0  0  0  0  0  0  0  0
    3.0781   -0.4421   -2.3729 C   0  0  0  0  0  0  0  0  0  0  0  0
    3.7224    0.7879   -2.2546 C   0  0  0  0  0  0  0  0  0  0  0  0
    3.5878    1.5373   -1.0863 C   0  0  0  0  0  0  0  0  0  0  0  0
    2.7976    1.0532   -0.0421 C   0  0  0  0  0  0  0  0  0  0  0  0
    2.6817    1.7829    1.1132 O   0  0  0  0  0  0  0  0  0  0  0  0
   -0.0461   -0.9255    0.8835 C   0  0  0  0  0  0  0  0  0  0  0  0
   -1.0520   -0.8149   -0.2211 C   0  0  0  0  0  0  0  0  0  0  0  0
   -1.8851   -2.0840   -0.4515 C   0  0  0  0  0  0  0  0  0  0  0  0
   -0.9932   -3.1322   -1.0401 N   0  0  0  0  0  4  0  0  0  0  0  0
   -0.7576   -3.0529   -2.2532 O   0  0  0  0  0  0  0  0  0  0  0  0
   -0.5419   -3.9937   -0.2770 O   0  0  0  0  0  1  0  0  0  0  0  0
   -1.9365    0.4189   -0.0349 C   0  0  0  0  0  0  0  0  0  0  0  0
   -3.0616    0.4152    0.8046 C   0  0  0  0  0  0  0  0  0  0  0  0
   -3.8399    1.5648    0.9572 C   0  0  0  0  0  0  0  0  0  0  0  0
   -3.5027    2.7342    0.2802 C   0  0  0  0  0  0  0  0  0  0  0  0
   -2.3817    2.7591   -0.5450 C   0  0  0  0  0  0  0  0  0  0  0  0
   -1.6009    1.6122   -0.6984 C   0  0  0  0  0  0  0  0  0  0  0  0
    0.8751   -1.6660    3.8847 H   0  0  0  0  0  0  0  0  0  0  0  0
    2.3720   -0.0261    2.4508 H   0  0  0  0  0  0  0  0  0  0  0  0
    1.8150   -1.8969   -1.4325 H   0  0  0  0  0  0  0  0  0  0  0  0
    3.1947   -1.0347   -3.2775 H   0  0  0  0  0  0  0  0  0  0  0  0
    4.3397    1.1561   -3.0705 H   0  0  0  0  0  0  0  0  0  0  0  0
    4.1098    2.4858   -1.0058 H   0  0  0  0  0  0  0  0  0  0  0  0
    3.1242    2.6391    0.9857 H   0  0  0  0  0  0  0  0  0  0  0  0
   -0.5052   -0.6373   -1.1574 H   0  0  0  0  0  0  0  0  0  0  0  0
   -2.3392   -2.5061    0.4490 H   0  0  0  0  0  0  0  0  0  0  0  0
   -2.6820   -1.9213   -1.1873 H   0  0  0  0  0  0  0  0  0  0  0  0
   -3.3413   -0.4740    1.3665 H   0  0  0  0  0  0  0  0  0  0  0  0
   -4.7063    1.5479    1.6138 H   0  0  0  0  0  0  0  0  0  0  0  0
   -4.1087    3.6278    0.4034 H   0  0  0  0  0  0  0  0  0  0  0  0
   -2.1115    3.6736   -1.0665 H   0  0  0  0  0  0  0  0  0  0  0  0
   -0.7227    1.6595   -1.3401 H   0  0  0  0  0  0  0  0  0  0  0  0
  1  2  2  0
  2  3  1  0
  3  4  1  0
  4  5  1  0
  5  6  1  0
  6  7  2  0
  7  8  1  0
  8  9  2  0
  9 10  1  0
 10 11  2  0
 11 12  1  0
  5 13  2  0
 13 14  1  0
 14 15  1  0
 15 16  1  0
 16 17  2  0
 16 18  1  0
 14 19  1  0
 19 20  2  0
 20 21  1  0
 21 22  2  0
 22 23  1  0
 23 24  2  0
 13  2  1  0
 24 19  1  0
 11  6  1  0
  3 25  1  0
  4 26  1  0
  7 27  1  0
  8 28  1  0
  9 29  1  0
 10 30  1  0
 12 31  1  0
 14 32  1  0
 15 33  1  0
 15 34  1  0
 20 35  1  0
 21 36  1  0
 22 37  1  0
 23 38  1  0
 24 39  1  0
M  CHG  2  16   1  18  -1
M  END
$$$$
