
     RDKit          3D

 65 69  0  0  0  0  0  0  0  0999 V2000
    5.5132    2.1348    2.8364 C   0  0  0  0  0  0  0  0  0  0  0  0
    4.7889    0.9516    2.5235 O   0  0  0  0  0  0  0  0  0  0  0  0
    3.5051    1.0972    2.0676 C   0  0  0  0  0  0  0  0  0  0  0  0
    2.8997    2.3251    1.7858 C   0  0  0  0  0  0  0  0  0  0  0  0
    1.5819    2.3844    1.3173 C   0  0  0  0  0  0  0  0  0  0  0  0
    0.8354    1.2178    1.1176 C   0  0  0  0  0  0  0  0  0  0  0  0
   -0.5950    1.3196    0.5948 C   0  0  0  0  0  0  0  0  0  0  0  0
   -1.6224    1.2516    1.7339 C   0  0  0  0  0  0  0  0  0  0  0  0
   -1.6719   -0.0503    2.4190 C   0  0  0  0  0  0  0  0  0  0  0  0
   -1.6762   -1.0949    2.9265 N   0  0  0  0  0  0  0  0  0  0  0  0
   -2.9989    1.5482    1.1428 C   0  0  0  0  0  0  0  0  0  0  0  0
   -3.7497    2.3330    1.8563 N   0  0  0  0  0  0  0  0  0  0  0  0
   -3.3386    0.9650   -0.0957 N   0  0  0  0  0  0  0  0  0  0  0  0
   -4.6623    1.2105   -0.5945 C   0  0  0  0  0  0  0  0  0  0  0  0
   -4.8895    2.3426   -1.4016 C   0  0  0  0  0  0  0  0  0  0  0  0
   -6.1693    2.6321   -1.8745 C   0  0  0  0  0  0  0  0  0  0  0  0
   -7.2375    1.7968   -1.5518 C   0  0  0  0  0  0  0  0  0  0  0  0
   -7.0290    0.6661   -0.7585 C   0  0  0  0  0  0  0  0  0  0  0  0
   -5.7462    0.3665   -0.2764 C   0  0  0  0  0  0  0  0  0  0  0  0
   -5.5631   -0.8136    0.5198 C   0  0  0  0  0  0  0  0  0  0  0  0
   -5.4345   -1.7818    1.1489 N   0  0  0  0  0  0  0  0  0  0  0  0
   -2.4067    0.3086   -0.9363 C   0  0  0  0  0  0  0  0  0  0  0  0
   -2.7046   -0.3182   -2.1008 C   0  0  0  0  0  0  0  0  0  0  0  0
   -1.7015   -0.9453   -3.0398 C   0  0  0  0  0  0  0  0  0  0  0  0
   -0.2324   -0.6242   -2.7605 C   0  0  0  0  0  0  0  0  0  0  0  0
   -0.1490    0.5174   -1.7811 C   0  0  0  0  0  0  0  0  0  0  0  0
    0.4622    1.5514   -2.0400 O   0  0  0  0  0  0  0  0  0  0  0  0
   -0.9420    0.2911   -0.4979 C   0  0  0  0  0  0  0  0  0  0  0  0
    1.4447   -0.0086    1.4129 C   0  0  0  0  0  0  0  0  0  0  0  0
    2.7756   -0.0857    1.8705 C   0  0  0  0  0  0  0  0  0  0  0  0
    3.3695   -1.4583    2.1299 C   0  0  0  0  0  0  0  0  0  0  0  0
    3.3635   -2.3041    0.9236 N   0  0  0  0  0  0  0  0  0  0  0  0
    3.7681   -3.6770    1.2276 C   0  0  0  0  0  0  0  0  0  0  0  0
    4.1089   -4.2505   -0.1402 C   0  0  0  0  0  0  0  0  0  0  0  0
    4.4860   -3.0467   -0.9953 C   0  0  0  0  0  0  0  0  0  0  0  0
    4.3295   -1.8410   -0.0790 C   0  0  0  0  0  0  0  0  0  0  0  0
    5.7037    2.7276    1.9355 H   0  0  0  0  0  0  0  0  0  0  0  0
    6.4814    1.8316    3.2480 H   0  0  0  0  0  0  0  0  0  0  0  0
    4.9979    2.7266    3.5998 H   0  0  0  0  0  0  0  0  0  0  0  0
    3.4310    3.2628    1.9069 H   0  0  0  0  0  0  0  0  0  0  0  0
    1.1519    3.3590    1.0940 H   0  0  0  0  0  0  0  0  0  0  0  0
   -0.6922    2.3173    0.1370 H   0  0  0  0  0  0  0  0  0  0  0  0
   -1.3895    2.0264    2.4772 H   0  0  0  0  0  0  0  0  0  0  0  0
   -4.6567    2.4973    1.4115 H   0  0  0  0  0  0  0  0  0  0  0  0
   -4.0643    3.0053   -1.6561 H   0  0  0  0  0  0  0  0  0  0  0  0
   -6.3331    3.5132   -2.4931 H   0  0  0  0  0  0  0  0  0  0  0  0
   -8.2349    2.0253   -1.9222 H   0  0  0  0  0  0  0  0  0  0  0  0
   -7.8748    0.0204   -0.5200 H   0  0  0  0  0  0  0  0  0  0  0  0
   -3.7321   -0.3793   -2.4539 H   0  0  0  0  0  0  0  0  0  0  0  0
   -1.9477   -0.6145   -4.0606 H   0  0  0  0  0  0  0  0  0  0  0  0
   -1.8386   -2.0372   -3.0287 H   0  0  0  0  0  0  0  0  0  0  0  0
    0.2816   -1.4916   -2.3244 H   0  0  0  0  0  0  0  0  0  0  0  0
    0.2931   -0.3602   -3.6863 H   0  0  0  0  0  0  0  0  0  0  0  0
   -0.7139   -0.7234   -0.1466 H   0  0  0  0  0  0  0  0  0  0  0  0
    0.9085   -0.9490    1.2915 H   0  0  0  0  0  0  0  0  0  0  0  0
    4.3813   -1.3915    2.5431 H   0  0  0  0  0  0  0  0  0  0  0  0
    2.7554   -1.9259    2.9104 H   0  0  0  0  0  0  0  0  0  0  0  0
    2.9637   -4.2450    1.7085 H   0  0  0  0  0  0  0  0  0  0  0  0
    4.6566   -3.7077    1.8732 H   0  0  0  0  0  0  0  0  0  0  0  0
    3.2407   -4.7593   -0.5769 H   0  0  0  0  0  0  0  0  0  0  0  0
    4.9251   -4.9763   -0.0771 H   0  0  0  0  0  0  0  0  0  0  0  0
    5.5088   -3.1245   -1.3789 H   0  0  0  0  0  0  0  0  0  0  0  0
    3.8104   -2.9732   -1.8583 H   0  0  0  0  0  0  0  0  0  0  0  0
    3.9719   -0.9682   -0.6326 H   0  0  0  0  0  0  0  0  0  0  0  0
    5.3021   -1.5969    0.3687 H   0  0  0  0  0  0  0  0  0  0  0  0
  1  2  1  0
  2  3  1  0
  3  4  2  0
  4  5  1  0
  5  6  2  0
  6  7  1  0
  7  8  1  0
  8  9  1  0
  9 10  3  0
  8 11  1  0
 11 12  2  3
 11 13  1  0
 13 14  1  0
 14 15  2  0
 15 16  1  0
 16 17  2  0
 17 18  1  0
 18 19  2  0
 19 20  1  0
 20 21  3  0
 13 22  1  0
 22 23  2  0
 23 24  1  0
 24 25  1  0
 25 26  1  0
 26 27  2  0
 26 28  1  0
  6 29  1  0
 29 30  2  0
 30 31  1  0
 31 32  1  0
 32 33  1  0
 33 34  1  0
 34 35  1  0
 35 36  1  0
 30  3  1  0
 36 32  1  0
 28  7  1  0
 19 14  1  0
 28 22  1  0
  1 37  1  0
  1 38  1  0
  1 39  1  0
  4 40  1  0
  5 41  1  0
  7 42  1  0
  8 43  1  0
 12 44  1  0
 15 45  1  0
 16 46  1  0
 17 47  1  0
 18 48  1  0
 23 49  1  0
 24 50  1  0
 24 51  1  0
 25 52  1  0
 25 53  1  0
 28 54  1  0
 29 55  1  0
 31 56  1  0
 31 57  1  0
 33 58  1  0
 33 59  1  0
 34 60  1  0
 34 61  1  0
 35 62  1  0
 35 63  1  0
 36 64  1  0
 36 65  1  0
M  END
$$$$
