
     RDKit          3D

 23 25  0  0  0  0  0  0  0  0999 V2000
    2.8573   -1.0039    0.7411 O   0  0  0  0  0  0  0  0  0  0  0  0
    2.2201    0.0343    0.7517 C   0  0  0  0  0  0  0  0  0  0  0  0
    2.8431    1.2235    0.8224 O   0  0  0  0  0  0  0  0  0  0  0  0
    0.7181    0.1702    0.7460 C   0  0  0  0  0  0  0  0  0  0  0  0
   -0.0082   -1.1644    0.4269 C   0  0  0  0  0  0  0  0  0  0  0  0
    0.0765   -1.2156   -1.1039 C   0  0  0  0  0  0  0  0  0  0  0  0
   -0.5836    0.1368   -1.2846 C   0  0  0  0  0  0  0  0  0  0  0  0
   -1.8748    0.0578   -0.4731 C   0  0  0  0  0  0  0  0  0  0  0  0
   -2.0598    1.3841    0.0328 O   0  0  0  0  0  0  0  0  0  0  0  0
   -0.8430    2.0054    0.1191 C   0  0  0  0  0  0  0  0  0  0  0  0
   -0.6647    3.1092    0.6015 O   0  0  0  0  0  0  0  0  0  0  0  0
    0.2224    1.0822   -0.3940 C   0  0  0  0  0  0  0  0  0  0  0  0
   -1.5216   -0.9337    0.6652 C   0  0  0  0  0  0  0  0  0  0  0  0
   -2.4367   -2.4552    0.5049 Cl  0  0  0  0  0  0  0  0  0  0  0  0
    3.7986    1.0058    0.8673 H   0  0  0  0  0  0  0  0  0  0  0  0
    0.4345    0.5311    1.7429 H   0  0  0  0  0  0  0  0  0  0  0  0
    0.4054   -2.0374    0.9377 H   0  0  0  0  0  0  0  0  0  0  0  0
   -0.4927   -2.0345   -1.5530 H   0  0  0  0  0  0  0  0  0  0  0  0
    1.1030   -1.2421   -1.4824 H   0  0  0  0  0  0  0  0  0  0  0  0
   -0.7150    0.4928   -2.3088 H   0  0  0  0  0  0  0  0  0  0  0  0
   -2.7438   -0.2352   -1.0698 H   0  0  0  0  0  0  0  0  0  0  0  0
    0.9944    1.6183   -0.9510 H   0  0  0  0  0  0  0  0  0  0  0  0
   -1.7296   -0.5295    1.6609 H   0  0  0  0  0  0  0  0  0  0  0  0
  1  2  2  0
  2  3  1  0
  2  4  1  0
  4  5  1  0
  5  6  1  0
  6  7  1  0
  7  8  1  0
  8  9  1  0
  9 10  1  0
 10 11  2  0
 10 12  1  0
  8 13  1  0
 13 14  1  0
 12  4  1  0
 13  5  1  0
 12  7  1  0
  3 15  1  0
  4 16  1  0
  5 17  1  0
  6 18  1  0
  6 19  1  0
  7 20  1  0
  8 21  1  0
 12 22  1  0
 13 23  1  0
M  END
$$$$
