
     RDKit          3D

 43 45  0  0  0  0  0  0  0  0999 V2000
   -7.3510   -0.7861    1.4444 C   0  0  0  0  0  0  0  0  0  0  0  0
   -6.4622   -1.0123    0.4678 C   0  0  0  0  0  0  0  0  0  0  0  0
   -5.8409    0.0601   -0.3839 C   0  0  0  0  0  0  0  0  0  0  0  0
   -4.4531    0.2325    0.0139 N   0  0  0  0  0  0  0  0  0  0  0  0
   -4.1635    1.2174    0.9473 C   0  0  0  0  0  0  0  0  0  0  0  0
   -4.9967    1.9741    1.4416 O   0  0  0  0  0  0  0  0  0  0  0  0
   -2.8577    1.3394    1.3134 N   0  0  0  0  0  0  0  0  0  0  0  0
   -1.8382    0.5516    0.8132 C   0  0  0  0  0  0  0  0  0  0  0  0
   -0.5917    0.7874    1.2699 N   0  0  0  0  0  0  0  0  0  0  0  0
    0.3904    0.0051    0.7702 C   0  0  0  0  0  0  0  0  0  0  0  0
    1.6967    0.1905    1.1954 C   0  0  0  0  0  0  0  0  0  0  0  0
    2.7517   -0.5762    0.6909 C   0  0  0  0  0  0  0  0  0  0  0  0
    4.0379   -0.3646    1.1891 N   0  0  0  0  0  0  0  0  0  0  0  0
    4.8973    0.3852    0.5844 C   0  0  0  0  0  0  0  0  0  0  0  0
    4.9147    1.1699   -0.5570 N   0  0  0  0  0  0  0  0  0  0  0  0
    3.7035    1.6218   -1.2231 C   0  0  0  0  0  0  0  0  0  0  0  0
    6.1107    1.9525   -0.8549 C   0  0  0  0  0  0  0  0  0  0  0  0
    2.4794   -1.5982   -0.2284 C   0  0  0  0  0  0  0  0  0  0  0  0
    3.5779   -2.4718   -0.7644 C   0  0  0  0  0  0  0  0  0  0  0  0
    1.1600   -1.7835   -0.6676 C   0  0  0  0  0  0  0  0  0  0  0  0
    0.1167   -1.0035   -0.1895 C   0  0  0  0  0  0  0  0  0  0  0  0
   -1.1307   -1.2204   -0.6436 N   0  0  0  0  0  0  0  0  0  0  0  0
   -2.1005   -0.4279   -0.1220 C   0  0  0  0  0  0  0  0  0  0  0  0
   -3.4986   -0.6076   -0.5697 C   0  0  0  0  0  0  0  0  0  0  0  0
   -3.7721   -1.4590   -1.4136 O   0  0  0  0  0  0  0  0  0  0  0  0
   -7.7706   -1.6077    2.0168 H   0  0  0  0  0  0  0  0  0  0  0  0
   -7.6697    0.2203    1.7022 H   0  0  0  0  0  0  0  0  0  0  0  0
   -6.1706   -2.0368    0.2425 H   0  0  0  0  0  0  0  0  0  0  0  0
   -5.9001   -0.2360   -1.4374 H   0  0  0  0  0  0  0  0  0  0  0  0
   -6.3855    1.0061   -0.2860 H   0  0  0  0  0  0  0  0  0  0  0  0
   -2.6196    2.0444    1.9970 H   0  0  0  0  0  0  0  0  0  0  0  0
    1.9102    0.9535    1.9396 H   0  0  0  0  0  0  0  0  0  0  0  0
    5.8818    0.4178    1.0859 H   0  0  0  0  0  0  0  0  0  0  0  0
    3.9267    2.3119   -2.0447 H   0  0  0  0  0  0  0  0  0  0  0  0
    3.1636    0.7820   -1.6671 H   0  0  0  0  0  0  0  0  0  0  0  0
    3.0522    2.1549   -0.5237 H   0  0  0  0  0  0  0  0  0  0  0  0
    6.1695    2.1938   -1.9216 H   0  0  0  0  0  0  0  0  0  0  0  0
    7.0200    1.3955   -0.6039 H   0  0  0  0  0  0  0  0  0  0  0  0
    6.1042    2.8863   -0.2835 H   0  0  0  0  0  0  0  0  0  0  0  0
    3.1737   -3.3233   -1.3222 H   0  0  0  0  0  0  0  0  0  0  0  0
    4.2201   -1.8992   -1.4408 H   0  0  0  0  0  0  0  0  0  0  0  0
    4.1814   -2.8791    0.0533 H   0  0  0  0  0  0  0  0  0  0  0  0
    0.9328   -2.5607   -1.3952 H   0  0  0  0  0  0  0  0  0  0  0  0
  1  2  2  0
  2  3  1  0
  3  4  1  0
  4  5  1  0
  5  6  2  0
  5  7  1  0
  7  8  1  0
  8  9  2  0
  9 10  1  0
 10 11  2  0
 11 12  1  0
 12 13  1  0
 13 14  2  3
 14 15  1  0
 15 16  1  0
 15 17  1  0
 12 18  2  0
 18 19  1  0
 18 20  1  0
 20 21  2  0
 21 22  1  0
 22 23  2  0
 23 24  1  0
 24 25  2  0
 24  4  1  0
 23  8  1  0
 21 10  1  0
  1 26  1  0
  1 27  1  0
  2 28  1  0
  3 29  1  0
  3 30  1  0
  7 31  1  0
 11 32  1  0
 14 33  1  0
 16 34  1  0
 16 35  1  0
 16 36  1  0
 17 37  1  0
 17 38  1  0
 17 39  1  0
 19 40  1  0
 19 41  1  0
 19 42  1  0
 20 43  1  0
M  END
$$$$
