
     RDKit          3D

 62 65  0  0  0  0  0  0  0  0999 V2000
   -7.1703   -1.1388   -2.2325 C   0  0  0  0  0  0  0  0  0  0  0  0
   -6.9037   -1.5939   -0.9100 O   0  0  0  0  0  0  0  0  0  0  0  0
   -5.8751   -2.5800   -0.8661 C   0  0  0  0  0  0  0  0  0  0  0  0
   -4.5153   -1.9788   -0.6556 C   0  0  0  0  0  0  0  0  0  0  0  0
   -4.2493   -0.6875   -0.3961 C   0  0  0  0  0  0  0  0  0  0  0  0
   -2.9106   -0.1630   -0.2024 C   0  0  0  0  0  0  0  0  0  0  0  0
   -2.1025   -0.0719   -1.2857 C   0  0  0  0  0  0  0  0  0  0  0  0
   -0.7393    0.4403   -1.1341 C   0  0  0  0  0  0  0  0  0  0  0  0
    0.0571    0.5478   -2.2067 C   0  0  0  0  0  0  0  0  0  0  0  0
    1.4407    1.0666   -2.1089 C   0  0  0  0  0  0  0  0  0  0  0  0
    2.1323    1.0733   -3.1299 O   0  0  0  0  0  0  0  0  0  0  0  0
    1.9487    1.6313   -0.7797 C   0  0  0  0  0  0  0  0  0  0  0  0
    1.8950    3.1626   -0.9094 C   0  0  0  0  0  0  0  0  0  0  0  0
    3.3369    1.3102   -0.5747 O   0  0  0  0  0  0  0  0  0  0  0  0
    3.6108   -0.0191   -0.4596 C   0  0  0  0  0  0  0  0  0  0  0  0
    2.7686   -0.9026   -0.5140 O   0  0  0  0  0  0  0  0  0  0  0  0
    5.0750   -0.2364   -0.2729 C   0  0  0  0  0  0  0  0  0  0  0  0
    5.9640    0.8169   -0.1391 C   0  0  0  0  0  0  0  0  0  0  0  0
    7.2995    0.6344    0.0272 N   0  0  0  0  0  0  0  0  0  0  0  0
    7.7297   -0.6427    0.0540 C   0  0  0  0  0  0  0  0  0  0  0  0
    9.0841   -0.9137    0.2124 C   0  0  0  0  0  0  0  0  0  0  0  0
    9.5656   -2.2244    0.2399 C   0  0  0  0  0  0  0  0  0  0  0  0
    8.6775   -3.2840    0.1104 C   0  0  0  0  0  0  0  0  0  0  0  0
    7.3150   -3.0247   -0.0488 C   0  0  0  0  0  0  0  0  0  0  0  0
    6.8226   -1.7256   -0.0799 C   0  0  0  0  0  0  0  0  0  0  0  0
    5.4997   -1.5259   -0.2391 N   0  0  0  0  0  0  0  0  0  0  0  0
    1.1093    1.2712    0.4455 C   0  0  0  0  0  0  0  0  0  0  0  0
    1.5407    1.4166    1.5925 O   0  0  0  0  0  0  0  0  0  0  0  0
   -0.2756    0.7946    0.1999 C   0  0  0  0  0  0  0  0  0  0  0  0
   -1.1407    0.6736    1.2222 C   0  0  0  0  0  0  0  0  0  0  0  0
   -2.4690    0.2293    1.0854 N   0  0  0  0  0  0  0  0  0  0  0  0
   -3.2786    0.0323    2.3089 C   0  0  0  0  0  0  0  0  0  0  0  0
   -4.1137    1.2582    2.7500 C   0  0  0  0  0  0  0  0  0  0  0  0
   -3.6671    2.6076    2.1860 C   0  0  0  0  0  0  0  0  0  0  0  0
   -5.6105    1.0523    2.4920 C   0  0  0  0  0  0  0  0  0  0  0  0
   -6.2760   -0.6989   -2.6835 H   0  0  0  0  0  0  0  0  0  0  0  0
   -7.9484   -0.3723   -2.1785 H   0  0  0  0  0  0  0  0  0  0  0  0
   -7.5357   -1.9613   -2.8563 H   0  0  0  0  0  0  0  0  0  0  0  0
   -6.0943   -3.2415   -0.0192 H   0  0  0  0  0  0  0  0  0  0  0  0
   -5.8842   -3.1992   -1.7743 H   0  0  0  0  0  0  0  0  0  0  0  0
   -3.6889   -2.6874   -0.7067 H   0  0  0  0  0  0  0  0  0  0  0  0
   -5.0552    0.0347   -0.3093 H   0  0  0  0  0  0  0  0  0  0  0  0
   -2.4472   -0.3757   -2.2695 H   0  0  0  0  0  0  0  0  0  0  0  0
   -0.2573    0.2576   -3.2035 H   0  0  0  0  0  0  0  0  0  0  0  0
    2.2753    3.6481   -0.0033 H   0  0  0  0  0  0  0  0  0  0  0  0
    0.8747    3.5230   -1.0842 H   0  0  0  0  0  0  0  0  0  0  0  0
    2.5243    3.5095   -1.7369 H   0  0  0  0  0  0  0  0  0  0  0  0
    5.6458    1.8521   -0.1600 H   0  0  0  0  0  0  0  0  0  0  0  0
    9.7802   -0.0849    0.3135 H   0  0  0  0  0  0  0  0  0  0  0  0
   10.6291   -2.4133    0.3630 H   0  0  0  0  0  0  0  0  0  0  0  0
    9.0408   -4.3090    0.1318 H   0  0  0  0  0  0  0  0  0  0  0  0
    6.6166   -3.8527   -0.1523 H   0  0  0  0  0  0  0  0  0  0  0  0
   -0.8517    0.9158    2.2427 H   0  0  0  0  0  0  0  0  0  0  0  0
   -2.5960   -0.2207    3.1347 H   0  0  0  0  0  0  0  0  0  0  0  0
   -3.9126   -0.8585    2.2160 H   0  0  0  0  0  0  0  0  0  0  0  0
   -4.0115    1.3195    3.8431 H   0  0  0  0  0  0  0  0  0  0  0  0
   -4.3031    3.4116    2.5786 H   0  0  0  0  0  0  0  0  0  0  0  0
   -2.6365    2.8397    2.4738 H   0  0  0  0  0  0  0  0  0  0  0  0
   -3.7444    2.6384    1.0940 H   0  0  0  0  0  0  0  0  0  0  0  0
   -5.8535    1.0864    1.4273 H   0  0  0  0  0  0  0  0  0  0  0  0
   -5.9512    0.0915    2.8973 H   0  0  0  0  0  0  0  0  0  0  0  0
   -6.1909    1.8410    2.9835 H   0  0  0  0  0  0  0  0  0  0  0  0
  1  2  1  0
  2  3  1  0
  3  4  1  0
  4  5  2  3
  5  6  1  0
  6  7  2  0
  7  8  1  0
  8  9  2  0
  9 10  1  0
 10 11  2  0
 10 12  1  0
 12 13  1  0
 12 14  1  0
 14 15  1  0
 15 16  2  0
 15 17  1  0
 17 18  2  0
 18 19  1  0
 19 20  2  0
 20 21  1  0
 21 22  2  0
 22 23  1  0
 23 24  2  0
 24 25  1  0
 25 26  2  0
 12 27  1  0
 27 28  2  0
 27 29  1  0
 29 30  2  0
 30 31  1  0
 31 32  1  0
 32 33  1  0
 33 34  1  0
 33 35  1  0
 31  6  1  0
 29  8  1  0
 26 17  1  0
 25 20  1  0
  1 36  1  0
  1 37  1  0
  1 38  1  0
  3 39  1  0
  3 40  1  0
  4 41  1  0
  5 42  1  0
  7 43  1  0
  9 44  1  0
 13 45  1  0
 13 46  1  0
 13 47  1  0
 18 48  1  0
 21 49  1  0
 22 50  1  0
 23 51  1  0
 24 52  1  0
 30 53  1  0
 32 54  1  0
 32 55  1  0
 33 56  1  0
 34 57  1  0
 34 58  1  0
 34 59  1  0
 35 60  1  0
 35 61  1  0
 35 62  1  0
M  END
$$$$
