
     RDKit          3D

 45 47  0  0  0  0  0  0  0  0999 V2000
    0.0933    2.6652   -1.7099 O   0  0  0  0  0  0  0  0  0  0  0  0
    0.6021    1.7096   -1.1163 C   0  0  0  0  0  0  0  0  0  0  0  0
    2.0138    1.8329   -0.5619 C   0  0  0  0  0  0  0  0  0  0  0  0
    3.1887    0.9350   -1.6278 S   0  0  0  0  0  0  0  0  0  0  0  0
    4.6741    1.1133   -0.6597 C   0  0  0  0  0  0  0  0  0  0  0  0
    5.1812    2.3722   -0.3202 C   0  0  0  0  0  0  0  0  0  0  0  0
    6.3525    2.4818    0.4348 C   0  0  0  0  0  0  0  0  0  0  0  0
    7.0224    1.3302    0.8427 C   0  0  0  0  0  0  0  0  0  0  0  0
    8.6060    1.4771    1.8635 Br  0  0  0  0  0  0  0  0  0  0  0  0
    6.5358    0.0713    0.4974 C   0  0  0  0  0  0  0  0  0  0  0  0
    5.3646   -0.0352   -0.2579 C   0  0  0  0  0  0  0  0  0  0  0  0
   -0.0966    0.5249   -0.9242 N   0  0  0  0  0  0  0  0  0  0  0  0
   -1.4227    0.3897   -1.5372 C   0  0  0  0  0  0  0  0  0  0  0  0
   -1.7570   -1.0602   -1.9092 C   0  0  0  0  0  0  0  0  0  0  0  0
   -1.6462   -1.9795   -0.7415 N   0  0  0  0  0  0  0  0  0  0  0  0
   -3.0255   -2.8443   -0.2732 S   0  0  0  0  0  6  0  0  0  0  0  0
   -3.6668   -3.3479   -1.4691 O   0  0  0  0  0  0  0  0  0  0  0  0
   -2.6454   -3.7321    0.8056 O   0  0  0  0  0  0  0  0  0  0  0  0
   -4.0848   -1.5880    0.4153 C   0  0  0  0  0  0  0  0  0  0  0  0
   -4.0400   -1.3196    1.7872 C   0  0  0  0  0  0  0  0  0  0  0  0
   -4.8836   -0.3481    2.3259 C   0  0  0  0  0  0  0  0  0  0  0  0
   -5.7773    0.3364    1.5007 C   0  0  0  0  0  0  0  0  0  0  0  0
   -5.8405    0.0446    0.1373 C   0  0  0  0  0  0  0  0  0  0  0  0
   -5.0006   -0.9258   -0.4087 C   0  0  0  0  0  0  0  0  0  0  0  0
   -0.7284   -1.5308    0.3386 C   0  0  0  0  0  0  0  0  0  0  0  0
    0.4082   -0.6592   -0.2159 C   0  0  0  0  0  0  0  0  0  0  0  0
    2.0556    1.4813    0.4719 H   0  0  0  0  0  0  0  0  0  0  0  0
    2.2741    2.8968   -0.5500 H   0  0  0  0  0  0  0  0  0  0  0  0
    4.6831    3.2804   -0.6511 H   0  0  0  0  0  0  0  0  0  0  0  0
    6.7358    3.4664    0.6900 H   0  0  0  0  0  0  0  0  0  0  0  0
    7.0600   -0.8301    0.8039 H   0  0  0  0  0  0  0  0  0  0  0  0
    4.9993   -1.0230   -0.5304 H   0  0  0  0  0  0  0  0  0  0  0  0
   -1.4932    1.0207   -2.4297 H   0  0  0  0  0  0  0  0  0  0  0  0
   -2.1461    0.7695   -0.8060 H   0  0  0  0  0  0  0  0  0  0  0  0
   -1.0545   -1.4188   -2.6715 H   0  0  0  0  0  0  0  0  0  0  0  0
   -2.7525   -1.0971   -2.3599 H   0  0  0  0  0  0  0  0  0  0  0  0
   -3.3609   -1.8636    2.4397 H   0  0  0  0  0  0  0  0  0  0  0  0
   -4.8538   -0.1307    3.3911 H   0  0  0  0  0  0  0  0  0  0  0  0
   -6.4382    1.0893    1.9245 H   0  0  0  0  0  0  0  0  0  0  0  0
   -6.5538    0.5666   -0.4966 H   0  0  0  0  0  0  0  0  0  0  0  0
   -5.0738   -1.1648   -1.4673 H   0  0  0  0  0  0  0  0  0  0  0  0
   -1.2831   -0.9530    1.0846 H   0  0  0  0  0  0  0  0  0  0  0  0
   -0.2935   -2.4088    0.8276 H   0  0  0  0  0  0  0  0  0  0  0  0
    1.0658   -0.3601    0.6033 H   0  0  0  0  0  0  0  0  0  0  0  0
    1.0021   -1.2344   -0.9355 H   0  0  0  0  0  0  0  0  0  0  0  0
  1  2  2  0
  2  3  1  0
  3  4  1  0
  4  5  1  0
  5  6  2  0
  6  7  1  0
  7  8  2  0
  8  9  1  0
  8 10  1  0
 10 11  2  0
  2 12  1  0
 12 13  1  0
 13 14  1  0
 14 15  1  0
 15 16  1  0
 16 17  2  0
 16 18  2  0
 16 19  1  0
 19 20  2  0
 20 21  1  0
 21 22  2  0
 22 23  1  0
 23 24  2  0
 15 25  1  0
 25 26  1  0
 11  5  1  0
 26 12  1  0
 24 19  1  0
  3 27  1  0
  3 28  1  0
  6 29  1  0
  7 30  1  0
 10 31  1  0
 11 32  1  0
 13 33  1  0
 13 34  1  0
 14 35  1  0
 14 36  1  0
 20 37  1  0
 21 38  1  0
 22 39  1  0
 23 40  1  0
 24 41  1  0
 25 42  1  0
 25 43  1  0
 26 44  1  0
 26 45  1  0
M  END
$$$$
