
     RDKit          3D

 40 43  0  0  0  0  0  0  0  0999 V2000
    7.1913    1.8197    1.3000 C   0  0  0  0  0  0  0  0  0  0  0  0
    6.8865    0.5419    0.7564 O   0  0  0  0  0  0  0  0  0  0  0  0
    5.5661    0.2596    0.5428 C   0  0  0  0  0  0  0  0  0  0  0  0
    4.4905    1.1029    0.8159 C   0  0  0  0  0  0  0  0  0  0  0  0
    3.1780    0.6863    0.5474 C   0  0  0  0  0  0  0  0  0  0  0  0
    2.9183   -0.5793    0.0021 C   0  0  0  0  0  0  0  0  0  0  0  0
    1.5474   -1.0254   -0.2808 C   0  0  0  0  0  0  0  0  0  0  0  0
    0.3231   -0.3604    0.0140 C   0  0  0  0  0  0  0  0  0  0  0  0
   -0.6880   -1.1791   -0.4431 C   0  0  0  0  0  0  0  0  0  0  0  0
   -2.0800   -1.0496   -0.4262 N   0  0  0  0  0  0  0  0  0  0  0  0
   -2.8631   -1.9773   -1.1279 C   0  0  0  0  0  0  0  0  0  0  0  0
   -2.4297   -3.0244   -1.6222 O   0  0  0  0  0  0  0  0  0  0  0  0
   -4.1884   -1.6903   -1.2971 N   0  0  0  0  0  0  0  0  0  0  0  0
   -4.7841   -0.5253   -0.8305 C   0  0  0  0  0  0  0  0  0  0  0  0
   -6.1360   -0.2852   -1.0842 C   0  0  0  0  0  0  0  0  0  0  0  0
   -6.7367    0.8665   -0.5776 C   0  0  0  0  0  0  0  0  0  0  0  0
   -5.9881    1.7646    0.1811 C   0  0  0  0  0  0  0  0  0  0  0  0
   -4.6365    1.5117    0.4300 C   0  0  0  0  0  0  0  0  0  0  0  0
   -4.0140    0.3631   -0.0808 C   0  0  0  0  0  0  0  0  0  0  0  0
   -2.6442    0.1060    0.1779 N   0  0  0  0  0  0  0  0  0  0  0  0
   -2.1670    0.4635    1.4446 O   0  0  0  0  0  0  0  0  0  0  0  0
   -0.0364   -2.2506   -0.9934 N   0  0  0  0  0  0  0  0  0  0  0  0
    1.2999   -2.1968   -0.8905 N   0  0  0  0  0  0  0  0  0  0  0  0
    4.0092   -1.4168   -0.2694 C   0  0  0  0  0  0  0  0  0  0  0  0
    5.3174   -1.0007   -0.0007 C   0  0  0  0  0  0  0  0  0  0  0  0
    6.8706    2.6219    0.6271 H   0  0  0  0  0  0  0  0  0  0  0  0
    6.7530    1.9396    2.2963 H   0  0  0  0  0  0  0  0  0  0  0  0
    8.2784    1.8880    1.4045 H   0  0  0  0  0  0  0  0  0  0  0  0
    4.6331    2.0925    1.2367 H   0  0  0  0  0  0  0  0  0  0  0  0
    2.3685    1.3757    0.7704 H   0  0  0  0  0  0  0  0  0  0  0  0
    0.1962    0.5989    0.4933 H   0  0  0  0  0  0  0  0  0  0  0  0
   -4.7193   -2.3621   -1.8332 H   0  0  0  0  0  0  0  0  0  0  0  0
   -6.7290   -0.9841   -1.6669 H   0  0  0  0  0  0  0  0  0  0  0  0
   -7.7884    1.0632   -0.7710 H   0  0  0  0  0  0  0  0  0  0  0  0
   -6.4533    2.6633    0.5787 H   0  0  0  0  0  0  0  0  0  0  0  0
   -4.0598    2.2225    1.0179 H   0  0  0  0  0  0  0  0  0  0  0  0
   -2.2128   -0.3851    1.9197 H   0  0  0  0  0  0  0  0  0  0  0  0
   -0.4683   -3.0528   -1.4469 H   0  0  0  0  0  0  0  0  0  0  0  0
    3.8490   -2.4059   -0.6945 H   0  0  0  0  0  0  0  0  0  0  0  0
    6.1469   -1.6685   -0.2199 H   0  0  0  0  0  0  0  0  0  0  0  0
  1  2  1  0
  2  3  1  0
  3  4  2  0
  4  5  1  0
  5  6  2  0
  6  7  1  0
  7  8  1  0
  8  9  2  0
  9 10  1  0
 10 11  1  0
 11 12  2  0
 11 13  1  0
 13 14  1  0
 14 15  2  0
 15 16  1  0
 16 17  2  0
 17 18  1  0
 18 19  2  0
 19 20  1  0
 20 21  1  0
  9 22  1  0
 22 23  1  0
  6 24  1  0
 24 25  2  0
 25  3  1  0
 23  7  2  0
 20 10  1  0
 19 14  1  0
  1 26  1  0
  1 27  1  0
  1 28  1  0
  4 29  1  0
  5 30  1  0
  8 31  1  0
 13 32  1  0
 15 33  1  0
 16 34  1  0
 17 35  1  0
 18 36  1  0
 21 37  1  0
 22 38  1  0
 24 39  1  0
 25 40  1  0
M  END
$$$$
