
     RDKit          3D

 48 50  0  0  0  0  0  0  0  0999 V2000
   -2.7659    1.8926    3.3964 C   0  0  0  0  0  0  0  0  0  0  0  0
   -1.6097    0.9729    3.7362 C   0  0  0  0  0  0  0  0  0  0  0  0
   -1.2988    0.1391    2.6089 O   0  0  0  0  0  0  0  0  0  0  0  0
   -0.4115    0.6277    1.7137 C   0  0  0  0  0  0  0  0  0  0  0  0
    0.1328    1.7246    1.8004 O   0  0  0  0  0  0  0  0  0  0  0  0
   -0.1494   -0.2975    0.5434 C   0  0  0  0  0  0  0  0  0  0  0  0
    1.3475   -0.5129    0.4120 C   0  0  0  0  0  0  0  0  0  0  0  0
    2.1589    0.4592   -0.4045 C   0  0  0  0  0  0  0  0  0  0  0  0
    1.9697    0.0855   -2.1297 S   0  0  0  0  0  6  0  0  0  0  0  0
    2.5145   -1.2279   -2.4019 O   0  0  0  0  0  0  0  0  0  0  0  0
    0.6026    0.4046   -2.4998 O   0  0  0  0  0  0  0  0  0  0  0  0
    3.0331    1.2656   -2.9246 C   0  0  0  0  0  0  0  0  0  0  0  0
    4.4195    1.1025   -2.8284 C   0  0  0  0  0  0  0  0  0  0  0  0
    5.2608    2.0287   -3.4439 C   0  0  0  0  0  0  0  0  0  0  0  0
    4.7183    3.0994   -4.1593 C   0  0  0  0  0  0  0  0  0  0  0  0
    3.3346    3.2471   -4.2636 C   0  0  0  0  0  0  0  0  0  0  0  0
    2.4851    2.3271   -3.6488 C   0  0  0  0  0  0  0  0  0  0  0  0
    1.9734   -1.4825    1.0101 N   0  0  0  0  0  0  0  0  0  0  0  0
    1.2913   -2.3775    1.7917 C   0  0  0  0  0  0  0  0  0  0  0  0
    1.8405   -3.1225    2.5931 O   0  0  0  0  0  0  0  0  0  0  0  0
   -0.0666   -2.4188    1.6598 N   0  0  0  0  0  0  0  0  0  0  0  0
   -0.7311   -1.7102    0.5927 C   0  0  0  0  0  0  0  0  0  0  0  0
   -2.2437   -1.8931    0.5992 C   0  0  0  0  0  0  0  0  0  0  0  0
   -2.7870   -3.1818    0.7711 C   0  0  0  0  0  0  0  0  0  0  0  0
   -4.1678   -3.3962    0.7570 C   0  0  0  0  0  0  0  0  0  0  0  0
   -5.0363   -2.3296    0.5500 C   0  0  0  0  0  0  0  0  0  0  0  0
   -4.5223   -1.0533    0.3426 C   0  0  0  0  0  0  0  0  0  0  0  0
   -3.1404   -0.8393    0.3550 C   0  0  0  0  0  0  0  0  0  0  0  0
   -3.0448    2.4970    4.2613 H   0  0  0  0  0  0  0  0  0  0  0  0
   -2.5046    2.5623    2.5709 H   0  0  0  0  0  0  0  0  0  0  0  0
   -3.6354    1.3113    3.0757 H   0  0  0  0  0  0  0  0  0  0  0  0
   -0.7320    1.5391    4.0691 H   0  0  0  0  0  0  0  0  0  0  0  0
   -1.8945    0.3073    4.5579 H   0  0  0  0  0  0  0  0  0  0  0  0
   -0.5325    0.2177   -0.3403 H   0  0  0  0  0  0  0  0  0  0  0  0
    3.2178    0.3707   -0.1476 H   0  0  0  0  0  0  0  0  0  0  0  0
    1.8174    1.4826   -0.2357 H   0  0  0  0  0  0  0  0  0  0  0  0
    4.8505    0.2609   -2.2901 H   0  0  0  0  0  0  0  0  0  0  0  0
    6.3410    1.9131   -3.3752 H   0  0  0  0  0  0  0  0  0  0  0  0
    5.3775    3.8162   -4.6440 H   0  0  0  0  0  0  0  0  0  0  0  0
    2.9198    4.0760   -4.8345 H   0  0  0  0  0  0  0  0  0  0  0  0
    1.4075    2.4432   -3.7501 H   0  0  0  0  0  0  0  0  0  0  0  0
   -0.5277   -3.1310    2.2089 H   0  0  0  0  0  0  0  0  0  0  0  0
   -0.4080   -2.2161   -0.3307 H   0  0  0  0  0  0  0  0  0  0  0  0
   -2.1381   -4.0425    0.9057 H   0  0  0  0  0  0  0  0  0  0  0  0
   -4.5642   -4.3986    0.8983 H   0  0  0  0  0  0  0  0  0  0  0  0
   -6.1108   -2.4959    0.5379 H   0  0  0  0  0  0  0  0  0  0  0  0
   -5.1977   -0.2202    0.1636 H   0  0  0  0  0  0  0  0  0  0  0  0
   -2.7933    0.1732    0.1700 H   0  0  0  0  0  0  0  0  0  0  0  0
  1  2  1  0
  2  3  1  0
  3  4  1  0
  4  5  2  0
  4  6  1  0
  6  7  1  0
  7  8  1  0
  8  9  1  0
  9 10  2  0
  9 11  2  0
  9 12  1  0
 12 13  2  0
 13 14  1  0
 14 15  2  0
 15 16  1  0
 16 17  2  0
  7 18  2  0
 18 19  1  0
 19 20  2  0
 19 21  1  0
 21 22  1  0
 22 23  1  0
 23 24  2  0
 24 25  1  0
 25 26  2  0
 26 27  1  0
 27 28  2  0
 22  6  1  0
 28 23  1  0
 17 12  1  0
  1 29  1  0
  1 30  1  0
  1 31  1  0
  2 32  1  0
  2 33  1  0
  6 34  1  0
  8 35  1  0
  8 36  1  0
 13 37  1  0
 14 38  1  0
 15 39  1  0
 16 40  1  0
 17 41  1  0
 21 42  1  0
 22 43  1  0
 24 44  1  0
 25 45  1  0
 26 46  1  0
 27 47  1  0
 28 48  1  0
M  END
$$$$
