
     RDKit          3D

 40 42  0  0  0  0  0  0  0  0999 V2000
    5.4106   -3.8496    0.7245 C   0  0  0  0  0  0  0  0  0  0  0  0
    4.5243   -2.6513    0.9039 C   0  0  0  0  0  0  0  0  0  0  0  0
    3.1306   -2.7968    0.9231 C   0  0  0  0  0  0  0  0  0  0  0  0
    2.3058   -1.6796    1.0611 C   0  0  0  0  0  0  0  0  0  0  0  0
    2.8790   -0.4092    1.1641 C   0  0  0  0  0  0  0  0  0  0  0  0
    1.8174    0.9972    1.3468 S   0  0  0  0  0  6  0  0  0  0  0  0
    0.7780    0.6524    2.2906 O   0  0  0  0  0  0  0  0  0  0  0  0
    2.6351    2.1804    1.5216 O   0  0  0  0  0  0  0  0  0  0  0  0
    1.1770    1.1276   -0.2315 N   0  0  0  0  0  0  0  0  0  0  0  0
   -0.2722    1.3825   -0.2733 C   0  0  0  0  0  0  0  0  0  0  0  0
   -1.1785    0.5472   -0.8741 C   0  0  0  0  0  0  0  0  0  0  0  0
   -2.4457    1.1768   -0.7153 C   0  0  0  0  0  0  0  0  0  0  0  0
   -3.7584    0.7040   -1.1755 C   0  0  0  0  0  0  0  0  0  0  0  0
   -3.8766   -0.4068   -2.0253 C   0  0  0  0  0  0  0  0  0  0  0  0
   -5.1322   -0.8481   -2.4554 C   0  0  0  0  0  0  0  0  0  0  0  0
   -6.2859   -0.1857   -2.0420 C   0  0  0  0  0  0  0  0  0  0  0  0
   -6.1868    0.9190   -1.1999 C   0  0  0  0  0  0  0  0  0  0  0  0
   -4.9321    1.3604   -0.7710 C   0  0  0  0  0  0  0  0  0  0  0  0
   -2.3082    2.3427   -0.0570 N   0  0  0  0  0  0  0  0  0  0  0  0
   -0.9929    2.4376    0.2112 N   0  0  0  0  0  0  0  0  0  0  0  0
   -0.5035    3.5907    0.9269 C   0  0  0  0  0  0  0  0  0  0  0  0
    4.2653   -0.2467    1.1424 C   0  0  0  0  0  0  0  0  0  0  0  0
    5.0840   -1.3691    1.0042 C   0  0  0  0  0  0  0  0  0  0  0  0
    6.3395   -3.7331    1.2921 H   0  0  0  0  0  0  0  0  0  0  0  0
    5.6546   -3.9787   -0.3345 H   0  0  0  0  0  0  0  0  0  0  0  0
    4.9204   -4.7600    1.0860 H   0  0  0  0  0  0  0  0  0  0  0  0
    2.6795   -3.7836    0.8361 H   0  0  0  0  0  0  0  0  0  0  0  0
    1.2252   -1.8032    1.0875 H   0  0  0  0  0  0  0  0  0  0  0  0
    1.7060    1.8680   -0.7002 H   0  0  0  0  0  0  0  0  0  0  0  0
   -0.9566   -0.3914   -1.3588 H   0  0  0  0  0  0  0  0  0  0  0  0
   -2.9986   -0.9437   -2.3724 H   0  0  0  0  0  0  0  0  0  0  0  0
   -5.2076   -1.7092   -3.1146 H   0  0  0  0  0  0  0  0  0  0  0  0
   -7.2613   -0.5290   -2.3761 H   0  0  0  0  0  0  0  0  0  0  0  0
   -7.0830    1.4405   -0.8739 H   0  0  0  0  0  0  0  0  0  0  0  0
   -4.8750    2.2250   -0.1117 H   0  0  0  0  0  0  0  0  0  0  0  0
   -1.1784    4.4336    0.7539 H   0  0  0  0  0  0  0  0  0  0  0  0
    0.4925    3.8458    0.5579 H   0  0  0  0  0  0  0  0  0  0  0  0
   -0.4722    3.3446    1.9910 H   0  0  0  0  0  0  0  0  0  0  0  0
    4.7163    0.7389    1.2321 H   0  0  0  0  0  0  0  0  0  0  0  0
    6.1646   -1.2401    0.9803 H   0  0  0  0  0  0  0  0  0  0  0  0
  1  2  1  0
  2  3  2  0
  3  4  1  0
  4  5  2  0
  5  6  1  0
  6  7  2  0
  6  8  2  0
  6  9  1  0
  9 10  1  0
 10 11  2  0
 11 12  1  0
 12 13  1  0
 13 14  2  0
 14 15  1  0
 15 16  2  0
 16 17  1  0
 17 18  2  0
 12 19  2  0
 19 20  1  0
 20 21  1  0
  5 22  1  0
 22 23  2  0
 23  2  1  0
 20 10  1  0
 18 13  1  0
  1 24  1  0
  1 25  1  0
  1 26  1  0
  3 27  1  0
  4 28  1  0
  9 29  1  0
 11 30  1  0
 14 31  1  0
 15 32  1  0
 16 33  1  0
 17 34  1  0
 18 35  1  0
 21 36  1  0
 21 37  1  0
 21 38  1  0
 22 39  1  0
 23 40  1  0
M  END
$$$$
