
     RDKit          3D

 55 57  0  0  0  0  0  0  0  0999 V2000
   -0.2646    2.5692   -1.2967 N   0  0  0  0  0  0  0  0  0  0  0  0
    0.9423    1.9787   -1.2398 C   0  0  0  0  0  0  0  0  0  0  0  0
    2.0006    2.4764   -1.8130 N   0  0  0  0  0  0  0  0  0  0  0  0
    3.0653    1.4645   -1.5265 C   0  0  0  0  0  0  0  0  0  0  0  0
    2.5141    0.5416   -0.4148 C   0  0  0  0  0  0  0  0  0  0  0  0
    3.0437    0.9330    0.9776 C   0  0  0  0  0  0  0  0  0  0  0  0
    4.4891    0.5454    1.1974 C   0  0  0  0  0  0  0  0  0  0  0  0
    4.8440   -0.7981    1.3895 C   0  0  0  0  0  0  0  0  0  0  0  0
    6.1796   -1.1542    1.5886 C   0  0  0  0  0  0  0  0  0  0  0  0
    7.1622   -0.1705    1.5965 C   0  0  0  0  0  0  0  0  0  0  0  0
    8.4533   -0.5636    1.7951 O   0  0  0  0  0  0  0  0  0  0  0  0
    6.8320    1.1682    1.4117 C   0  0  0  0  0  0  0  0  0  0  0  0
    5.4951    1.5246    1.2133 C   0  0  0  0  0  0  0  0  0  0  0  0
    1.0906    0.8339   -0.5314 N   0  0  0  0  0  0  0  0  0  0  0  0
    0.0939    0.0481    0.1585 C   0  0  0  0  0  0  0  0  0  0  0  0
   -0.6046   -0.8938   -0.8259 C   0  0  0  0  0  0  0  0  0  0  0  0
   -1.6251   -1.8220   -0.1606 C   0  0  0  0  0  0  0  0  0  0  0  0
   -2.7897   -1.1276    0.5602 C   0  0  0  0  0  0  0  0  0  0  0  0
   -3.6128   -0.1295   -0.2869 C   0  0  0  0  0  0  0  0  0  0  0  0
   -4.7162    0.5325    0.5708 C   0  0  0  0  0  0  0  0  0  0  0  0
   -6.1319    0.0182    0.2930 C   0  0  0  0  0  0  0  0  0  0  0  0
   -6.1494   -1.4670   -0.0409 C   0  0  0  0  0  0  0  0  0  0  0  0
   -5.2899   -1.7980   -1.2615 C   0  0  0  0  0  0  0  0  0  0  0  0
   -4.2149   -0.7508   -1.5551 C   0  0  0  0  0  0  0  0  0  0  0  0
   -1.0157    1.9299   -1.5092 H   0  0  0  0  0  0  0  0  0  0  0  0
   -0.2423    3.3340   -1.9632 H   0  0  0  0  0  0  0  0  0  0  0  0
    3.9959    1.9687   -1.2558 H   0  0  0  0  0  0  0  0  0  0  0  0
    3.2432    0.8909   -2.4444 H   0  0  0  0  0  0  0  0  0  0  0  0
    2.7288   -0.5083   -0.6470 H   0  0  0  0  0  0  0  0  0  0  0  0
    2.4495    0.4471    1.7621 H   0  0  0  0  0  0  0  0  0  0  0  0
    2.9107    2.0107    1.1483 H   0  0  0  0  0  0  0  0  0  0  0  0
    4.0836   -1.5753    1.3938 H   0  0  0  0  0  0  0  0  0  0  0  0
    6.4536   -2.1942    1.7381 H   0  0  0  0  0  0  0  0  0  0  0  0
    9.0283    0.2167    1.7335 H   0  0  0  0  0  0  0  0  0  0  0  0
    7.5914    1.9431    1.4228 H   0  0  0  0  0  0  0  0  0  0  0  0
    5.2411    2.5733    1.0706 H   0  0  0  0  0  0  0  0  0  0  0  0
   -0.6264    0.7122    0.6488 H   0  0  0  0  0  0  0  0  0  0  0  0
    0.5567   -0.5491    0.9530 H   0  0  0  0  0  0  0  0  0  0  0  0
   -1.0870   -0.3193   -1.6252 H   0  0  0  0  0  0  0  0  0  0  0  0
    0.1502   -1.5177   -1.3250 H   0  0  0  0  0  0  0  0  0  0  0  0
   -1.1028   -2.4547    0.5684 H   0  0  0  0  0  0  0  0  0  0  0  0
   -2.0232   -2.5057   -0.9190 H   0  0  0  0  0  0  0  0  0  0  0  0
   -3.4482   -1.9074    0.9615 H   0  0  0  0  0  0  0  0  0  0  0  0
   -2.3911   -0.6008    1.4378 H   0  0  0  0  0  0  0  0  0  0  0  0
   -2.9302    0.6715   -0.5965 H   0  0  0  0  0  0  0  0  0  0  0  0
   -4.7116    1.6147    0.3868 H   0  0  0  0  0  0  0  0  0  0  0  0
   -4.4911    0.4168    1.6380 H   0  0  0  0  0  0  0  0  0  0  0  0
   -6.7678    0.2163    1.1652 H   0  0  0  0  0  0  0  0  0  0  0  0
   -6.5682    0.5828   -0.5421 H   0  0  0  0  0  0  0  0  0  0  0  0
   -5.7881   -2.0348    0.8254 H   0  0  0  0  0  0  0  0  0  0  0  0
   -7.1790   -1.8006   -0.2150 H   0  0  0  0  0  0  0  0  0  0  0  0
   -5.9331   -1.8922   -2.1462 H   0  0  0  0  0  0  0  0  0  0  0  0
   -4.8272   -2.7836   -1.1178 H   0  0  0  0  0  0  0  0  0  0  0  0
   -4.6666    0.0547   -2.1504 H   0  0  0  0  0  0  0  0  0  0  0  0
   -3.4403   -1.1870   -2.1963 H   0  0  0  0  0  0  0  0  0  0  0  0
  1  2  1  0
  2  3  2  0
  3  4  1  0
  4  5  1  0
  5  6  1  0
  6  7  1  0
  7  8  2  0
  8  9  1  0
  9 10  2  0
 10 11  1  0
 10 12  1  0
 12 13  2  0
  5 14  1  0
 14 15  1  0
 15 16  1  0
 16 17  1  0
 17 18  1  0
 18 19  1  0
 19 20  1  0
 20 21  1  0
 21 22  1  0
 22 23  1  0
 23 24  1  0
 14  2  1  0
 24 19  1  0
 13  7  1  0
  1 25  1  0
  1 26  1  0
  4 27  1  0
  4 28  1  0
  5 29  1  0
  6 30  1  0
  6 31  1  0
  8 32  1  0
  9 33  1  0
 11 34  1  0
 12 35  1  0
 13 36  1  0
 15 37  1  0
 15 38  1  0
 16 39  1  0
 16 40  1  0
 17 41  1  0
 17 42  1  0
 18 43  1  0
 18 44  1  0
 19 45  1  0
 20 46  1  0
 20 47  1  0
 21 48  1  0
 21 49  1  0
 22 50  1  0
 22 51  1  0
 23 52  1  0
 23 53  1  0
 24 54  1  0
 24 55  1  0
M  END
$$$$
