
     RDKit          3D

 50 52  0  0  0  0  0  0  0  0999 V2000
    8.9805   -0.3006    1.9238 C   0  0  0  0  0  0  0  0  0  0  0  0
    8.6910   -0.6109    0.4636 C   0  0  0  0  0  0  0  0  0  0  0  0
    7.3444   -0.1111    0.0577 C   0  0  0  0  0  0  0  0  0  0  0  0
    6.2028   -0.6777    0.3922 N   0  0  0  0  0  0  0  0  0  0  0  0
    5.1160    0.0013   -0.1228 N   0  0  0  0  0  0  0  0  0  0  0  0
    5.4841    1.0314   -0.8459 C   0  0  0  0  0  0  0  0  0  0  0  0
    4.5318    1.9265   -1.4601 N   0  0  0  0  0  0  0  0  0  0  0  0
    3.6022    1.1921   -2.6506 S   0  0  0  0  0  6  0  0  0  0  0  0
    4.1727   -0.0750   -3.0500 O   0  0  0  0  0  0  0  0  0  0  0  0
    3.3688    2.2299   -3.6358 O   0  0  0  0  0  0  0  0  0  0  0  0
    2.0739    0.9004   -1.8016 C   0  0  0  0  0  0  0  0  0  0  0  0
    1.0346    1.8258   -1.8938 C   0  0  0  0  0  0  0  0  0  0  0  0
   -0.1769    1.5855   -1.2304 C   0  0  0  0  0  0  0  0  0  0  0  0
   -0.3629    0.4248   -0.4786 C   0  0  0  0  0  0  0  0  0  0  0  0
   -1.5291    0.0792    0.2384 N   0  0  0  0  0  0  0  0  0  0  0  0
   -2.7308    0.7072    0.4716 C   0  0  0  0  0  0  0  0  0  0  0  0
   -3.2764    2.2071   -0.0196 S   0  0  0  0  0  0  0  0  0  0  0  0
   -3.6219   -0.0243    1.2460 N   0  0  0  0  0  0  0  0  0  0  0  0
   -3.4843   -1.2913    1.7725 C   0  0  0  0  0  0  0  0  0  0  0  0
   -2.4494   -1.9509    1.7264 O   0  0  0  0  0  0  0  0  0  0  0  0
   -4.6555   -1.8114    2.5244 C   0  0  0  0  0  0  0  0  0  0  0  0
   -5.9592   -1.6799    2.2313 C   0  0  0  0  0  0  0  0  0  0  0  0
   -6.5319   -1.0039    1.0662 C   0  0  0  0  0  0  0  0  0  0  0  0
   -6.2357   -1.4274   -0.2345 C   0  0  0  0  0  0  0  0  0  0  0  0
   -6.7730   -0.7533   -1.3319 C   0  0  0  0  0  0  0  0  0  0  0  0
   -7.6146    0.3399   -1.1354 C   0  0  0  0  0  0  0  0  0  0  0  0
   -7.9275    0.7555    0.1576 C   0  0  0  0  0  0  0  0  0  0  0  0
   -7.3914    0.0829    1.2569 C   0  0  0  0  0  0  0  0  0  0  0  0
    0.6892   -0.5057   -0.4189 C   0  0  0  0  0  0  0  0  0  0  0  0
    1.9005   -0.2777   -1.0784 C   0  0  0  0  0  0  0  0  0  0  0  0
    7.1673    1.3037   -0.9062 S   0  0  0  0  0  0  0  0  0  0  0  0
    8.9588    0.7780    2.1128 H   0  0  0  0  0  0  0  0  0  0  0  0
    9.9704   -0.6757    2.2026 H   0  0  0  0  0  0  0  0  0  0  0  0
    8.2426   -0.7710    2.5821 H   0  0  0  0  0  0  0  0  0  0  0  0
    9.4777   -0.1755   -0.1632 H   0  0  0  0  0  0  0  0  0  0  0  0
    8.7289   -1.6956    0.3083 H   0  0  0  0  0  0  0  0  0  0  0  0
    4.9175    2.8025   -1.8018 H   0  0  0  0  0  0  0  0  0  0  0  0
    1.1486    2.7379   -2.4759 H   0  0  0  0  0  0  0  0  0  0  0  0
   -0.9476    2.3360   -1.3411 H   0  0  0  0  0  0  0  0  0  0  0  0
   -1.4666   -0.8269    0.7069 H   0  0  0  0  0  0  0  0  0  0  0  0
   -4.5036    0.4510    1.3853 H   0  0  0  0  0  0  0  0  0  0  0  0
   -4.3685   -2.4078    3.3869 H   0  0  0  0  0  0  0  0  0  0  0  0
   -6.6930   -2.1312    2.8971 H   0  0  0  0  0  0  0  0  0  0  0  0
   -5.5843   -2.2823   -0.4066 H   0  0  0  0  0  0  0  0  0  0  0  0
   -6.5342   -1.0802   -2.3407 H   0  0  0  0  0  0  0  0  0  0  0  0
   -8.0300    0.8661   -1.9912 H   0  0  0  0  0  0  0  0  0  0  0  0
   -8.5897    1.6044    0.3086 H   0  0  0  0  0  0  0  0  0  0  0  0
   -7.6441    0.4225    2.2590 H   0  0  0  0  0  0  0  0  0  0  0  0
    0.5807   -1.4279    0.1499 H   0  0  0  0  0  0  0  0  0  0  0  0
    2.6970   -1.0165   -1.0129 H   0  0  0  0  0  0  0  0  0  0  0  0
  1  2  1  0
  2  3  1  0
  3  4  2  0
  4  5  1  0
  5  6  2  0
  6  7  1  0
  7  8  1  0
  8  9  2  0
  8 10  2  0
  8 11  1  0
 11 12  2  0
 12 13  1  0
 13 14  2  0
 14 15  1  0
 15 16  1  0
 16 17  2  0
 16 18  1  0
 18 19  1  0
 19 20  2  0
 19 21  1  0
 21 22  2  3
 22 23  1  0
 23 24  2  0
 24 25  1  0
 25 26  2  0
 26 27  1  0
 27 28  2  0
 14 29  1  0
 29 30  2  0
  6 31  1  0
 31  3  1  0
 30 11  1  0
 28 23  1  0
  1 32  1  0
  1 33  1  0
  1 34  1  0
  2 35  1  0
  2 36  1  0
  7 37  1  0
 12 38  1  0
 13 39  1  0
 15 40  1  0
 18 41  1  0
 21 42  1  0
 22 43  1  0
 24 44  1  0
 25 45  1  0
 26 46  1  0
 27 47  1  0
 28 48  1  0
 29 49  1  0
 30 50  1  0
M  END
$$$$
