
     RDKit          3D

 55 57  0  0  0  0  0  0  0  0999 V2000
   -3.7986   -3.5560    0.5037 C   0  0  0  0  0  0  0  0  0  0  0  0
   -2.6317   -2.6014    0.2828 C   0  0  0  0  0  0  0  0  0  0  0  0
   -2.8866   -1.1010    0.6118 C   0  0  0  0  0  0  0  0  0  0  0  0
   -4.0099   -0.5435   -0.2786 C   0  0  0  0  0  0  0  0  0  0  0  0
   -3.2676   -0.9505    2.0958 C   0  0  0  0  0  0  0  0  0  0  0  0
   -1.6206   -0.3931    0.3282 N   0  0  0  0  0  0  0  0  0  0  0  0
   -1.3807    0.9497    0.5383 C   0  0  0  0  0  0  0  0  0  0  0  0
   -2.2312    1.7124    1.0003 O   0  0  0  0  0  0  0  0  0  0  0  0
   -0.0021    1.4973    0.0571 C   0  0  0  0  0  0  0  0  0  0  0  0
   -0.0698    2.2891   -1.2446 C   0  0  0  0  0  0  0  0  0  0  0  0
   -1.0088    2.0273   -2.2543 C   0  0  0  0  0  0  0  0  0  0  0  0
   -1.0123    2.7761   -3.4353 C   0  0  0  0  0  0  0  0  0  0  0  0
   -0.0780    3.7927   -3.6275 C   0  0  0  0  0  0  0  0  0  0  0  0
    0.8648    4.0596   -2.6388 C   0  0  0  0  0  0  0  0  0  0  0  0
    0.8631    3.3099   -1.4656 C   0  0  0  0  0  0  0  0  0  0  0  0
    1.7876    3.5810   -0.5323 F   0  0  0  0  0  0  0  0  0  0  0  0
    1.1287    0.5311    0.0748 N   0  0  0  0  0  0  0  0  0  0  0  0
    1.2198   -0.4129   -0.9627 C   0  0  0  0  0  0  0  0  0  0  0  0
    0.2231   -0.7563   -1.6037 O   0  0  0  0  0  0  0  0  0  0  0  0
    2.5683   -0.9363   -1.2801 C   0  0  0  0  0  0  0  0  0  0  0  0
    3.8287   -0.3006   -1.0890 C   0  0  0  0  0  0  0  0  0  0  0  0
    4.7647   -1.1865   -1.5626 C   0  0  0  0  0  0  0  0  0  0  0  0
    4.0631   -2.2640   -2.0085 N   0  0  0  0  0  0  0  0  0  0  0  0
    2.7371   -2.1462   -1.8494 N   0  0  0  0  0  0  0  0  0  0  0  0
    1.7863    0.3160    1.3348 C   0  0  0  0  0  0  0  0  0  0  0  0
    2.1765    1.3979    2.1364 C   0  0  0  0  0  0  0  0  0  0  0  0
    2.8094    1.1881    3.3654 C   0  0  0  0  0  0  0  0  0  0  0  0
    3.0592   -0.1060    3.8119 C   0  0  0  0  0  0  0  0  0  0  0  0
    2.6788   -1.1915    3.0291 C   0  0  0  0  0  0  0  0  0  0  0  0
    2.0476   -0.9829    1.7995 C   0  0  0  0  0  0  0  0  0  0  0  0
   -4.6636   -3.2891   -0.1092 H   0  0  0  0  0  0  0  0  0  0  0  0
   -3.5007   -4.5720    0.2229 H   0  0  0  0  0  0  0  0  0  0  0  0
   -4.1060   -3.5864    1.5523 H   0  0  0  0  0  0  0  0  0  0  0  0
   -2.3176   -2.6908   -0.7663 H   0  0  0  0  0  0  0  0  0  0  0  0
   -1.7802   -2.9593    0.8777 H   0  0  0  0  0  0  0  0  0  0  0  0
   -3.7657   -0.6671   -1.3399 H   0  0  0  0  0  0  0  0  0  0  0  0
   -4.9649   -1.0435   -0.0889 H   0  0  0  0  0  0  0  0  0  0  0  0
   -4.1735    0.5255   -0.1080 H   0  0  0  0  0  0  0  0  0  0  0  0
   -4.1945   -1.4824    2.3327 H   0  0  0  0  0  0  0  0  0  0  0  0
   -3.4313    0.0940    2.3772 H   0  0  0  0  0  0  0  0  0  0  0  0
   -2.4753   -1.3410    2.7446 H   0  0  0  0  0  0  0  0  0  0  0  0
   -1.0505   -0.8064   -0.4103 H   0  0  0  0  0  0  0  0  0  0  0  0
    0.2026    2.2575    0.8215 H   0  0  0  0  0  0  0  0  0  0  0  0
   -1.7437    1.2322   -2.1436 H   0  0  0  0  0  0  0  0  0  0  0  0
   -1.7461    2.5594   -4.2086 H   0  0  0  0  0  0  0  0  0  0  0  0
   -0.0843    4.3715   -4.5474 H   0  0  0  0  0  0  0  0  0  0  0  0
    1.6016    4.8448   -2.7737 H   0  0  0  0  0  0  0  0  0  0  0  0
    4.0165    0.6775   -0.6677 H   0  0  0  0  0  0  0  0  0  0  0  0
    5.8423   -1.1422   -1.6274 H   0  0  0  0  0  0  0  0  0  0  0  0
    4.4211   -3.1131   -2.4342 H   0  0  0  0  0  0  0  0  0  0  0  0
    2.0401    2.4253    1.8085 H   0  0  0  0  0  0  0  0  0  0  0  0
    3.1126    2.0393    3.9703 H   0  0  0  0  0  0  0  0  0  0  0  0
    3.5492   -0.2681    4.7686 H   0  0  0  0  0  0  0  0  0  0  0  0
    2.8651   -2.2047    3.3767 H   0  0  0  0  0  0  0  0  0  0  0  0
    1.7380   -1.8601    1.2352 H   0  0  0  0  0  0  0  0  0  0  0  0
  1  2  1  0
  2  3  1  0
  3  4  1  0
  3  5  1  0
  3  6  1  0
  6  7  1  0
  7  8  2  0
  7  9  1  0
  9 10  1  0
 10 11  2  0
 11 12  1  0
 12 13  2  0
 13 14  1  0
 14 15  2  0
 15 16  1  0
  9 17  1  0
 17 18  1  0
 18 19  2  0
 18 20  1  0
 20 21  1  0
 21 22  2  0
 22 23  1  0
 23 24  1  0
 17 25  1  0
 25 26  2  0
 26 27  1  0
 27 28  2  0
 28 29  1  0
 29 30  2  0
 15 10  1  0
 24 20  2  0
 30 25  1  0
  1 31  1  0
  1 32  1  0
  1 33  1  0
  2 34  1  0
  2 35  1  0
  4 36  1  0
  4 37  1  0
  4 38  1  0
  5 39  1  0
  5 40  1  0
  5 41  1  0
  6 42  1  0
  9 43  1  0
 11 44  1  0
 12 45  1  0
 13 46  1  0
 14 47  1  0
 21 48  1  0
 22 49  1  0
 23 50  1  0
 26 51  1  0
 27 52  1  0
 28 53  1  0
 29 54  1  0
 30 55  1  0
M  END
$$$$
