
     RDKit          3D

 34 35  0  0  0  0  0  0  0  0999 V2000
   -2.1653    1.9239    1.2291 O   0  0  0  0  0  0  0  0  0  0  0  0
   -1.1484    1.2360    1.2650 C   0  0  0  0  0  0  0  0  0  0  0  0
    0.1405    1.7489    1.9171 C   0  0  0  0  0  0  0  0  0  0  0  0
    1.3019    1.6915    1.0854 O   0  0  0  0  0  0  0  0  0  0  0  0
    1.9233    0.4915    1.0376 C   0  0  0  0  0  0  0  0  0  0  0  0
    1.5402   -0.5226    1.6009 O   0  0  0  0  0  0  0  0  0  0  0  0
    3.1345    0.5489    0.1916 C   0  0  0  0  0  0  0  0  0  0  0  0
    3.9260   -0.5951    0.0461 C   0  0  0  0  0  0  0  0  0  0  0  0
    5.0694   -0.5437   -0.7508 C   0  0  0  0  0  0  0  0  0  0  0  0
    5.3755    0.6554   -1.3720 C   0  0  0  0  0  0  0  0  0  0  0  0
    6.7630    0.8042   -2.3662 Cl  0  0  0  0  0  0  0  0  0  0  0  0
    4.6382    1.7795   -1.2573 N   0  0  0  0  0  0  0  0  0  0  0  0
    3.5305    1.7010   -0.4780 C   0  0  0  0  0  0  0  0  0  0  0  0
   -1.0730   -0.0667    0.8057 N   0  0  0  0  0  0  0  0  0  0  0  0
   -2.1489   -0.7752    0.2132 C   0  0  0  0  0  0  0  0  0  0  0  0
   -2.3184   -2.1228    0.6052 C   0  0  0  0  0  0  0  0  0  0  0  0
   -1.2335   -2.8709    1.7321 Cl  0  0  0  0  0  0  0  0  0  0  0  0
   -3.3828   -2.8920    0.1317 C   0  0  0  0  0  0  0  0  0  0  0  0
   -4.2927   -2.3351   -0.7562 C   0  0  0  0  0  0  0  0  0  0  0  0
   -4.1102   -1.0252   -1.1952 C   0  0  0  0  0  0  0  0  0  0  0  0
   -3.0239   -0.2343   -0.7490 C   0  0  0  0  0  0  0  0  0  0  0  0
   -2.8434    1.1033   -1.4345 C   0  0  0  0  0  0  0  0  0  0  0  0
   -1.5763    1.6040   -1.4064 F   0  0  0  0  0  0  0  0  0  0  0  0
   -3.1333    1.0112   -2.7723 F   0  0  0  0  0  0  0  0  0  0  0  0
   -3.6757    2.0732   -0.9704 F   0  0  0  0  0  0  0  0  0  0  0  0
   -0.0127    2.8054    2.1637 H   0  0  0  0  0  0  0  0  0  0  0  0
    0.3015    1.2243    2.8669 H   0  0  0  0  0  0  0  0  0  0  0  0
    3.6583   -1.5225    0.5484 H   0  0  0  0  0  0  0  0  0  0  0  0
    5.6991   -1.4171   -0.8789 H   0  0  0  0  0  0  0  0  0  0  0  0
    2.9644    2.6272   -0.4174 H   0  0  0  0  0  0  0  0  0  0  0  0
   -0.3764   -0.6454    1.2855 H   0  0  0  0  0  0  0  0  0  0  0  0
   -3.5113   -3.9201    0.4608 H   0  0  0  0  0  0  0  0  0  0  0  0
   -5.1301   -2.9236   -1.1243 H   0  0  0  0  0  0  0  0  0  0  0  0
   -4.8099   -0.6171   -1.9267 H   0  0  0  0  0  0  0  0  0  0  0  0
  1  2  2  0
  2  3  1  0
  3  4  1  0
  4  5  1  0
  5  6  2  0
  5  7  1  0
  7  8  2  0
  8  9  1  0
  9 10  2  0
 10 11  1  0
 10 12  1  0
 12 13  2  0
  2 14  1  0
 14 15  1  0
 15 16  2  0
 16 17  1  0
 16 18  1  0
 18 19  2  0
 19 20  1  0
 20 21  2  0
 21 22  1  0
 22 23  1  0
 22 24  1  0
 22 25  1  0
 13  7  1  0
 21 15  1  0
  3 26  1  0
  3 27  1  0
  8 28  1  0
  9 29  1  0
 13 30  1  0
 14 31  1  0
 18 32  1  0
 19 33  1  0
 20 34  1  0
M  END
$$$$
