
     RDKit          3D

 48 51  0  0  0  0  0  0  0  0999 V2000
    9.1487    0.4997   -0.5469 C   0  0  0  0  0  0  0  0  0  0  0  0
    8.2204    0.2867    0.5089 O   0  0  0  0  0  0  0  0  0  0  0  0
    6.8936    0.3249    0.1827 C   0  0  0  0  0  0  0  0  0  0  0  0
    6.0223    0.0974    1.2465 C   0  0  0  0  0  0  0  0  0  0  0  0
    4.6370    0.1087    1.0494 C   0  0  0  0  0  0  0  0  0  0  0  0
    4.0791    0.3546   -0.2168 C   0  0  0  0  0  0  0  0  0  0  0  0
    2.6138    0.3680   -0.4056 C   0  0  0  0  0  0  0  0  0  0  0  0
    1.9756    1.1828   -1.3354 C   0  0  0  0  0  0  0  0  0  0  0  0
    0.5855    1.1327   -1.4457 C   0  0  0  0  0  0  0  0  0  0  0  0
   -0.1601    0.2751   -0.6270 C   0  0  0  0  0  0  0  0  0  0  0  0
   -1.6106    0.2364   -0.7439 C   0  0  0  0  0  0  0  0  0  0  0  0
   -2.2629    0.5795   -1.8686 N   0  0  0  0  0  0  0  0  0  0  0  0
   -3.6062    0.4174   -1.5356 O   0  0  0  0  0  0  0  0  0  0  0  0
   -3.6464    0.0137   -0.2328 C   0  0  0  0  0  0  0  0  0  0  0  0
   -4.9487   -0.2582    0.3790 C   0  0  0  0  0  0  0  0  0  0  0  0
   -4.9486   -0.9181    1.6256 C   0  0  0  0  0  0  0  0  0  0  0  0
   -6.1375   -1.2262    2.2856 C   0  0  0  0  0  0  0  0  0  0  0  0
   -7.3516   -0.8760    1.7106 C   0  0  0  0  0  0  0  0  0  0  0  0
   -7.3781   -0.2161    0.4799 C   0  0  0  0  0  0  0  0  0  0  0  0
   -6.1881    0.0997   -0.1948 C   0  0  0  0  0  0  0  0  0  0  0  0
   -6.1572    0.7636   -1.3940 O   0  0  0  0  0  0  0  0  0  0  0  0
   -7.3928    1.0876   -2.0173 C   0  0  0  0  0  0  0  0  0  0  0  0
   -2.4462   -0.1064    0.2939 N   0  0  0  0  0  0  0  0  0  0  0  0
    0.5563   -0.5078    0.2759 C   0  0  0  0  0  0  0  0  0  0  0  0
   -0.1314   -1.4055    1.0680 O   0  0  0  0  0  0  0  0  0  0  0  0
    0.6947   -2.1307    1.9712 C   0  0  0  0  0  0  0  0  0  0  0  0
    1.9100   -0.4676    0.3971 N   0  0  0  0  0  0  0  0  0  0  0  0
    4.9749    0.5739   -1.2787 C   0  0  0  0  0  0  0  0  0  0  0  0
    6.3645    0.5612   -1.0836 C   0  0  0  0  0  0  0  0  0  0  0  0
   10.1560    0.4348   -0.1245 H   0  0  0  0  0  0  0  0  0  0  0  0
    9.0588   -0.2763   -1.3142 H   0  0  0  0  0  0  0  0  0  0  0  0
    9.0326    1.4991   -0.9789 H   0  0  0  0  0  0  0  0  0  0  0  0
    6.4206   -0.0934    2.2399 H   0  0  0  0  0  0  0  0  0  0  0  0
    3.9858   -0.0750    1.9027 H   0  0  0  0  0  0  0  0  0  0  0  0
    2.5347    1.8693   -1.9627 H   0  0  0  0  0  0  0  0  0  0  0  0
    0.0896    1.7765   -2.1699 H   0  0  0  0  0  0  0  0  0  0  0  0
   -4.0033   -1.2003    2.0898 H   0  0  0  0  0  0  0  0  0  0  0  0
   -6.1110   -1.7373    3.2446 H   0  0  0  0  0  0  0  0  0  0  0  0
   -8.2825   -1.1123    2.2204 H   0  0  0  0  0  0  0  0  0  0  0  0
   -8.3510    0.0436    0.0751 H   0  0  0  0  0  0  0  0  0  0  0  0
   -7.9686    1.7915   -1.4077 H   0  0  0  0  0  0  0  0  0  0  0  0
   -7.9728    0.1858   -2.2391 H   0  0  0  0  0  0  0  0  0  0  0  0
   -7.1676    1.5797   -2.9684 H   0  0  0  0  0  0  0  0  0  0  0  0
    1.2060   -1.4594    2.6700 H   0  0  0  0  0  0  0  0  0  0  0  0
    1.4111   -2.7622    1.4345 H   0  0  0  0  0  0  0  0  0  0  0  0
    0.0474   -2.7894    2.5583 H   0  0  0  0  0  0  0  0  0  0  0  0
    4.6038    0.7398   -2.2878 H   0  0  0  0  0  0  0  0  0  0  0  0
    7.0003    0.7342   -1.9454 H   0  0  0  0  0  0  0  0  0  0  0  0
  1  2  1  0
  2  3  1  0
  3  4  2  0
  4  5  1  0
  5  6  2  0
  6  7  1  0
  7  8  2  0
  8  9  1  0
  9 10  2  0
 10 11  1  0
 11 12  2  0
 12 13  1  0
 13 14  1  0
 14 15  1  0
 15 16  2  0
 16 17  1  0
 17 18  2  0
 18 19  1  0
 19 20  2  0
 20 21  1  0
 21 22  1  0
 14 23  2  0
 10 24  1  0
 24 25  1  0
 25 26  1  0
 24 27  2  0
  6 28  1  0
 28 29  2  0
 29  3  1  0
 27  7  1  0
 23 11  1  0
 20 15  1  0
  1 30  1  0
  1 31  1  0
  1 32  1  0
  4 33  1  0
  5 34  1  0
  8 35  1  0
  9 36  1  0
 16 37  1  0
 17 38  1  0
 18 39  1  0
 19 40  1  0
 22 41  1  0
 22 42  1  0
 22 43  1  0
 26 44  1  0
 26 45  1  0
 26 46  1  0
 28 47  1  0
 29 48  1  0
M  END
$$$$
