
     RDKit          3D

 50 52  0  0  0  0  0  0  0  0999 V2000
    3.4733   -0.2285   -2.4728 O   0  0  0  0  0  0  0  0  0  0  0  0
    3.3039   -1.1976   -1.7470 C   0  0  0  0  0  0  0  0  0  0  0  0
    4.1724   -1.5617   -0.5625 C   0  0  0  0  0  0  0  0  0  0  0  0
    4.3902   -0.4100    0.3898 C   0  0  0  0  0  0  0  0  0  0  0  0
    5.3607    0.5671    0.1097 C   0  0  0  0  0  0  0  0  0  0  0  0
    5.5607    1.6364    0.9854 C   0  0  0  0  0  0  0  0  0  0  0  0
    4.7876    1.7345    2.1357 C   0  0  0  0  0  0  0  0  0  0  0  0
    4.9843    2.7591    2.9770 F   0  0  0  0  0  0  0  0  0  0  0  0
    3.8133    0.7842    2.4261 C   0  0  0  0  0  0  0  0  0  0  0  0
    3.6130   -0.2887    1.5540 C   0  0  0  0  0  0  0  0  0  0  0  0
    2.3136   -2.1232   -1.9033 O   0  0  0  0  0  0  0  0  0  0  0  0
    1.3946   -1.8320   -2.9556 C   0  0  0  0  0  0  0  0  0  0  0  0
    0.4791   -0.6175   -2.7295 C   0  0  0  0  0  0  0  0  0  0  0  0
    0.2371    0.1639   -3.6516 O   0  0  0  0  0  0  0  0  0  0  0  0
   -0.0975   -0.4610   -1.4764 N   0  0  0  0  0  0  0  0  0  0  0  0
   -0.1003   -1.4799   -0.4207 C   0  0  0  0  0  0  0  0  0  0  0  0
   -1.3051   -1.3393    0.5209 C   0  0  0  0  0  0  0  0  0  0  0  0
   -1.3312    0.0056    1.1514 N   0  0  0  0  0  0  0  0  0  0  0  0
   -2.5771    0.3262    2.2505 S   0  0  0  0  0  6  0  0  0  0  0  0
   -2.3176    1.6111    2.8639 O   0  0  0  0  0  0  0  0  0  0  0  0
   -2.7787   -0.8625    3.0512 O   0  0  0  0  0  0  0  0  0  0  0  0
   -4.0101    0.5086    1.2037 C   0  0  0  0  0  0  0  0  0  0  0  0
   -4.3644    1.7736    0.7225 C   0  0  0  0  0  0  0  0  0  0  0  0
   -5.5026    1.9143   -0.0752 C   0  0  0  0  0  0  0  0  0  0  0  0
   -6.2883    0.7987   -0.3692 C   0  0  0  0  0  0  0  0  0  0  0  0
   -7.6898    0.9761   -1.3485 Cl  0  0  0  0  0  0  0  0  0  0  0  0
   -5.9503   -0.4578    0.1340 C   0  0  0  0  0  0  0  0  0  0  0  0
   -4.8128   -0.6050    0.9316 C   0  0  0  0  0  0  0  0  0  0  0  0
   -0.8406    1.1258    0.2958 C   0  0  0  0  0  0  0  0  0  0  0  0
   -0.8450    0.7668   -1.1955 C   0  0  0  0  0  0  0  0  0  0  0  0
    5.1319   -1.9314   -0.9438 H   0  0  0  0  0  0  0  0  0  0  0  0
    3.7195   -2.4000   -0.0170 H   0  0  0  0  0  0  0  0  0  0  0  0
    5.9599    0.5081   -0.7981 H   0  0  0  0  0  0  0  0  0  0  0  0
    6.3126    2.3909    0.7768 H   0  0  0  0  0  0  0  0  0  0  0  0
    3.2204    0.8845    3.3284 H   0  0  0  0  0  0  0  0  0  0  0  0
    2.8510   -1.0260    1.7932 H   0  0  0  0  0  0  0  0  0  0  0  0
    0.7519   -2.7091   -3.0871 H   0  0  0  0  0  0  0  0  0  0  0  0
    1.9438   -1.6989   -3.8959 H   0  0  0  0  0  0  0  0  0  0  0  0
   -0.0986   -2.4783   -0.8692 H   0  0  0  0  0  0  0  0  0  0  0  0
    0.8279   -1.3541    0.1482 H   0  0  0  0  0  0  0  0  0  0  0  0
   -1.2321   -2.1066    1.2992 H   0  0  0  0  0  0  0  0  0  0  0  0
   -2.2257   -1.5024   -0.0482 H   0  0  0  0  0  0  0  0  0  0  0  0
   -3.7716    2.6526    0.9701 H   0  0  0  0  0  0  0  0  0  0  0  0
   -5.7788    2.8954   -0.4547 H   0  0  0  0  0  0  0  0  0  0  0  0
   -6.5745   -1.3231   -0.0806 H   0  0  0  0  0  0  0  0  0  0  0  0
   -4.5661   -1.5830    1.3396 H   0  0  0  0  0  0  0  0  0  0  0  0
    0.1842    1.3508    0.6179 H   0  0  0  0  0  0  0  0  0  0  0  0
   -1.4276    2.0362    0.4456 H   0  0  0  0  0  0  0  0  0  0  0  0
   -0.4288    1.5972   -1.7770 H   0  0  0  0  0  0  0  0  0  0  0  0
   -1.8720    0.6007   -1.5429 H   0  0  0  0  0  0  0  0  0  0  0  0
  1  2  2  0
  2  3  1  0
  3  4  1  0
  4  5  2  0
  5  6  1  0
  6  7  2  0
  7  8  1  0
  7  9  1  0
  9 10  2  0
  2 11  1  0
 11 12  1  0
 12 13  1  0
 13 14  2  0
 13 15  1  0
 15 16  1  0
 16 17  1  0
 17 18  1  0
 18 19  1  0
 19 20  2  0
 19 21  2  0
 19 22  1  0
 22 23  2  0
 23 24  1  0
 24 25  2  0
 25 26  1  0
 25 27  1  0
 27 28  2  0
 18 29  1  0
 29 30  1  0
 10  4  1  0
 30 15  1  0
 28 22  1  0
  3 31  1  0
  3 32  1  0
  5 33  1  0
  6 34  1  0
  9 35  1  0
 10 36  1  0
 12 37  1  0
 12 38  1  0
 16 39  1  0
 16 40  1  0
 17 41  1  0
 17 42  1  0
 23 43  1  0
 24 44  1  0
 27 45  1  0
 28 46  1  0
 29 47  1  0
 29 48  1  0
 30 49  1  0
 30 50  1  0
M  END
$$$$
