
     RDKit          3D

 65 69  0  0  0  0  0  0  0  0999 V2000
    4.8785    0.6274    3.9213 C   0  0  0  0  0  0  0  0  0  0  0  0
    4.5486   -0.1264    2.7623 O   0  0  0  0  0  0  0  0  0  0  0  0
    3.2640   -0.0417    2.2945 C   0  0  0  0  0  0  0  0  0  0  0  0
    2.2451    0.6932    2.9065 C   0  0  0  0  0  0  0  0  0  0  0  0
    0.9574    0.7355    2.3570 C   0  0  0  0  0  0  0  0  0  0  0  0
    0.6581    0.0456    1.1781 C   0  0  0  0  0  0  0  0  0  0  0  0
   -0.7103    0.0982    0.5008 C   0  0  0  0  0  0  0  0  0  0  0  0
   -0.8288    1.3754   -0.3482 C   0  0  0  0  0  0  0  0  0  0  0  0
   -0.9027    2.6098    0.4514 C   0  0  0  0  0  0  0  0  0  0  0  0
   -0.9801    3.5618    1.1116 N   0  0  0  0  0  0  0  0  0  0  0  0
   -2.1026    1.2747   -1.1753 C   0  0  0  0  0  0  0  0  0  0  0  0
   -2.0796    1.6512   -2.4228 N   0  0  0  0  0  0  0  0  0  0  0  0
   -3.2580    0.7973   -0.5341 N   0  0  0  0  0  0  0  0  0  0  0  0
   -4.4698    0.8315   -1.3041 C   0  0  0  0  0  0  0  0  0  0  0  0
   -5.2915    1.9714   -1.2394 C   0  0  0  0  0  0  0  0  0  0  0  0
   -6.4750    2.0347   -1.9758 C   0  0  0  0  0  0  0  0  0  0  0  0
   -6.8501    0.9665   -2.7887 C   0  0  0  0  0  0  0  0  0  0  0  0
   -6.0400   -0.1678   -2.8715 C   0  0  0  0  0  0  0  0  0  0  0  0
   -4.8491   -0.2405   -2.1355 C   0  0  0  0  0  0  0  0  0  0  0  0
   -4.0340   -1.4154   -2.2367 C   0  0  0  0  0  0  0  0  0  0  0  0
   -3.3825   -2.3744   -2.2974 N   0  0  0  0  0  0  0  0  0  0  0  0
   -3.2706    0.2188    0.7528 C   0  0  0  0  0  0  0  0  0  0  0  0
   -4.3812   -0.0926    1.4573 C   0  0  0  0  0  0  0  0  0  0  0  0
   -4.3083   -0.7507    2.8011 C   0  0  0  0  0  0  0  0  0  0  0  0
   -3.2451   -1.8386    2.8352 C   0  0  0  0  0  0  0  0  0  0  0  0
   -2.0132   -1.4837    2.0256 C   0  0  0  0  0  0  0  0  0  0  0  0
   -1.1176   -2.3183    1.8918 O   0  0  0  0  0  0  0  0  0  0  0  0
   -1.9282   -0.0650    1.4425 C   0  0  0  0  0  0  0  0  0  0  0  0
    1.6842   -0.6926    0.5701 C   0  0  0  0  0  0  0  0  0  0  0  0
    2.9820   -0.7497    1.1153 C   0  0  0  0  0  0  0  0  0  0  0  0
    4.0307   -1.5797    0.3996 C   0  0  0  0  0  0  0  0  0  0  0  0
    4.3601   -1.0512   -0.9320 N   0  0  0  0  0  0  0  0  0  0  0  0
    5.2386   -1.9595   -1.6704 C   0  0  0  0  0  0  0  0  0  0  0  0
    5.7137   -1.0881   -2.8199 C   0  0  0  0  0  0  0  0  0  0  0  0
    5.7351    0.3258   -2.2504 C   0  0  0  0  0  0  0  0  0  0  0  0
    5.0971    0.2142   -0.8705 C   0  0  0  0  0  0  0  0  0  0  0  0
    4.3005    0.2931    4.7895 H   0  0  0  0  0  0  0  0  0  0  0  0
    4.7463    1.7002    3.7453 H   0  0  0  0  0  0  0  0  0  0  0  0
    5.9368    0.4552    4.1409 H   0  0  0  0  0  0  0  0  0  0  0  0
    2.4173    1.2559    3.8184 H   0  0  0  0  0  0  0  0  0  0  0  0
    0.2109    1.3364    2.8706 H   0  0  0  0  0  0  0  0  0  0  0  0
   -0.7468   -0.7531   -0.1982 H   0  0  0  0  0  0  0  0  0  0  0  0
    0.0294    1.4436   -1.0291 H   0  0  0  0  0  0  0  0  0  0  0  0
   -1.1539    1.9788   -2.7176 H   0  0  0  0  0  0  0  0  0  0  0  0
   -5.0011    2.8150   -0.6172 H   0  0  0  0  0  0  0  0  0  0  0  0
   -7.1001    2.9226   -1.9206 H   0  0  0  0  0  0  0  0  0  0  0  0
   -7.7704    1.0210   -3.3664 H   0  0  0  0  0  0  0  0  0  0  0  0
   -6.3401   -0.9909   -3.5177 H   0  0  0  0  0  0  0  0  0  0  0  0
   -5.3784    0.1145    1.0782 H   0  0  0  0  0  0  0  0  0  0  0  0
   -4.1051    0.0138    3.5610 H   0  0  0  0  0  0  0  0  0  0  0  0
   -5.2802   -1.1916    3.0502 H   0  0  0  0  0  0  0  0  0  0  0  0
   -2.9451   -2.0388    3.8697 H   0  0  0  0  0  0  0  0  0  0  0  0
   -3.6560   -2.7622    2.4084 H   0  0  0  0  0  0  0  0  0  0  0  0
   -1.8361    0.6219    2.2941 H   0  0  0  0  0  0  0  0  0  0  0  0
    1.4881   -1.2445   -0.3495 H   0  0  0  0  0  0  0  0  0  0  0  0
    4.9348   -1.7038    1.0086 H   0  0  0  0  0  0  0  0  0  0  0  0
    3.6110   -2.5900    0.2926 H   0  0  0  0  0  0  0  0  0  0  0  0
    4.7100   -2.8473   -2.0297 H   0  0  0  0  0  0  0  0  0  0  0  0
    6.0962   -2.2807   -1.0655 H   0  0  0  0  0  0  0  0  0  0  0  0
    6.6968   -1.3981   -3.1890 H   0  0  0  0  0  0  0  0  0  0  0  0
    5.0078   -1.1390   -3.6573 H   0  0  0  0  0  0  0  0  0  0  0  0
    6.7584    0.7099   -2.1783 H   0  0  0  0  0  0  0  0  0  0  0  0
    5.1665    1.0019   -2.8992 H   0  0  0  0  0  0  0  0  0  0  0  0
    5.8846    0.1911   -0.1062 H   0  0  0  0  0  0  0  0  0  0  0  0
    4.4424    1.0679   -0.6678 H   0  0  0  0  0  0  0  0  0  0  0  0
  1  2  1  0
  2  3  1  0
  3  4  2  0
  4  5  1  0
  5  6  2  0
  6  7  1  0
  7  8  1  0
  8  9  1  0
  9 10  3  0
  8 11  1  0
 11 12  2  3
 11 13  1  0
 13 14  1  0
 14 15  2  0
 15 16  1  0
 16 17  2  0
 17 18  1  0
 18 19  2  0
 19 20  1  0
 20 21  3  0
 13 22  1  0
 22 23  2  0
 23 24  1  0
 24 25  1  0
 25 26  1  0
 26 27  2  0
 26 28  1  0
  6 29  1  0
 29 30  2  0
 30 31  1  0
 31 32  1  0
 32 33  1  0
 33 34  1  0
 34 35  1  0
 35 36  1  0
 30  3  1  0
 36 32  1  0
 28  7  1  0
 19 14  1  0
 28 22  1  0
  1 37  1  0
  1 38  1  0
  1 39  1  0
  4 40  1  0
  5 41  1  0
  7 42  1  0
  8 43  1  0
 12 44  1  0
 15 45  1  0
 16 46  1  0
 17 47  1  0
 18 48  1  0
 23 49  1  0
 24 50  1  0
 24 51  1  0
 25 52  1  0
 25 53  1  0
 28 54  1  0
 29 55  1  0
 31 56  1  0
 31 57  1  0
 33 58  1  0
 33 59  1  0
 34 60  1  0
 34 61  1  0
 35 62  1  0
 35 63  1  0
 36 64  1  0
 36 65  1  0
M  END
$$$$
