
     RDKit          3D

 45 47  0  0  0  0  0  0  0  0999 V2000
    1.8271   -4.2341    0.1941 C   0  0  0  0  0  0  0  0  0  0  0  0
    2.9948   -3.2975    0.3359 C   0  0  0  0  0  0  0  0  0  0  0  0
    4.2609   -3.8310    0.6474 C   0  0  0  0  0  0  0  0  0  0  0  0
    5.3785   -3.0127    0.7827 C   0  0  0  0  0  0  0  0  0  0  0  0
    5.2749   -1.6316    0.6139 C   0  0  0  0  0  0  0  0  0  0  0  0
    4.0163   -1.0965    0.3008 C   0  0  0  0  0  0  0  0  0  0  0  0
    3.5828    0.5412    0.0157 S   0  0  0  0  0  0  0  0  0  0  0  0
    1.9450    0.0935   -0.1803 C   0  0  0  0  0  0  0  0  0  0  0  0
    0.9488    1.0267   -0.5008 N   0  0  0  0  0  0  0  0  0  0  0  0
   -0.3794    0.4966   -0.8722 C   0  0  0  0  0  0  0  0  0  0  0  0
   -1.2764    0.2820    0.3534 C   0  0  0  0  0  0  0  0  0  0  0  0
   -2.6924   -0.1218   -0.0744 C   0  0  0  0  0  0  0  0  0  0  0  0
   -3.5837   -0.4047    1.0632 N   0  0  0  0  0  0  0  0  0  0  0  0
   -3.8743    0.7925    1.8572 C   0  0  0  0  0  0  0  0  0  0  0  0
   -4.8377   -0.9949    0.5841 C   0  0  0  0  0  0  0  0  0  0  0  0
    1.1126    2.3879   -0.1652 C   0  0  0  0  0  0  0  0  0  0  0  0
    1.9513    2.8114    0.6304 O   0  0  0  0  0  0  0  0  0  0  0  0
    0.2010    3.3235   -0.8155 C   0  0  0  0  0  0  0  0  0  0  0  0
    0.0315    3.5789   -2.1660 C   0  0  0  0  0  0  0  0  0  0  0  0
   -0.9552    4.5838   -2.4032 C   0  0  0  0  0  0  0  0  0  0  0  0
   -1.4667    5.0586   -1.2239 C   0  0  0  0  0  0  0  0  0  0  0  0
   -2.6700    6.2717   -1.0432 Cl  0  0  0  0  0  0  0  0  0  0  0  0
   -0.7936    4.3341    0.1476 S   0  0  0  0  0  0  0  0  0  0  0  0
    1.7190   -1.2006   -0.1378 N   0  0  0  0  0  0  0  0  0  0  0  0
    2.8806   -1.8950    0.1678 C   0  0  0  0  0  0  0  0  0  0  0  0
    0.9089   -3.6992   -0.0689 H   0  0  0  0  0  0  0  0  0  0  0  0
    1.6535   -4.7607    1.1370 H   0  0  0  0  0  0  0  0  0  0  0  0
    2.0248   -4.9650   -0.5948 H   0  0  0  0  0  0  0  0  0  0  0  0
    4.3746   -4.9065    0.7824 H   0  0  0  0  0  0  0  0  0  0  0  0
    6.3424   -3.4527    1.0255 H   0  0  0  0  0  0  0  0  0  0  0  0
    6.1419   -0.9894    0.7331 H   0  0  0  0  0  0  0  0  0  0  0  0
   -0.2529   -0.4438   -1.4250 H   0  0  0  0  0  0  0  0  0  0  0  0
   -0.8733    1.1772   -1.5712 H   0  0  0  0  0  0  0  0  0  0  0  0
   -0.8442   -0.4938    0.9965 H   0  0  0  0  0  0  0  0  0  0  0  0
   -1.3027    1.2014    0.9455 H   0  0  0  0  0  0  0  0  0  0  0  0
   -2.6030   -1.0286   -0.6879 H   0  0  0  0  0  0  0  0  0  0  0  0
   -3.1246    0.6569   -0.7172 H   0  0  0  0  0  0  0  0  0  0  0  0
   -4.5823    0.5612    2.6610 H   0  0  0  0  0  0  0  0  0  0  0  0
   -2.9742    1.1678    2.3539 H   0  0  0  0  0  0  0  0  0  0  0  0
   -4.2978    1.6002    1.2506 H   0  0  0  0  0  0  0  0  0  0  0  0
   -5.4884   -1.2513    1.4277 H   0  0  0  0  0  0  0  0  0  0  0  0
   -4.6439   -1.9299    0.0460 H   0  0  0  0  0  0  0  0  0  0  0  0
   -5.3856   -0.3164   -0.0816 H   0  0  0  0  0  0  0  0  0  0  0  0
    0.5892    3.0706   -2.9453 H   0  0  0  0  0  0  0  0  0  0  0  0
   -1.2581    4.9401   -3.3791 H   0  0  0  0  0  0  0  0  0  0  0  0
  1  2  1  0
  2  3  2  0
  3  4  1  0
  4  5  2  0
  5  6  1  0
  6  7  1  0
  7  8  1  0
  8  9  1  0
  9 10  1  0
 10 11  1  0
 11 12  1  0
 12 13  1  0
 13 14  1  0
 13 15  1  0
  9 16  1  0
 16 17  2  0
 16 18  1  0
 18 19  2  0
 19 20  1  0
 20 21  2  0
 21 22  1  0
 21 23  1  0
  8 24  2  0
 24 25  1  0
 25  2  1  0
 25  6  2  0
 23 18  1  0
  1 26  1  0
  1 27  1  0
  1 28  1  0
  3 29  1  0
  4 30  1  0
  5 31  1  0
 10 32  1  0
 10 33  1  0
 11 34  1  0
 11 35  1  0
 12 36  1  0
 12 37  1  0
 14 38  1  0
 14 39  1  0
 14 40  1  0
 15 41  1  0
 15 42  1  0
 15 43  1  0
 19 44  1  0
 20 45  1  0
M  END
$$$$
