
     RDKit          3D

 70 73  0  0  0  0  0  0  0  0999 V2000
    1.0096    1.0260   -2.5275 C   0  0  0  0  0  0  0  0  0  0  0  0
    0.7649    1.0554   -1.1206 O   0  0  0  0  0  0  0  0  0  0  0  0
   -0.2199    1.9445   -0.7714 C   0  0  0  0  0  0  0  0  0  0  0  0
   -0.0525    3.3086   -1.0566 C   0  0  0  0  0  0  0  0  0  0  0  0
   -1.0048    4.2473   -0.6498 C   0  0  0  0  0  0  0  0  0  0  0  0
   -0.9198    5.5948   -0.8962 O   0  0  0  0  0  0  0  0  0  0  0  0
    0.2168    6.0664   -1.6091 C   0  0  0  0  0  0  0  0  0  0  0  0
   -2.1285    3.8126    0.0717 C   0  0  0  0  0  0  0  0  0  0  0  0
   -3.1642    4.7320    0.5398 C   0  0  0  0  0  0  0  0  0  0  0  0
   -4.2111    4.2825    1.2364 C   0  0  0  0  0  0  0  0  0  0  0  0
   -4.3781    2.8615    1.5649 C   0  0  0  0  0  0  0  0  0  0  0  0
   -5.3499    2.4704    2.2002 O   0  0  0  0  0  0  0  0  0  0  0  0
   -3.3863    2.0045    1.1146 O   0  0  0  0  0  0  0  0  0  0  0  0
   -2.2647    2.4491    0.3675 C   0  0  0  0  0  0  0  0  0  0  0  0
   -1.3280    1.4811   -0.0425 C   0  0  0  0  0  0  0  0  0  0  0  0
   -1.5325    0.0044    0.3159 C   0  0  0  0  0  0  0  0  0  0  0  0
   -0.8614   -0.3764    1.6644 C   0  0  0  0  0  0  0  0  0  0  0  0
    0.6477   -0.0993    1.7799 C   0  0  0  0  0  0  0  0  0  0  0  0
    1.2170   -0.4954    3.0853 N   0  0  0  0  0  0  0  0  0  0  0  0
    1.0674   -1.9347    3.3514 C   0  0  0  0  0  0  0  0  0  0  0  0
    2.0424   -2.4390    4.4127 C   0  0  0  0  0  0  0  0  0  0  0  0
    3.4957   -2.2523    3.9788 C   0  0  0  0  0  0  0  0  0  0  0  0
    3.6604   -1.1009    2.9755 C   0  0  0  0  0  0  0  0  0  0  0  0
    5.0745   -0.5267    3.0375 C   0  0  0  0  0  0  0  0  0  0  0  0
    2.6044   -0.0155    3.2284 C   0  0  0  0  0  0  0  0  0  0  0  0
   -1.3719   -0.9630   -0.8612 C   0  0  0  0  0  0  0  0  0  0  0  0
   -2.1632   -0.7787   -2.0039 C   0  0  0  0  0  0  0  0  0  0  0  0
   -2.0554   -1.6293   -3.1149 C   0  0  0  0  0  0  0  0  0  0  0  0
   -1.1737   -2.7203   -3.1412 C   0  0  0  0  0  0  0  0  0  0  0  0
   -1.0486   -3.5520   -4.2619 N   0  0  0  0  0  0  0  0  0  0  0  0
   -0.3281   -4.8165   -4.1241 C   0  0  0  0  0  0  0  0  0  0  0  0
   -2.1162   -3.5441   -5.2611 C   0  0  0  0  0  0  0  0  0  0  0  0
   -0.3954   -2.8945   -1.9851 C   0  0  0  0  0  0  0  0  0  0  0  0
   -0.4969   -2.0489   -0.8662 C   0  0  0  0  0  0  0  0  0  0  0  0
    1.4793    0.0671   -2.7649 H   0  0  0  0  0  0  0  0  0  0  0  0
    0.0851    1.1054   -3.1102 H   0  0  0  0  0  0  0  0  0  0  0  0
    1.7058    1.8208   -2.8103 H   0  0  0  0  0  0  0  0  0  0  0  0
    0.8472    3.6151   -1.5778 H   0  0  0  0  0  0  0  0  0  0  0  0
    0.1181    7.1512   -1.7128 H   0  0  0  0  0  0  0  0  0  0  0  0
    0.2577    5.6385   -2.6159 H   0  0  0  0  0  0  0  0  0  0  0  0
    1.1402    5.8682   -1.0553 H   0  0  0  0  0  0  0  0  0  0  0  0
   -3.0658    5.7885    0.3127 H   0  0  0  0  0  0  0  0  0  0  0  0
   -4.9881    4.9468    1.5931 H   0  0  0  0  0  0  0  0  0  0  0  0
   -2.6043   -0.1220    0.5347 H   0  0  0  0  0  0  0  0  0  0  0  0
   -1.0773   -1.4324    1.8658 H   0  0  0  0  0  0  0  0  0  0  0  0
   -1.3601    0.1895    2.4644 H   0  0  0  0  0  0  0  0  0  0  0  0
    0.7933    0.9816    1.6743 H   0  0  0  0  0  0  0  0  0  0  0  0
    1.2041   -0.5834    0.9711 H   0  0  0  0  0  0  0  0  0  0  0  0
    0.0489   -2.1299    3.7035 H   0  0  0  0  0  0  0  0  0  0  0  0
    1.2164   -2.5220    2.4361 H   0  0  0  0  0  0  0  0  0  0  0  0
    1.8547   -3.4966    4.6300 H   0  0  0  0  0  0  0  0  0  0  0  0
    1.8697   -1.8962    5.3515 H   0  0  0  0  0  0  0  0  0  0  0  0
    3.8678   -3.1769    3.5193 H   0  0  0  0  0  0  0  0  0  0  0  0
    4.1075   -2.0883    4.8754 H   0  0  0  0  0  0  0  0  0  0  0  0
    3.5131   -1.4983    1.9616 H   0  0  0  0  0  0  0  0  0  0  0  0
    5.8182   -1.3090    2.8538 H   0  0  0  0  0  0  0  0  0  0  0  0
    5.2098    0.2503    2.2783 H   0  0  0  0  0  0  0  0  0  0  0  0
    5.2818   -0.0822    4.0167 H   0  0  0  0  0  0  0  0  0  0  0  0
    2.7174    0.3569    4.2555 H   0  0  0  0  0  0  0  0  0  0  0  0
    2.7951    0.8543    2.5871 H   0  0  0  0  0  0  0  0  0  0  0  0
   -2.8745    0.0442   -2.0485 H   0  0  0  0  0  0  0  0  0  0  0  0
   -2.6898   -1.4003   -3.9651 H   0  0  0  0  0  0  0  0  0  0  0  0
   -0.8072   -5.4651   -3.3823 H   0  0  0  0  0  0  0  0  0  0  0  0
    0.7186   -4.6491   -3.8478 H   0  0  0  0  0  0  0  0  0  0  0  0
   -0.3024   -5.3628   -5.0740 H   0  0  0  0  0  0  0  0  0  0  0  0
   -2.2018   -2.5644   -5.7432 H   0  0  0  0  0  0  0  0  0  0  0  0
   -1.9102   -4.2569   -6.0676 H   0  0  0  0  0  0  0  0  0  0  0  0
   -3.0772   -3.8207   -4.8140 H   0  0  0  0  0  0  0  0  0  0  0  0
    0.3243   -3.7042   -1.9138 H   0  0  0  0  0  0  0  0  0  0  0  0
    0.1350   -2.2709   -0.0126 H   0  0  0  0  0  0  0  0  0  0  0  0
  1  2  1  0
  2  3  1  0
  3  4  2  0
  4  5  1  0
  5  6  1  0
  6  7  1  0
  5  8  2  0
  8  9  1  0
  9 10  2  0
 10 11  1  0
 11 12  2  0
 11 13  1  0
 13 14  1  0
 14 15  2  0
 15 16  1  0
 16 17  1  0
 17 18  1  0
 18 19  1  0
 19 20  1  0
 20 21  1  0
 21 22  1  0
 22 23  1  0
 23 24  1  0
 23 25  1  0
 16 26  1  0
 26 27  2  0
 27 28  1  0
 28 29  2  0
 29 30  1  0
 30 31  1  0
 30 32  1  0
 29 33  1  0
 33 34  2  0
 15  3  1  0
 25 19  1  0
 34 26  1  0
 14  8  1  0
  1 35  1  0
  1 36  1  0
  1 37  1  0
  4 38  1  0
  7 39  1  0
  7 40  1  0
  7 41  1  0
  9 42  1  0
 10 43  1  0
 16 44  1  0
 17 45  1  0
 17 46  1  0
 18 47  1  0
 18 48  1  0
 20 49  1  0
 20 50  1  0
 21 51  1  0
 21 52  1  0
 22 53  1  0
 22 54  1  0
 23 55  1  0
 24 56  1  0
 24 57  1  0
 24 58  1  0
 25 59  1  0
 25 60  1  0
 27 61  1  0
 28 62  1  0
 31 63  1  0
 31 64  1  0
 31 65  1  0
 32 66  1  0
 32 67  1  0
 32 68  1  0
 33 69  1  0
 34 70  1  0
M  END
$$$$
