
     RDKit          3D

 45 47  0  0  0  0  0  0  0  0999 V2000
   -2.5223   -1.0019   -2.4692 O   0  0  0  0  0  0  0  0  0  0  0  0
   -2.1362   -0.6181   -1.3690 C   0  0  0  0  0  0  0  0  0  0  0  0
   -0.6725   -0.7122   -0.9352 C   0  0  0  0  0  0  0  0  0  0  0  0
   -0.3568    0.1265    0.1803 O   0  0  0  0  0  0  0  0  0  0  0  0
   -0.0331    1.4102   -0.1445 C   0  0  0  0  0  0  0  0  0  0  0  0
   -0.0654    1.8709   -1.2791 O   0  0  0  0  0  0  0  0  0  0  0  0
    0.2942    2.2406    1.0751 C   0  0  0  0  0  0  0  0  0  0  0  0
    1.4771    1.4336    2.2046 S   0  0  0  0  0  0  0  0  0  0  0  0
    2.8289    1.0966    1.0882 C   0  0  0  0  0  0  0  0  0  0  0  0
    3.4222    2.1012    0.3229 C   0  0  0  0  0  0  0  0  0  0  0  0
    4.4715    1.7957   -0.5481 C   0  0  0  0  0  0  0  0  0  0  0  0
    4.9520    0.4825   -0.6608 C   0  0  0  0  0  0  0  0  0  0  0  0
    6.0031    0.1596   -1.5338 C   0  0  0  0  0  0  0  0  0  0  0  0
    6.4720   -1.1514   -1.6309 C   0  0  0  0  0  0  0  0  0  0  0  0
    5.8973   -2.1548   -0.8564 C   0  0  0  0  0  0  0  0  0  0  0  0
    4.8516   -1.8498    0.0162 C   0  0  0  0  0  0  0  0  0  0  0  0
    4.3669   -0.5361    0.1245 C   0  0  0  0  0  0  0  0  0  0  0  0
    3.3125   -0.2131    0.9954 C   0  0  0  0  0  0  0  0  0  0  0  0
   -2.9823   -0.1258   -0.3937 N   0  0  0  0  0  0  0  0  0  0  0  0
   -4.4229   -0.0906   -0.5811 C   0  0  0  0  0  0  0  0  0  0  0  0
   -5.0901    0.8511    0.4162 C   0  0  0  0  0  0  0  0  0  0  0  0
   -5.2460    0.0284    1.6941 C   0  0  0  0  0  0  0  0  0  0  0  0
   -5.1850   -1.4390    1.2694 C   0  0  0  0  0  0  0  0  0  0  0  0
   -5.0707   -1.4335   -0.2523 C   0  0  0  0  0  0  0  0  0  0  0  0
   -0.4883   -1.7461   -0.6250 H   0  0  0  0  0  0  0  0  0  0  0  0
   -0.0205   -0.5007   -1.7904 H   0  0  0  0  0  0  0  0  0  0  0  0
    0.7020    3.2033    0.7524 H   0  0  0  0  0  0  0  0  0  0  0  0
   -0.6373    2.4384    1.6144 H   0  0  0  0  0  0  0  0  0  0  0  0
    3.0876    3.1326    0.3947 H   0  0  0  0  0  0  0  0  0  0  0  0
    4.9141    2.5951   -1.1387 H   0  0  0  0  0  0  0  0  0  0  0  0
    6.4657    0.9298   -2.1471 H   0  0  0  0  0  0  0  0  0  0  0  0
    7.2860   -1.3878   -2.3112 H   0  0  0  0  0  0  0  0  0  0  0  0
    6.2623   -3.1759   -0.9308 H   0  0  0  0  0  0  0  0  0  0  0  0
    4.4164   -2.6483    0.6132 H   0  0  0  0  0  0  0  0  0  0  0  0
    2.8611   -0.9952    1.6029 H   0  0  0  0  0  0  0  0  0  0  0  0
   -2.6060   -0.0536    0.5442 H   0  0  0  0  0  0  0  0  0  0  0  0
   -4.6297    0.2069   -1.6147 H   0  0  0  0  0  0  0  0  0  0  0  0
   -6.0845    1.1323    0.0479 H   0  0  0  0  0  0  0  0  0  0  0  0
   -4.5237    1.7717    0.5894 H   0  0  0  0  0  0  0  0  0  0  0  0
   -4.4327    0.2480    2.3952 H   0  0  0  0  0  0  0  0  0  0  0  0
   -6.1870    0.2642    2.2016 H   0  0  0  0  0  0  0  0  0  0  0  0
   -4.3045   -1.9168    1.7147 H   0  0  0  0  0  0  0  0  0  0  0  0
   -6.0648   -1.9981    1.6034 H   0  0  0  0  0  0  0  0  0  0  0  0
   -6.0758   -1.4751   -0.6900 H   0  0  0  0  0  0  0  0  0  0  0  0
   -4.5066   -2.2956   -0.6214 H   0  0  0  0  0  0  0  0  0  0  0  0
  1  2  2  0
  2  3  1  0
  3  4  1  0
  4  5  1  0
  5  6  2  0
  5  7  1  0
  7  8  1  0
  8  9  1  0
  9 10  2  0
 10 11  1  0
 11 12  2  0
 12 13  1  0
 13 14  2  0
 14 15  1  0
 15 16  2  0
 16 17  1  0
 17 18  2  0
  2 19  1  0
 19 20  1  0
 20 21  1  0
 21 22  1  0
 22 23  1  0
 23 24  1  0
 18  9  1  0
 24 20  1  0
 17 12  1  0
  3 25  1  0
  3 26  1  0
  7 27  1  0
  7 28  1  0
 10 29  1  0
 11 30  1  0
 13 31  1  0
 14 32  1  0
 15 33  1  0
 16 34  1  0
 18 35  1  0
 19 36  1  0
 20 37  1  0
 21 38  1  0
 21 39  1  0
 22 40  1  0
 22 41  1  0
 23 42  1  0
 23 43  1  0
 24 44  1  0
 24 45  1  0
M  END
$$$$
