
     RDKit          3D

 51 53  0  0  0  0  0  0  0  0999 V2000
    4.1307    0.4830   -2.5868 O   0  0  0  0  0  0  0  0  0  0  0  0
    4.2948   -0.4819   -1.8521 C   0  0  0  0  0  0  0  0  0  0  0  0
    3.5722   -1.6508   -1.8700 N   0  0  0  0  0  0  0  0  0  0  0  0
    2.3661   -1.7886   -2.6436 C   0  0  0  0  0  0  0  0  0  0  0  0
    1.2233   -1.2701   -1.8491 C   0  0  0  0  0  0  0  0  0  0  0  0
    0.3504   -0.2194   -2.0272 C   0  0  0  0  0  0  0  0  0  0  0  0
   -0.5125   -0.2221   -0.9033 C   0  0  0  0  0  0  0  0  0  0  0  0
   -0.1309   -1.2848   -0.1052 C   0  0  0  0  0  0  0  0  0  0  0  0
   -0.5874   -1.7974    1.1601 C   0  0  0  0  0  0  0  0  0  0  0  0
   -1.7639   -1.6881    1.7105 N   0  0  0  0  0  0  0  0  0  0  0  0
   -2.7858   -1.1494    0.9954 N   0  0  0  0  0  0  0  0  0  0  0  0
   -4.0126   -0.9080    1.5813 C   0  0  0  0  0  0  0  0  0  0  0  0
   -4.3271   -0.9846    2.7608 O   0  0  0  0  0  0  0  0  0  0  0  0
   -5.0680   -0.4906    0.5431 C   0  0  0  0  0  0  0  0  0  0  0  0
   -4.7302   -0.4180   -0.6313 O   0  0  0  0  0  0  0  0  0  0  0  0
   -6.2971   -0.2433    1.1130 N   0  0  0  0  0  0  0  0  0  0  0  0
   -7.5027    0.1104    0.4729 C   0  0  0  0  0  0  0  0  0  0  0  0
   -7.6103    0.2284   -0.9175 C   0  0  0  0  0  0  0  0  0  0  0  0
   -8.8309    0.5637   -1.5124 C   0  0  0  0  0  0  0  0  0  0  0  0
   -9.9589    0.7883   -0.7260 C   0  0  0  0  0  0  0  0  0  0  0  0
   -9.8686    0.6800    0.6591 C   0  0  0  0  0  0  0  0  0  0  0  0
   -8.6493    0.3427    1.2543 C   0  0  0  0  0  0  0  0  0  0  0  0
   -8.6018    0.2084    3.1513 Br  0  0  0  0  0  0  0  0  0  0  0  0
    0.9399   -1.9160   -0.6802 O   0  0  0  0  0  0  0  0  0  0  0  0
    5.3772   -0.4367   -0.7493 C   0  0  0  0  0  0  0  0  0  0  0  0
    5.5433   -1.4259   -0.0484 O   0  0  0  0  0  0  0  0  0  0  0  0
    6.0079    0.7873   -0.7037 N   0  0  0  0  0  0  0  0  0  0  0  0
    7.0317    1.1971    0.1651 C   0  0  0  0  0  0  0  0  0  0  0  0
    7.6341    0.3563    1.1015 C   0  0  0  0  0  0  0  0  0  0  0  0
    8.6542    0.8357    1.9299 C   0  0  0  0  0  0  0  0  0  0  0  0
    9.0793    2.1596    1.8253 C   0  0  0  0  0  0  0  0  0  0  0  0
    8.4852    3.0053    0.8919 C   0  0  0  0  0  0  0  0  0  0  0  0
    7.4689    2.5241    0.0628 C   0  0  0  0  0  0  0  0  0  0  0  0
    3.7294   -2.2829   -1.0887 H   0  0  0  0  0  0  0  0  0  0  0  0
    2.4665   -1.2435   -3.5873 H   0  0  0  0  0  0  0  0  0  0  0  0
    2.2286   -2.8517   -2.8642 H   0  0  0  0  0  0  0  0  0  0  0  0
    0.3530    0.4787   -2.8548 H   0  0  0  0  0  0  0  0  0  0  0  0
   -1.2988    0.4914   -0.6937 H   0  0  0  0  0  0  0  0  0  0  0  0
    0.1708   -2.3522    1.7423 H   0  0  0  0  0  0  0  0  0  0  0  0
   -2.7454   -1.1208   -0.0222 H   0  0  0  0  0  0  0  0  0  0  0  0
   -6.3279   -0.3361    2.1298 H   0  0  0  0  0  0  0  0  0  0  0  0
   -6.7632    0.0567   -1.5730 H   0  0  0  0  0  0  0  0  0  0  0  0
   -8.8970    0.6452   -2.5955 H   0  0  0  0  0  0  0  0  0  0  0  0
  -10.9068    1.0449   -1.1954 H   0  0  0  0  0  0  0  0  0  0  0  0
  -10.7535    0.8550    1.2683 H   0  0  0  0  0  0  0  0  0  0  0  0
    5.6628    1.4645   -1.3805 H   0  0  0  0  0  0  0  0  0  0  0  0
    7.3358   -0.6817    1.2172 H   0  0  0  0  0  0  0  0  0  0  0  0
    9.1131    0.1731    2.6587 H   0  0  0  0  0  0  0  0  0  0  0  0
    9.8725    2.5270    2.4674 H   0  0  0  0  0  0  0  0  0  0  0  0
    8.8140    4.0362    0.8009 H   0  0  0  0  0  0  0  0  0  0  0  0
    7.0252    3.2015   -0.6613 H   0  0  0  0  0  0  0  0  0  0  0  0
  1  2  2  0
  2  3  1  0
  3  4  1  0
  4  5  1  0
  5  6  2  0
  6  7  1  0
  7  8  2  0
  8  9  1  0
  9 10  2  3
 10 11  1  0
 11 12  1  0
 12 13  2  0
 12 14  1  0
 14 15  2  0
 14 16  1  0
 16 17  1  0
 17 18  2  0
 18 19  1  0
 19 20  2  0
 20 21  1  0
 21 22  2  0
 22 23  1  0
  8 24  1  0
  2 25  1  0
 25 26  2  0
 25 27  1  0
 27 28  1  0
 28 29  2  0
 29 30  1  0
 30 31  2  0
 31 32  1  0
 32 33  2  0
 24  5  1  0
 33 28  1  0
 22 17  1  0
  3 34  1  0
  4 35  1  0
  4 36  1  0
  6 37  1  0
  7 38  1  0
  9 39  1  0
 11 40  1  0
 16 41  1  0
 18 42  1  0
 19 43  1  0
 20 44  1  0
 21 45  1  0
 27 46  1  0
 29 47  1  0
 30 48  1  0
 31 49  1  0
 32 50  1  0
 33 51  1  0
M  END
$$$$
