
     RDKit          3D

 63 68  0  0  0  0  0  0  0  0999 V2000
   -1.4963    2.5862    5.0732 C   0  0  0  0  0  0  0  0  0  0  0  0
   -1.7208    3.2545    3.8386 O   0  0  0  0  0  0  0  0  0  0  0  0
   -1.7509    2.4759    2.7141 C   0  0  0  0  0  0  0  0  0  0  0  0
   -1.5389    1.0993    2.6630 C   0  0  0  0  0  0  0  0  0  0  0  0
   -1.5929    0.4227    1.4386 C   0  0  0  0  0  0  0  0  0  0  0  0
   -1.8667    1.1101    0.2442 C   0  0  0  0  0  0  0  0  0  0  0  0
   -1.9196    0.3872   -1.1062 C   0  0  0  0  0  0  0  0  0  0  0  0
   -2.9277   -0.7491   -1.0900 C   0  0  0  0  0  0  0  0  0  0  0  0
   -4.3011   -0.4885   -1.0132 C   0  0  0  0  0  0  0  0  0  0  0  0
   -5.2160   -1.5404   -0.9628 C   0  0  0  0  0  0  0  0  0  0  0  0
   -4.7822   -2.8743   -0.9830 C   0  0  0  0  0  0  0  0  0  0  0  0
   -5.7064   -3.9310   -0.9253 C   0  0  0  0  0  0  0  0  0  0  0  0
   -5.2791   -5.2590   -0.9433 C   0  0  0  0  0  0  0  0  0  0  0  0
   -3.9220   -5.5487   -1.0199 C   0  0  0  0  0  0  0  0  0  0  0  0
   -2.9918   -4.5096   -1.0788 C   0  0  0  0  0  0  0  0  0  0  0  0
   -3.3982   -3.1577   -1.0609 C   0  0  0  0  0  0  0  0  0  0  0  0
   -2.4855   -2.0780   -1.1200 C   0  0  0  0  0  0  0  0  0  0  0  0
   -1.1421   -2.3854   -1.1929 O   0  0  0  0  0  0  0  0  0  0  0  0
   -0.2224   -1.3990   -1.5402 C   0  0  0  0  0  0  0  0  0  0  0  0
    1.0361   -1.8803   -1.8482 N   0  0  0  0  0  0  0  0  0  0  0  0
    1.9280   -0.9958   -2.1545 C   0  0  0  0  0  0  0  0  0  0  0  0
    1.7323    0.3629   -2.2593 N   0  0  0  0  0  0  0  0  0  0  0  0
    2.8997    1.2264   -2.4654 C   0  0  0  0  0  0  0  0  0  0  0  0
    3.4059    1.8118   -1.1273 C   0  0  0  0  0  0  0  0  0  0  0  0
    3.9604    0.8051   -0.2031 N   0  0  0  0  0  0  0  0  0  0  0  0
    4.0827    1.3258    1.1774 C   0  0  0  0  0  0  0  0  0  0  0  0
    5.5027    1.7940    1.5317 C   0  0  0  0  0  0  0  0  0  0  0  0
    6.4897    0.7609    1.4085 O   0  0  0  0  0  0  0  0  0  0  0  0
    6.1142   -0.2701    0.4856 C   0  0  0  0  0  0  0  0  0  0  0  0
    5.2569    0.2658   -0.6717 C   0  0  0  0  0  0  0  0  0  0  0  0
    0.4707    0.8777   -1.9978 C   0  0  0  0  0  0  0  0  0  0  0  0
    0.1134    2.1170   -2.1476 N   0  0  0  0  0  0  0  0  0  0  0  0
   -0.5647   -0.0946   -1.5319 C   0  0  0  0  0  0  0  0  0  0  0  0
   -2.0728    2.4951    0.3078 C   0  0  0  0  0  0  0  0  0  0  0  0
   -2.0146    3.1677    1.5312 C   0  0  0  0  0  0  0  0  0  0  0  0
   -1.5206    3.3369    5.8690 H   0  0  0  0  0  0  0  0  0  0  0  0
   -2.2877    1.8585    5.2783 H   0  0  0  0  0  0  0  0  0  0  0  0
   -0.5089    2.1139    5.0921 H   0  0  0  0  0  0  0  0  0  0  0  0
   -1.3265    0.5177    3.5533 H   0  0  0  0  0  0  0  0  0  0  0  0
   -1.4187   -0.6518    1.4276 H   0  0  0  0  0  0  0  0  0  0  0  0
   -2.2826    1.0844   -1.8752 H   0  0  0  0  0  0  0  0  0  0  0  0
   -4.6645    0.5365   -0.9795 H   0  0  0  0  0  0  0  0  0  0  0  0
   -6.2770   -1.3082   -0.8997 H   0  0  0  0  0  0  0  0  0  0  0  0
   -6.7731   -3.7257   -0.8656 H   0  0  0  0  0  0  0  0  0  0  0  0
   -6.0066   -6.0650   -0.8979 H   0  0  0  0  0  0  0  0  0  0  0  0
   -3.5831   -6.5813   -1.0351 H   0  0  0  0  0  0  0  0  0  0  0  0
   -1.9341   -4.7607   -1.1407 H   0  0  0  0  0  0  0  0  0  0  0  0
    2.9555   -1.3258   -2.3781 H   0  0  0  0  0  0  0  0  0  0  0  0
    3.7046    0.6802   -2.9724 H   0  0  0  0  0  0  0  0  0  0  0  0
    2.6487    2.0451   -3.1493 H   0  0  0  0  0  0  0  0  0  0  0  0
    2.5573    2.3148   -0.6471 H   0  0  0  0  0  0  0  0  0  0  0  0
    4.1502    2.5920   -1.3314 H   0  0  0  0  0  0  0  0  0  0  0  0
    3.3618    2.1271    1.3777 H   0  0  0  0  0  0  0  0  0  0  0  0
    3.8130    0.5026    1.8516 H   0  0  0  0  0  0  0  0  0  0  0  0
    5.8044    2.6291    0.8888 H   0  0  0  0  0  0  0  0  0  0  0  0
    5.5334    2.1530    2.5654 H   0  0  0  0  0  0  0  0  0  0  0  0
    5.5857   -1.0569    1.0369 H   0  0  0  0  0  0  0  0  0  0  0  0
    7.0373   -0.7112    0.0961 H   0  0  0  0  0  0  0  0  0  0  0  0
    5.8335    1.0483   -1.1817 H   0  0  0  0  0  0  0  0  0  0  0  0
    5.0753   -0.5409   -1.3888 H   0  0  0  0  0  0  0  0  0  0  0  0
    0.8755    2.6964   -2.4891 H   0  0  0  0  0  0  0  0  0  0  0  0
   -2.2615    3.0638   -0.6001 H   0  0  0  0  0  0  0  0  0  0  0  0
   -2.1713    4.2427    1.5599 H   0  0  0  0  0  0  0  0  0  0  0  0
  1  2  1  0
  2  3  1  0
  3  4  2  0
  4  5  1  0
  5  6  2  0
  6  7  1  0
  7  8  1  0
  8  9  2  0
  9 10  1  0
 10 11  2  0
 11 12  1  0
 12 13  2  0
 13 14  1  0
 14 15  2  0
 15 16  1  0
 16 17  2  0
 17 18  1  0
 18 19  1  0
 19 20  1  0
 20 21  2  0
 21 22  1  0
 22 23  1  0
 23 24  1  0
 24 25  1  0
 25 26  1  0
 26 27  1  0
 27 28  1  0
 28 29  1  0
 29 30  1  0
 22 31  1  0
 31 32  2  3
 31 33  1  0
  6 34  1  0
 34 35  2  0
 35  3  1  0
 33  7  1  0
 17  8  1  0
 33 19  2  0
 16 11  1  0
 30 25  1  0
  1 36  1  0
  1 37  1  0
  1 38  1  0
  4 39  1  0
  5 40  1  0
  7 41  1  0
  9 42  1  0
 10 43  1  0
 12 44  1  0
 13 45  1  0
 14 46  1  0
 15 47  1  0
 21 48  1  0
 23 49  1  0
 23 50  1  0
 24 51  1  0
 24 52  1  0
 26 53  1  0
 26 54  1  0
 27 55  1  0
 27 56  1  0
 29 57  1  0
 29 58  1  0
 30 59  1  0
 30 60  1  0
 32 61  1  0
 34 62  1  0
 35 63  1  0
M  END
$$$$
