
     RDKit          3D

 56 60  0  0  0  0  0  0  0  0999 V2000
    5.4604   -3.4715   -0.1406 C   0  0  0  0  0  0  0  0  0  0  0  0
    4.7082   -2.5382   -1.0748 C   0  0  0  0  0  0  0  0  0  0  0  0
    4.0576   -1.4670   -0.3603 N   0  0  0  0  0  0  0  0  0  0  0  0
    4.6309   -0.2302   -0.0825 C   0  0  0  0  0  0  0  0  0  0  0  0
    5.7136    0.2120   -0.4114 O   0  0  0  0  0  0  0  0  0  0  0  0
    3.6268    0.4872    0.7309 C   0  0  0  0  0  0  0  0  0  0  0  0
    3.6379    1.7506    1.2835 C   0  0  0  0  0  0  0  0  0  0  0  0
    2.5128    2.1389    2.0219 C   0  0  0  0  0  0  0  0  0  0  0  0
    1.4112    1.2665    2.1891 C   0  0  0  0  0  0  0  0  0  0  0  0
    1.4036   -0.0386    1.6156 C   0  0  0  0  0  0  0  0  0  0  0  0
    0.4313   -1.0799    1.6287 C   0  0  0  0  0  0  0  0  0  0  0  0
   -1.1384   -0.8387    2.4510 S   0  0  0  0  0  6  0  0  0  0  0  0
   -1.8767   -2.0807    2.3326 O   0  0  0  0  0  0  0  0  0  0  0  0
   -0.8254   -0.2757    3.7486 O   0  0  0  0  0  0  0  0  0  0  0  0
   -1.8818    0.3690    1.4741 N   0  0  0  0  0  0  0  0  0  0  0  0
   -3.0385    1.0061    2.0268 C   0  0  0  0  0  0  0  0  0  0  0  0
   -3.6786    0.5628    2.9698 O   0  0  0  0  0  0  0  0  0  0  0  0
   -3.4401    2.2961    1.4162 C   0  0  0  0  0  0  0  0  0  0  0  0
   -2.5501    3.1525    0.7628 C   0  0  0  0  0  0  0  0  0  0  0  0
   -3.0247    4.3420    0.2125 C   0  0  0  0  0  0  0  0  0  0  0  0
   -4.3732    4.6361    0.3401 C   0  0  0  0  0  0  0  0  0  0  0  0
   -5.2563    3.8361    0.9756 N   0  0  0  0  0  0  0  0  0  0  0  0
   -4.7700    2.6867    1.5066 C   0  0  0  0  0  0  0  0  0  0  0  0
   -2.0913   -0.0494    0.0993 C   0  0  0  0  0  0  0  0  0  0  0  0
   -3.1289   -0.9164   -0.2537 C   0  0  0  0  0  0  0  0  0  0  0  0
   -3.2712   -1.3300   -1.5800 C   0  0  0  0  0  0  0  0  0  0  0  0
   -2.3802   -0.8948   -2.5641 C   0  0  0  0  0  0  0  0  0  0  0  0
   -2.6335   -1.3782   -3.8168 O   0  0  0  0  0  0  0  0  0  0  0  0
   -1.7619   -0.9609   -4.8603 C   0  0  0  0  0  0  0  0  0  0  0  0
   -1.3370   -0.0398   -2.2096 C   0  0  0  0  0  0  0  0  0  0  0  0
   -1.1913    0.3776   -0.8820 C   0  0  0  0  0  0  0  0  0  0  0  0
    0.6697   -2.3209    0.9797 C   0  0  0  0  0  0  0  0  0  0  0  0
    1.8659   -2.5567    0.2843 C   0  0  0  0  0  0  0  0  0  0  0  0
    2.7982   -1.5421    0.2532 C   0  0  0  0  0  0  0  0  0  0  0  0
    2.5558   -0.3538    0.8975 C   0  0  0  0  0  0  0  0  0  0  0  0
    6.2195   -2.9270    0.4308 H   0  0  0  0  0  0  0  0  0  0  0  0
    5.9609   -4.2594   -0.7117 H   0  0  0  0  0  0  0  0  0  0  0  0
    4.7818   -3.9466    0.5751 H   0  0  0  0  0  0  0  0  0  0  0  0
    3.9650   -3.0900   -1.6599 H   0  0  0  0  0  0  0  0  0  0  0  0
    5.4195   -2.0955   -1.7815 H   0  0  0  0  0  0  0  0  0  0  0  0
    4.4912    2.4085    1.1556 H   0  0  0  0  0  0  0  0  0  0  0  0
    2.4894    3.1235    2.4863 H   0  0  0  0  0  0  0  0  0  0  0  0
    0.5717    1.6144    2.7887 H   0  0  0  0  0  0  0  0  0  0  0  0
   -1.4920    2.9211    0.6948 H   0  0  0  0  0  0  0  0  0  0  0  0
   -2.3582    5.0285   -0.2988 H   0  0  0  0  0  0  0  0  0  0  0  0
   -4.7902    5.5512   -0.0720 H   0  0  0  0  0  0  0  0  0  0  0  0
   -5.5099    2.0731    2.0163 H   0  0  0  0  0  0  0  0  0  0  0  0
   -3.8243   -1.2937    0.4941 H   0  0  0  0  0  0  0  0  0  0  0  0
   -4.0807   -2.0063   -1.8476 H   0  0  0  0  0  0  0  0  0  0  0  0
   -2.1045   -1.4274   -5.7889 H   0  0  0  0  0  0  0  0  0  0  0  0
   -0.7367   -1.2986   -4.6759 H   0  0  0  0  0  0  0  0  0  0  0  0
   -1.8022    0.1247   -4.9977 H   0  0  0  0  0  0  0  0  0  0  0  0
   -0.6178    0.3173   -2.9397 H   0  0  0  0  0  0  0  0  0  0  0  0
   -0.3681    1.0405   -0.6289 H   0  0  0  0  0  0  0  0  0  0  0  0
   -0.0831   -3.1085    1.0069 H   0  0  0  0  0  0  0  0  0  0  0  0
    2.0342   -3.5068   -0.2105 H   0  0  0  0  0  0  0  0  0  0  0  0
  1  2  1  0
  2  3  1  0
  3  4  1  0
  4  5  2  0
  4  6  1  0
  6  7  2  0
  7  8  1  0
  8  9  2  0
  9 10  1  0
 10 11  2  0
 11 12  1  0
 12 13  2  0
 12 14  2  0
 12 15  1  0
 15 16  1  0
 16 17  2  0
 16 18  1  0
 18 19  2  0
 19 20  1  0
 20 21  2  0
 21 22  1  0
 22 23  2  0
 15 24  1  0
 24 25  2  0
 25 26  1  0
 26 27  2  0
 27 28  1  0
 28 29  1  0
 27 30  1  0
 30 31  2  0
 11 32  1  0
 32 33  2  0
 33 34  1  0
 34 35  2  0
 34  3  1  0
 35  6  1  0
 35 10  1  0
 23 18  1  0
 31 24  1  0
  1 36  1  0
  1 37  1  0
  1 38  1  0
  2 39  1  0
  2 40  1  0
  7 41  1  0
  8 42  1  0
  9 43  1  0
 19 44  1  0
 20 45  1  0
 21 46  1  0
 23 47  1  0
 25 48  1  0
 26 49  1  0
 29 50  1  0
 29 51  1  0
 29 52  1  0
 30 53  1  0
 31 54  1  0
 32 55  1  0
 33 56  1  0
M  END
$$$$
