
     RDKit          3D

 43 44  0  0  0  0  0  0  0  0999 V2000
   -8.8904    1.1793    0.0359 C   0  0  0  0  0  0  0  0  0  0  0  0
   -7.6924    0.2899    0.3279 C   0  0  0  0  0  0  0  0  0  0  0  0
   -6.8386    0.8555    1.4610 C   0  0  0  0  0  0  0  0  0  0  0  0
   -5.6772   -0.0177    1.7450 C   0  0  0  0  0  0  0  0  0  0  0  0
   -5.5479   -0.9785    2.6325 N   0  0  0  0  0  0  0  0  0  0  0  0
   -4.2710   -1.4777    2.4741 N   0  0  0  0  0  0  0  0  0  0  0  0
   -3.7099   -0.7877    1.5031 C   0  0  0  0  0  0  0  0  0  0  0  0
   -2.0881   -1.0551    0.9448 S   0  0  0  0  0  0  0  0  0  0  0  0
   -1.9173    0.3249   -0.2202 C   0  0  0  0  0  0  0  0  0  0  0  0
   -0.5521    0.3497   -0.8946 C   0  0  0  0  0  0  0  0  0  0  0  0
   -0.4601    0.6933   -2.0709 O   0  0  0  0  0  0  0  0  0  0  0  0
    0.5048    0.0463   -0.0539 N   0  0  0  0  0  0  0  0  0  0  0  0
    1.8808    0.0484   -0.3549 C   0  0  0  0  0  0  0  0  0  0  0  0
    2.7547   -0.3752    0.6549 C   0  0  0  0  0  0  0  0  0  0  0  0
    4.1385   -0.4017    0.4426 C   0  0  0  0  0  0  0  0  0  0  0  0
    4.6688   -0.0009   -0.7884 C   0  0  0  0  0  0  0  0  0  0  0  0
    6.1300   -0.0069   -1.0734 C   0  0  0  0  0  0  0  0  0  0  0  0
    6.6096    0.3434   -2.1397 O   0  0  0  0  0  0  0  0  0  0  0  0
    6.8225   -0.4526    0.0046 O   0  0  0  0  0  0  0  0  0  0  0  0
    8.2488   -0.5039   -0.1490 C   0  0  0  0  0  0  0  0  0  0  0  0
    8.6608   -1.8264   -0.7677 C   0  0  0  0  0  0  0  0  0  0  0  0
    3.7972    0.4245   -1.7971 C   0  0  0  0  0  0  0  0  0  0  0  0
    2.4132    0.4491   -1.5809 C   0  0  0  0  0  0  0  0  0  0  0  0
   -4.5496    0.1687    0.9925 O   0  0  0  0  0  0  0  0  0  0  0  0
   -9.5340    1.2721    0.9165 H   0  0  0  0  0  0  0  0  0  0  0  0
   -8.5704    2.1823   -0.2639 H   0  0  0  0  0  0  0  0  0  0  0  0
   -9.4874    0.7558   -0.7779 H   0  0  0  0  0  0  0  0  0  0  0  0
   -7.0898    0.1874   -0.5831 H   0  0  0  0  0  0  0  0  0  0  0  0
   -8.0452   -0.7157    0.5883 H   0  0  0  0  0  0  0  0  0  0  0  0
   -6.4865    1.8609    1.2013 H   0  0  0  0  0  0  0  0  0  0  0  0
   -7.4433    0.9541    2.3702 H   0  0  0  0  0  0  0  0  0  0  0  0
   -2.0556    1.2790    0.2986 H   0  0  0  0  0  0  0  0  0  0  0  0
   -2.6791    0.2271   -1.0007 H   0  0  0  0  0  0  0  0  0  0  0  0
    0.2492   -0.2860    0.8703 H   0  0  0  0  0  0  0  0  0  0  0  0
    2.3746   -0.6944    1.6226 H   0  0  0  0  0  0  0  0  0  0  0  0
    4.7869   -0.7383    1.2479 H   0  0  0  0  0  0  0  0  0  0  0  0
    8.6180    0.3459   -0.7346 H   0  0  0  0  0  0  0  0  0  0  0  0
    8.6813   -0.4159    0.8530 H   0  0  0  0  0  0  0  0  0  0  0  0
    9.7499   -1.9007   -0.8345 H   0  0  0  0  0  0  0  0  0  0  0  0
    8.2408   -1.9381   -1.7723 H   0  0  0  0  0  0  0  0  0  0  0  0
    8.2852   -2.6638   -0.1705 H   0  0  0  0  0  0  0  0  0  0  0  0
    4.1877    0.7415   -2.7630 H   0  0  0  0  0  0  0  0  0  0  0  0
    1.7824    0.7902   -2.3963 H   0  0  0  0  0  0  0  0  0  0  0  0
  1  2  1  0
  2  3  1  0
  3  4  1  0
  4  5  2  0
  5  6  1  0
  6  7  2  0
  7  8  1  0
  8  9  1  0
  9 10  1  0
 10 11  2  0
 10 12  1  0
 12 13  1  0
 13 14  2  0
 14 15  1  0
 15 16  2  0
 16 17  1  0
 17 18  2  0
 17 19  1  0
 19 20  1  0
 20 21  1  0
 16 22  1  0
 22 23  2  0
  7 24  1  0
 24  4  1  0
 23 13  1  0
  1 25  1  0
  1 26  1  0
  1 27  1  0
  2 28  1  0
  2 29  1  0
  3 30  1  0
  3 31  1  0
  9 32  1  0
  9 33  1  0
 12 34  1  0
 14 35  1  0
 15 36  1  0
 20 37  1  0
 20 38  1  0
 21 39  1  0
 21 40  1  0
 21 41  1  0
 22 42  1  0
 23 43  1  0
M  END
$$$$
