
     RDKit          3D

 63 67  0  0  0  0  0  0  0  0999 V2000
    9.6311    0.3637   -1.9985 C   0  0  0  0  0  0  0  0  0  0  0  0
    8.9730    0.9158   -0.8697 O   0  0  0  0  0  0  0  0  0  0  0  0
    7.6099    0.7767   -0.7953 C   0  0  0  0  0  0  0  0  0  0  0  0
    6.8196    0.1966   -1.7913 C   0  0  0  0  0  0  0  0  0  0  0  0
    5.4343    0.0974   -1.6269 C   0  0  0  0  0  0  0  0  0  0  0  0
    4.8083    0.5698   -0.4651 C   0  0  0  0  0  0  0  0  0  0  0  0
    3.3527    0.4503   -0.2898 C   0  0  0  0  0  0  0  0  0  0  0  0
    2.4606    1.0162   -1.2185 C   0  0  0  0  0  0  0  0  0  0  0  0
    1.0743    0.9125   -1.0485 C   0  0  0  0  0  0  0  0  0  0  0  0
    0.5525    0.2285    0.0524 C   0  0  0  0  0  0  0  0  0  0  0  0
    1.4285   -0.3216    0.9769 C   0  0  0  0  0  0  0  0  0  0  0  0
    2.8158   -0.2256    0.8162 C   0  0  0  0  0  0  0  0  0  0  0  0
    0.7779   -1.1426    2.3792 S   0  0  0  0  0  6  0  0  0  0  0  0
    1.5268   -2.3757    2.5216 O   0  0  0  0  0  0  0  0  0  0  0  0
    0.7002   -0.1664    3.4457 O   0  0  0  0  0  0  0  0  0  0  0  0
   -0.8710   -1.6077    1.9968 C   0  0  0  0  0  0  0  0  0  0  0  0
   -1.4740   -2.6285    2.7442 C   0  0  0  0  0  0  0  0  0  0  0  0
   -2.7698   -3.0357    2.4344 C   0  0  0  0  0  0  0  0  0  0  0  0
   -3.4448   -2.4402    1.3697 C   0  0  0  0  0  0  0  0  0  0  0  0
   -2.8256   -1.4205    0.6270 C   0  0  0  0  0  0  0  0  0  0  0  0
   -3.5286   -0.9420   -0.5769 C   0  0  0  0  0  0  0  0  0  0  0  0
   -3.0808   -1.2345   -1.6771 O   0  0  0  0  0  0  0  0  0  0  0  0
   -4.6874   -0.2407   -0.3301 N   0  0  0  0  0  0  0  0  0  0  0  0
   -5.5362    0.2422   -1.4116 C   0  0  0  0  0  0  0  0  0  0  0  0
   -6.5126   -0.8492   -1.8683 C   0  0  0  0  0  0  0  0  0  0  0  0
   -7.6114   -1.1149   -0.8406 C   0  0  0  0  0  0  0  0  0  0  0  0
   -8.3517    0.1644   -0.4679 C   0  0  0  0  0  0  0  0  0  0  0  0
   -7.3951    1.2485    0.0158 C   0  0  0  0  0  0  0  0  0  0  0  0
   -6.2814    1.5141   -0.9946 C   0  0  0  0  0  0  0  0  0  0  0  0
   -1.5320   -0.9836    0.9419 C   0  0  0  0  0  0  0  0  0  0  0  0
   -0.9126    0.1516    0.2211 C   0  0  0  0  0  0  0  0  0  0  0  0
   -1.6071    1.0698   -0.1959 O   0  0  0  0  0  0  0  0  0  0  0  0
    5.6096    1.1568    0.5304 C   0  0  0  0  0  0  0  0  0  0  0  0
    6.9984    1.2666    0.3761 C   0  0  0  0  0  0  0  0  0  0  0  0
    7.8408    1.8276    1.3054 O   0  0  0  0  0  0  0  0  0  0  0  0
    7.2658    2.3546    2.4904 C   0  0  0  0  0  0  0  0  0  0  0  0
    9.4809   -0.7177   -2.0535 H   0  0  0  0  0  0  0  0  0  0  0  0
    9.3129    0.8564   -2.9228 H   0  0  0  0  0  0  0  0  0  0  0  0
   10.7037    0.5430   -1.8804 H   0  0  0  0  0  0  0  0  0  0  0  0
    7.2492   -0.1919   -2.7093 H   0  0  0  0  0  0  0  0  0  0  0  0
    4.8458   -0.3676   -2.4164 H   0  0  0  0  0  0  0  0  0  0  0  0
    2.8423    1.5629   -2.0801 H   0  0  0  0  0  0  0  0  0  0  0  0
    0.4062    1.3697   -1.7784 H   0  0  0  0  0  0  0  0  0  0  0  0
    3.4786   -0.6786    1.5538 H   0  0  0  0  0  0  0  0  0  0  0  0
   -0.9363   -3.1076    3.5615 H   0  0  0  0  0  0  0  0  0  0  0  0
   -3.2420   -3.8338    3.0040 H   0  0  0  0  0  0  0  0  0  0  0  0
   -4.4375   -2.7942    1.0935 H   0  0  0  0  0  0  0  0  0  0  0  0
   -4.9616   -0.0569    0.6273 H   0  0  0  0  0  0  0  0  0  0  0  0
   -4.8789    0.4905   -2.2542 H   0  0  0  0  0  0  0  0  0  0  0  0
   -6.9801   -0.5383   -2.8122 H   0  0  0  0  0  0  0  0  0  0  0  0
   -5.9776   -1.7835   -2.0733 H   0  0  0  0  0  0  0  0  0  0  0  0
   -8.3215   -1.8420   -1.2453 H   0  0  0  0  0  0  0  0  0  0  0  0
   -7.1763   -1.5640    0.0610 H   0  0  0  0  0  0  0  0  0  0  0  0
   -8.9080    0.5309   -1.3396 H   0  0  0  0  0  0  0  0  0  0  0  0
   -9.0917   -0.0538    0.3119 H   0  0  0  0  0  0  0  0  0  0  0  0
   -7.9491    2.1750    0.1969 H   0  0  0  0  0  0  0  0  0  0  0  0
   -6.9601    0.9507    0.9776 H   0  0  0  0  0  0  0  0  0  0  0  0
   -6.7232    1.9728   -1.8888 H   0  0  0  0  0  0  0  0  0  0  0  0
   -5.5797    2.2446   -0.5773 H   0  0  0  0  0  0  0  0  0  0  0  0
    5.1212    1.5347    1.4237 H   0  0  0  0  0  0  0  0  0  0  0  0
    8.0768    2.7580    3.1051 H   0  0  0  0  0  0  0  0  0  0  0  0
    6.5801    3.1761    2.2664 H   0  0  0  0  0  0  0  0  0  0  0  0
    6.7680    1.5700    3.0703 H   0  0  0  0  0  0  0  0  0  0  0  0
  1  2  1  0
  2  3  1  0
  3  4  2  0
  4  5  1  0
  5  6  2  0
  6  7  1  0
  7  8  2  0
  8  9  1  0
  9 10  2  0
 10 11  1  0
 11 12  2  0
 11 13  1  0
 13 14  2  0
 13 15  2  0
 13 16  1  0
 16 17  2  0
 17 18  1  0
 18 19  2  0
 19 20  1  0
 20 21  1  0
 21 22  2  0
 21 23  1  0
 23 24  1  0
 24 25  1  0
 25 26  1  0
 26 27  1  0
 27 28  1  0
 28 29  1  0
 20 30  2  0
 30 31  1  0
 31 32  2  0
  6 33  1  0
 33 34  2  0
 34 35  1  0
 35 36  1  0
 34  3  1  0
 12  7  1  0
 30 16  1  0
 31 10  1  0
 29 24  1  0
  1 37  1  0
  1 38  1  0
  1 39  1  0
  4 40  1  0
  5 41  1  0
  8 42  1  0
  9 43  1  0
 12 44  1  0
 17 45  1  0
 18 46  1  0
 19 47  1  0
 23 48  1  0
 24 49  1  0
 25 50  1  0
 25 51  1  0
 26 52  1  0
 26 53  1  0
 27 54  1  0
 27 55  1  0
 28 56  1  0
 28 57  1  0
 29 58  1  0
 29 59  1  0
 33 60  1  0
 36 61  1  0
 36 62  1  0
 36 63  1  0
M  END
$$$$
