
     RDKit          3D

 59 62  0  0  0  0  0  0  0  0999 V2000
   -2.0314    0.2441   -2.6057 C   0  0  0  0  0  0  0  0  0  0  0  0
   -1.5203    1.6647   -2.7972 C   0  0  0  0  0  0  0  0  0  0  0  0
   -1.1570    2.3586   -1.4828 C   0  0  0  0  0  0  0  0  0  0  0  0
    0.0042    1.7938   -0.8190 N   0  0  0  0  0  0  0  0  0  0  0  0
    0.0223    0.9222    0.2612 C   0  0  0  0  0  0  0  0  0  0  0  0
   -1.1500    0.4363    0.9886 C   0  0  0  0  0  0  0  0  0  0  0  0
   -1.4155   -0.9408    1.0083 C   0  0  0  0  0  0  0  0  0  0  0  0
   -2.5295   -1.4392    1.6844 C   0  0  0  0  0  0  0  0  0  0  0  0
   -2.8766   -2.7642    1.7432 O   0  0  0  0  0  0  0  0  0  0  0  0
   -1.8808   -3.7082    1.3715 C   0  0  0  0  0  0  0  0  0  0  0  0
   -3.3864   -0.5357    2.3351 C   0  0  0  0  0  0  0  0  0  0  0  0
   -4.4755   -1.0177    3.0283 O   0  0  0  0  0  0  0  0  0  0  0  0
   -5.6104   -1.0716    2.1659 C   0  0  0  0  0  0  0  0  0  0  0  0
   -3.1066    0.8413    2.3695 C   0  0  0  0  0  0  0  0  0  0  0  0
   -3.9921    1.6256    3.0627 O   0  0  0  0  0  0  0  0  0  0  0  0
   -3.6104    2.9690    3.3221 C   0  0  0  0  0  0  0  0  0  0  0  0
   -1.9832    1.3185    1.6913 C   0  0  0  0  0  0  0  0  0  0  0  0
    1.2624    0.5340    0.5193 N   0  0  0  0  0  0  0  0  0  0  0  0
    2.0453    1.2005   -0.3672 C   0  0  0  0  0  0  0  0  0  0  0  0
    1.3080    2.0010   -1.1887 C   0  0  0  0  0  0  0  0  0  0  0  0
    1.9008    2.8084   -2.1980 C   0  0  0  0  0  0  0  0  0  0  0  0
    1.2922    3.5479   -2.9625 O   0  0  0  0  0  0  0  0  0  0  0  0
    3.2709    2.6831   -2.2356 N   0  0  0  0  0  0  0  0  0  0  0  0
    4.0621    1.8783   -1.4365 C   0  0  0  0  0  0  0  0  0  0  0  0
    5.2807    1.8817   -1.6142 O   0  0  0  0  0  0  0  0  0  0  0  0
    3.4179    1.1155   -0.4693 N   0  0  0  0  0  0  0  0  0  0  0  0
    4.1873    0.2073    0.3682 C   0  0  0  0  0  0  0  0  0  0  0  0
    4.2865   -1.1792   -0.2296 C   0  0  0  0  0  0  0  0  0  0  0  0
    3.3270   -2.1551    0.0745 C   0  0  0  0  0  0  0  0  0  0  0  0
    3.4080   -3.4294   -0.4889 C   0  0  0  0  0  0  0  0  0  0  0  0
    4.4448   -3.7390   -1.3671 C   0  0  0  0  0  0  0  0  0  0  0  0
    5.3994   -2.7747   -1.6847 C   0  0  0  0  0  0  0  0  0  0  0  0
    5.3201   -1.5003   -1.1212 C   0  0  0  0  0  0  0  0  0  0  0  0
   -2.3588   -0.1688   -3.5653 H   0  0  0  0  0  0  0  0  0  0  0  0
   -2.8839    0.2209   -1.9198 H   0  0  0  0  0  0  0  0  0  0  0  0
   -1.2490   -0.4120   -2.2129 H   0  0  0  0  0  0  0  0  0  0  0  0
   -0.6608    1.6453   -3.4765 H   0  0  0  0  0  0  0  0  0  0  0  0
   -2.3038    2.2508   -3.2921 H   0  0  0  0  0  0  0  0  0  0  0  0
   -2.0089    2.3392   -0.7989 H   0  0  0  0  0  0  0  0  0  0  0  0
   -0.9379    3.4170   -1.6643 H   0  0  0  0  0  0  0  0  0  0  0  0
   -0.7348   -1.6001    0.4772 H   0  0  0  0  0  0  0  0  0  0  0  0
   -2.2607   -4.7061    1.6113 H   0  0  0  0  0  0  0  0  0  0  0  0
   -0.9552   -3.5585    1.9381 H   0  0  0  0  0  0  0  0  0  0  0  0
   -1.6941   -3.6750    0.2931 H   0  0  0  0  0  0  0  0  0  0  0  0
   -6.4538   -1.4584    2.7462 H   0  0  0  0  0  0  0  0  0  0  0  0
   -5.4417   -1.7509    1.3230 H   0  0  0  0  0  0  0  0  0  0  0  0
   -5.8811   -0.0748    1.8003 H   0  0  0  0  0  0  0  0  0  0  0  0
   -3.5864    3.5534    2.3961 H   0  0  0  0  0  0  0  0  0  0  0  0
   -4.3677    3.4132    3.9747 H   0  0  0  0  0  0  0  0  0  0  0  0
   -2.6489    3.0193    3.8451 H   0  0  0  0  0  0  0  0  0  0  0  0
   -1.7325    2.3742    1.6976 H   0  0  0  0  0  0  0  0  0  0  0  0
    3.7564    3.2252   -2.9325 H   0  0  0  0  0  0  0  0  0  0  0  0
    5.1975    0.6103    0.5150 H   0  0  0  0  0  0  0  0  0  0  0  0
    3.7382    0.1615    1.3683 H   0  0  0  0  0  0  0  0  0  0  0  0
    2.5073   -1.9218    0.7524 H   0  0  0  0  0  0  0  0  0  0  0  0
    2.6623   -4.1804   -0.2420 H   0  0  0  0  0  0  0  0  0  0  0  0
    4.5084   -4.7314   -1.8054 H   0  0  0  0  0  0  0  0  0  0  0  0
    6.2068   -3.0138   -2.3711 H   0  0  0  0  0  0  0  0  0  0  0  0
    6.0690   -0.7551   -1.3835 H   0  0  0  0  0  0  0  0  0  0  0  0
  1  2  1  0
  2  3  1  0
  3  4  1  0
  4  5  1  0
  5  6  1  0
  6  7  2  0
  7  8  1  0
  8  9  1  0
  9 10  1  0
  8 11  2  0
 11 12  1  0
 12 13  1  0
 11 14  1  0
 14 15  1  0
 15 16  1  0
 14 17  2  0
  5 18  2  0
 18 19  1  0
 19 20  2  0
 20 21  1  0
 21 22  2  0
 21 23  1  0
 23 24  1  0
 24 25  2  0
 24 26  1  0
 26 27  1  0
 27 28  1  0
 28 29  2  0
 29 30  1  0
 30 31  2  0
 31 32  1  0
 32 33  2  0
 20  4  1  0
 33 28  1  0
 17  6  1  0
 26 19  1  0
  1 34  1  0
  1 35  1  0
  1 36  1  0
  2 37  1  0
  2 38  1  0
  3 39  1  0
  3 40  1  0
  7 41  1  0
 10 42  1  0
 10 43  1  0
 10 44  1  0
 13 45  1  0
 13 46  1  0
 13 47  1  0
 16 48  1  0
 16 49  1  0
 16 50  1  0
 17 51  1  0
 23 52  1  0
 27 53  1  0
 27 54  1  0
 29 55  1  0
 30 56  1  0
 31 57  1  0
 32 58  1  0
 33 59  1  0
M  END
$$$$
