
     RDKit          3D

 46 48  0  0  0  0  0  0  0  0999 V2000
   -3.8320   -0.0186   -1.4227 C   0  0  0  0  0  0  0  0  0  0  0  0
   -3.6003    0.4024    0.0064 C   0  0  0  0  0  0  0  0  0  0  0  0
   -4.6125    0.5349    0.8922 C   0  0  0  0  0  0  0  0  0  0  0  0
   -6.0309    0.2971    0.6103 C   0  0  0  0  0  0  0  0  0  0  0  0
   -6.8458    1.3461    0.1717 C   0  0  0  0  0  0  0  0  0  0  0  0
   -8.1961    1.1179   -0.0993 C   0  0  0  0  0  0  0  0  0  0  0  0
   -8.7357   -0.1575    0.0668 C   0  0  0  0  0  0  0  0  0  0  0  0
   -7.9266   -1.2064    0.5034 C   0  0  0  0  0  0  0  0  0  0  0  0
   -6.5761   -0.9806    0.7752 C   0  0  0  0  0  0  0  0  0  0  0  0
   -2.2398    0.6836    0.4813 C   0  0  0  0  0  0  0  0  0  0  0  0
   -1.0408    0.6472   -0.1221 C   0  0  0  0  0  0  0  0  0  0  0  0
   -0.6182    0.2440   -1.7434 S   0  0  0  0  0  0  0  0  0  0  0  0
    1.1051    0.4841   -1.4819 C   0  0  0  0  0  0  0  0  0  0  0  0
    2.2537    0.2913   -2.6727 S   0  0  0  0  0  0  0  0  0  0  0  0
    1.2949    0.8730   -0.1759 N   0  0  0  0  0  0  0  0  0  0  0  0
    2.6747    1.0681    0.4332 N   0  0  0  0  0  0  0  0  0  0  0  0
    3.2536   -0.3384    1.2212 S   0  0  0  0  0  6  0  0  0  0  0  0
    2.4716   -1.4686    0.7650 O   0  0  0  0  0  0  0  0  0  0  0  0
    3.3660   -0.0045    2.6238 O   0  0  0  0  0  0  0  0  0  0  0  0
    4.8901   -0.4645    0.5535 C   0  0  0  0  0  0  0  0  0  0  0  0
    5.9276    0.2682    1.1365 C   0  0  0  0  0  0  0  0  0  0  0  0
    7.2221    0.1535    0.6267 C   0  0  0  0  0  0  0  0  0  0  0  0
    7.4845   -0.6885   -0.4626 C   0  0  0  0  0  0  0  0  0  0  0  0
    8.8828   -0.8348   -0.9881 C   0  0  0  0  0  0  0  0  0  0  0  0
    6.4396   -1.4405   -1.0166 C   0  0  0  0  0  0  0  0  0  0  0  0
    5.1431   -1.3325   -0.5105 C   0  0  0  0  0  0  0  0  0  0  0  0
    0.1912    0.9978    0.6466 C   0  0  0  0  0  0  0  0  0  0  0  0
    0.2171    1.3690    1.8125 O   0  0  0  0  0  0  0  0  0  0  0  0
   -3.4956    0.7604   -2.1143 H   0  0  0  0  0  0  0  0  0  0  0  0
   -3.3108   -0.9568   -1.6383 H   0  0  0  0  0  0  0  0  0  0  0  0
   -4.8856   -0.1964   -1.6576 H   0  0  0  0  0  0  0  0  0  0  0  0
   -4.4296    0.8393    1.9215 H   0  0  0  0  0  0  0  0  0  0  0  0
   -6.4339    2.3433    0.0367 H   0  0  0  0  0  0  0  0  0  0  0  0
   -8.8267    1.9349   -0.4405 H   0  0  0  0  0  0  0  0  0  0  0  0
   -9.7871   -0.3345   -0.1447 H   0  0  0  0  0  0  0  0  0  0  0  0
   -8.3469   -2.2007    0.6316 H   0  0  0  0  0  0  0  0  0  0  0  0
   -5.9529   -1.8053    1.1130 H   0  0  0  0  0  0  0  0  0  0  0  0
   -2.2160    0.9759    1.5362 H   0  0  0  0  0  0  0  0  0  0  0  0
    2.6528    1.8075    1.1475 H   0  0  0  0  0  0  0  0  0  0  0  0
    5.7424    0.9204    1.9869 H   0  0  0  0  0  0  0  0  0  0  0  0
    8.0283    0.7221    1.0863 H   0  0  0  0  0  0  0  0  0  0  0  0
    9.3978   -1.6435   -0.4604 H   0  0  0  0  0  0  0  0  0  0  0  0
    8.8754   -1.0586   -2.0602 H   0  0  0  0  0  0  0  0  0  0  0  0
    9.4493    0.0929   -0.8543 H   0  0  0  0  0  0  0  0  0  0  0  0
    6.6307   -2.1175   -1.8471 H   0  0  0  0  0  0  0  0  0  0  0  0
    4.3455   -1.9260   -0.9517 H   0  0  0  0  0  0  0  0  0  0  0  0
  1  2  1  0
  2  3  2  3
  3  4  1  0
  4  5  2  0
  5  6  1  0
  6  7  2  0
  7  8  1  0
  8  9  2  0
  2 10  1  0
 10 11  2  3
 11 12  1  0
 12 13  1  0
 13 14  2  0
 13 15  1  0
 15 16  1  0
 16 17  1  0
 17 18  2  0
 17 19  2  0
 17 20  1  0
 20 21  2  0
 21 22  1  0
 22 23  2  0
 23 24  1  0
 23 25  1  0
 25 26  2  0
 15 27  1  0
 27 28  2  0
  9  4  1  0
 27 11  1  0
 26 20  1  0
  1 29  1  0
  1 30  1  0
  1 31  1  0
  3 32  1  0
  5 33  1  0
  6 34  1  0
  7 35  1  0
  8 36  1  0
  9 37  1  0
 10 38  1  0
 16 39  1  0
 21 40  1  0
 22 41  1  0
 24 42  1  0
 24 43  1  0
 24 44  1  0
 25 45  1  0
 26 46  1  0
M  END
$$$$
