
     RDKit          3D

 57 61  0  0  0  0  0  0  0  0999 V2000
   -8.2789    0.2412    3.2737 C   0  0  0  0  0  0  0  0  0  0  0  0
   -7.1425    0.1806    2.2972 C   0  0  0  0  0  0  0  0  0  0  0  0
   -7.3827    0.0136    0.9320 C   0  0  0  0  0  0  0  0  0  0  0  0
   -6.3189   -0.0098    0.0229 C   0  0  0  0  0  0  0  0  0  0  0  0
   -4.9843    0.1367    0.4428 C   0  0  0  0  0  0  0  0  0  0  0  0
   -3.8778    0.1019   -0.5379 C   0  0  0  0  0  0  0  0  0  0  0  0
   -2.6062   -0.3497   -0.2283 C   0  0  0  0  0  0  0  0  0  0  0  0
   -1.6336   -0.3409   -1.2308 C   0  0  0  0  0  0  0  0  0  0  0  0
   -0.2794   -0.8209   -0.8700 C   0  0  0  0  0  0  0  0  0  0  0  0
    0.1674   -1.8020   -1.4478 O   0  0  0  0  0  0  0  0  0  0  0  0
    0.3302   -0.0592    0.1095 N   0  0  0  0  0  0  0  0  0  0  0  0
    1.5977   -0.2719    0.6897 C   0  0  0  0  0  0  0  0  0  0  0  0
    2.0500    0.6889    1.6059 C   0  0  0  0  0  0  0  0  0  0  0  0
    3.2970    0.5558    2.2235 C   0  0  0  0  0  0  0  0  0  0  0  0
    4.1003   -0.5453    1.9209 C   0  0  0  0  0  0  0  0  0  0  0  0
    5.6693   -0.7290    2.7332 S   0  0  0  0  0  6  0  0  0  0  0  0
    6.1969   -2.0508    2.4714 O   0  0  0  0  0  0  0  0  0  0  0  0
    5.4722   -0.2848    4.1002 O   0  0  0  0  0  0  0  0  0  0  0  0
    6.6262    0.4248    2.0177 N   0  0  0  0  0  0  0  0  0  0  0  0
    7.2081    0.1014    0.7980 C   0  0  0  0  0  0  0  0  0  0  0  0
    6.4531   -0.4363   -0.1603 N   0  0  0  0  0  0  0  0  0  0  0  0
    7.0485   -0.5780   -1.3587 C   0  0  0  0  0  0  0  0  0  0  0  0
    8.3323   -0.1603   -1.6197 C   0  0  0  0  0  0  0  0  0  0  0  0
    8.9895    0.4313   -0.5656 C   0  0  0  0  0  0  0  0  0  0  0  0
    8.4420    0.5955    0.6531 N   0  0  0  0  0  0  0  0  0  0  0  0
    3.6533   -1.5211    1.0293 C   0  0  0  0  0  0  0  0  0  0  0  0
    2.4060   -1.3777    0.4113 C   0  0  0  0  0  0  0  0  0  0  0  0
   -1.9302    0.0965   -2.5368 C   0  0  0  0  0  0  0  0  0  0  0  0
   -1.0062    0.1336   -3.6115 C   0  0  0  0  0  0  0  0  0  0  0  0
   -1.3878    0.5906   -4.8711 C   0  0  0  0  0  0  0  0  0  0  0  0
   -2.6918    1.0172   -5.0748 C   0  0  0  0  0  0  0  0  0  0  0  0
   -3.6033    0.9836   -4.0169 C   0  0  0  0  0  0  0  0  0  0  0  0
   -3.2482    0.5323   -2.7525 C   0  0  0  0  0  0  0  0  0  0  0  0
   -4.1826    0.5376   -1.7857 N   0  0  0  0  0  0  0  0  0  0  0  0
   -4.7645    0.3254    1.8191 C   0  0  0  0  0  0  0  0  0  0  0  0
   -5.8262    0.3501    2.7325 C   0  0  0  0  0  0  0  0  0  0  0  0
   -9.1611   -0.2785    2.8853 H   0  0  0  0  0  0  0  0  0  0  0  0
   -8.5454    1.2837    3.4733 H   0  0  0  0  0  0  0  0  0  0  0  0
   -8.0048   -0.2435    4.2166 H   0  0  0  0  0  0  0  0  0  0  0  0
   -8.3986   -0.1000    0.5594 H   0  0  0  0  0  0  0  0  0  0  0  0
   -6.5405   -0.1466   -1.0350 H   0  0  0  0  0  0  0  0  0  0  0  0
   -2.3711   -0.7380    0.7572 H   0  0  0  0  0  0  0  0  0  0  0  0
   -0.1580    0.7764    0.4090 H   0  0  0  0  0  0  0  0  0  0  0  0
    1.4409    1.5552    1.8515 H   0  0  0  0  0  0  0  0  0  0  0  0
    3.6330    1.3070    2.9345 H   0  0  0  0  0  0  0  0  0  0  0  0
    7.2729    0.8679    2.6589 H   0  0  0  0  0  0  0  0  0  0  0  0
    6.4400   -1.0456   -2.1280 H   0  0  0  0  0  0  0  0  0  0  0  0
    8.7910   -0.2808   -2.5912 H   0  0  0  0  0  0  0  0  0  0  0  0
   10.0033    0.8065   -0.6751 H   0  0  0  0  0  0  0  0  0  0  0  0
    4.2688   -2.3882    0.7999 H   0  0  0  0  0  0  0  0  0  0  0  0
    2.0925   -2.1544   -0.2797 H   0  0  0  0  0  0  0  0  0  0  0  0
    0.0191   -0.2067   -3.4745 H   0  0  0  0  0  0  0  0  0  0  0  0
   -0.6702    0.6069   -5.6872 H   0  0  0  0  0  0  0  0  0  0  0  0
   -3.0066    1.3736   -6.0522 H   0  0  0  0  0  0  0  0  0  0  0  0
   -4.6243    1.3195   -4.1849 H   0  0  0  0  0  0  0  0  0  0  0  0
   -3.7602    0.4773    2.2067 H   0  0  0  0  0  0  0  0  0  0  0  0
   -5.6154    0.5073    3.7880 H   0  0  0  0  0  0  0  0  0  0  0  0
  1  2  1  0
  2  3  2  0
  3  4  1  0
  4  5  2  0
  5  6  1  0
  6  7  2  0
  7  8  1  0
  8  9  1  0
  9 10  2  0
  9 11  1  0
 11 12  1  0
 12 13  2  0
 13 14  1  0
 14 15  2  0
 15 16  1  0
 16 17  2  0
 16 18  2  0
 16 19  1  0
 19 20  1  0
 20 21  2  0
 21 22  1  0
 22 23  2  0
 23 24  1  0
 24 25  2  0
 15 26  1  0
 26 27  2  0
  8 28  2  0
 28 29  1  0
 29 30  2  0
 30 31  1  0
 31 32  2  0
 32 33  1  0
 33 34  2  0
  5 35  1  0
 35 36  2  0
 36  2  1  0
 34  6  1  0
 27 12  1  0
 33 28  1  0
 25 20  1  0
  1 37  1  0
  1 38  1  0
  1 39  1  0
  3 40  1  0
  4 41  1  0
  7 42  1  0
 11 43  1  0
 13 44  1  0
 14 45  1  0
 19 46  1  0
 22 47  1  0
 23 48  1  0
 24 49  1  0
 26 50  1  0
 27 51  1  0
 29 52  1  0
 30 53  1  0
 31 54  1  0
 32 55  1  0
 35 56  1  0
 36 57  1  0
M  END
$$$$
