
     RDKit          3D

 49 52  0  0  0  0  0  0  0  0999 V2000
    0.8084   -1.2296    2.6739 C   0  0  0  0  0  0  0  0  0  0  0  0
    0.6497   -0.2274    1.5325 C   0  0  0  0  0  0  0  0  0  0  0  0
    1.9005   -0.0557    0.8175 N   0  0  0  0  0  0  0  0  0  0  0  0
    2.9137    0.7232    1.2939 C   0  0  0  0  0  0  0  0  0  0  0  0
    2.8655    1.3348    2.3551 O   0  0  0  0  0  0  0  0  0  0  0  0
    4.0987    0.8504    0.4149 C   0  0  0  0  0  0  0  0  0  0  0  0
    4.5172   -0.1143   -0.4172 C   0  0  0  0  0  0  0  0  0  0  0  0
    5.6844    0.0647   -1.2093 C   0  0  0  0  0  0  0  0  0  0  0  0
    6.2681   -0.8261   -2.1038 C   0  0  0  0  0  0  0  0  0  0  0  0
    7.4134   -0.2050   -2.6561 C   0  0  0  0  0  0  0  0  0  0  0  0
    7.4801    1.0356   -2.0774 C   0  0  0  0  0  0  0  0  0  0  0  0
    6.4529    1.2092   -1.2119 O   0  0  0  0  0  0  0  0  0  0  0  0
   -0.3595   -0.7226    0.5277 C   0  0  0  0  0  0  0  0  0  0  0  0
   -0.0437   -1.3649   -0.5853 N   0  0  0  0  0  0  0  0  0  0  0  0
   -1.2315   -1.6925   -1.1793 C   0  0  0  0  0  0  0  0  0  0  0  0
   -1.4568   -2.4034   -2.3677 C   0  0  0  0  0  0  0  0  0  0  0  0
   -2.7732   -2.6497   -2.7695 C   0  0  0  0  0  0  0  0  0  0  0  0
   -3.8440   -2.1996   -1.9992 C   0  0  0  0  0  0  0  0  0  0  0  0
   -3.6366   -1.4853   -0.8127 C   0  0  0  0  0  0  0  0  0  0  0  0
   -2.3117   -1.2354   -0.4293 C   0  0  0  0  0  0  0  0  0  0  0  0
   -1.7321   -0.5677    0.6327 N   0  0  0  0  0  0  0  0  0  0  0  0
   -2.4427    0.0886    1.7307 C   0  0  0  0  0  0  0  0  0  0  0  0
   -3.4270    1.1545    1.2953 C   0  0  0  0  0  0  0  0  0  0  0  0
   -4.7977    1.0593    1.6149 C   0  0  0  0  0  0  0  0  0  0  0  0
   -5.4496   -0.2569    2.5322 Cl  0  0  0  0  0  0  0  0  0  0  0  0
   -5.7121    2.0404    1.2096 C   0  0  0  0  0  0  0  0  0  0  0  0
   -5.2813    3.1491    0.4912 C   0  0  0  0  0  0  0  0  0  0  0  0
   -3.9309    3.2845    0.1919 C   0  0  0  0  0  0  0  0  0  0  0  0
   -3.0124    2.3068    0.5962 C   0  0  0  0  0  0  0  0  0  0  0  0
   -1.3536    2.6225    0.2272 Cl  0  0  0  0  0  0  0  0  0  0  0  0
   -0.1378   -1.3799    3.2048 H   0  0  0  0  0  0  0  0  0  0  0  0
    1.5501   -0.8847    3.4020 H   0  0  0  0  0  0  0  0  0  0  0  0
    1.1416   -2.2065    2.3040 H   0  0  0  0  0  0  0  0  0  0  0  0
    0.3641    0.7493    1.9343 H   0  0  0  0  0  0  0  0  0  0  0  0
    1.9195   -0.4375   -0.1218 H   0  0  0  0  0  0  0  0  0  0  0  0
    4.6506    1.7761    0.5461 H   0  0  0  0  0  0  0  0  0  0  0  0
    3.9929   -1.0608   -0.4980 H   0  0  0  0  0  0  0  0  0  0  0  0
    5.8998   -1.8180   -2.3282 H   0  0  0  0  0  0  0  0  0  0  0  0
    8.1017   -0.6114   -3.3833 H   0  0  0  0  0  0  0  0  0  0  0  0
    8.1601    1.8709   -2.1685 H   0  0  0  0  0  0  0  0  0  0  0  0
   -0.6169   -2.7585   -2.9542 H   0  0  0  0  0  0  0  0  0  0  0  0
   -2.9596   -3.2019   -3.6872 H   0  0  0  0  0  0  0  0  0  0  0  0
   -4.8615   -2.4071   -2.3250 H   0  0  0  0  0  0  0  0  0  0  0  0
   -4.4846   -1.1503   -0.2290 H   0  0  0  0  0  0  0  0  0  0  0  0
   -1.7213    0.5441    2.4144 H   0  0  0  0  0  0  0  0  0  0  0  0
   -2.9041   -0.7306    2.2891 H   0  0  0  0  0  0  0  0  0  0  0  0
   -6.7675    1.9455    1.4578 H   0  0  0  0  0  0  0  0  0  0  0  0
   -5.9912    3.9105    0.1775 H   0  0  0  0  0  0  0  0  0  0  0  0
   -3.5921    4.1635   -0.3534 H   0  0  0  0  0  0  0  0  0  0  0  0
  1  2  1  0
  2  3  1  0
  3  4  1  0
  4  5  2  0
  4  6  1  0
  6  7  2  3
  7  8  1  0
  8  9  2  0
  9 10  1  0
 10 11  2  0
 11 12  1  0
  2 13  1  0
 13 14  2  0
 14 15  1  0
 15 16  2  0
 16 17  1  0
 17 18  2  0
 18 19  1  0
 19 20  2  0
 20 21  1  0
 21 22  1  0
 22 23  1  0
 23 24  2  0
 24 25  1  0
 24 26  1  0
 26 27  2  0
 27 28  1  0
 28 29  2  0
 29 30  1  0
 12  8  1  0
 21 13  1  0
 29 23  1  0
 20 15  1  0
  1 31  1  0
  1 32  1  0
  1 33  1  0
  2 34  1  0
  3 35  1  0
  6 36  1  0
  7 37  1  0
  9 38  1  0
 10 39  1  0
 11 40  1  0
 16 41  1  0
 17 42  1  0
 18 43  1  0
 19 44  1  0
 22 45  1  0
 22 46  1  0
 26 47  1  0
 27 48  1  0
 28 49  1  0
M  END
$$$$
