
     RDKit          3D

 52 55  0  0  0  0  0  0  0  0999 V2000
    6.3411   -1.2639   -1.8720 C   0  0  0  0  0  0  0  0  0  0  0  0
    5.1810   -0.7470   -1.2357 O   0  0  0  0  0  0  0  0  0  0  0  0
    5.3121   -0.2292    0.0303 C   0  0  0  0  0  0  0  0  0  0  0  0
    6.5188   -0.2748    0.7499 C   0  0  0  0  0  0  0  0  0  0  0  0
    6.5992    0.2196    2.0525 C   0  0  0  0  0  0  0  0  0  0  0  0
    5.4752    0.7644    2.6546 C   0  0  0  0  0  0  0  0  0  0  0  0
    4.2728    0.8156    1.9500 C   0  0  0  0  0  0  0  0  0  0  0  0
    4.1554    0.3297    0.6302 C   0  0  0  0  0  0  0  0  0  0  0  0
    2.8915    0.4503    0.0233 N   0  0  0  0  0  0  0  0  0  0  0  0
    2.7897    0.5587   -1.4356 C   0  0  0  0  0  0  0  0  0  0  0  0
    1.4047    1.1488   -1.8168 C   0  0  0  0  0  0  0  0  0  0  0  0
    0.2234    0.6653   -1.0419 N   0  0  0  0  0  0  0  0  0  0  0  0
   -0.2349    1.7402   -0.1150 C   0  0  0  0  0  0  0  0  0  0  0  0
   -1.6187    1.4178    0.4726 C   0  0  0  0  0  0  0  0  0  0  0  0
   -1.9439    1.8076    1.5898 O   0  0  0  0  0  0  0  0  0  0  0  0
   -2.4087    0.7142   -0.4207 N   0  0  0  0  0  0  0  0  0  0  0  0
   -3.7334    0.2791   -0.2633 C   0  0  0  0  0  0  0  0  0  0  0  0
   -4.5192    0.5699    0.8524 C   0  0  0  0  0  0  0  0  0  0  0  0
   -5.8378    0.1028    0.9423 C   0  0  0  0  0  0  0  0  0  0  0  0
   -6.3832   -0.6641   -0.0938 C   0  0  0  0  0  0  0  0  0  0  0  0
   -7.7116   -1.1466   -0.0241 N   0  0  0  0  0  0  0  0  0  0  0  0
   -8.6507   -0.9855    0.9636 C   0  0  0  0  0  0  0  0  0  0  0  0
   -9.7570   -1.6040    0.6191 N   0  0  0  0  0  0  0  0  0  0  0  0
   -9.5041   -2.1613   -0.6058 N   0  0  0  0  0  0  0  0  0  0  0  0
   -8.2697   -1.8920   -1.0066 N   0  0  0  0  0  0  0  0  0  0  0  0
   -5.5984   -0.9564   -1.2171 C   0  0  0  0  0  0  0  0  0  0  0  0
   -4.2836   -0.4851   -1.2973 C   0  0  0  0  0  0  0  0  0  0  0  0
    0.6128   -0.5517   -0.2772 C   0  0  0  0  0  0  0  0  0  0  0  0
    1.8634   -0.4183    0.6348 C   0  0  0  0  0  0  0  0  0  0  0  0
    6.7260   -2.1397   -1.3395 H   0  0  0  0  0  0  0  0  0  0  0  0
    7.1108   -0.4929   -1.9818 H   0  0  0  0  0  0  0  0  0  0  0  0
    6.0530   -1.5886   -2.8766 H   0  0  0  0  0  0  0  0  0  0  0  0
    7.4216   -0.7003    0.3252 H   0  0  0  0  0  0  0  0  0  0  0  0
    7.5405    0.1766    2.5941 H   0  0  0  0  0  0  0  0  0  0  0  0
    5.5290    1.1569    3.6663 H   0  0  0  0  0  0  0  0  0  0  0  0
    3.4091    1.2708    2.4301 H   0  0  0  0  0  0  0  0  0  0  0  0
    3.5645    1.2206   -1.8409 H   0  0  0  0  0  0  0  0  0  0  0  0
    2.8893   -0.4276   -1.9053 H   0  0  0  0  0  0  0  0  0  0  0  0
    1.4729    2.2439   -1.7775 H   0  0  0  0  0  0  0  0  0  0  0  0
    1.2214    0.9112   -2.8721 H   0  0  0  0  0  0  0  0  0  0  0  0
   -0.3706    2.6788   -0.6674 H   0  0  0  0  0  0  0  0  0  0  0  0
    0.4730    1.9229    0.6999 H   0  0  0  0  0  0  0  0  0  0  0  0
   -1.9080    0.4340   -1.2621 H   0  0  0  0  0  0  0  0  0  0  0  0
   -4.1337    1.1652    1.6753 H   0  0  0  0  0  0  0  0  0  0  0  0
   -6.3982    0.3624    1.8359 H   0  0  0  0  0  0  0  0  0  0  0  0
   -8.4916   -0.4340    1.8758 H   0  0  0  0  0  0  0  0  0  0  0  0
   -5.9890   -1.5489   -2.0432 H   0  0  0  0  0  0  0  0  0  0  0  0
   -3.6974   -0.7263   -2.1812 H   0  0  0  0  0  0  0  0  0  0  0  0
    0.8039   -1.3460   -1.0121 H   0  0  0  0  0  0  0  0  0  0  0  0
   -0.2278   -0.9253    0.3194 H   0  0  0  0  0  0  0  0  0  0  0  0
    1.5539    0.0062    1.5971 H   0  0  0  0  0  0  0  0  0  0  0  0
    2.2616   -1.4239    0.8225 H   0  0  0  0  0  0  0  0  0  0  0  0
  1  2  1  0
  2  3  1  0
  3  4  2  0
  4  5  1  0
  5  6  2  0
  6  7  1  0
  7  8  2  0
  8  9  1  0
  9 10  1  0
 10 11  1  0
 11 12  1  0
 12 13  1  0
 13 14  1  0
 14 15  2  0
 14 16  1  0
 16 17  1  0
 17 18  2  0
 18 19  1  0
 19 20  2  0
 20 21  1  0
 21 22  1  0
 22 23  2  0
 23 24  1  0
 24 25  2  0
 20 26  1  0
 26 27  2  0
 12 28  1  0
 28 29  1  0
  8  3  1  0
 29  9  1  0
 27 17  1  0
 25 21  1  0
  1 30  1  0
  1 31  1  0
  1 32  1  0
  4 33  1  0
  5 34  1  0
  6 35  1  0
  7 36  1  0
 10 37  1  0
 10 38  1  0
 11 39  1  0
 11 40  1  0
 13 41  1  0
 13 42  1  0
 16 43  1  0
 18 44  1  0
 19 45  1  0
 22 46  1  0
 26 47  1  0
 27 48  1  0
 28 49  1  0
 28 50  1  0
 29 51  1  0
 29 52  1  0
M  END
$$$$
