
     RDKit          3D

 42 45  0  0  0  0  0  0  0  0999 V2000
   -1.0600   -0.9333    0.8301 O   0  0  0  0  0  0  0  0  0  0  0  0
   -1.5021    0.0914    1.3273 C   0  0  0  0  0  0  0  0  0  0  0  0
   -0.6743    1.2496    1.7727 C   0  0  0  0  0  0  0  0  0  0  0  0
    0.6553    1.4182    1.7679 C   0  0  0  0  0  0  0  0  0  0  0  0
    1.6360    0.4742    1.3638 C   0  0  0  0  0  0  0  0  0  0  0  0
    1.7461   -0.8962    1.5577 C   0  0  0  0  0  0  0  0  0  0  0  0
    2.9616   -1.3282    0.9737 C   0  0  0  0  0  0  0  0  0  0  0  0
    3.5715   -0.2037    0.4684 C   0  0  0  0  0  0  0  0  0  0  0  0
    4.8165    0.0725   -0.2439 C   0  0  0  0  0  0  0  0  0  0  0  0
    4.7983    1.0248   -1.2817 C   0  0  0  0  0  0  0  0  0  0  0  0
    5.9487    1.3242   -2.0161 C   0  0  0  0  0  0  0  0  0  0  0  0
    7.1447    0.6778   -1.7254 C   0  0  0  0  0  0  0  0  0  0  0  0
    7.1892   -0.2633   -0.6981 C   0  0  0  0  0  0  0  0  0  0  0  0
    6.0364   -0.5660    0.0411 C   0  0  0  0  0  0  0  0  0  0  0  0
    6.2231   -1.7154    1.3227 Cl  0  0  0  0  0  0  0  0  0  0  0  0
    2.7784    0.8803    0.7078 O   0  0  0  0  0  0  0  0  0  0  0  0
   -1.7243    2.5146    2.3206 S   0  0  0  0  0  0  0  0  0  0  0  0
   -3.1822    1.5735    2.0551 C   0  0  0  0  0  0  0  0  0  0  0  0
   -4.6923    2.1771    2.4234 S   0  0  0  0  0  0  0  0  0  0  0  0
   -2.8517    0.3452    1.5275 N   0  0  0  0  0  0  0  0  0  0  0  0
   -3.8141   -0.6986    1.1598 C   0  0  0  0  0  0  0  0  0  0  0  0
   -3.9955   -0.8671   -0.3541 C   0  0  0  0  0  0  0  0  0  0  0  0
   -4.5297    0.3595   -1.0751 C   0  0  0  0  0  0  0  0  0  0  0  0
   -5.1266   -0.2607   -2.3141 C   0  0  0  0  0  0  0  0  0  0  0  0
   -5.7299   -1.5376   -1.7674 C   0  0  0  0  0  0  0  0  0  0  0  0
   -4.9548   -1.9116   -0.6173 O   0  0  0  0  0  0  0  0  0  0  0  0
    1.0635    2.3801    2.0719 H   0  0  0  0  0  0  0  0  0  0  0  0
    1.0275   -1.5252    2.0651 H   0  0  0  0  0  0  0  0  0  0  0  0
    3.3378   -2.3406    0.9317 H   0  0  0  0  0  0  0  0  0  0  0  0
    3.8708    1.5392   -1.5303 H   0  0  0  0  0  0  0  0  0  0  0  0
    5.9060    2.0618   -2.8139 H   0  0  0  0  0  0  0  0  0  0  0  0
    8.0427    0.9083   -2.2932 H   0  0  0  0  0  0  0  0  0  0  0  0
    8.1310   -0.7572   -0.4704 H   0  0  0  0  0  0  0  0  0  0  0  0
   -4.7853   -0.5259    1.6341 H   0  0  0  0  0  0  0  0  0  0  0  0
   -3.4547   -1.6496    1.5746 H   0  0  0  0  0  0  0  0  0  0  0  0
   -3.0529   -1.1824   -0.8177 H   0  0  0  0  0  0  0  0  0  0  0  0
   -5.3253    0.8421   -0.4967 H   0  0  0  0  0  0  0  0  0  0  0  0
   -3.7558    1.1007   -1.2920 H   0  0  0  0  0  0  0  0  0  0  0  0
   -5.8596    0.3761   -2.8163 H   0  0  0  0  0  0  0  0  0  0  0  0
   -4.3323   -0.4989   -3.0315 H   0  0  0  0  0  0  0  0  0  0  0  0
   -5.7209   -2.3514   -2.4980 H   0  0  0  0  0  0  0  0  0  0  0  0
   -6.7608   -1.3784   -1.4344 H   0  0  0  0  0  0  0  0  0  0  0  0
  1  2  2  0
  2  3  1  0
  3  4  2  3
  4  5  1  0
  5  6  2  0
  6  7  1  0
  7  8  2  0
  8  9  1  0
  9 10  2  0
 10 11  1  0
 11 12  2  0
 12 13  1  0
 13 14  2  0
 14 15  1  0
  8 16  1  0
  3 17  1  0
 17 18  1  0
 18 19  2  0
 18 20  1  0
 20 21  1  0
 21 22  1  0
 22 23  1  0
 23 24  1  0
 24 25  1  0
 25 26  1  0
 20  2  1  0
 26 22  1  0
 16  5  1  0
 14  9  1  0
  4 27  1  0
  6 28  1  0
  7 29  1  0
 10 30  1  0
 11 31  1  0
 12 32  1  0
 13 33  1  0
 21 34  1  0
 21 35  1  0
 22 36  1  0
 23 37  1  0
 23 38  1  0
 24 39  1  0
 24 40  1  0
 25 41  1  0
 25 42  1  0
M  END
$$$$
