
     RDKit          3D

 60 64  0  0  0  0  0  0  0  0999 V2000
   -1.9863    4.2695    2.2191 C   0  0  0  0  0  0  0  0  0  0  0  0
   -2.3118    3.0513    3.0651 C   0  0  0  0  0  0  0  0  0  0  0  0
   -1.9574    1.8092    2.3993 N   0  0  0  0  0  0  0  0  0  0  0  0
   -0.7195    1.1774    2.4329 C   0  0  0  0  0  0  0  0  0  0  0  0
    0.3423    1.6364    3.0858 O   0  0  0  0  0  0  0  0  0  0  0  0
   -0.8505    0.0402    1.6760 C   0  0  0  0  0  0  0  0  0  0  0  0
   -2.1721   -0.0571    1.2436 C   0  0  0  0  0  0  0  0  0  0  0  0
   -2.8392    1.0753    1.6236 C   0  0  0  0  0  0  0  0  0  0  0  0
   -4.0631    1.5090    1.3507 O   0  0  0  0  0  0  0  0  0  0  0  0
   -2.4179   -1.3046    0.4762 C   0  0  0  0  0  0  0  0  0  0  0  0
   -2.9939   -0.9240   -0.9127 C   0  0  0  0  0  0  0  0  0  0  0  0
   -3.9717   -0.1866   -1.0546 O   0  0  0  0  0  0  0  0  0  0  0  0
   -2.3504   -1.5349   -1.9476 O   0  0  0  0  0  0  0  0  0  0  0  0
   -2.8591   -1.2054   -3.2385 C   0  0  0  0  0  0  0  0  0  0  0  0
   -3.4217   -2.2315    1.1834 C   0  0  0  0  0  0  0  0  0  0  0  0
   -3.4741   -3.6211    0.5466 C   0  0  0  0  0  0  0  0  0  0  0  0
   -2.1011   -4.1200    0.0982 C   0  0  0  0  0  0  0  0  0  0  0  0
   -0.9634   -3.3311    0.7397 C   0  0  0  0  0  0  0  0  0  0  0  0
   -1.0259   -1.9096    0.3971 N   0  0  0  0  0  0  0  0  0  0  0  0
   -0.0491   -1.1159    1.2259 C   0  0  0  0  0  0  0  0  0  0  0  0
    1.1219   -0.5708    0.4309 C   0  0  0  0  0  0  0  0  0  0  0  0
    1.0495   -0.3000   -0.9432 C   0  0  0  0  0  0  0  0  0  0  0  0
    2.1523    0.2106   -1.6382 C   0  0  0  0  0  0  0  0  0  0  0  0
    3.3654    0.4726   -0.9852 C   0  0  0  0  0  0  0  0  0  0  0  0
    4.5221    1.0157   -1.7177 C   0  0  0  0  0  0  0  0  0  0  0  0
    5.2001    2.1584   -1.2566 C   0  0  0  0  0  0  0  0  0  0  0  0
    6.2954    2.6805   -1.9509 C   0  0  0  0  0  0  0  0  0  0  0  0
    6.7327    2.0668   -3.1222 C   0  0  0  0  0  0  0  0  0  0  0  0
    6.0732    0.9338   -3.5914 C   0  0  0  0  0  0  0  0  0  0  0  0
    6.6125    0.1721   -5.0381 Cl  0  0  0  0  0  0  0  0  0  0  0  0
    4.9797    0.4100   -2.9000 C   0  0  0  0  0  0  0  0  0  0  0  0
    3.4366    0.2056    0.3895 C   0  0  0  0  0  0  0  0  0  0  0  0
    2.3350   -0.3054    1.0854 C   0  0  0  0  0  0  0  0  0  0  0  0
   -2.2603    5.1854    2.7514 H   0  0  0  0  0  0  0  0  0  0  0  0
   -0.9173    4.3168    1.9861 H   0  0  0  0  0  0  0  0  0  0  0  0
   -2.5334    4.2492    1.2708 H   0  0  0  0  0  0  0  0  0  0  0  0
   -1.7782    3.0861    4.0210 H   0  0  0  0  0  0  0  0  0  0  0  0
   -3.3816    3.0211    3.3007 H   0  0  0  0  0  0  0  0  0  0  0  0
    0.1835    2.5488    3.3737 H   0  0  0  0  0  0  0  0  0  0  0  0
   -4.3914    0.9810    0.5910 H   0  0  0  0  0  0  0  0  0  0  0  0
   -3.9018   -1.5248   -3.3329 H   0  0  0  0  0  0  0  0  0  0  0  0
   -2.2646   -1.7408   -3.9840 H   0  0  0  0  0  0  0  0  0  0  0  0
   -2.7630   -0.1314   -3.4252 H   0  0  0  0  0  0  0  0  0  0  0  0
   -4.4303   -1.7985    1.1813 H   0  0  0  0  0  0  0  0  0  0  0  0
   -3.1495   -2.3404    2.2426 H   0  0  0  0  0  0  0  0  0  0  0  0
   -4.1525   -3.6157   -0.3154 H   0  0  0  0  0  0  0  0  0  0  0  0
   -3.9070   -4.3239    1.2688 H   0  0  0  0  0  0  0  0  0  0  0  0
   -2.0013   -5.1838    0.3432 H   0  0  0  0  0  0  0  0  0  0  0  0
   -2.0241   -4.0539   -0.9940 H   0  0  0  0  0  0  0  0  0  0  0  0
   -0.0076   -3.7418    0.3938 H   0  0  0  0  0  0  0  0  0  0  0  0
   -1.0037   -3.4826    1.8266 H   0  0  0  0  0  0  0  0  0  0  0  0
    0.3004   -1.6870    2.0955 H   0  0  0  0  0  0  0  0  0  0  0  0
    0.1282   -0.4820   -1.4892 H   0  0  0  0  0  0  0  0  0  0  0  0
    2.0461    0.4163   -2.7011 H   0  0  0  0  0  0  0  0  0  0  0  0
    4.8651    2.6610   -0.3504 H   0  0  0  0  0  0  0  0  0  0  0  0
    6.8017    3.5672   -1.5782 H   0  0  0  0  0  0  0  0  0  0  0  0
    7.5829    2.4740   -3.6621 H   0  0  0  0  0  0  0  0  0  0  0  0
    4.4863   -0.4827   -3.2782 H   0  0  0  0  0  0  0  0  0  0  0  0
    4.3585    0.3888    0.9365 H   0  0  0  0  0  0  0  0  0  0  0  0
    2.4246   -0.4826    2.1555 H   0  0  0  0  0  0  0  0  0  0  0  0
  1  2  1  0
  2  3  1  0
  3  4  1  0
  4  5  1  0
  4  6  2  0
  6  7  1  0
  7  8  2  0
  8  9  1  0
  7 10  1  0
 10 11  1  0
 11 12  2  0
 11 13  1  0
 13 14  1  0
 10 15  1  0
 15 16  1  0
 16 17  1  0
 17 18  1  0
 18 19  1  0
 19 20  1  0
 20 21  1  0
 21 22  2  0
 22 23  1  0
 23 24  2  0
 24 25  1  0
 25 26  2  0
 26 27  1  0
 27 28  2  0
 28 29  1  0
 29 30  1  0
 29 31  2  0
 24 32  1  0
 32 33  2  0
  8  3  1  0
 19 10  1  0
 33 21  1  0
 20  6  1  0
 31 25  1  0
  1 34  1  0
  1 35  1  0
  1 36  1  0
  2 37  1  0
  2 38  1  0
  5 39  1  0
  9 40  1  0
 14 41  1  0
 14 42  1  0
 14 43  1  0
 15 44  1  0
 15 45  1  0
 16 46  1  0
 16 47  1  0
 17 48  1  0
 17 49  1  0
 18 50  1  0
 18 51  1  0
 20 52  1  0
 22 53  1  0
 23 54  1  0
 26 55  1  0
 27 56  1  0
 28 57  1  0
 31 58  1  0
 32 59  1  0
 33 60  1  0
M  END
$$$$
