
     RDKit          3D

 41 43  0  0  0  0  0  0  0  0999 V2000
   -2.4968    1.2807   -0.3311 O   0  0  0  0  0  0  0  0  0  0  0  0
   -3.2471    0.4503    0.1652 C   0  0  0  0  0  0  0  0  0  0  0  0
   -2.8853   -0.6790    0.8771 N   0  0  0  0  0  0  0  0  0  0  0  0
   -1.5830   -1.1847    1.0846 C   0  0  0  0  0  0  0  0  0  0  0  0
   -1.4574   -2.2442    1.9903 C   0  0  0  0  0  0  0  0  0  0  0  0
   -0.2067   -2.7879    2.2701 C   0  0  0  0  0  0  0  0  0  0  0  0
    0.9245   -2.2861    1.6294 C   0  0  0  0  0  0  0  0  0  0  0  0
    0.8205   -1.2520    0.6882 C   0  0  0  0  0  0  0  0  0  0  0  0
    2.0346   -0.8308    0.1008 N   0  0  0  0  0  0  0  0  0  0  0  0
    2.3302   -0.0556   -0.9941 C   0  0  0  0  0  0  0  0  0  0  0  0
    1.3285    0.5413   -2.1890 S   0  0  0  0  0  0  0  0  0  0  0  0
    3.6740    0.2556   -1.1429 N   0  0  0  0  0  0  0  0  0  0  0  0
    4.7675   -0.1298   -0.3709 C   0  0  0  0  0  0  0  0  0  0  0  0
    4.6395   -0.9485    0.5414 O   0  0  0  0  0  0  0  0  0  0  0  0
    6.0385    0.4752   -0.7567 C   0  0  0  0  0  0  0  0  0  0  0  0
    6.3106    1.5499   -1.5880 C   0  0  0  0  0  0  0  0  0  0  0  0
    7.7081    1.8179   -1.7012 C   0  0  0  0  0  0  0  0  0  0  0  0
    8.4624    0.9473   -0.9502 C   0  0  0  0  0  0  0  0  0  0  0  0
    7.4921   -0.1789   -0.1108 S   0  0  0  0  0  0  0  0  0  0  0  0
   -0.4390   -0.6979    0.4364 C   0  0  0  0  0  0  0  0  0  0  0  0
   -4.7171    0.6767    0.0639 C   0  0  0  0  0  0  0  0  0  0  0  0
   -5.6172   -0.3876   -0.0831 C   0  0  0  0  0  0  0  0  0  0  0  0
   -6.9875   -0.1333   -0.1744 C   0  0  0  0  0  0  0  0  0  0  0  0
   -7.4600    1.1787   -0.1281 C   0  0  0  0  0  0  0  0  0  0  0  0
   -6.5655    2.2413   -0.0009 C   0  0  0  0  0  0  0  0  0  0  0  0
   -5.1952    1.9924    0.0894 C   0  0  0  0  0  0  0  0  0  0  0  0
   -3.6235   -1.1513    1.3816 H   0  0  0  0  0  0  0  0  0  0  0  0
   -2.3262   -2.6477    2.5032 H   0  0  0  0  0  0  0  0  0  0  0  0
   -0.1105   -3.5996    2.9861 H   0  0  0  0  0  0  0  0  0  0  0  0
    1.8917   -2.7267    1.8627 H   0  0  0  0  0  0  0  0  0  0  0  0
    2.8664   -1.2270    0.5423 H   0  0  0  0  0  0  0  0  0  0  0  0
    3.8457    0.8366   -1.9495 H   0  0  0  0  0  0  0  0  0  0  0  0
    5.5585    2.1430   -2.0934 H   0  0  0  0  0  0  0  0  0  0  0  0
    8.1367    2.6136   -2.2992 H   0  0  0  0  0  0  0  0  0  0  0  0
    9.5389    0.9205   -0.8475 H   0  0  0  0  0  0  0  0  0  0  0  0
   -0.5390    0.1337   -0.2454 H   0  0  0  0  0  0  0  0  0  0  0  0
   -5.2657   -1.4128   -0.1604 H   0  0  0  0  0  0  0  0  0  0  0  0
   -7.6874   -0.9567   -0.2950 H   0  0  0  0  0  0  0  0  0  0  0  0
   -8.5269    1.3751   -0.2046 H   0  0  0  0  0  0  0  0  0  0  0  0
   -6.9331    3.2643    0.0215 H   0  0  0  0  0  0  0  0  0  0  0  0
   -4.4990    2.8242    0.1797 H   0  0  0  0  0  0  0  0  0  0  0  0
  1  2  2  0
  2  3  1  0
  3  4  1  0
  4  5  2  0
  5  6  1  0
  6  7  2  0
  7  8  1  0
  8  9  1  0
  9 10  1  0
 10 11  2  0
 10 12  1  0
 12 13  1  0
 13 14  2  0
 13 15  1  0
 15 16  2  0
 16 17  1  0
 17 18  2  0
 18 19  1  0
  8 20  2  0
  2 21  1  0
 21 22  2  0
 22 23  1  0
 23 24  2  0
 24 25  1  0
 25 26  2  0
 20  4  1  0
 26 21  1  0
 19 15  1  0
  3 27  1  0
  5 28  1  0
  6 29  1  0
  7 30  1  0
  9 31  1  0
 12 32  1  0
 16 33  1  0
 17 34  1  0
 18 35  1  0
 20 36  1  0
 22 37  1  0
 23 38  1  0
 24 39  1  0
 25 40  1  0
 26 41  1  0
M  END
$$$$
