
     RDKit          3D

 71 76  0  0  0  0  0  0  0  0999 V2000
   -3.9539   -5.4932    2.7553 C   0  0  0  0  0  0  0  0  0  0  0  0
   -3.0549   -4.4377    2.4415 O   0  0  0  0  0  0  0  0  0  0  0  0
   -3.1591   -3.8782    1.1969 C   0  0  0  0  0  0  0  0  0  0  0  0
   -4.0894   -4.2478    0.2062 C   0  0  0  0  0  0  0  0  0  0  0  0
   -4.1079   -3.6080   -1.0397 C   0  0  0  0  0  0  0  0  0  0  0  0
   -3.1883   -2.6050   -1.2551 C   0  0  0  0  0  0  0  0  0  0  0  0
   -2.2629   -2.2176   -0.2841 C   0  0  0  0  0  0  0  0  0  0  0  0
   -2.2362   -2.8550    0.9467 C   0  0  0  0  0  0  0  0  0  0  0  0
   -1.4221   -1.1079   -0.8368 C   0  0  1  0  0  0  0  0  0  0  0  0
   -1.9795   -0.9343   -2.2783 C   0  0  0  0  0  0  0  0  0  0  0  0
   -1.5998   -0.1811   -3.1622 O   0  0  0  0  0  0  0  0  0  0  0  0
   -3.0266   -1.8524   -2.4107 N   0  0  0  0  0  0  0  0  0  0  0  0
   -1.5865    0.1070    0.0066 C   0  0  0  0  0  0  0  0  0  0  0  0
   -0.3437    0.7690    0.1316 C   0  0  0  0  0  0  0  0  0  0  0  0
   -0.5141    1.8789    0.9124 C   0  0  0  0  0  0  0  0  0  0  0  0
    0.3233    2.8240    1.3194 O   0  0  0  0  0  0  0  0  0  0  0  0
   -1.8572    1.9034    1.2641 N   0  0  0  0  0  0  0  0  0  0  0  0
   -2.4731    2.9072    2.1236 C   0  0  0  0  0  0  0  0  0  0  0  0
   -3.0025    4.0789    1.3331 C   0  0  0  0  0  0  0  0  0  0  0  0
   -2.2006    5.2068    1.1055 C   0  0  0  0  0  0  0  0  0  0  0  0
   -2.6894    6.2884    0.3711 C   0  0  0  0  0  0  0  0  0  0  0  0
   -3.9824    6.2526   -0.1474 C   0  0  0  0  0  0  0  0  0  0  0  0
   -4.7861    5.1340    0.0638 C   0  0  0  0  0  0  0  0  0  0  0  0
   -4.2987    4.0517    0.7981 C   0  0  0  0  0  0  0  0  0  0  0  0
   -2.5171    0.8024    0.7344 C   0  0  0  0  0  0  0  0  0  0  0  0
   -3.8035    0.5852    0.9800 O   0  0  0  0  0  0  0  0  0  0  0  0
    0.6853    0.0475   -0.6466 C   0  0  1  0  0  0  0  0  0  0  0  0
    2.0803   -0.1207   -0.0538 C   0  0  0  0  0  0  0  0  0  0  0  0
    2.8786   -1.0644   -0.8629 N   0  0  0  0  0  0  0  0  0  0  0  0
    4.2628   -1.0637   -0.8222 C   0  0  0  0  0  0  0  0  0  0  0  0
    4.9525   -1.9642   -1.2821 O   0  0  0  0  0  0  0  0  0  0  0  0
    4.7546    0.0494   -0.2194 O   0  0  0  0  0  0  0  0  0  0  0  0
    6.1835    0.2549   -0.0772 C   0  0  0  0  0  0  0  0  0  0  0  0
    6.8722    0.3591   -1.4424 C   0  0  0  0  0  0  0  0  0  0  0  0
    6.3097    1.6086    0.6389 C   0  0  0  0  0  0  0  0  0  0  0  0
    6.8175   -0.8251    0.8060 C   0  0  0  0  0  0  0  0  0  0  0  0
    2.2078   -2.3079   -1.2784 C   0  0  0  0  0  0  0  0  0  0  0  0
    0.7381   -2.1170   -1.7320 C   0  0  0  0  0  0  0  0  0  0  0  0
    0.0421   -1.3017   -0.7506 N   0  0  0  0  0  0  0  0  0  0  0  0
   -3.8089   -6.3475    2.0858 H   0  0  0  0  0  0  0  0  0  0  0  0
   -4.9922   -5.1460    2.7354 H   0  0  0  0  0  0  0  0  0  0  0  0
   -3.7343   -5.8279    3.7737 H   0  0  0  0  0  0  0  0  0  0  0  0
   -4.8126   -5.0390    0.3788 H   0  0  0  0  0  0  0  0  0  0  0  0
   -4.8218   -3.9014   -1.8013 H   0  0  0  0  0  0  0  0  0  0  0  0
   -1.5139   -2.5639    1.7048 H   0  0  0  0  0  0  0  0  0  0  0  0
   -3.5576   -1.9494   -3.2633 H   0  0  0  0  0  0  0  0  0  0  0  0
    1.1833    2.6608    0.8958 H   0  0  0  0  0  0  0  0  0  0  0  0
   -3.2763    2.4279    2.6955 H   0  0  0  0  0  0  0  0  0  0  0  0
   -1.7274    3.2329    2.8585 H   0  0  0  0  0  0  0  0  0  0  0  0
   -1.1849    5.2425    1.4946 H   0  0  0  0  0  0  0  0  0  0  0  0
   -2.0585    7.1562    0.1992 H   0  0  0  0  0  0  0  0  0  0  0  0
   -4.3610    7.0933   -0.7221 H   0  0  0  0  0  0  0  0  0  0  0  0
   -5.7912    5.1008   -0.3477 H   0  0  0  0  0  0  0  0  0  0  0  0
   -4.9322    3.1793    0.9461 H   0  0  0  0  0  0  0  0  0  0  0  0
   -4.0358   -0.2758    0.5887 H   0  0  0  0  0  0  0  0  0  0  0  0
    0.7589    0.5084   -1.6423 H   0  0  0  0  0  0  0  0  0  0  0  0
    2.0420   -0.5191    0.9682 H   0  0  0  0  0  0  0  0  0  0  0  0
    2.5795    0.8526   -0.0024 H   0  0  0  0  0  0  0  0  0  0  0  0
    6.8800   -0.5984   -1.9717 H   0  0  0  0  0  0  0  0  0  0  0  0
    7.9133    0.6836   -1.3396 H   0  0  0  0  0  0  0  0  0  0  0  0
    6.3475    1.0713   -2.0889 H   0  0  0  0  0  0  0  0  0  0  0  0
    5.8311    2.4042    0.0557 H   0  0  0  0  0  0  0  0  0  0  0  0
    5.7976    1.5860    1.6081 H   0  0  0  0  0  0  0  0  0  0  0  0
    7.3561    1.8845    0.8068 H   0  0  0  0  0  0  0  0  0  0  0  0
    6.2577   -0.9406    1.7410 H   0  0  0  0  0  0  0  0  0  0  0  0
    6.8186   -1.8044    0.3186 H   0  0  0  0  0  0  0  0  0  0  0  0
    7.8571   -0.5803    1.0502 H   0  0  0  0  0  0  0  0  0  0  0  0
    2.2408   -2.9836   -0.4139 H   0  0  0  0  0  0  0  0  0  0  0  0
    2.7784   -2.7828   -2.0844 H   0  0  0  0  0  0  0  0  0  0  0  0
    0.2708   -3.1036   -1.8242 H   0  0  0  0  0  0  0  0  0  0  0  0
    0.7233   -1.6468   -2.7225 H   0  0  0  0  0  0  0  0  0  0  0  0
  1  2  1  0
  2  3  1  0
  3  4  2  0
  4  5  1  0
  5  6  2  0
  6  7  1  0
  7  8  2  0
  7  9  1  0
  9 10  1  0
 10 11  2  0
 10 12  1  0
  9 13  1  0
 13 14  1  0
 14 15  2  0
 15 16  1  0
 15 17  1  0
 17 18  1  0
 18 19  1  0
 19 20  2  0
 20 21  1  0
 21 22  2  0
 22 23  1  0
 23 24  2  0
 17 25  1  0
 25 26  1  0
 14 27  1  0
 27 28  1  0
 28 29  1  0
 29 30  1  0
 30 31  2  0
 30 32  1  0
 32 33  1  0
 33 34  1  0
 33 35  1  0
 33 36  1  0
 29 37  1  0
 37 38  1  0
 38 39  1  0
  8  3  1  0
  9 39  1  6
 12  6  1  0
 25 13  2  0
 39 27  1  0
 24 19  1  0
  1 40  1  0
  1 41  1  0
  1 42  1  0
  4 43  1  0
  5 44  1  0
  8 45  1  0
 12 46  1  0
 16 47  1  0
 18 48  1  0
 18 49  1  0
 20 50  1  0
 21 51  1  0
 22 52  1  0
 23 53  1  0
 24 54  1  0
 26 55  1  0
 27 56  1  6
 28 57  1  0
 28 58  1  0
 34 59  1  0
 34 60  1  0
 34 61  1  0
 35 62  1  0
 35 63  1  0
 35 64  1  0
 36 65  1  0
 36 66  1  0
 36 67  1  0
 37 68  1  0
 37 69  1  0
 38 70  1  0
 38 71  1  0
M  END
$$$$
