
     RDKit          3D

 62 65  0  0  0  0  0  0  0  0999 V2000
   -0.2607    2.3297    2.1014 C   0  0  0  0  0  0  0  0  0  0  0  0
   -1.2283    1.6078    1.1973 C   0  0  0  0  0  0  0  0  0  0  0  0
   -2.2978    2.3602    0.6808 C   0  0  0  0  0  0  0  0  0  0  0  0
   -3.2464    1.7999   -0.1731 C   0  0  0  0  0  0  0  0  0  0  0  0
   -4.2297    2.6569   -0.5725 O   0  0  0  0  0  0  0  0  0  0  0  0
   -3.1583    0.4640   -0.5614 C   0  0  0  0  0  0  0  0  0  0  0  0
   -4.1262   -0.2512   -1.4934 C   0  0  0  0  0  0  0  0  0  0  0  0
   -5.5102   -0.4401   -0.8675 C   0  0  0  0  0  0  0  0  0  0  0  0
   -4.2036    0.3848   -2.8842 C   0  0  0  0  0  0  0  0  0  0  0  0
   -2.0746   -0.2865   -0.0500 C   0  0  0  0  0  0  0  0  0  0  0  0
   -1.0868    0.2499    0.8152 C   0  0  0  0  0  0  0  0  0  0  0  0
    0.0928   -0.6308    1.3236 C   0  0  0  0  0  0  0  0  0  0  0  0
    1.4888   -0.0682    0.9442 C   0  0  0  0  0  0  0  0  0  0  0  0
    1.6501    0.4627   -0.3649 C   0  0  0  0  0  0  0  0  0  0  0  0
    2.8642    0.9899   -0.8414 C   0  0  0  0  0  0  0  0  0  0  0  0
    2.9125    1.5499   -2.2544 C   0  0  0  0  0  0  0  0  0  0  0  0
    3.8770    0.7762   -3.1570 C   0  0  0  0  0  0  0  0  0  0  0  0
    3.2095    3.0515   -2.2757 C   0  0  0  0  0  0  0  0  0  0  0  0
    3.9554    0.9717    0.0228 C   0  0  0  0  0  0  0  0  0  0  0  0
    5.1543    1.4763   -0.3922 O   0  0  0  0  0  0  0  0  0  0  0  0
    3.8437    0.4402    1.3079 C   0  0  0  0  0  0  0  0  0  0  0  0
    2.6282   -0.0933    1.7820 C   0  0  0  0  0  0  0  0  0  0  0  0
    2.6310   -0.6555    3.1786 C   0  0  0  0  0  0  0  0  0  0  0  0
   -0.1281   -0.6807    2.7634 O   0  0  0  0  0  0  0  0  0  0  0  0
   -0.5256   -1.9045    3.2059 C   0  0  0  0  0  0  0  0  0  0  0  0
   -0.8650   -2.1957    4.3348 O   0  0  0  0  0  0  0  0  0  0  0  0
   -0.3923   -2.8119    2.0819 C   0  0  0  0  0  0  0  0  0  0  0  0
   -0.5753   -4.1848    2.0699 C   0  0  0  0  0  0  0  0  0  0  0  0
   -0.3256   -4.8597    0.8758 C   0  0  0  0  0  0  0  0  0  0  0  0
    0.1051   -4.1546   -0.2591 C   0  0  0  0  0  0  0  0  0  0  0  0
    0.2816   -2.7670   -0.2148 C   0  0  0  0  0  0  0  0  0  0  0  0
    0.0151   -2.0958    0.9747 C   0  0  0  0  0  0  0  0  0  0  0  0
   -0.7079    3.2466    2.5025 H   0  0  0  0  0  0  0  0  0  0  0  0
    0.6365    2.6179    1.5466 H   0  0  0  0  0  0  0  0  0  0  0  0
    0.0170    1.7290    2.9698 H   0  0  0  0  0  0  0  0  0  0  0  0
   -2.4054    3.4093    0.9528 H   0  0  0  0  0  0  0  0  0  0  0  0
   -4.9300    2.1636   -1.0194 H   0  0  0  0  0  0  0  0  0  0  0  0
   -3.7393   -1.2659   -1.6638 H   0  0  0  0  0  0  0  0  0  0  0  0
   -6.1398   -1.0616   -1.5139 H   0  0  0  0  0  0  0  0  0  0  0  0
   -5.4324   -0.9423    0.1034 H   0  0  0  0  0  0  0  0  0  0  0  0
   -6.0378    0.5041   -0.7084 H   0  0  0  0  0  0  0  0  0  0  0  0
   -4.6749    1.3710   -2.8779 H   0  0  0  0  0  0  0  0  0  0  0  0
   -4.7894   -0.2490   -3.5593 H   0  0  0  0  0  0  0  0  0  0  0  0
   -3.2033    0.4968   -3.3173 H   0  0  0  0  0  0  0  0  0  0  0  0
   -2.0156   -1.3311   -0.3483 H   0  0  0  0  0  0  0  0  0  0  0  0
    0.7926    0.4760   -1.0390 H   0  0  0  0  0  0  0  0  0  0  0  0
    1.9157    1.4300   -2.7009 H   0  0  0  0  0  0  0  0  0  0  0  0
    4.9217    0.9039   -2.8578 H   0  0  0  0  0  0  0  0  0  0  0  0
    3.7894    1.1206   -4.1934 H   0  0  0  0  0  0  0  0  0  0  0  0
    3.6530   -0.2962   -3.1409 H   0  0  0  0  0  0  0  0  0  0  0  0
    4.2229    3.2810   -1.9325 H   0  0  0  0  0  0  0  0  0  0  0  0
    3.1111    3.4461   -3.2930 H   0  0  0  0  0  0  0  0  0  0  0  0
    2.5078    3.5981   -1.6357 H   0  0  0  0  0  0  0  0  0  0  0  0
    5.7936    1.4139    0.3354 H   0  0  0  0  0  0  0  0  0  0  0  0
    4.7146    0.4317    1.9596 H   0  0  0  0  0  0  0  0  0  0  0  0
    3.6399   -0.6646    3.6067 H   0  0  0  0  0  0  0  0  0  0  0  0
    2.0121   -0.0441    3.8414 H   0  0  0  0  0  0  0  0  0  0  0  0
    2.2905   -1.6941    3.1773 H   0  0  0  0  0  0  0  0  0  0  0  0
   -0.8899   -4.7137    2.9643 H   0  0  0  0  0  0  0  0  0  0  0  0
   -0.4535   -5.9388    0.8254 H   0  0  0  0  0  0  0  0  0  0  0  0
    0.3077   -4.6949   -1.1820 H   0  0  0  0  0  0  0  0  0  0  0  0
    0.6186   -2.2350   -1.1003 H   0  0  0  0  0  0  0  0  0  0  0  0
  1  2  1  0
  2  3  2  0
  3  4  1  0
  4  5  1  0
  4  6  2  0
  6  7  1  0
  7  8  1  0
  7  9  1  0
  6 10  1  0
 10 11  2  0
 11 12  1  0
 12 13  1  0
 13 14  2  0
 14 15  1  0
 15 16  1  0
 16 17  1  0
 16 18  1  0
 15 19  2  0
 19 20  1  0
 19 21  1  0
 21 22  2  0
 22 23  1  0
 12 24  1  0
 24 25  1  0
 25 26  2  0
 25 27  1  0
 27 28  2  0
 28 29  1  0
 29 30  2  0
 30 31  1  0
 31 32  2  0
 11  2  1  0
 32 12  1  0
 22 13  1  0
 32 27  1  0
  1 33  1  0
  1 34  1  0
  1 35  1  0
  3 36  1  0
  5 37  1  0
  7 38  1  0
  8 39  1  0
  8 40  1  0
  8 41  1  0
  9 42  1  0
  9 43  1  0
  9 44  1  0
 10 45  1  0
 14 46  1  0
 16 47  1  0
 17 48  1  0
 17 49  1  0
 17 50  1  0
 18 51  1  0
 18 52  1  0
 18 53  1  0
 20 54  1  0
 21 55  1  0
 23 56  1  0
 23 57  1  0
 23 58  1  0
 28 59  1  0
 29 60  1  0
 30 61  1  0
 31 62  1  0
M  END
$$$$
