
     RDKit          3D

 33 35  0  0  0  0  0  0  0  0999 V2000
    4.1916    1.6413   -0.7680 C   0  0  0  0  0  0  0  0  0  0  0  0
    3.3954    0.5525   -0.1694 C   0  0  0  0  0  0  0  0  0  0  0  0
    3.6618   -0.4084    0.7750 C   0  0  0  0  0  0  0  0  0  0  0  0
    2.4722   -1.1623    0.9107 C   0  0  0  0  0  0  0  0  0  0  0  0
    1.5296   -0.6371    0.0314 C   0  0  0  0  0  0  0  0  0  0  0  0
    0.1662   -1.0302   -0.2109 C   0  0  0  0  0  0  0  0  0  0  0  0
   -0.9593   -0.1209    0.0809 C   0  0  0  0  0  0  0  0  0  0  0  0
   -2.2212   -0.4977   -0.1942 C   0  0  0  0  0  0  0  0  0  0  0  0
   -2.4590   -1.7367   -0.7302 N   0  0  0  0  0  0  0  0  0  0  0  0
   -1.4875   -2.6616   -1.0310 C   0  0  0  0  0  0  0  0  0  0  0  0
   -2.0157   -4.1249   -1.6673 S   0  0  0  0  0  0  0  0  0  0  0  0
   -0.0677   -2.2521   -0.7548 C   0  0  0  0  0  0  0  0  0  0  0  0
    0.9821   -3.1614   -1.0932 C   0  0  0  0  0  0  0  0  0  0  0  0
    1.8463   -3.8950   -1.3456 N   0  0  0  0  0  0  0  0  0  0  0  0
   -3.4275    0.3742    0.0424 C   0  0  0  0  0  0  0  0  0  0  0  0
   -3.0695    1.8363    0.3040 C   0  0  0  0  0  0  0  0  0  0  0  0
   -1.8932    1.9392    1.2645 C   0  0  0  0  0  0  0  0  0  0  0  0
   -0.6587    1.2285    0.7020 C   0  0  0  0  0  0  0  0  0  0  0  0
    2.1174    0.4292   -0.6131 O   0  0  0  0  0  0  0  0  0  0  0  0
    5.2009    1.6679   -0.3459 H   0  0  0  0  0  0  0  0  0  0  0  0
    3.7178    2.6096   -0.5803 H   0  0  0  0  0  0  0  0  0  0  0  0
    4.2779    1.5020   -1.8499 H   0  0  0  0  0  0  0  0  0  0  0  0
    4.5962   -0.5511    1.2999 H   0  0  0  0  0  0  0  0  0  0  0  0
    2.3160   -2.0036    1.5729 H   0  0  0  0  0  0  0  0  0  0  0  0
   -3.4164   -2.0146   -0.9289 H   0  0  0  0  0  0  0  0  0  0  0  0
   -3.9810   -0.0244    0.9021 H   0  0  0  0  0  0  0  0  0  0  0  0
   -4.1016    0.3301   -0.8218 H   0  0  0  0  0  0  0  0  0  0  0  0
   -2.8140    2.3299   -0.6424 H   0  0  0  0  0  0  0  0  0  0  0  0
   -3.9392    2.3622    0.7135 H   0  0  0  0  0  0  0  0  0  0  0  0
   -2.1680    1.4922    2.2285 H   0  0  0  0  0  0  0  0  0  0  0  0
   -1.6555    2.9914    1.4581 H   0  0  0  0  0  0  0  0  0  0  0  0
   -0.1990    1.8701   -0.0607 H   0  0  0  0  0  0  0  0  0  0  0  0
    0.0625    1.1254    1.5217 H   0  0  0  0  0  0  0  0  0  0  0  0
  1  2  1  0
  2  3  2  0
  3  4  1  0
  4  5  2  0
  5  6  1  0
  6  7  1  0
  7  8  2  0
  8  9  1  0
  9 10  1  0
 10 11  2  0
 10 12  1  0
 12 13  1  0
 13 14  3  0
  8 15  1  0
 15 16  1  0
 16 17  1  0
 17 18  1  0
  5 19  1  0
 19  2  1  0
 12  6  2  0
 18  7  1  0
  1 20  1  0
  1 21  1  0
  1 22  1  0
  3 23  1  0
  4 24  1  0
  9 25  1  0
 15 26  1  0
 15 27  1  0
 16 28  1  0
 16 29  1  0
 17 30  1  0
 17 31  1  0
 18 32  1  0
 18 33  1  0
M  END
$$$$
