
     RDKit          3D

 47 49  0  0  0  0  0  0  0  0999 V2000
   -8.6214    1.2762    0.6405 C   0  0  0  0  0  0  0  0  0  0  0  0
   -7.9625    1.0094   -0.7056 C   0  0  0  0  0  0  0  0  0  0  0  0
   -7.3840   -0.4019   -0.8009 C   0  0  0  0  0  0  0  0  0  0  0  0
   -6.4153   -0.6498    0.2178 O   0  0  0  0  0  0  0  0  0  0  0  0
   -5.1127   -0.3071   -0.0072 C   0  0  0  0  0  0  0  0  0  0  0  0
   -4.6084    0.3456   -1.1313 C   0  0  0  0  0  0  0  0  0  0  0  0
   -3.2419    0.6357   -1.2222 C   0  0  0  0  0  0  0  0  0  0  0  0
   -2.3677    0.2663   -0.1938 C   0  0  0  0  0  0  0  0  0  0  0  0
   -0.9203    0.5937   -0.3365 C   0  0  0  0  0  0  0  0  0  0  0  0
   -0.6154    1.6178   -0.9349 O   0  0  0  0  0  0  0  0  0  0  0  0
   -0.0569   -0.3441    0.2014 N   0  0  0  0  0  0  0  0  0  0  0  0
    1.3511   -0.2808    0.2495 C   0  0  0  0  0  0  0  0  0  0  0  0
    2.0257   -1.3938    0.7603 C   0  0  0  0  0  0  0  0  0  0  0  0
    3.4234   -1.4062    0.8439 C   0  0  0  0  0  0  0  0  0  0  0  0
    4.1756   -0.3035    0.4247 C   0  0  0  0  0  0  0  0  0  0  0  0
    5.5783   -0.4035    0.5354 N   0  0  0  0  0  0  0  0  0  0  0  0
    6.5289    0.5720    0.2612 C   0  0  0  0  0  0  0  0  0  0  0  0
    6.2563    1.7230   -0.0659 O   0  0  0  0  0  0  0  0  0  0  0  0
    7.9085    0.1052    0.4224 C   0  0  0  0  0  0  0  0  0  0  0  0
    8.4304   -1.1787    0.4063 C   0  0  0  0  0  0  0  0  0  0  0  0
    9.8434   -1.2018    0.6043 C   0  0  0  0  0  0  0  0  0  0  0  0
   10.3622    0.0626    0.7573 C   0  0  0  0  0  0  0  0  0  0  0  0
    9.1554    1.2666    0.6540 S   0  0  0  0  0  0  0  0  0  0  0  0
    3.5015    0.8061   -0.0820 C   0  0  0  0  0  0  0  0  0  0  0  0
    2.1004    0.8177   -0.1672 C   0  0  0  0  0  0  0  0  0  0  0  0
   -2.8738   -0.3679    0.9450 C   0  0  0  0  0  0  0  0  0  0  0  0
   -4.2397   -0.6533    1.0297 C   0  0  0  0  0  0  0  0  0  0  0  0
   -9.0562    2.2805    0.6543 H   0  0  0  0  0  0  0  0  0  0  0  0
   -7.8964    1.2132    1.4580 H   0  0  0  0  0  0  0  0  0  0  0  0
   -9.4233    0.5568    0.8345 H   0  0  0  0  0  0  0  0  0  0  0  0
   -7.1747    1.7552   -0.8548 H   0  0  0  0  0  0  0  0  0  0  0  0
   -8.7008    1.1494   -1.5028 H   0  0  0  0  0  0  0  0  0  0  0  0
   -6.9935   -0.6173   -1.8019 H   0  0  0  0  0  0  0  0  0  0  0  0
   -8.1919   -1.1258   -0.6408 H   0  0  0  0  0  0  0  0  0  0  0  0
   -5.2453    0.6566   -1.9522 H   0  0  0  0  0  0  0  0  0  0  0  0
   -2.8598    1.1525   -2.1012 H   0  0  0  0  0  0  0  0  0  0  0  0
   -0.4682   -1.2043    0.5375 H   0  0  0  0  0  0  0  0  0  0  0  0
    1.4783   -2.2696    1.0983 H   0  0  0  0  0  0  0  0  0  0  0  0
    3.9086   -2.2922    1.2445 H   0  0  0  0  0  0  0  0  0  0  0  0
    5.9235   -1.2725    0.9147 H   0  0  0  0  0  0  0  0  0  0  0  0
    7.8434   -2.0731    0.2402 H   0  0  0  0  0  0  0  0  0  0  0  0
   10.4494   -2.0998    0.6238 H   0  0  0  0  0  0  0  0  0  0  0  0
   11.3949    0.3420    0.9160 H   0  0  0  0  0  0  0  0  0  0  0  0
    4.0278    1.6900   -0.4295 H   0  0  0  0  0  0  0  0  0  0  0  0
    1.6298    1.7122   -0.5646 H   0  0  0  0  0  0  0  0  0  0  0  0
   -2.2330   -0.6174    1.7857 H   0  0  0  0  0  0  0  0  0  0  0  0
   -4.6336   -1.1418    1.9186 H   0  0  0  0  0  0  0  0  0  0  0  0
  1  2  1  0
  2  3  1  0
  3  4  1  0
  4  5  1  0
  5  6  2  0
  6  7  1  0
  7  8  2  0
  8  9  1  0
  9 10  2  0
  9 11  1  0
 11 12  1  0
 12 13  2  0
 13 14  1  0
 14 15  2  0
 15 16  1  0
 16 17  1  0
 17 18  2  0
 17 19  1  0
 19 20  2  0
 20 21  1  0
 21 22  2  0
 22 23  1  0
 15 24  1  0
 24 25  2  0
  8 26  1  0
 26 27  2  0
 27  5  1  0
 25 12  1  0
 23 19  1  0
  1 28  1  0
  1 29  1  0
  1 30  1  0
  2 31  1  0
  2 32  1  0
  3 33  1  0
  3 34  1  0
  6 35  1  0
  7 36  1  0
 11 37  1  0
 13 38  1  0
 14 39  1  0
 16 40  1  0
 20 41  1  0
 21 42  1  0
 22 43  1  0
 24 44  1  0
 25 45  1  0
 26 46  1  0
 27 47  1  0
M  END
$$$$
