
     RDKit          3D

 55 58  0  0  0  0  0  0  0  0999 V2000
   -0.9723    4.5554    1.5532 C   0  0  0  0  0  0  0  0  0  0  0  0
   -1.9417    3.5633    1.2089 O   0  0  0  0  0  0  0  0  0  0  0  0
   -1.4118    2.3876    0.7898 C   0  0  0  0  0  0  0  0  0  0  0  0
   -0.2158    2.1457    0.6943 O   0  0  0  0  0  0  0  0  0  0  0  0
   -2.4802    1.3917    0.4624 C   0  0  0  0  0  0  0  0  0  0  0  0
   -3.8299    1.7914    0.4523 C   0  0  0  0  0  0  0  0  0  0  0  0
   -4.8428    0.8829    0.1360 C   0  0  0  0  0  0  0  0  0  0  0  0
   -6.1795    1.1913    0.1027 O   0  0  0  0  0  0  0  0  0  0  0  0
   -6.5701    2.5114    0.4525 C   0  0  0  0  0  0  0  0  0  0  0  0
   -4.5068   -0.4450   -0.1809 C   0  0  0  0  0  0  0  0  0  0  0  0
   -5.5596   -1.2744   -0.4824 O   0  0  0  0  0  0  0  0  0  0  0  0
   -5.2645   -2.6228   -0.8228 C   0  0  0  0  0  0  0  0  0  0  0  0
   -3.1632   -0.8437   -0.1725 C   0  0  0  0  0  0  0  0  0  0  0  0
   -2.1375    0.0562    0.1470 C   0  0  0  0  0  0  0  0  0  0  0  0
   -0.7733   -0.3365    0.1635 N   0  0  0  0  0  0  0  0  0  0  0  0
   -0.2215   -1.5668   -0.1378 C   0  0  0  0  0  0  0  0  0  0  0  0
   -0.8178   -2.5836   -0.4648 O   0  0  0  0  0  0  0  0  0  0  0  0
    1.2637   -1.5982   -0.0435 C   0  0  0  0  0  0  0  0  0  0  0  0
    1.9768   -0.6044   -0.7211 C   0  0  0  0  0  0  0  0  0  0  0  0
    3.3586   -0.6039   -0.6414 C   0  0  0  0  0  0  0  0  0  0  0  0
    4.1993    0.4174   -1.2989 C   0  0  0  0  0  0  0  0  0  0  0  0
    3.7780    1.7532   -1.4405 C   0  0  0  0  0  0  0  0  0  0  0  0
    4.5856    2.7076   -2.0687 C   0  0  0  0  0  0  0  0  0  0  0  0
    5.8349    2.3475   -2.5655 C   0  0  0  0  0  0  0  0  0  0  0  0
    6.2803    1.0365   -2.4295 C   0  0  0  0  0  0  0  0  0  0  0  0
    5.4717    0.0852   -1.8006 C   0  0  0  0  0  0  0  0  0  0  0  0
    4.0237   -1.5585    0.0530 N   0  0  0  0  0  0  0  0  0  0  0  0
    3.3412   -2.5206    0.6965 C   0  0  0  0  0  0  0  0  0  0  0  0
    4.0647   -3.4715    1.4042 C   0  0  0  0  0  0  0  0  0  0  0  0
    3.4417   -4.4997    2.1143 C   0  0  0  0  0  0  0  0  0  0  0  0
    2.0578   -4.5851    2.1229 C   0  0  0  0  0  0  0  0  0  0  0  0
    1.3090   -3.6430    1.4199 C   0  0  0  0  0  0  0  0  0  0  0  0
    1.9365   -2.5992    0.6915 C   0  0  0  0  0  0  0  0  0  0  0  0
   -0.3513    4.2106    2.3861 H   0  0  0  0  0  0  0  0  0  0  0  0
   -1.5071    5.4554    1.8692 H   0  0  0  0  0  0  0  0  0  0  0  0
   -0.3550    4.8055    0.6847 H   0  0  0  0  0  0  0  0  0  0  0  0
   -4.0779    2.8206    0.6878 H   0  0  0  0  0  0  0  0  0  0  0  0
   -6.1614    3.2429   -0.2523 H   0  0  0  0  0  0  0  0  0  0  0  0
   -7.6614    2.5650    0.3912 H   0  0  0  0  0  0  0  0  0  0  0  0
   -6.2831    2.7491    1.4822 H   0  0  0  0  0  0  0  0  0  0  0  0
   -6.2118   -3.1270   -1.0382 H   0  0  0  0  0  0  0  0  0  0  0  0
   -4.6476   -2.6771   -1.7259 H   0  0  0  0  0  0  0  0  0  0  0  0
   -4.7929   -3.1474    0.0146 H   0  0  0  0  0  0  0  0  0  0  0  0
   -2.9165   -1.8689   -0.4152 H   0  0  0  0  0  0  0  0  0  0  0  0
   -0.1213    0.4019    0.4384 H   0  0  0  0  0  0  0  0  0  0  0  0
    1.4575    0.1376   -1.3189 H   0  0  0  0  0  0  0  0  0  0  0  0
    2.8178    2.0771   -1.0435 H   0  0  0  0  0  0  0  0  0  0  0  0
    4.2391    3.7336   -2.1626 H   0  0  0  0  0  0  0  0  0  0  0  0
    6.4637    3.0888   -3.0513 H   0  0  0  0  0  0  0  0  0  0  0  0
    7.2577    0.7495   -2.8087 H   0  0  0  0  0  0  0  0  0  0  0  0
    5.8413   -0.9348   -1.7021 H   0  0  0  0  0  0  0  0  0  0  0  0
    5.1510   -3.4083    1.4050 H   0  0  0  0  0  0  0  0  0  0  0  0
    4.0407   -5.2268    2.6561 H   0  0  0  0  0  0  0  0  0  0  0  0
    1.5590   -5.3809    2.6701 H   0  0  0  0  0  0  0  0  0  0  0  0
    0.2244   -3.7338    1.4391 H   0  0  0  0  0  0  0  0  0  0  0  0
  1  2  1  0
  2  3  1  0
  3  4  2  0
  3  5  1  0
  5  6  2  0
  6  7  1  0
  7  8  1  0
  8  9  1  0
  7 10  2  0
 10 11  1  0
 11 12  1  0
 10 13  1  0
 13 14  2  0
 14 15  1  0
 15 16  1  0
 16 17  2  0
 16 18  1  0
 18 19  2  0
 19 20  1  0
 20 21  1  0
 21 22  2  0
 22 23  1  0
 23 24  2  0
 24 25  1  0
 25 26  2  0
 20 27  2  0
 27 28  1  0
 28 29  2  0
 29 30  1  0
 30 31  2  0
 31 32  1  0
 32 33  2  0
 14  5  1  0
 33 18  1  0
 26 21  1  0
 33 28  1  0
  1 34  1  0
  1 35  1  0
  1 36  1  0
  6 37  1  0
  9 38  1  0
  9 39  1  0
  9 40  1  0
 12 41  1  0
 12 42  1  0
 12 43  1  0
 13 44  1  0
 15 45  1  0
 19 46  1  0
 22 47  1  0
 23 48  1  0
 24 49  1  0
 25 50  1  0
 26 51  1  0
 29 52  1  0
 30 53  1  0
 31 54  1  0
 32 55  1  0
M  END
$$$$
