
     RDKit          3D

 55 58  0  0  0  0  0  0  0  0999 V2000
    3.5570   -3.5661   -4.8057 C   0  0  0  0  0  0  0  0  0  0  0  0
    3.4943   -2.9296   -3.5368 O   0  0  0  0  0  0  0  0  0  0  0  0
    2.3011   -2.3613   -3.1735 C   0  0  0  0  0  0  0  0  0  0  0  0
    1.1312   -2.4214   -3.9344 C   0  0  0  0  0  0  0  0  0  0  0  0
   -0.0300   -1.7784   -3.4990 C   0  0  0  0  0  0  0  0  0  0  0  0
   -0.0339   -1.0645   -2.3014 C   0  0  0  0  0  0  0  0  0  0  0  0
    1.1211   -0.9971   -1.5065 C   0  0  0  0  0  0  0  0  0  0  0  0
    1.1443   -0.1947   -0.2217 C   0  0  0  0  0  0  0  0  0  0  0  0
    1.5258    1.2622   -0.4984 C   0  0  0  0  0  0  0  0  0  0  0  0
    0.6118    2.0243    0.4220 C   0  0  0  0  0  0  0  0  0  0  0  0
    0.7915    3.4751    0.6641 C   0  0  0  0  0  0  0  0  0  0  0  0
    1.7327    4.2213   -0.0542 C   0  0  0  0  0  0  0  0  0  0  0  0
    1.8731    5.5903    0.1890 C   0  0  0  0  0  0  0  0  0  0  0  0
    1.0801    6.2172    1.1493 C   0  0  0  0  0  0  0  0  0  0  0  0
    0.1438    5.4776    1.8687 C   0  0  0  0  0  0  0  0  0  0  0  0
   -0.0023    4.1099    1.6266 C   0  0  0  0  0  0  0  0  0  0  0  0
   -0.3463    1.3320    0.9573 N   0  0  0  0  0  0  0  0  0  0  0  0
   -0.1753   -0.0814    0.4662 N   0  0  0  0  0  0  0  0  0  0  0  0
   -0.4634   -1.3380    1.6106 S   0  0  0  0  0  6  0  0  0  0  0  0
   -0.3810   -2.6151    0.9275 O   0  0  0  0  0  0  0  0  0  0  0  0
    0.3488   -1.0859    2.7874 O   0  0  0  0  0  0  0  0  0  0  0  0
   -2.1660   -1.0605    2.0342 C   0  0  0  0  0  0  0  0  0  0  0  0
   -2.4856   -0.2200    3.1032 C   0  0  0  0  0  0  0  0  0  0  0  0
   -3.8230   -0.0237    3.4483 C   0  0  0  0  0  0  0  0  0  0  0  0
   -4.8427   -0.6643    2.7301 C   0  0  0  0  0  0  0  0  0  0  0  0
   -6.2768   -0.4708    3.1282 C   0  0  0  0  0  0  0  0  0  0  0  0
   -4.5053   -1.5288    1.6788 C   0  0  0  0  0  0  0  0  0  0  0  0
   -3.1697   -1.7277    1.3273 C   0  0  0  0  0  0  0  0  0  0  0  0
    2.2790   -1.6636   -1.9500 C   0  0  0  0  0  0  0  0  0  0  0  0
    3.4101   -1.5440   -1.1719 O   0  0  0  0  0  0  0  0  0  0  0  0
    3.7531   -2.7979   -0.5754 C   0  0  0  0  0  0  0  0  0  0  0  0
    3.3492   -2.8560   -5.6134 H   0  0  0  0  0  0  0  0  0  0  0  0
    2.8817   -4.4269   -4.8511 H   0  0  0  0  0  0  0  0  0  0  0  0
    4.5774   -3.9400   -4.9453 H   0  0  0  0  0  0  0  0  0  0  0  0
    1.0874   -2.9579   -4.8759 H   0  0  0  0  0  0  0  0  0  0  0  0
   -0.9346   -1.8315   -4.1007 H   0  0  0  0  0  0  0  0  0  0  0  0
   -0.9484   -0.5606   -1.9918 H   0  0  0  0  0  0  0  0  0  0  0  0
    1.8660   -0.6165    0.4905 H   0  0  0  0  0  0  0  0  0  0  0  0
    1.3222    1.5722   -1.5287 H   0  0  0  0  0  0  0  0  0  0  0  0
    2.5787    1.4435   -0.2649 H   0  0  0  0  0  0  0  0  0  0  0  0
    2.3602    3.7667   -0.8145 H   0  0  0  0  0  0  0  0  0  0  0  0
    2.6020    6.1695   -0.3727 H   0  0  0  0  0  0  0  0  0  0  0  0
    1.1903    7.2844    1.3332 H   0  0  0  0  0  0  0  0  0  0  0  0
   -0.4740    5.9654    2.6180 H   0  0  0  0  0  0  0  0  0  0  0  0
   -0.7385    3.5472    2.1960 H   0  0  0  0  0  0  0  0  0  0  0  0
   -1.7018    0.2861    3.6624 H   0  0  0  0  0  0  0  0  0  0  0  0
   -4.0654    0.6333    4.2813 H   0  0  0  0  0  0  0  0  0  0  0  0
   -6.9461   -0.6255    2.2740 H   0  0  0  0  0  0  0  0  0  0  0  0
   -6.4452    0.5490    3.4905 H   0  0  0  0  0  0  0  0  0  0  0  0
   -6.5444   -1.1762    3.9213 H   0  0  0  0  0  0  0  0  0  0  0  0
   -5.2820   -2.0525    1.1271 H   0  0  0  0  0  0  0  0  0  0  0  0
   -2.9195   -2.4006    0.5108 H   0  0  0  0  0  0  0  0  0  0  0  0
    4.2632   -2.5847    0.3662 H   0  0  0  0  0  0  0  0  0  0  0  0
    4.4475   -3.3479   -1.2162 H   0  0  0  0  0  0  0  0  0  0  0  0
    2.8766   -3.4158   -0.3499 H   0  0  0  0  0  0  0  0  0  0  0  0
  1  2  1  0
  2  3  1  0
  3  4  2  0
  4  5  1  0
  5  6  2  0
  6  7  1  0
  7  8  1  0
  8  9  1  0
  9 10  1  0
 10 11  1  0
 11 12  2  0
 12 13  1  0
 13 14  2  0
 14 15  1  0
 15 16  2  0
 10 17  2  0
 17 18  1  0
 18 19  1  0
 19 20  2  0
 19 21  2  0
 19 22  1  0
 22 23  2  0
 23 24  1  0
 24 25  2  0
 25 26  1  0
 25 27  1  0
 27 28  2  0
  7 29  2  0
 29 30  1  0
 30 31  1  0
 29  3  1  0
 18  8  1  0
 28 22  1  0
 16 11  1  0
  1 32  1  0
  1 33  1  0
  1 34  1  0
  4 35  1  0
  5 36  1  0
  6 37  1  0
  8 38  1  0
  9 39  1  0
  9 40  1  0
 12 41  1  0
 13 42  1  0
 14 43  1  0
 15 44  1  0
 16 45  1  0
 23 46  1  0
 24 47  1  0
 26 48  1  0
 26 49  1  0
 26 50  1  0
 27 51  1  0
 28 52  1  0
 31 53  1  0
 31 54  1  0
 31 55  1  0
M  END
$$$$
