
     RDKit          3D

 44 46  0  0  0  0  0  0  0  0999 V2000
   -3.3644    0.5825   -0.9699 O   0  0  0  0  0  0  0  0  0  0  0  0
   -2.4253    0.2626   -0.2458 C   0  0  0  0  0  0  0  0  0  0  0  0
   -0.9925    0.2190   -0.7441 C   0  0  0  0  0  0  0  0  0  0  0  0
   -0.0579    1.6133   -0.0351 S   0  0  0  0  0  0  0  0  0  0  0  0
    1.5223    1.3413   -0.8010 C   0  0  0  0  0  0  0  0  0  0  0  0
    2.4761    2.3429   -0.7905 C   0  0  0  0  0  0  0  0  0  0  0  0
    3.7163    2.1037   -1.3840 C   0  0  0  0  0  0  0  0  0  0  0  0
    3.9694    0.8687   -1.9698 C   0  0  0  0  0  0  0  0  0  0  0  0
    5.2447    0.5123   -2.6212 C   0  0  0  0  0  0  0  0  0  0  0  0
    5.6975   -0.8211   -2.6342 C   0  0  0  0  0  0  0  0  0  0  0  0
    6.9053   -1.1781   -3.2415 C   0  0  0  0  0  0  0  0  0  0  0  0
    7.6889   -0.2072   -3.8561 C   0  0  0  0  0  0  0  0  0  0  0  0
    7.2631    1.1174   -3.8673 C   0  0  0  0  0  0  0  0  0  0  0  0
    6.0542    1.4719   -3.2584 C   0  0  0  0  0  0  0  0  0  0  0  0
    3.0143   -0.0900   -1.9465 N   0  0  0  0  0  0  0  0  0  0  0  0
    1.7881    0.1466   -1.3605 N   0  0  0  0  0  0  0  0  0  0  0  0
   -2.5789   -0.1037    1.0779 N   0  0  0  0  0  0  0  0  0  0  0  0
   -3.8879   -0.2143    1.7034 C   0  0  0  0  0  0  0  0  0  0  0  0
   -3.7717   -0.0027    3.2169 C   0  0  0  0  0  0  0  0  0  0  0  0
   -5.1183   -0.1720    3.9152 C   0  0  0  0  0  0  0  0  0  0  0  0
   -5.7517   -1.5222    3.5935 C   0  0  0  0  0  0  0  0  0  0  0  0
   -5.8704   -1.7429    2.0886 C   0  0  0  0  0  0  0  0  0  0  0  0
   -4.5260   -1.5730    1.3855 C   0  0  0  0  0  0  0  0  0  0  0  0
   -0.5479   -0.7384   -0.4527 H   0  0  0  0  0  0  0  0  0  0  0  0
   -1.0011    0.2847   -1.8370 H   0  0  0  0  0  0  0  0  0  0  0  0
    2.2719    3.3032   -0.3279 H   0  0  0  0  0  0  0  0  0  0  0  0
    4.4719    2.8819   -1.3634 H   0  0  0  0  0  0  0  0  0  0  0  0
    5.1035   -1.6026   -2.1612 H   0  0  0  0  0  0  0  0  0  0  0  0
    7.2283   -2.2160   -3.2344 H   0  0  0  0  0  0  0  0  0  0  0  0
    8.6264   -0.4838   -4.3313 H   0  0  0  0  0  0  0  0  0  0  0  0
    7.8677    1.8771   -4.3567 H   0  0  0  0  0  0  0  0  0  0  0  0
    5.7460    2.5138   -3.3093 H   0  0  0  0  0  0  0  0  0  0  0  0
   -1.7682   -0.4427    1.5812 H   0  0  0  0  0  0  0  0  0  0  0  0
   -4.5259    0.5759    1.2864 H   0  0  0  0  0  0  0  0  0  0  0  0
   -3.0517   -0.7155    3.6403 H   0  0  0  0  0  0  0  0  0  0  0  0
   -3.3742    0.9983    3.4246 H   0  0  0  0  0  0  0  0  0  0  0  0
   -4.9863   -0.0756    4.9987 H   0  0  0  0  0  0  0  0  0  0  0  0
   -5.7950    0.6327    3.6026 H   0  0  0  0  0  0  0  0  0  0  0  0
   -6.7438   -1.5835    4.0548 H   0  0  0  0  0  0  0  0  0  0  0  0
   -5.1448   -2.3235    4.0327 H   0  0  0  0  0  0  0  0  0  0  0  0
   -6.5921   -1.0300    1.6711 H   0  0  0  0  0  0  0  0  0  0  0  0
   -6.2639   -2.7468    1.8934 H   0  0  0  0  0  0  0  0  0  0  0  0
   -4.6658   -1.6826    0.3034 H   0  0  0  0  0  0  0  0  0  0  0  0
   -3.8499   -2.3817    1.6929 H   0  0  0  0  0  0  0  0  0  0  0  0
  1  2  2  0
  2  3  1  0
  3  4  1  0
  4  5  1  0
  5  6  2  0
  6  7  1  0
  7  8  2  0
  8  9  1  0
  9 10  2  0
 10 11  1  0
 11 12  2  0
 12 13  1  0
 13 14  2  0
  8 15  1  0
 15 16  2  0
  2 17  1  0
 17 18  1  0
 18 19  1  0
 19 20  1  0
 20 21  1  0
 21 22  1  0
 22 23  1  0
 16  5  1  0
 23 18  1  0
 14  9  1  0
  3 24  1  0
  3 25  1  0
  6 26  1  0
  7 27  1  0
 10 28  1  0
 11 29  1  0
 12 30  1  0
 13 31  1  0
 14 32  1  0
 17 33  1  0
 18 34  1  0
 19 35  1  0
 19 36  1  0
 20 37  1  0
 20 38  1  0
 21 39  1  0
 21 40  1  0
 22 41  1  0
 22 42  1  0
 23 43  1  0
 23 44  1  0
M  END
$$$$
