
     RDKit          3D

 34 35  0  0  0  0  0  0  0  0999 V2000
   -0.7014   -0.8781   -2.2279 C   0  0  0  0  0  0  0  0  0  0  0  0
   -0.5886   -0.0341   -1.0418 N   0  0  0  0  0  0  0  0  0  0  0  0
    0.2450    1.0917   -0.9699 C   0  0  0  0  0  0  0  0  0  0  0  0
    0.0914    1.9208   -0.0702 O   0  0  0  0  0  0  0  0  0  0  0  0
    1.3126    1.2403   -2.0528 C   0  0  0  0  0  0  0  0  0  0  0  0
    2.6703    2.3438   -1.5655 S   0  0  0  0  0  0  0  0  0  0  0  0
    3.2907    1.4551   -0.1592 C   0  0  0  0  0  0  0  0  0  0  0  0
    4.0162    2.1621    0.7233 N   0  0  0  0  0  0  0  0  0  0  0  0
    4.5027    1.4866    1.7791 C   0  0  0  0  0  0  0  0  0  0  0  0
    4.3076    0.1409    1.9725 C   0  0  0  0  0  0  0  0  0  0  0  0
    3.5706   -0.4940    1.0021 C   0  0  0  0  0  0  0  0  0  0  0  0
    3.0565    0.1314   -0.0736 N   0  0  0  0  0  0  0  0  0  0  0  0
   -1.5349   -0.2367    0.0679 C   0  0  0  0  0  0  0  0  0  0  0  0
   -1.9656   -1.6929    0.3041 C   0  0  0  0  0  0  0  0  0  0  0  0
   -3.0140   -1.6265    1.4048 C   0  0  0  0  0  0  0  0  0  0  0  0
   -3.9879   -0.1816    1.0183 S   0  0  0  0  0  6  0  0  0  0  0  0
   -5.1431   -0.6062    0.2537 O   0  0  0  0  0  0  0  0  0  0  0  0
   -4.1075    0.6245    2.2141 O   0  0  0  0  0  0  0  0  0  0  0  0
   -2.8212    0.5773   -0.0981 C   0  0  0  0  0  0  0  0  0  0  0  0
   -0.3361   -1.8788   -1.9816 H   0  0  0  0  0  0  0  0  0  0  0  0
   -1.7512   -0.9301   -2.5310 H   0  0  0  0  0  0  0  0  0  0  0  0
   -0.1352   -0.4924   -3.0761 H   0  0  0  0  0  0  0  0  0  0  0  0
    0.8347    1.6661   -2.9406 H   0  0  0  0  0  0  0  0  0  0  0  0
    1.7394    0.2688   -2.3171 H   0  0  0  0  0  0  0  0  0  0  0  0
    5.0735    2.0816    2.4860 H   0  0  0  0  0  0  0  0  0  0  0  0
    4.7091   -0.3817    2.8289 H   0  0  0  0  0  0  0  0  0  0  0  0
    3.3662   -1.5589    1.0622 H   0  0  0  0  0  0  0  0  0  0  0  0
   -1.0390    0.1028    0.9887 H   0  0  0  0  0  0  0  0  0  0  0  0
   -1.1218   -2.3283    0.5915 H   0  0  0  0  0  0  0  0  0  0  0  0
   -2.4162   -2.1246   -0.5971 H   0  0  0  0  0  0  0  0  0  0  0  0
   -3.6549   -2.5100    1.4311 H   0  0  0  0  0  0  0  0  0  0  0  0
   -2.5506   -1.4695    2.3832 H   0  0  0  0  0  0  0  0  0  0  0  0
   -2.6916    1.6291    0.1667 H   0  0  0  0  0  0  0  0  0  0  0  0
   -3.2260    0.5016   -1.1117 H   0  0  0  0  0  0  0  0  0  0  0  0
  1  2  1  0
  2  3  1  0
  3  4  2  0
  3  5  1  0
  5  6  1  0
  6  7  1  0
  7  8  2  0
  8  9  1  0
  9 10  2  0
 10 11  1  0
 11 12  2  0
  2 13  1  0
 13 14  1  0
 14 15  1  0
 15 16  1  0
 16 17  2  0
 16 18  2  0
 16 19  1  0
 12  7  1  0
 19 13  1  0
  1 20  1  0
  1 21  1  0
  1 22  1  0
  5 23  1  0
  5 24  1  0
  9 25  1  0
 10 26  1  0
 11 27  1  0
 13 28  1  0
 14 29  1  0
 14 30  1  0
 15 31  1  0
 15 32  1  0
 19 33  1  0
 19 34  1  0
M  END
$$$$
