
     RDKit          3D

 64 67  0  0  0  0  0  0  0  0999 V2000
   -1.5060    0.7268   -4.0129 C   0  0  0  0  0  0  0  0  0  0  0  0
   -0.9993    0.3293   -2.7461 O   0  0  0  0  0  0  0  0  0  0  0  0
   -1.1867    1.1687   -1.6764 C   0  0  0  0  0  0  0  0  0  0  0  0
   -1.9041    2.3739   -1.7478 C   0  0  0  0  0  0  0  0  0  0  0  0
   -2.0721    3.1869   -0.6193 C   0  0  0  0  0  0  0  0  0  0  0  0
   -2.7593    4.3757   -0.6162 O   0  0  0  0  0  0  0  0  0  0  0  0
   -3.2597    4.8596   -1.8553 C   0  0  0  0  0  0  0  0  0  0  0  0
   -1.5205    2.7843    0.6059 C   0  0  0  0  0  0  0  0  0  0  0  0
   -1.6560    3.5778    1.8268 C   0  0  0  0  0  0  0  0  0  0  0  0
   -1.1098    3.1641    2.9729 C   0  0  0  0  0  0  0  0  0  0  0  0
   -0.3579    1.9065    3.0687 C   0  0  0  0  0  0  0  0  0  0  0  0
    0.1340    1.5439    4.1305 O   0  0  0  0  0  0  0  0  0  0  0  0
   -0.2504    1.1674    1.9026 O   0  0  0  0  0  0  0  0  0  0  0  0
   -0.8090    1.5807    0.6677 C   0  0  0  0  0  0  0  0  0  0  0  0
   -0.6196    0.7505   -0.4544 C   0  0  0  0  0  0  0  0  0  0  0  0
    0.1798   -0.5564   -0.3676 C   0  0  0  0  0  0  0  0  0  0  0  0
   -0.4986   -1.6245    0.5305 C   0  0  0  0  0  0  0  0  0  0  0  0
   -1.8534   -2.0824   -0.0354 C   0  0  0  0  0  0  0  0  0  0  0  0
   -2.5107   -3.0766    0.8207 N   0  0  0  0  0  0  0  0  0  0  0  0
   -3.8490   -3.4145    0.3311 C   0  0  0  0  0  0  0  0  0  0  0  0
   -4.1965   -4.6576    1.1316 C   0  0  0  0  0  0  0  0  0  0  0  0
   -2.8563   -5.3206    1.4259 C   0  0  0  0  0  0  0  0  0  0  0  0
   -1.8035   -4.3569    0.8932 C   0  0  0  0  0  0  0  0  0  0  0  0
    1.6576   -0.3007   -0.0633 C   0  0  0  0  0  0  0  0  0  0  0  0
    2.4827    0.2127   -1.0705 C   0  0  0  0  0  0  0  0  0  0  0  0
    3.8414    0.4728   -0.8346 C   0  0  0  0  0  0  0  0  0  0  0  0
    4.4433    0.2521    0.4150 C   0  0  0  0  0  0  0  0  0  0  0  0
    5.8036    0.5036    0.6432 N   0  0  0  0  0  0  0  0  0  0  0  0
    6.5214    1.3693   -0.2899 C   0  0  0  0  0  0  0  0  0  0  0  0
    6.2908    0.5238    2.0216 C   0  0  0  0  0  0  0  0  0  0  0  0
    3.6008   -0.2773    1.4070 C   0  0  0  0  0  0  0  0  0  0  0  0
    2.2402   -0.5439    1.1812 C   0  0  0  0  0  0  0  0  0  0  0  0
   -1.0491    1.6647   -4.3453 H   0  0  0  0  0  0  0  0  0  0  0  0
   -1.2381   -0.0484   -4.7375 H   0  0  0  0  0  0  0  0  0  0  0  0
   -2.5982    0.8002   -3.9943 H   0  0  0  0  0  0  0  0  0  0  0  0
   -2.3401    2.6787   -2.6899 H   0  0  0  0  0  0  0  0  0  0  0  0
   -2.4502    5.0172   -2.5754 H   0  0  0  0  0  0  0  0  0  0  0  0
   -4.0259    4.1897   -2.2585 H   0  0  0  0  0  0  0  0  0  0  0  0
   -3.7314    5.8293   -1.6689 H   0  0  0  0  0  0  0  0  0  0  0  0
   -2.2075    4.5112    1.7848 H   0  0  0  0  0  0  0  0  0  0  0  0
   -1.1967    3.7363    3.8880 H   0  0  0  0  0  0  0  0  0  0  0  0
    0.2025   -1.0297   -1.3588 H   0  0  0  0  0  0  0  0  0  0  0  0
   -0.6410   -1.2614    1.5545 H   0  0  0  0  0  0  0  0  0  0  0  0
    0.1708   -2.4917    0.5975 H   0  0  0  0  0  0  0  0  0  0  0  0
   -2.5151   -1.2113   -0.1097 H   0  0  0  0  0  0  0  0  0  0  0  0
   -1.7192   -2.4720   -1.0530 H   0  0  0  0  0  0  0  0  0  0  0  0
   -4.5693   -2.6095    0.5051 H   0  0  0  0  0  0  0  0  0  0  0  0
   -3.8394   -3.6522   -0.7401 H   0  0  0  0  0  0  0  0  0  0  0  0
   -4.8690   -5.3226    0.5806 H   0  0  0  0  0  0  0  0  0  0  0  0
   -4.6894   -4.3860    2.0730 H   0  0  0  0  0  0  0  0  0  0  0  0
   -2.7775   -6.2993    0.9400 H   0  0  0  0  0  0  0  0  0  0  0  0
   -2.7432   -5.4707    2.5061 H   0  0  0  0  0  0  0  0  0  0  0  0
   -0.9369   -4.3172    1.5605 H   0  0  0  0  0  0  0  0  0  0  0  0
   -1.4674   -4.6899   -0.0972 H   0  0  0  0  0  0  0  0  0  0  0  0
    2.0751    0.4155   -2.0590 H   0  0  0  0  0  0  0  0  0  0  0  0
    4.4157    0.8556   -1.6719 H   0  0  0  0  0  0  0  0  0  0  0  0
    6.5617    0.9276   -1.2913 H   0  0  0  0  0  0  0  0  0  0  0  0
    6.0598    2.3615   -0.3429 H   0  0  0  0  0  0  0  0  0  0  0  0
    7.5640    1.5061    0.0181 H   0  0  0  0  0  0  0  0  0  0  0  0
    7.3652    0.7360    2.0588 H   0  0  0  0  0  0  0  0  0  0  0  0
    6.1630   -0.4523    2.5015 H   0  0  0  0  0  0  0  0  0  0  0  0
    5.7812    1.2952    2.6094 H   0  0  0  0  0  0  0  0  0  0  0  0
    3.9759   -0.4973    2.4018 H   0  0  0  0  0  0  0  0  0  0  0  0
    1.6526   -0.9327    2.0096 H   0  0  0  0  0  0  0  0  0  0  0  0
  1  2  1  0
  2  3  1  0
  3  4  2  0
  4  5  1  0
  5  6  1  0
  6  7  1  0
  5  8  2  0
  8  9  1  0
  9 10  2  0
 10 11  1  0
 11 12  2  0
 11 13  1  0
 13 14  1  0
 14 15  2  0
 15 16  1  0
 16 17  1  0
 17 18  1  0
 18 19  1  0
 19 20  1  0
 20 21  1  0
 21 22  1  0
 22 23  1  0
 16 24  1  0
 24 25  2  0
 25 26  1  0
 26 27  2  0
 27 28  1  0
 28 29  1  0
 28 30  1  0
 27 31  1  0
 31 32  2  0
 15  3  1  0
 23 19  1  0
 32 24  1  0
 14  8  1  0
  1 33  1  0
  1 34  1  0
  1 35  1  0
  4 36  1  0
  7 37  1  0
  7 38  1  0
  7 39  1  0
  9 40  1  0
 10 41  1  0
 16 42  1  0
 17 43  1  0
 17 44  1  0
 18 45  1  0
 18 46  1  0
 20 47  1  0
 20 48  1  0
 21 49  1  0
 21 50  1  0
 22 51  1  0
 22 52  1  0
 23 53  1  0
 23 54  1  0
 25 55  1  0
 26 56  1  0
 29 57  1  0
 29 58  1  0
 29 59  1  0
 30 60  1  0
 30 61  1  0
 30 62  1  0
 31 63  1  0
 32 64  1  0
M  END
$$$$
