
     RDKit          3D

 57 60  0  0  0  0  0  0  0  0999 V2000
    5.7331   -0.6203    2.1509 C   0  0  0  0  0  0  0  0  0  0  0  0
    5.8760    0.3417    0.9808 C   0  0  0  0  0  0  0  0  0  0  0  0
    5.8546   -0.3780   -0.3522 C   0  0  0  0  0  0  0  0  0  0  0  0
    7.0987   -0.7163   -0.9157 C   0  0  0  0  0  0  0  0  0  0  0  0
    7.1743   -1.3556   -2.1462 C   0  0  0  0  0  0  0  0  0  0  0  0
    6.0052   -1.6979   -2.8149 C   0  0  0  0  0  0  0  0  0  0  0  0
    4.7406   -1.4082   -2.2683 C   0  0  0  0  0  0  0  0  0  0  0  0
    3.5500   -1.9352   -3.0256 C   0  0  0  0  0  0  0  0  0  0  0  0
    4.6612   -0.6964   -1.0500 C   0  0  0  0  0  0  0  0  0  0  0  0
    3.4282   -0.3416   -0.4483 N   0  0  0  0  0  0  0  0  0  0  0  0
    2.3227    0.1716   -1.1050 C   0  0  0  0  0  0  0  0  0  0  0  0
    2.2611    0.4954   -2.2850 O   0  0  0  0  0  0  0  0  0  0  0  0
    1.1410    0.4150   -0.2285 C   0  0  0  0  0  0  0  0  0  0  0  0
    0.8626   -0.4132    0.8669 C   0  0  0  0  0  0  0  0  0  0  0  0
   -0.2597   -0.1674    1.6632 C   0  0  0  0  0  0  0  0  0  0  0  0
   -1.1219    0.8997    1.3704 C   0  0  0  0  0  0  0  0  0  0  0  0
   -2.3344    1.1677    2.2407 C   0  0  0  0  0  0  0  0  0  0  0  0
   -3.5978    1.2654    1.4909 N   0  0  0  0  0  0  0  0  0  0  0  0
   -4.6879    1.6807    2.3881 C   0  0  0  0  0  0  0  0  0  0  0  0
   -5.9686    1.9763    1.5960 C   0  0  0  0  0  0  0  0  0  0  0  0
   -6.3146    0.8752    0.6282 C   0  0  0  0  0  0  0  0  0  0  0  0
   -7.5963    0.8073    0.0657 C   0  0  0  0  0  0  0  0  0  0  0  0
   -7.9076   -0.1897   -0.8584 C   0  0  0  0  0  0  0  0  0  0  0  0
   -6.9403   -1.1191   -1.2325 C   0  0  0  0  0  0  0  0  0  0  0  0
   -5.6591   -1.0528   -0.6842 C   0  0  0  0  0  0  0  0  0  0  0  0
   -5.3305   -0.0506    0.2412 C   0  0  0  0  0  0  0  0  0  0  0  0
   -3.9457   -0.0243    0.8577 C   0  0  0  0  0  0  0  0  0  0  0  0
   -0.8362    1.7218    0.2692 C   0  0  0  0  0  0  0  0  0  0  0  0
    0.2815    1.4756   -0.5317 C   0  0  0  0  0  0  0  0  0  0  0  0
    6.5387   -1.3635    2.1528 H   0  0  0  0  0  0  0  0  0  0  0  0
    4.7813   -1.1602    2.1166 H   0  0  0  0  0  0  0  0  0  0  0  0
    5.7765   -0.0718    3.0977 H   0  0  0  0  0  0  0  0  0  0  0  0
    5.0952    1.1100    1.0160 H   0  0  0  0  0  0  0  0  0  0  0  0
    6.8185    0.8939    1.0859 H   0  0  0  0  0  0  0  0  0  0  0  0
    8.0225   -0.4682   -0.3973 H   0  0  0  0  0  0  0  0  0  0  0  0
    8.1405   -1.5994   -2.5784 H   0  0  0  0  0  0  0  0  0  0  0  0
    6.0795   -2.2206   -3.7669 H   0  0  0  0  0  0  0  0  0  0  0  0
    2.7042   -2.1461   -2.3656 H   0  0  0  0  0  0  0  0  0  0  0  0
    3.7954   -2.8918   -3.5018 H   0  0  0  0  0  0  0  0  0  0  0  0
    3.2519   -1.2346   -3.8101 H   0  0  0  0  0  0  0  0  0  0  0  0
    3.4603   -0.1249    0.5370 H   0  0  0  0  0  0  0  0  0  0  0  0
    1.4921   -1.2699    1.0946 H   0  0  0  0  0  0  0  0  0  0  0  0
   -0.4646   -0.8243    2.5064 H   0  0  0  0  0  0  0  0  0  0  0  0
   -2.4130    0.4027    3.0247 H   0  0  0  0  0  0  0  0  0  0  0  0
   -2.1373    2.1178    2.7555 H   0  0  0  0  0  0  0  0  0  0  0  0
   -4.8838    0.9057    3.1409 H   0  0  0  0  0  0  0  0  0  0  0  0
   -4.4112    2.5934    2.9305 H   0  0  0  0  0  0  0  0  0  0  0  0
   -6.7936    2.1214    2.3035 H   0  0  0  0  0  0  0  0  0  0  0  0
   -5.8454    2.9067    1.0288 H   0  0  0  0  0  0  0  0  0  0  0  0
   -8.3564    1.5340    0.3435 H   0  0  0  0  0  0  0  0  0  0  0  0
   -8.9038   -0.2375   -1.2902 H   0  0  0  0  0  0  0  0  0  0  0  0
   -7.1821   -1.8945   -1.9541 H   0  0  0  0  0  0  0  0  0  0  0  0
   -4.9129   -1.7845   -0.9859 H   0  0  0  0  0  0  0  0  0  0  0  0
   -3.2234   -0.2392    0.0606 H   0  0  0  0  0  0  0  0  0  0  0  0
   -3.8961   -0.8411    1.5914 H   0  0  0  0  0  0  0  0  0  0  0  0
   -1.5010    2.5480    0.0214 H   0  0  0  0  0  0  0  0  0  0  0  0
    0.4777    2.1115   -1.3932 H   0  0  0  0  0  0  0  0  0  0  0  0
  1  2  1  0
  2  3  1  0
  3  4  2  0
  4  5  1  0
  5  6  2  0
  6  7  1  0
  7  8  1  0
  7  9  2  0
  9 10  1  0
 10 11  1  0
 11 12  2  0
 11 13  1  0
 13 14  2  0
 14 15  1  0
 15 16  2  0
 16 17  1  0
 17 18  1  0
 18 19  1  0
 19 20  1  0
 20 21  1  0
 21 22  2  0
 22 23  1  0
 23 24  2  0
 24 25  1  0
 25 26  2  0
 26 27  1  0
 16 28  1  0
 28 29  2  0
  9  3  1  0
 29 13  1  0
 27 18  1  0
 26 21  1  0
  1 30  1  0
  1 31  1  0
  1 32  1  0
  2 33  1  0
  2 34  1  0
  4 35  1  0
  5 36  1  0
  6 37  1  0
  8 38  1  0
  8 39  1  0
  8 40  1  0
 10 41  1  0
 14 42  1  0
 15 43  1  0
 17 44  1  0
 17 45  1  0
 19 46  1  0
 19 47  1  0
 20 48  1  0
 20 49  1  0
 22 50  1  0
 23 51  1  0
 24 52  1  0
 25 53  1  0
 27 54  1  0
 27 55  1  0
 28 56  1  0
 29 57  1  0
M  END
$$$$
