
     RDKit          3D

 54 56  0  0  0  0  0  0  0  0999 V2000
   -3.9087   -0.8696   -3.5006 C   0  0  0  0  0  0  0  0  0  0  0  0
   -4.4614   -0.2825   -2.2282 C   0  0  0  0  0  0  0  0  0  0  0  0
   -5.7558    0.2610   -2.3074 C   0  0  0  0  0  0  0  0  0  0  0  0
   -6.4091    0.7267   -1.1744 C   0  0  0  0  0  0  0  0  0  0  0  0
   -5.7740    0.6700    0.0604 C   0  0  0  0  0  0  0  0  0  0  0  0
   -4.4575    0.1841    0.1839 C   0  0  0  0  0  0  0  0  0  0  0  0
   -3.7930    0.1912    1.5618 C   0  0  0  0  0  0  0  0  0  0  0  0
   -4.0976   -1.1144    2.2991 C   0  0  0  0  0  0  0  0  0  0  0  0
   -4.1571    1.3928    2.4439 C   0  0  0  0  0  0  0  0  0  0  0  0
   -3.7884   -0.2863   -0.9836 C   0  0  0  0  0  0  0  0  0  0  0  0
   -2.4851   -0.8267   -0.8339 N   0  0  0  0  0  0  0  0  0  0  0  0
   -1.4051   -0.5786   -1.6722 C   0  0  0  0  0  0  0  0  0  0  0  0
   -1.4061    0.1652   -2.6482 O   0  0  0  0  0  0  0  0  0  0  0  0
   -0.1428   -1.3094   -1.2323 C   0  0  0  0  0  0  0  0  0  0  0  0
    0.8520   -0.3322   -0.6782 C   0  0  0  0  0  0  0  0  0  0  0  0
    0.7615    0.4405    0.4634 C   0  0  0  0  0  0  0  0  0  0  0  0
    1.9155    1.2531    0.6559 C   0  0  0  0  0  0  0  0  0  0  0  0
    2.8630    1.0708   -0.3338 C   0  0  0  0  0  0  0  0  0  0  0  0
    4.4712    1.8088   -0.5777 S   0  0  0  0  0  6  0  0  0  0  0  0
    4.6604    1.9326   -2.0056 O   0  0  0  0  0  0  0  0  0  0  0  0
    4.4519    2.9739    0.2839 O   0  0  0  0  0  0  0  0  0  0  0  0
    5.6461    0.7484    0.0326 N   0  0  0  0  0  0  0  0  0  0  0  0
    5.5932    0.4807    1.4962 C   0  0  0  0  0  0  0  0  0  0  0  0
    6.8736   -0.2426    1.9294 C   0  0  0  0  0  0  0  0  0  0  0  0
    7.0581   -1.4583    1.1879 O   0  0  0  0  0  0  0  0  0  0  0  0
    7.1677   -1.1724   -0.2163 C   0  0  0  0  0  0  0  0  0  0  0  0
    5.8922   -0.5013   -0.7385 C   0  0  0  0  0  0  0  0  0  0  0  0
    2.3418   -0.0764   -1.4872 S   0  0  0  0  0  0  0  0  0  0  0  0
   -4.7177   -1.2802   -4.1169 H   0  0  0  0  0  0  0  0  0  0  0  0
   -3.2326   -1.7066   -3.3059 H   0  0  0  0  0  0  0  0  0  0  0  0
   -3.3999   -0.1004   -4.0891 H   0  0  0  0  0  0  0  0  0  0  0  0
   -6.2761    0.2949   -3.2630 H   0  0  0  0  0  0  0  0  0  0  0  0
   -7.4186    1.1230   -1.2527 H   0  0  0  0  0  0  0  0  0  0  0  0
   -6.3261    1.0230    0.9276 H   0  0  0  0  0  0  0  0  0  0  0  0
   -2.7084    0.2731    1.4307 H   0  0  0  0  0  0  0  0  0  0  0  0
   -5.1715   -1.2211    2.4941 H   0  0  0  0  0  0  0  0  0  0  0  0
   -3.7813   -1.9865    1.7177 H   0  0  0  0  0  0  0  0  0  0  0  0
   -3.5746   -1.1479    3.2614 H   0  0  0  0  0  0  0  0  0  0  0  0
   -4.0183    2.3356    1.9036 H   0  0  0  0  0  0  0  0  0  0  0  0
   -5.1904    1.3483    2.8009 H   0  0  0  0  0  0  0  0  0  0  0  0
   -3.5128    1.4190    3.3285 H   0  0  0  0  0  0  0  0  0  0  0  0
   -2.2360   -1.1242    0.0975 H   0  0  0  0  0  0  0  0  0  0  0  0
    0.2458   -1.8555   -2.1019 H   0  0  0  0  0  0  0  0  0  0  0  0
   -0.3766   -2.0633   -0.4694 H   0  0  0  0  0  0  0  0  0  0  0  0
   -0.0962    0.4433    1.1248 H   0  0  0  0  0  0  0  0  0  0  0  0
    2.0524    1.9520    1.4735 H   0  0  0  0  0  0  0  0  0  0  0  0
    5.5076    1.4149    2.0574 H   0  0  0  0  0  0  0  0  0  0  0  0
    4.7241   -0.1502    1.7132 H   0  0  0  0  0  0  0  0  0  0  0  0
    7.7559    0.3953    1.7965 H   0  0  0  0  0  0  0  0  0  0  0  0
    6.8085   -0.5069    2.9902 H   0  0  0  0  0  0  0  0  0  0  0  0
    8.0482   -0.5417   -0.3867 H   0  0  0  0  0  0  0  0  0  0  0  0
    7.3287   -2.1220   -0.7347 H   0  0  0  0  0  0  0  0  0  0  0  0
    5.0477   -1.1836   -0.5991 H   0  0  0  0  0  0  0  0  0  0  0  0
    6.0114   -0.2815   -1.8031 H   0  0  0  0  0  0  0  0  0  0  0  0
  1  2  1  0
  2  3  2  0
  3  4  1  0
  4  5  2  0
  5  6  1  0
  6  7  1  0
  7  8  1  0
  7  9  1  0
  6 10  2  0
 10 11  1  0
 11 12  1  0
 12 13  2  0
 12 14  1  0
 14 15  1  0
 15 16  2  0
 16 17  1  0
 17 18  2  0
 18 19  1  0
 19 20  2  0
 19 21  2  0
 19 22  1  0
 22 23  1  0
 23 24  1  0
 24 25  1  0
 25 26  1  0
 26 27  1  0
 18 28  1  0
 10  2  1  0
 28 15  1  0
 27 22  1  0
  1 29  1  0
  1 30  1  0
  1 31  1  0
  3 32  1  0
  4 33  1  0
  5 34  1  0
  7 35  1  0
  8 36  1  0
  8 37  1  0
  8 38  1  0
  9 39  1  0
  9 40  1  0
  9 41  1  0
 11 42  1  0
 14 43  1  0
 14 44  1  0
 16 45  1  0
 17 46  1  0
 23 47  1  0
 23 48  1  0
 24 49  1  0
 24 50  1  0
 26 51  1  0
 26 52  1  0
 27 53  1  0
 27 54  1  0
M  END
$$$$
