
     RDKit          3D

 52 55  0  0  0  0  0  0  0  0999 V2000
   -5.7335    2.7062    0.1291 C   0  0  0  0  0  0  0  0  0  0  0  0
   -4.5911    2.0360    0.6583 O   0  0  0  0  0  0  0  0  0  0  0  0
   -4.8995    0.8874    1.3654 C   0  0  0  0  0  0  0  0  0  0  0  0
   -6.2122    0.5577    1.4871 N   0  0  0  0  0  0  0  0  0  0  0  0
   -6.5101   -0.5678    2.1701 C   0  0  0  0  0  0  0  0  0  0  0  0
   -5.5587   -1.3884    2.7446 C   0  0  0  0  0  0  0  0  0  0  0  0
   -4.2197   -1.0317    2.6114 C   0  0  0  0  0  0  0  0  0  0  0  0
   -3.8612    0.1305    1.9113 C   0  0  0  0  0  0  0  0  0  0  0  0
   -2.4061    0.4509    1.8069 C   0  0  0  0  0  0  0  0  0  0  0  0
   -1.5882   -0.3319    2.2814 O   0  0  0  0  0  0  0  0  0  0  0  0
   -2.0496    1.6225    1.1789 N   0  0  0  0  0  0  0  0  0  0  0  0
   -0.6877    2.0382    0.9044 C   0  0  0  0  0  0  0  0  0  0  0  0
    0.1924    2.1886    2.1658 C   0  0  0  0  0  0  0  0  0  0  0  0
    1.6829    2.3125    1.8039 C   0  0  0  0  0  0  0  0  0  0  0  0
    2.1986    1.0698    1.0489 C   0  0  0  0  0  0  0  0  0  0  0  0
    1.2523    0.6999   -0.0419 C   0  0  0  0  0  0  0  0  0  0  0  0
   -0.0560    1.1471   -0.1109 C   0  0  0  0  0  0  0  0  0  0  0  0
   -0.5334    0.6543   -1.3288 C   0  0  0  0  0  0  0  0  0  0  0  0
    0.3863   -0.0444   -1.9903 N   0  0  0  0  0  0  0  0  0  0  0  0
    1.4695   -0.0995   -1.1563 N   0  0  0  0  0  0  0  0  0  0  0  0
    2.5947   -0.8973   -1.5337 C   0  0  0  0  0  0  0  0  0  0  0  0
    3.6216   -1.2220   -0.6401 C   0  0  0  0  0  0  0  0  0  0  0  0
    4.7123   -2.0059   -1.0515 C   0  0  0  0  0  0  0  0  0  0  0  0
    5.7838   -2.3846   -0.0704 C   0  0  0  0  0  0  0  0  0  0  0  0
    4.7565   -2.4914   -2.3633 C   0  0  0  0  0  0  0  0  0  0  0  0
    3.7396   -2.1838   -3.2718 C   0  0  0  0  0  0  0  0  0  0  0  0
    3.7690   -2.7367   -4.6661 C   0  0  0  0  0  0  0  0  0  0  0  0
    2.6574   -1.4015   -2.8455 C   0  0  0  0  0  0  0  0  0  0  0  0
   -6.3962    3.0532    0.9294 H   0  0  0  0  0  0  0  0  0  0  0  0
   -5.3778    3.5882   -0.4124 H   0  0  0  0  0  0  0  0  0  0  0  0
   -6.2704    2.0726   -0.5853 H   0  0  0  0  0  0  0  0  0  0  0  0
   -7.5689   -0.8002    2.2444 H   0  0  0  0  0  0  0  0  0  0  0  0
   -5.8468   -2.2850    3.2826 H   0  0  0  0  0  0  0  0  0  0  0  0
   -3.4529   -1.6648    3.0545 H   0  0  0  0  0  0  0  0  0  0  0  0
   -2.7898    2.1808    0.7683 H   0  0  0  0  0  0  0  0  0  0  0  0
   -0.7743    3.0333    0.4470 H   0  0  0  0  0  0  0  0  0  0  0  0
    0.0781    1.3355    2.8432 H   0  0  0  0  0  0  0  0  0  0  0  0
   -0.1305    3.0711    2.7312 H   0  0  0  0  0  0  0  0  0  0  0  0
    1.8276    3.2064    1.1833 H   0  0  0  0  0  0  0  0  0  0  0  0
    2.2761    2.4565    2.7142 H   0  0  0  0  0  0  0  0  0  0  0  0
    2.2795    0.2384    1.7584 H   0  0  0  0  0  0  0  0  0  0  0  0
    3.1937    1.2964    0.6529 H   0  0  0  0  0  0  0  0  0  0  0  0
   -1.5076    0.7931   -1.7789 H   0  0  0  0  0  0  0  0  0  0  0  0
    3.5884   -0.9222    0.3992 H   0  0  0  0  0  0  0  0  0  0  0  0
    5.9287   -1.5941    0.6735 H   0  0  0  0  0  0  0  0  0  0  0  0
    6.7434   -2.5323   -0.5769 H   0  0  0  0  0  0  0  0  0  0  0  0
    5.5089   -3.3102    0.4446 H   0  0  0  0  0  0  0  0  0  0  0  0
    5.5862   -3.1220   -2.6774 H   0  0  0  0  0  0  0  0  0  0  0  0
    3.3058   -2.0391   -5.3717 H   0  0  0  0  0  0  0  0  0  0  0  0
    4.7986   -2.9004   -5.0012 H   0  0  0  0  0  0  0  0  0  0  0  0
    3.2305   -3.6886   -4.7024 H   0  0  0  0  0  0  0  0  0  0  0  0
    1.8599   -1.1816   -3.5547 H   0  0  0  0  0  0  0  0  0  0  0  0
  1  2  1  0
  2  3  1  0
  3  4  2  0
  4  5  1  0
  5  6  2  0
  6  7  1  0
  7  8  2  0
  8  9  1  0
  9 10  2  0
  9 11  1  0
 11 12  1  0
 12 13  1  0
 13 14  1  0
 14 15  1  0
 15 16  1  0
 16 17  2  0
 17 18  1  0
 18 19  2  0
 19 20  1  0
 20 21  1  0
 21 22  2  0
 22 23  1  0
 23 24  1  0
 23 25  2  0
 25 26  1  0
 26 27  1  0
 26 28  2  0
  8  3  1  0
 17 12  1  0
 28 21  1  0
 20 16  1  0
  1 29  1  0
  1 30  1  0
  1 31  1  0
  5 32  1  0
  6 33  1  0
  7 34  1  0
 11 35  1  0
 12 36  1  0
 13 37  1  0
 13 38  1  0
 14 39  1  0
 14 40  1  0
 15 41  1  0
 15 42  1  0
 18 43  1  0
 22 44  1  0
 24 45  1  0
 24 46  1  0
 24 47  1  0
 25 48  1  0
 27 49  1  0
 27 50  1  0
 27 51  1  0
 28 52  1  0
M  END
$$$$
