
     RDKit          3D

 35 37  0  0  0  0  0  0  0  0999 V2000
   -5.6869    0.5509    0.0112 C   0  0  0  0  0  0  0  0  0  0  0  0
   -4.2585    0.0839    0.0565 C   0  0  0  0  0  0  0  0  0  0  0  0
   -3.2267    1.0211   -0.1207 C   0  0  0  0  0  0  0  0  0  0  0  0
   -1.8872    0.6624   -0.0527 C   0  0  0  0  0  0  0  0  0  0  0  0
   -0.9365    1.5975   -0.2298 N   0  0  0  0  0  0  0  0  0  0  0  0
    0.3460    1.2000   -0.1360 C   0  0  0  0  0  0  0  0  0  0  0  0
    1.3649    2.1196   -0.3035 C   0  0  0  0  0  0  0  0  0  0  0  0
    2.7103    1.7400   -0.2135 C   0  0  0  0  0  0  0  0  0  0  0  0
    3.0892    0.4152    0.0399 C   0  0  0  0  0  0  0  0  0  0  0  0
    4.4308    0.0345    0.1484 N   0  0  0  0  0  0  0  0  0  0  0  0
    4.7698   -1.3879    0.1874 C   0  0  0  0  0  0  0  0  0  0  0  0
    5.4652    0.9153   -0.3935 C   0  0  0  0  0  0  0  0  0  0  0  0
    2.0310   -0.4939    0.2215 C   0  0  0  0  0  0  0  0  0  0  0  0
    0.6850   -0.1371    0.1348 C   0  0  0  0  0  0  0  0  0  0  0  0
   -0.2693   -1.0722    0.3092 N   0  0  0  0  0  0  0  0  0  0  0  0
   -1.5539   -0.6784    0.2154 C   0  0  0  0  0  0  0  0  0  0  0  0
   -2.5750   -1.6055    0.3868 C   0  0  0  0  0  0  0  0  0  0  0  0
   -3.9267   -1.2616    0.2601 C   0  0  0  0  0  0  0  0  0  0  0  0
   -4.9037   -2.2227    0.5547 N   0  0  0  0  0  0  0  0  0  0  0  0
   -6.2034    0.2898    0.9405 H   0  0  0  0  0  0  0  0  0  0  0  0
   -6.2072    0.0946   -0.8370 H   0  0  0  0  0  0  0  0  0  0  0  0
   -5.7524    1.6380   -0.1049 H   0  0  0  0  0  0  0  0  0  0  0  0
   -3.4657    2.0667   -0.3042 H   0  0  0  0  0  0  0  0  0  0  0  0
    1.1129    3.1578   -0.5038 H   0  0  0  0  0  0  0  0  0  0  0  0
    3.4506    2.5237   -0.3422 H   0  0  0  0  0  0  0  0  0  0  0  0
    5.8501   -1.5356    0.2971 H   0  0  0  0  0  0  0  0  0  0  0  0
    4.4584   -1.8916   -0.7343 H   0  0  0  0  0  0  0  0  0  0  0  0
    4.3111   -1.8813    1.0510 H   0  0  0  0  0  0  0  0  0  0  0  0
    5.4861    1.8739    0.1357 H   0  0  0  0  0  0  0  0  0  0  0  0
    5.3126    1.0888   -1.4645 H   0  0  0  0  0  0  0  0  0  0  0  0
    6.4639    0.4817   -0.2688 H   0  0  0  0  0  0  0  0  0  0  0  0
    2.2291   -1.5386    0.4417 H   0  0  0  0  0  0  0  0  0  0  0  0
   -2.2969   -2.6300    0.6216 H   0  0  0  0  0  0  0  0  0  0  0  0
   -5.8132   -2.0383    0.1445 H   0  0  0  0  0  0  0  0  0  0  0  0
   -4.6037   -3.1806    0.3986 H   0  0  0  0  0  0  0  0  0  0  0  0
  1  2  1  0
  2  3  2  0
  3  4  1  0
  4  5  2  0
  5  6  1  0
  6  7  2  0
  7  8  1  0
  8  9  2  0
  9 10  1  0
 10 11  1  0
 10 12  1  0
  9 13  1  0
 13 14  2  0
 14 15  1  0
 15 16  2  0
 16 17  1  0
 17 18  2  0
 18 19  1  0
 18  2  1  0
 16  4  1  0
 14  6  1  0
  1 20  1  0
  1 21  1  0
  1 22  1  0
  3 23  1  0
  7 24  1  0
  8 25  1  0
 11 26  1  0
 11 27  1  0
 11 28  1  0
 12 29  1  0
 12 30  1  0
 12 31  1  0
 13 32  1  0
 17 33  1  0
 19 34  1  0
 19 35  1  0
M  END
$$$$
