
     RDKit          3D

 41 44  0  0  0  0  0  0  0  0999 V2000
    1.6879    2.1006   -2.6190 O   0  0  0  0  0  0  0  0  0  0  0  0
    1.5229    1.2173   -1.7789 C   0  0  0  0  0  0  0  0  0  0  0  0
    2.6328    0.4403   -1.2752 C   0  0  0  0  0  0  0  0  0  0  0  0
    2.8869   -1.1380   -1.8627 S   0  0  0  0  0  0  0  0  0  0  0  0
    4.2946   -1.3528   -0.8949 C   0  0  0  0  0  0  0  0  0  0  0  0
    5.1031   -2.5051   -0.8292 C   0  0  0  0  0  0  0  0  0  0  0  0
    6.2167   -2.5052    0.0126 C   0  0  0  0  0  0  0  0  0  0  0  0
    6.5246   -1.3869    0.7727 C   0  0  0  0  0  0  0  0  0  0  0  0
    5.7206   -0.2452    0.7040 C   0  0  0  0  0  0  0  0  0  0  0  0
    4.5792   -0.2101   -0.1397 C   0  0  0  0  0  0  0  0  0  0  0  0
    3.6077    0.8241   -0.3841 C   0  0  0  0  0  0  0  0  0  0  0  0
    3.6675    2.3535    0.3964 Cl  0  0  0  0  0  0  0  0  0  0  0  0
    0.2560    0.9317   -1.2704 N   0  0  0  0  0  0  0  0  0  0  0  0
   -0.8973    1.6470   -1.8196 C   0  0  0  0  0  0  0  0  0  0  0  0
   -2.2225    0.8848   -1.6420 C   0  0  0  0  0  0  0  0  0  0  0  0
   -2.4592    0.5313   -0.2307 N   0  0  0  0  0  0  0  0  0  0  0  0
   -3.7444    0.2728    0.2345 C   0  0  0  0  0  0  0  0  0  0  0  0
   -4.0463    0.3427    1.6074 C   0  0  0  0  0  0  0  0  0  0  0  0
   -5.3340    0.0932    2.1037 C   0  0  0  0  0  0  0  0  0  0  0  0
   -6.3680   -0.2361    1.2356 C   0  0  0  0  0  0  0  0  0  0  0  0
   -6.1109   -0.3130   -0.1271 C   0  0  0  0  0  0  0  0  0  0  0  0
   -4.8242   -0.0613   -0.6111 C   0  0  0  0  0  0  0  0  0  0  0  0
   -4.6440   -0.1813   -1.9373 F   0  0  0  0  0  0  0  0  0  0  0  0
   -1.2817    0.3829    0.6380 C   0  0  0  0  0  0  0  0  0  0  0  0
   -0.0212    0.0064   -0.1652 C   0  0  0  0  0  0  0  0  0  0  0  0
    4.8675   -3.3818   -1.4265 H   0  0  0  0  0  0  0  0  0  0  0  0
    6.8482   -3.3891    0.0684 H   0  0  0  0  0  0  0  0  0  0  0  0
    7.3961   -1.3943    1.4233 H   0  0  0  0  0  0  0  0  0  0  0  0
    5.9800    0.6239    1.3049 H   0  0  0  0  0  0  0  0  0  0  0  0
   -0.7326    1.8586   -2.8819 H   0  0  0  0  0  0  0  0  0  0  0  0
   -0.9475    2.6094   -1.2954 H   0  0  0  0  0  0  0  0  0  0  0  0
   -3.0234    1.5297   -2.0223 H   0  0  0  0  0  0  0  0  0  0  0  0
   -2.1960   -0.0331   -2.2416 H   0  0  0  0  0  0  0  0  0  0  0  0
   -3.2816    0.6237    2.3266 H   0  0  0  0  0  0  0  0  0  0  0  0
   -5.5232    0.1651    3.1721 H   0  0  0  0  0  0  0  0  0  0  0  0
   -7.3665   -0.4295    1.6177 H   0  0  0  0  0  0  0  0  0  0  0  0
   -6.8995   -0.5718   -0.8264 H   0  0  0  0  0  0  0  0  0  0  0  0
   -1.4378   -0.4034    1.3862 H   0  0  0  0  0  0  0  0  0  0  0  0
   -1.1106    1.3286    1.1662 H   0  0  0  0  0  0  0  0  0  0  0  0
   -0.1554   -0.9853   -0.6137 H   0  0  0  0  0  0  0  0  0  0  0  0
    0.8354   -0.0439    0.5133 H   0  0  0  0  0  0  0  0  0  0  0  0
  1  2  2  0
  2  3  1  0
  3  4  1  0
  4  5  1  0
  5  6  2  0
  6  7  1  0
  7  8  2  0
  8  9  1  0
  9 10  2  0
 10 11  1  0
 11 12  1  0
  2 13  1  0
 13 14  1  0
 14 15  1  0
 15 16  1  0
 16 17  1  0
 17 18  2  0
 18 19  1  0
 19 20  2  0
 20 21  1  0
 21 22  2  0
 22 23  1  0
 16 24  1  0
 24 25  1  0
 11  3  2  0
 25 13  1  0
 10  5  1  0
 22 17  1  0
  6 26  1  0
  7 27  1  0
  8 28  1  0
  9 29  1  0
 14 30  1  0
 14 31  1  0
 15 32  1  0
 15 33  1  0
 18 34  1  0
 19 35  1  0
 20 36  1  0
 21 37  1  0
 24 38  1  0
 24 39  1  0
 25 40  1  0
 25 41  1  0
M  END
$$$$
