
     RDKit          3D

 36 38  0  0  0  0  0  0  0  0999 V2000
   -2.4044    4.7583   -0.1487 C   0  0  0  0  0  0  0  0  0  0  0  0
   -2.6618    3.2821   -0.0923 C   0  0  0  0  0  0  0  0  0  0  0  0
   -3.9607    2.7835   -0.1502 C   0  0  0  0  0  0  0  0  0  0  0  0
   -4.1849    1.4039   -0.1126 C   0  0  0  0  0  0  0  0  0  0  0  0
   -3.1431    0.4899   -0.0339 C   0  0  0  0  0  0  0  0  0  0  0  0
   -3.4428   -0.8114    0.0117 N   0  0  0  0  0  0  0  0  0  0  0  0
   -2.4320   -1.7035    0.1147 C   0  0  0  0  0  0  0  0  0  0  0  0
   -2.7741   -3.2008    0.1347 C   0  0  0  0  0  0  0  0  0  0  0  0
   -1.4464   -4.2149    0.8077 Cl  0  0  0  0  0  0  0  0  0  0  0  0
   -3.1071   -3.7588   -1.5446 Cl  0  0  0  0  0  0  0  0  0  0  0  0
   -4.2373   -3.5233    1.1392 Cl  0  0  0  0  0  0  0  0  0  0  0  0
   -1.1392   -1.3339    0.1181 N   0  0  0  0  0  0  0  0  0  0  0  0
   -0.8360   -0.0214    0.0484 C   0  0  0  0  0  0  0  0  0  0  0  0
    0.5383    0.3731    0.0624 N   0  0  0  0  0  0  0  0  0  0  0  0
    1.4492   -0.6404    0.1739 N   0  0  0  0  0  0  0  0  0  0  0  0
    2.6861   -0.2606    0.1662 C   0  0  0  0  0  0  0  0  0  0  0  0
    3.7886   -1.2330    0.2759 C   0  0  0  0  0  0  0  0  0  0  0  0
    3.5241   -2.5952    0.3972 C   0  0  0  0  0  0  0  0  0  0  0  0
    4.6040   -3.4516    0.4941 C   0  0  0  0  0  0  0  0  0  0  0  0
    5.8912   -3.0392    0.4767 N   0  0  0  0  0  0  0  0  0  0  0  0
    6.1110   -1.7118    0.3601 C   0  0  0  0  0  0  0  0  0  0  0  0
    5.1017   -0.7715    0.2570 C   0  0  0  0  0  0  0  0  0  0  0  0
   -1.8309    0.9698   -0.0073 C   0  0  0  0  0  0  0  0  0  0  0  0
   -1.6009    2.3727   -0.0320 C   0  0  0  0  0  0  0  0  0  0  0  0
   -2.2698    5.0751   -1.1875 H   0  0  0  0  0  0  0  0  0  0  0  0
   -3.2390    5.3182    0.2863 H   0  0  0  0  0  0  0  0  0  0  0  0
   -1.5065    5.0195    0.4211 H   0  0  0  0  0  0  0  0  0  0  0  0
   -4.8119    3.4580   -0.2155 H   0  0  0  0  0  0  0  0  0  0  0  0
   -5.2081    1.0337   -0.1432 H   0  0  0  0  0  0  0  0  0  0  0  0
    0.6959    1.0101   -0.7178 H   0  0  0  0  0  0  0  0  0  0  0  0
    2.9614    0.8064    0.0827 H   0  0  0  0  0  0  0  0  0  0  0  0
    2.5095   -2.9799    0.4180 H   0  0  0  0  0  0  0  0  0  0  0  0
    4.4605   -4.5242    0.5917 H   0  0  0  0  0  0  0  0  0  0  0  0
    7.1568   -1.4171    0.3522 H   0  0  0  0  0  0  0  0  0  0  0  0
    5.3429    0.2807    0.1667 H   0  0  0  0  0  0  0  0  0  0  0  0
   -0.5844    2.7576    0.0147 H   0  0  0  0  0  0  0  0  0  0  0  0
  1  2  1  0
  2  3  2  0
  3  4  1  0
  4  5  2  0
  5  6  1  0
  6  7  2  0
  7  8  1  0
  8  9  1  0
  8 10  1  0
  8 11  1  0
  7 12  1  0
 12 13  2  0
 13 14  1  0
 14 15  1  0
 15 16  2  3
 16 17  1  0
 17 18  2  0
 18 19  1  0
 19 20  2  0
 20 21  1  0
 21 22  2  0
 13 23  1  0
 23 24  2  0
 24  2  1  0
 23  5  1  0
 22 17  1  0
  1 25  1  0
  1 26  1  0
  1 27  1  0
  3 28  1  0
  4 29  1  0
 14 30  1  0
 16 31  1  0
 18 32  1  0
 19 33  1  0
 21 34  1  0
 22 35  1  0
 24 36  1  0
M  END
$$$$
