
     RDKit          3D

 45 47  0  0  0  0  0  0  0  0999 V2000
    1.9803   -2.5385   -2.5447 C   0  0  0  0  0  0  0  0  0  0  0  0
    1.8125   -1.4891   -1.6012 O   0  0  0  0  0  0  0  0  0  0  0  0
    2.8024   -0.5382   -1.5342 C   0  0  0  0  0  0  0  0  0  0  0  0
    3.8294   -0.3952   -2.4725 C   0  0  0  0  0  0  0  0  0  0  0  0
    4.7729    0.6228   -2.3274 C   0  0  0  0  0  0  0  0  0  0  0  0
    4.6911    1.5015   -1.2508 C   0  0  0  0  0  0  0  0  0  0  0  0
    3.6661    1.3682   -0.3109 C   0  0  0  0  0  0  0  0  0  0  0  0
    2.7174    0.3515   -0.4408 C   0  0  0  0  0  0  0  0  0  0  0  0
    1.6589    0.1484    0.4738 N   0  0  0  0  0  0  0  0  0  0  0  0
    1.3064    0.9189    1.5685 C   0  0  0  0  0  0  0  0  0  0  0  0
    1.9047    1.9173    1.9630 O   0  0  0  0  0  0  0  0  0  0  0  0
    0.0591    0.3832    2.2985 C   0  0  0  0  0  0  0  0  0  0  0  0
   -0.4352    1.3075    3.4126 C   0  0  0  0  0  0  0  0  0  0  0  0
   -1.3951    2.2358    2.6928 C   0  0  0  0  0  0  0  0  0  0  0  0
   -2.1211    1.2894    1.7508 C   0  0  0  0  0  0  0  0  0  0  0  0
   -1.0819    0.3188    1.3233 N   0  0  0  0  0  0  0  0  0  0  0  0
   -1.5852   -1.2404    0.9200 S   0  0  0  0  0  6  0  0  0  0  0  0
   -2.4198   -1.7285    1.9955 O   0  0  0  0  0  0  0  0  0  0  0  0
   -0.4078   -1.9658    0.4929 O   0  0  0  0  0  0  0  0  0  0  0  0
   -2.5897   -0.9581   -0.5132 C   0  0  0  0  0  0  0  0  0  0  0  0
   -1.9796   -0.4978   -1.6860 C   0  0  0  0  0  0  0  0  0  0  0  0
   -2.7577   -0.2773   -2.8236 C   0  0  0  0  0  0  0  0  0  0  0  0
   -4.1310   -0.5233   -2.7823 C   0  0  0  0  0  0  0  0  0  0  0  0
   -5.0876   -0.2528   -4.1862 Cl  0  0  0  0  0  0  0  0  0  0  0  0
   -4.7358   -0.9892   -1.6128 C   0  0  0  0  0  0  0  0  0  0  0  0
   -3.9636   -1.2109   -0.4703 C   0  0  0  0  0  0  0  0  0  0  0  0
    1.8943   -2.1608   -3.5687 H   0  0  0  0  0  0  0  0  0  0  0  0
    1.1726   -3.2600   -2.3879 H   0  0  0  0  0  0  0  0  0  0  0  0
    2.9297   -3.0630   -2.3940 H   0  0  0  0  0  0  0  0  0  0  0  0
    3.9184   -1.0531   -3.3300 H   0  0  0  0  0  0  0  0  0  0  0  0
    5.5717    0.7327   -3.0568 H   0  0  0  0  0  0  0  0  0  0  0  0
    5.4254    2.2953   -1.1372 H   0  0  0  0  0  0  0  0  0  0  0  0
    3.6409    2.0707    0.5154 H   0  0  0  0  0  0  0  0  0  0  0  0
    1.0735   -0.6622    0.2588 H   0  0  0  0  0  0  0  0  0  0  0  0
    0.3138   -0.5950    2.7216 H   0  0  0  0  0  0  0  0  0  0  0  0
    0.3594    1.8512    3.9309 H   0  0  0  0  0  0  0  0  0  0  0  0
   -0.9848    0.7225    4.1606 H   0  0  0  0  0  0  0  0  0  0  0  0
   -2.0779    2.7508    3.3741 H   0  0  0  0  0  0  0  0  0  0  0  0
   -0.8419    2.9923    2.1238 H   0  0  0  0  0  0  0  0  0  0  0  0
   -2.5299    1.8230    0.8885 H   0  0  0  0  0  0  0  0  0  0  0  0
   -2.9368    0.7894    2.2832 H   0  0  0  0  0  0  0  0  0  0  0  0
   -0.9076   -0.3099   -1.7173 H   0  0  0  0  0  0  0  0  0  0  0  0
   -2.2891    0.0829   -3.7360 H   0  0  0  0  0  0  0  0  0  0  0  0
   -5.8050   -1.1849   -1.5880 H   0  0  0  0  0  0  0  0  0  0  0  0
   -4.4367   -1.5805    0.4370 H   0  0  0  0  0  0  0  0  0  0  0  0
  1  2  1  0
  2  3  1  0
  3  4  2  0
  4  5  1  0
  5  6  2  0
  6  7  1  0
  7  8  2  0
  8  9  1  0
  9 10  1  0
 10 11  2  0
 10 12  1  0
 12 13  1  0
 13 14  1  0
 14 15  1  0
 15 16  1  0
 16 17  1  0
 17 18  2  0
 17 19  2  0
 17 20  1  0
 20 21  2  0
 21 22  1  0
 22 23  2  0
 23 24  1  0
 23 25  1  0
 25 26  2  0
  8  3  1  0
 16 12  1  0
 26 20  1  0
  1 27  1  0
  1 28  1  0
  1 29  1  0
  4 30  1  0
  5 31  1  0
  6 32  1  0
  7 33  1  0
  9 34  1  0
 12 35  1  0
 13 36  1  0
 13 37  1  0
 14 38  1  0
 14 39  1  0
 15 40  1  0
 15 41  1  0
 21 42  1  0
 22 43  1  0
 25 44  1  0
 26 45  1  0
M  END
$$$$
