
     RDKit          3D

 48 50  0  0  0  0  0  0  0  0999 V2000
    2.7834    1.2920    1.2689 C   0  0  0  0  0  0  0  0  0  0  0  0
    1.4736    1.0572    1.0964 C   0  0  0  0  0  0  0  0  0  0  0  0
    0.3743    1.7602    1.7595 C   0  0  0  0  0  0  0  0  0  0  0  0
    0.3735    2.7736    2.8242 C   0  0  0  0  0  0  0  0  0  0  0  0
   -0.6352    3.4071    3.1217 O   0  0  0  0  0  0  0  0  0  0  0  0
    1.5691    2.8811    3.4478 O   0  0  0  0  0  0  0  0  0  0  0  0
    1.5930    3.8315    4.5139 C   0  0  0  0  0  0  0  0  0  0  0  0
   -0.7871    1.3245    1.2321 C   0  0  0  0  0  0  0  0  0  0  0  0
   -2.0571    1.7193    1.5485 O   0  0  0  0  0  0  0  0  0  0  0  0
   -0.5319    0.2847    0.2351 C   0  0  0  0  0  0  0  0  0  0  0  0
   -1.4424   -0.4324   -0.4525 C   0  0  0  0  0  0  0  0  0  0  0  0
   -2.9019   -0.3073   -0.4127 C   0  0  0  0  0  0  0  0  0  0  0  0
   -3.6650   -1.2989    0.2142 C   0  0  0  0  0  0  0  0  0  0  0  0
   -5.0580   -1.2066    0.2313 C   0  0  0  0  0  0  0  0  0  0  0  0
   -5.6839   -0.1267   -0.3803 C   0  0  0  0  0  0  0  0  0  0  0  0
   -7.0461   -0.0743   -0.3384 O   0  0  0  0  0  0  0  0  0  0  0  0
   -4.9406    0.8649   -1.0133 C   0  0  0  0  0  0  0  0  0  0  0  0
   -3.5467    0.7708   -1.0319 C   0  0  0  0  0  0  0  0  0  0  0  0
    0.8713    0.1544    0.1989 N   0  0  0  0  0  0  0  0  0  0  0  0
    1.5830   -0.7158   -0.6696 C   0  0  0  0  0  0  0  0  0  0  0  0
    1.4464   -0.6135   -2.0627 C   0  0  0  0  0  0  0  0  0  0  0  0
    2.1325   -1.4788   -2.9250 C   0  0  0  0  0  0  0  0  0  0  0  0
    1.9924   -1.3346   -4.4114 C   0  0  0  0  0  0  0  0  0  0  0  0
    2.9922   -2.4414   -2.3827 C   0  0  0  0  0  0  0  0  0  0  0  0
    3.1586   -2.5548   -0.9972 C   0  0  0  0  0  0  0  0  0  0  0  0
    4.0449   -3.6195   -0.4222 C   0  0  0  0  0  0  0  0  0  0  0  0
    2.4403   -1.6990   -0.1517 C   0  0  0  0  0  0  0  0  0  0  0  0
    3.1697    2.0351    1.9543 H   0  0  0  0  0  0  0  0  0  0  0  0
    3.5315    0.7528    0.6975 H   0  0  0  0  0  0  0  0  0  0  0  0
    1.3660    4.8344    4.1390 H   0  0  0  0  0  0  0  0  0  0  0  0
    0.8896    3.5421    5.3009 H   0  0  0  0  0  0  0  0  0  0  0  0
    2.6014    3.8402    4.9368 H   0  0  0  0  0  0  0  0  0  0  0  0
   -1.9953    2.4398    2.2098 H   0  0  0  0  0  0  0  0  0  0  0  0
   -1.1079   -1.2254   -1.1161 H   0  0  0  0  0  0  0  0  0  0  0  0
   -3.1805   -2.1435    0.6972 H   0  0  0  0  0  0  0  0  0  0  0  0
   -5.6507   -1.9725    0.7224 H   0  0  0  0  0  0  0  0  0  0  0  0
   -7.3340    0.7457   -0.7712 H   0  0  0  0  0  0  0  0  0  0  0  0
   -5.4202    1.7124   -1.4913 H   0  0  0  0  0  0  0  0  0  0  0  0
   -2.9638    1.5473   -1.5208 H   0  0  0  0  0  0  0  0  0  0  0  0
    0.8011    0.1584   -2.4772 H   0  0  0  0  0  0  0  0  0  0  0  0
    0.9932   -0.9730   -4.6761 H   0  0  0  0  0  0  0  0  0  0  0  0
    2.7370   -0.6279   -4.7905 H   0  0  0  0  0  0  0  0  0  0  0  0
    2.1315   -2.2983   -4.9126 H   0  0  0  0  0  0  0  0  0  0  0  0
    3.5369   -3.1108   -3.0463 H   0  0  0  0  0  0  0  0  0  0  0  0
    4.4787   -3.2945    0.5293 H   0  0  0  0  0  0  0  0  0  0  0  0
    3.4694   -4.5351   -0.2548 H   0  0  0  0  0  0  0  0  0  0  0  0
    4.8770   -3.8426   -1.0983 H   0  0  0  0  0  0  0  0  0  0  0  0
    2.5370   -1.8023    0.9272 H   0  0  0  0  0  0  0  0  0  0  0  0
  1  2  2  0
  2  3  1  0
  3  4  1  0
  4  5  2  0
  4  6  1  0
  6  7  1  0
  3  8  2  0
  8  9  1  0
  8 10  1  0
 10 11  2  3
 11 12  1  0
 12 13  2  0
 13 14  1  0
 14 15  2  0
 15 16  1  0
 15 17  1  0
 17 18  2  0
 10 19  1  0
 19 20  1  0
 20 21  2  0
 21 22  1  0
 22 23  1  0
 22 24  2  0
 24 25  1  0
 25 26  1  0
 25 27  2  0
 19  2  1  0
 27 20  1  0
 18 12  1  0
  1 28  1  0
  1 29  1  0
  7 30  1  0
  7 31  1  0
  7 32  1  0
  9 33  1  0
 11 34  1  0
 13 35  1  0
 14 36  1  0
 16 37  1  0
 17 38  1  0
 18 39  1  0
 21 40  1  0
 23 41  1  0
 23 42  1  0
 23 43  1  0
 24 44  1  0
 26 45  1  0
 26 46  1  0
 26 47  1  0
 27 48  1  0
M  END
$$$$
