
     RDKit          3D

 37 39  0  0  0  0  0  0  0  0999 V2000
    1.5887   -0.2972   -1.6981 O   0  0  0  0  0  0  0  0  0  0  0  0
    1.5408    0.1426   -0.5511 C   0  0  0  0  0  0  0  0  0  0  0  0
    1.9220   -0.7059    0.6640 C   0  0  0  0  0  0  0  0  0  0  0  0
    2.1200   -2.1498    0.3064 C   0  0  0  0  0  0  0  0  0  0  0  0
    1.1668   -3.0879   -0.0415 C   0  0  0  0  0  0  0  0  0  0  0  0
    1.7374   -4.3655   -0.3099 C   0  0  0  0  0  0  0  0  0  0  0  0
    3.1044   -4.3631   -0.1529 C   0  0  0  0  0  0  0  0  0  0  0  0
    3.6943   -2.8294    0.3175 S   0  0  0  0  0  0  0  0  0  0  0  0
    1.2056    1.4687   -0.2549 N   0  0  0  0  0  0  0  0  0  0  0  0
    1.4188    2.1000    1.0179 C   0  0  0  0  0  0  0  0  0  0  0  0
    1.0415    3.5453    0.7641 C   0  0  0  0  0  0  0  0  0  0  0  0
    0.2261    3.5317   -0.4653 N   0  0  0  0  0  0  0  0  0  0  0  0
    0.4216    2.3585   -0.9847 C   0  0  0  0  0  0  0  0  0  0  0  0
   -0.3246    1.9109   -2.4736 S   0  0  0  0  0  0  0  0  0  0  0  0
   -2.0545    1.8771   -1.9363 C   0  0  0  0  0  0  0  0  0  0  0  0
   -2.3235    0.9165   -0.7982 C   0  0  0  0  0  0  0  0  0  0  0  0
   -2.4279    1.4281    0.5102 C   0  0  0  0  0  0  0  0  0  0  0  0
   -2.6423    0.5822    1.6004 C   0  0  0  0  0  0  0  0  0  0  0  0
   -2.7577   -0.7902    1.4027 C   0  0  0  0  0  0  0  0  0  0  0  0
   -2.6661   -1.3147    0.1138 C   0  0  0  0  0  0  0  0  0  0  0  0
   -2.4525   -0.4699   -0.9811 C   0  0  0  0  0  0  0  0  0  0  0  0
   -2.3688   -1.2013   -2.5424 Cl  0  0  0  0  0  0  0  0  0  0  0  0
    2.8324   -0.2907    1.1117 H   0  0  0  0  0  0  0  0  0  0  0  0
    1.1153   -0.6452    1.4044 H   0  0  0  0  0  0  0  0  0  0  0  0
    0.1098   -2.8651   -0.1221 H   0  0  0  0  0  0  0  0  0  0  0  0
    1.1731   -5.2380   -0.6142 H   0  0  0  0  0  0  0  0  0  0  0  0
    3.7903   -5.1861   -0.2992 H   0  0  0  0  0  0  0  0  0  0  0  0
    2.4527    1.9867    1.3561 H   0  0  0  0  0  0  0  0  0  0  0  0
    0.7493    1.6436    1.7554 H   0  0  0  0  0  0  0  0  0  0  0  0
    0.4784    3.9654    1.6027 H   0  0  0  0  0  0  0  0  0  0  0  0
    1.9297    4.1650    0.5990 H   0  0  0  0  0  0  0  0  0  0  0  0
   -2.6862    1.6258   -2.7951 H   0  0  0  0  0  0  0  0  0  0  0  0
   -2.3507    2.8940   -1.6499 H   0  0  0  0  0  0  0  0  0  0  0  0
   -2.3401    2.5003    0.6851 H   0  0  0  0  0  0  0  0  0  0  0  0
   -2.7268    0.9979    2.6017 H   0  0  0  0  0  0  0  0  0  0  0  0
   -2.9278   -1.4524    2.2477 H   0  0  0  0  0  0  0  0  0  0  0  0
   -2.7695   -2.3876   -0.0350 H   0  0  0  0  0  0  0  0  0  0  0  0
  1  2  2  0
  2  3  1  0
  3  4  1  0
  4  5  2  0
  5  6  1  0
  6  7  2  0
  7  8  1  0
  2  9  1  0
  9 10  1  0
 10 11  1  0
 11 12  1  0
 12 13  2  0
 13 14  1  0
 14 15  1  0
 15 16  1  0
 16 17  2  0
 17 18  1  0
 18 19  2  0
 19 20  1  0
 20 21  2  0
 21 22  1  0
  8  4  1  0
 13  9  1  0
 21 16  1  0
  3 23  1  0
  3 24  1  0
  5 25  1  0
  6 26  1  0
  7 27  1  0
 10 28  1  0
 10 29  1  0
 11 30  1  0
 11 31  1  0
 15 32  1  0
 15 33  1  0
 17 34  1  0
 18 35  1  0
 19 36  1  0
 20 37  1  0
M  END
$$$$
