
     RDKit          3D

 55 57  0  0  0  0  0  0  0  0999 V2000
   -9.6469   -0.8190   -1.2874 C   0  0  0  0  0  0  0  0  0  0  0  0
   -8.9124    0.2933   -0.7972 O   0  0  0  0  0  0  0  0  0  0  0  0
   -7.6263    0.0708   -0.3708 C   0  0  0  0  0  0  0  0  0  0  0  0
   -7.0020   -1.1811   -0.3638 C   0  0  0  0  0  0  0  0  0  0  0  0
   -5.6873   -1.3124    0.0906 C   0  0  0  0  0  0  0  0  0  0  0  0
   -4.9848   -0.1939    0.5415 C   0  0  0  0  0  0  0  0  0  0  0  0
   -3.6060   -0.3408    1.0134 C   0  0  0  0  0  0  0  0  0  0  0  0
   -2.5124   -0.1024    0.2785 C   0  0  0  0  0  0  0  0  0  0  0  0
   -2.4306    0.4147   -1.3554 S   0  0  0  0  0  0  0  0  0  0  0  0
   -0.6693    0.4175   -1.3660 C   0  0  0  0  0  0  0  0  0  0  0  0
    0.2009    0.8175   -2.7303 S   0  0  0  0  0  0  0  0  0  0  0  0
   -0.1954    0.0512   -0.1230 N   0  0  0  0  0  0  0  0  0  0  0  0
    1.2197   -0.0770    0.2327 C   0  0  0  0  0  0  0  0  0  0  0  0
    1.7333   -1.5011   -0.0161 C   0  0  0  0  0  0  0  0  0  0  0  0
    3.0559   -1.7890    0.6944 C   0  0  0  0  0  0  0  0  0  0  0  0
    4.2366   -1.0046    0.1441 C   0  0  0  0  0  0  0  0  0  0  0  0
    4.1180   -0.2334   -0.7983 O   0  0  0  0  0  0  0  0  0  0  0  0
    5.3994   -1.2838    0.8434 N   0  0  0  0  0  0  0  0  0  0  0  0
    6.6867   -0.7482    0.6250 C   0  0  0  0  0  0  0  0  0  0  0  0
    7.7084   -1.1899    1.4776 C   0  0  0  0  0  0  0  0  0  0  0  0
    9.0136   -0.7151    1.3377 C   0  0  0  0  0  0  0  0  0  0  0  0
    9.3108    0.2104    0.3408 C   0  0  0  0  0  0  0  0  0  0  0  0
    8.3019    0.6616   -0.5178 C   0  0  0  0  0  0  0  0  0  0  0  0
    8.6691    1.6531   -1.5585 C   0  0  0  0  0  0  0  0  0  0  0  0
    9.7763    2.1326   -1.7231 O   0  0  0  0  0  0  0  0  0  0  0  0
    7.6352    1.9988   -2.3428 O   0  0  0  0  0  0  0  0  0  0  0  0
    6.9912    0.1808   -0.3734 C   0  0  0  0  0  0  0  0  0  0  0  0
   -1.1448   -0.2790    0.8292 C   0  0  0  0  0  0  0  0  0  0  0  0
   -0.9176   -0.6768    1.9642 O   0  0  0  0  0  0  0  0  0  0  0  0
   -5.6027    1.0623    0.5379 C   0  0  0  0  0  0  0  0  0  0  0  0
   -6.9195    1.2036    0.0831 C   0  0  0  0  0  0  0  0  0  0  0  0
   -7.6039    2.3941    0.0476 O   0  0  0  0  0  0  0  0  0  0  0  0
   -6.9000    3.5713    0.4159 C   0  0  0  0  0  0  0  0  0  0  0  0
  -10.6361   -0.4603   -1.5889 H   0  0  0  0  0  0  0  0  0  0  0  0
   -9.1673   -1.2515   -2.1721 H   0  0  0  0  0  0  0  0  0  0  0  0
   -9.7913   -1.5722   -0.5060 H   0  0  0  0  0  0  0  0  0  0  0  0
   -7.5107   -2.0758   -0.7064 H   0  0  0  0  0  0  0  0  0  0  0  0
   -5.2192   -2.2942    0.0853 H   0  0  0  0  0  0  0  0  0  0  0  0
   -3.5096   -0.6766    2.0444 H   0  0  0  0  0  0  0  0  0  0  0  0
    1.8056    0.6568   -0.3268 H   0  0  0  0  0  0  0  0  0  0  0  0
    1.3276    0.1730    1.2950 H   0  0  0  0  0  0  0  0  0  0  0  0
    0.9930   -2.2258    0.3464 H   0  0  0  0  0  0  0  0  0  0  0  0
    1.8326   -1.6763   -1.0941 H   0  0  0  0  0  0  0  0  0  0  0  0
    2.9588   -1.5777    1.7660 H   0  0  0  0  0  0  0  0  0  0  0  0
    3.2877   -2.8555    0.5813 H   0  0  0  0  0  0  0  0  0  0  0  0
    5.3234   -1.9532    1.5996 H   0  0  0  0  0  0  0  0  0  0  0  0
    7.5039   -1.9103    2.2660 H   0  0  0  0  0  0  0  0  0  0  0  0
    9.7964   -1.0609    2.0091 H   0  0  0  0  0  0  0  0  0  0  0  0
   10.3286    0.5821    0.2356 H   0  0  0  0  0  0  0  0  0  0  0  0
    8.0120    2.6459   -2.9739 H   0  0  0  0  0  0  0  0  0  0  0  0
    6.2261    0.5451   -1.0516 H   0  0  0  0  0  0  0  0  0  0  0  0
   -5.0389    1.9174    0.8953 H   0  0  0  0  0  0  0  0  0  0  0  0
   -7.5797    4.4199    0.2923 H   0  0  0  0  0  0  0  0  0  0  0  0
   -6.5999    3.5382    1.4684 H   0  0  0  0  0  0  0  0  0  0  0  0
   -6.0379    3.7378   -0.2385 H   0  0  0  0  0  0  0  0  0  0  0  0
  1  2  1  0
  2  3  1  0
  3  4  2  0
  4  5  1  0
  5  6  2  0
  6  7  1  0
  7  8  2  3
  8  9  1  0
  9 10  1  0
 10 11  2  0
 10 12  1  0
 12 13  1  0
 13 14  1  0
 14 15  1  0
 15 16  1  0
 16 17  2  0
 16 18  1  0
 18 19  1  0
 19 20  2  0
 20 21  1  0
 21 22  2  0
 22 23  1  0
 23 24  1  0
 24 25  2  0
 24 26  1  0
 23 27  2  0
 12 28  1  0
 28 29  2  0
  6 30  1  0
 30 31  2  0
 31 32  1  0
 32 33  1  0
 31  3  1  0
 28  8  1  0
 27 19  1  0
  1 34  1  0
  1 35  1  0
  1 36  1  0
  4 37  1  0
  5 38  1  0
  7 39  1  0
 13 40  1  0
 13 41  1  0
 14 42  1  0
 14 43  1  0
 15 44  1  0
 15 45  1  0
 18 46  1  0
 20 47  1  0
 21 48  1  0
 22 49  1  0
 26 50  1  0
 27 51  1  0
 30 52  1  0
 33 53  1  0
 33 54  1  0
 33 55  1  0
M  END
$$$$
