
     RDKit          3D

 48 51  0  0  0  0  0  0  0  0999 V2000
    8.9597    1.1462   -0.8232 C   0  0  0  0  0  0  0  0  0  0  0  0
    8.2427    0.4243    0.1700 O   0  0  0  0  0  0  0  0  0  0  0  0
    6.8799    0.4164    0.0657 C   0  0  0  0  0  0  0  0  0  0  0  0
    6.1265    1.0566   -0.9152 C   0  0  0  0  0  0  0  0  0  0  0  0
    4.7261    0.9665   -0.9028 C   0  0  0  0  0  0  0  0  0  0  0  0
    4.0425    0.2395    0.0883 C   0  0  0  0  0  0  0  0  0  0  0  0
    2.5687    0.1383    0.1171 C   0  0  0  0  0  0  0  0  0  0  0  0
    1.7287    1.1595   -0.3145 C   0  0  0  0  0  0  0  0  0  0  0  0
    0.3468    0.9780   -0.2498 C   0  0  0  0  0  0  0  0  0  0  0  0
   -0.1913   -0.2156    0.2485 C   0  0  0  0  0  0  0  0  0  0  0  0
   -1.6385   -0.3724    0.3079 C   0  0  0  0  0  0  0  0  0  0  0  0
   -2.2947   -1.2293    1.1039 N   0  0  0  0  0  0  0  0  0  0  0  0
   -3.6364   -0.9930    0.8197 O   0  0  0  0  0  0  0  0  0  0  0  0
   -3.6767    0.0049   -0.1090 C   0  0  0  0  0  0  0  0  0  0  0  0
   -4.9814    0.4378   -0.6137 C   0  0  0  0  0  0  0  0  0  0  0  0
   -4.9926    1.2253   -1.7835 C   0  0  0  0  0  0  0  0  0  0  0  0
   -6.1865    1.6776   -2.3439 C   0  0  0  0  0  0  0  0  0  0  0  0
   -7.3940    1.3533   -1.7398 C   0  0  0  0  0  0  0  0  0  0  0  0
   -7.4089    0.5817   -0.5757 C   0  0  0  0  0  0  0  0  0  0  0  0
   -6.2139    0.1190   -0.0030 C   0  0  0  0  0  0  0  0  0  0  0  0
   -6.1705   -0.6188    1.1513 O   0  0  0  0  0  0  0  0  0  0  0  0
   -7.3990   -1.0476    1.7244 C   0  0  0  0  0  0  0  0  0  0  0  0
   -2.4757    0.4197   -0.4566 N   0  0  0  0  0  0  0  0  0  0  0  0
    0.7197   -1.1874    0.6583 C   0  0  0  0  0  0  0  0  0  0  0  0
    0.2415   -2.3989    1.1136 O   0  0  0  0  0  0  0  0  0  0  0  0
    1.2559   -3.3038    1.5324 C   0  0  0  0  0  0  0  0  0  0  0  0
    2.0686   -1.0240    0.6035 N   0  0  0  0  0  0  0  0  0  0  0  0
    4.8249   -0.4057    1.0614 C   0  0  0  0  0  0  0  0  0  0  0  0
    6.2212   -0.3158    1.0520 C   0  0  0  0  0  0  0  0  0  0  0  0
   10.0269    1.0513   -0.6004 H   0  0  0  0  0  0  0  0  0  0  0  0
    8.7075    2.2116   -0.7961 H   0  0  0  0  0  0  0  0  0  0  0  0
    8.7887    0.7241   -1.8191 H   0  0  0  0  0  0  0  0  0  0  0  0
    6.5920    1.6307   -1.7094 H   0  0  0  0  0  0  0  0  0  0  0  0
    4.1770    1.4628   -1.7002 H   0  0  0  0  0  0  0  0  0  0  0  0
    2.1255    2.0999   -0.6826 H   0  0  0  0  0  0  0  0  0  0  0  0
   -0.3085    1.7804   -0.5834 H   0  0  0  0  0  0  0  0  0  0  0  0
   -4.0537    1.4877   -2.2707 H   0  0  0  0  0  0  0  0  0  0  0  0
   -6.1700    2.2804   -3.2484 H   0  0  0  0  0  0  0  0  0  0  0  0
   -8.3288    1.7042   -2.1704 H   0  0  0  0  0  0  0  0  0  0  0  0
   -8.3763    0.3640   -0.1338 H   0  0  0  0  0  0  0  0  0  0  0  0
   -7.9722   -1.6611    1.0214 H   0  0  0  0  0  0  0  0  0  0  0  0
   -7.1630   -1.6705    2.5924 H   0  0  0  0  0  0  0  0  0  0  0  0
   -7.9861   -0.1941    2.0784 H   0  0  0  0  0  0  0  0  0  0  0  0
    0.7633   -4.2126    1.8918 H   0  0  0  0  0  0  0  0  0  0  0  0
    1.9054   -3.5865    0.6966 H   0  0  0  0  0  0  0  0  0  0  0  0
    1.8391   -2.8916    2.3634 H   0  0  0  0  0  0  0  0  0  0  0  0
    4.3437   -0.9880    1.8459 H   0  0  0  0  0  0  0  0  0  0  0  0
    6.7961   -0.8250    1.8217 H   0  0  0  0  0  0  0  0  0  0  0  0
  1  2  1  0
  2  3  1  0
  3  4  2  0
  4  5  1  0
  5  6  2  0
  6  7  1  0
  7  8  2  0
  8  9  1  0
  9 10  2  0
 10 11  1  0
 11 12  2  0
 12 13  1  0
 13 14  1  0
 14 15  1  0
 15 16  2  0
 16 17  1  0
 17 18  2  0
 18 19  1  0
 19 20  2  0
 20 21  1  0
 21 22  1  0
 14 23  2  0
 10 24  1  0
 24 25  1  0
 25 26  1  0
 24 27  2  0
  6 28  1  0
 28 29  2  0
 29  3  1  0
 27  7  1  0
 23 11  1  0
 20 15  1  0
  1 30  1  0
  1 31  1  0
  1 32  1  0
  4 33  1  0
  5 34  1  0
  8 35  1  0
  9 36  1  0
 16 37  1  0
 17 38  1  0
 18 39  1  0
 19 40  1  0
 22 41  1  0
 22 42  1  0
 22 43  1  0
 26 44  1  0
 26 45  1  0
 26 46  1  0
 28 47  1  0
 29 48  1  0
M  END
$$$$
