
     RDKit          3D

 59 62  0  0  0  0  0  0  0  0999 V2000
   -5.1526    2.7820   -2.2910 C   0  0  0  0  0  0  0  0  0  0  0  0
   -4.6243    1.5049   -1.6411 C   0  0  0  0  0  0  0  0  0  0  0  0
   -5.5505    0.3217   -1.9444 C   0  0  0  0  0  0  0  0  0  0  0  0
   -5.0747   -0.9265   -1.2114 C   0  0  0  0  0  0  0  0  0  0  0  0
   -4.8926   -0.6587    0.2828 C   0  0  0  0  0  0  0  0  0  0  0  0
   -3.9615    0.4599    0.5141 N   0  0  0  0  0  0  0  0  0  0  0  0
   -3.7368    0.6412    1.9607 C   0  0  0  0  0  0  0  0  0  0  0  0
   -2.4151    1.3625    2.2652 C   0  0  0  0  0  0  0  0  0  0  0  0
   -1.1893    0.5506    1.8458 C   0  0  0  0  0  0  0  0  0  0  0  0
   -0.9385   -0.5076    2.8292 N   0  0  0  0  0  0  0  0  0  0  0  0
   -0.3191   -1.9852    2.3353 S   0  0  0  0  0  6  0  0  0  0  0  0
   -1.2249   -2.5584    1.3645 O   0  0  0  0  0  0  0  0  0  0  0  0
    0.0541   -2.6940    3.5396 O   0  0  0  0  0  0  0  0  0  0  0  0
    1.1765   -1.5139    1.4976 C   0  0  0  0  0  0  0  0  0  0  0  0
    2.2891   -1.1162    2.2601 C   0  0  0  0  0  0  0  0  0  0  0  0
    3.4710   -0.7228    1.6231 C   0  0  0  0  0  0  0  0  0  0  0  0
    3.5191   -0.7500    0.2374 C   0  0  0  0  0  0  0  0  0  0  0  0
    2.4159   -1.1681   -0.5117 C   0  0  0  0  0  0  0  0  0  0  0  0
    1.2320   -1.5543    0.1003 C   0  0  0  0  0  0  0  0  0  0  0  0
    2.6959   -1.1012   -1.9791 C   0  0  0  0  0  0  0  0  0  0  0  0
    4.1723   -0.6846   -2.0049 C   0  0  0  0  0  0  0  0  0  0  0  0
    4.5802   -0.4068   -0.6184 N   0  0  0  0  0  0  0  0  0  0  0  0
    5.8057    0.0980   -0.2238 C   0  0  0  0  0  0  0  0  0  0  0  0
    6.1359    0.3750    0.9232 O   0  0  0  0  0  0  0  0  0  0  0  0
    6.7848    0.3438   -1.3258 C   0  0  0  0  0  0  0  0  0  0  0  0
    7.5385   -0.8084   -1.9516 C   0  0  0  0  0  0  0  0  0  0  0  0
    8.2668    0.1632   -1.0735 C   0  0  0  0  0  0  0  0  0  0  0  0
   -4.4599    1.6918   -0.1218 C   0  0  0  0  0  0  0  0  0  0  0  0
   -6.1333    3.0609   -1.8873 H   0  0  0  0  0  0  0  0  0  0  0  0
   -5.2558    2.6512   -3.3735 H   0  0  0  0  0  0  0  0  0  0  0  0
   -4.4652    3.6179   -2.1175 H   0  0  0  0  0  0  0  0  0  0  0  0
   -3.6360    1.2915   -2.0733 H   0  0  0  0  0  0  0  0  0  0  0  0
   -6.5768    0.5554   -1.6315 H   0  0  0  0  0  0  0  0  0  0  0  0
   -5.5803    0.1267   -3.0234 H   0  0  0  0  0  0  0  0  0  0  0  0
   -5.7977   -1.7384   -1.3569 H   0  0  0  0  0  0  0  0  0  0  0  0
   -4.1227   -1.2652   -1.6432 H   0  0  0  0  0  0  0  0  0  0  0  0
   -5.8676   -0.4553    0.7474 H   0  0  0  0  0  0  0  0  0  0  0  0
   -4.4969   -1.5747    0.7397 H   0  0  0  0  0  0  0  0  0  0  0  0
   -4.5721    1.1883    2.4175 H   0  0  0  0  0  0  0  0  0  0  0  0
   -3.7014   -0.3349    2.4632 H   0  0  0  0  0  0  0  0  0  0  0  0
   -2.3696    1.5763    3.3412 H   0  0  0  0  0  0  0  0  0  0  0  0
   -2.3898    2.3343    1.7599 H   0  0  0  0  0  0  0  0  0  0  0  0
   -0.3127    1.2101    1.8358 H   0  0  0  0  0  0  0  0  0  0  0  0
   -1.3140    0.1458    0.8361 H   0  0  0  0  0  0  0  0  0  0  0  0
   -0.6775   -0.2462    3.7777 H   0  0  0  0  0  0  0  0  0  0  0  0
    2.2408   -1.1129    3.3476 H   0  0  0  0  0  0  0  0  0  0  0  0
    4.3247   -0.4158    2.2191 H   0  0  0  0  0  0  0  0  0  0  0  0
    0.3753   -1.8700   -0.4891 H   0  0  0  0  0  0  0  0  0  0  0  0
    2.5467   -2.0681   -2.4690 H   0  0  0  0  0  0  0  0  0  0  0  0
    2.0672   -0.3434   -2.4581 H   0  0  0  0  0  0  0  0  0  0  0  0
    4.8002   -1.4919   -2.3986 H   0  0  0  0  0  0  0  0  0  0  0  0
    4.3299    0.2052   -2.6248 H   0  0  0  0  0  0  0  0  0  0  0  0
    6.5237    1.1850   -1.9600 H   0  0  0  0  0  0  0  0  0  0  0  0
    7.3746   -1.8077   -1.5622 H   0  0  0  0  0  0  0  0  0  0  0  0
    7.7296   -0.7714   -3.0181 H   0  0  0  0  0  0  0  0  0  0  0  0
    8.5806   -0.1688   -0.0883 H   0  0  0  0  0  0  0  0  0  0  0  0
    8.9471    0.8679   -1.5373 H   0  0  0  0  0  0  0  0  0  0  0  0
   -5.4175    1.9971    0.3261 H   0  0  0  0  0  0  0  0  0  0  0  0
   -3.7514    2.5135    0.0414 H   0  0  0  0  0  0  0  0  0  0  0  0
  1  2  1  0
  2  3  1  0
  3  4  1  0
  4  5  1  0
  5  6  1  0
  6  7  1  0
  7  8  1  0
  8  9  1  0
  9 10  1  0
 10 11  1  0
 11 12  2  0
 11 13  2  0
 11 14  1  0
 14 15  2  0
 15 16  1  0
 16 17  2  0
 17 18  1  0
 18 19  2  0
 18 20  1  0
 20 21  1  0
 21 22  1  0
 22 23  1  0
 23 24  2  0
 23 25  1  0
 25 26  1  0
 26 27  1  0
  6 28  1  0
 28  2  1  0
 19 14  1  0
 27 25  1  0
 22 17  1  0
  1 29  1  0
  1 30  1  0
  1 31  1  0
  2 32  1  0
  3 33  1  0
  3 34  1  0
  4 35  1  0
  4 36  1  0
  5 37  1  0
  5 38  1  0
  7 39  1  0
  7 40  1  0
  8 41  1  0
  8 42  1  0
  9 43  1  0
  9 44  1  0
 10 45  1  0
 15 46  1  0
 16 47  1  0
 19 48  1  0
 20 49  1  0
 20 50  1  0
 21 51  1  0
 21 52  1  0
 25 53  1  0
 26 54  1  0
 26 55  1  0
 27 56  1  0
 27 57  1  0
 28 58  1  0
 28 59  1  0
M  END
$$$$
