
     RDKit          3D

 36 38  0  0  0  0  0  0  0  0999 V2000
    5.6493    0.7792    0.0241 C   0  0  0  0  0  0  0  0  0  0  0  0
    4.6403    0.1708    0.8674 N   0  0  0  0  0  0  0  0  0  0  0  0
    4.7317    0.1149    2.2366 C   0  0  0  0  0  0  0  0  0  0  0  0
    3.5999   -0.4999    2.7168 C   0  0  0  0  0  0  0  0  0  0  0  0
    2.7992   -0.8300    1.5995 C   0  0  0  0  0  0  0  0  0  0  0  0
    3.4512   -0.4026    0.4554 C   0  0  0  0  0  0  0  0  0  0  0  0
    3.1467   -0.4988   -0.9266 C   0  0  0  0  0  0  0  0  0  0  0  0
    1.9425   -0.2768   -1.4748 C   0  0  0  0  0  0  0  0  0  0  0  0
    1.6947   -0.4870   -3.1888 S   0  0  0  0  0  0  0  0  0  0  0  0
   -0.0182   -0.0963   -3.1082 C   0  0  0  0  0  0  0  0  0  0  0  0
   -1.0096   -0.0410   -4.4486 S   0  0  0  0  0  0  0  0  0  0  0  0
   -0.3374    0.1815   -1.7984 N   0  0  0  0  0  0  0  0  0  0  0  0
   -1.6484    0.5029   -1.3889 N   0  0  0  0  0  0  0  0  0  0  0  0
   -2.4311   -0.5688   -0.9891 C   0  0  0  0  0  0  0  0  0  0  0  0
   -2.1199   -1.7418   -1.1700 O   0  0  0  0  0  0  0  0  0  0  0  0
   -3.6884   -0.2255   -0.2695 C   0  0  0  0  0  0  0  0  0  0  0  0
   -4.3501    0.9952   -0.4731 C   0  0  0  0  0  0  0  0  0  0  0  0
   -5.5299    1.2711    0.2233 C   0  0  0  0  0  0  0  0  0  0  0  0
   -6.0443    0.3296    1.1091 C   0  0  0  0  0  0  0  0  0  0  0  0
   -7.1756    0.5996    1.7725 F   0  0  0  0  0  0  0  0  0  0  0  0
   -5.4065   -0.8890    1.3097 C   0  0  0  0  0  0  0  0  0  0  0  0
   -4.2281   -1.1706    0.6159 C   0  0  0  0  0  0  0  0  0  0  0  0
    0.6666    0.1804   -0.8426 C   0  0  0  0  0  0  0  0  0  0  0  0
    0.5179    0.5702    0.3074 O   0  0  0  0  0  0  0  0  0  0  0  0
    6.3991    1.2725    0.6482 H   0  0  0  0  0  0  0  0  0  0  0  0
    5.1684    1.5200   -0.6197 H   0  0  0  0  0  0  0  0  0  0  0  0
    6.1221   -0.0080   -0.5684 H   0  0  0  0  0  0  0  0  0  0  0  0
    5.5889    0.5174    2.7605 H   0  0  0  0  0  0  0  0  0  0  0  0
    3.3739   -0.6923    3.7574 H   0  0  0  0  0  0  0  0  0  0  0  0
    1.8408   -1.3333    1.6316 H   0  0  0  0  0  0  0  0  0  0  0  0
    3.9633   -0.7993   -1.5813 H   0  0  0  0  0  0  0  0  0  0  0  0
   -1.7095    1.3584   -0.8439 H   0  0  0  0  0  0  0  0  0  0  0  0
   -3.9817    1.7278   -1.1860 H   0  0  0  0  0  0  0  0  0  0  0  0
   -6.0576    2.2085    0.0746 H   0  0  0  0  0  0  0  0  0  0  0  0
   -5.8299   -1.6122    1.9999 H   0  0  0  0  0  0  0  0  0  0  0  0
   -3.7301   -2.1269    0.7681 H   0  0  0  0  0  0  0  0  0  0  0  0
  1  2  1  0
  2  3  1  0
  3  4  2  0
  4  5  1  0
  5  6  2  0
  6  7  1  0
  7  8  2  3
  8  9  1  0
  9 10  1  0
 10 11  2  0
 10 12  1  0
 12 13  1  0
 13 14  1  0
 14 15  2  0
 14 16  1  0
 16 17  2  0
 17 18  1  0
 18 19  2  0
 19 20  1  0
 19 21  1  0
 21 22  2  0
 12 23  1  0
 23 24  2  0
  6  2  1  0
 23  8  1  0
 22 16  1  0
  1 25  1  0
  1 26  1  0
  1 27  1  0
  3 28  1  0
  4 29  1  0
  5 30  1  0
  7 31  1  0
 13 32  1  0
 17 33  1  0
 18 34  1  0
 21 35  1  0
 22 36  1  0
M  END
$$$$
