
     RDKit          3D

 56 60  0  0  0  0  0  0  0  0999 V2000
    5.2618    2.3953   -2.3558 C   0  0  0  0  0  0  0  0  0  0  0  0
    5.0947    0.9766   -1.9584 C   0  0  0  0  0  0  0  0  0  0  0  0
    4.9379    0.6538   -0.6685 N   0  0  0  0  0  0  0  0  0  0  0  0
    4.7910   -0.6902   -0.6720 N   0  0  0  0  0  0  0  0  0  0  0  0
    4.5942   -1.3755    0.6026 C   0  0  0  0  0  0  0  0  0  0  0  0
    3.1649   -1.8234    0.7942 C   0  0  0  0  0  0  0  0  0  0  0  0
    2.8473   -3.1873    0.8795 C   0  0  0  0  0  0  0  0  0  0  0  0
    1.5264   -3.6002    1.0662 C   0  0  0  0  0  0  0  0  0  0  0  0
    0.5047   -2.6559    1.1692 C   0  0  0  0  0  0  0  0  0  0  0  0
    0.8044   -1.2916    1.0825 C   0  0  0  0  0  0  0  0  0  0  0  0
   -0.2563   -0.2548    1.2014 C   0  0  0  0  0  0  0  0  0  0  0  0
    0.0021    0.8168    1.7329 O   0  0  0  0  0  0  0  0  0  0  0  0
   -1.4789   -0.5901    0.6547 N   0  0  0  0  0  0  0  0  0  0  0  0
   -2.6282    0.3192    0.5789 C   0  0  0  0  0  0  0  0  0  0  0  0
   -3.8126   -0.4468   -0.0714 C   0  0  0  0  0  0  0  0  0  0  0  0
   -5.0538    0.4519   -0.1891 C   0  0  0  0  0  0  0  0  0  0  0  0
   -5.4724    0.9185    1.2135 C   0  0  0  0  0  0  0  0  0  0  0  0
   -4.3243    1.7010    1.8694 C   0  0  0  0  0  0  0  0  0  0  0  0
   -3.9781    2.9207    0.9981 C   0  0  0  0  0  0  0  0  0  0  0  0
   -3.5572    2.4643   -0.4092 C   0  0  0  0  0  0  0  0  0  0  0  0
   -4.7096    1.6762   -1.0519 C   0  0  0  0  0  0  0  0  0  0  0  0
   -2.3192    1.5566   -0.2992 C   0  0  0  0  0  0  0  0  0  0  0  0
   -3.0872    0.7922    1.9817 C   0  0  0  0  0  0  0  0  0  0  0  0
    2.1315   -0.8791    0.9100 C   0  0  0  0  0  0  0  0  0  0  0  0
    4.8920   -1.2462   -1.9279 C   0  0  0  0  0  0  0  0  0  0  0  0
    4.7856   -2.7003   -2.1978 C   0  0  0  0  0  0  0  0  0  0  0  0
    5.0731   -0.1737   -2.7702 C   0  0  0  0  0  0  0  0  0  0  0  0
    5.2573   -0.1881   -4.6344 Br  0  0  0  0  0  0  0  0  0  0  0  0
    4.4315    2.7139   -2.9934 H   0  0  0  0  0  0  0  0  0  0  0  0
    6.1967    2.5328   -2.9080 H   0  0  0  0  0  0  0  0  0  0  0  0
    5.2887    3.0565   -1.4837 H   0  0  0  0  0  0  0  0  0  0  0  0
    4.8845   -0.6924    1.4097 H   0  0  0  0  0  0  0  0  0  0  0  0
    5.2931   -2.2186    0.6274 H   0  0  0  0  0  0  0  0  0  0  0  0
    3.6283   -3.9419    0.8076 H   0  0  0  0  0  0  0  0  0  0  0  0
    1.2953   -4.6601    1.1434 H   0  0  0  0  0  0  0  0  0  0  0  0
   -0.5128   -2.9933    1.3479 H   0  0  0  0  0  0  0  0  0  0  0  0
   -1.4939   -1.3906    0.0366 H   0  0  0  0  0  0  0  0  0  0  0  0
   -3.5260   -0.8098   -1.0676 H   0  0  0  0  0  0  0  0  0  0  0  0
   -4.0551   -1.3393    0.5210 H   0  0  0  0  0  0  0  0  0  0  0  0
   -5.8737   -0.1081   -0.6525 H   0  0  0  0  0  0  0  0  0  0  0  0
   -5.7385    0.0533    1.8331 H   0  0  0  0  0  0  0  0  0  0  0  0
   -6.3669    1.5499    1.1474 H   0  0  0  0  0  0  0  0  0  0  0  0
   -4.6286    2.0346    2.8678 H   0  0  0  0  0  0  0  0  0  0  0  0
   -4.8451    3.5893    0.9303 H   0  0  0  0  0  0  0  0  0  0  0  0
   -3.1682    3.4959    1.4634 H   0  0  0  0  0  0  0  0  0  0  0  0
   -3.3194    3.3386   -1.0255 H   0  0  0  0  0  0  0  0  0  0  0  0
   -5.5913    2.3203   -1.1570 H   0  0  0  0  0  0  0  0  0  0  0  0
   -4.4271    1.3557   -2.0622 H   0  0  0  0  0  0  0  0  0  0  0  0
   -1.9991    1.2386   -1.3002 H   0  0  0  0  0  0  0  0  0  0  0  0
   -1.4869    2.1348    0.1193 H   0  0  0  0  0  0  0  0  0  0  0  0
   -2.2900    1.3437    2.4931 H   0  0  0  0  0  0  0  0  0  0  0  0
   -3.3160   -0.0746    2.6157 H   0  0  0  0  0  0  0  0  0  0  0  0
    2.3576    0.1869    0.8580 H   0  0  0  0  0  0  0  0  0  0  0  0
    3.7440   -3.0271   -2.1236 H   0  0  0  0  0  0  0  0  0  0  0  0
    5.3863   -3.2810   -1.4912 H   0  0  0  0  0  0  0  0  0  0  0  0
    5.1414   -2.9478   -3.2025 H   0  0  0  0  0  0  0  0  0  0  0  0
  1  2  1  0
  2  3  2  0
  3  4  1  0
  4  5  1  0
  5  6  1  0
  6  7  2  0
  7  8  1  0
  8  9  2  0
  9 10  1  0
 10 11  1  0
 11 12  2  0
 11 13  1  0
 13 14  1  0
 14 15  1  0
 15 16  1  0
 16 17  1  0
 17 18  1  0
 18 19  1  0
 19 20  1  0
 20 21  1  0
 20 22  1  0
 18 23  1  0
 10 24  2  0
  4 25  1  0
 25 26  1  0
 25 27  2  0
 27 28  1  0
 27  2  1  0
 24  6  1  0
 22 14  1  0
 23 14  1  0
 21 16  1  0
  1 29  1  0
  1 30  1  0
  1 31  1  0
  5 32  1  0
  5 33  1  0
  7 34  1  0
  8 35  1  0
  9 36  1  0
 13 37  1  0
 15 38  1  0
 15 39  1  0
 16 40  1  0
 17 41  1  0
 17 42  1  0
 18 43  1  0
 19 44  1  0
 19 45  1  0
 20 46  1  0
 21 47  1  0
 21 48  1  0
 22 49  1  0
 22 50  1  0
 23 51  1  0
 23 52  1  0
 24 53  1  0
 26 54  1  0
 26 55  1  0
 26 56  1  0
M  END
$$$$
