
     RDKit          3D

 43 46  0  0  0  0  0  0  0  0999 V2000
   -1.7827    0.5071   -2.0636 O   0  0  0  0  0  0  0  0  0  0  0  0
   -1.2501    0.6260   -0.6552 P   0  0  0  0  0  5  0  0  0  0  0  0
   -1.5884   -0.5807    0.4468 N   0  0  0  0  0  0  0  0  0  0  0  0
   -2.7374   -1.4055    0.2866 C   0  0  0  0  0  0  0  0  0  0  0  0
   -2.5924   -2.8093    0.2566 C   0  0  0  0  0  0  0  0  0  0  0  0
   -1.0350   -3.5418    0.4510 Cl  0  0  0  0  0  0  0  0  0  0  0  0
   -3.6883   -3.6556    0.0610 C   0  0  0  0  0  0  0  0  0  0  0  0
   -4.9607   -3.1179   -0.1058 C   0  0  0  0  0  0  0  0  0  0  0  0
   -5.1351   -1.7364   -0.0652 C   0  0  0  0  0  0  0  0  0  0  0  0
   -4.0382   -0.8867    0.1324 C   0  0  0  0  0  0  0  0  0  0  0  0
   -4.3793    0.8050    0.2591 Cl  0  0  0  0  0  0  0  0  0  0  0  0
   -1.1740    2.2668    0.0297 C   0  0  0  0  0  0  0  0  0  0  0  0
   -1.3755    3.3831   -0.7952 C   0  0  0  0  0  0  0  0  0  0  0  0
   -1.3183    4.6742   -0.2696 C   0  0  0  0  0  0  0  0  0  0  0  0
   -1.0619    4.8630    1.0871 C   0  0  0  0  0  0  0  0  0  0  0  0
   -0.8654    3.7628    1.9197 C   0  0  0  0  0  0  0  0  0  0  0  0
   -0.9228    2.4712    1.3947 C   0  0  0  0  0  0  0  0  0  0  0  0
    0.4926    0.1754   -0.6327 C   0  0  0  0  0  0  0  0  0  0  0  0
    1.0151   -0.6684    0.2491 N   0  0  0  0  0  0  0  0  0  0  0  0
    2.3588   -0.8187   -0.0152 C   0  0  0  0  0  0  0  0  0  0  0  0
    2.8412   -0.0810   -1.0767 C   0  0  0  0  0  0  0  0  0  0  0  0
    1.5911    0.8222   -1.7932 S   0  0  0  0  0  0  0  0  0  0  0  0
    4.2499   -0.0941   -1.5649 C   0  0  0  0  0  0  0  0  0  0  0  0
    5.1720   -0.7212   -0.5028 C   0  0  0  0  0  0  0  0  0  0  0  0
    4.5625   -1.9908    0.1186 C   0  0  0  0  0  0  0  0  0  0  0  0
    3.2230   -1.7025    0.8194 C   0  0  0  0  0  0  0  0  0  0  0  0
   -0.7691   -1.1642    0.6479 H   0  0  0  0  0  0  0  0  0  0  0  0
   -3.5524   -4.7341    0.0340 H   0  0  0  0  0  0  0  0  0  0  0  0
   -5.8155   -3.7719   -0.2602 H   0  0  0  0  0  0  0  0  0  0  0  0
   -6.1342   -1.3214   -0.1802 H   0  0  0  0  0  0  0  0  0  0  0  0
   -1.5838    3.2420   -1.8550 H   0  0  0  0  0  0  0  0  0  0  0  0
   -1.4777    5.5320   -0.9180 H   0  0  0  0  0  0  0  0  0  0  0  0
   -1.0197    5.8689    1.4969 H   0  0  0  0  0  0  0  0  0  0  0  0
   -0.6703    3.9106    2.9788 H   0  0  0  0  0  0  0  0  0  0  0  0
   -0.7718    1.6185    2.0543 H   0  0  0  0  0  0  0  0  0  0  0  0
    4.5976    0.9180   -1.7999 H   0  0  0  0  0  0  0  0  0  0  0  0
    4.3031   -0.6870   -2.4861 H   0  0  0  0  0  0  0  0  0  0  0  0
    6.1422   -0.9552   -0.9554 H   0  0  0  0  0  0  0  0  0  0  0  0
    5.3594    0.0093    0.2949 H   0  0  0  0  0  0  0  0  0  0  0  0
    4.4080   -2.7349   -0.6734 H   0  0  0  0  0  0  0  0  0  0  0  0
    5.2635   -2.4294    0.8376 H   0  0  0  0  0  0  0  0  0  0  0  0
    2.7078   -2.6448    1.0355 H   0  0  0  0  0  0  0  0  0  0  0  0
    3.4121   -1.2024    1.7768 H   0  0  0  0  0  0  0  0  0  0  0  0
  1  2  2  0
  2  3  1  0
  3  4  1  0
  4  5  2  0
  5  6  1  0
  5  7  1  0
  7  8  2  0
  8  9  1  0
  9 10  2  0
 10 11  1  0
  2 12  1  0
 12 13  2  0
 13 14  1  0
 14 15  2  0
 15 16  1  0
 16 17  2  0
  2 18  1  0
 18 19  2  0
 19 20  1  0
 20 21  2  0
 21 22  1  0
 21 23  1  0
 23 24  1  0
 24 25  1  0
 25 26  1  0
 10  4  1  0
 17 12  1  0
 22 18  1  0
 26 20  1  0
  3 27  1  0
  7 28  1  0
  8 29  1  0
  9 30  1  0
 13 31  1  0
 14 32  1  0
 15 33  1  0
 16 34  1  0
 17 35  1  0
 23 36  1  0
 23 37  1  0
 24 38  1  0
 24 39  1  0
 25 40  1  0
 25 41  1  0
 26 42  1  0
 26 43  1  0
M  END
$$$$
