
     RDKit          3D

 29 31  0  0  0  0  0  0  0  0999 V2000
   -0.5060    1.4554   -0.6552 O   0  0  0  0  0  0  0  0  0  0  0  0
    0.0970    0.5141   -0.1494 C   0  0  0  0  0  0  0  0  0  0  0  0
   -0.4581   -0.4627    0.6703 N   0  0  0  0  0  0  0  0  0  0  0  0
   -1.7530   -0.4668    1.1288 N   0  0  0  0  0  0  0  0  0  0  0  0
   -2.6881   -0.0026    0.3590 C   0  0  0  0  0  0  0  0  0  0  0  0
   -4.0716    0.0672    0.7793 C   0  0  0  0  0  0  0  0  0  0  0  0
   -5.1403    0.5464    0.0455 C   0  0  0  0  0  0  0  0  0  0  0  0
   -6.3705    0.4700    0.7620 C   0  0  0  0  0  0  0  0  0  0  0  0
   -6.1999   -0.0646    2.0189 C   0  0  0  0  0  0  0  0  0  0  0  0
   -4.5673   -0.4686    2.3273 S   0  0  0  0  0  0  0  0  0  0  0  0
    1.5654    0.3916   -0.3776 C   0  0  0  0  0  0  0  0  0  0  0  0
    2.3014    1.5709   -0.6352 C   0  0  0  0  0  0  0  0  0  0  0  0
    3.6808    1.5194   -0.8609 C   0  0  0  0  0  0  0  0  0  0  0  0
    4.2862    0.2825   -0.8316 C   0  0  0  0  0  0  0  0  0  0  0  0
    3.5713   -0.8688   -0.5952 C   0  0  0  0  0  0  0  0  0  0  0  0
    2.2105   -0.8540   -0.3687 C   0  0  0  0  0  0  0  0  0  0  0  0
    4.3557   -1.9797   -0.6207 O   0  0  0  0  0  0  0  0  0  0  0  0
    5.6464   -1.3965   -0.9007 C   0  0  0  0  0  0  0  0  0  0  0  0
    5.6085    0.0398   -1.0315 O   0  0  0  0  0  0  0  0  0  0  0  0
    0.1685   -0.9892    1.2722 H   0  0  0  0  0  0  0  0  0  0  0  0
   -2.4940    0.3331   -0.6737 H   0  0  0  0  0  0  0  0  0  0  0  0
   -5.0460    0.9384   -0.9605 H   0  0  0  0  0  0  0  0  0  0  0  0
   -7.3299    0.7923    0.3759 H   0  0  0  0  0  0  0  0  0  0  0  0
   -6.9536   -0.2375    2.7748 H   0  0  0  0  0  0  0  0  0  0  0  0
    1.7924    2.5338   -0.6570 H   0  0  0  0  0  0  0  0  0  0  0  0
    4.2529    2.4197   -1.0559 H   0  0  0  0  0  0  0  0  0  0  0  0
    1.6797   -1.7870   -0.2190 H   0  0  0  0  0  0  0  0  0  0  0  0
    6.3325   -1.6568   -0.0866 H   0  0  0  0  0  0  0  0  0  0  0  0
    6.0292   -1.8242   -1.8345 H   0  0  0  0  0  0  0  0  0  0  0  0
  1  2  2  0
  2  3  1  0
  3  4  1  0
  4  5  2  3
  5  6  1  0
  6  7  2  0
  7  8  1  0
  8  9  2  0
  9 10  1  0
  2 11  1  0
 11 12  2  0
 12 13  1  0
 13 14  2  0
 14 15  1  0
 15 16  2  0
 15 17  1  0
 17 18  1  0
 18 19  1  0
 10  6  1  0
 16 11  1  0
 19 14  1  0
  3 20  1  0
  5 21  1  0
  7 22  1  0
  8 23  1  0
  9 24  1  0
 12 25  1  0
 13 26  1  0
 16 27  1  0
 18 28  1  0
 18 29  1  0
M  END
$$$$
