
     RDKit          3D

 55 59  0  0  0  0  0  0  0  0999 V2000
   -9.0522    1.6231   -1.0688 C   0  0  0  0  0  0  0  0  0  0  0  0
   -7.6643    1.3174   -0.5895 C   0  0  0  0  0  0  0  0  0  0  0  0
   -6.8902    0.3484   -1.2363 C   0  0  0  0  0  0  0  0  0  0  0  0
   -5.6082    0.0399   -0.7743 C   0  0  0  0  0  0  0  0  0  0  0  0
   -5.0828    0.6854    0.3536 C   0  0  0  0  0  0  0  0  0  0  0  0
   -3.6940    0.3634    0.8468 C   0  0  0  0  0  0  0  0  0  0  0  0
   -2.4490    1.3834    0.0030 S   0  0  0  0  0  0  0  0  0  0  0  0
   -0.9720    0.7310    0.7041 C   0  0  0  0  0  0  0  0  0  0  0  0
   -1.0630   -0.0120    1.7707 N   0  0  0  0  0  0  0  0  0  0  0  0
    0.1079   -0.5482    2.3551 C   0  0  0  0  0  0  0  0  0  0  0  0
   -0.0092   -1.3510    3.4906 C   0  0  0  0  0  0  0  0  0  0  0  0
    1.1286   -1.9014    4.0878 C   0  0  0  0  0  0  0  0  0  0  0  0
    2.3933   -1.6528    3.5518 C   0  0  0  0  0  0  0  0  0  0  0  0
    2.5259   -0.8517    2.4177 C   0  0  0  0  0  0  0  0  0  0  0  0
    1.3866   -0.3013    1.8254 C   0  0  0  0  0  0  0  0  0  0  0  0
    1.4475    0.5375    0.6447 C   0  0  0  0  0  0  0  0  0  0  0  0
    2.5012    0.9253   -0.0403 N   0  0  0  0  0  0  0  0  0  0  0  0
    2.0006    1.6756   -1.0837 C   0  0  0  0  0  0  0  0  0  0  0  0
    2.9228    2.2625   -2.0968 C   0  0  0  0  0  0  0  0  0  0  0  0
    3.7242    1.1902   -2.8167 C   0  0  0  0  0  0  0  0  0  0  0  0
    3.7229    1.0722   -4.0403 O   0  0  0  0  0  0  0  0  0  0  0  0
    4.4968    0.4040   -1.9874 N   0  0  0  0  0  0  0  0  0  0  0  0
    5.1680   -0.7619   -2.5038 C   0  0  0  0  0  0  0  0  0  0  0  0
    6.0739   -1.2813   -1.4524 C   0  0  0  0  0  0  0  0  0  0  0  0
    7.4262   -1.1388   -1.2123 C   0  0  0  0  0  0  0  0  0  0  0  0
    7.7016   -1.8698   -0.0320 C   0  0  0  0  0  0  0  0  0  0  0  0
    6.5033   -2.4104    0.3742 C   0  0  0  0  0  0  0  0  0  0  0  0
    5.5080   -2.0563   -0.4793 O   0  0  0  0  0  0  0  0  0  0  0  0
    0.6221    1.7699   -1.0063 C   0  0  0  0  0  0  0  0  0  0  0  0
   -0.2233    2.4147   -1.8077 O   0  0  0  0  0  0  0  0  0  0  0  0
    0.2704    1.0259    0.1126 N   0  0  0  0  0  0  0  0  0  0  0  0
   -5.8629    1.6511    1.0039 C   0  0  0  0  0  0  0  0  0  0  0  0
   -7.1451    1.9575    0.5412 C   0  0  0  0  0  0  0  0  0  0  0  0
   -9.7679    0.9374   -0.6050 H   0  0  0  0  0  0  0  0  0  0  0  0
   -9.1190    1.5228   -2.1568 H   0  0  0  0  0  0  0  0  0  0  0  0
   -9.3350    2.6515   -0.8199 H   0  0  0  0  0  0  0  0  0  0  0  0
   -7.2799   -0.1719   -2.1086 H   0  0  0  0  0  0  0  0  0  0  0  0
   -5.0227   -0.7096   -1.3022 H   0  0  0  0  0  0  0  0  0  0  0  0
   -3.6440    0.5318    1.9285 H   0  0  0  0  0  0  0  0  0  0  0  0
   -3.4838   -0.6983    0.6723 H   0  0  0  0  0  0  0  0  0  0  0  0
   -0.9915   -1.5498    3.9117 H   0  0  0  0  0  0  0  0  0  0  0  0
    1.0270   -2.5266    4.9720 H   0  0  0  0  0  0  0  0  0  0  0  0
    3.2765   -2.0841    4.0171 H   0  0  0  0  0  0  0  0  0  0  0  0
    3.5110   -0.6608    1.9969 H   0  0  0  0  0  0  0  0  0  0  0  0
    3.6237    2.9496   -1.6098 H   0  0  0  0  0  0  0  0  0  0  0  0
    2.3641    2.8366   -2.8445 H   0  0  0  0  0  0  0  0  0  0  0  0
    4.1715    0.3509   -1.0215 H   0  0  0  0  0  0  0  0  0  0  0  0
    4.4101   -1.5050   -2.7750 H   0  0  0  0  0  0  0  0  0  0  0  0
    5.7220   -0.4924   -3.4089 H   0  0  0  0  0  0  0  0  0  0  0  0
    8.1201   -0.5709   -1.8168 H   0  0  0  0  0  0  0  0  0  0  0  0
    8.6549   -1.9878    0.4629 H   0  0  0  0  0  0  0  0  0  0  0  0
    6.2059   -3.0354    1.2047 H   0  0  0  0  0  0  0  0  0  0  0  0
   -1.1447    2.3039   -1.4999 H   0  0  0  0  0  0  0  0  0  0  0  0
   -5.4782    2.1724    1.8781 H   0  0  0  0  0  0  0  0  0  0  0  0
   -7.7356    2.7031    1.0694 H   0  0  0  0  0  0  0  0  0  0  0  0
  1  2  1  0
  2  3  2  0
  3  4  1  0
  4  5  2  0
  5  6  1  0
  6  7  1  0
  7  8  1  0
  8  9  2  0
  9 10  1  0
 10 11  2  0
 11 12  1  0
 12 13  2  0
 13 14  1  0
 14 15  2  0
 15 16  1  0
 16 17  2  0
 17 18  1  0
 18 19  1  0
 19 20  1  0
 20 21  2  0
 20 22  1  0
 22 23  1  0
 23 24  1  0
 24 25  2  0
 25 26  1  0
 26 27  2  0
 27 28  1  0
 18 29  2  0
 29 30  1  0
 29 31  1  0
  5 32  1  0
 32 33  2  0
 33  2  1  0
 31  8  1  0
 15 10  1  0
 31 16  1  0
 28 24  1  0
  1 34  1  0
  1 35  1  0
  1 36  1  0
  3 37  1  0
  4 38  1  0
  6 39  1  0
  6 40  1  0
 11 41  1  0
 12 42  1  0
 13 43  1  0
 14 44  1  0
 19 45  1  0
 19 46  1  0
 22 47  1  0
 23 48  1  0
 23 49  1  0
 25 50  1  0
 26 51  1  0
 27 52  1  0
 30 53  1  0
 32 54  1  0
 33 55  1  0
M  END
$$$$
