
     RDKit          3D

 39 41  0  0  0  0  0  0  0  0999 V2000
   -4.5585   -3.4303   -0.7608 C   0  0  0  0  0  0  0  0  0  0  0  0
   -3.5179   -2.3620   -0.4735 C   0  0  0  0  0  0  0  0  0  0  0  0
   -1.8805   -3.1314   -0.2592 S   0  0  0  0  0  0  0  0  0  0  0  0
   -0.8548   -1.6761   -0.0857 C   0  0  0  0  0  0  0  0  0  0  0  0
    0.5141   -1.8330   -0.0799 C   0  0  0  0  0  0  0  0  0  0  0  0
    1.2853   -0.6947    0.0294 C   0  0  0  0  0  0  0  0  0  0  0  0
    2.6640   -0.7589    0.0406 N   0  0  0  0  0  0  0  0  0  0  0  0
    3.3997   -1.7773   -0.7077 C   0  0  0  0  0  0  0  0  0  0  0  0
    4.7039   -1.0864   -1.1107 C   0  0  0  0  0  0  0  0  0  0  0  0
    4.8660    0.0108   -0.0709 C   0  0  0  0  0  0  0  0  0  0  0  0
    3.4301    0.4800    0.1342 C   0  0  0  0  0  0  0  0  0  0  0  0
    0.7018    0.5083    0.1597 N   0  0  0  0  0  0  0  0  0  0  0  0
   -0.6426    0.5757    0.1597 C   0  0  0  0  0  0  0  0  0  0  0  0
   -1.2647    1.9072    0.3145 C   0  0  0  0  0  0  0  0  0  0  0  0
   -0.4860    3.0834    0.3691 C   0  0  0  0  0  0  0  0  0  0  0  0
   -1.0715    4.3432    0.5276 C   0  0  0  0  0  0  0  0  0  0  0  0
   -2.4502    4.4470    0.6322 C   0  0  0  0  0  0  0  0  0  0  0  0
   -3.0130    5.6525    0.7808 F   0  0  0  0  0  0  0  0  0  0  0  0
   -3.2535    3.3173    0.5802 C   0  0  0  0  0  0  0  0  0  0  0  0
   -2.6637    2.0582    0.4205 C   0  0  0  0  0  0  0  0  0  0  0  0
   -1.4545   -0.4836    0.0314 N   0  0  0  0  0  0  0  0  0  0  0  0
   -4.6822   -4.1098    0.0887 H   0  0  0  0  0  0  0  0  0  0  0  0
   -4.2985   -4.0200   -1.6453 H   0  0  0  0  0  0  0  0  0  0  0  0
   -5.5303   -2.9629   -0.9519 H   0  0  0  0  0  0  0  0  0  0  0  0
   -3.4864   -1.6529   -1.3074 H   0  0  0  0  0  0  0  0  0  0  0  0
   -3.7914   -1.8237    0.4391 H   0  0  0  0  0  0  0  0  0  0  0  0
    0.9606   -2.8147   -0.1471 H   0  0  0  0  0  0  0  0  0  0  0  0
    3.6029   -2.6357   -0.0582 H   0  0  0  0  0  0  0  0  0  0  0  0
    2.8693   -2.1237   -1.6030 H   0  0  0  0  0  0  0  0  0  0  0  0
    5.5525   -1.7770   -1.1377 H   0  0  0  0  0  0  0  0  0  0  0  0
    4.5965   -0.6411   -2.1077 H   0  0  0  0  0  0  0  0  0  0  0  0
    5.5278    0.8162   -0.4005 H   0  0  0  0  0  0  0  0  0  0  0  0
    5.2677   -0.4100    0.8593 H   0  0  0  0  0  0  0  0  0  0  0  0
    3.3075    0.9699    1.1042 H   0  0  0  0  0  0  0  0  0  0  0  0
    3.1504    1.1786   -0.6651 H   0  0  0  0  0  0  0  0  0  0  0  0
    0.5985    3.0193    0.2902 H   0  0  0  0  0  0  0  0  0  0  0  0
   -0.4586    5.2376    0.5690 H   0  0  0  0  0  0  0  0  0  0  0  0
   -4.3294    3.4167    0.6648 H   0  0  0  0  0  0  0  0  0  0  0  0
   -3.3103    1.1831    0.3836 H   0  0  0  0  0  0  0  0  0  0  0  0
  1  2  1  0
  2  3  1  0
  3  4  1  0
  4  5  2  0
  5  6  1  0
  6  7  1  0
  7  8  1  0
  8  9  1  0
  9 10  1  0
 10 11  1  0
  6 12  2  0
 12 13  1  0
 13 14  1  0
 14 15  2  0
 15 16  1  0
 16 17  2  0
 17 18  1  0
 17 19  1  0
 19 20  2  0
 13 21  2  0
 21  4  1  0
 11  7  1  0
 20 14  1  0
  1 22  1  0
  1 23  1  0
  1 24  1  0
  2 25  1  0
  2 26  1  0
  5 27  1  0
  8 28  1  0
  8 29  1  0
  9 30  1  0
  9 31  1  0
 10 32  1  0
 10 33  1  0
 11 34  1  0
 11 35  1  0
 15 36  1  0
 16 37  1  0
 19 38  1  0
 20 39  1  0
M  END
$$$$
