
     RDKit          3D

 40 42  0  0  0  0  0  0  0  0999 V2000
    2.8520    3.7709    3.3383 C   0  0  0  0  0  0  0  0  0  0  0  0
    2.2824    2.8145    2.3050 C   0  0  0  0  0  0  0  0  0  0  0  0
    0.4989    2.5811    2.5972 S   0  0  0  0  0  0  0  0  0  0  0  0
    0.0875    1.4583    1.2683 C   0  0  0  0  0  0  0  0  0  0  0  0
   -1.2252    1.0700    1.1193 C   0  0  0  0  0  0  0  0  0  0  0  0
   -1.5154    0.1981    0.0880 C   0  0  0  0  0  0  0  0  0  0  0  0
   -2.8442   -0.2286   -0.1049 N   0  0  0  0  0  0  0  0  0  0  0  0
   -3.1002   -0.9273   -1.3858 C   0  0  0  0  0  0  0  0  0  0  0  0
   -3.0802   -2.4488   -1.1847 C   0  0  0  0  0  0  0  0  0  0  0  0
   -4.0858   -2.9138   -0.2654 O   0  0  0  0  0  0  0  0  0  0  0  0
   -4.5091   -1.9081    0.6687 C   0  0  0  0  0  0  0  0  0  0  0  0
   -3.3766   -0.9527    1.0775 C   0  0  0  0  0  0  0  0  0  0  0  0
   -0.5481   -0.2339   -0.7363 N   0  0  0  0  0  0  0  0  0  0  0  0
    0.7100    0.1931   -0.5207 C   0  0  0  0  0  0  0  0  0  0  0  0
    1.7681   -0.2963   -1.4303 C   0  0  0  0  0  0  0  0  0  0  0  0
    3.1132    0.0963   -1.2744 C   0  0  0  0  0  0  0  0  0  0  0  0
    4.1171   -0.3661   -2.1338 C   0  0  0  0  0  0  0  0  0  0  0  0
    3.7931   -1.2344   -3.1706 C   0  0  0  0  0  0  0  0  0  0  0  0
    5.0236   -1.8045   -4.2281 Cl  0  0  0  0  0  0  0  0  0  0  0  0
    2.4765   -1.6428   -3.3546 C   0  0  0  0  0  0  0  0  0  0  0  0
    1.4769   -1.1770   -2.4920 C   0  0  0  0  0  0  0  0  0  0  0  0
    1.0702    1.0280    0.4654 N   0  0  0  0  0  0  0  0  0  0  0  0
    3.9238    3.9119    3.1633 H   0  0  0  0  0  0  0  0  0  0  0  0
    2.3756    4.7556    3.2814 H   0  0  0  0  0  0  0  0  0  0  0  0
    2.7316    3.3828    4.3555 H   0  0  0  0  0  0  0  0  0  0  0  0
    2.7968    1.8508    2.3774 H   0  0  0  0  0  0  0  0  0  0  0  0
    2.4409    3.2241    1.3022 H   0  0  0  0  0  0  0  0  0  0  0  0
   -2.0019    1.4486    1.7703 H   0  0  0  0  0  0  0  0  0  0  0  0
   -4.1005   -0.6270   -1.7225 H   0  0  0  0  0  0  0  0  0  0  0  0
   -2.4146   -0.6254   -2.1859 H   0  0  0  0  0  0  0  0  0  0  0  0
   -2.1066   -2.7800   -0.8062 H   0  0  0  0  0  0  0  0  0  0  0  0
   -3.2530   -2.9579   -2.1381 H   0  0  0  0  0  0  0  0  0  0  0  0
   -4.9012   -2.4251    1.5503 H   0  0  0  0  0  0  0  0  0  0  0  0
   -5.3415   -1.3548    0.2185 H   0  0  0  0  0  0  0  0  0  0  0  0
   -2.5833   -1.5481    1.5498 H   0  0  0  0  0  0  0  0  0  0  0  0
   -3.7572   -0.2326    1.8102 H   0  0  0  0  0  0  0  0  0  0  0  0
    3.3922    0.7757   -0.4699 H   0  0  0  0  0  0  0  0  0  0  0  0
    5.1439   -0.0430   -1.9847 H   0  0  0  0  0  0  0  0  0  0  0  0
    2.2166   -2.3210   -4.1629 H   0  0  0  0  0  0  0  0  0  0  0  0
    0.4533   -1.5107   -2.6565 H   0  0  0  0  0  0  0  0  0  0  0  0
  1  2  1  0
  2  3  1  0
  3  4  1  0
  4  5  2  0
  5  6  1  0
  6  7  1  0
  7  8  1  0
  8  9  1  0
  9 10  1  0
 10 11  1  0
 11 12  1  0
  6 13  2  0
 13 14  1  0
 14 15  1  0
 15 16  2  0
 16 17  1  0
 17 18  2  0
 18 19  1  0
 18 20  1  0
 20 21  2  0
 14 22  2  0
 22  4  1  0
 12  7  1  0
 21 15  1  0
  1 23  1  0
  1 24  1  0
  1 25  1  0
  2 26  1  0
  2 27  1  0
  5 28  1  0
  8 29  1  0
  8 30  1  0
  9 31  1  0
  9 32  1  0
 11 33  1  0
 11 34  1  0
 12 35  1  0
 12 36  1  0
 16 37  1  0
 17 38  1  0
 20 39  1  0
 21 40  1  0
M  END
$$$$
