
     RDKit          3D

 45 47  0  0  0  0  0  0  0  0999 V2000
    7.5988   -0.1598   -0.5535 C   0  0  0  0  0  0  0  0  0  0  0  0
    7.1081   -0.4052    0.8628 C   0  0  0  0  0  0  0  0  0  0  0  0
    6.2562    0.6551    1.2941 O   0  0  0  0  0  0  0  0  0  0  0  0
    4.9137    0.5548    1.0649 C   0  0  0  0  0  0  0  0  0  0  0  0
    4.1485    1.5633    1.6521 C   0  0  0  0  0  0  0  0  0  0  0  0
    2.7588    1.5886    1.4981 C   0  0  0  0  0  0  0  0  0  0  0  0
    2.1100    0.6013    0.7506 C   0  0  0  0  0  0  0  0  0  0  0  0
    0.7098    0.6953    0.6308 N   0  0  0  0  0  0  0  0  0  0  0  0
   -0.1494   -0.2194    0.0615 C   0  0  0  0  0  0  0  0  0  0  0  0
    0.1383   -1.3257   -0.3735 O   0  0  0  0  0  0  0  0  0  0  0  0
   -1.4400    0.2712    0.0529 N   0  0  0  0  0  0  0  0  0  0  0  0
   -2.5169   -0.4935   -0.5642 C   0  0  0  0  0  0  0  0  0  0  0  0
   -2.4413   -0.3504   -2.0981 C   0  0  0  0  0  0  0  0  0  0  0  0
   -3.6702   -0.8524   -2.8668 C   0  0  0  0  0  0  0  0  0  0  0  0
   -4.7988   -1.3846   -1.9894 C   0  0  0  0  0  0  0  0  0  0  0  0
   -5.0145   -0.5052   -0.7865 C   0  0  0  0  0  0  0  0  0  0  0  0
   -6.3041   -0.1828   -0.3491 C   0  0  0  0  0  0  0  0  0  0  0  0
   -6.4812    0.5736    0.8077 C   0  0  0  0  0  0  0  0  0  0  0  0
   -5.3745    0.9907    1.5436 C   0  0  0  0  0  0  0  0  0  0  0  0
   -4.0852    0.6624    1.1197 C   0  0  0  0  0  0  0  0  0  0  0  0
   -3.8875   -0.0692   -0.0603 C   0  0  0  0  0  0  0  0  0  0  0  0
    2.8773   -0.3992    0.1539 C   0  0  0  0  0  0  0  0  0  0  0  0
    4.2712   -0.4234    0.3102 C   0  0  0  0  0  0  0  0  0  0  0  0
    6.7705   -0.1465   -1.2680 H   0  0  0  0  0  0  0  0  0  0  0  0
    8.3076   -0.9358   -0.8566 H   0  0  0  0  0  0  0  0  0  0  0  0
    8.0931    0.8148   -0.6238 H   0  0  0  0  0  0  0  0  0  0  0  0
    7.9746   -0.3973    1.5339 H   0  0  0  0  0  0  0  0  0  0  0  0
    6.6471   -1.3919    0.9815 H   0  0  0  0  0  0  0  0  0  0  0  0
    4.6391    2.3368    2.2380 H   0  0  0  0  0  0  0  0  0  0  0  0
    2.1996    2.3895    1.9733 H   0  0  0  0  0  0  0  0  0  0  0  0
    0.2650    1.4475    1.1338 H   0  0  0  0  0  0  0  0  0  0  0  0
   -1.5226    1.2723   -0.0326 H   0  0  0  0  0  0  0  0  0  0  0  0
   -2.3794   -1.5486   -0.2927 H   0  0  0  0  0  0  0  0  0  0  0  0
   -1.5460   -0.8594   -2.4766 H   0  0  0  0  0  0  0  0  0  0  0  0
   -2.2968    0.7090   -2.3553 H   0  0  0  0  0  0  0  0  0  0  0  0
   -4.0552   -0.0208   -3.4725 H   0  0  0  0  0  0  0  0  0  0  0  0
   -3.3712   -1.6273   -3.5828 H   0  0  0  0  0  0  0  0  0  0  0  0
   -5.7138   -1.4603   -2.5886 H   0  0  0  0  0  0  0  0  0  0  0  0
   -4.5594   -2.3967   -1.6401 H   0  0  0  0  0  0  0  0  0  0  0  0
   -7.1760   -0.5263   -0.9005 H   0  0  0  0  0  0  0  0  0  0  0  0
   -7.4837    0.8224    1.1457 H   0  0  0  0  0  0  0  0  0  0  0  0
   -5.5159    1.5610    2.4581 H   0  0  0  0  0  0  0  0  0  0  0  0
   -3.2422    0.9711    1.7321 H   0  0  0  0  0  0  0  0  0  0  0  0
    2.4224   -1.1790   -0.4497 H   0  0  0  0  0  0  0  0  0  0  0  0
    4.8161   -1.2202   -0.1840 H   0  0  0  0  0  0  0  0  0  0  0  0
  1  2  1  0
  2  3  1  0
  3  4  1  0
  4  5  2  0
  5  6  1  0
  6  7  2  0
  7  8  1  0
  8  9  1  0
  9 10  2  0
  9 11  1  0
 11 12  1  0
 12 13  1  0
 13 14  1  0
 14 15  1  0
 15 16  1  0
 16 17  2  0
 17 18  1  0
 18 19  2  0
 19 20  1  0
 20 21  2  0
  7 22  1  0
 22 23  2  0
 23  4  1  0
 21 12  1  0
 21 16  1  0
  1 24  1  0
  1 25  1  0
  1 26  1  0
  2 27  1  0
  2 28  1  0
  5 29  1  0
  6 30  1  0
  8 31  1  0
 11 32  1  0
 12 33  1  0
 13 34  1  0
 13 35  1  0
 14 36  1  0
 14 37  1  0
 15 38  1  0
 15 39  1  0
 17 40  1  0
 18 41  1  0
 19 42  1  0
 20 43  1  0
 22 44  1  0
 23 45  1  0
M  END
$$$$
