
     RDKit          3D

 65 69  0  0  0  0  0  0  0  0999 V2000
   -7.0980    5.0291    2.6428 C   0  0  0  0  0  0  0  0  0  0  0  0
   -7.2936    3.6969    2.1859 O   0  0  0  0  0  0  0  0  0  0  0  0
   -6.1805    3.0085    1.7842 C   0  0  0  0  0  0  0  0  0  0  0  0
   -4.8769    3.4860    1.8036 C   0  0  0  0  0  0  0  0  0  0  0  0
   -3.8201    2.6788    1.3620 C   0  0  0  0  0  0  0  0  0  0  0  0
   -4.0562    1.3639    0.8861 C   0  0  0  0  0  0  0  0  0  0  0  0
   -3.1456    0.3622    0.3809 C   0  0  0  0  0  0  0  0  0  0  0  0
   -1.7004    0.5066    0.2589 C   0  0  0  0  0  0  0  0  0  0  0  0
   -0.8911    0.4117    1.3937 C   0  0  0  0  0  0  0  0  0  0  0  0
    0.4932    0.5507    1.2755 C   0  0  0  0  0  0  0  0  0  0  0  0
    1.0821    0.7896    0.0307 C   0  0  0  0  0  0  0  0  0  0  0  0
    2.4439    0.9032    0.0589 O   0  0  0  0  0  0  0  0  0  0  0  0
    3.1104    1.0980   -1.1889 C   0  0  0  0  0  0  0  0  0  0  0  0
    4.6344    1.1584   -0.9590 C   0  0  0  0  0  0  0  0  0  0  0  0
    5.2460   -0.0701   -0.4124 N   0  0  0  0  0  0  0  0  0  0  0  0
    5.1549   -1.2398   -1.2955 C   0  0  0  0  0  0  0  0  0  0  0  0
    6.0735   -1.1654   -2.5174 C   0  0  0  0  0  0  0  0  0  0  0  0
    7.5205   -0.9146   -2.1047 C   0  0  0  0  0  0  0  0  0  0  0  0
    7.6225    0.2796   -1.1610 C   0  0  0  0  0  0  0  0  0  0  0  0
    6.6389    0.1524    0.0056 C   0  0  0  0  0  0  0  0  0  0  0  0
    0.2715    0.8934   -1.1010 C   0  0  0  0  0  0  0  0  0  0  0  0
   -1.1161    0.7523   -0.9876 C   0  0  0  0  0  0  0  0  0  0  0  0
   -3.7944   -0.8015    0.0017 C   0  0  0  0  0  0  0  0  0  0  0  0
   -3.2497   -2.0465   -0.5588 C   0  0  0  0  0  0  0  0  0  0  0  0
   -3.4167   -2.3003   -1.9313 C   0  0  0  0  0  0  0  0  0  0  0  0
   -2.8943   -3.4561   -2.5085 C   0  0  0  0  0  0  0  0  0  0  0  0
   -2.2013   -4.3693   -1.7199 C   0  0  0  0  0  0  0  0  0  0  0  0
   -2.0267   -4.1301   -0.3534 C   0  0  0  0  0  0  0  0  0  0  0  0
   -2.5410   -2.9694    0.2376 C   0  0  0  0  0  0  0  0  0  0  0  0
   -2.4248   -2.6685    1.5718 O   0  0  0  0  0  0  0  0  0  0  0  0
   -1.4970   -3.4319    2.3316 C   0  0  0  0  0  0  0  0  0  0  0  0
   -5.4812   -0.6952    0.2623 S   0  0  0  0  0  0  0  0  0  0  0  0
   -5.3745    0.9070    0.8744 C   0  0  0  0  0  0  0  0  0  0  0  0
   -6.4392    1.7146    1.3219 C   0  0  0  0  0  0  0  0  0  0  0  0
   -6.4694    5.0504    3.5393 H   0  0  0  0  0  0  0  0  0  0  0  0
   -8.0768    5.4371    2.9131 H   0  0  0  0  0  0  0  0  0  0  0  0
   -6.6814    5.6609    1.8514 H   0  0  0  0  0  0  0  0  0  0  0  0
   -4.6359    4.4835    2.1557 H   0  0  0  0  0  0  0  0  0  0  0  0
   -2.8050    3.0698    1.3829 H   0  0  0  0  0  0  0  0  0  0  0  0
   -1.3309    0.2150    2.3686 H   0  0  0  0  0  0  0  0  0  0  0  0
    1.1207    0.4663    2.1596 H   0  0  0  0  0  0  0  0  0  0  0  0
    2.8591    0.3010   -1.8961 H   0  0  0  0  0  0  0  0  0  0  0  0
    2.7976    2.0592   -1.6153 H   0  0  0  0  0  0  0  0  0  0  0  0
    5.1145    1.4545   -1.8984 H   0  0  0  0  0  0  0  0  0  0  0  0
    4.8083    1.9695   -0.2397 H   0  0  0  0  0  0  0  0  0  0  0  0
    4.1237   -1.4183   -1.6160 H   0  0  0  0  0  0  0  0  0  0  0  0
    5.4223   -2.1302   -0.7102 H   0  0  0  0  0  0  0  0  0  0  0  0
    5.7388   -0.3712   -3.1951 H   0  0  0  0  0  0  0  0  0  0  0  0
    6.0123   -2.1044   -3.0798 H   0  0  0  0  0  0  0  0  0  0  0  0
    8.1413   -0.7480   -2.9918 H   0  0  0  0  0  0  0  0  0  0  0  0
    7.9134   -1.8071   -1.6021 H   0  0  0  0  0  0  0  0  0  0  0  0
    7.4314    1.2054   -1.7164 H   0  0  0  0  0  0  0  0  0  0  0  0
    8.6448    0.3524   -0.7724 H   0  0  0  0  0  0  0  0  0  0  0  0
    6.9468   -0.6897    0.6393 H   0  0  0  0  0  0  0  0  0  0  0  0
    6.7092    1.0385    0.6482 H   0  0  0  0  0  0  0  0  0  0  0  0
    0.6833    1.0817   -2.0863 H   0  0  0  0  0  0  0  0  0  0  0  0
   -1.7364    0.8326   -1.8771 H   0  0  0  0  0  0  0  0  0  0  0  0
   -3.9547   -1.5902   -2.5557 H   0  0  0  0  0  0  0  0  0  0  0  0
   -3.0296   -3.6432   -3.5706 H   0  0  0  0  0  0  0  0  0  0  0  0
   -1.7973   -5.2744   -2.1667 H   0  0  0  0  0  0  0  0  0  0  0  0
   -1.4905   -4.8749    0.2251 H   0  0  0  0  0  0  0  0  0  0  0  0
   -1.8528   -4.4595    2.4621 H   0  0  0  0  0  0  0  0  0  0  0  0
   -1.4236   -2.9772    3.3241 H   0  0  0  0  0  0  0  0  0  0  0  0
   -0.4979   -3.4103    1.8827 H   0  0  0  0  0  0  0  0  0  0  0  0
   -7.4579    1.3367    1.3057 H   0  0  0  0  0  0  0  0  0  0  0  0
  1  2  1  0
  2  3  1  0
  3  4  2  0
  4  5  1  0
  5  6  2  0
  6  7  1  0
  7  8  1  0
  8  9  2  0
  9 10  1  0
 10 11  2  0
 11 12  1  0
 12 13  1  0
 13 14  1  0
 14 15  1  0
 15 16  1  0
 16 17  1  0
 17 18  1  0
 18 19  1  0
 19 20  1  0
 11 21  1  0
 21 22  2  0
  7 23  2  0
 23 24  1  0
 24 25  2  0
 25 26  1  0
 26 27  2  0
 27 28  1  0
 28 29  2  0
 29 30  1  0
 30 31  1  0
 23 32  1  0
 32 33  1  0
 33 34  2  0
 34  3  1  0
 33  6  1  0
 22  8  1  0
 29 24  1  0
 20 15  1  0
  1 35  1  0
  1 36  1  0
  1 37  1  0
  4 38  1  0
  5 39  1  0
  9 40  1  0
 10 41  1  0
 13 42  1  0
 13 43  1  0
 14 44  1  0
 14 45  1  0
 16 46  1  0
 16 47  1  0
 17 48  1  0
 17 49  1  0
 18 50  1  0
 18 51  1  0
 19 52  1  0
 19 53  1  0
 20 54  1  0
 20 55  1  0
 21 56  1  0
 22 57  1  0
 25 58  1  0
 26 59  1  0
 27 60  1  0
 28 61  1  0
 31 62  1  0
 31 63  1  0
 31 64  1  0
 34 65  1  0
M  END
$$$$
