
     RDKit          3D

 34 36  0  0  0  0  0  0  0  0999 V2000
   -4.6835   -3.0341   -0.6206 C   0  0  0  0  0  0  0  0  0  0  0  0
   -3.6880   -1.9566   -0.3632 C   0  0  0  0  0  0  0  0  0  0  0  0
   -2.3276   -1.9777   -0.5681 C   0  0  0  0  0  0  0  0  0  0  0  0
   -1.6686   -0.7457   -0.2039 C   0  0  0  0  0  0  0  0  0  0  0  0
   -0.1669   -0.5651   -0.3752 C   0  0  0  0  0  0  0  0  0  0  0  0
    0.2066    0.4283   -1.4636 C   0  0  0  0  0  0  0  0  0  0  0  0
    0.4172    1.8592   -1.0389 C   0  0  0  0  0  0  0  0  0  0  0  0
   -0.3636    2.7511   -1.3741 O   0  0  0  0  0  0  0  0  0  0  0  0
    1.5730    2.1958   -0.3911 N   0  0  0  0  0  0  0  0  0  0  0  0
    2.5647    1.3398    0.1172 C   0  0  0  0  0  0  0  0  0  0  0  0
    3.8887    1.7887    0.0226 C   0  0  0  0  0  0  0  0  0  0  0  0
    4.9415    0.9964    0.4818 C   0  0  0  0  0  0  0  0  0  0  0  0
    4.6772   -0.2364    1.0697 C   0  0  0  0  0  0  0  0  0  0  0  0
    3.3581   -0.6660    1.2203 C   0  0  0  0  0  0  0  0  0  0  0  0
    2.2913    0.1148    0.7513 C   0  0  0  0  0  0  0  0  0  0  0  0
    0.6494   -0.3876    1.2453 S   0  0  0  0  0  0  0  0  0  0  0  0
   -2.5978    0.1685    0.2829 C   0  0  0  0  0  0  0  0  0  0  0  0
   -2.4180    1.5648    0.7868 C   0  0  0  0  0  0  0  0  0  0  0  0
   -4.1959   -0.4604    0.2656 S   0  0  0  0  0  0  0  0  0  0  0  0
   -4.1963   -3.9291   -1.0217 H   0  0  0  0  0  0  0  0  0  0  0  0
   -5.4320   -2.7060   -1.3494 H   0  0  0  0  0  0  0  0  0  0  0  0
   -5.1964   -3.3187    0.3040 H   0  0  0  0  0  0  0  0  0  0  0  0
   -1.8120   -2.8443   -0.9665 H   0  0  0  0  0  0  0  0  0  0  0  0
    0.2043   -1.5343   -0.7388 H   0  0  0  0  0  0  0  0  0  0  0  0
    1.1319    0.1014   -1.9588 H   0  0  0  0  0  0  0  0  0  0  0  0
   -0.5471    0.4249   -2.2625 H   0  0  0  0  0  0  0  0  0  0  0  0
    1.7728    3.1882   -0.4371 H   0  0  0  0  0  0  0  0  0  0  0  0
    4.1179    2.7468   -0.4382 H   0  0  0  0  0  0  0  0  0  0  0  0
    5.9672    1.3443    0.3847 H   0  0  0  0  0  0  0  0  0  0  0  0
    5.4942   -0.8505    1.4410 H   0  0  0  0  0  0  0  0  0  0  0  0
    3.1679   -1.6035    1.7399 H   0  0  0  0  0  0  0  0  0  0  0  0
   -2.6725    2.2843    0.0021 H   0  0  0  0  0  0  0  0  0  0  0  0
   -3.0637    1.7612    1.6501 H   0  0  0  0  0  0  0  0  0  0  0  0
   -1.3942    1.7573    1.1123 H   0  0  0  0  0  0  0  0  0  0  0  0
  1  2  1  0
  2  3  2  0
  3  4  1  0
  4  5  1  0
  5  6  1  0
  6  7  1  0
  7  8  2  0
  7  9  1  0
  9 10  1  0
 10 11  2  0
 11 12  1  0
 12 13  2  0
 13 14  1  0
 14 15  2  0
 15 16  1  0
  4 17  2  0
 17 18  1  0
 17 19  1  0
 19  2  1  0
 16  5  1  0
 15 10  1  0
  1 20  1  0
  1 21  1  0
  1 22  1  0
  3 23  1  0
  5 24  1  0
  6 25  1  0
  6 26  1  0
  9 27  1  0
 11 28  1  0
 12 29  1  0
 13 30  1  0
 14 31  1  0
 18 32  1  0
 18 33  1  0
 18 34  1  0
M  END
$$$$
