
     RDKit          3D

 36 38  0  0  0  0  0  0  0  0999 V2000
   -2.2846   -0.3939   -0.9734 C   0  0  0  0  0  0  0  0  0  0  0  0
   -1.9627   -0.5495    0.5028 C   0  0  0  0  0  0  0  0  0  0  0  0
   -0.9027   -0.0261    1.0625 N   0  0  0  0  0  0  0  0  0  0  0  0
   -0.0354    0.6344    0.2354 N   0  0  0  0  0  0  0  0  0  0  0  0
    1.0444   -0.1241   -0.3011 C   0  0  0  0  0  0  0  0  0  0  0  0
    0.9845   -1.4828   -0.2872 N   0  0  0  0  0  0  0  0  0  0  0  0
    2.0131   -2.1911   -0.7629 C   0  0  0  0  0  0  0  0  0  0  0  0
    3.1449   -1.7213   -1.2821 N   0  0  0  0  0  0  0  0  0  0  0  0
    3.1730   -0.3797   -1.3157 C   0  0  0  0  0  0  0  0  0  0  0  0
    4.5300    0.4163   -1.9537 S   0  0  0  0  0  0  0  0  0  0  0  0
    3.8426    1.9559   -1.6893 C   0  0  0  0  0  0  0  0  0  0  0  0
    4.6126    3.1756   -2.0831 C   0  0  0  0  0  0  0  0  0  0  0  0
    2.5754    1.8758   -1.1247 C   0  0  0  0  0  0  0  0  0  0  0  0
    1.7202    3.0689   -0.8277 C   0  0  0  0  0  0  0  0  0  0  0  0
    2.1887    0.4909   -0.8713 C   0  0  0  0  0  0  0  0  0  0  0  0
   -2.9077   -1.3501    1.3462 C   0  0  0  0  0  0  0  0  0  0  0  0
   -2.6016   -1.6113    2.6790 C   0  0  0  0  0  0  0  0  0  0  0  0
   -3.5000   -2.3590    3.4359 C   0  0  0  0  0  0  0  0  0  0  0  0
   -4.6693   -2.8204    2.8432 C   0  0  0  0  0  0  0  0  0  0  0  0
   -4.8939   -2.5145    1.5110 C   0  0  0  0  0  0  0  0  0  0  0  0
   -4.0437   -1.7916    0.7501 N   0  0  0  0  0  0  0  0  0  0  0  0
   -2.1592    0.6513   -1.2724 H   0  0  0  0  0  0  0  0  0  0  0  0
   -3.3097   -0.6771   -1.2187 H   0  0  0  0  0  0  0  0  0  0  0  0
   -1.6067   -1.0202   -1.5599 H   0  0  0  0  0  0  0  0  0  0  0  0
    0.3671    1.4621    0.6701 H   0  0  0  0  0  0  0  0  0  0  0  0
    1.9131   -3.2707   -0.7171 H   0  0  0  0  0  0  0  0  0  0  0  0
    4.6487    3.8868   -1.2512 H   0  0  0  0  0  0  0  0  0  0  0  0
    5.6455    2.9462   -2.3649 H   0  0  0  0  0  0  0  0  0  0  0  0
    4.1310    3.6653   -2.9359 H   0  0  0  0  0  0  0  0  0  0  0  0
    0.7027    2.9187   -1.2019 H   0  0  0  0  0  0  0  0  0  0  0  0
    1.6818    3.2476    0.2514 H   0  0  0  0  0  0  0  0  0  0  0  0
    2.1046    3.9764   -1.3033 H   0  0  0  0  0  0  0  0  0  0  0  0
   -1.6801   -1.2480    3.1223 H   0  0  0  0  0  0  0  0  0  0  0  0
   -3.2854   -2.5801    4.4777 H   0  0  0  0  0  0  0  0  0  0  0  0
   -5.3881   -3.4062    3.4054 H   0  0  0  0  0  0  0  0  0  0  0  0
   -5.7930   -2.8545    1.0043 H   0  0  0  0  0  0  0  0  0  0  0  0
  1  2  1  0
  2  3  2  3
  3  4  1  0
  4  5  1  0
  5  6  2  0
  6  7  1  0
  7  8  2  0
  8  9  1  0
  9 10  1  0
 10 11  1  0
 11 12  1  0
 11 13  2  0
 13 14  1  0
 13 15  1  0
  2 16  1  0
 16 17  2  0
 17 18  1  0
 18 19  2  0
 19 20  1  0
 20 21  2  0
 15  5  1  0
 21 16  1  0
 15  9  2  0
  1 22  1  0
  1 23  1  0
  1 24  1  0
  4 25  1  0
  7 26  1  0
 12 27  1  0
 12 28  1  0
 12 29  1  0
 14 30  1  0
 14 31  1  0
 14 32  1  0
 17 33  1  0
 18 34  1  0
 19 35  1  0
 20 36  1  0
M  END
$$$$
