
     RDKit          3D

 53 56  0  0  0  0  0  0  0  0999 V2000
   -9.4163   -1.1676   -0.4405 C   0  0  0  0  0  0  0  0  0  0  0  0
   -8.2495   -1.6106    0.2437 O   0  0  0  0  0  0  0  0  0  0  0  0
   -7.3906   -0.5296    0.6115 C   0  0  0  0  0  0  0  0  0  0  0  0
   -5.9441   -1.0009    0.5253 C   0  0  0  0  0  0  0  0  0  0  0  0
   -5.5103   -1.3557   -0.9038 C   0  0  0  0  0  0  0  0  0  0  0  0
   -3.9875   -1.2700   -0.8304 C   0  0  0  0  0  0  0  0  0  0  0  0
   -3.7379   -0.2299    0.1608 N   0  0  0  0  0  0  0  0  0  0  0  0
   -2.5779    0.5061    0.3655 C   0  0  0  0  0  0  0  0  0  0  0  0
   -2.5757    1.4482    1.1635 O   0  0  0  0  0  0  0  0  0  0  0  0
   -1.3528    0.1806   -0.3820 C   0  0  0  0  0  0  0  0  0  0  0  0
   -0.1986    1.0087   -0.4706 C   0  0  0  0  0  0  0  0  0  0  0  0
    0.6816    0.3121   -1.2605 C   0  0  0  0  0  0  0  0  0  0  0  0
    2.0409    0.5686   -1.7878 C   0  0  0  0  0  0  0  0  0  0  0  0
    2.6908    1.5000   -0.9097 O   0  0  0  0  0  0  0  0  0  0  0  0
    3.7741    0.9337   -0.2799 C   0  0  0  0  0  0  0  0  0  0  0  0
    3.5510    0.0085    0.7405 C   0  0  0  0  0  0  0  0  0  0  0  0
    4.6304   -0.5705    1.3991 C   0  0  0  0  0  0  0  0  0  0  0  0
    5.9399   -0.2124    1.0575 C   0  0  0  0  0  0  0  0  0  0  0  0
    7.0558   -0.7632    1.6462 O   0  0  0  0  0  0  0  0  0  0  0  0
    6.8615   -1.5354    2.8265 C   0  0  0  0  0  0  0  0  0  0  0  0
    6.1781    0.7502    0.0401 C   0  0  0  0  0  0  0  0  0  0  0  0
    7.4812    1.1538   -0.3313 C   0  0  0  0  0  0  0  0  0  0  0  0
    7.6993    2.1113   -1.3236 C   0  0  0  0  0  0  0  0  0  0  0  0
    6.6178    2.6905   -1.9730 C   0  0  0  0  0  0  0  0  0  0  0  0
    5.3212    2.3076   -1.6320 C   0  0  0  0  0  0  0  0  0  0  0  0
    5.0774    1.3404   -0.6315 C   0  0  0  0  0  0  0  0  0  0  0  0
    0.1173   -0.8787   -1.5989 O   0  0  0  0  0  0  0  0  0  0  0  0
   -1.1467   -0.9656   -1.0537 N   0  0  0  0  0  0  0  0  0  0  0  0
   -4.9426    0.0829    0.9148 C   0  0  0  0  0  0  0  0  0  0  0  0
   -9.1366   -0.7956   -1.4339 H   0  0  0  0  0  0  0  0  0  0  0  0
  -10.0888   -2.0234   -0.5652 H   0  0  0  0  0  0  0  0  0  0  0  0
   -9.9382   -0.3907    0.1231 H   0  0  0  0  0  0  0  0  0  0  0  0
   -7.6366   -0.2384    1.6390 H   0  0  0  0  0  0  0  0  0  0  0  0
   -7.5573    0.3402   -0.0386 H   0  0  0  0  0  0  0  0  0  0  0  0
   -5.7986   -1.8902    1.1574 H   0  0  0  0  0  0  0  0  0  0  0  0
   -5.8564   -2.3438   -1.2257 H   0  0  0  0  0  0  0  0  0  0  0  0
   -5.8879   -0.6098   -1.6199 H   0  0  0  0  0  0  0  0  0  0  0  0
   -3.5561   -1.0181   -1.8035 H   0  0  0  0  0  0  0  0  0  0  0  0
   -3.5614   -2.2108   -0.4540 H   0  0  0  0  0  0  0  0  0  0  0  0
   -0.0460    1.9798   -0.0210 H   0  0  0  0  0  0  0  0  0  0  0  0
    1.9650    1.0465   -2.7712 H   0  0  0  0  0  0  0  0  0  0  0  0
    2.6048   -0.3648   -1.9198 H   0  0  0  0  0  0  0  0  0  0  0  0
    2.5406   -0.2699    1.0252 H   0  0  0  0  0  0  0  0  0  0  0  0
    4.4172   -1.3049    2.1705 H   0  0  0  0  0  0  0  0  0  0  0  0
    7.8460   -1.8315    3.2015 H   0  0  0  0  0  0  0  0  0  0  0  0
    6.3716   -0.9414    3.6048 H   0  0  0  0  0  0  0  0  0  0  0  0
    6.3034   -2.4514    2.6138 H   0  0  0  0  0  0  0  0  0  0  0  0
    8.3475    0.7195    0.1667 H   0  0  0  0  0  0  0  0  0  0  0  0
    8.7148    2.4023   -1.5823 H   0  0  0  0  0  0  0  0  0  0  0  0
    6.7819    3.4355   -2.7462 H   0  0  0  0  0  0  0  0  0  0  0  0
    4.4890    2.7772   -2.1519 H   0  0  0  0  0  0  0  0  0  0  0  0
   -5.2747    1.0849    0.6150 H   0  0  0  0  0  0  0  0  0  0  0  0
   -4.7310    0.0856    1.9907 H   0  0  0  0  0  0  0  0  0  0  0  0
  1  2  1  0
  2  3  1  0
  3  4  1  0
  4  5  1  0
  5  6  1  0
  6  7  1  0
  7  8  1  0
  8  9  2  0
  8 10  1  0
 10 11  1  0
 11 12  2  0
 12 13  1  0
 13 14  1  0
 14 15  1  0
 15 16  2  0
 16 17  1  0
 17 18  2  0
 18 19  1  0
 19 20  1  0
 18 21  1  0
 21 22  2  0
 22 23  1  0
 23 24  2  0
 24 25  1  0
 25 26  2  0
 12 27  1  0
 27 28  1  0
  7 29  1  0
 29  4  1  0
 28 10  2  0
 26 15  1  0
 26 21  1  0
  1 30  1  0
  1 31  1  0
  1 32  1  0
  3 33  1  0
  3 34  1  0
  4 35  1  0
  5 36  1  0
  5 37  1  0
  6 38  1  0
  6 39  1  0
 11 40  1  0
 13 41  1  0
 13 42  1  0
 16 43  1  0
 17 44  1  0
 20 45  1  0
 20 46  1  0
 20 47  1  0
 22 48  1  0
 23 49  1  0
 24 50  1  0
 25 51  1  0
 29 52  1  0
 29 53  1  0
M  END
$$$$
