
     RDKit          3D

 47 50  0  0  0  0  0  0  0  0999 V2000
   -5.6471    0.1578   -1.8798 C   0  0  0  0  0  0  0  0  0  0  0  0
   -5.8060   -0.8757   -0.7724 C   0  0  0  0  0  0  0  0  0  0  0  0
   -5.0903   -0.4814    0.4498 N   0  0  0  0  0  0  0  0  0  0  0  0
   -5.9203   -0.0670    1.5890 C   0  0  0  0  0  0  0  0  0  0  0  0
   -6.2708    1.4112    1.5139 C   0  0  0  0  0  0  0  0  0  0  0  0
   -3.7016   -0.5116    0.5345 C   0  0  0  0  0  0  0  0  0  0  0  0
   -2.9980    0.1344    1.5660 C   0  0  0  0  0  0  0  0  0  0  0  0
   -1.5975    0.1099    1.6561 C   0  0  0  0  0  0  0  0  0  0  0  0
   -0.8420   -0.5657    0.7023 C   0  0  0  0  0  0  0  0  0  0  0  0
    0.6178   -0.5932    0.8176 C   0  0  0  0  0  0  0  0  0  0  0  0
    1.4840   -0.0312   -0.0371 C   0  0  0  0  0  0  0  0  0  0  0  0
    1.1131    0.8828   -1.4812 S   0  0  0  0  0  0  0  0  0  0  0  0
    2.7906    1.1129   -1.7530 C   0  0  0  0  0  0  0  0  0  0  0  0
    3.4971    1.7620   -2.6329 N   0  0  0  0  0  0  0  0  0  0  0  0
    4.8238    1.5720   -2.2683 N   0  0  0  0  0  0  0  0  0  0  0  0
    4.8666    0.7922   -1.1929 C   0  0  0  0  0  0  0  0  0  0  0  0
    6.0680    0.3361   -0.5060 C   0  0  0  0  0  0  0  0  0  0  0  0
    6.9223    1.2997    0.0535 C   0  0  0  0  0  0  0  0  0  0  0  0
    8.0854    0.9179    0.7259 C   0  0  0  0  0  0  0  0  0  0  0  0
    8.4144   -0.4307    0.8384 C   0  0  0  0  0  0  0  0  0  0  0  0
    7.5869   -1.3987    0.2691 C   0  0  0  0  0  0  0  0  0  0  0  0
    6.4219   -1.0197   -0.4064 C   0  0  0  0  0  0  0  0  0  0  0  0
    5.4780   -2.2738   -1.1383 Cl  0  0  0  0  0  0  0  0  0  0  0  0
    3.5746    0.5242   -0.8233 N   0  0  0  0  0  0  0  0  0  0  0  0
    2.9524   -0.1259    0.2129 C   0  0  0  0  0  0  0  0  0  0  0  0
    3.5545   -0.6333    1.1398 O   0  0  0  0  0  0  0  0  0  0  0  0
   -1.5066   -1.2265   -0.3270 C   0  0  0  0  0  0  0  0  0  0  0  0
   -2.9075   -1.1921   -0.4048 C   0  0  0  0  0  0  0  0  0  0  0  0
   -6.0009    1.1419   -1.5576 H   0  0  0  0  0  0  0  0  0  0  0  0
   -4.6048    0.2670   -2.1930 H   0  0  0  0  0  0  0  0  0  0  0  0
   -6.2299   -0.1400   -2.7573 H   0  0  0  0  0  0  0  0  0  0  0  0
   -6.8785   -0.9773   -0.5641 H   0  0  0  0  0  0  0  0  0  0  0  0
   -5.4905   -1.8676   -1.1142 H   0  0  0  0  0  0  0  0  0  0  0  0
   -6.8508   -0.6487    1.5999 H   0  0  0  0  0  0  0  0  0  0  0  0
   -5.4408   -0.3002    2.5467 H   0  0  0  0  0  0  0  0  0  0  0  0
   -5.3761    2.0393    1.4653 H   0  0  0  0  0  0  0  0  0  0  0  0
   -6.8476    1.7069    2.3959 H   0  0  0  0  0  0  0  0  0  0  0  0
   -6.8789    1.6272    0.6300 H   0  0  0  0  0  0  0  0  0  0  0  0
   -3.5237    0.7006    2.3287 H   0  0  0  0  0  0  0  0  0  0  0  0
   -1.1152    0.6348    2.4773 H   0  0  0  0  0  0  0  0  0  0  0  0
    0.9881   -1.1123    1.7012 H   0  0  0  0  0  0  0  0  0  0  0  0
    6.6850    2.3590   -0.0347 H   0  0  0  0  0  0  0  0  0  0  0  0
    8.7359    1.6750    1.1580 H   0  0  0  0  0  0  0  0  0  0  0  0
    9.3205   -0.7287    1.3606 H   0  0  0  0  0  0  0  0  0  0  0  0
    7.8594   -2.4483    0.3484 H   0  0  0  0  0  0  0  0  0  0  0  0
   -0.9542   -1.7813   -1.0815 H   0  0  0  0  0  0  0  0  0  0  0  0
   -3.3608   -1.7340   -1.2290 H   0  0  0  0  0  0  0  0  0  0  0  0
  1  2  1  0
  2  3  1  0
  3  4  1  0
  4  5  1  0
  3  6  1  0
  6  7  2  0
  7  8  1  0
  8  9  2  0
  9 10  1  0
 10 11  2  3
 11 12  1  0
 12 13  1  0
 13 14  2  0
 14 15  1  0
 15 16  2  0
 16 17  1  0
 17 18  2  0
 18 19  1  0
 19 20  2  0
 20 21  1  0
 21 22  2  0
 22 23  1  0
 16 24  1  0
 24 25  1  0
 25 26  2  0
  9 27  1  0
 27 28  2  0
 28  6  1  0
 25 11  1  0
 24 13  1  0
 22 17  1  0
  1 29  1  0
  1 30  1  0
  1 31  1  0
  2 32  1  0
  2 33  1  0
  4 34  1  0
  4 35  1  0
  5 36  1  0
  5 37  1  0
  5 38  1  0
  7 39  1  0
  8 40  1  0
 10 41  1  0
 18 42  1  0
 19 43  1  0
 20 44  1  0
 21 45  1  0
 27 46  1  0
 28 47  1  0
M  END
$$$$
