
     RDKit          3D

 37 39  0  0  0  0  0  0  0  0999 V2000
   -0.7826   -1.2906   -0.5727 O   0  0  0  0  0  0  0  0  0  0  0  0
   -1.1000   -0.4307    0.2404 C   0  0  0  0  0  0  0  0  0  0  0  0
   -0.1543    0.0291    1.3360 C   0  0  0  0  0  0  0  0  0  0  0  0
    1.3066   -0.3113    1.0315 C   0  0  0  0  0  0  0  0  0  0  0  0
    1.9854    0.8699   -0.1833 S   0  0  0  0  0  0  0  0  0  0  0  0
    3.6821    0.3326   -0.1412 C   0  0  0  0  0  0  0  0  0  0  0  0
    4.4838    0.5483   -1.2675 C   0  0  0  0  0  0  0  0  0  0  0  0
    5.8379    0.2101   -1.2454 C   0  0  0  0  0  0  0  0  0  0  0  0
    6.4020   -0.3296   -0.0916 C   0  0  0  0  0  0  0  0  0  0  0  0
    5.6120   -0.5379    1.0400 C   0  0  0  0  0  0  0  0  0  0  0  0
    4.2497   -0.2219    1.0145 C   0  0  0  0  0  0  0  0  0  0  0  0
    3.5056   -0.4284    2.1860 N   0  0  0  0  0  0  0  0  0  0  0  0
    2.1438   -0.3327    2.3077 C   0  0  0  0  0  0  0  0  0  0  0  0
    1.6463   -0.3824    3.4342 O   0  0  0  0  0  0  0  0  0  0  0  0
   -2.3339    0.1923    0.3337 N   0  0  0  0  0  0  0  0  0  0  0  0
   -3.4731    0.0392   -0.5021 C   0  0  0  0  0  0  0  0  0  0  0  0
   -3.4468   -0.8004   -1.6251 C   0  0  0  0  0  0  0  0  0  0  0  0
   -4.5661   -0.9507   -2.4533 C   0  0  0  0  0  0  0  0  0  0  0  0
   -5.7424   -0.2633   -2.1808 C   0  0  0  0  0  0  0  0  0  0  0  0
   -5.8038    0.5798   -1.0753 C   0  0  0  0  0  0  0  0  0  0  0  0
   -4.6793    0.7337   -0.2385 C   0  0  0  0  0  0  0  0  0  0  0  0
   -4.8204    1.6388    0.9158 N   0  0  0  0  0  4  0  0  0  0  0  0
   -5.9420    2.1117    1.1494 O   0  0  0  0  0  0  0  0  0  0  0  0
   -3.8115    1.8826    1.5972 O   0  0  0  0  0  1  0  0  0  0  0  0
   -0.4882   -0.4918    2.2428 H   0  0  0  0  0  0  0  0  0  0  0  0
   -0.2784    1.1029    1.5244 H   0  0  0  0  0  0  0  0  0  0  0  0
    1.3812   -1.3190    0.6040 H   0  0  0  0  0  0  0  0  0  0  0  0
    4.0611    0.9880   -2.1684 H   0  0  0  0  0  0  0  0  0  0  0  0
    6.4532    0.3784   -2.1260 H   0  0  0  0  0  0  0  0  0  0  0  0
    7.4589   -0.5847   -0.0720 H   0  0  0  0  0  0  0  0  0  0  0  0
    6.0706   -0.9563    1.9322 H   0  0  0  0  0  0  0  0  0  0  0  0
    3.9953   -0.6112    3.0529 H   0  0  0  0  0  0  0  0  0  0  0  0
   -2.4432    0.8529    1.1054 H   0  0  0  0  0  0  0  0  0  0  0  0
   -2.5586   -1.3623   -1.8993 H   0  0  0  0  0  0  0  0  0  0  0  0
   -4.5088   -1.6111   -3.3166 H   0  0  0  0  0  0  0  0  0  0  0  0
   -6.6081   -0.3841   -2.8279 H   0  0  0  0  0  0  0  0  0  0  0  0
   -6.7341    1.1103   -0.8787 H   0  0  0  0  0  0  0  0  0  0  0  0
  1  2  2  0
  2  3  1  0
  3  4  1  0
  4  5  1  0
  5  6  1  0
  6  7  2  0
  7  8  1  0
  8  9  2  0
  9 10  1  0
 10 11  2  0
 11 12  1  0
 12 13  1  0
 13 14  2  0
  2 15  1  0
 15 16  1  0
 16 17  2  0
 17 18  1  0
 18 19  2  0
 19 20  1  0
 20 21  2  0
 21 22  1  0
 22 23  2  0
 22 24  1  0
 13  4  1  0
 21 16  1  0
 11  6  1  0
  3 25  1  0
  3 26  1  0
  4 27  1  0
  7 28  1  0
  8 29  1  0
  9 30  1  0
 10 31  1  0
 12 32  1  0
 15 33  1  0
 17 34  1  0
 18 35  1  0
 19 36  1  0
 20 37  1  0
M  CHG  2  22   1  24  -1
M  END
$$$$
