
     RDKit          3D

 50 53  0  0  0  0  0  0  0  0999 V2000
    0.9986    1.2349    2.5573 C   0  0  0  0  0  0  0  0  0  0  0  0
    1.2223    0.7618    1.2357 O   0  0  0  0  0  0  0  0  0  0  0  0
    2.2768    1.3092    0.5433 C   0  0  0  0  0  0  0  0  0  0  0  0
    3.0236    2.4106    0.9738 C   0  0  0  0  0  0  0  0  0  0  0  0
    4.0794    2.8888    0.1962 C   0  0  0  0  0  0  0  0  0  0  0  0
    4.3901    2.2727   -1.0128 C   0  0  0  0  0  0  0  0  0  0  0  0
    3.6454    1.1767   -1.4545 C   0  0  0  0  0  0  0  0  0  0  0  0
    2.5858    0.6879   -0.6868 C   0  0  0  0  0  0  0  0  0  0  0  0
    1.7811   -0.4062   -1.0721 N   0  0  0  0  0  0  0  0  0  0  0  0
    1.8725   -1.2056   -2.1911 C   0  0  0  0  0  0  0  0  0  0  0  0
    2.7505   -1.1111   -3.0435 O   0  0  0  0  0  0  0  0  0  0  0  0
    0.8252   -2.2025   -2.2876 C   0  0  0  0  0  0  0  0  0  0  0  0
   -0.3308   -2.3860   -1.5582 C   0  0  0  0  0  0  0  0  0  0  0  0
   -0.7665   -1.6111   -0.4797 N   0  0  0  0  0  0  0  0  0  0  0  0
   -1.6419   -0.7272   -0.8525 C   0  0  0  0  0  0  0  0  0  0  0  0
   -2.2363    0.2621    0.0810 C   0  0  0  0  0  0  0  0  0  0  0  0
   -2.5506    1.5159   -0.4698 C   0  0  0  0  0  0  0  0  0  0  0  0
   -2.3239    1.7588   -1.7984 O   0  0  0  0  0  0  0  0  0  0  0  0
   -3.0773    2.5286    0.3220 C   0  0  0  0  0  0  0  0  0  0  0  0
   -3.2990    2.2932    1.6763 C   0  0  0  0  0  0  0  0  0  0  0  0
   -3.0115    1.0473    2.2538 C   0  0  0  0  0  0  0  0  0  0  0  0
   -3.2642    0.8470    3.6214 C   0  0  0  0  0  0  0  0  0  0  0  0
   -3.0097   -0.3801    4.2286 C   0  0  0  0  0  0  0  0  0  0  0  0
   -2.5037   -1.4264    3.4727 C   0  0  0  0  0  0  0  0  0  0  0  0
   -2.2457   -1.2419    2.1117 C   0  0  0  0  0  0  0  0  0  0  0  0
   -2.4768   -0.0030    1.4610 C   0  0  0  0  0  0  0  0  0  0  0  0
   -0.9604   -3.5290   -2.0683 C   0  0  0  0  0  0  0  0  0  0  0  0
   -0.2866   -4.0392   -3.1006 N   0  0  0  0  0  0  0  0  0  0  0  0
    0.7891   -3.2231   -3.2149 N   0  0  0  0  0  0  0  0  0  0  0  0
    1.7646   -3.5044   -4.2449 C   0  0  0  0  0  0  0  0  0  0  0  0
    0.6397    2.2690    2.5446 H   0  0  0  0  0  0  0  0  0  0  0  0
    0.2195    0.6157    3.0097 H   0  0  0  0  0  0  0  0  0  0  0  0
    1.8964    1.1338    3.1762 H   0  0  0  0  0  0  0  0  0  0  0  0
    2.8071    2.9203    1.9061 H   0  0  0  0  0  0  0  0  0  0  0  0
    4.6601    3.7435    0.5339 H   0  0  0  0  0  0  0  0  0  0  0  0
    5.2127    2.6439   -1.6190 H   0  0  0  0  0  0  0  0  0  0  0  0
    3.9157    0.7287   -2.4048 H   0  0  0  0  0  0  0  0  0  0  0  0
    1.0303   -0.6242   -0.4152 H   0  0  0  0  0  0  0  0  0  0  0  0
   -1.9512   -0.6345   -1.9126 H   0  0  0  0  0  0  0  0  0  0  0  0
   -2.4923    2.6968   -1.9901 H   0  0  0  0  0  0  0  0  0  0  0  0
   -3.3198    3.5029   -0.0914 H   0  0  0  0  0  0  0  0  0  0  0  0
   -3.7115    3.0974    2.2835 H   0  0  0  0  0  0  0  0  0  0  0  0
   -3.6713    1.6517    4.2309 H   0  0  0  0  0  0  0  0  0  0  0  0
   -3.2133   -0.5194    5.2869 H   0  0  0  0  0  0  0  0  0  0  0  0
   -2.3080   -2.3913    3.9336 H   0  0  0  0  0  0  0  0  0  0  0  0
   -1.8587   -2.0968    1.5626 H   0  0  0  0  0  0  0  0  0  0  0  0
   -1.8750   -4.0040   -1.7413 H   0  0  0  0  0  0  0  0  0  0  0  0
    1.7808   -2.6660   -4.9451 H   0  0  0  0  0  0  0  0  0  0  0  0
    1.4795   -4.4173   -4.7752 H   0  0  0  0  0  0  0  0  0  0  0  0
    2.7393   -3.6492   -3.7729 H   0  0  0  0  0  0  0  0  0  0  0  0
  1  2  1  0
  2  3  1  0
  3  4  2  0
  4  5  1  0
  5  6  2  0
  6  7  1  0
  7  8  2  0
  8  9  1  0
  9 10  1  0
 10 11  2  0
 10 12  1  0
 12 13  2  0
 13 14  1  0
 14 15  2  3
 15 16  1  0
 16 17  2  0
 17 18  1  0
 17 19  1  0
 19 20  2  0
 20 21  1  0
 21 22  2  0
 22 23  1  0
 23 24  2  0
 24 25  1  0
 25 26  2  0
 13 27  1  0
 27 28  2  0
 28 29  1  0
 29 30  1  0
  8  3  1  0
 29 12  1  0
 26 16  1  0
 26 21  1  0
  1 31  1  0
  1 32  1  0
  1 33  1  0
  4 34  1  0
  5 35  1  0
  6 36  1  0
  7 37  1  0
  9 38  1  0
 15 39  1  0
 18 40  1  0
 19 41  1  0
 20 42  1  0
 22 43  1  0
 23 44  1  0
 24 45  1  0
 25 46  1  0
 27 47  1  0
 30 48  1  0
 30 49  1  0
 30 50  1  0
M  END
$$$$
