
     RDKit          3D

 42 45  0  0  0  0  0  0  0  0999 V2000
    6.4055    0.6848    0.4215 C   0  0  0  0  0  0  0  0  0  0  0  0
    5.6166    0.0754   -0.6380 N   0  0  0  0  0  0  0  0  0  0  0  0
    5.5236    0.8367   -1.8747 C   0  0  0  0  0  0  0  0  0  0  0  0
    5.0405   -1.1952   -0.5872 C   0  0  0  0  0  0  0  0  0  0  0  0
    4.5446   -1.7086   -1.5935 O   0  0  0  0  0  0  0  0  0  0  0  0
    5.0903   -1.9232    0.7559 C   0  0  0  0  0  0  0  0  0  0  0  0
    3.9257   -3.3168    0.8445 S   0  0  0  0  0  0  0  0  0  0  0  0
    2.4088   -2.4466    0.7378 C   0  0  0  0  0  0  0  0  0  0  0  0
    2.3038   -1.1995    1.1401 N   0  0  0  0  0  0  0  0  0  0  0  0
    1.0077   -0.7594    0.9412 C   0  0  0  0  0  0  0  0  0  0  0  0
    0.5165    0.5241    1.2257 C   0  0  0  0  0  0  0  0  0  0  0  0
   -0.8316    0.8300    0.9725 C   0  0  0  0  0  0  0  0  0  0  0  0
   -1.7270   -0.1091    0.4381 C   0  0  0  0  0  0  0  0  0  0  0  0
   -3.0991    0.2260    0.1897 N   0  0  0  0  0  0  0  0  0  0  0  0
   -4.0669   -0.6604   -0.2485 C   0  0  0  0  0  0  0  0  0  0  0  0
   -4.0313   -1.8518   -0.5018 O   0  0  0  0  0  0  0  0  0  0  0  0
   -5.3129    0.0865   -0.3807 C   0  0  0  0  0  0  0  0  0  0  0  0
   -6.5670   -0.3301   -0.7891 C   0  0  0  0  0  0  0  0  0  0  0  0
   -7.5839    0.6295   -0.8205 C   0  0  0  0  0  0  0  0  0  0  0  0
   -7.3269    1.9629   -0.4461 C   0  0  0  0  0  0  0  0  0  0  0  0
   -6.0494    2.3554   -0.0355 C   0  0  0  0  0  0  0  0  0  0  0  0
   -5.0614    1.3889   -0.0174 C   0  0  0  0  0  0  0  0  0  0  0  0
   -3.6517    1.4855    0.3460 C   0  0  0  0  0  0  0  0  0  0  0  0
   -3.1760    2.5516    0.6960 O   0  0  0  0  0  0  0  0  0  0  0  0
   -1.2265   -1.3956    0.1540 C   0  0  0  0  0  0  0  0  0  0  0  0
    0.1281   -1.6978    0.4067 C   0  0  0  0  0  0  0  0  0  0  0  0
    0.9784   -3.1748    0.1484 S   0  0  0  0  0  0  0  0  0  0  0  0
    7.3908    0.9454    0.0192 H   0  0  0  0  0  0  0  0  0  0  0  0
    6.5521    0.0281    1.2815 H   0  0  0  0  0  0  0  0  0  0  0  0
    5.8982    1.5993    0.7491 H   0  0  0  0  0  0  0  0  0  0  0  0
    4.7976    0.4093   -2.5715 H   0  0  0  0  0  0  0  0  0  0  0  0
    6.5094    0.8514   -2.3502 H   0  0  0  0  0  0  0  0  0  0  0  0
    5.2163    1.8606   -1.6386 H   0  0  0  0  0  0  0  0  0  0  0  0
    4.8650   -1.2389    1.5784 H   0  0  0  0  0  0  0  0  0  0  0  0
    6.1030   -2.3165    0.8918 H   0  0  0  0  0  0  0  0  0  0  0  0
    1.1813    1.2758    1.6405 H   0  0  0  0  0  0  0  0  0  0  0  0
   -1.1411    1.8408    1.2252 H   0  0  0  0  0  0  0  0  0  0  0  0
   -6.7505   -1.3601   -1.0760 H   0  0  0  0  0  0  0  0  0  0  0  0
   -8.5855    0.3448   -1.1385 H   0  0  0  0  0  0  0  0  0  0  0  0
   -8.1331    2.6935   -0.4784 H   0  0  0  0  0  0  0  0  0  0  0  0
   -5.8364    3.3787    0.2550 H   0  0  0  0  0  0  0  0  0  0  0  0
   -1.8453   -2.1807   -0.2668 H   0  0  0  0  0  0  0  0  0  0  0  0
  1  2  1  0
  2  3  1  0
  2  4  1  0
  4  5  2  0
  4  6  1  0
  6  7  1  0
  7  8  1  0
  8  9  2  0
  9 10  1  0
 10 11  2  0
 11 12  1  0
 12 13  2  0
 13 14  1  0
 14 15  1  0
 15 16  2  0
 15 17  1  0
 17 18  2  0
 18 19  1  0
 19 20  2  0
 20 21  1  0
 21 22  2  0
 22 23  1  0
 23 24  2  0
 13 25  1  0
 25 26  2  0
 26 27  1  0
 27  8  1  0
 26 10  1  0
 23 14  1  0
 22 17  1  0
  1 28  1  0
  1 29  1  0
  1 30  1  0
  3 31  1  0
  3 32  1  0
  3 33  1  0
  6 34  1  0
  6 35  1  0
 11 36  1  0
 12 37  1  0
 18 38  1  0
 19 39  1  0
 20 40  1  0
 21 41  1  0
 25 42  1  0
M  END
$$$$
