
     RDKit          3D

 29 31  0  0  0  0  0  0  0  0999 V2000
    2.6139    1.9307    1.3046 N   0  0  0  0  0  0  0  0  0  0  0  0
    2.2511    0.8940    0.4198 C   0  0  0  0  0  0  0  0  0  0  0  0
    0.9278    0.3695    0.5309 C   0  0  0  0  0  0  0  0  0  0  0  0
    0.4177   -0.7340   -0.2034 C   0  0  0  0  0  0  0  0  0  0  0  0
   -0.8914   -1.2187   -0.0803 N   0  0  0  0  0  0  0  0  0  0  0  0
   -2.1063   -0.5658    0.2046 C   0  0  0  0  0  0  0  0  0  0  0  0
   -2.2844    0.8183    0.1059 C   0  0  0  0  0  0  0  0  0  0  0  0
   -3.5086    1.4111    0.4321 C   0  0  0  0  0  0  0  0  0  0  0  0
   -4.5717    0.6257    0.8696 C   0  0  0  0  0  0  0  0  0  0  0  0
   -4.4119   -0.7523    0.9782 C   0  0  0  0  0  0  0  0  0  0  0  0
   -3.1880   -1.3407    0.6489 C   0  0  0  0  0  0  0  0  0  0  0  0
    1.3868   -1.3520   -1.0357 C   0  0  0  0  0  0  0  0  0  0  0  0
    1.2411   -2.4142   -1.8405 N   0  0  0  0  0  0  0  0  0  0  0  0
    2.4727   -2.6089   -2.4366 O   0  0  0  0  0  0  0  0  0  0  0  0
    3.3967   -1.6718   -2.0175 N   0  0  0  0  0  0  0  0  0  0  0  0
    2.7626   -0.8847   -1.1362 C   0  0  0  0  0  0  0  0  0  0  0  0
    3.1947    0.2220   -0.3871 C   0  0  0  0  0  0  0  0  0  0  0  0
    4.5648    0.6343   -0.4923 N   0  0  0  0  0  4  0  0  0  0  0  0
    5.4430   -0.2262   -0.3537 O   0  0  0  0  0  0  0  0  0  0  0  0
    4.7716    1.8433   -0.6805 O   0  0  0  0  0  1  0  0  0  0  0  0
    1.8447    2.5201    1.6149 H   0  0  0  0  0  0  0  0  0  0  0  0
    3.4094    2.4949    0.9942 H   0  0  0  0  0  0  0  0  0  0  0  0
    0.2613    0.8374    1.2579 H   0  0  0  0  0  0  0  0  0  0  0  0
   -1.0399   -2.0739   -0.6174 H   0  0  0  0  0  0  0  0  0  0  0  0
   -1.4881    1.4573   -0.2622 H   0  0  0  0  0  0  0  0  0  0  0  0
   -3.6321    2.4869    0.3375 H   0  0  0  0  0  0  0  0  0  0  0  0
   -5.5227    1.0864    1.1235 H   0  0  0  0  0  0  0  0  0  0  0  0
   -5.2364   -1.3711    1.3229 H   0  0  0  0  0  0  0  0  0  0  0  0
   -3.0788   -2.4176    0.7557 H   0  0  0  0  0  0  0  0  0  0  0  0
  1  2  1  0
  2  3  1  0
  3  4  2  0
  4  5  1  0
  5  6  1  0
  6  7  2  0
  7  8  1  0
  8  9  2  0
  9 10  1  0
 10 11  2  0
  4 12  1  0
 12 13  2  0
 13 14  1  0
 14 15  1  0
 15 16  2  0
 16 17  1  0
 17 18  1  0
 18 19  2  0
 18 20  1  0
 17  2  2  0
 11  6  1  0
 16 12  1  0
  1 21  1  0
  1 22  1  0
  3 23  1  0
  5 24  1  0
  7 25  1  0
  8 26  1  0
  9 27  1  0
 10 28  1  0
 11 29  1  0
M  CHG  2  18   1  20  -1
M  END
$$$$
