
     RDKit          3D

 51 54  0  0  0  0  0  0  0  0999 V2000
    3.7741    1.0864    2.3654 C   0  0  0  0  0  0  0  0  0  0  0  0
    2.9203    1.2259    1.0947 C   0  0  0  0  0  0  0  0  0  0  0  0
    1.5255    1.7753    1.4600 C   0  0  0  0  0  0  0  0  0  0  0  0
    0.7251    0.5128    1.5268 C   0  0  0  0  0  0  0  0  0  0  0  0
   -0.5582    0.3577    2.0296 C   0  0  0  0  0  0  0  0  0  0  0  0
   -1.1534   -0.9023    1.9164 C   0  0  0  0  0  0  0  0  0  0  0  0
   -2.7911   -1.1457    2.5635 S   0  0  0  0  0  6  0  0  0  0  0  0
   -3.0254   -2.5672    2.6803 O   0  0  0  0  0  0  0  0  0  0  0  0
   -2.9551   -0.2490    3.6862 O   0  0  0  0  0  0  0  0  0  0  0  0
   -3.7573   -0.5573    1.3381 N   0  0  0  0  0  0  0  0  0  0  0  0
   -3.7118   -1.1782    0.0214 C   0  0  0  0  0  0  0  0  0  0  0  0
   -4.8830   -0.7354   -0.8209 C   0  0  0  0  0  0  0  0  0  0  0  0
   -4.6976    0.0966   -1.9340 C   0  0  0  0  0  0  0  0  0  0  0  0
   -5.7910    0.5067   -2.6993 C   0  0  0  0  0  0  0  0  0  0  0  0
   -7.0777    0.0934   -2.3582 C   0  0  0  0  0  0  0  0  0  0  0  0
   -7.2744   -0.7294   -1.2510 C   0  0  0  0  0  0  0  0  0  0  0  0
   -6.1833   -1.1412   -0.4850 C   0  0  0  0  0  0  0  0  0  0  0  0
   -0.4713   -1.9769    1.3217 C   0  0  0  0  0  0  0  0  0  0  0  0
    0.8174   -1.7933    0.8064 C   0  0  0  0  0  0  0  0  0  0  0  0
    1.4131   -0.5466    0.9231 C   0  0  0  0  0  0  0  0  0  0  0  0
    2.6872   -0.1071    0.4826 N   0  0  0  0  0  0  0  0  0  0  0  0
    3.5742   -0.8751   -0.2714 C   0  0  0  0  0  0  0  0  0  0  0  0
    3.4244   -2.1037   -0.3896 O   0  0  0  0  0  0  0  0  0  0  0  0
    4.7132   -0.2135   -1.0669 C   0  0  0  0  0  0  0  0  0  0  0  0
    5.8030    0.7126   -0.4854 C   0  0  0  0  0  0  0  0  0  0  0  0
    5.8297    1.4309   -1.8513 C   0  0  0  0  0  0  0  0  0  0  0  0
    4.3953    0.9143   -2.0810 C   0  0  0  0  0  0  0  0  0  0  0  0
    4.7095    0.5538    2.1733 H   0  0  0  0  0  0  0  0  0  0  0  0
    4.0167    2.0733    2.7727 H   0  0  0  0  0  0  0  0  0  0  0  0
    3.2478    0.5220    3.1439 H   0  0  0  0  0  0  0  0  0  0  0  0
    3.4152    1.8982    0.3926 H   0  0  0  0  0  0  0  0  0  0  0  0
    1.5154    2.3363    2.3989 H   0  0  0  0  0  0  0  0  0  0  0  0
    1.1360    2.4039    0.6514 H   0  0  0  0  0  0  0  0  0  0  0  0
   -1.0818    1.1891    2.4927 H   0  0  0  0  0  0  0  0  0  0  0  0
   -4.0059    0.4267    1.4048 H   0  0  0  0  0  0  0  0  0  0  0  0
   -3.7291   -2.2709    0.0988 H   0  0  0  0  0  0  0  0  0  0  0  0
   -2.7795   -0.8963   -0.4801 H   0  0  0  0  0  0  0  0  0  0  0  0
   -3.7016    0.4305   -2.2159 H   0  0  0  0  0  0  0  0  0  0  0  0
   -5.6398    1.1491   -3.5632 H   0  0  0  0  0  0  0  0  0  0  0  0
   -7.9281    0.4133   -2.9548 H   0  0  0  0  0  0  0  0  0  0  0  0
   -8.2777   -1.0501   -0.9823 H   0  0  0  0  0  0  0  0  0  0  0  0
   -6.3485   -1.7791    0.3819 H   0  0  0  0  0  0  0  0  0  0  0  0
   -0.9347   -2.9596    1.2545 H   0  0  0  0  0  0  0  0  0  0  0  0
    1.3256   -2.6341    0.3462 H   0  0  0  0  0  0  0  0  0  0  0  0
    5.2280   -1.0287   -1.6116 H   0  0  0  0  0  0  0  0  0  0  0  0
    6.7372    0.2158   -0.2070 H   0  0  0  0  0  0  0  0  0  0  0  0
    5.5215    1.3840    0.3247 H   0  0  0  0  0  0  0  0  0  0  0  0
    5.9426    2.5173   -1.8154 H   0  0  0  0  0  0  0  0  0  0  0  0
    6.5642    1.0174   -2.5519 H   0  0  0  0  0  0  0  0  0  0  0  0
    4.1811    0.5808   -3.1006 H   0  0  0  0  0  0  0  0  0  0  0  0
    3.6137    1.6170   -1.7778 H   0  0  0  0  0  0  0  0  0  0  0  0
  1  2  1  0
  2  3  1  0
  3  4  1  0
  4  5  2  0
  5  6  1  0
  6  7  1  0
  7  8  2  0
  7  9  2  0
  7 10  1  0
 10 11  1  0
 11 12  1  0
 12 13  2  0
 13 14  1  0
 14 15  2  0
 15 16  1  0
 16 17  2  0
  6 18  2  0
 18 19  1  0
 19 20  2  0
 20 21  1  0
 21 22  1  0
 22 23  2  0
 22 24  1  0
 24 25  1  0
 25 26  1  0
 26 27  1  0
 21  2  1  0
 27 24  1  0
 20  4  1  0
 17 12  1  0
  1 28  1  0
  1 29  1  0
  1 30  1  0
  2 31  1  0
  3 32  1  0
  3 33  1  0
  5 34  1  0
 10 35  1  0
 11 36  1  0
 11 37  1  0
 13 38  1  0
 14 39  1  0
 15 40  1  0
 16 41  1  0
 17 42  1  0
 18 43  1  0
 19 44  1  0
 24 45  1  0
 25 46  1  0
 25 47  1  0
 26 48  1  0
 26 49  1  0
 27 50  1  0
 27 51  1  0
M  END
$$$$
