
     RDKit          3D

 43 45  0  0  0  0  0  0  0  0999 V2000
   -6.7862   -1.0768   -0.6012 C   0  0  0  0  0  0  0  0  0  0  0  0
   -6.1577    0.2487   -0.1639 C   0  0  0  0  0  0  0  0  0  0  0  0
   -6.6070    1.3929   -1.0760 C   0  0  0  0  0  0  0  0  0  0  0  0
   -4.6428    0.1534   -0.0943 C   0  0  0  0  0  0  0  0  0  0  0  0
   -3.9869    0.3658    1.1279 C   0  0  0  0  0  0  0  0  0  0  0  0
   -2.5935    0.2857    1.2182 C   0  0  0  0  0  0  0  0  0  0  0  0
   -1.8360   -0.0180    0.0816 C   0  0  0  0  0  0  0  0  0  0  0  0
   -0.3525   -0.1150    0.1237 C   0  0  0  0  0  0  0  0  0  0  0  0
    0.3168    0.1633   -0.8680 O   0  0  0  0  0  0  0  0  0  0  0  0
    0.1995   -0.5739    1.3134 N   0  0  0  0  0  0  0  0  0  0  0  0
    1.5373   -0.7138    1.6638 C   0  0  0  0  0  0  0  0  0  0  0  0
    1.8122   -1.3342    3.1886 S   0  0  0  0  0  0  0  0  0  0  0  0
    2.4234   -0.3189    0.6897 N   0  0  0  0  0  0  0  0  0  0  0  0
    3.8322   -0.2420    0.6090 C   0  0  0  0  0  0  0  0  0  0  0  0
    4.7285   -0.5091    1.6682 C   0  0  0  0  0  0  0  0  0  0  0  0
    6.1209   -0.4061    1.5063 C   0  0  0  0  0  0  0  0  0  0  0  0
    6.5772   -0.0287    0.2701 C   0  0  0  0  0  0  0  0  0  0  0  0
    7.8767    0.1573   -0.1856 N   0  0  0  0  0  0  0  0  0  0  0  0
    7.8292    0.5491   -1.5315 C   0  0  0  0  0  0  0  0  0  0  0  0
    8.7795    0.7981   -2.2510 O   0  0  0  0  0  0  0  0  0  0  0  0
    6.4731    0.5984   -1.8866 N   0  0  0  0  0  0  0  0  0  0  0  0
    5.7093    0.2435   -0.7796 C   0  0  0  0  0  0  0  0  0  0  0  0
    4.3435    0.1492   -0.6440 C   0  0  0  0  0  0  0  0  0  0  0  0
   -2.4786   -0.2120   -1.1451 C   0  0  0  0  0  0  0  0  0  0  0  0
   -3.8708   -0.1320   -1.2303 C   0  0  0  0  0  0  0  0  0  0  0  0
   -7.8792   -1.0153   -0.5629 H   0  0  0  0  0  0  0  0  0  0  0  0
   -6.5047   -1.3465   -1.6249 H   0  0  0  0  0  0  0  0  0  0  0  0
   -6.4732   -1.8945    0.0576 H   0  0  0  0  0  0  0  0  0  0  0  0
   -6.5399    0.4688    0.8418 H   0  0  0  0  0  0  0  0  0  0  0  0
   -6.3147    1.2252   -2.1183 H   0  0  0  0  0  0  0  0  0  0  0  0
   -7.6968    1.5006   -1.0498 H   0  0  0  0  0  0  0  0  0  0  0  0
   -6.1683    2.3444   -0.7553 H   0  0  0  0  0  0  0  0  0  0  0  0
   -4.5595    0.6070    2.0220 H   0  0  0  0  0  0  0  0  0  0  0  0
   -2.1250    0.4938    2.1760 H   0  0  0  0  0  0  0  0  0  0  0  0
   -0.4284   -0.8941    2.0381 H   0  0  0  0  0  0  0  0  0  0  0  0
    1.9474   -0.0472   -0.1739 H   0  0  0  0  0  0  0  0  0  0  0  0
    4.3812   -0.7937    2.6530 H   0  0  0  0  0  0  0  0  0  0  0  0
    6.7944   -0.6144    2.3289 H   0  0  0  0  0  0  0  0  0  0  0  0
    8.7304    0.0399    0.3346 H   0  0  0  0  0  0  0  0  0  0  0  0
    6.1423    0.8532   -2.8026 H   0  0  0  0  0  0  0  0  0  0  0  0
    3.6924    0.3684   -1.4829 H   0  0  0  0  0  0  0  0  0  0  0  0
   -1.8995   -0.4294   -2.0407 H   0  0  0  0  0  0  0  0  0  0  0  0
   -4.3462   -0.2913   -2.1962 H   0  0  0  0  0  0  0  0  0  0  0  0
  1  2  1  0
  2  3  1  0
  2  4  1  0
  4  5  2  0
  5  6  1  0
  6  7  2  0
  7  8  1  0
  8  9  2  0
  8 10  1  0
 10 11  1  0
 11 12  2  0
 11 13  1  0
 13 14  1  0
 14 15  2  0
 15 16  1  0
 16 17  2  0
 17 18  1  0
 18 19  1  0
 19 20  2  0
 19 21  1  0
 21 22  1  0
 22 23  2  0
  7 24  1  0
 24 25  2  0
 25  4  1  0
 23 14  1  0
 22 17  1  0
  1 26  1  0
  1 27  1  0
  1 28  1  0
  2 29  1  0
  3 30  1  0
  3 31  1  0
  3 32  1  0
  5 33  1  0
  6 34  1  0
 10 35  1  0
 13 36  1  0
 15 37  1  0
 16 38  1  0
 18 39  1  0
 21 40  1  0
 23 41  1  0
 24 42  1  0
 25 43  1  0
M  END
$$$$
