
     RDKit          3D

 39 41  0  0  0  0  0  0  0  0999 V2000
   -1.6574   -3.1593   -0.5480 C   0  0  0  0  0  0  0  0  0  0  0  0
   -1.5037   -2.2285    0.6476 C   0  0  0  0  0  0  0  0  0  0  0  0
   -1.9053   -0.8549    0.3253 N   0  0  0  0  0  0  0  0  0  0  0  0
   -1.0164    0.1211   -0.0965 C   0  0  0  0  0  0  0  0  0  0  0  0
    0.4046   -0.2787   -0.2651 C   0  0  0  0  0  0  0  0  0  0  0  0
    1.3667    0.4951    0.2593 C   0  0  0  0  0  0  0  0  0  0  0  0
    2.8021    0.2112    0.1343 C   0  0  0  0  0  0  0  0  0  0  0  0
    3.6955    1.2896    0.0125 C   0  0  0  0  0  0  0  0  0  0  0  0
    5.0753    1.0755   -0.0851 C   0  0  0  0  0  0  0  0  0  0  0  0
    5.5608   -0.2243   -0.0491 C   0  0  0  0  0  0  0  0  0  0  0  0
    6.8963   -0.5017   -0.1392 O   0  0  0  0  0  0  0  0  0  0  0  0
    4.6841   -1.2965    0.0871 C   0  0  0  0  0  0  0  0  0  0  0  0
    5.1704   -2.5725    0.1312 O   0  0  0  0  0  0  0  0  0  0  0  0
    3.3136   -1.0923    0.1844 C   0  0  0  0  0  0  0  0  0  0  0  0
   -1.3592    1.3442   -0.3611 N   0  0  0  0  0  0  0  0  0  0  0  0
   -2.6995    1.7136   -0.2219 C   0  0  0  0  0  0  0  0  0  0  0  0
   -3.0681    3.0331   -0.4958 C   0  0  0  0  0  0  0  0  0  0  0  0
   -4.3995    3.4413   -0.3746 C   0  0  0  0  0  0  0  0  0  0  0  0
   -5.3761    2.5285    0.0221 C   0  0  0  0  0  0  0  0  0  0  0  0
   -5.0197    1.2089    0.2974 C   0  0  0  0  0  0  0  0  0  0  0  0
   -3.6822    0.8127    0.1728 C   0  0  0  0  0  0  0  0  0  0  0  0
   -3.2662   -0.5697    0.4576 C   0  0  0  0  0  0  0  0  0  0  0  0
   -4.1147   -1.3950    0.7904 O   0  0  0  0  0  0  0  0  0  0  0  0
   -1.3425   -4.1729   -0.2817 H   0  0  0  0  0  0  0  0  0  0  0  0
   -2.6989   -3.2037   -0.8827 H   0  0  0  0  0  0  0  0  0  0  0  0
   -1.0520   -2.8244   -1.3957 H   0  0  0  0  0  0  0  0  0  0  0  0
   -2.1216   -2.6011    1.4733 H   0  0  0  0  0  0  0  0  0  0  0  0
   -0.4698   -2.2498    1.0056 H   0  0  0  0  0  0  0  0  0  0  0  0
    0.6156   -1.1685   -0.8432 H   0  0  0  0  0  0  0  0  0  0  0  0
    1.1031    1.4069    0.7927 H   0  0  0  0  0  0  0  0  0  0  0  0
    3.3180    2.3104   -0.0175 H   0  0  0  0  0  0  0  0  0  0  0  0
    5.7396    1.9274   -0.1864 H   0  0  0  0  0  0  0  0  0  0  0  0
    7.3744    0.3404   -0.2323 H   0  0  0  0  0  0  0  0  0  0  0  0
    6.1395   -2.4674    0.0487 H   0  0  0  0  0  0  0  0  0  0  0  0
    2.6637   -1.9527    0.3089 H   0  0  0  0  0  0  0  0  0  0  0  0
   -2.3086    3.7455   -0.8077 H   0  0  0  0  0  0  0  0  0  0  0  0
   -4.6717    4.4713   -0.5915 H   0  0  0  0  0  0  0  0  0  0  0  0
   -6.4124    2.8437    0.1164 H   0  0  0  0  0  0  0  0  0  0  0  0
   -5.7779    0.4935    0.6072 H   0  0  0  0  0  0  0  0  0  0  0  0
  1  2  1  0
  2  3  1  0
  3  4  1  0
  4  5  1  0
  5  6  2  3
  6  7  1  0
  7  8  2  0
  8  9  1  0
  9 10  2  0
 10 11  1  0
 10 12  1  0
 12 13  1  0
 12 14  2  0
  4 15  2  0
 15 16  1  0
 16 17  2  0
 17 18  1  0
 18 19  2  0
 19 20  1  0
 20 21  2  0
 21 22  1  0
 22 23  2  0
 22  3  1  0
 14  7  1  0
 21 16  1  0
  1 24  1  0
  1 25  1  0
  1 26  1  0
  2 27  1  0
  2 28  1  0
  5 29  1  0
  6 30  1  0
  8 31  1  0
  9 32  1  0
 11 33  1  0
 13 34  1  0
 14 35  1  0
 17 36  1  0
 18 37  1  0
 19 38  1  0
 20 39  1  0
M  END
$$$$
