
     RDKit          3D

 53 56  0  0  0  0  0  0  0  0999 V2000
   -0.1049    1.5762    2.5270 C   0  0  0  0  0  0  0  0  0  0  0  0
   -0.7323    0.5308    1.6427 C   0  0  0  0  0  0  0  0  0  0  0  0
   -0.0545   -0.6655    1.3583 C   0  0  0  0  0  0  0  0  0  0  0  0
    1.1681   -0.8199    1.9526 O   0  0  0  0  0  0  0  0  0  0  0  0
    2.1099   -1.7230    1.3659 C   0  0  0  0  0  0  0  0  0  0  0  0
    2.1167   -3.0280    2.1524 C   0  0  0  0  0  0  0  0  0  0  0  0
    3.5003   -1.0614    1.4046 C   0  0  0  0  0  0  0  0  0  0  0  0
    4.5363   -1.6749    1.6511 O   0  0  0  0  0  0  0  0  0  0  0  0
    3.4902    0.2719    1.0567 N   0  0  0  0  0  0  0  0  0  0  0  0
    4.7070    1.0252    0.8474 C   0  0  0  0  0  0  0  0  0  0  0  0
    5.1473    0.9653   -0.5966 C   0  0  0  0  0  0  0  0  0  0  0  0
    6.0363   -0.0215   -1.0199 C   0  0  0  0  0  0  0  0  0  0  0  0
    6.3973   -0.0701   -2.3629 C   0  0  0  0  0  0  0  0  0  0  0  0
    5.8581    0.8569   -3.2466 C   0  0  0  0  0  0  0  0  0  0  0  0
    4.9704    1.7961   -2.7491 C   0  0  0  0  0  0  0  0  0  0  0  0
    4.5982    1.8677   -1.4521 N   0  0  0  0  0  0  0  0  0  0  0  0
   -0.6614   -1.6225    0.5436 C   0  0  0  0  0  0  0  0  0  0  0  0
   -1.9157   -1.3799   -0.0318 C   0  0  0  0  0  0  0  0  0  0  0  0
   -2.5921   -0.1764    0.1913 C   0  0  0  0  0  0  0  0  0  0  0  0
   -3.9042    0.1386   -0.3999 C   0  0  0  0  0  0  0  0  0  0  0  0
   -4.5063    1.3019   -0.0847 C   0  0  0  0  0  0  0  0  0  0  0  0
   -3.8662    2.3043    0.8022 C   0  0  0  0  0  0  0  0  0  0  0  0
   -4.4071    3.3720    1.0687 O   0  0  0  0  0  0  0  0  0  0  0  0
   -2.6197    1.9828    1.3087 O   0  0  0  0  0  0  0  0  0  0  0  0
   -1.9819    0.7551    1.0333 C   0  0  0  0  0  0  0  0  0  0  0  0
   -5.8726    1.6890   -0.5936 C   0  0  0  0  0  0  0  0  0  0  0  0
   -6.6445    0.5222   -1.2079 C   0  0  0  0  0  0  0  0  0  0  0  0
   -5.7431   -0.2954   -2.1192 C   0  0  0  0  0  0  0  0  0  0  0  0
   -4.5430   -0.8517   -1.3488 C   0  0  0  0  0  0  0  0  0  0  0  0
    0.5879    2.1898    1.9426 H   0  0  0  0  0  0  0  0  0  0  0  0
    0.4400    1.1153    3.3578 H   0  0  0  0  0  0  0  0  0  0  0  0
   -0.8546    2.2303    2.9825 H   0  0  0  0  0  0  0  0  0  0  0  0
    1.9083   -1.9080    0.3033 H   0  0  0  0  0  0  0  0  0  0  0  0
    2.8214   -3.7481    1.7244 H   0  0  0  0  0  0  0  0  0  0  0  0
    2.4022   -2.8509    3.1957 H   0  0  0  0  0  0  0  0  0  0  0  0
    1.1223   -3.4850    2.1717 H   0  0  0  0  0  0  0  0  0  0  0  0
    2.6246    0.6782    0.7220 H   0  0  0  0  0  0  0  0  0  0  0  0
    5.4996    0.6614    1.5104 H   0  0  0  0  0  0  0  0  0  0  0  0
    4.4952    2.0643    1.1212 H   0  0  0  0  0  0  0  0  0  0  0  0
    6.4348   -0.7472   -0.3156 H   0  0  0  0  0  0  0  0  0  0  0  0
    7.0910   -0.8285   -2.7151 H   0  0  0  0  0  0  0  0  0  0  0  0
    6.1199    0.8456   -4.2984 H   0  0  0  0  0  0  0  0  0  0  0  0
    4.5194    2.5391   -3.4011 H   0  0  0  0  0  0  0  0  0  0  0  0
   -0.1944   -2.5823    0.3455 H   0  0  0  0  0  0  0  0  0  0  0  0
   -2.3447   -2.1626   -0.6519 H   0  0  0  0  0  0  0  0  0  0  0  0
   -5.7524    2.4789   -1.3459 H   0  0  0  0  0  0  0  0  0  0  0  0
   -6.4810    2.1058    0.2183 H   0  0  0  0  0  0  0  0  0  0  0  0
   -7.5046    0.9034   -1.7699 H   0  0  0  0  0  0  0  0  0  0  0  0
   -7.0422   -0.1201   -0.4118 H   0  0  0  0  0  0  0  0  0  0  0  0
   -6.3074   -1.1211   -2.5673 H   0  0  0  0  0  0  0  0  0  0  0  0
   -5.3901    0.3347   -2.9459 H   0  0  0  0  0  0  0  0  0  0  0  0
   -3.8151   -1.1971   -2.0924 H   0  0  0  0  0  0  0  0  0  0  0  0
   -4.8665   -1.7288   -0.7733 H   0  0  0  0  0  0  0  0  0  0  0  0
  1  2  1  0
  2  3  2  0
  3  4  1  0
  4  5  1  0
  5  6  1  0
  5  7  1  0
  7  8  2  0
  7  9  1  0
  9 10  1  0
 10 11  1  0
 11 12  2  0
 12 13  1  0
 13 14  2  0
 14 15  1  0
 15 16  2  0
  3 17  1  0
 17 18  2  0
 18 19  1  0
 19 20  1  0
 20 21  2  0
 21 22  1  0
 22 23  2  0
 22 24  1  0
 24 25  1  0
 21 26  1  0
 26 27  1  0
 27 28  1  0
 28 29  1  0
 25  2  1  0
 16 11  1  0
 25 19  2  0
 29 20  1  0
  1 30  1  0
  1 31  1  0
  1 32  1  0
  5 33  1  0
  6 34  1  0
  6 35  1  0
  6 36  1  0
  9 37  1  0
 10 38  1  0
 10 39  1  0
 12 40  1  0
 13 41  1  0
 14 42  1  0
 15 43  1  0
 17 44  1  0
 18 45  1  0
 26 46  1  0
 26 47  1  0
 27 48  1  0
 27 49  1  0
 28 50  1  0
 28 51  1  0
 29 52  1  0
 29 53  1  0
M  END
$$$$
