
     RDKit          3D

 44 47  0  0  0  0  0  0  0  0999 V2000
    1.3583   -2.3884   -0.4944 O   0  0  0  0  0  0  0  0  0  0  0  0
    0.7271   -1.5487   -1.1432 C   0  0  0  0  0  0  0  0  0  0  0  0
    1.3014   -0.8672   -2.3868 C   0  0  0  0  0  0  0  0  0  0  0  0
    2.9367   -1.5033   -2.8540 S   0  0  0  0  0  0  0  0  0  0  0  0
    3.8896   -0.8253   -1.5892 C   0  0  0  0  0  0  0  0  0  0  0  0
    4.5589    0.2991   -1.6268 N   0  0  0  0  0  0  0  0  0  0  0  0
    5.1346    0.4009   -0.3816 C   0  0  0  0  0  0  0  0  0  0  0  0
    5.9624    1.4050    0.1386 C   0  0  0  0  0  0  0  0  0  0  0  0
    6.4055    1.2741    1.4582 C   0  0  0  0  0  0  0  0  0  0  0  0
    7.4249    2.4924    2.1280 Cl  0  0  0  0  0  0  0  0  0  0  0  0
    6.0388    0.1805    2.2475 C   0  0  0  0  0  0  0  0  0  0  0  0
    5.2133   -0.8313    1.7430 C   0  0  0  0  0  0  0  0  0  0  0  0
    4.7870   -0.6837    0.4223 C   0  0  0  0  0  0  0  0  0  0  0  0
    3.9900   -1.4553   -0.3839 N   0  0  0  0  0  0  0  0  0  0  0  0
   -0.5710   -1.1802   -0.7740 N   0  0  0  0  0  0  0  0  0  0  0  0
   -1.2225    0.0510   -1.2473 C   0  0  0  0  0  0  0  0  0  0  0  0
   -2.7527   -0.0211   -1.1643 C   0  0  0  0  0  0  0  0  0  0  0  0
   -3.2102   -0.4747    0.1526 N   0  0  0  0  0  0  0  0  0  0  0  0
   -4.4956   -0.1874    0.6385 C   0  0  0  0  0  0  0  0  0  0  0  0
   -5.1044   -1.0190    1.3156 O   0  0  0  0  0  0  0  0  0  0  0  0
   -5.0788    1.1141    0.3561 C   0  0  0  0  0  0  0  0  0  0  0  0
   -6.3993    1.5270    0.4087 C   0  0  0  0  0  0  0  0  0  0  0  0
   -6.4133    2.9094    0.1069 C   0  0  0  0  0  0  0  0  0  0  0  0
   -5.1018    3.2682   -0.0897 C   0  0  0  0  0  0  0  0  0  0  0  0
   -4.2852    2.1950    0.0677 O   0  0  0  0  0  0  0  0  0  0  0  0
   -2.6035   -1.7354    0.5823 C   0  0  0  0  0  0  0  0  0  0  0  0
   -1.0734   -1.6918    0.5084 C   0  0  0  0  0  0  0  0  0  0  0  0
    1.3727    0.2117   -2.2171 H   0  0  0  0  0  0  0  0  0  0  0  0
    0.6288   -1.0581   -3.2286 H   0  0  0  0  0  0  0  0  0  0  0  0
    6.2422    2.2517   -0.4770 H   0  0  0  0  0  0  0  0  0  0  0  0
    6.3987    0.1069    3.2719 H   0  0  0  0  0  0  0  0  0  0  0  0
    4.9250   -1.6827    2.3506 H   0  0  0  0  0  0  0  0  0  0  0  0
    3.4855   -2.2967   -0.1328 H   0  0  0  0  0  0  0  0  0  0  0  0
   -0.9345    0.2702   -2.2783 H   0  0  0  0  0  0  0  0  0  0  0  0
   -0.8482    0.8674   -0.6176 H   0  0  0  0  0  0  0  0  0  0  0  0
   -3.1815    0.9366   -1.4572 H   0  0  0  0  0  0  0  0  0  0  0  0
   -3.1255   -0.7559   -1.8901 H   0  0  0  0  0  0  0  0  0  0  0  0
   -7.2426    0.8927    0.6485 H   0  0  0  0  0  0  0  0  0  0  0  0
   -7.2711    3.5657    0.0560 H   0  0  0  0  0  0  0  0  0  0  0  0
   -4.6087    4.2011   -0.3269 H   0  0  0  0  0  0  0  0  0  0  0  0
   -2.9933   -2.5242   -0.0732 H   0  0  0  0  0  0  0  0  0  0  0  0
   -2.9089   -1.9742    1.6071 H   0  0  0  0  0  0  0  0  0  0  0  0
   -0.6821   -1.0235    1.2859 H   0  0  0  0  0  0  0  0  0  0  0  0
   -0.6733   -2.6925    0.7038 H   0  0  0  0  0  0  0  0  0  0  0  0
  1  2  2  0
  2  3  1  0
  3  4  1  0
  4  5  1  0
  5  6  2  0
  6  7  1  0
  7  8  2  0
  8  9  1  0
  9 10  1  0
  9 11  2  0
 11 12  1  0
 12 13  2  0
 13 14  1  0
  2 15  1  0
 15 16  1  0
 16 17  1  0
 17 18  1  0
 18 19  1  0
 19 20  2  0
 19 21  1  0
 21 22  2  0
 22 23  1  0
 23 24  2  0
 24 25  1  0
 18 26  1  0
 26 27  1  0
 14  5  1  0
 27 15  1  0
 13  7  1  0
 25 21  1  0
  3 28  1  0
  3 29  1  0
  8 30  1  0
 11 31  1  0
 12 32  1  0
 14 33  1  0
 16 34  1  0
 16 35  1  0
 17 36  1  0
 17 37  1  0
 22 38  1  0
 23 39  1  0
 24 40  1  0
 26 41  1  0
 26 42  1  0
 27 43  1  0
 27 44  1  0
M  END
$$$$
