
     RDKit          3D

 46 47  0  0  0  0  0  0  0  0999 V2000
    7.3507   -3.1314    0.5843 O   0  0  0  0  0  0  0  0  0  0  0  0
    6.7200   -2.2660    1.1700 C   0  0  0  0  0  0  0  0  0  0  0  0
    5.6705   -2.6043    1.9410 O   0  0  0  0  0  0  0  0  0  0  0  0
    7.0675   -0.8012    1.2000 C   0  0  0  0  0  0  0  0  0  0  0  0
    5.9024    0.1063    1.5801 C   0  0  0  0  0  0  0  0  0  0  0  0
    4.7967    0.0953    0.5360 C   0  0  0  0  0  0  0  0  0  0  0  0
    4.9120   -0.5094   -0.5229 O   0  0  0  0  0  0  0  0  0  0  0  0
    3.7081    0.8499    0.9409 N   0  0  0  0  0  0  0  0  0  0  0  0
    2.5154    1.0900    0.2278 C   0  0  0  0  0  0  0  0  0  0  0  0
    1.5374    1.8683    0.8649 C   0  0  0  0  0  0  0  0  0  0  0  0
    0.3262    2.1554    0.2293 C   0  0  0  0  0  0  0  0  0  0  0  0
    0.0871    1.6561   -1.0517 C   0  0  0  0  0  0  0  0  0  0  0  0
   -1.4425    2.0393   -1.8643 S   0  0  0  0  0  6  0  0  0  0  0  0
   -1.8351    3.3677   -1.4485 O   0  0  0  0  0  0  0  0  0  0  0  0
   -1.3433    1.6724   -3.2588 O   0  0  0  0  0  0  0  0  0  0  0  0
   -2.5011    0.9758   -1.1121 N   0  0  0  0  0  0  0  0  0  0  0  0
   -2.6156   -0.3895   -1.6476 C   0  0  0  0  0  0  0  0  0  0  0  0
   -3.2476   -1.3189   -0.6056 C   0  0  0  0  0  0  0  0  0  0  0  0
   -4.6774   -0.9584   -0.2738 C   0  0  0  0  0  0  0  0  0  0  0  0
   -5.7160   -1.2784   -1.1588 C   0  0  0  0  0  0  0  0  0  0  0  0
   -7.0326   -0.9235   -0.8610 C   0  0  0  0  0  0  0  0  0  0  0  0
   -7.3235   -0.2472    0.3220 C   0  0  0  0  0  0  0  0  0  0  0  0
   -6.2989    0.0723    1.2104 C   0  0  0  0  0  0  0  0  0  0  0  0
   -4.9816   -0.2812    0.9149 C   0  0  0  0  0  0  0  0  0  0  0  0
    1.0552    0.8935   -1.7050 C   0  0  0  0  0  0  0  0  0  0  0  0
    2.2645    0.6091   -1.0605 C   0  0  0  0  0  0  0  0  0  0  0  0
    5.5871   -3.5707    1.7916 H   0  0  0  0  0  0  0  0  0  0  0  0
    7.4471   -0.5254    0.2092 H   0  0  0  0  0  0  0  0  0  0  0  0
    7.8775   -0.6743    1.9266 H   0  0  0  0  0  0  0  0  0  0  0  0
    5.4822   -0.1799    2.5514 H   0  0  0  0  0  0  0  0  0  0  0  0
    6.2685    1.1372    1.6631 H   0  0  0  0  0  0  0  0  0  0  0  0
    3.7644    1.2672    1.8617 H   0  0  0  0  0  0  0  0  0  0  0  0
    1.7047    2.2662    1.8629 H   0  0  0  0  0  0  0  0  0  0  0  0
   -0.4199    2.7672    0.7325 H   0  0  0  0  0  0  0  0  0  0  0  0
   -3.3687    1.4341   -0.8277 H   0  0  0  0  0  0  0  0  0  0  0  0
   -1.6235   -0.7781   -1.8988 H   0  0  0  0  0  0  0  0  0  0  0  0
   -3.2213   -0.3666   -2.5602 H   0  0  0  0  0  0  0  0  0  0  0  0
   -3.2258   -2.3506   -0.9790 H   0  0  0  0  0  0  0  0  0  0  0  0
   -2.6432   -1.3155    0.3105 H   0  0  0  0  0  0  0  0  0  0  0  0
   -5.5068   -1.8099   -2.0855 H   0  0  0  0  0  0  0  0  0  0  0  0
   -7.8327   -1.1754   -1.5521 H   0  0  0  0  0  0  0  0  0  0  0  0
   -8.3492    0.0279    0.5528 H   0  0  0  0  0  0  0  0  0  0  0  0
   -6.5264    0.5964    2.1344 H   0  0  0  0  0  0  0  0  0  0  0  0
   -4.1931   -0.0230    1.6181 H   0  0  0  0  0  0  0  0  0  0  0  0
    0.8860    0.5185   -2.7118 H   0  0  0  0  0  0  0  0  0  0  0  0
    2.9945    0.0129   -1.5999 H   0  0  0  0  0  0  0  0  0  0  0  0
  1  2  2  0
  2  3  1  0
  2  4  1  0
  4  5  1  0
  5  6  1  0
  6  7  2  0
  6  8  1  0
  8  9  1  0
  9 10  2  0
 10 11  1  0
 11 12  2  0
 12 13  1  0
 13 14  2  0
 13 15  2  0
 13 16  1  0
 16 17  1  0
 17 18  1  0
 18 19  1  0
 19 20  2  0
 20 21  1  0
 21 22  2  0
 22 23  1  0
 23 24  2  0
 12 25  1  0
 25 26  2  0
 26  9  1  0
 24 19  1  0
  3 27  1  0
  4 28  1  0
  4 29  1  0
  5 30  1  0
  5 31  1  0
  8 32  1  0
 10 33  1  0
 11 34  1  0
 16 35  1  0
 17 36  1  0
 17 37  1  0
 18 38  1  0
 18 39  1  0
 20 40  1  0
 21 41  1  0
 22 42  1  0
 23 43  1  0
 24 44  1  0
 25 45  1  0
 26 46  1  0
M  END
$$$$
