
     RDKit          3D

 60 63  0  0  0  0  0  0  0  0999 V2000
   -5.2657   -3.8506    3.3459 C   0  0  0  0  0  0  0  0  0  0  0  0
   -5.9967   -3.3542    2.1128 C   0  0  0  0  0  0  0  0  0  0  0  0
   -5.6847   -1.9735    1.8741 O   0  0  0  0  0  0  0  0  0  0  0  0
   -4.5547   -1.7334    1.1425 C   0  0  0  0  0  0  0  0  0  0  0  0
   -3.8263   -2.6084    0.6910 O   0  0  0  0  0  0  0  0  0  0  0  0
   -4.3434   -0.2249    0.9893 C   0  0  0  0  0  0  0  0  0  0  0  0
   -5.4740    0.4297    0.1894 C   0  0  0  0  0  0  0  0  0  0  0  0
   -5.3991    0.0916   -1.2961 C   0  0  0  0  0  0  0  0  0  0  0  0
   -4.0349    0.4610   -1.8618 C   0  0  0  0  0  0  0  0  0  0  0  0
   -2.9050   -0.1808   -1.0676 C   0  0  0  0  0  0  0  0  0  0  0  0
   -3.0091    0.1007    0.3879 N   0  0  0  0  0  0  0  0  0  0  0  0
   -2.2668    1.5023    0.9847 S   0  0  0  0  0  6  0  0  0  0  0  0
   -2.3791    1.5023    2.4273 O   0  0  0  0  0  0  0  0  0  0  0  0
   -2.7477    2.6193    0.1995 O   0  0  0  0  0  0  0  0  0  0  0  0
   -0.5509    1.2470    0.6037 C   0  0  0  0  0  0  0  0  0  0  0  0
    0.0909    0.0999    1.0996 C   0  0  0  0  0  0  0  0  0  0  0  0
    1.4383   -0.1343    0.8031 C   0  0  0  0  0  0  0  0  0  0  0  0
    2.1225    0.7894    0.0267 C   0  0  0  0  0  0  0  0  0  0  0  0
    1.4715    1.9281   -0.4577 C   0  0  0  0  0  0  0  0  0  0  0  0
    0.1333    2.1748   -0.1855 C   0  0  0  0  0  0  0  0  0  0  0  0
    2.3771    2.7397   -1.3264 C   0  0  0  0  0  0  0  0  0  0  0  0
    3.7504    2.0913   -1.0458 C   0  0  0  0  0  0  0  0  0  0  0  0
    4.5952    2.9966   -0.1444 C   0  0  0  0  0  0  0  0  0  0  0  0
    3.4725    0.7830   -0.3954 N   0  0  0  0  0  0  0  0  0  0  0  0
    4.3713   -0.2650   -0.1892 C   0  0  0  0  0  0  0  0  0  0  0  0
    4.0545   -1.3050    0.4049 O   0  0  0  0  0  0  0  0  0  0  0  0
    5.8163   -0.0944   -0.7630 C   0  0  0  0  0  0  0  0  0  0  0  0
    6.5573   -1.3857   -1.2127 C   0  0  0  0  0  0  0  0  0  0  0  0
    7.2638   -1.4035    0.1530 C   0  0  0  0  0  0  0  0  0  0  0  0
    6.9614    0.0998    0.2683 C   0  0  0  0  0  0  0  0  0  0  0  0
   -4.1812   -3.8019    3.2066 H   0  0  0  0  0  0  0  0  0  0  0  0
   -5.5427   -4.8843    3.5710 H   0  0  0  0  0  0  0  0  0  0  0  0
   -5.5038   -3.2242    4.2119 H   0  0  0  0  0  0  0  0  0  0  0  0
   -7.0776   -3.4130    2.2774 H   0  0  0  0  0  0  0  0  0  0  0  0
   -5.7715   -3.9712    1.2354 H   0  0  0  0  0  0  0  0  0  0  0  0
   -4.3723    0.1571    2.0172 H   0  0  0  0  0  0  0  0  0  0  0  0
   -5.4163    1.5191    0.3075 H   0  0  0  0  0  0  0  0  0  0  0  0
   -6.4534    0.1263    0.5767 H   0  0  0  0  0  0  0  0  0  0  0  0
   -6.1830    0.6321   -1.8386 H   0  0  0  0  0  0  0  0  0  0  0  0
   -5.5863   -0.9783   -1.4471 H   0  0  0  0  0  0  0  0  0  0  0  0
   -3.9730    0.1428   -2.9088 H   0  0  0  0  0  0  0  0  0  0  0  0
   -3.9257    1.5512   -1.8602 H   0  0  0  0  0  0  0  0  0  0  0  0
   -1.9426    0.1604   -1.4614 H   0  0  0  0  0  0  0  0  0  0  0  0
   -2.9104   -1.2654   -1.2199 H   0  0  0  0  0  0  0  0  0  0  0  0
   -0.4555   -0.6139    1.7137 H   0  0  0  0  0  0  0  0  0  0  0  0
    1.9177   -1.0244    1.1966 H   0  0  0  0  0  0  0  0  0  0  0  0
   -0.3628    3.0572   -0.5790 H   0  0  0  0  0  0  0  0  0  0  0  0
    2.3457    3.8056   -1.0821 H   0  0  0  0  0  0  0  0  0  0  0  0
    2.0943    2.5979   -2.3754 H   0  0  0  0  0  0  0  0  0  0  0  0
    4.2763    1.9296   -1.9923 H   0  0  0  0  0  0  0  0  0  0  0  0
    4.7557    3.9705   -0.6186 H   0  0  0  0  0  0  0  0  0  0  0  0
    5.5772    2.5625    0.0573 H   0  0  0  0  0  0  0  0  0  0  0  0
    4.1079    3.1643    0.8226 H   0  0  0  0  0  0  0  0  0  0  0  0
    5.8663    0.6468   -1.5668 H   0  0  0  0  0  0  0  0  0  0  0  0
    7.2372   -1.2269   -2.0583 H   0  0  0  0  0  0  0  0  0  0  0  0
    5.9318   -2.2563   -1.4279 H   0  0  0  0  0  0  0  0  0  0  0  0
    6.7543   -2.0148    0.9062 H   0  0  0  0  0  0  0  0  0  0  0  0
    8.3226   -1.6738    0.1353 H   0  0  0  0  0  0  0  0  0  0  0  0
    6.6619    0.4379    1.2642 H   0  0  0  0  0  0  0  0  0  0  0  0
    7.7708    0.7442   -0.0940 H   0  0  0  0  0  0  0  0  0  0  0  0
  1  2  1  0
  2  3  1  0
  3  4  1  0
  4  5  2  0
  4  6  1  0
  6  7  1  0
  7  8  1  0
  8  9  1  0
  9 10  1  0
 10 11  1  0
 11 12  1  0
 12 13  2  0
 12 14  2  0
 12 15  1  0
 15 16  2  0
 16 17  1  0
 17 18  2  0
 18 19  1  0
 19 20  2  0
 19 21  1  0
 21 22  1  0
 22 23  1  0
 22 24  1  0
 24 25  1  0
 25 26  2  0
 25 27  1  0
 27 28  1  0
 28 29  1  0
 29 30  1  0
 11  6  1  0
 20 15  1  0
 30 27  1  0
 24 18  1  0
  1 31  1  0
  1 32  1  0
  1 33  1  0
  2 34  1  0
  2 35  1  0
  6 36  1  0
  7 37  1  0
  7 38  1  0
  8 39  1  0
  8 40  1  0
  9 41  1  0
  9 42  1  0
 10 43  1  0
 10 44  1  0
 16 45  1  0
 17 46  1  0
 20 47  1  0
 21 48  1  0
 21 49  1  0
 22 50  1  0
 23 51  1  0
 23 52  1  0
 23 53  1  0
 27 54  1  0
 28 55  1  0
 28 56  1  0
 29 57  1  0
 29 58  1  0
 30 59  1  0
 30 60  1  0
M  END
$$$$
