
     RDKit          3D

 44 47  0  0  0  0  0  0  0  0999 V2000
    5.7099    2.0405   -2.4546 C   0  0  0  0  0  0  0  0  0  0  0  0
    4.5196    1.5249   -1.8761 O   0  0  0  0  0  0  0  0  0  0  0  0
    4.6925    0.5294   -1.0136 C   0  0  0  0  0  0  0  0  0  0  0  0
    5.7597   -0.1650   -0.4861 C   0  0  0  0  0  0  0  0  0  0  0  0
    5.2113   -1.1216    0.4032 C   0  0  0  0  0  0  0  0  0  0  0  0
    3.8401   -0.9586    0.3643 C   0  0  0  0  0  0  0  0  0  0  0  0
    2.7769   -1.6485    1.0617 C   0  0  0  0  0  0  0  0  0  0  0  0
    2.9706   -2.5303    1.8941 O   0  0  0  0  0  0  0  0  0  0  0  0
    1.5150   -1.2222    0.7166 N   0  0  0  0  0  0  0  0  0  0  0  0
    0.3263   -1.7022    1.3856 C   0  0  0  0  0  0  0  0  0  0  0  0
    0.1160   -0.9778    2.7364 C   0  0  0  0  0  0  0  0  0  0  0  0
   -0.4208    0.4550    2.5481 C   0  0  0  0  0  0  0  0  0  0  0  0
   -1.7865    0.4738    1.8331 C   0  0  0  0  0  0  0  0  0  0  0  0
   -1.7832   -0.4646    0.6736 C   0  0  0  0  0  0  0  0  0  0  0  0
   -0.8254   -1.4447    0.4759 C   0  0  0  0  0  0  0  0  0  0  0  0
   -1.1734   -2.0419   -0.7378 C   0  0  0  0  0  0  0  0  0  0  0  0
   -2.2518   -1.4852   -1.2809 N   0  0  0  0  0  0  0  0  0  0  0  0
   -2.6589   -0.5236   -0.4072 N   0  0  0  0  0  0  0  0  0  0  0  0
   -3.8488    0.2153   -0.6723 C   0  0  0  0  0  0  0  0  0  0  0  0
   -4.5539    0.8721    0.3476 C   0  0  0  0  0  0  0  0  0  0  0  0
   -5.7280    1.5814    0.0629 C   0  0  0  0  0  0  0  0  0  0  0  0
   -6.2163    1.6412   -1.2389 C   0  0  0  0  0  0  0  0  0  0  0  0
   -5.5317    0.9868   -2.2577 C   0  0  0  0  0  0  0  0  0  0  0  0
   -4.3618    0.2784   -1.9762 C   0  0  0  0  0  0  0  0  0  0  0  0
   -3.7380   -0.2878   -3.0196 F   0  0  0  0  0  0  0  0  0  0  0  0
    3.5255    0.0550   -0.5025 O   0  0  0  0  0  0  0  0  0  0  0  0
    5.4333    2.8479   -3.1392 H   0  0  0  0  0  0  0  0  0  0  0  0
    6.3705    2.4573   -1.6867 H   0  0  0  0  0  0  0  0  0  0  0  0
    6.2315    1.2687   -3.0313 H   0  0  0  0  0  0  0  0  0  0  0  0
    6.8044   -0.0059   -0.7093 H   0  0  0  0  0  0  0  0  0  0  0  0
    5.7392   -1.8493    1.0051 H   0  0  0  0  0  0  0  0  0  0  0  0
    1.4502   -0.4361    0.0779 H   0  0  0  0  0  0  0  0  0  0  0  0
    0.4373   -2.7776    1.5683 H   0  0  0  0  0  0  0  0  0  0  0  0
   -0.6092   -1.5423    3.3374 H   0  0  0  0  0  0  0  0  0  0  0  0
    1.0496   -0.9467    3.3097 H   0  0  0  0  0  0  0  0  0  0  0  0
    0.3047    1.0409    1.9693 H   0  0  0  0  0  0  0  0  0  0  0  0
   -0.5173    0.9457    3.5236 H   0  0  0  0  0  0  0  0  0  0  0  0
   -2.0044    1.4992    1.5176 H   0  0  0  0  0  0  0  0  0  0  0  0
   -2.5504    0.1554    2.5516 H   0  0  0  0  0  0  0  0  0  0  0  0
   -0.6768   -2.8469   -1.2648 H   0  0  0  0  0  0  0  0  0  0  0  0
   -4.2555    0.8190    1.3867 H   0  0  0  0  0  0  0  0  0  0  0  0
   -6.2687    2.0780    0.8661 H   0  0  0  0  0  0  0  0  0  0  0  0
   -7.1283    2.1902   -1.4586 H   0  0  0  0  0  0  0  0  0  0  0  0
   -5.8947    1.0229   -3.2808 H   0  0  0  0  0  0  0  0  0  0  0  0
  1  2  1  0
  2  3  1  0
  3  4  2  0
  4  5  1  0
  5  6  2  0
  6  7  1  0
  7  8  2  0
  7  9  1  0
  9 10  1  0
 10 11  1  0
 11 12  1  0
 12 13  1  0
 13 14  1  0
 14 15  2  0
 15 16  1  0
 16 17  2  0
 17 18  1  0
 18 19  1  0
 19 20  2  0
 20 21  1  0
 21 22  2  0
 22 23  1  0
 23 24  2  0
 24 25  1  0
  6 26  1  0
 26  3  1  0
 15 10  1  0
 24 19  1  0
 18 14  1  0
  1 27  1  0
  1 28  1  0
  1 29  1  0
  4 30  1  0
  5 31  1  0
  9 32  1  0
 10 33  1  0
 11 34  1  0
 11 35  1  0
 12 36  1  0
 12 37  1  0
 13 38  1  0
 13 39  1  0
 16 40  1  0
 20 41  1  0
 21 42  1  0
 22 43  1  0
 23 44  1  0
M  END
$$$$
