
     RDKit          3D

 47 49  0  0  0  0  0  0  0  0999 V2000
    5.9835   -1.9702    0.2938 C   0  0  0  0  0  0  0  0  0  0  0  0
    5.0826   -2.4476    1.4292 C   0  0  0  0  0  0  0  0  0  0  0  0
    3.6998   -1.9621    1.4373 N   0  0  0  0  0  0  0  0  0  0  0  0
    3.5934   -0.4987    1.5818 C   0  0  0  0  0  0  0  0  0  0  0  0
    2.1259   -0.0280    1.6954 C   0  0  0  0  0  0  0  0  0  0  0  0
    1.3153   -0.4852    0.5348 N   0  0  0  0  0  0  0  0  0  0  0  0
    0.1660    0.2221    0.1435 C   0  0  0  0  0  0  0  0  0  0  0  0
   -1.0099   -0.3457   -0.1925 C   0  0  0  0  0  0  0  0  0  0  0  0
   -2.1810    0.4325   -0.5492 C   0  0  0  0  0  0  0  0  0  0  0  0
   -3.4146   -0.0048   -0.2325 C   0  0  0  0  0  0  0  0  0  0  0  0
   -4.6354    0.7835   -0.4372 C   0  0  0  0  0  0  0  0  0  0  0  0
   -5.8747    0.3145   -0.1383 C   0  0  0  0  0  0  0  0  0  0  0  0
   -7.0402    1.1057   -0.3636 C   0  0  0  0  0  0  0  0  0  0  0  0
   -7.9785    1.7617   -0.5541 N   0  0  0  0  0  0  0  0  0  0  0  0
   -6.0912   -0.9916    0.3923 C   0  0  0  0  0  0  0  0  0  0  0  0
   -6.2568   -2.0565    0.8235 N   0  0  0  0  0  0  0  0  0  0  0  0
   -4.4207    2.1888   -0.9938 C   0  0  0  0  0  0  0  0  0  0  0  0
   -3.0239    2.7591   -0.7207 C   0  0  0  0  0  0  0  0  0  0  0  0
   -1.9570    1.7745   -1.2085 C   0  0  0  0  0  0  0  0  0  0  0  0
   -0.5347    2.3352   -1.0605 C   0  0  0  0  0  0  0  0  0  0  0  0
    0.2549    1.7396    0.1022 C   0  0  0  0  0  0  0  0  0  0  0  0
    1.4408   -1.9520    0.3374 C   0  0  0  0  0  0  0  0  0  0  0  0
    2.9223   -2.3894    0.2597 C   0  0  0  0  0  0  0  0  0  0  0  0
    5.6049   -2.2798   -0.6846 H   0  0  0  0  0  0  0  0  0  0  0  0
    6.9820   -2.4056    0.4095 H   0  0  0  0  0  0  0  0  0  0  0  0
    6.1004   -0.8827    0.2960 H   0  0  0  0  0  0  0  0  0  0  0  0
    5.5524   -2.1752    2.3828 H   0  0  0  0  0  0  0  0  0  0  0  0
    5.0664   -3.5448    1.4218 H   0  0  0  0  0  0  0  0  0  0  0  0
    4.0547    0.0121    0.7275 H   0  0  0  0  0  0  0  0  0  0  0  0
    4.1249   -0.1786    2.4858 H   0  0  0  0  0  0  0  0  0  0  0  0
    2.1275    1.0632    1.7825 H   0  0  0  0  0  0  0  0  0  0  0  0
    1.6775   -0.4216    2.6168 H   0  0  0  0  0  0  0  0  0  0  0  0
   -1.1421   -1.4199   -0.1087 H   0  0  0  0  0  0  0  0  0  0  0  0
   -3.5054   -0.9775    0.2505 H   0  0  0  0  0  0  0  0  0  0  0  0
   -5.1490    2.8950   -0.5783 H   0  0  0  0  0  0  0  0  0  0  0  0
   -4.5838    2.1566   -2.0794 H   0  0  0  0  0  0  0  0  0  0  0  0
   -2.9219    3.7195   -1.2403 H   0  0  0  0  0  0  0  0  0  0  0  0
   -2.9023    2.9590    0.3523 H   0  0  0  0  0  0  0  0  0  0  0  0
   -2.1169    1.6334   -2.2884 H   0  0  0  0  0  0  0  0  0  0  0  0
   -0.5434    3.4290   -0.9825 H   0  0  0  0  0  0  0  0  0  0  0  0
    0.0145    2.1107   -1.9863 H   0  0  0  0  0  0  0  0  0  0  0  0
   -0.1036    2.1475    1.0554 H   0  0  0  0  0  0  0  0  0  0  0  0
    1.2967    2.0603   -0.0182 H   0  0  0  0  0  0  0  0  0  0  0  0
    0.9350   -2.4751    1.1587 H   0  0  0  0  0  0  0  0  0  0  0  0
    0.9609   -2.2528   -0.6015 H   0  0  0  0  0  0  0  0  0  0  0  0
    3.3543   -1.9760   -0.6603 H   0  0  0  0  0  0  0  0  0  0  0  0
    2.9506   -3.4822    0.1754 H   0  0  0  0  0  0  0  0  0  0  0  0
  1  2  1  0
  2  3  1  0
  3  4  1  0
  4  5  1  0
  5  6  1  0
  6  7  1  0
  7  8  2  0
  8  9  1  0
  9 10  2  0
 10 11  1  0
 11 12  2  3
 12 13  1  0
 13 14  3  0
 12 15  1  0
 15 16  3  0
 11 17  1  0
 17 18  1  0
 18 19  1  0
 19 20  1  0
 20 21  1  0
  6 22  1  0
 22 23  1  0
 23  3  1  0
 21  7  1  0
 19  9  1  0
  1 24  1  0
  1 25  1  0
  1 26  1  0
  2 27  1  0
  2 28  1  0
  4 29  1  0
  4 30  1  0
  5 31  1  0
  5 32  1  0
  8 33  1  0
 10 34  1  0
 17 35  1  0
 17 36  1  0
 18 37  1  0
 18 38  1  0
 19 39  1  0
 20 40  1  0
 20 41  1  0
 21 42  1  0
 21 43  1  0
 22 44  1  0
 22 45  1  0
 23 46  1  0
 23 47  1  0
M  END
$$$$
