
     RDKit          3D

 45 47  0  0  0  0  0  0  0  0999 V2000
    6.9376    0.6216    0.4023 C   0  0  0  0  0  0  0  0  0  0  0  0
    5.5185    0.2406    0.1822 C   0  0  0  0  0  0  0  0  0  0  0  0
    4.7473    0.8626   -0.7680 N   0  0  0  0  0  0  0  0  0  0  0  0
    3.4768    0.3379   -0.7817 C   0  0  0  0  0  0  0  0  0  0  0  0
    2.3764    0.6625   -1.5834 C   0  0  0  0  0  0  0  0  0  0  0  0
    1.1896   -0.0498   -1.3756 C   0  0  0  0  0  0  0  0  0  0  0  0
    1.1083   -1.0447   -0.3947 C   0  0  0  0  0  0  0  0  0  0  0  0
   -0.1474   -1.8109   -0.1555 C   0  0  0  0  0  0  0  0  0  0  0  0
   -0.1101   -2.9312    0.3413 O   0  0  0  0  0  0  0  0  0  0  0  0
   -1.3230   -1.1733   -0.4853 N   0  0  0  0  0  0  0  0  0  0  0  0
   -2.6070   -1.7485   -0.1321 C   0  0  0  0  0  0  0  0  0  0  0  0
   -3.7644   -0.9389   -0.7424 C   0  0  0  0  0  0  0  0  0  0  0  0
   -3.6707    0.5139   -0.4719 N   0  0  0  0  0  0  0  0  0  0  0  0
   -4.6940    1.2718   -1.2285 C   0  0  0  0  0  0  0  0  0  0  0  0
   -5.9315    1.6365   -0.3939 C   0  0  0  0  0  0  0  0  0  0  0  0
   -5.6206    2.4410    0.7513 O   0  0  0  0  0  0  0  0  0  0  0  0
   -4.2907    2.2294    1.2444 C   0  0  0  0  0  0  0  0  0  0  0  0
   -3.7817    0.8044    0.9785 C   0  0  0  0  0  0  0  0  0  0  0  0
    2.2318   -1.3632    0.3852 C   0  0  0  0  0  0  0  0  0  0  0  0
    3.4366   -0.6562    0.1934 C   0  0  0  0  0  0  0  0  0  0  0  0
    4.7313   -0.7166    0.8023 C   0  0  0  0  0  0  0  0  0  0  0  0
    5.1347   -1.6440    1.8942 C   0  0  0  0  0  0  0  0  0  0  0  0
    7.0845    0.9618    1.4323 H   0  0  0  0  0  0  0  0  0  0  0  0
    7.5936   -0.2364    0.2244 H   0  0  0  0  0  0  0  0  0  0  0  0
    7.2486    1.4296   -0.2679 H   0  0  0  0  0  0  0  0  0  0  0  0
    5.0636    1.6027   -1.3787 H   0  0  0  0  0  0  0  0  0  0  0  0
    2.4380    1.4310   -2.3472 H   0  0  0  0  0  0  0  0  0  0  0  0
    0.3379    0.1723   -2.0135 H   0  0  0  0  0  0  0  0  0  0  0  0
   -1.3225   -0.1668   -0.6051 H   0  0  0  0  0  0  0  0  0  0  0  0
   -2.6384   -2.7839   -0.4892 H   0  0  0  0  0  0  0  0  0  0  0  0
   -2.6740   -1.7741    0.9613 H   0  0  0  0  0  0  0  0  0  0  0  0
   -3.7205   -1.0895   -1.8291 H   0  0  0  0  0  0  0  0  0  0  0  0
   -4.7232   -1.3465   -0.3988 H   0  0  0  0  0  0  0  0  0  0  0  0
   -4.9967    0.7448   -2.1410 H   0  0  0  0  0  0  0  0  0  0  0  0
   -4.2166    2.2030   -1.5592 H   0  0  0  0  0  0  0  0  0  0  0  0
   -6.4459    0.7328   -0.0470 H   0  0  0  0  0  0  0  0  0  0  0  0
   -6.6434    2.2006   -1.0049 H   0  0  0  0  0  0  0  0  0  0  0  0
   -3.6298    2.9740    0.7851 H   0  0  0  0  0  0  0  0  0  0  0  0
   -4.3057    2.4289    2.3208 H   0  0  0  0  0  0  0  0  0  0  0  0
   -4.4789    0.1030    1.4555 H   0  0  0  0  0  0  0  0  0  0  0  0
   -2.8001    0.6789    1.4476 H   0  0  0  0  0  0  0  0  0  0  0  0
    2.1730   -2.1473    1.1357 H   0  0  0  0  0  0  0  0  0  0  0  0
    5.0276   -2.6838    1.5690 H   0  0  0  0  0  0  0  0  0  0  0  0
    4.5049   -1.4899    2.7763 H   0  0  0  0  0  0  0  0  0  0  0  0
    6.1761   -1.4900    2.1932 H   0  0  0  0  0  0  0  0  0  0  0  0
  1  2  1  0
  2  3  1  0
  3  4  1  0
  4  5  2  0
  5  6  1  0
  6  7  2  0
  7  8  1  0
  8  9  2  0
  8 10  1  0
 10 11  1  0
 11 12  1  0
 12 13  1  0
 13 14  1  0
 14 15  1  0
 15 16  1  0
 16 17  1  0
 17 18  1  0
  7 19  1  0
 19 20  2  0
 20 21  1  0
 21 22  1  0
 21  2  2  0
 20  4  1  0
 18 13  1  0
  1 23  1  0
  1 24  1  0
  1 25  1  0
  3 26  1  0
  5 27  1  0
  6 28  1  0
 10 29  1  0
 11 30  1  0
 11 31  1  0
 12 32  1  0
 12 33  1  0
 14 34  1  0
 14 35  1  0
 15 36  1  0
 15 37  1  0
 17 38  1  0
 17 39  1  0
 18 40  1  0
 18 41  1  0
 19 42  1  0
 22 43  1  0
 22 44  1  0
 22 45  1  0
M  END
$$$$
