
     RDKit          3D

 68 71  0  0  0  0  0  0  0  0999 V2000
    8.5665   -3.3915   -4.5878 C   0  0  0  0  0  0  0  0  0  0  0  0
    7.9712   -2.1299   -4.3102 O   0  0  0  0  0  0  0  0  0  0  0  0
    6.7672   -2.1435   -3.6626 C   0  0  0  0  0  0  0  0  0  0  0  0
    6.1969   -0.8843   -3.4648 C   0  0  0  0  0  0  0  0  0  0  0  0
    4.9687   -0.7483   -2.8104 C   0  0  0  0  0  0  0  0  0  0  0  0
    4.3010   -1.8762   -2.3233 C   0  0  0  0  0  0  0  0  0  0  0  0
    2.9980   -1.7939   -1.6455 C   0  0  0  0  0  0  0  0  0  0  0  0
    2.6646   -0.9891   -0.6144 C   0  0  0  0  0  0  0  0  0  0  0  0
    3.5721   -0.0713   -0.0166 C   0  0  0  0  0  0  0  0  0  0  0  0
    4.2577    0.7310    0.4663 N   0  0  0  0  0  0  0  0  0  0  0  0
    1.2572   -1.0971   -0.0899 C   0  0  0  0  0  0  0  0  0  0  0  0
    0.5437   -2.0391   -0.4256 O   0  0  0  0  0  0  0  0  0  0  0  0
    0.8665   -0.0632    0.7296 N   0  0  0  0  0  0  0  0  0  0  0  0
   -0.3742    0.1253    1.3806 C   0  0  0  0  0  0  0  0  0  0  0  0
   -1.3921   -0.8265    1.4149 C   0  0  0  0  0  0  0  0  0  0  0  0
   -2.5737   -0.5321    2.0988 C   0  0  0  0  0  0  0  0  0  0  0  0
   -3.8790   -1.7337    2.1783 S   0  0  0  0  0  6  0  0  0  0  0  0
   -4.4479   -1.6599    3.5080 O   0  0  0  0  0  0  0  0  0  0  0  0
   -3.3972   -2.9899    1.6446 O   0  0  0  0  0  0  0  0  0  0  0  0
   -5.0382   -1.1134    1.0692 N   0  0  0  0  0  0  0  0  0  0  0  0
   -4.5735   -1.0683   -0.3479 C   0  0  0  0  0  0  0  0  0  0  0  0
   -5.5948   -0.3160   -1.1985 C   0  0  0  0  0  0  0  0  0  0  0  0
   -6.9742   -0.9574   -1.1011 C   0  0  0  0  0  0  0  0  0  0  0  0
   -7.4026   -1.0796    0.3577 C   0  0  0  0  0  0  0  0  0  0  0  0
   -6.3511   -1.8157    1.1824 C   0  0  0  0  0  0  0  0  0  0  0  0
   -2.7362    0.6853    2.7646 C   0  0  0  0  0  0  0  0  0  0  0  0
   -1.7106    1.6322    2.7359 C   0  0  0  0  0  0  0  0  0  0  0  0
   -0.5207    1.3734    2.0475 C   0  0  0  0  0  0  0  0  0  0  0  0
    0.5336    2.2998    1.9619 N   0  0  0  0  0  0  0  0  0  0  0  0
    0.4425    3.2510    0.8436 C   0  0  0  0  0  0  0  0  0  0  0  0
   -0.2063    4.5640    1.2701 C   0  0  0  0  0  0  0  0  0  0  0  0
    0.5123    5.1574    2.4772 C   0  0  0  0  0  0  0  0  0  0  0  0
    0.5379    4.1625    3.6342 C   0  0  0  0  0  0  0  0  0  0  0  0
    1.1117    2.8104    3.2138 C   0  0  0  0  0  0  0  0  0  0  0  0
    4.8661   -3.1395   -2.5402 C   0  0  0  0  0  0  0  0  0  0  0  0
    6.0930   -3.2738   -3.2021 C   0  0  0  0  0  0  0  0  0  0  0  0
    9.5167   -3.2073   -5.0996 H   0  0  0  0  0  0  0  0  0  0  0  0
    7.9349   -3.9837   -5.2599 H   0  0  0  0  0  0  0  0  0  0  0  0
    8.7872   -3.9381   -3.6647 H   0  0  0  0  0  0  0  0  0  0  0  0
    6.7136    0.0023   -3.8260 H   0  0  0  0  0  0  0  0  0  0  0  0
    4.5532    0.2506   -2.6970 H   0  0  0  0  0  0  0  0  0  0  0  0
    2.2590   -2.4932   -2.0408 H   0  0  0  0  0  0  0  0  0  0  0  0
    1.4863    0.7256    0.9126 H   0  0  0  0  0  0  0  0  0  0  0  0
   -1.2825   -1.7922    0.9327 H   0  0  0  0  0  0  0  0  0  0  0  0
   -4.4279   -2.0844   -0.7338 H   0  0  0  0  0  0  0  0  0  0  0  0
   -3.6230   -0.5324   -0.4194 H   0  0  0  0  0  0  0  0  0  0  0  0
   -5.6548    0.7254   -0.8592 H   0  0  0  0  0  0  0  0  0  0  0  0
   -5.2658   -0.2982   -2.2427 H   0  0  0  0  0  0  0  0  0  0  0  0
   -6.9497   -1.9530   -1.5623 H   0  0  0  0  0  0  0  0  0  0  0  0
   -7.7056   -0.3600   -1.6569 H   0  0  0  0  0  0  0  0  0  0  0  0
   -7.5597   -0.0763    0.7741 H   0  0  0  0  0  0  0  0  0  0  0  0
   -8.3601   -1.6091    0.4186 H   0  0  0  0  0  0  0  0  0  0  0  0
   -6.6830   -1.8281    2.2253 H   0  0  0  0  0  0  0  0  0  0  0  0
   -6.2532   -2.8517    0.8377 H   0  0  0  0  0  0  0  0  0  0  0  0
   -3.6565    0.9006    3.3045 H   0  0  0  0  0  0  0  0  0  0  0  0
   -1.8677    2.5769    3.2441 H   0  0  0  0  0  0  0  0  0  0  0  0
   -0.1024    2.8220   -0.0076 H   0  0  0  0  0  0  0  0  0  0  0  0
    1.4609    3.4497    0.4856 H   0  0  0  0  0  0  0  0  0  0  0  0
   -0.1784    5.2756    0.4372 H   0  0  0  0  0  0  0  0  0  0  0  0
   -1.2616    4.4008    1.5171 H   0  0  0  0  0  0  0  0  0  0  0  0
    0.0128    6.0823    2.7908 H   0  0  0  0  0  0  0  0  0  0  0  0
    1.5405    5.4253    2.2006 H   0  0  0  0  0  0  0  0  0  0  0  0
    1.1360    4.5728    4.4566 H   0  0  0  0  0  0  0  0  0  0  0  0
   -0.4772    4.0421    4.0262 H   0  0  0  0  0  0  0  0  0  0  0  0
    2.1909    2.9263    3.0508 H   0  0  0  0  0  0  0  0  0  0  0  0
    1.0053    2.0819    4.0267 H   0  0  0  0  0  0  0  0  0  0  0  0
    4.3627   -4.0373   -2.1872 H   0  0  0  0  0  0  0  0  0  0  0  0
    6.4928   -4.2743   -3.3358 H   0  0  0  0  0  0  0  0  0  0  0  0
  1  2  1  0
  2  3  1  0
  3  4  2  0
  4  5  1  0
  5  6  2  0
  6  7  1  0
  7  8  2  3
  8  9  1  0
  9 10  3  0
  8 11  1  0
 11 12  2  0
 11 13  1  0
 13 14  1  0
 14 15  2  0
 15 16  1  0
 16 17  1  0
 17 18  2  0
 17 19  2  0
 17 20  1  0
 20 21  1  0
 21 22  1  0
 22 23  1  0
 23 24  1  0
 24 25  1  0
 16 26  2  0
 26 27  1  0
 27 28  2  0
 28 29  1  0
 29 30  1  0
 30 31  1  0
 31 32  1  0
 32 33  1  0
 33 34  1  0
  6 35  1  0
 35 36  2  0
 36  3  1  0
 28 14  1  0
 34 29  1  0
 25 20  1  0
  1 37  1  0
  1 38  1  0
  1 39  1  0
  4 40  1  0
  5 41  1  0
  7 42  1  0
 13 43  1  0
 15 44  1  0
 21 45  1  0
 21 46  1  0
 22 47  1  0
 22 48  1  0
 23 49  1  0
 23 50  1  0
 24 51  1  0
 24 52  1  0
 25 53  1  0
 25 54  1  0
 26 55  1  0
 27 56  1  0
 30 57  1  0
 30 58  1  0
 31 59  1  0
 31 60  1  0
 32 61  1  0
 32 62  1  0
 33 63  1  0
 33 64  1  0
 34 65  1  0
 34 66  1  0
 35 67  1  0
 36 68  1  0
M  END
$$$$
