
     RDKit          3D

 58 61  0  0  0  0  0  0  0  0999 V2000
    1.8720   -2.0808    0.4467 S   0  0  0  0  0  0  0  0  0  0  0  0
    1.1756   -0.6015    0.0460 C   0  0  0  0  0  0  0  0  0  0  0  0
    1.8695    0.4084   -0.5964 N   0  0  0  0  0  0  0  0  0  0  0  0
    3.2750    0.3885   -0.9909 C   0  0  0  0  0  0  0  0  0  0  0  0
    4.2050    0.7790    0.1588 C   0  0  0  0  0  0  0  0  0  0  0  0
    5.6722    0.5962   -0.2509 C   0  0  0  0  0  0  0  0  0  0  0  0
    6.6071    1.0498    0.7927 N   0  0  0  0  0  0  0  0  0  0  0  0
    7.9884    1.1589    0.2639 C   0  0  0  0  0  0  0  0  0  0  0  0
    8.6815   -0.1949    0.0300 C   0  0  0  0  0  0  0  0  0  0  0  0
    8.6903   -0.9951    1.2159 O   0  0  0  0  0  0  0  0  0  0  0  0
    7.3596   -1.1955    1.7058 C   0  0  0  0  0  0  0  0  0  0  0  0
    6.6519    0.1460    1.9666 C   0  0  0  0  0  0  0  0  0  0  0  0
   -0.1601   -0.2755    0.3142 N   0  0  0  0  0  0  0  0  0  0  0  0
   -1.0099   -1.1077    1.1857 C   0  0  0  0  0  0  0  0  0  0  0  0
   -2.1790   -0.3269    1.8130 C   0  0  0  0  0  0  0  0  0  0  0  0
   -3.0101    0.3311    0.7975 N   0  0  0  0  0  0  0  0  0  0  0  0
   -4.3726    0.2840    0.8689 C   0  0  0  0  0  0  0  0  0  0  0  0
   -5.1514    0.2984   -0.1935 N   0  0  0  0  0  0  0  0  0  0  0  0
   -6.4918    0.2108    0.1531 C   0  0  0  0  0  0  0  0  0  0  0  0
   -7.5341    0.1555   -0.8733 C   0  0  0  0  0  0  0  0  0  0  0  0
   -8.8198   -0.3428   -0.6066 C   0  0  0  0  0  0  0  0  0  0  0  0
   -9.7901   -0.3917   -1.6158 C   0  0  0  0  0  0  0  0  0  0  0  0
   -9.4845    0.0503   -2.9023 C   0  0  0  0  0  0  0  0  0  0  0  0
   -8.2095    0.5386   -3.1844 C   0  0  0  0  0  0  0  0  0  0  0  0
   -7.2402    0.5902   -2.1764 C   0  0  0  0  0  0  0  0  0  0  0  0
   -6.7270    0.1993    1.5127 C   0  0  0  0  0  0  0  0  0  0  0  0
   -5.2465    0.2588    2.3671 S   0  0  0  0  0  0  0  0  0  0  0  0
   -2.4102    0.5072   -0.5329 C   0  0  0  0  0  0  0  0  0  0  0  0
   -0.8930    0.7657   -0.4351 C   0  0  0  0  0  0  0  0  0  0  0  0
    1.4549    1.3300   -0.5589 H   0  0  0  0  0  0  0  0  0  0  0  0
    3.3834    1.1004   -1.8209 H   0  0  0  0  0  0  0  0  0  0  0  0
    3.5280   -0.5993   -1.3865 H   0  0  0  0  0  0  0  0  0  0  0  0
    3.9771    0.1704    1.0402 H   0  0  0  0  0  0  0  0  0  0  0  0
    4.0156    1.8213    0.4432 H   0  0  0  0  0  0  0  0  0  0  0  0
    5.8347    1.1933   -1.1614 H   0  0  0  0  0  0  0  0  0  0  0  0
    5.8519   -0.4514   -0.5273 H   0  0  0  0  0  0  0  0  0  0  0  0
    8.0041    1.7490   -0.6609 H   0  0  0  0  0  0  0  0  0  0  0  0
    8.5750    1.7288    0.9959 H   0  0  0  0  0  0  0  0  0  0  0  0
    9.7247   -0.0254   -0.2565 H   0  0  0  0  0  0  0  0  0  0  0  0
    8.2070   -0.7545   -0.7824 H   0  0  0  0  0  0  0  0  0  0  0  0
    7.4375   -1.7608    2.6383 H   0  0  0  0  0  0  0  0  0  0  0  0
    6.8043   -1.8200    0.9974 H   0  0  0  0  0  0  0  0  0  0  0  0
    7.2050    0.6699    2.7573 H   0  0  0  0  0  0  0  0  0  0  0  0
    5.6530   -0.0321    2.3757 H   0  0  0  0  0  0  0  0  0  0  0  0
   -1.3980   -1.9218    0.5656 H   0  0  0  0  0  0  0  0  0  0  0  0
   -0.4104   -1.5462    1.9871 H   0  0  0  0  0  0  0  0  0  0  0  0
   -1.7838    0.4464    2.4829 H   0  0  0  0  0  0  0  0  0  0  0  0
   -2.7551   -1.0326    2.4210 H   0  0  0  0  0  0  0  0  0  0  0  0
   -9.0874   -0.7143    0.3797 H   0  0  0  0  0  0  0  0  0  0  0  0
  -10.7830   -0.7822   -1.4001 H   0  0  0  0  0  0  0  0  0  0  0  0
  -10.2375    0.0085   -3.6863 H   0  0  0  0  0  0  0  0  0  0  0  0
   -7.9619    0.8757   -4.1889 H   0  0  0  0  0  0  0  0  0  0  0  0
   -6.2490    0.9746   -2.4178 H   0  0  0  0  0  0  0  0  0  0  0  0
   -7.6651    0.1672    2.0455 H   0  0  0  0  0  0  0  0  0  0  0  0
   -2.8666    1.3606   -1.0495 H   0  0  0  0  0  0  0  0  0  0  0  0
   -2.5882   -0.3898   -1.1419 H   0  0  0  0  0  0  0  0  0  0  0  0
   -0.7064    1.7181    0.0799 H   0  0  0  0  0  0  0  0  0  0  0  0
   -0.4821    0.8403   -1.4506 H   0  0  0  0  0  0  0  0  0  0  0  0
  1  2  2  0
  2  3  1  0
  3  4  1  0
  4  5  1  0
  5  6  1  0
  6  7  1  0
  7  8  1  0
  8  9  1  0
  9 10  1  0
 10 11  1  0
 11 12  1  0
  2 13  1  0
 13 14  1  0
 14 15  1  0
 15 16  1  0
 16 17  1  0
 17 18  2  0
 18 19  1  0
 19 20  1  0
 20 21  2  0
 21 22  1  0
 22 23  2  0
 23 24  1  0
 24 25  2  0
 19 26  2  0
 26 27  1  0
 16 28  1  0
 28 29  1  0
 12  7  1  0
 29 13  1  0
 27 17  1  0
 25 20  1  0
  3 30  1  0
  4 31  1  0
  4 32  1  0
  5 33  1  0
  5 34  1  0
  6 35  1  0
  6 36  1  0
  8 37  1  0
  8 38  1  0
  9 39  1  0
  9 40  1  0
 11 41  1  0
 11 42  1  0
 12 43  1  0
 12 44  1  0
 14 45  1  0
 14 46  1  0
 15 47  1  0
 15 48  1  0
 21 49  1  0
 22 50  1  0
 23 51  1  0
 24 52  1  0
 25 53  1  0
 26 54  1  0
 28 55  1  0
 28 56  1  0
 29 57  1  0
 29 58  1  0
M  END
$$$$
