
     RDKit          3D

 56 59  0  0  0  0  0  0  0  0999 V2000
    5.0381   -3.7294   -0.6097 C   0  0  0  0  0  0  0  0  0  0  0  0
    4.2763   -3.5832    0.5831 O   0  0  0  0  0  0  0  0  0  0  0  0
    3.7801   -2.3384    0.8518 C   0  0  0  0  0  0  0  0  0  0  0  0
    3.9218   -1.2073    0.0479 C   0  0  0  0  0  0  0  0  0  0  0  0
    3.3578    0.0118    0.4458 C   0  0  0  0  0  0  0  0  0  0  0  0
    2.6302    0.1088    1.6356 C   0  0  0  0  0  0  0  0  0  0  0  0
    2.1052    1.3856    2.0259 N   0  0  0  0  0  0  0  0  0  0  0  0
    0.4347    1.5041    2.3557 S   0  0  0  0  0  6  0  0  0  0  0  0
    0.1565    2.8765    2.7277 O   0  0  0  0  0  0  0  0  0  0  0  0
    0.0442    0.4268    3.2413 O   0  0  0  0  0  0  0  0  0  0  0  0
   -0.3045    1.2270    0.7565 C   0  0  0  0  0  0  0  0  0  0  0  0
   -1.3208    0.2530    0.6808 C   0  0  0  0  0  0  0  0  0  0  0  0
   -1.9367   -0.0312   -0.5339 C   0  0  0  0  0  0  0  0  0  0  0  0
   -2.9681   -0.9786   -0.7065 N   0  0  0  0  0  0  0  0  0  0  0  0
   -3.5296   -1.7989    0.2538 C   0  0  0  0  0  0  0  0  0  0  0  0
   -3.2342   -1.8232    1.4440 O   0  0  0  0  0  0  0  0  0  0  0  0
   -4.6335   -2.6895   -0.1880 C   0  0  0  0  0  0  0  0  0  0  0  0
   -5.6506   -2.9644    0.7371 C   0  0  0  0  0  0  0  0  0  0  0  0
   -6.7171   -3.7876    0.3821 C   0  0  0  0  0  0  0  0  0  0  0  0
   -6.7350   -4.3204   -0.8940 C   0  0  0  0  0  0  0  0  0  0  0  0
   -5.7724   -4.0897   -1.8106 N   0  0  0  0  0  0  0  0  0  0  0  0
   -4.7402   -3.2925   -1.4345 C   0  0  0  0  0  0  0  0  0  0  0  0
   -3.5738   -3.1406   -2.6929 Cl  0  0  0  0  0  0  0  0  0  0  0  0
   -1.5225    0.6661   -1.6697 C   0  0  0  0  0  0  0  0  0  0  0  0
   -0.5108    1.6318   -1.5934 C   0  0  0  0  0  0  0  0  0  0  0  0
    0.1340    1.9356   -0.3824 C   0  0  0  0  0  0  0  0  0  0  0  0
    1.1339    2.9327   -0.3137 N   0  0  0  0  0  0  0  0  0  0  0  0
    2.0627    3.0543   -1.4635 C   0  0  0  0  0  0  0  0  0  0  0  0
    1.7428    4.3941   -2.1116 C   0  0  0  0  0  0  0  0  0  0  0  0
    1.3517    5.2410   -0.9192 C   0  0  0  0  0  0  0  0  0  0  0  0
    0.5250    4.2748   -0.0751 C   0  0  0  0  0  0  0  0  0  0  0  0
    2.5252   -1.0122    2.4571 C   0  0  0  0  0  0  0  0  0  0  0  0
    3.0825   -2.2319    2.0580 C   0  0  0  0  0  0  0  0  0  0  0  0
    5.9315   -3.0938   -0.5877 H   0  0  0  0  0  0  0  0  0  0  0  0
    5.3710   -4.7704   -0.6664 H   0  0  0  0  0  0  0  0  0  0  0  0
    4.4283   -3.5251   -1.4975 H   0  0  0  0  0  0  0  0  0  0  0  0
    4.4695   -1.2341   -0.8897 H   0  0  0  0  0  0  0  0  0  0  0  0
    3.4985    0.8815   -0.1883 H   0  0  0  0  0  0  0  0  0  0  0  0
    2.2961    2.1379    1.3544 H   0  0  0  0  0  0  0  0  0  0  0  0
   -1.6151   -0.2637    1.5889 H   0  0  0  0  0  0  0  0  0  0  0  0
   -3.3140   -1.0726   -1.6552 H   0  0  0  0  0  0  0  0  0  0  0  0
   -5.6127   -2.5357    1.7373 H   0  0  0  0  0  0  0  0  0  0  0  0
   -7.5112   -4.0072    1.0873 H   0  0  0  0  0  0  0  0  0  0  0  0
   -7.5446   -4.9686   -1.2211 H   0  0  0  0  0  0  0  0  0  0  0  0
   -1.9830    0.4775   -2.6367 H   0  0  0  0  0  0  0  0  0  0  0  0
   -0.2541    2.1599   -2.5077 H   0  0  0  0  0  0  0  0  0  0  0  0
    2.0255    2.2219   -2.1737 H   0  0  0  0  0  0  0  0  0  0  0  0
    3.0829    3.0843   -1.0626 H   0  0  0  0  0  0  0  0  0  0  0  0
    2.5916    4.8044   -2.6649 H   0  0  0  0  0  0  0  0  0  0  0  0
    0.8966    4.2972   -2.8020 H   0  0  0  0  0  0  0  0  0  0  0  0
    2.2451    5.5558   -0.3630 H   0  0  0  0  0  0  0  0  0  0  0  0
    0.7880    6.1353   -1.1970 H   0  0  0  0  0  0  0  0  0  0  0  0
    0.5847    4.5558    0.9789 H   0  0  0  0  0  0  0  0  0  0  0  0
   -0.5253    4.3173   -0.3941 H   0  0  0  0  0  0  0  0  0  0  0  0
    2.0206   -0.9592    3.4193 H   0  0  0  0  0  0  0  0  0  0  0  0
    2.9776   -3.1035    2.7018 H   0  0  0  0  0  0  0  0  0  0  0  0
  1  2  1  0
  2  3  1  0
  3  4  2  0
  4  5  1  0
  5  6  2  0
  6  7  1  0
  7  8  1  0
  8  9  2  0
  8 10  2  0
  8 11  1  0
 11 12  2  0
 12 13  1  0
 13 14  1  0
 14 15  1  0
 15 16  2  0
 15 17  1  0
 17 18  2  0
 18 19  1  0
 19 20  2  0
 20 21  1  0
 21 22  2  0
 22 23  1  0
 13 24  2  0
 24 25  1  0
 25 26  2  0
 26 27  1  0
 27 28  1  0
 28 29  1  0
 29 30  1  0
 30 31  1  0
  6 32  1  0
 32 33  2  0
 33  3  1  0
 26 11  1  0
 31 27  1  0
 22 17  1  0
  1 34  1  0
  1 35  1  0
  1 36  1  0
  4 37  1  0
  5 38  1  0
  7 39  1  0
 12 40  1  0
 14 41  1  0
 18 42  1  0
 19 43  1  0
 20 44  1  0
 24 45  1  0
 25 46  1  0
 28 47  1  0
 28 48  1  0
 29 49  1  0
 29 50  1  0
 30 51  1  0
 30 52  1  0
 31 53  1  0
 31 54  1  0
 32 55  1  0
 33 56  1  0
M  END
$$$$
