
     RDKit          3D

 46 49  0  0  0  0  0  0  0  0999 V2000
    5.7514   -1.6658   -1.6462 C   0  0  0  0  0  0  0  0  0  0  0  0
    5.2794   -0.5800   -0.7274 C   0  0  0  0  0  0  0  0  0  0  0  0
    3.8013   -0.3403   -0.7121 C   0  0  0  0  0  0  0  0  0  0  0  0
    3.2389    0.6485   -0.0917 N   0  0  0  0  0  0  0  0  0  0  0  0
    1.8705    0.7428   -0.1127 N   0  0  0  0  0  0  0  0  0  0  0  0
    0.9562   -0.3049   -0.1349 C   0  0  0  0  0  0  0  0  0  0  0  0
    1.2174   -1.4937   -0.2957 O   0  0  0  0  0  0  0  0  0  0  0  0
   -0.4231    0.1653    0.0822 C   0  0  0  0  0  0  0  0  0  0  0  0
   -1.6015   -0.6238    0.0966 C   0  0  0  0  0  0  0  0  0  0  0  0
   -2.6470    0.2476    0.3295 C   0  0  0  0  0  0  0  0  0  0  0  0
   -4.0848    0.0236    0.4620 C   0  0  0  0  0  0  0  0  0  0  0  0
   -4.5619   -1.1709    1.0118 C   0  0  0  0  0  0  0  0  0  0  0  0
   -5.9346   -1.3958    1.1507 C   0  0  0  0  0  0  0  0  0  0  0  0
   -6.8641   -0.4317    0.7371 C   0  0  0  0  0  0  0  0  0  0  0  0
   -8.2460   -0.6430    0.8696 C   0  0  0  0  0  0  0  0  0  0  0  0
   -9.1587    0.3248    0.4479 C   0  0  0  0  0  0  0  0  0  0  0  0
   -8.7017    1.5140   -0.1117 C   0  0  0  0  0  0  0  0  0  0  0  0
   -7.3309    1.7387   -0.2497 C   0  0  0  0  0  0  0  0  0  0  0  0
   -6.3984    0.7761    0.1719 C   0  0  0  0  0  0  0  0  0  0  0  0
   -5.0132    0.9875    0.0409 C   0  0  0  0  0  0  0  0  0  0  0  0
   -2.0488    1.4740    0.4627 N   0  0  0  0  0  0  0  0  0  0  0  0
   -0.7123    1.4627    0.3097 N   0  0  0  0  0  0  0  0  0  0  0  0
    6.0376    0.1888    0.0757 C   0  0  0  0  0  0  0  0  0  0  0  0
    7.4517    0.0726    0.2007 C   0  0  0  0  0  0  0  0  0  0  0  0
    8.3112    0.8822    0.9384 C   0  0  0  0  0  0  0  0  0  0  0  0
    9.6280    0.3909    0.7778 C   0  0  0  0  0  0  0  0  0  0  0  0
    9.5192   -0.6981   -0.0464 C   0  0  0  0  0  0  0  0  0  0  0  0
    8.2266   -0.8987   -0.3955 O   0  0  0  0  0  0  0  0  0  0  0  0
    6.5724   -1.3184   -2.2815 H   0  0  0  0  0  0  0  0  0  0  0  0
    4.9596   -1.9994   -2.3253 H   0  0  0  0  0  0  0  0  0  0  0  0
    6.0804   -2.5383   -1.0727 H   0  0  0  0  0  0  0  0  0  0  0  0
    3.2226   -1.0643   -1.3094 H   0  0  0  0  0  0  0  0  0  0  0  0
    1.4875    1.6318    0.2096 H   0  0  0  0  0  0  0  0  0  0  0  0
   -1.6621   -1.6929   -0.0578 H   0  0  0  0  0  0  0  0  0  0  0  0
   -3.8707   -1.9395    1.3509 H   0  0  0  0  0  0  0  0  0  0  0  0
   -6.2712   -2.3339    1.5868 H   0  0  0  0  0  0  0  0  0  0  0  0
   -8.6224   -1.5673    1.3024 H   0  0  0  0  0  0  0  0  0  0  0  0
  -10.2258    0.1481    0.5554 H   0  0  0  0  0  0  0  0  0  0  0  0
   -9.4118    2.2676   -0.4425 H   0  0  0  0  0  0  0  0  0  0  0  0
   -6.9961    2.6745   -0.6915 H   0  0  0  0  0  0  0  0  0  0  0  0
   -4.6677    1.9113   -0.4176 H   0  0  0  0  0  0  0  0  0  0  0  0
   -2.4993    2.3581    0.6731 H   0  0  0  0  0  0  0  0  0  0  0  0
    5.5670    0.9530    0.6906 H   0  0  0  0  0  0  0  0  0  0  0  0
    8.0081    1.7371    1.5276 H   0  0  0  0  0  0  0  0  0  0  0  0
   10.5382    0.7811    1.2099 H   0  0  0  0  0  0  0  0  0  0  0  0
   10.2289   -1.4023   -0.4572 H   0  0  0  0  0  0  0  0  0  0  0  0
  1  2  1  0
  2  3  1  0
  3  4  2  3
  4  5  1  0
  5  6  1  0
  6  7  2  0
  6  8  1  0
  8  9  1  0
  9 10  2  0
 10 11  1  0
 11 12  2  0
 12 13  1  0
 13 14  2  0
 14 15  1  0
 15 16  2  0
 16 17  1  0
 17 18  2  0
 18 19  1  0
 19 20  2  0
 10 21  1  0
 21 22  1  0
  2 23  2  3
 23 24  1  0
 24 25  2  0
 25 26  1  0
 26 27  2  0
 27 28  1  0
 22  8  2  0
 28 24  1  0
 20 11  1  0
 19 14  1  0
  1 29  1  0
  1 30  1  0
  1 31  1  0
  3 32  1  0
  5 33  1  0
  9 34  1  0
 12 35  1  0
 13 36  1  0
 15 37  1  0
 16 38  1  0
 17 39  1  0
 18 40  1  0
 20 41  1  0
 21 42  1  0
 23 43  1  0
 25 44  1  0
 26 45  1  0
 27 46  1  0
M  END
$$$$
