
     RDKit          3D

 47 49  0  0  0  0  0  0  0  0999 V2000
    5.1600   -1.7959   -1.8348 C   0  0  0  0  0  0  0  0  0  0  0  0
    4.2224   -0.9490   -1.1812 O   0  0  0  0  0  0  0  0  0  0  0  0
    4.7312   -0.0110   -0.3101 C   0  0  0  0  0  0  0  0  0  0  0  0
    6.0858    0.1372    0.0038 C   0  0  0  0  0  0  0  0  0  0  0  0
    6.4921    1.1226    0.9059 C   0  0  0  0  0  0  0  0  0  0  0  0
    5.5500    1.9591    1.4987 C   0  0  0  0  0  0  0  0  0  0  0  0
    4.1951    1.8184    1.1926 C   0  0  0  0  0  0  0  0  0  0  0  0
    3.7764    0.8419    0.2866 C   0  0  0  0  0  0  0  0  0  0  0  0
    2.4244    0.6314   -0.0661 N   0  0  0  0  0  0  0  0  0  0  0  0
    1.3315    1.4102    0.2290 C   0  0  0  0  0  0  0  0  0  0  0  0
    1.3800    2.5014    0.7911 O   0  0  0  0  0  0  0  0  0  0  0  0
    0.1108    0.8560   -0.1743 N   0  0  0  0  0  0  0  0  0  0  0  0
   -1.0965    1.6501    0.0327 C   0  0  0  0  0  0  0  0  0  0  0  0
   -2.1563    1.3924   -1.0369 C   0  0  0  0  0  0  0  0  0  0  0  0
   -2.3851   -0.0978   -1.3185 C   0  0  0  0  0  0  0  0  0  0  0  0
   -3.8652   -0.4719   -1.3389 C   0  0  0  0  0  0  0  0  0  0  0  0
   -4.4907   -0.4789   -2.4003 O   0  0  0  0  0  0  0  0  0  0  0  0
   -4.6001   -0.8447   -0.0981 C   0  0  0  0  0  0  0  0  0  0  0  0
   -4.3660   -0.2265    1.1352 C   0  0  0  0  0  0  0  0  0  0  0  0
   -5.0977   -0.6158    2.2610 C   0  0  0  0  0  0  0  0  0  0  0  0
   -6.0647   -1.6087    2.1469 C   0  0  0  0  0  0  0  0  0  0  0  0
   -6.7628   -1.9763    3.2286 F   0  0  0  0  0  0  0  0  0  0  0  0
   -6.3219   -2.2183    0.9253 C   0  0  0  0  0  0  0  0  0  0  0  0
   -5.5927   -1.8323   -0.2009 C   0  0  0  0  0  0  0  0  0  0  0  0
   -1.5113   -1.0160   -0.4628 C   0  0  0  0  0  0  0  0  0  0  0  0
   -0.0578   -0.5563   -0.5224 C   0  0  0  0  0  0  0  0  0  0  0  0
    5.8536   -1.2161   -2.4526 H   0  0  0  0  0  0  0  0  0  0  0  0
    5.6964   -2.4210   -1.1134 H   0  0  0  0  0  0  0  0  0  0  0  0
    4.6007   -2.4616   -2.4992 H   0  0  0  0  0  0  0  0  0  0  0  0
    6.8507   -0.4955   -0.4326 H   0  0  0  0  0  0  0  0  0  0  0  0
    7.5458    1.2371    1.1482 H   0  0  0  0  0  0  0  0  0  0  0  0
    5.8658    2.7247    2.2033 H   0  0  0  0  0  0  0  0  0  0  0  0
    3.4878    2.4814    1.6807 H   0  0  0  0  0  0  0  0  0  0  0  0
    2.3062   -0.0922   -0.7604 H   0  0  0  0  0  0  0  0  0  0  0  0
   -0.8561    2.7190    0.0448 H   0  0  0  0  0  0  0  0  0  0  0  0
   -1.4781    1.4005    1.0292 H   0  0  0  0  0  0  0  0  0  0  0  0
   -3.0863    1.9033   -0.7621 H   0  0  0  0  0  0  0  0  0  0  0  0
   -1.8227    1.8661   -1.9702 H   0  0  0  0  0  0  0  0  0  0  0  0
   -2.0557   -0.2720   -2.3554 H   0  0  0  0  0  0  0  0  0  0  0  0
   -3.6380    0.5688    1.2439 H   0  0  0  0  0  0  0  0  0  0  0  0
   -4.9264   -0.1451    3.2247 H   0  0  0  0  0  0  0  0  0  0  0  0
   -7.0892   -2.9829    0.8547 H   0  0  0  0  0  0  0  0  0  0  0  0
   -5.8017   -2.3013   -1.1612 H   0  0  0  0  0  0  0  0  0  0  0  0
   -1.8371   -1.0215    0.5825 H   0  0  0  0  0  0  0  0  0  0  0  0
   -1.5904   -2.0513   -0.8155 H   0  0  0  0  0  0  0  0  0  0  0  0
    0.5476   -1.1686    0.1554 H   0  0  0  0  0  0  0  0  0  0  0  0
    0.3364   -0.6897   -1.5368 H   0  0  0  0  0  0  0  0  0  0  0  0
  1  2  1  0
  2  3  1  0
  3  4  2  0
  4  5  1  0
  5  6  2  0
  6  7  1  0
  7  8  2  0
  8  9  1  0
  9 10  1  0
 10 11  2  0
 10 12  1  0
 12 13  1  0
 13 14  1  0
 14 15  1  0
 15 16  1  0
 16 17  2  0
 16 18  1  0
 18 19  2  0
 19 20  1  0
 20 21  2  0
 21 22  1  0
 21 23  1  0
 23 24  2  0
 15 25  1  0
 25 26  1  0
  8  3  1  0
 26 12  1  0
 24 18  1  0
  1 27  1  0
  1 28  1  0
  1 29  1  0
  4 30  1  0
  5 31  1  0
  6 32  1  0
  7 33  1  0
  9 34  1  0
 13 35  1  0
 13 36  1  0
 14 37  1  0
 14 38  1  0
 15 39  1  0
 19 40  1  0
 20 41  1  0
 23 42  1  0
 24 43  1  0
 25 44  1  0
 25 45  1  0
 26 46  1  0
 26 47  1  0
M  END
$$$$
