
     RDKit          3D

 45 47  0  0  0  0  0  0  0  0999 V2000
   -0.6215   -2.5998    2.2344 C   0  0  0  0  0  0  0  0  0  0  0  0
    0.0263   -1.8446    1.1329 C   0  0  0  0  0  0  0  0  0  0  0  0
    1.3120   -1.5519    1.0930 N   0  0  0  0  0  0  0  0  0  0  0  0
    1.4075   -0.6133    0.0854 C   0  0  0  0  0  0  0  0  0  0  0  0
    2.6976    0.0174   -0.2771 C   0  0  0  0  0  0  0  0  0  0  0  0
    2.7987    0.8782   -1.1452 O   0  0  0  0  0  0  0  0  0  0  0  0
    3.7354   -0.4914    0.4855 N   0  0  0  0  0  0  0  0  0  0  0  0
    5.1064   -0.1614    0.4516 C   0  0  0  0  0  0  0  0  0  0  0  0
    5.6421    0.7905   -0.4207 C   0  0  0  0  0  0  0  0  0  0  0  0
    7.0127    1.0750   -0.4067 C   0  0  0  0  0  0  0  0  0  0  0  0
    7.8558    0.4101    0.4799 C   0  0  0  0  0  0  0  0  0  0  0  0
    9.5381    0.7673    0.4907 Cl  0  0  0  0  0  0  0  0  0  0  0  0
    7.3456   -0.5408    1.3566 C   0  0  0  0  0  0  0  0  0  0  0  0
    5.9780   -0.8234    1.3396 C   0  0  0  0  0  0  0  0  0  0  0  0
    5.3838   -2.0168    2.4465 Cl  0  0  0  0  0  0  0  0  0  0  0  0
    0.2313   -0.3152   -0.4826 N   0  0  0  0  0  0  0  0  0  0  0  0
   -0.6224   -1.2011    0.0871 N   0  0  0  0  0  0  0  0  0  0  0  0
   -1.9688   -1.2533   -0.3570 C   0  0  0  0  0  0  0  0  0  0  0  0
   -2.5531   -0.0435   -0.7848 C   0  0  0  0  0  0  0  0  0  0  0  0
   -3.8921    0.0002   -1.1835 C   0  0  0  0  0  0  0  0  0  0  0  0
   -4.4610    1.1647   -1.6242 O   0  0  0  0  0  0  0  0  0  0  0  0
   -4.4270    2.2417   -0.6748 C   0  0  0  0  0  0  0  0  0  0  0  0
   -5.8695    2.6140   -0.3484 C   0  0  0  0  0  0  0  0  0  0  0  0
   -3.7018    3.4184   -1.3172 C   0  0  0  0  0  0  0  0  0  0  0  0
   -4.6386   -1.1787   -1.2216 C   0  0  0  0  0  0  0  0  0  0  0  0
   -6.2867   -1.1852   -1.7339 Cl  0  0  0  0  0  0  0  0  0  0  0  0
   -4.0529   -2.3900   -0.8514 C   0  0  0  0  0  0  0  0  0  0  0  0
   -2.7166   -2.4359   -0.4321 C   0  0  0  0  0  0  0  0  0  0  0  0
   -2.0484   -4.0165   -0.2285 Cl  0  0  0  0  0  0  0  0  0  0  0  0
   -0.1858   -2.2916    3.1914 H   0  0  0  0  0  0  0  0  0  0  0  0
   -0.4408   -3.6728    2.1278 H   0  0  0  0  0  0  0  0  0  0  0  0
   -1.6964   -2.4130    2.3011 H   0  0  0  0  0  0  0  0  0  0  0  0
    3.4561   -1.2024    1.1621 H   0  0  0  0  0  0  0  0  0  0  0  0
    5.0227    1.3335   -1.1287 H   0  0  0  0  0  0  0  0  0  0  0  0
    7.4104    1.8188   -1.0934 H   0  0  0  0  0  0  0  0  0  0  0  0
    8.0056   -1.0583    2.0470 H   0  0  0  0  0  0  0  0  0  0  0  0
   -1.9653    0.8734   -0.8013 H   0  0  0  0  0  0  0  0  0  0  0  0
   -3.9215    1.9664    0.2599 H   0  0  0  0  0  0  0  0  0  0  0  0
   -6.4240    2.8754   -1.2564 H   0  0  0  0  0  0  0  0  0  0  0  0
   -6.3900    1.7631    0.1036 H   0  0  0  0  0  0  0  0  0  0  0  0
   -5.9148    3.4579    0.3469 H   0  0  0  0  0  0  0  0  0  0  0  0
   -2.6717    3.1456   -1.5686 H   0  0  0  0  0  0  0  0  0  0  0  0
   -4.1855    3.7141   -2.2548 H   0  0  0  0  0  0  0  0  0  0  0  0
   -3.6775    4.2833   -0.6472 H   0  0  0  0  0  0  0  0  0  0  0  0
   -4.6327   -3.3079   -0.9264 H   0  0  0  0  0  0  0  0  0  0  0  0
  1  2  1  0
  2  3  2  0
  3  4  1  0
  4  5  1  0
  5  6  2  0
  5  7  1  0
  7  8  1  0
  8  9  2  0
  9 10  1  0
 10 11  2  0
 11 12  1  0
 11 13  1  0
 13 14  2  0
 14 15  1  0
  4 16  2  0
 16 17  1  0
 17 18  1  0
 18 19  2  0
 19 20  1  0
 20 21  1  0
 21 22  1  0
 22 23  1  0
 22 24  1  0
 20 25  2  0
 25 26  1  0
 25 27  1  0
 27 28  2  0
 28 29  1  0
 17  2  1  0
 28 18  1  0
 14  8  1  0
  1 30  1  0
  1 31  1  0
  1 32  1  0
  7 33  1  0
  9 34  1  0
 10 35  1  0
 13 36  1  0
 19 37  1  0
 22 38  1  0
 23 39  1  0
 23 40  1  0
 23 41  1  0
 24 42  1  0
 24 43  1  0
 24 44  1  0
 27 45  1  0
M  END
$$$$
