
     RDKit          3D

 51 53  0  0  0  0  0  0  0  0999 V2000
   -5.0225    0.7952    0.6672 O   0  0  0  0  0  0  0  0  0  0  0  0
   -3.9019    1.0204    1.1156 C   0  0  0  0  0  0  0  0  0  0  0  0
   -3.6081    2.3281    1.8501 C   0  0  0  0  0  0  0  0  0  0  0  0
   -3.1269    3.3508    0.9753 O   0  0  0  0  0  0  0  0  0  0  0  0
   -1.7962    3.3000    0.7128 C   0  0  0  0  0  0  0  0  0  0  0  0
   -1.0310    2.4680    1.1825 O   0  0  0  0  0  0  0  0  0  0  0  0
   -1.3917    4.4053   -0.2263 C   0  0  0  0  0  0  0  0  0  0  0  0
   -0.7267    3.8575   -1.4881 C   0  0  0  0  0  0  0  0  0  0  0  0
    0.6577    3.4207   -1.2764 N   0  0  0  0  0  0  0  0  0  0  0  0
    0.9161    2.0690   -1.1098 C   0  0  0  0  0  0  0  0  0  0  0  0
    0.0915    1.1674   -1.1913 O   0  0  0  0  0  0  0  0  0  0  0  0
    2.3607    1.8490   -0.8300 C   0  0  0  0  0  0  0  0  0  0  0  0
    2.8434    0.6350   -0.5315 C   0  0  0  0  0  0  0  0  0  0  0  0
    4.2262    0.3033   -0.2395 C   0  0  0  0  0  0  0  0  0  0  0  0
    4.6865   -0.8991    0.1449 C   0  0  0  0  0  0  0  0  0  0  0  0
    3.8755   -2.1016    0.3574 C   0  0  0  0  0  0  0  0  0  0  0  0
    3.4011   -2.8478   -0.7260 C   0  0  0  0  0  0  0  0  0  0  0  0
    2.6097   -3.9765   -0.5071 C   0  0  0  0  0  0  0  0  0  0  0  0
    2.2927   -4.3668    0.7940 C   0  0  0  0  0  0  0  0  0  0  0  0
    2.7727   -3.6327    1.8774 C   0  0  0  0  0  0  0  0  0  0  0  0
    3.5649   -2.5047    1.6608 C   0  0  0  0  0  0  0  0  0  0  0  0
    3.2112    3.3372   -0.9214 S   0  0  0  0  0  0  0  0  0  0  0  0
    1.7500    4.2645   -1.2321 C   0  0  0  0  0  0  0  0  0  0  0  0
    1.7775    5.9216   -1.4327 S   0  0  0  0  0  0  0  0  0  0  0  0
   -2.7906    0.2045    0.9778 N   0  0  0  0  0  0  0  0  0  0  0  0
   -2.8039   -1.1204    0.4841 C   0  0  0  0  0  0  0  0  0  0  0  0
   -1.6197   -1.6123   -0.0811 C   0  0  0  0  0  0  0  0  0  0  0  0
   -1.5809   -2.9032   -0.6062 C   0  0  0  0  0  0  0  0  0  0  0  0
   -0.4527   -3.3539   -1.1700 F   0  0  0  0  0  0  0  0  0  0  0  0
   -2.6922   -3.7369   -0.5579 C   0  0  0  0  0  0  0  0  0  0  0  0
   -3.8607   -3.2765    0.0435 C   0  0  0  0  0  0  0  0  0  0  0  0
   -3.9095   -1.9823    0.5667 C   0  0  0  0  0  0  0  0  0  0  0  0
   -5.0165   -1.6395    1.2394 F   0  0  0  0  0  0  0  0  0  0  0  0
   -2.9240    2.1540    2.6899 H   0  0  0  0  0  0  0  0  0  0  0  0
   -4.5463    2.6850    2.2897 H   0  0  0  0  0  0  0  0  0  0  0  0
   -2.2907    4.9603   -0.5237 H   0  0  0  0  0  0  0  0  0  0  0  0
   -0.7520    5.1015    0.3267 H   0  0  0  0  0  0  0  0  0  0  0  0
   -0.7240    4.6360   -2.2588 H   0  0  0  0  0  0  0  0  0  0  0  0
   -1.3153    3.0233   -1.8876 H   0  0  0  0  0  0  0  0  0  0  0  0
    2.1354   -0.1933   -0.4960 H   0  0  0  0  0  0  0  0  0  0  0  0
    4.9602    1.1023   -0.3360 H   0  0  0  0  0  0  0  0  0  0  0  0
    5.7481   -1.0252    0.3481 H   0  0  0  0  0  0  0  0  0  0  0  0
    3.6326   -2.5476   -1.7456 H   0  0  0  0  0  0  0  0  0  0  0  0
    2.2280   -4.5443   -1.3521 H   0  0  0  0  0  0  0  0  0  0  0  0
    1.6673   -5.2384    0.9599 H   0  0  0  0  0  0  0  0  0  0  0  0
    2.5239   -3.9352    2.8917 H   0  0  0  0  0  0  0  0  0  0  0  0
    3.9268   -1.9345    2.5131 H   0  0  0  0  0  0  0  0  0  0  0  0
   -1.8815    0.6679    1.0275 H   0  0  0  0  0  0  0  0  0  0  0  0
   -0.7256   -0.9995   -0.1484 H   0  0  0  0  0  0  0  0  0  0  0  0
   -2.6356   -4.7384   -0.9710 H   0  0  0  0  0  0  0  0  0  0  0  0
   -4.7332   -3.9171    0.1290 H   0  0  0  0  0  0  0  0  0  0  0  0
  1  2  2  0
  2  3  1  0
  3  4  1  0
  4  5  1  0
  5  6  2  0
  5  7  1  0
  7  8  1  0
  8  9  1  0
  9 10  1  0
 10 11  2  0
 10 12  1  0
 12 13  2  3
 13 14  1  0
 14 15  2  3
 15 16  1  0
 16 17  2  0
 17 18  1  0
 18 19  2  0
 19 20  1  0
 20 21  2  0
 12 22  1  0
 22 23  1  0
 23 24  2  0
  2 25  1  0
 25 26  1  0
 26 27  2  0
 27 28  1  0
 28 29  1  0
 28 30  2  0
 30 31  1  0
 31 32  2  0
 32 33  1  0
 23  9  1  0
 32 26  1  0
 21 16  1  0
  3 34  1  0
  3 35  1  0
  7 36  1  0
  7 37  1  0
  8 38  1  0
  8 39  1  0
 13 40  1  0
 14 41  1  0
 15 42  1  0
 17 43  1  0
 18 44  1  0
 19 45  1  0
 20 46  1  0
 21 47  1  0
 25 48  1  0
 27 49  1  0
 30 50  1  0
 31 51  1  0
M  END
$$$$
