
     RDKit          3D

 44 46  0  0  0  0  0  0  0  0999 V2000
    3.3149   -3.3692    0.9847 C   0  0  0  0  0  0  0  0  0  0  0  0
    2.3421   -2.3930    0.4153 C   0  0  0  0  0  0  0  0  0  0  0  0
    0.9701   -2.5163    0.3872 C   0  0  0  0  0  0  0  0  0  0  0  0
    0.4043   -1.3214   -0.1338 C   0  0  0  0  0  0  0  0  0  0  0  0
   -1.0488   -1.0951   -0.2521 C   0  0  0  0  0  0  0  0  0  0  0  0
   -1.8280   -2.0238   -0.0271 O   0  0  0  0  0  0  0  0  0  0  0  0
   -1.5689    0.2970   -0.5978 C   0  0  0  0  0  0  0  0  0  0  0  0
   -2.9914    0.3738   -0.4718 O   0  0  0  0  0  0  0  0  0  0  0  0
   -3.4848    1.6245   -0.3316 C   0  0  0  0  0  0  0  0  0  0  0  0
   -2.8177    2.6459   -0.2363 O   0  0  0  0  0  0  0  0  0  0  0  0
   -4.9521    1.5905   -0.2276 C   0  0  0  0  0  0  0  0  0  0  0  0
   -5.5434    2.3860    0.6841 C   0  0  0  0  0  0  0  0  0  0  0  0
   -6.9775    2.3773    0.8658 C   0  0  0  0  0  0  0  0  0  0  0  0
   -7.7359    1.5652    0.1206 C   0  0  0  0  0  0  0  0  0  0  0  0
   -7.1575    0.7585   -0.8244 N   0  0  0  0  0  0  0  0  0  0  0  0
   -5.8032    0.7221   -1.0889 C   0  0  0  0  0  0  0  0  0  0  0  0
   -5.3563    0.0401   -2.0044 O   0  0  0  0  0  0  0  0  0  0  0  0
    1.4803   -0.5085   -0.4933 C   0  0  0  0  0  0  0  0  0  0  0  0
    1.4881    0.7752   -1.2642 C   0  0  0  0  0  0  0  0  0  0  0  0
    2.6642   -1.1378   -0.0838 N   0  0  0  0  0  0  0  0  0  0  0  0
    3.9744   -0.5756   -0.1389 C   0  0  0  0  0  0  0  0  0  0  0  0
    4.1875    0.7371    0.3097 C   0  0  0  0  0  0  0  0  0  0  0  0
    5.4699    1.2875    0.2662 C   0  0  0  0  0  0  0  0  0  0  0  0
    6.5268    0.5291   -0.2238 C   0  0  0  0  0  0  0  0  0  0  0  0
    7.7555    1.0603   -0.2657 F   0  0  0  0  0  0  0  0  0  0  0  0
    6.3282   -0.7720   -0.6718 C   0  0  0  0  0  0  0  0  0  0  0  0
    5.0490   -1.3305   -0.6289 C   0  0  0  0  0  0  0  0  0  0  0  0
    4.0754   -2.8752    1.5969 H   0  0  0  0  0  0  0  0  0  0  0  0
    2.8003   -4.0871    1.6333 H   0  0  0  0  0  0  0  0  0  0  0  0
    3.8019   -3.9408    0.1894 H   0  0  0  0  0  0  0  0  0  0  0  0
    0.4105   -3.3740    0.7453 H   0  0  0  0  0  0  0  0  0  0  0  0
   -1.0848    1.0106    0.0777 H   0  0  0  0  0  0  0  0  0  0  0  0
   -1.3256    0.5103   -1.6414 H   0  0  0  0  0  0  0  0  0  0  0  0
   -4.9609    3.0431    1.3246 H   0  0  0  0  0  0  0  0  0  0  0  0
   -7.4139    3.0284    1.6164 H   0  0  0  0  0  0  0  0  0  0  0  0
   -8.8155    1.5134    0.2188 H   0  0  0  0  0  0  0  0  0  0  0  0
   -7.7318    0.1623   -1.4089 H   0  0  0  0  0  0  0  0  0  0  0  0
    1.2400    1.6174   -0.6118 H   0  0  0  0  0  0  0  0  0  0  0  0
    2.4491    0.9752   -1.7462 H   0  0  0  0  0  0  0  0  0  0  0  0
    0.7634    0.7364   -2.0817 H   0  0  0  0  0  0  0  0  0  0  0  0
    3.3767    1.3289    0.7274 H   0  0  0  0  0  0  0  0  0  0  0  0
    5.6526    2.2980    0.6178 H   0  0  0  0  0  0  0  0  0  0  0  0
    7.1686   -1.3400   -1.0585 H   0  0  0  0  0  0  0  0  0  0  0  0
    4.9042   -2.3339   -1.0194 H   0  0  0  0  0  0  0  0  0  0  0  0
  1  2  1  0
  2  3  2  0
  3  4  1  0
  4  5  1  0
  5  6  2  0
  5  7  1  0
  7  8  1  0
  8  9  1  0
  9 10  2  0
  9 11  1  0
 11 12  2  0
 12 13  1  0
 13 14  2  0
 14 15  1  0
 15 16  1  0
 16 17  2  0
  4 18  2  0
 18 19  1  0
 18 20  1  0
 20 21  1  0
 21 22  2  0
 22 23  1  0
 23 24  2  0
 24 25  1  0
 24 26  1  0
 26 27  2  0
 20  2  1  0
 27 21  1  0
 16 11  1  0
  1 28  1  0
  1 29  1  0
  1 30  1  0
  3 31  1  0
  7 32  1  0
  7 33  1  0
 12 34  1  0
 13 35  1  0
 14 36  1  0
 15 37  1  0
 19 38  1  0
 19 39  1  0
 19 40  1  0
 22 41  1  0
 23 42  1  0
 26 43  1  0
 27 44  1  0
M  END
$$$$
