
     RDKit          3D

 49 52  0  0  0  0  0  0  0  0999 V2000
   -3.8009   -5.2399   -0.0052 C   0  0  0  0  0  0  0  0  0  0  0  0
   -3.1190   -4.3058    0.8220 O   0  0  0  0  0  0  0  0  0  0  0  0
   -2.5912   -3.2060    0.2034 C   0  0  0  0  0  0  0  0  0  0  0  0
   -1.9286   -2.3191    1.0531 C   0  0  0  0  0  0  0  0  0  0  0  0
   -1.3438   -1.1518    0.5537 C   0  0  0  0  0  0  0  0  0  0  0  0
   -1.4063   -0.8502   -0.8148 C   0  0  0  0  0  0  0  0  0  0  0  0
   -0.7897    0.4317   -1.3829 C   0  0  0  0  0  0  0  0  0  0  0  0
    0.6206    0.5459   -0.9512 N   0  0  0  0  0  0  0  0  0  0  0  0
    0.8998    1.4328   -0.0598 C   0  0  0  0  0  0  0  0  0  0  0  0
    2.1309    1.6496    0.5068 N   0  0  0  0  0  0  0  0  0  0  0  0
    3.3005    0.8714    0.3796 C   0  0  0  0  0  0  0  0  0  0  0  0
    3.3034   -0.4612   -0.0434 C   0  0  0  0  0  0  0  0  0  0  0  0
    4.4934   -1.1951   -0.1245 C   0  0  0  0  0  0  0  0  0  0  0  0
    5.7150   -0.6110    0.2178 C   0  0  0  0  0  0  0  0  0  0  0  0
    6.9833   -1.4085    0.1613 C   0  0  0  0  0  0  0  0  0  0  0  0
    5.7230    0.7091    0.6721 C   0  0  0  0  0  0  0  0  0  0  0  0
    4.5308    1.4380    0.7513 C   0  0  0  0  0  0  0  0  0  0  0  0
   -0.0457    2.2883    0.4110 N   0  0  0  0  0  0  0  0  0  0  0  0
   -1.2861    2.4549   -0.1090 C   0  0  0  0  0  0  0  0  0  0  0  0
   -2.0473    3.4201    0.3116 N   0  0  0  0  0  0  0  0  0  0  0  0
   -3.2684    3.5757   -0.2940 C   0  0  0  0  0  0  0  0  0  0  0  0
   -4.1232    4.6813    0.2559 C   0  0  0  0  0  0  0  0  0  0  0  0
   -3.6863    2.8211   -1.3167 C   0  0  0  0  0  0  0  0  0  0  0  0
   -2.8111    1.7429   -1.8038 C   0  0  0  0  0  0  0  0  0  0  0  0
   -3.1671    1.0757   -2.7712 O   0  0  0  0  0  0  0  0  0  0  0  0
   -1.6359    1.5851   -1.1081 N   0  0  0  0  0  0  0  0  0  0  0  0
   -2.0780   -1.7470   -1.6607 C   0  0  0  0  0  0  0  0  0  0  0  0
   -2.6649   -2.9144   -1.1574 C   0  0  0  0  0  0  0  0  0  0  0  0
   -4.6759   -4.7827   -0.4789 H   0  0  0  0  0  0  0  0  0  0  0  0
   -3.1267   -5.6725   -0.7518 H   0  0  0  0  0  0  0  0  0  0  0  0
   -4.1563   -6.0544    0.6333 H   0  0  0  0  0  0  0  0  0  0  0  0
   -1.8656   -2.5388    2.1160 H   0  0  0  0  0  0  0  0  0  0  0  0
   -0.8334   -0.4860    1.2442 H   0  0  0  0  0  0  0  0  0  0  0  0
   -0.7515    0.3287   -2.4754 H   0  0  0  0  0  0  0  0  0  0  0  0
    2.3207    2.5937    0.8098 H   0  0  0  0  0  0  0  0  0  0  0  0
    2.3783   -0.9666   -0.3073 H   0  0  0  0  0  0  0  0  0  0  0  0
    4.4506   -2.2303   -0.4563 H   0  0  0  0  0  0  0  0  0  0  0  0
    6.9392   -2.1564   -0.6374 H   0  0  0  0  0  0  0  0  0  0  0  0
    7.1475   -1.9188    1.1154 H   0  0  0  0  0  0  0  0  0  0  0  0
    7.8423   -0.7620   -0.0469 H   0  0  0  0  0  0  0  0  0  0  0  0
    6.6566    1.1818    0.9683 H   0  0  0  0  0  0  0  0  0  0  0  0
    4.5809    2.4636    1.1081 H   0  0  0  0  0  0  0  0  0  0  0  0
    0.1861    2.9344    1.1482 H   0  0  0  0  0  0  0  0  0  0  0  0
   -4.3395    4.5019    1.3143 H   0  0  0  0  0  0  0  0  0  0  0  0
   -3.6050    5.6418    0.1665 H   0  0  0  0  0  0  0  0  0  0  0  0
   -5.0793    4.7664   -0.2714 H   0  0  0  0  0  0  0  0  0  0  0  0
   -4.6410    2.9451   -1.8086 H   0  0  0  0  0  0  0  0  0  0  0  0
   -2.1610   -1.5344   -2.7258 H   0  0  0  0  0  0  0  0  0  0  0  0
   -3.1741   -3.5678   -1.8576 H   0  0  0  0  0  0  0  0  0  0  0  0
  1  2  1  0
  2  3  1  0
  3  4  2  0
  4  5  1  0
  5  6  2  0
  6  7  1  0
  7  8  1  0
  8  9  2  0
  9 10  1  0
 10 11  1  0
 11 12  2  0
 12 13  1  0
 13 14  2  0
 14 15  1  0
 14 16  1  0
 16 17  2  0
  9 18  1  0
 18 19  1  0
 19 20  2  0
 20 21  1  0
 21 22  1  0
 21 23  2  0
 23 24  1  0
 24 25  2  0
 24 26  1  0
  6 27  1  0
 27 28  2  0
 28  3  1  0
 26  7  1  0
 17 11  1  0
 26 19  1  0
  1 29  1  0
  1 30  1  0
  1 31  1  0
  4 32  1  0
  5 33  1  0
  7 34  1  0
 10 35  1  0
 12 36  1  0
 13 37  1  0
 15 38  1  0
 15 39  1  0
 15 40  1  0
 16 41  1  0
 17 42  1  0
 18 43  1  0
 22 44  1  0
 22 45  1  0
 22 46  1  0
 23 47  1  0
 27 48  1  0
 28 49  1  0
M  END
$$$$
