
     RDKit          3D

 40 41  0  0  0  0  0  0  0  0999 V2000
   -5.5670    0.0657    0.2323 C   0  0  0  0  0  0  0  0  0  0  0  0
   -4.1742    0.4395    0.7408 C   0  0  0  0  0  0  0  0  0  0  0  0
   -3.7444    1.8279    0.2340 C   0  0  0  0  0  0  0  0  0  0  0  0
   -2.7883    1.7431   -0.9506 C   0  0  0  0  0  0  0  0  0  0  0  0
   -1.5863    0.9795   -0.6222 N   0  0  0  0  0  0  0  0  0  0  0  0
   -0.4566    1.1845   -1.4139 C   0  0  0  0  0  0  0  0  0  0  0  0
   -0.4573    1.8909   -2.4197 O   0  0  0  0  0  0  0  0  0  0  0  0
    0.8174    0.5273   -1.0390 C   0  0  0  0  0  0  0  0  0  0  0  0
    1.3434    0.6488    0.2498 C   0  0  0  0  0  0  0  0  0  0  0  0
    2.5599    0.0343    0.5690 C   0  0  0  0  0  0  0  0  0  0  0  0
    3.2808   -0.6600   -0.4062 C   0  0  0  0  0  0  0  0  0  0  0  0
    4.4757   -1.3914   -0.1263 N   0  0  0  0  0  0  0  0  0  0  0  0
    5.6303   -0.8541    0.9712 S   0  0  0  0  0  6  0  0  0  0  0  0
    5.2149   -1.8156    2.4101 C   0  0  0  0  0  0  0  0  0  0  0  0
    6.8933   -1.3577    0.4732 O   0  0  0  0  0  0  0  0  0  0  0  0
    5.4446    0.5473    1.2687 O   0  0  0  0  0  0  0  0  0  0  0  0
    2.7399   -0.7853   -1.6916 C   0  0  0  0  0  0  0  0  0  0  0  0
    1.5235   -0.1775   -2.0158 C   0  0  0  0  0  0  0  0  0  0  0  0
   -1.7324   -0.1179    0.3387 C   0  0  0  0  0  0  0  0  0  0  0  0
   -3.1604   -0.6546    0.3674 C   0  0  0  0  0  0  0  0  0  0  0  0
   -5.5956    0.0319   -0.8620 H   0  0  0  0  0  0  0  0  0  0  0  0
   -6.3115    0.7956    0.5676 H   0  0  0  0  0  0  0  0  0  0  0  0
   -5.8681   -0.9166    0.6117 H   0  0  0  0  0  0  0  0  0  0  0  0
   -4.2344    0.4945    1.8360 H   0  0  0  0  0  0  0  0  0  0  0  0
   -3.2320    2.3508    1.0529 H   0  0  0  0  0  0  0  0  0  0  0  0
   -4.6143    2.4417   -0.0262 H   0  0  0  0  0  0  0  0  0  0  0  0
   -2.5010    2.7513   -1.2702 H   0  0  0  0  0  0  0  0  0  0  0  0
   -3.2710    1.2538   -1.8052 H   0  0  0  0  0  0  0  0  0  0  0  0
    0.8211    1.2301    1.0051 H   0  0  0  0  0  0  0  0  0  0  0  0
    2.9299    0.1352    1.5841 H   0  0  0  0  0  0  0  0  0  0  0  0
    4.9383   -1.8239   -0.9278 H   0  0  0  0  0  0  0  0  0  0  0  0
    5.2573   -2.8756    2.1527 H   0  0  0  0  0  0  0  0  0  0  0  0
    5.9521   -1.5941    3.1851 H   0  0  0  0  0  0  0  0  0  0  0  0
    4.2197   -1.5370    2.7584 H   0  0  0  0  0  0  0  0  0  0  0  0
    3.2634   -1.3442   -2.4631 H   0  0  0  0  0  0  0  0  0  0  0  0
    1.1274   -0.2534   -3.0263 H   0  0  0  0  0  0  0  0  0  0  0  0
   -1.4577    0.2713    1.3256 H   0  0  0  0  0  0  0  0  0  0  0  0
   -1.0460   -0.9325    0.0883 H   0  0  0  0  0  0  0  0  0  0  0  0
   -3.2343   -1.4833    1.0815 H   0  0  0  0  0  0  0  0  0  0  0  0
   -3.3999   -1.0698   -0.6205 H   0  0  0  0  0  0  0  0  0  0  0  0
  1  2  1  0
  2  3  1  0
  3  4  1  0
  4  5  1  0
  5  6  1  0
  6  7  2  0
  6  8  1  0
  8  9  2  0
  9 10  1  0
 10 11  2  0
 11 12  1  0
 12 13  1  0
 13 14  1  0
 13 15  2  0
 13 16  2  0
 11 17  1  0
 17 18  2  0
  5 19  1  0
 19 20  1  0
 20  2  1  0
 18  8  1  0
  1 21  1  0
  1 22  1  0
  1 23  1  0
  2 24  1  0
  3 25  1  0
  3 26  1  0
  4 27  1  0
  4 28  1  0
  9 29  1  0
 10 30  1  0
 12 31  1  0
 14 32  1  0
 14 33  1  0
 14 34  1  0
 17 35  1  0
 18 36  1  0
 19 37  1  0
 19 38  1  0
 20 39  1  0
 20 40  1  0
M  END
$$$$
