
     RDKit          3D

 37 38  0  0  0  0  0  0  0  0999 V2000
    7.0819    0.3988   -0.7700 C   0  0  0  0  0  0  0  0  0  0  0  0
    6.0730   -0.4102   -1.3612 O   0  0  0  0  0  0  0  0  0  0  0  0
    4.8614   -0.4527   -0.7304 C   0  0  0  0  0  0  0  0  0  0  0  0
    4.5247    0.2124    0.4489 C   0  0  0  0  0  0  0  0  0  0  0  0
    3.2392    0.0829    0.9937 C   0  0  0  0  0  0  0  0  0  0  0  0
    2.2789   -0.7130    0.3584 C   0  0  0  0  0  0  0  0  0  0  0  0
    0.8983   -0.8860    0.8988 C   0  0  0  0  0  0  0  0  0  0  0  0
    0.1696   -1.7619    0.4357 O   0  0  0  0  0  0  0  0  0  0  0  0
    0.4379    0.0026    2.0248 C   0  0  0  0  0  0  0  0  0  0  0  0
   -1.0502   -0.0436    2.2132 C   0  0  0  0  0  0  0  0  0  0  0  0
   -1.6076   -0.4032    3.2466 O   0  0  0  0  0  0  0  0  0  0  0  0
   -1.9003    0.4337    1.0359 C   0  0  0  0  0  0  0  0  0  0  0  0
   -1.3756    1.1294    0.1804 O   0  0  0  0  0  0  0  0  0  0  0  0
   -3.2079    0.0100    1.1393 N   0  0  0  0  0  0  0  0  0  0  0  0
   -4.2646    0.2508    0.2460 C   0  0  0  0  0  0  0  0  0  0  0  0
   -4.1242    0.9634   -0.9474 C   0  0  0  0  0  0  0  0  0  0  0  0
   -5.2261    1.1619   -1.7874 C   0  0  0  0  0  0  0  0  0  0  0  0
   -6.4707    0.6471   -1.4359 C   0  0  0  0  0  0  0  0  0  0  0  0
   -7.8236    0.8926   -2.4689 Cl  0  0  0  0  0  0  0  0  0  0  0  0
   -6.6239   -0.0666   -0.2509 C   0  0  0  0  0  0  0  0  0  0  0  0
   -5.5221   -0.2643    0.5871 C   0  0  0  0  0  0  0  0  0  0  0  0
    2.6214   -1.3836   -0.8209 C   0  0  0  0  0  0  0  0  0  0  0  0
    3.9039   -1.2508   -1.3593 C   0  0  0  0  0  0  0  0  0  0  0  0
    6.7776    1.4503   -0.7399 H   0  0  0  0  0  0  0  0  0  0  0  0
    7.9765    0.3288   -1.3963 H   0  0  0  0  0  0  0  0  0  0  0  0
    7.3449    0.0342    0.2285 H   0  0  0  0  0  0  0  0  0  0  0  0
    5.2401    0.8386    0.9726 H   0  0  0  0  0  0  0  0  0  0  0  0
    3.0237    0.6092    1.9189 H   0  0  0  0  0  0  0  0  0  0  0  0
    0.7181    1.0448    1.8430 H   0  0  0  0  0  0  0  0  0  0  0  0
    0.9116   -0.3377    2.9518 H   0  0  0  0  0  0  0  0  0  0  0  0
   -3.4120   -0.5269    1.9795 H   0  0  0  0  0  0  0  0  0  0  0  0
   -3.1689    1.3755   -1.2579 H   0  0  0  0  0  0  0  0  0  0  0  0
   -5.1002    1.7176   -2.7130 H   0  0  0  0  0  0  0  0  0  0  0  0
   -7.5931   -0.4718    0.0270 H   0  0  0  0  0  0  0  0  0  0  0  0
   -5.6626   -0.8256    1.5078 H   0  0  0  0  0  0  0  0  0  0  0  0
    1.8934   -2.0117   -1.3316 H   0  0  0  0  0  0  0  0  0  0  0  0
    4.1575   -1.7749   -2.2781 H   0  0  0  0  0  0  0  0  0  0  0  0
  1  2  1  0
  2  3  1  0
  3  4  2  0
  4  5  1  0
  5  6  2  0
  6  7  1  0
  7  8  2  0
  7  9  1  0
  9 10  1  0
 10 11  2  0
 10 12  1  0
 12 13  2  0
 12 14  1  0
 14 15  1  0
 15 16  2  0
 16 17  1  0
 17 18  2  0
 18 19  1  0
 18 20  1  0
 20 21  2  0
  6 22  1  0
 22 23  2  0
 23  3  1  0
 21 15  1  0
  1 24  1  0
  1 25  1  0
  1 26  1  0
  4 27  1  0
  5 28  1  0
  9 29  1  0
  9 30  1  0
 14 31  1  0
 16 32  1  0
 17 33  1  0
 20 34  1  0
 21 35  1  0
 22 36  1  0
 23 37  1  0
M  END
$$$$
