
     RDKit          3D

 60 61  0  0  0  0  0  0  0  0999 V2000
   -7.0955    1.2442   -1.7866 C   0  0  0  0  0  0  0  0  0  0  0  0
   -6.2688    1.4417   -0.6456 O   0  0  0  0  0  0  0  0  0  0  0  0
   -4.9164    1.3379   -0.8314 C   0  0  0  0  0  0  0  0  0  0  0  0
   -4.1559    1.5447    0.3250 C   0  0  0  0  0  0  0  0  0  0  0  0
   -2.7580    1.4868    0.2900 C   0  0  0  0  0  0  0  0  0  0  0  0
   -1.9494    1.6775    1.3846 O   0  0  0  0  0  0  0  0  0  0  0  0
   -2.5814    1.8840    2.6416 C   0  0  0  0  0  0  0  0  0  0  0  0
   -2.1108    1.2172   -0.9328 C   0  0  0  0  0  0  0  0  0  0  0  0
   -0.6533    1.1577   -0.9953 C   0  0  0  0  0  0  0  0  0  0  0  0
    0.0569    2.0919   -1.6462 N   0  0  0  0  0  0  0  0  0  0  0  0
    1.3825    1.7531   -1.4740 O   0  0  0  0  0  0  0  0  0  0  0  0
    1.4796    0.6166   -0.7284 C   0  0  0  0  0  0  0  0  0  0  0  0
    2.7804    0.0463   -0.5004 C   0  0  0  0  0  0  0  0  0  0  0  0
    2.9932   -1.0921   -0.1051 O   0  0  0  0  0  0  0  0  0  0  0  0
    3.7448    0.9578   -0.8041 O   0  0  0  0  0  0  0  0  0  0  0  0
    5.1517    0.6351   -0.6666 C   0  0  0  0  0  0  0  0  0  0  0  0
    5.5127    0.3233    0.7902 C   0  0  0  0  0  0  0  0  0  0  0  0
    5.8883    1.9150   -1.0909 C   0  0  0  0  0  0  0  0  0  0  0  0
    5.5572   -0.4994   -1.6138 C   0  0  0  0  0  0  0  0  0  0  0  0
    0.2083    0.2111   -0.3760 C   0  0  0  0  0  0  0  0  0  0  0  0
   -0.1589   -0.9181    0.4379 C   0  0  0  0  0  0  0  0  0  0  0  0
   -1.1549   -1.5961    0.2244 O   0  0  0  0  0  0  0  0  0  0  0  0
    0.7001   -1.0920    1.4771 O   0  0  0  0  0  0  0  0  0  0  0  0
    0.5150   -2.1662    2.4316 C   0  0  0  0  0  0  0  0  0  0  0  0
   -0.7856   -1.9825    3.2211 C   0  0  0  0  0  0  0  0  0  0  0  0
    0.5878   -3.5385    1.7526 C   0  0  0  0  0  0  0  0  0  0  0  0
    1.7018   -2.0341    3.3981 C   0  0  0  0  0  0  0  0  0  0  0  0
   -2.8802    0.9682   -2.0827 C   0  0  0  0  0  0  0  0  0  0  0  0
   -2.2337    0.6839   -3.2620 O   0  0  0  0  0  0  0  0  0  0  0  0
   -2.6850   -0.5280   -3.8651 C   0  0  0  0  0  0  0  0  0  0  0  0
   -4.2766    1.0535   -2.0358 C   0  0  0  0  0  0  0  0  0  0  0  0
   -8.1367    1.3547   -1.4686 H   0  0  0  0  0  0  0  0  0  0  0  0
   -6.8987    2.0026   -2.5519 H   0  0  0  0  0  0  0  0  0  0  0  0
   -6.9767    0.2334   -2.1904 H   0  0  0  0  0  0  0  0  0  0  0  0
   -4.6930    1.7586    1.2435 H   0  0  0  0  0  0  0  0  0  0  0  0
   -3.1626    2.8118    2.6430 H   0  0  0  0  0  0  0  0  0  0  0  0
   -3.2006    1.0241    2.9181 H   0  0  0  0  0  0  0  0  0  0  0  0
   -1.7957    1.9831    3.3974 H   0  0  0  0  0  0  0  0  0  0  0  0
    6.5972    0.2427    0.9229 H   0  0  0  0  0  0  0  0  0  0  0  0
    5.1368    1.1057    1.4596 H   0  0  0  0  0  0  0  0  0  0  0  0
    5.0711   -0.6186    1.1299 H   0  0  0  0  0  0  0  0  0  0  0  0
    6.9754    1.7973   -1.0326 H   0  0  0  0  0  0  0  0  0  0  0  0
    5.5971    2.7606   -0.4569 H   0  0  0  0  0  0  0  0  0  0  0  0
    5.6246    2.1939   -2.1181 H   0  0  0  0  0  0  0  0  0  0  0  0
    6.6440   -0.6352   -1.6298 H   0  0  0  0  0  0  0  0  0  0  0  0
    5.1124   -1.4553   -1.3215 H   0  0  0  0  0  0  0  0  0  0  0  0
    5.2166   -0.2935   -2.6351 H   0  0  0  0  0  0  0  0  0  0  0  0
   -0.8549   -2.6975    4.0479 H   0  0  0  0  0  0  0  0  0  0  0  0
   -0.8515   -0.9681    3.6310 H   0  0  0  0  0  0  0  0  0  0  0  0
   -1.6695   -2.1223    2.5911 H   0  0  0  0  0  0  0  0  0  0  0  0
   -0.2797   -3.7250    1.1123 H   0  0  0  0  0  0  0  0  0  0  0  0
    1.4737   -3.6089    1.1111 H   0  0  0  0  0  0  0  0  0  0  0  0
    0.6276   -4.3468    2.4905 H   0  0  0  0  0  0  0  0  0  0  0  0
    2.6532   -2.1283    2.8613 H   0  0  0  0  0  0  0  0  0  0  0  0
    1.7114   -1.0450    3.8712 H   0  0  0  0  0  0  0  0  0  0  0  0
    1.6721   -2.7945    4.1856 H   0  0  0  0  0  0  0  0  0  0  0  0
   -2.8409   -1.3223   -3.1251 H   0  0  0  0  0  0  0  0  0  0  0  0
   -3.5992   -0.3532   -4.4422 H   0  0  0  0  0  0  0  0  0  0  0  0
   -1.9087   -0.8633   -4.5597 H   0  0  0  0  0  0  0  0  0  0  0  0
   -4.8404    0.9085   -2.9496 H   0  0  0  0  0  0  0  0  0  0  0  0
  1  2  1  0
  2  3  1  0
  3  4  2  0
  4  5  1  0
  5  6  1  0
  6  7  1  0
  5  8  2  0
  8  9  1  0
  9 10  2  0
 10 11  1  0
 11 12  1  0
 12 13  1  0
 13 14  2  0
 13 15  1  0
 15 16  1  0
 16 17  1  0
 16 18  1  0
 16 19  1  0
 12 20  2  0
 20 21  1  0
 21 22  2  0
 21 23  1  0
 23 24  1  0
 24 25  1  0
 24 26  1  0
 24 27  1  0
  8 28  1  0
 28 29  1  0
 29 30  1  0
 28 31  2  0
 31  3  1  0
 20  9  1  0
  1 32  1  0
  1 33  1  0
  1 34  1  0
  4 35  1  0
  7 36  1  0
  7 37  1  0
  7 38  1  0
 17 39  1  0
 17 40  1  0
 17 41  1  0
 18 42  1  0
 18 43  1  0
 18 44  1  0
 19 45  1  0
 19 46  1  0
 19 47  1  0
 25 48  1  0
 25 49  1  0
 25 50  1  0
 26 51  1  0
 26 52  1  0
 26 53  1  0
 27 54  1  0
 27 55  1  0
 27 56  1  0
 30 57  1  0
 30 58  1  0
 30 59  1  0
 31 60  1  0
M  END
$$$$
