
     RDKit          3D

 69 72  0  0  0  0  0  0  0  0999 V2000
    6.6198    1.5759    3.1090 C   0  0  0  0  0  0  0  0  0  0  0  0
    6.3052    1.9410    1.6881 C   0  0  0  0  0  0  0  0  0  0  0  0
    7.3225    2.3825    0.8297 C   0  0  0  0  0  0  0  0  0  0  0  0
    7.0302    2.7846   -0.4761 C   0  0  0  0  0  0  0  0  0  0  0  0
    5.7162    2.7512   -0.9389 C   0  0  0  0  0  0  0  0  0  0  0  0
    4.7007    2.2978   -0.0938 C   0  0  0  0  0  0  0  0  0  0  0  0
    3.3106    2.2915   -0.5959 C   0  0  0  0  0  0  0  0  0  0  0  0
    2.8255    3.3731   -0.9238 O   0  0  0  0  0  0  0  0  0  0  0  0
    2.6218    1.0784   -0.6688 N   0  0  0  0  0  0  0  0  0  0  0  0
    3.2374   -0.2296   -0.4360 C   0  0  0  0  0  0  0  0  0  0  0  0
    2.6773   -1.3247   -1.3176 C   0  0  0  0  0  0  0  0  0  0  0  0
    1.4433   -1.9878   -0.7523 C   0  0  0  0  0  0  0  0  0  0  0  0
    1.4620   -3.2085   -0.5669 O   0  0  0  0  0  0  0  0  0  0  0  0
    0.2978   -1.2243   -0.5328 N   0  0  0  0  0  0  0  0  0  0  0  0
   -0.9173   -1.9956   -0.1317 C   0  0  0  0  0  0  0  0  0  0  0  0
   -2.2539   -1.3763   -0.6097 C   0  0  0  0  0  0  0  0  0  0  0  0
   -2.1642   -1.0148   -1.9935 O   0  0  0  0  0  0  0  0  0  0  0  0
   -3.3999   -0.5304   -2.5179 C   0  0  0  0  0  0  0  0  0  0  0  0
   -3.6782    0.8857   -2.0732 C   0  0  0  0  0  0  0  0  0  0  0  0
   -2.7616    1.9088   -2.3536 C   0  0  0  0  0  0  0  0  0  0  0  0
   -3.0166    3.2205   -1.9514 C   0  0  0  0  0  0  0  0  0  0  0  0
   -4.1927    3.5239   -1.2631 C   0  0  0  0  0  0  0  0  0  0  0  0
   -5.1235    2.5164   -0.9645 C   0  0  0  0  0  0  0  0  0  0  0  0
   -6.4065    2.8474   -0.2407 C   0  0  0  0  0  0  0  0  0  0  0  0
   -6.2742    3.8758    0.6442 F   0  0  0  0  0  0  0  0  0  0  0  0
   -7.4050    3.2104   -1.0927 F   0  0  0  0  0  0  0  0  0  0  0  0
   -6.8950    1.7998    0.4817 F   0  0  0  0  0  0  0  0  0  0  0  0
   -4.8593    1.2004   -1.3836 C   0  0  0  0  0  0  0  0  0  0  0  0
   -0.9278   -2.2492    1.3949 C   0  0  0  0  0  0  0  0  0  0  0  0
   -1.9609   -3.2548    1.8422 C   0  0  0  0  0  0  0  0  0  0  0  0
   -3.0814   -2.8500    2.5801 C   0  0  0  0  0  0  0  0  0  0  0  0
   -4.0413   -3.7837    2.9746 C   0  0  0  0  0  0  0  0  0  0  0  0
   -3.8886   -5.1279    2.6396 C   0  0  0  0  0  0  0  0  0  0  0  0
   -2.7719   -5.5421    1.9152 C   0  0  0  0  0  0  0  0  0  0  0  0
   -1.8111   -4.6108    1.5185 C   0  0  0  0  0  0  0  0  0  0  0  0
    0.3320    0.2072   -0.1869 C   0  0  0  0  0  0  0  0  0  0  0  0
    1.2095    1.1114   -1.0537 C   0  0  0  0  0  0  0  0  0  0  0  0
    4.9850    1.9133    1.2222 C   0  0  0  0  0  0  0  0  0  0  0  0
    6.6004    2.4717    3.7368 H   0  0  0  0  0  0  0  0  0  0  0  0
    5.8925    0.8571    3.4996 H   0  0  0  0  0  0  0  0  0  0  0  0
    7.6090    1.1111    3.1813 H   0  0  0  0  0  0  0  0  0  0  0  0
    8.3519    2.4303    1.1792 H   0  0  0  0  0  0  0  0  0  0  0  0
    7.8271    3.1370   -1.1268 H   0  0  0  0  0  0  0  0  0  0  0  0
    5.4810    3.0846   -1.9467 H   0  0  0  0  0  0  0  0  0  0  0  0
    4.3124   -0.1566   -0.6272 H   0  0  0  0  0  0  0  0  0  0  0  0
    3.1046   -0.4688    0.6256 H   0  0  0  0  0  0  0  0  0  0  0  0
    3.4391   -2.1121   -1.3968 H   0  0  0  0  0  0  0  0  0  0  0  0
    2.4747   -0.9901   -2.3399 H   0  0  0  0  0  0  0  0  0  0  0  0
   -0.8477   -2.9606   -0.6517 H   0  0  0  0  0  0  0  0  0  0  0  0
   -3.0599   -2.1103   -0.4894 H   0  0  0  0  0  0  0  0  0  0  0  0
   -2.5098   -0.4962   -0.0096 H   0  0  0  0  0  0  0  0  0  0  0  0
   -4.2168   -1.2133   -2.2531 H   0  0  0  0  0  0  0  0  0  0  0  0
   -3.3216   -0.5390   -3.6108 H   0  0  0  0  0  0  0  0  0  0  0  0
   -1.8438    1.6803   -2.8942 H   0  0  0  0  0  0  0  0  0  0  0  0
   -2.3001    4.0076   -2.1807 H   0  0  0  0  0  0  0  0  0  0  0  0
   -4.3828    4.5540   -0.9620 H   0  0  0  0  0  0  0  0  0  0  0  0
   -5.5842    0.4149   -1.1672 H   0  0  0  0  0  0  0  0  0  0  0  0
   -1.0830   -1.2980    1.9237 H   0  0  0  0  0  0  0  0  0  0  0  0
    0.0561   -2.6047    1.7309 H   0  0  0  0  0  0  0  0  0  0  0  0
   -3.2166   -1.8075    2.8570 H   0  0  0  0  0  0  0  0  0  0  0  0
   -4.9092   -3.4625    3.5460 H   0  0  0  0  0  0  0  0  0  0  0  0
   -4.6359   -5.8546    2.9489 H   0  0  0  0  0  0  0  0  0  0  0  0
   -2.6453   -6.5915    1.6603 H   0  0  0  0  0  0  0  0  0  0  0  0
   -0.9404   -4.9494    0.9570 H   0  0  0  0  0  0  0  0  0  0  0  0
   -0.6831    0.5990   -0.2708 H   0  0  0  0  0  0  0  0  0  0  0  0
    0.6231    0.2833    0.8663 H   0  0  0  0  0  0  0  0  0  0  0  0
    0.8362    2.1376   -0.9542 H   0  0  0  0  0  0  0  0  0  0  0  0
    1.1298    0.8505   -2.1152 H   0  0  0  0  0  0  0  0  0  0  0  0
    4.1765    1.6097    1.8824 H   0  0  0  0  0  0  0  0  0  0  0  0
  1  2  1  0
  2  3  2  0
  3  4  1  0
  4  5  2  0
  5  6  1  0
  6  7  1  0
  7  8  2  0
  7  9  1  0
  9 10  1  0
 10 11  1  0
 11 12  1  0
 12 13  2  0
 12 14  1  0
 14 15  1  0
 15 16  1  0
 16 17  1  0
 17 18  1  0
 18 19  1  0
 19 20  2  0
 20 21  1  0
 21 22  2  0
 22 23  1  0
 23 24  1  0
 24 25  1  0
 24 26  1  0
 24 27  1  0
 23 28  2  0
 15 29  1  0
 29 30  1  0
 30 31  2  0
 31 32  1  0
 32 33  2  0
 33 34  1  0
 34 35  2  0
 14 36  1  0
 36 37  1  0
  6 38  2  0
 38  2  1  0
 37  9  1  0
 28 19  1  0
 35 30  1  0
  1 39  1  0
  1 40  1  0
  1 41  1  0
  3 42  1  0
  4 43  1  0
  5 44  1  0
 10 45  1  0
 10 46  1  0
 11 47  1  0
 11 48  1  0
 15 49  1  0
 16 50  1  0
 16 51  1  0
 18 52  1  0
 18 53  1  0
 20 54  1  0
 21 55  1  0
 22 56  1  0
 28 57  1  0
 29 58  1  0
 29 59  1  0
 31 60  1  0
 32 61  1  0
 33 62  1  0
 34 63  1  0
 35 64  1  0
 36 65  1  0
 36 66  1  0
 37 67  1  0
 37 68  1  0
 38 69  1  0
M  END
$$$$
