
     RDKit          3D

 61 66  0  0  0  0  0  0  0  0999 V2000
   -2.1385   -0.6733    1.4321 O   0  0  0  0  0  0  0  0  0  0  0  0
   -2.6825   -0.0691    0.5080 C   0  0  0  0  0  0  0  0  0  0  0  0
   -1.8834    0.7707   -0.4713 C   0  0  0  0  0  0  0  0  0  0  0  0
   -0.5906    0.1835   -0.7247 N   0  0  0  0  0  0  0  0  0  0  0  0
   -0.4297   -0.8032   -1.6229 N   0  0  0  0  0  0  0  0  0  0  0  0
    0.8793   -1.0053   -1.6681 N   0  0  0  0  0  0  0  0  0  0  0  0
    1.4576   -0.0889   -0.8174 C   0  0  0  0  0  0  0  0  0  0  0  0
    2.8940   -0.0127   -0.5904 C   0  0  0  0  0  0  0  0  0  0  0  0
    3.7740   -0.8340   -1.2958 C   0  0  0  0  0  0  0  0  0  0  0  0
    5.1565   -0.7653   -1.0666 C   0  0  0  0  0  0  0  0  0  0  0  0
    5.7154    0.1130   -0.1259 C   0  0  0  0  0  0  0  0  0  0  0  0
    7.0777    0.1755    0.1037 N   0  0  0  0  0  0  0  0  0  0  0  0
    8.0600   -0.4102   -0.8224 C   0  0  0  0  0  0  0  0  0  0  0  0
    9.4330    0.2522   -0.6166 C   0  0  0  0  0  0  0  0  0  0  0  0
    9.9610    0.1065    0.7097 O   0  0  0  0  0  0  0  0  0  0  0  0
    8.9447   -0.0303    1.7119 C   0  0  0  0  0  0  0  0  0  0  0  0
    7.6245    0.6845    1.3730 C   0  0  0  0  0  0  0  0  0  0  0  0
    4.8132    0.9349    0.5660 C   0  0  0  0  0  0  0  0  0  0  0  0
    3.4297    0.8778    0.3428 C   0  0  0  0  0  0  0  0  0  0  0  0
    0.5480    0.7191   -0.2416 N   0  0  0  0  0  0  0  0  0  0  0  0
   -4.0813    0.0034    0.2799 N   0  0  0  0  0  0  0  0  0  0  0  0
   -5.0249    0.1677    1.3839 C   0  0  0  0  0  0  0  0  0  0  0  0
   -4.5170    0.2246    2.7063 C   0  0  0  0  0  0  0  0  0  0  0  0
   -5.3293    0.2962    3.8448 C   0  0  0  0  0  0  0  0  0  0  0  0
   -6.7005    0.3350    3.7086 C   0  0  0  0  0  0  0  0  0  0  0  0
   -7.2415    0.3561    2.4315 C   0  0  0  0  0  0  0  0  0  0  0  0
   -6.4281    0.3247    1.2659 C   0  0  0  0  0  0  0  0  0  0  0  0
   -7.2090    0.5477   -0.0083 C   0  0  0  0  0  0  0  0  0  0  0  0
   -6.4073    1.1411   -1.1474 C   0  0  0  0  0  0  0  0  0  0  0  0
   -5.5786    0.0381   -1.7209 C   0  0  0  0  0  0  0  0  0  0  0  0
   -5.8923   -0.4583   -3.0016 C   0  0  0  0  0  0  0  0  0  0  0  0
   -5.1717   -1.5107   -3.5575 C   0  0  0  0  0  0  0  0  0  0  0  0
   -4.1354   -2.0847   -2.8375 C   0  0  0  0  0  0  0  0  0  0  0  0
   -3.8201   -1.5963   -1.5680 C   0  0  0  0  0  0  0  0  0  0  0  0
   -4.5293   -0.5228   -0.9864 C   0  0  0  0  0  0  0  0  0  0  0  0
   -1.7315    1.7587   -0.0235 H   0  0  0  0  0  0  0  0  0  0  0  0
   -2.3784    0.9120   -1.4350 H   0  0  0  0  0  0  0  0  0  0  0  0
    3.4003   -1.5451   -2.0299 H   0  0  0  0  0  0  0  0  0  0  0  0
    5.7872   -1.4448   -1.6320 H   0  0  0  0  0  0  0  0  0  0  0  0
    8.1346   -1.4874   -0.6330 H   0  0  0  0  0  0  0  0  0  0  0  0
    7.7615   -0.2518   -1.8652 H   0  0  0  0  0  0  0  0  0  0  0  0
   10.1638   -0.1760   -1.3095 H   0  0  0  0  0  0  0  0  0  0  0  0
    9.3708    1.3254   -0.8295 H   0  0  0  0  0  0  0  0  0  0  0  0
    8.7678   -1.1023    1.8604 H   0  0  0  0  0  0  0  0  0  0  0  0
    9.3529    0.3631    2.6489 H   0  0  0  0  0  0  0  0  0  0  0  0
    7.7982    1.7625    1.2728 H   0  0  0  0  0  0  0  0  0  0  0  0
    6.9324    0.5158    2.2072 H   0  0  0  0  0  0  0  0  0  0  0  0
    5.1725    1.6634    1.2879 H   0  0  0  0  0  0  0  0  0  0  0  0
    2.7781    1.5377    0.9099 H   0  0  0  0  0  0  0  0  0  0  0  0
   -3.4525    0.1950    2.9180 H   0  0  0  0  0  0  0  0  0  0  0  0
   -4.8745    0.3082    4.8328 H   0  0  0  0  0  0  0  0  0  0  0  0
   -7.3439    0.3752    4.5826 H   0  0  0  0  0  0  0  0  0  0  0  0
   -8.3241    0.4340    2.3367 H   0  0  0  0  0  0  0  0  0  0  0  0
   -8.0136    1.2652    0.2053 H   0  0  0  0  0  0  0  0  0  0  0  0
   -7.6942   -0.3933   -0.2978 H   0  0  0  0  0  0  0  0  0  0  0  0
   -5.7773    1.9812   -0.8322 H   0  0  0  0  0  0  0  0  0  0  0  0
   -7.0924    1.5367   -1.9073 H   0  0  0  0  0  0  0  0  0  0  0  0
   -6.7102   -0.0270   -3.5743 H   0  0  0  0  0  0  0  0  0  0  0  0
   -5.4229   -1.8852   -4.5464 H   0  0  0  0  0  0  0  0  0  0  0  0
   -3.5677   -2.9126   -3.2568 H   0  0  0  0  0  0  0  0  0  0  0  0
   -3.0147   -2.0960   -1.0302 H   0  0  0  0  0  0  0  0  0  0  0  0
  1  2  2  0
  2  3  1  0
  3  4  1  0
  4  5  1  0
  5  6  2  0
  6  7  1  0
  7  8  1  0
  8  9  2  0
  9 10  1  0
 10 11  2  0
 11 12  1  0
 12 13  1  0
 13 14  1  0
 14 15  1  0
 15 16  1  0
 16 17  1  0
 11 18  1  0
 18 19  2  0
  7 20  2  0
  2 21  1  0
 21 22  1  0
 22 23  2  0
 23 24  1  0
 24 25  2  0
 25 26  1  0
 26 27  2  0
 27 28  1  0
 28 29  1  0
 29 30  1  0
 30 31  2  0
 31 32  1  0
 32 33  2  0
 33 34  1  0
 34 35  2  0
 20  4  1  0
 35 21  1  0
 19  8  1  0
 27 22  1  0
 35 30  1  0
 17 12  1  0
  3 36  1  0
  3 37  1  0
  9 38  1  0
 10 39  1  0
 13 40  1  0
 13 41  1  0
 14 42  1  0
 14 43  1  0
 16 44  1  0
 16 45  1  0
 17 46  1  0
 17 47  1  0
 18 48  1  0
 19 49  1  0
 23 50  1  0
 24 51  1  0
 25 52  1  0
 26 53  1  0
 28 54  1  0
 28 55  1  0
 29 56  1  0
 29 57  1  0
 31 58  1  0
 32 59  1  0
 33 60  1  0
 34 61  1  0
M  END
$$$$
