
     RDKit          3D

 25 26  0  0  0  0  0  0  0  0999 V2000
    3.9018   -1.4511   -0.4462 C   0  0  0  0  0  0  0  0  0  0  0  0
    3.3425   -0.1329   -0.0975 C   0  0  0  0  0  0  0  0  0  0  0  0
    4.2259    0.8784    0.1645 O   0  0  0  0  0  0  0  0  0  0  0  0
    3.4335    1.9468    0.4487 C   0  0  0  0  0  0  0  0  0  0  0  0
    2.1404    1.7176    0.3939 N   0  0  0  0  0  0  0  0  0  0  0  0
    2.0664    0.3739    0.0411 C   0  0  0  0  0  0  0  0  0  0  0  0
    0.8044   -0.3401   -0.1411 C   0  0  0  0  0  0  0  0  0  0  0  0
    0.7681   -1.5242   -0.4521 O   0  0  0  0  0  0  0  0  0  0  0  0
   -0.2741    0.4930    0.0824 N   0  0  0  0  0  0  0  0  0  0  0  0
   -1.6434    0.1888    0.0083 C   0  0  0  0  0  0  0  0  0  0  0  0
   -2.1449   -1.0727   -0.3211 C   0  0  0  0  0  0  0  0  0  0  0  0
   -3.5260   -1.2948   -0.3736 C   0  0  0  0  0  0  0  0  0  0  0  0
   -4.4092   -0.2552   -0.0966 C   0  0  0  0  0  0  0  0  0  0  0  0
   -6.1056   -0.5300   -0.1616 Cl  0  0  0  0  0  0  0  0  0  0  0  0
   -3.9235    1.0066    0.2329 C   0  0  0  0  0  0  0  0  0  0  0  0
   -2.5436    1.2266    0.2848 C   0  0  0  0  0  0  0  0  0  0  0  0
    3.5698   -1.7568   -1.4431 H   0  0  0  0  0  0  0  0  0  0  0  0
    3.5771   -2.2081    0.2741 H   0  0  0  0  0  0  0  0  0  0  0  0
    4.9961   -1.4315   -0.4457 H   0  0  0  0  0  0  0  0  0  0  0  0
    3.9397    2.8714    0.6895 H   0  0  0  0  0  0  0  0  0  0  0  0
   -0.0135    1.4443    0.3313 H   0  0  0  0  0  0  0  0  0  0  0  0
   -1.4892   -1.9090   -0.5437 H   0  0  0  0  0  0  0  0  0  0  0  0
   -3.8996   -2.2824   -0.6315 H   0  0  0  0  0  0  0  0  0  0  0  0
   -4.6088    1.8215    0.4499 H   0  0  0  0  0  0  0  0  0  0  0  0
   -2.1843    2.2196    0.5442 H   0  0  0  0  0  0  0  0  0  0  0  0
  1  2  1  0
  2  3  1  0
  3  4  1  0
  4  5  2  0
  5  6  1  0
  6  7  1  0
  7  8  2  0
  7  9  1  0
  9 10  1  0
 10 11  2  0
 11 12  1  0
 12 13  2  0
 13 14  1  0
 13 15  1  0
 15 16  2  0
  6  2  2  0
 16 10  1  0
  1 17  1  0
  1 18  1  0
  1 19  1  0
  4 20  1  0
  9 21  1  0
 11 22  1  0
 12 23  1  0
 15 24  1  0
 16 25  1  0
M  END
$$$$
