
     RDKit          3D

 52 55  0  0  0  0  0  0  0  0999 V2000
   -3.0304    2.0445    0.9959 C   0  0  0  0  0  0  0  0  0  0  0  0
   -4.3609    1.4186    0.6802 C   0  0  0  0  0  0  0  0  0  0  0  0
   -5.3759    2.2566    0.1787 C   0  0  0  0  0  0  0  0  0  0  0  0
   -6.6428    1.7579   -0.1331 C   0  0  0  0  0  0  0  0  0  0  0  0
   -6.9143    0.4013    0.0594 C   0  0  0  0  0  0  0  0  0  0  0  0
   -8.2418   -0.1286   -0.2744 N   0  0  0  0  0  4  0  0  0  0  0  0
   -9.1277    0.6841   -0.5741 O   0  0  0  0  0  0  0  0  0  0  0  0
   -8.3937   -1.3576   -0.2448 O   0  0  0  0  0  1  0  0  0  0  0  0
   -5.9299   -0.4544    0.5631 C   0  0  0  0  0  0  0  0  0  0  0  0
   -4.6535    0.0525    0.8696 C   0  0  0  0  0  0  0  0  0  0  0  0
   -3.4769   -1.1252    1.5279 S   0  0  0  0  0  6  0  0  0  0  0  0
   -2.3544   -0.4433    2.1316 O   0  0  0  0  0  0  0  0  0  0  0  0
   -4.2345   -2.0961    2.2903 O   0  0  0  0  0  0  0  0  0  0  0  0
   -2.9694   -1.9286    0.1343 N   0  0  0  0  0  0  0  0  0  0  0  0
   -2.0338   -1.2880   -0.7182 C   0  0  0  0  0  0  0  0  0  0  0  0
   -2.4838   -0.7458   -1.9176 C   0  0  0  0  0  0  0  0  0  0  0  0
   -1.5792   -0.1163   -2.7664 C   0  0  0  0  0  0  0  0  0  0  0  0
   -0.2307   -0.0290   -2.4075 C   0  0  0  0  0  0  0  0  0  0  0  0
    0.2474   -0.5666   -1.1962 C   0  0  0  0  0  0  0  0  0  0  0  0
    1.6692   -0.4453   -0.8274 C   0  0  0  0  0  0  0  0  0  0  0  0
    2.1284   -0.3493    0.4766 C   0  0  0  0  0  0  0  0  0  0  0  0
    3.5013   -0.2317    0.7178 C   0  0  0  0  0  0  0  0  0  0  0  0
    4.4053   -0.2081   -0.3345 C   0  0  0  0  0  0  0  0  0  0  0  0
    5.7551   -0.0908   -0.1427 N   0  0  0  0  0  0  0  0  0  0  0  0
    6.6769   -0.1685   -1.2687 C   0  0  0  0  0  0  0  0  0  0  0  0
    8.0346   -0.3955   -0.6048 C   0  0  0  0  0  0  0  0  0  0  0  0
    7.8854    0.2972    0.7408 C   0  0  0  0  0  0  0  0  0  0  0  0
    6.4431   -0.0165    1.1334 C   0  0  0  0  0  0  0  0  0  0  0  0
    3.9160   -0.2967   -1.5889 N   0  0  0  0  0  0  0  0  0  0  0  0
    2.5552   -0.4141   -1.8411 N   0  0  0  0  0  0  0  0  0  0  0  0
   -0.6842   -1.2152   -0.3656 C   0  0  0  0  0  0  0  0  0  0  0  0
   -2.9883    3.0851    0.6552 H   0  0  0  0  0  0  0  0  0  0  0  0
   -2.8600    2.0541    2.0766 H   0  0  0  0  0  0  0  0  0  0  0  0
   -2.2190    1.5210    0.4841 H   0  0  0  0  0  0  0  0  0  0  0  0
   -5.1840    3.3190    0.0262 H   0  0  0  0  0  0  0  0  0  0  0  0
   -7.3989    2.4381   -0.5212 H   0  0  0  0  0  0  0  0  0  0  0  0
   -6.1454   -1.5111    0.7208 H   0  0  0  0  0  0  0  0  0  0  0  0
   -2.8783   -2.9345    0.2764 H   0  0  0  0  0  0  0  0  0  0  0  0
   -3.5304   -0.8152   -2.2000 H   0  0  0  0  0  0  0  0  0  0  0  0
   -1.9165    0.3072   -3.7094 H   0  0  0  0  0  0  0  0  0  0  0  0
    0.4586    0.4733   -3.0870 H   0  0  0  0  0  0  0  0  0  0  0  0
    1.4427   -0.3458    1.3179 H   0  0  0  0  0  0  0  0  0  0  0  0
    3.8413   -0.1572    1.7444 H   0  0  0  0  0  0  0  0  0  0  0  0
    6.4491   -0.9917   -1.9549 H   0  0  0  0  0  0  0  0  0  0  0  0
    6.6716    0.7764   -1.8239 H   0  0  0  0  0  0  0  0  0  0  0  0
    8.8628    0.0005   -1.1990 H   0  0  0  0  0  0  0  0  0  0  0  0
    8.2030   -1.4688   -0.4535 H   0  0  0  0  0  0  0  0  0  0  0  0
    8.0154    1.3795    0.6191 H   0  0  0  0  0  0  0  0  0  0  0  0
    8.6075   -0.0536    1.4833 H   0  0  0  0  0  0  0  0  0  0  0  0
    6.3863   -0.9808    1.6516 H   0  0  0  0  0  0  0  0  0  0  0  0
    6.0449    0.7687    1.7846 H   0  0  0  0  0  0  0  0  0  0  0  0
   -0.3623   -1.6658    0.5705 H   0  0  0  0  0  0  0  0  0  0  0  0
  1  2  1  0
  2  3  2  0
  3  4  1  0
  4  5  2  0
  5  6  1  0
  6  7  2  0
  6  8  1  0
  5  9  1  0
  9 10  2  0
 10 11  1  0
 11 12  2  0
 11 13  2  0
 11 14  1  0
 14 15  1  0
 15 16  2  0
 16 17  1  0
 17 18  2  0
 18 19  1  0
 19 20  1  0
 20 21  2  0
 21 22  1  0
 22 23  2  0
 23 24  1  0
 24 25  1  0
 25 26  1  0
 26 27  1  0
 27 28  1  0
 23 29  1  0
 29 30  2  0
 19 31  2  0
 10  2  1  0
 31 15  1  0
 30 20  1  0
 28 24  1  0
  1 32  1  0
  1 33  1  0
  1 34  1  0
  3 35  1  0
  4 36  1  0
  9 37  1  0
 14 38  1  0
 16 39  1  0
 17 40  1  0
 18 41  1  0
 21 42  1  0
 22 43  1  0
 25 44  1  0
 25 45  1  0
 26 46  1  0
 26 47  1  0
 27 48  1  0
 27 49  1  0
 28 50  1  0
 28 51  1  0
 31 52  1  0
M  CHG  2   6   1   8  -1
M  END
$$$$
