
     RDKit          3D

 57 60  0  0  0  0  0  0  0  0999 V2000
    6.3220   -0.2020   -3.0300 C   0  0  0  0  0  0  0  0  0  0  0  0
    4.9193    0.0575   -2.5082 C   0  0  0  0  0  0  0  0  0  0  0  0
    5.0278    0.7579   -1.2608 O   0  0  0  0  0  0  0  0  0  0  0  0
    3.8335    1.1466   -0.7239 C   0  0  0  0  0  0  0  0  0  0  0  0
    2.7465    0.9807   -1.2612 O   0  0  0  0  0  0  0  0  0  0  0  0
    4.0771    1.8660    0.6014 C   0  0  0  0  0  0  0  0  0  0  0  0
    2.7566    2.2615    1.2896 C   0  0  0  0  0  0  0  0  0  0  0  0
    2.2753    1.2144    2.2998 C   0  0  0  0  0  0  0  0  0  0  0  0
    2.7159   -0.1230    1.8464 N   0  0  0  0  0  0  0  0  0  0  0  0
    1.8270   -1.4516    2.4440 S   0  0  0  0  0  6  0  0  0  0  0  0
    1.7261   -1.2802    3.8786 O   0  0  0  0  0  0  0  0  0  0  0  0
    2.3731   -2.6593    1.8628 O   0  0  0  0  0  0  0  0  0  0  0  0
    0.2253   -1.1967    1.7221 C   0  0  0  0  0  0  0  0  0  0  0  0
   -0.9089   -1.1106    2.5434 C   0  0  0  0  0  0  0  0  0  0  0  0
   -2.1657   -0.8674    1.9773 C   0  0  0  0  0  0  0  0  0  0  0  0
   -2.2605   -0.7145    0.6034 C   0  0  0  0  0  0  0  0  0  0  0  0
   -1.1259   -0.8129   -0.2046 C   0  0  0  0  0  0  0  0  0  0  0  0
    0.1282   -1.0537    0.3352 C   0  0  0  0  0  0  0  0  0  0  0  0
   -1.4663   -0.6530   -1.6497 C   0  0  0  0  0  0  0  0  0  0  0  0
   -2.9666   -0.3441   -1.5924 C   0  0  0  0  0  0  0  0  0  0  0  0
   -3.3960   -0.4598   -0.1889 N   0  0  0  0  0  0  0  0  0  0  0  0
   -4.7007   -0.3049    0.2726 C   0  0  0  0  0  0  0  0  0  0  0  0
   -5.0044   -0.3579    1.4712 O   0  0  0  0  0  0  0  0  0  0  0  0
   -5.7757   -0.0567   -0.8260 C   0  0  0  0  0  0  0  0  0  0  0  0
   -7.2237    0.2808   -0.3626 C   0  0  0  0  0  0  0  0  0  0  0  0
   -7.7307   -0.5422   -1.5590 C   0  0  0  0  0  0  0  0  0  0  0  0
   -6.3983   -1.3115   -1.5011 C   0  0  0  0  0  0  0  0  0  0  0  0
    4.1890   -0.3006    1.9186 C   0  0  0  0  0  0  0  0  0  0  0  0
    4.9117    1.0017    1.5532 C   0  0  0  0  0  0  0  0  0  0  0  0
    6.2936   -0.7730   -3.9646 H   0  0  0  0  0  0  0  0  0  0  0  0
    6.9143   -0.7560   -2.2926 H   0  0  0  0  0  0  0  0  0  0  0  0
    6.8454    0.7442   -3.2134 H   0  0  0  0  0  0  0  0  0  0  0  0
    4.4007   -0.8958   -2.3448 H   0  0  0  0  0  0  0  0  0  0  0  0
    4.3621    0.6614   -3.2343 H   0  0  0  0  0  0  0  0  0  0  0  0
    4.6218    2.7842    0.3507 H   0  0  0  0  0  0  0  0  0  0  0  0
    2.8947    3.2085    1.8249 H   0  0  0  0  0  0  0  0  0  0  0  0
    1.9685    2.4495    0.5517 H   0  0  0  0  0  0  0  0  0  0  0  0
    2.6935    1.4216    3.2937 H   0  0  0  0  0  0  0  0  0  0  0  0
    1.1867    1.2827    2.3847 H   0  0  0  0  0  0  0  0  0  0  0  0
   -0.8236   -1.2307    3.6203 H   0  0  0  0  0  0  0  0  0  0  0  0
   -3.0344   -0.8030    2.6214 H   0  0  0  0  0  0  0  0  0  0  0  0
    1.0080   -1.1207   -0.2987 H   0  0  0  0  0  0  0  0  0  0  0  0
   -0.9090    0.1665   -2.1133 H   0  0  0  0  0  0  0  0  0  0  0  0
   -1.2789   -1.5817   -2.1975 H   0  0  0  0  0  0  0  0  0  0  0  0
   -3.1687    0.6795   -1.9335 H   0  0  0  0  0  0  0  0  0  0  0  0
   -3.5443   -1.0347   -2.2163 H   0  0  0  0  0  0  0  0  0  0  0  0
   -5.4438    0.6861   -1.5639 H   0  0  0  0  0  0  0  0  0  0  0  0
   -7.4894    1.3410   -0.3773 H   0  0  0  0  0  0  0  0  0  0  0  0
   -7.5054   -0.1403    0.6078 H   0  0  0  0  0  0  0  0  0  0  0  0
   -8.6315   -1.1348   -1.3855 H   0  0  0  0  0  0  0  0  0  0  0  0
   -7.8602    0.0453   -2.4744 H   0  0  0  0  0  0  0  0  0  0  0  0
   -5.9787   -1.5898   -2.4707 H   0  0  0  0  0  0  0  0  0  0  0  0
   -6.4257   -2.1996   -0.8581 H   0  0  0  0  0  0  0  0  0  0  0  0
    4.4973   -0.6228    2.9203 H   0  0  0  0  0  0  0  0  0  0  0  0
    4.4763   -1.0778    1.2018 H   0  0  0  0  0  0  0  0  0  0  0  0
    5.9001    0.7688    1.1376 H   0  0  0  0  0  0  0  0  0  0  0  0
    5.0997    1.5743    2.4726 H   0  0  0  0  0  0  0  0  0  0  0  0
  1  2  1  0
  2  3  1  0
  3  4  1  0
  4  5  2  0
  4  6  1  0
  6  7  1  0
  7  8  1  0
  8  9  1  0
  9 10  1  0
 10 11  2  0
 10 12  2  0
 10 13  1  0
 13 14  2  0
 14 15  1  0
 15 16  2  0
 16 17  1  0
 17 18  2  0
 17 19  1  0
 19 20  1  0
 20 21  1  0
 21 22  1  0
 22 23  2  0
 22 24  1  0
 24 25  1  0
 25 26  1  0
 26 27  1  0
  9 28  1  0
 28 29  1  0
 29  6  1  0
 18 13  1  0
 27 24  1  0
 21 16  1  0
  1 30  1  0
  1 31  1  0
  1 32  1  0
  2 33  1  0
  2 34  1  0
  6 35  1  0
  7 36  1  0
  7 37  1  0
  8 38  1  0
  8 39  1  0
 14 40  1  0
 15 41  1  0
 18 42  1  0
 19 43  1  0
 19 44  1  0
 20 45  1  0
 20 46  1  0
 24 47  1  0
 25 48  1  0
 25 49  1  0
 26 50  1  0
 26 51  1  0
 27 52  1  0
 27 53  1  0
 28 54  1  0
 28 55  1  0
 29 56  1  0
 29 57  1  0
M  END
$$$$
