
     RDKit          3D

 46 49  0  0  0  0  0  0  0  0999 V2000
    6.3126    0.6766   -1.5868 O   0  0  0  0  0  0  0  0  0  0  0  0
    6.2921   -0.2322   -0.7423 N   0  0  0  0  0  4  0  0  0  0  0  0
    7.2224   -0.4852    0.0363 O   0  0  0  0  0  1  0  0  0  0  0  0
    5.0845   -1.0674   -0.6637 C   0  0  0  0  0  0  0  0  0  0  0  0
    5.0941   -2.2392    0.1052 C   0  0  0  0  0  0  0  0  0  0  0  0
    3.9419   -3.0227    0.1702 C   0  0  0  0  0  0  0  0  0  0  0  0
    2.7921   -2.6425   -0.5308 C   0  0  0  0  0  0  0  0  0  0  0  0
    2.7764   -1.4722   -1.3057 C   0  0  0  0  0  0  0  0  0  0  0  0
    1.5286   -1.0488   -2.0515 C   0  0  0  0  0  0  0  0  0  0  0  0
    0.5008   -0.4154   -1.1699 C   0  0  0  0  0  0  0  0  0  0  0  0
   -0.8422   -1.3281   -0.5228 S   0  0  0  0  0  0  0  0  0  0  0  0
   -1.5709    0.1567    0.1968 C   0  0  0  0  0  0  0  0  0  0  0  0
   -2.6909    0.1711    0.8577 N   0  0  0  0  0  0  0  0  0  0  0  0
   -3.4389   -0.9989    1.0378 C   0  0  0  0  0  0  0  0  0  0  0  0
   -4.3905   -1.3832    0.0868 C   0  0  0  0  0  0  0  0  0  0  0  0
   -5.1550   -2.5379    0.2756 C   0  0  0  0  0  0  0  0  0  0  0  0
   -4.9819   -3.3065    1.4275 C   0  0  0  0  0  0  0  0  0  0  0  0
   -4.0514   -2.9172    2.3921 C   0  0  0  0  0  0  0  0  0  0  0  0
   -3.2867   -1.7627    2.1994 C   0  0  0  0  0  0  0  0  0  0  0  0
   -0.7160    1.2362   -0.0813 N   0  0  0  0  0  0  0  0  0  0  0  0
   -0.9361    2.5305    0.4682 C   0  0  0  0  0  0  0  0  0  0  0  0
    0.1085    3.2429    1.0844 C   0  0  0  0  0  0  0  0  0  0  0  0
   -0.0971    4.5257    1.5975 C   0  0  0  0  0  0  0  0  0  0  0  0
   -1.3549    5.1185    1.5068 C   0  0  0  0  0  0  0  0  0  0  0  0
   -2.4053    4.4272    0.9129 C   0  0  0  0  0  0  0  0  0  0  0  0
   -2.1983    3.1432    0.4024 C   0  0  0  0  0  0  0  0  0  0  0  0
    0.3940    0.8883   -0.8571 C   0  0  0  0  0  0  0  0  0  0  0  0
    1.2717    1.8237   -1.3549 O   0  0  0  0  0  0  0  0  0  0  0  0
    3.9325   -0.6786   -1.3640 C   0  0  0  0  0  0  0  0  0  0  0  0
    5.9826   -2.5532    0.6538 H   0  0  0  0  0  0  0  0  0  0  0  0
    3.9368   -3.9321    0.7671 H   0  0  0  0  0  0  0  0  0  0  0  0
    1.9012   -3.2666   -0.4646 H   0  0  0  0  0  0  0  0  0  0  0  0
    1.1108   -1.9136   -2.5819 H   0  0  0  0  0  0  0  0  0  0  0  0
    1.8069   -0.3501   -2.8496 H   0  0  0  0  0  0  0  0  0  0  0  0
   -4.5333   -0.7793   -0.8053 H   0  0  0  0  0  0  0  0  0  0  0  0
   -5.8863   -2.8339   -0.4727 H   0  0  0  0  0  0  0  0  0  0  0  0
   -5.5785   -4.2042    1.5770 H   0  0  0  0  0  0  0  0  0  0  0  0
   -3.9236   -3.5085    3.2961 H   0  0  0  0  0  0  0  0  0  0  0  0
   -2.5698   -1.4541    2.9565 H   0  0  0  0  0  0  0  0  0  0  0  0
    1.0905    2.7876    1.1962 H   0  0  0  0  0  0  0  0  0  0  0  0
    0.7219    5.0565    2.0770 H   0  0  0  0  0  0  0  0  0  0  0  0
   -1.5195    6.1145    1.9089 H   0  0  0  0  0  0  0  0  0  0  0  0
   -3.3907    4.8827    0.8482 H   0  0  0  0  0  0  0  0  0  0  0  0
   -3.0390    2.6249   -0.0581 H   0  0  0  0  0  0  0  0  0  0  0  0
    0.8300    2.6879   -1.2832 H   0  0  0  0  0  0  0  0  0  0  0  0
    3.9238    0.2395   -1.9517 H   0  0  0  0  0  0  0  0  0  0  0  0
  1  2  2  0
  2  3  1  0
  2  4  1  0
  4  5  2  0
  5  6  1  0
  6  7  2  0
  7  8  1  0
  8  9  1  0
  9 10  1  0
 10 11  1  0
 11 12  1  0
 12 13  2  3
 13 14  1  0
 14 15  2  0
 15 16  1  0
 16 17  2  0
 17 18  1  0
 18 19  2  0
 12 20  1  0
 20 21  1  0
 21 22  2  0
 22 23  1  0
 23 24  2  0
 24 25  1  0
 25 26  2  0
 20 27  1  0
 27 28  1  0
  8 29  2  0
 29  4  1  0
 27 10  2  0
 19 14  1  0
 26 21  1  0
  5 30  1  0
  6 31  1  0
  7 32  1  0
  9 33  1  0
  9 34  1  0
 15 35  1  0
 16 36  1  0
 17 37  1  0
 18 38  1  0
 19 39  1  0
 22 40  1  0
 23 41  1  0
 24 42  1  0
 25 43  1  0
 26 44  1  0
 28 45  1  0
 29 46  1  0
M  CHG  2   2   1   3  -1
M  END
$$$$
