
     RDKit          3D

 87 91  0  0  0  0  0  0  0  0999 V2000
   -1.5227    2.6548   -1.6787 C   0  0  0  0  0  0  0  0  0  0  0  0
   -0.3610    2.9360   -0.7157 C   0  0  0  0  0  0  0  0  0  0  0  0
    0.4285    4.1318   -1.2654 C   0  0  0  0  0  0  0  0  0  0  0  0
    1.1908    4.8547   -0.2451 N   0  0  0  0  0  0  0  0  0  0  0  0
    0.5962    6.0719    0.3618 C   0  0  0  0  0  0  0  0  0  0  0  0
   -0.7648    5.8263    1.0097 C   0  0  0  0  0  0  0  0  0  0  0  0
    0.5199    7.2495   -0.6310 C   0  0  0  0  0  0  0  0  0  0  0  0
    1.7489    7.4838   -1.3037 O   0  0  0  0  0  0  0  0  0  0  0  0
    2.5861    4.7486   -0.1923 C   0  0  0  0  0  0  0  0  0  0  0  0
    3.2921    5.6541    0.2565 O   0  0  0  0  0  0  0  0  0  0  0  0
    3.2596    3.5233   -0.6961 C   0  0  0  0  0  0  0  0  0  0  0  0
    4.4612    3.7072   -1.3934 C   0  0  0  0  0  0  0  0  0  0  0  0
    5.2211    2.6103   -1.7869 C   0  0  0  0  0  0  0  0  0  0  0  0
    4.8099    1.3170   -1.4507 C   0  0  0  0  0  0  0  0  0  0  0  0
    3.6235    1.1113   -0.7419 C   0  0  0  0  0  0  0  0  0  0  0  0
    3.2159   -0.1581   -0.2762 N   0  0  0  0  0  0  0  0  0  0  0  0
    3.8160   -1.3895   -0.4845 C   0  0  0  0  0  0  0  0  0  0  0  0
    4.7666   -1.5897   -1.2295 O   0  0  0  0  0  0  0  0  0  0  0  0
    3.1827   -2.3610    0.2713 N   0  0  0  0  0  0  0  0  0  0  0  0
    3.4586   -3.7415    0.3378 C   0  0  0  0  0  0  0  0  0  0  0  0
    2.6904   -4.5010    1.2296 C   0  0  0  0  0  0  0  0  0  0  0  0
    2.8892   -5.8795    1.3521 C   0  0  0  0  0  0  0  0  0  0  0  0
    3.8625   -6.5288    0.5822 C   0  0  0  0  0  0  0  0  0  0  0  0
    4.0917   -8.0151    0.7181 C   0  0  0  0  0  0  0  0  0  0  0  0
    5.1797   -8.3059    1.4841 F   0  0  0  0  0  0  0  0  0  0  0  0
    4.2947   -8.6303   -0.4778 F   0  0  0  0  0  0  0  0  0  0  0  0
    3.0461   -8.6674    1.3012 F   0  0  0  0  0  0  0  0  0  0  0  0
    4.6416   -5.7644   -0.3005 C   0  0  0  0  0  0  0  0  0  0  0  0
    4.4371   -4.3837   -0.4217 C   0  0  0  0  0  0  0  0  0  0  0  0
    2.8166    2.2221   -0.4092 C   0  0  0  0  0  0  0  0  0  0  0  0
    1.6671    2.0215    0.3242 O   0  0  0  0  0  0  0  0  0  0  0  0
    0.5327    1.6829   -0.5071 C   0  0  0  0  0  0  0  0  0  0  0  0
   -0.2693    0.5787    0.2551 C   0  0  0  0  0  0  0  0  0  0  0  0
    0.3064   -0.7906    0.2286 N   0  0  0  0  0  0  0  0  0  0  0  0
    0.2291   -1.3624   -1.1249 C   0  0  0  0  0  0  0  0  0  0  0  0
   -0.3774   -1.6732    1.2080 C   0  0  0  0  0  0  0  0  0  0  0  0
   -1.8797   -1.8271    1.0794 C   0  0  0  0  0  0  0  0  0  0  0  0
   -2.4375   -2.7691    0.2061 C   0  0  0  0  0  0  0  0  0  0  0  0
   -3.8253   -2.8481    0.0370 C   0  0  0  0  0  0  0  0  0  0  0  0
   -4.6918   -1.9965    0.7420 C   0  0  0  0  0  0  0  0  0  0  0  0
   -6.1426   -2.0396    0.5139 C   0  0  0  0  0  0  0  0  0  0  0  0
   -6.6736   -1.7341   -0.7506 C   0  0  0  0  0  0  0  0  0  0  0  0
   -8.0518   -1.7503   -0.9734 C   0  0  0  0  0  0  0  0  0  0  0  0
   -8.9212   -2.0797    0.0620 C   0  0  0  0  0  0  0  0  0  0  0  0
   -8.4162   -2.3884    1.3238 C   0  0  0  0  0  0  0  0  0  0  0  0
   -7.0353   -2.3657    1.5492 C   0  0  0  0  0  0  0  0  0  0  0  0
   -4.1265   -1.0872    1.6489 C   0  0  0  0  0  0  0  0  0  0  0  0
   -2.7414   -1.0052    1.8188 C   0  0  0  0  0  0  0  0  0  0  0  0
   -1.1593    2.2671   -2.6358 H   0  0  0  0  0  0  0  0  0  0  0  0
   -2.2360    1.9335   -1.2699 H   0  0  0  0  0  0  0  0  0  0  0  0
   -2.0919    3.5700   -1.8774 H   0  0  0  0  0  0  0  0  0  0  0  0
   -0.7901    3.2126    0.2541 H   0  0  0  0  0  0  0  0  0  0  0  0
    1.0859    3.8104   -2.0815 H   0  0  0  0  0  0  0  0  0  0  0  0
   -0.2557    4.8524   -1.7270 H   0  0  0  0  0  0  0  0  0  0  0  0
    1.2685    6.3792    1.1727 H   0  0  0  0  0  0  0  0  0  0  0  0
   -1.1115    6.7228    1.5320 H   0  0  0  0  0  0  0  0  0  0  0  0
   -1.5273    5.5556    0.2724 H   0  0  0  0  0  0  0  0  0  0  0  0
   -0.6982    5.0202    1.7480 H   0  0  0  0  0  0  0  0  0  0  0  0
    0.2330    8.1669   -0.1077 H   0  0  0  0  0  0  0  0  0  0  0  0
   -0.2394    7.0685   -1.4016 H   0  0  0  0  0  0  0  0  0  0  0  0
    2.4848    7.3082   -0.6743 H   0  0  0  0  0  0  0  0  0  0  0  0
    4.8228    4.7123   -1.6020 H   0  0  0  0  0  0  0  0  0  0  0  0
    6.1563    2.7611   -2.3205 H   0  0  0  0  0  0  0  0  0  0  0  0
    5.4554    0.4930   -1.7366 H   0  0  0  0  0  0  0  0  0  0  0  0
    2.3396   -0.1602    0.2358 H   0  0  0  0  0  0  0  0  0  0  0  0
    2.4485   -2.0200    0.8719 H   0  0  0  0  0  0  0  0  0  0  0  0
    1.9317   -4.0315    1.8508 H   0  0  0  0  0  0  0  0  0  0  0  0
    2.2783   -6.4461    2.0577 H   0  0  0  0  0  0  0  0  0  0  0  0
    5.4141   -6.2410   -0.9044 H   0  0  0  0  0  0  0  0  0  0  0  0
    5.0688   -3.8379   -1.1176 H   0  0  0  0  0  0  0  0  0  0  0  0
    0.8463    1.3145   -1.4904 H   0  0  0  0  0  0  0  0  0  0  0  0
   -1.2884    0.5247   -0.1300 H   0  0  0  0  0  0  0  0  0  0  0  0
   -0.3342    0.9016    1.3024 H   0  0  0  0  0  0  0  0  0  0  0  0
    0.5650   -2.4047   -1.1256 H   0  0  0  0  0  0  0  0  0  0  0  0
   -0.7825   -1.3296   -1.5405 H   0  0  0  0  0  0  0  0  0  0  0  0
    0.8905   -0.8322   -1.8165 H   0  0  0  0  0  0  0  0  0  0  0  0
    0.0796   -2.6686    1.1685 H   0  0  0  0  0  0  0  0  0  0  0  0
   -0.1406   -1.3133    2.2184 H   0  0  0  0  0  0  0  0  0  0  0  0
   -1.8033   -3.4376   -0.3696 H   0  0  0  0  0  0  0  0  0  0  0  0
   -4.2313   -3.5812   -0.6586 H   0  0  0  0  0  0  0  0  0  0  0  0
   -6.0091   -1.4659   -1.5688 H   0  0  0  0  0  0  0  0  0  0  0  0
   -8.4436   -1.5061   -1.9606 H   0  0  0  0  0  0  0  0  0  0  0  0
   -9.9952   -2.0929   -0.1128 H   0  0  0  0  0  0  0  0  0  0  0  0
   -9.0924   -2.6496    2.1330 H   0  0  0  0  0  0  0  0  0  0  0  0
   -6.6562   -2.6186    2.5358 H   0  0  0  0  0  0  0  0  0  0  0  0
   -4.7719   -0.4153    2.2137 H   0  0  0  0  0  0  0  0  0  0  0  0
   -2.3355   -0.2746    2.5175 H   0  0  0  0  0  0  0  0  0  0  0  0
  1  2  1  0
  2  3  1  0
  3  4  1  0
  4  5  1  0
  5  6  1  0
  5  7  1  0
  7  8  1  0
  4  9  1  0
  9 10  2  0
  9 11  1  0
 11 12  2  0
 12 13  1  0
 13 14  2  0
 14 15  1  0
 15 16  1  0
 16 17  1  0
 17 18  2  0
 17 19  1  0
 19 20  1  0
 20 21  2  0
 21 22  1  0
 22 23  2  0
 23 24  1  0
 24 25  1  0
 24 26  1  0
 24 27  1  0
 23 28  1  0
 28 29  2  0
 15 30  2  0
 30 31  1  0
 31 32  1  0
 32 33  1  0
 33 34  1  0
 34 35  1  0
 34 36  1  0
 36 37  1  0
 37 38  2  0
 38 39  1  0
 39 40  2  0
 40 41  1  0
 41 42  2  0
 42 43  1  0
 43 44  2  0
 44 45  1  0
 45 46  2  0
 40 47  1  0
 47 48  2  0
 32  2  1  0
 48 37  1  0
 30 11  1  0
 46 41  1  0
 29 20  1  0
  1 49  1  0
  1 50  1  0
  1 51  1  0
  2 52  1  0
  3 53  1  0
  3 54  1  0
  5 55  1  0
  6 56  1  0
  6 57  1  0
  6 58  1  0
  7 59  1  0
  7 60  1  0
  8 61  1  0
 12 62  1  0
 13 63  1  0
 14 64  1  0
 16 65  1  0
 19 66  1  0
 21 67  1  0
 22 68  1  0
 28 69  1  0
 29 70  1  0
 32 71  1  0
 33 72  1  0
 33 73  1  0
 35 74  1  0
 35 75  1  0
 35 76  1  0
 36 77  1  0
 36 78  1  0
 38 79  1  0
 39 80  1  0
 42 81  1  0
 43 82  1  0
 44 83  1  0
 45 84  1  0
 46 85  1  0
 47 86  1  0
 48 87  1  0
M  END
$$$$
