
     RDKit          3D

 52 53  0  0  0  0  0  0  0  0999 V2000
    7.6128   -0.8232    2.0988 C   0  0  0  0  0  0  0  0  0  0  0  0
    7.6443   -0.3956    0.7417 O   0  0  0  0  0  0  0  0  0  0  0  0
    6.5272    0.2402    0.2697 C   0  0  0  0  0  0  0  0  0  0  0  0
    6.6546    0.7550   -1.0220 C   0  0  0  0  0  0  0  0  0  0  0  0
    5.5928    1.4273   -1.6220 C   0  0  0  0  0  0  0  0  0  0  0  0
    4.3929    1.5823   -0.9284 C   0  0  0  0  0  0  0  0  0  0  0  0
    4.2445    1.0619    0.3641 C   0  0  0  0  0  0  0  0  0  0  0  0
    2.9936    1.2503    0.9821 N   0  0  0  0  0  0  0  0  0  0  0  0
    2.5776    0.8153    2.2282 C   0  0  0  0  0  0  0  0  0  0  0  0
    3.2529    0.2121    3.0593 O   0  0  0  0  0  0  0  0  0  0  0  0
    1.1238    1.2005    2.5346 C   0  0  0  0  0  0  0  0  0  0  0  0
    0.1709    0.5556    1.6268 N   0  0  0  0  0  0  0  0  0  0  0  0
   -0.2343   -0.8032    1.9738 C   0  0  0  0  0  0  0  0  0  0  0  0
   -0.1335    1.1899    0.4385 C   0  0  0  0  0  0  0  0  0  0  0  0
    0.5182    2.1489    0.0217 O   0  0  0  0  0  0  0  0  0  0  0  0
   -1.2443    0.6686   -0.3869 C   0  0  0  0  0  0  0  0  0  0  0  0
   -2.4698    0.4995    0.1300 C   0  0  0  0  0  0  0  0  0  0  0  0
   -3.6068   -0.0039   -0.6556 C   0  0  0  0  0  0  0  0  0  0  0  0
   -3.9463    0.6124   -1.8711 C   0  0  0  0  0  0  0  0  0  0  0  0
   -5.0295    0.1633   -2.6297 C   0  0  0  0  0  0  0  0  0  0  0  0
   -5.2328    0.8459   -3.7977 O   0  0  0  0  0  0  0  0  0  0  0  0
   -6.3416    0.4459   -4.5938 C   0  0  0  0  0  0  0  0  0  0  0  0
   -5.7895   -0.9063   -2.1620 C   0  0  0  0  0  0  0  0  0  0  0  0
   -5.4700   -1.5228   -0.9448 C   0  0  0  0  0  0  0  0  0  0  0  0
   -4.3826   -1.0814   -0.1838 C   0  0  0  0  0  0  0  0  0  0  0  0
   -3.9974   -1.6319    1.0154 O   0  0  0  0  0  0  0  0  0  0  0  0
   -4.6931   -2.7918    1.4577 C   0  0  0  0  0  0  0  0  0  0  0  0
    5.3185    0.3926    0.9578 C   0  0  0  0  0  0  0  0  0  0  0  0
    6.8708   -1.6175    2.2470 H   0  0  0  0  0  0  0  0  0  0  0  0
    8.5966   -1.2373    2.3394 H   0  0  0  0  0  0  0  0  0  0  0  0
    7.4336    0.0185    2.7763 H   0  0  0  0  0  0  0  0  0  0  0  0
    7.5908    0.6348   -1.5619 H   0  0  0  0  0  0  0  0  0  0  0  0
    5.7021    1.8336   -2.6229 H   0  0  0  0  0  0  0  0  0  0  0  0
    3.5723    2.1073   -1.4128 H   0  0  0  0  0  0  0  0  0  0  0  0
    2.2880    1.7471    0.4342 H   0  0  0  0  0  0  0  0  0  0  0  0
    1.0343    2.2913    2.4606 H   0  0  0  0  0  0  0  0  0  0  0  0
    0.8790    0.9191    3.5654 H   0  0  0  0  0  0  0  0  0  0  0  0
   -0.6790   -1.3322    1.1282 H   0  0  0  0  0  0  0  0  0  0  0  0
   -0.9521   -0.7516    2.7989 H   0  0  0  0  0  0  0  0  0  0  0  0
    0.6462   -1.3692    2.2964 H   0  0  0  0  0  0  0  0  0  0  0  0
   -1.0179    0.5142   -1.4341 H   0  0  0  0  0  0  0  0  0  0  0  0
   -2.6714    0.6895    1.1801 H   0  0  0  0  0  0  0  0  0  0  0  0
   -3.3694    1.4619   -2.2361 H   0  0  0  0  0  0  0  0  0  0  0  0
   -7.2853    0.5876   -4.0552 H   0  0  0  0  0  0  0  0  0  0  0  0
   -6.2317   -0.5901   -4.9341 H   0  0  0  0  0  0  0  0  0  0  0  0
   -6.3624    1.0846   -5.4832 H   0  0  0  0  0  0  0  0  0  0  0  0
   -6.6399   -1.2875   -2.7173 H   0  0  0  0  0  0  0  0  0  0  0  0
   -6.0959   -2.3479   -0.6215 H   0  0  0  0  0  0  0  0  0  0  0  0
   -4.6084   -3.6082    0.7297 H   0  0  0  0  0  0  0  0  0  0  0  0
   -5.7405   -2.5612    1.6765 H   0  0  0  0  0  0  0  0  0  0  0  0
   -4.2250   -3.1276    2.3895 H   0  0  0  0  0  0  0  0  0  0  0  0
    5.2119   -0.0140    1.9544 H   0  0  0  0  0  0  0  0  0  0  0  0
  1  2  1  0
  2  3  1  0
  3  4  2  0
  4  5  1  0
  5  6  2  0
  6  7  1  0
  7  8  1  0
  8  9  1  0
  9 10  2  0
  9 11  1  0
 11 12  1  0
 12 13  1  0
 12 14  1  0
 14 15  2  0
 14 16  1  0
 16 17  2  3
 17 18  1  0
 18 19  2  0
 19 20  1  0
 20 21  1  0
 21 22  1  0
 20 23  2  0
 23 24  1  0
 24 25  2  0
 25 26  1  0
 26 27  1  0
  7 28  2  0
 28  3  1  0
 25 18  1  0
  1 29  1  0
  1 30  1  0
  1 31  1  0
  4 32  1  0
  5 33  1  0
  6 34  1  0
  8 35  1  0
 11 36  1  0
 11 37  1  0
 13 38  1  0
 13 39  1  0
 13 40  1  0
 16 41  1  0
 17 42  1  0
 19 43  1  0
 22 44  1  0
 22 45  1  0
 22 46  1  0
 23 47  1  0
 24 48  1  0
 27 49  1  0
 27 50  1  0
 27 51  1  0
 28 52  1  0
M  END
$$$$
