
     RDKit          3D

 61 63  0  0  0  0  0  0  0  0999 V2000
    6.3800   -2.0978   -3.1138 C   0  0  0  0  0  0  0  0  0  0  0  0
    6.0148   -1.4463   -1.8698 N   0  0  0  0  0  0  0  0  0  0  0  0
    5.1629   -0.3564   -1.9503 C   0  0  0  0  0  0  0  0  0  0  0  0
    4.6765    0.0634   -2.9980 O   0  0  0  0  0  0  0  0  0  0  0  0
    4.8216    0.3118   -0.6859 C   0  0  0  0  0  0  0  0  0  0  0  0
    4.0409    1.4767   -0.7122 C   0  0  0  0  0  0  0  0  0  0  0  0
    3.7061    2.1035    0.4874 C   0  0  0  0  0  0  0  0  0  0  0  0
    2.7316    3.5835    0.4491 S   0  0  0  0  0  6  0  0  0  0  0  0
    3.3008    4.4454   -0.5615 O   0  0  0  0  0  0  0  0  0  0  0  0
    2.5083    4.0341    1.8035 O   0  0  0  0  0  0  0  0  0  0  0  0
    1.2712    3.0250   -0.1690 N   0  0  0  0  0  0  0  0  0  0  0  0
    0.3059    2.4190    0.7618 C   0  0  0  0  0  0  0  0  0  0  0  0
   -0.6919    1.5855   -0.0313 C   0  0  0  0  0  0  0  0  0  0  0  0
   -1.7114    0.9402    0.8806 C   0  0  0  0  0  0  0  0  0  0  0  0
   -1.7293    1.1057    2.0941 O   0  0  0  0  0  0  0  0  0  0  0  0
   -2.6117    0.1445    0.2007 N   0  0  0  0  0  0  0  0  0  0  0  0
   -3.7545   -0.4774    0.8683 C   0  0  0  0  0  0  0  0  0  0  0  0
   -4.1037   -1.8148    0.2013 C   0  0  0  0  0  0  0  0  0  0  0  0
   -4.5647   -1.7831   -1.2556 C   0  0  0  0  0  0  0  0  0  0  0  0
   -5.8421   -1.0101   -1.5767 C   0  0  0  0  0  0  0  0  0  0  0  0
   -7.0171   -1.2901   -0.6400 C   0  0  0  0  0  0  0  0  0  0  0  0
   -7.2781   -0.1987    0.4000 C   0  0  0  0  0  0  0  0  0  0  0  0
   -6.2277   -0.0307    1.4990 C   0  0  0  0  0  0  0  0  0  0  0  0
   -4.8946    0.5439    1.0179 C   0  0  0  0  0  0  0  0  0  0  0  0
    4.1494    1.5846    1.7026 C   0  0  0  0  0  0  0  0  0  0  0  0
    4.9310    0.4234    1.7140 C   0  0  0  0  0  0  0  0  0  0  0  0
    5.2782   -0.2286    0.5169 C   0  0  0  0  0  0  0  0  0  0  0  0
    6.0637   -1.4119    0.4987 N   0  0  0  0  0  0  0  0  0  0  0  0
    6.5094   -1.9993    1.7565 C   0  0  0  0  0  0  0  0  0  0  0  0
    6.4277   -2.0469   -0.6867 C   0  0  0  0  0  0  0  0  0  0  0  0
    7.0771   -3.0953   -0.6899 O   0  0  0  0  0  0  0  0  0  0  0  0
    5.6324   -2.8675   -3.3314 H   0  0  0  0  0  0  0  0  0  0  0  0
    7.3638   -2.5712   -3.0347 H   0  0  0  0  0  0  0  0  0  0  0  0
    6.4037   -1.3819   -3.9416 H   0  0  0  0  0  0  0  0  0  0  0  0
    3.7015    1.8906   -1.6606 H   0  0  0  0  0  0  0  0  0  0  0  0
    0.9165    3.6402   -0.9015 H   0  0  0  0  0  0  0  0  0  0  0  0
   -0.2127    3.2159    1.3066 H   0  0  0  0  0  0  0  0  0  0  0  0
    0.8245    1.7827    1.4873 H   0  0  0  0  0  0  0  0  0  0  0  0
   -0.1689    0.7984   -0.5872 H   0  0  0  0  0  0  0  0  0  0  0  0
   -1.2206    2.2169   -0.7550 H   0  0  0  0  0  0  0  0  0  0  0  0
   -2.6353    0.2116   -0.8086 H   0  0  0  0  0  0  0  0  0  0  0  0
   -3.4250   -0.7276    1.8863 H   0  0  0  0  0  0  0  0  0  0  0  0
   -4.8426   -2.3496    0.8074 H   0  0  0  0  0  0  0  0  0  0  0  0
   -3.2056   -2.4475    0.2357 H   0  0  0  0  0  0  0  0  0  0  0  0
   -3.7564   -1.4056   -1.8931 H   0  0  0  0  0  0  0  0  0  0  0  0
   -4.7183   -2.8248   -1.5676 H   0  0  0  0  0  0  0  0  0  0  0  0
   -5.6372    0.0621   -1.6504 H   0  0  0  0  0  0  0  0  0  0  0  0
   -6.1410   -1.3074   -2.5911 H   0  0  0  0  0  0  0  0  0  0  0  0
   -7.9213   -1.3519   -1.2599 H   0  0  0  0  0  0  0  0  0  0  0  0
   -6.9246   -2.2689   -0.1574 H   0  0  0  0  0  0  0  0  0  0  0  0
   -8.2324   -0.4333    0.8891 H   0  0  0  0  0  0  0  0  0  0  0  0
   -7.4310    0.7611   -0.1088 H   0  0  0  0  0  0  0  0  0  0  0  0
   -6.6467    0.6820    2.2224 H   0  0  0  0  0  0  0  0  0  0  0  0
   -6.0917   -0.9644    2.0547 H   0  0  0  0  0  0  0  0  0  0  0  0
   -4.5667    1.2832    1.7627 H   0  0  0  0  0  0  0  0  0  0  0  0
   -5.0267    1.1297    0.1019 H   0  0  0  0  0  0  0  0  0  0  0  0
    3.8979    2.0734    2.6432 H   0  0  0  0  0  0  0  0  0  0  0  0
    5.2581    0.0531    2.6825 H   0  0  0  0  0  0  0  0  0  0  0  0
    5.6369   -2.2612    2.3649 H   0  0  0  0  0  0  0  0  0  0  0  0
    7.0948   -2.9103    1.6043 H   0  0  0  0  0  0  0  0  0  0  0  0
    7.1442   -1.2819    2.2881 H   0  0  0  0  0  0  0  0  0  0  0  0
  1  2  1  0
  2  3  1  0
  3  4  2  0
  3  5  1  0
  5  6  2  0
  6  7  1  0
  7  8  1  0
  8  9  2  0
  8 10  2  0
  8 11  1  0
 11 12  1  0
 12 13  1  0
 13 14  1  0
 14 15  2  0
 14 16  1  0
 16 17  1  0
 17 18  1  0
 18 19  1  0
 19 20  1  0
 20 21  1  0
 21 22  1  0
 22 23  1  0
 23 24  1  0
  7 25  2  0
 25 26  1  0
 26 27  2  0
 27 28  1  0
 28 29  1  0
 28 30  1  0
 30 31  2  0
 30  2  1  0
 27  5  1  0
 24 17  1  0
  1 32  1  0
  1 33  1  0
  1 34  1  0
  6 35  1  0
 11 36  1  0
 12 37  1  0
 12 38  1  0
 13 39  1  0
 13 40  1  0
 16 41  1  0
 17 42  1  0
 18 43  1  0
 18 44  1  0
 19 45  1  0
 19 46  1  0
 20 47  1  0
 20 48  1  0
 21 49  1  0
 21 50  1  0
 22 51  1  0
 22 52  1  0
 23 53  1  0
 23 54  1  0
 24 55  1  0
 24 56  1  0
 25 57  1  0
 26 58  1  0
 29 59  1  0
 29 60  1  0
 29 61  1  0
M  END
$$$$
