
     RDKit          3D

 63 67  0  0  0  0  0  0  0  0999 V2000
   -3.7729    6.5685    1.6716 C   0  0  0  0  0  0  0  0  0  0  0  0
   -3.1722    5.9184    0.5591 O   0  0  0  0  0  0  0  0  0  0  0  0
   -3.3453    4.5652    0.4673 C   0  0  0  0  0  0  0  0  0  0  0  0
   -4.0120    3.7588    1.3886 C   0  0  0  0  0  0  0  0  0  0  0  0
   -4.1144    2.3790    1.1713 C   0  0  0  0  0  0  0  0  0  0  0  0
   -3.5554    1.7876    0.0299 C   0  0  0  0  0  0  0  0  0  0  0  0
   -3.6519    0.3383   -0.1922 C   0  0  0  0  0  0  0  0  0  0  0  0
   -5.2090   -0.3576   -0.3480 S   0  0  0  0  0  0  0  0  0  0  0  0
   -4.5829   -1.9379   -0.5837 C   0  0  0  0  0  0  0  0  0  0  0  0
   -5.3241   -3.1193   -0.7855 C   0  0  0  0  0  0  0  0  0  0  0  0
   -4.6567   -4.3359   -0.9545 C   0  0  0  0  0  0  0  0  0  0  0  0
   -5.4825   -5.4119   -1.1391 O   0  0  0  0  0  0  0  0  0  0  0  0
   -4.8620   -6.6811   -1.3032 C   0  0  0  0  0  0  0  0  0  0  0  0
   -3.2696   -4.3703   -0.9231 C   0  0  0  0  0  0  0  0  0  0  0  0
   -2.5361   -3.1930   -0.7241 C   0  0  0  0  0  0  0  0  0  0  0  0
   -3.1888   -1.9451   -0.5533 C   0  0  0  0  0  0  0  0  0  0  0  0
   -2.6557   -0.6171   -0.3346 C   0  0  0  0  0  0  0  0  0  0  0  0
   -1.2385   -0.2753   -0.2551 C   0  0  0  0  0  0  0  0  0  0  0  0
   -0.6754    0.1548    0.9509 C   0  0  0  0  0  0  0  0  0  0  0  0
    0.6847    0.4774    1.0226 C   0  0  0  0  0  0  0  0  0  0  0  0
    1.4917    0.3667   -0.1095 C   0  0  0  0  0  0  0  0  0  0  0  0
    2.8276    0.6464   -0.1774 O   0  0  0  0  0  0  0  0  0  0  0  0
    3.4774    1.0364    1.0346 C   0  0  0  0  0  0  0  0  0  0  0  0
    4.9840    1.2331    0.7712 C   0  0  0  0  0  0  0  0  0  0  0  0
    5.7772   -0.0125    0.7938 N   0  0  0  0  0  0  0  0  0  0  0  0
    5.3407   -0.9681   -0.2494 C   0  0  0  0  0  0  0  0  0  0  0  0
    6.4448   -1.9763   -0.5975 C   0  0  0  0  0  0  0  0  0  0  0  0
    7.6051   -1.3554   -1.1680 O   0  0  0  0  0  0  0  0  0  0  0  0
    7.7901   -0.0036   -0.7300 C   0  0  0  0  0  0  0  0  0  0  0  0
    7.2275    0.2572    0.6750 C   0  0  0  0  0  0  0  0  0  0  0  0
    0.9276   -0.0647   -1.3126 C   0  0  0  0  0  0  0  0  0  0  0  0
   -0.4290   -0.3873   -1.3888 C   0  0  0  0  0  0  0  0  0  0  0  0
   -2.8869    2.6036   -0.8890 C   0  0  0  0  0  0  0  0  0  0  0  0
   -2.7829    3.9798   -0.6686 C   0  0  0  0  0  0  0  0  0  0  0  0
   -4.8602    6.4395    1.6653 H   0  0  0  0  0  0  0  0  0  0  0  0
   -3.5641    7.6389    1.5860 H   0  0  0  0  0  0  0  0  0  0  0  0
   -3.3381    6.2195    2.6140 H   0  0  0  0  0  0  0  0  0  0  0  0
   -4.4625    4.1669    2.2868 H   0  0  0  0  0  0  0  0  0  0  0  0
   -4.6326    1.7677    1.9070 H   0  0  0  0  0  0  0  0  0  0  0  0
   -6.4102   -3.0885   -0.8075 H   0  0  0  0  0  0  0  0  0  0  0  0
   -5.6533   -7.4263   -1.4298 H   0  0  0  0  0  0  0  0  0  0  0  0
   -4.2850   -6.9568   -0.4140 H   0  0  0  0  0  0  0  0  0  0  0  0
   -4.2378   -6.7020   -2.2028 H   0  0  0  0  0  0  0  0  0  0  0  0
   -2.7155   -5.2946   -1.0476 H   0  0  0  0  0  0  0  0  0  0  0  0
   -1.4496   -3.2426   -0.6963 H   0  0  0  0  0  0  0  0  0  0  0  0
   -1.2904    0.2443    1.8434 H   0  0  0  0  0  0  0  0  0  0  0  0
    1.0772    0.8128    1.9762 H   0  0  0  0  0  0  0  0  0  0  0  0
    3.3327    0.2848    1.8203 H   0  0  0  0  0  0  0  0  0  0  0  0
    3.0604    1.9948    1.3674 H   0  0  0  0  0  0  0  0  0  0  0  0
    5.3593    1.8780    1.5752 H   0  0  0  0  0  0  0  0  0  0  0  0
    5.1319    1.7622   -0.1779 H   0  0  0  0  0  0  0  0  0  0  0  0
    5.0733   -0.4339   -1.1698 H   0  0  0  0  0  0  0  0  0  0  0  0
    4.4581   -1.5120    0.1034 H   0  0  0  0  0  0  0  0  0  0  0  0
    6.7577   -2.5362    0.2904 H   0  0  0  0  0  0  0  0  0  0  0  0
    6.0723   -2.7036   -1.3255 H   0  0  0  0  0  0  0  0  0  0  0  0
    8.8659    0.2000   -0.7459 H   0  0  0  0  0  0  0  0  0  0  0  0
    7.3228    0.6619   -1.4648 H   0  0  0  0  0  0  0  0  0  0  0  0
    7.7322   -0.4181    1.3759 H   0  0  0  0  0  0  0  0  0  0  0  0
    7.4797    1.2741    0.9956 H   0  0  0  0  0  0  0  0  0  0  0  0
    1.5505   -0.1493   -2.1993 H   0  0  0  0  0  0  0  0  0  0  0  0
   -0.8466   -0.7179   -2.3365 H   0  0  0  0  0  0  0  0  0  0  0  0
   -2.4429    2.1772   -1.7852 H   0  0  0  0  0  0  0  0  0  0  0  0
   -2.2595    4.6005   -1.3914 H   0  0  0  0  0  0  0  0  0  0  0  0
  1  2  1  0
  2  3  1  0
  3  4  2  0
  4  5  1  0
  5  6  2  0
  6  7  1  0
  7  8  1  0
  8  9  1  0
  9 10  2  0
 10 11  1  0
 11 12  1  0
 12 13  1  0
 11 14  2  0
 14 15  1  0
 15 16  2  0
 16 17  1  0
 17 18  1  0
 18 19  2  0
 19 20  1  0
 20 21  2  0
 21 22  1  0
 22 23  1  0
 23 24  1  0
 24 25  1  0
 25 26  1  0
 26 27  1  0
 27 28  1  0
 28 29  1  0
 29 30  1  0
 21 31  1  0
 31 32  2  0
  6 33  1  0
 33 34  2  0
 34  3  1  0
 17  7  2  0
 32 18  1  0
 16  9  1  0
 30 25  1  0
  1 35  1  0
  1 36  1  0
  1 37  1  0
  4 38  1  0
  5 39  1  0
 10 40  1  0
 13 41  1  0
 13 42  1  0
 13 43  1  0
 14 44  1  0
 15 45  1  0
 19 46  1  0
 20 47  1  0
 23 48  1  0
 23 49  1  0
 24 50  1  0
 24 51  1  0
 26 52  1  0
 26 53  1  0
 27 54  1  0
 27 55  1  0
 29 56  1  0
 29 57  1  0
 30 58  1  0
 30 59  1  0
 31 60  1  0
 32 61  1  0
 33 62  1  0
 34 63  1  0
M  END
$$$$
