
     RDKit          3D

 57 59  0  0  0  0  0  0  0  0999 V2000
    5.3692    1.4080   -2.6954 C   0  0  0  0  0  0  0  0  0  0  0  0
    5.9778    0.1688   -2.2063 N   0  0  0  0  0  0  0  0  0  0  0  0
    7.3292    0.0337   -2.7595 C   0  0  0  0  0  0  0  0  0  0  0  0
    6.0336    0.1223   -0.7326 C   0  0  0  0  0  0  0  0  0  0  0  0
    4.6558   -0.0520   -0.0673 C   0  0  0  0  0  0  0  0  0  0  0  0
    4.8106   -0.1028    1.3880 N   0  0  0  0  0  0  0  0  0  0  0  0
    4.1145   -1.3186    2.2895 S   0  0  0  0  0  6  0  0  0  0  0  0
    4.4827   -2.5866    1.7032 O   0  0  0  0  0  0  0  0  0  0  0  0
    4.3784   -1.0066    3.6759 O   0  0  0  0  0  0  0  0  0  0  0  0
    2.3833   -1.0503    2.0068 C   0  0  0  0  0  0  0  0  0  0  0  0
    1.6649   -1.9052    1.1742 C   0  0  0  0  0  0  0  0  0  0  0  0
    0.2976   -1.6798    0.9544 C   0  0  0  0  0  0  0  0  0  0  0  0
   -0.3965   -0.6049    1.5455 C   0  0  0  0  0  0  0  0  0  0  0  0
   -1.7400   -0.3949    1.2613 N   0  0  0  0  0  0  0  0  0  0  0  0
   -2.2082    0.9504    0.8498 C   0  0  0  0  0  0  0  0  0  0  0  0
   -3.2449    0.8993   -0.2998 C   0  0  0  0  0  0  0  0  0  0  0  0
   -4.3828    0.0174    0.0165 N   0  0  0  0  0  0  0  0  0  0  0  0
   -5.6335    0.2090   -0.5452 C   0  0  0  0  0  0  0  0  0  0  0  0
   -5.8089    0.9479   -1.7299 C   0  0  0  0  0  0  0  0  0  0  0  0
   -7.0720    1.1422   -2.3018 C   0  0  0  0  0  0  0  0  0  0  0  0
   -8.1894    0.5978   -1.6905 C   0  0  0  0  0  0  0  0  0  0  0  0
   -9.3996    0.7813   -2.2337 F   0  0  0  0  0  0  0  0  0  0  0  0
   -8.0643   -0.1347   -0.5218 C   0  0  0  0  0  0  0  0  0  0  0  0
   -6.7964   -0.3250    0.0407 C   0  0  0  0  0  0  0  0  0  0  0  0
   -4.1140   -1.1004    0.9405 C   0  0  0  0  0  0  0  0  0  0  0  0
   -2.6258   -1.5186    0.8991 C   0  0  0  0  0  0  0  0  0  0  0  0
    0.3719    0.2023    2.4138 C   0  0  0  0  0  0  0  0  0  0  0  0
   -0.2452    1.2714    3.1713 N   0  0  0  0  0  4  0  0  0  0  0  0
    0.0673    2.4275    2.8499 O   0  0  0  0  0  0  0  0  0  0  0  0
   -0.9965    0.9583    4.1033 O   0  0  0  0  0  1  0  0  0  0  0  0
    1.7418    0.0017    2.6517 C   0  0  0  0  0  0  0  0  0  0  0  0
    4.3210    1.4819   -2.3897 H   0  0  0  0  0  0  0  0  0  0  0  0
    5.9000    2.2988   -2.3394 H   0  0  0  0  0  0  0  0  0  0  0  0
    5.3654    1.4271   -3.7916 H   0  0  0  0  0  0  0  0  0  0  0  0
    7.9898    0.8470   -2.4372 H   0  0  0  0  0  0  0  0  0  0  0  0
    7.7777   -0.9187   -2.4554 H   0  0  0  0  0  0  0  0  0  0  0  0
    7.2983    0.0262   -3.8550 H   0  0  0  0  0  0  0  0  0  0  0  0
    6.6490   -0.7339   -0.4232 H   0  0  0  0  0  0  0  0  0  0  0  0
    6.5310    1.0173   -0.3346 H   0  0  0  0  0  0  0  0  0  0  0  0
    3.9970    0.7908   -0.2984 H   0  0  0  0  0  0  0  0  0  0  0  0
    4.1816   -0.9622   -0.4488 H   0  0  0  0  0  0  0  0  0  0  0  0
    5.1645    0.7016    1.9010 H   0  0  0  0  0  0  0  0  0  0  0  0
    2.1539   -2.7452    0.6827 H   0  0  0  0  0  0  0  0  0  0  0  0
   -0.2112   -2.3601    0.2748 H   0  0  0  0  0  0  0  0  0  0  0  0
   -2.6695    1.4365    1.7178 H   0  0  0  0  0  0  0  0  0  0  0  0
   -1.3699    1.5737    0.5157 H   0  0  0  0  0  0  0  0  0  0  0  0
   -3.5833    1.9272   -0.4767 H   0  0  0  0  0  0  0  0  0  0  0  0
   -2.7589    0.5384   -1.2145 H   0  0  0  0  0  0  0  0  0  0  0  0
   -4.9540    1.3708   -2.2501 H   0  0  0  0  0  0  0  0  0  0  0  0
   -7.1823    1.7103   -3.2197 H   0  0  0  0  0  0  0  0  0  0  0  0
   -8.9478   -0.5498   -0.0478 H   0  0  0  0  0  0  0  0  0  0  0  0
   -6.7401   -0.8835    0.9713 H   0  0  0  0  0  0  0  0  0  0  0  0
   -4.7082   -1.9814    0.6706 H   0  0  0  0  0  0  0  0  0  0  0  0
   -4.3870   -0.7981    1.9587 H   0  0  0  0  0  0  0  0  0  0  0  0
   -2.3864   -1.8694   -0.1124 H   0  0  0  0  0  0  0  0  0  0  0  0
   -2.4788   -2.3513    1.5973 H   0  0  0  0  0  0  0  0  0  0  0  0
    2.2879    0.6472    3.3371 H   0  0  0  0  0  0  0  0  0  0  0  0
  1  2  1  0
  2  3  1  0
  2  4  1  0
  4  5  1  0
  5  6  1  0
  6  7  1  0
  7  8  2  0
  7  9  2  0
  7 10  1  0
 10 11  2  0
 11 12  1  0
 12 13  2  0
 13 14  1  0
 14 15  1  0
 15 16  1  0
 16 17  1  0
 17 18  1  0
 18 19  2  0
 19 20  1  0
 20 21  2  0
 21 22  1  0
 21 23  1  0
 23 24  2  0
 17 25  1  0
 25 26  1  0
 13 27  1  0
 27 28  1  0
 28 29  2  0
 28 30  1  0
 27 31  2  0
 31 10  1  0
 26 14  1  0
 24 18  1  0
  1 32  1  0
  1 33  1  0
  1 34  1  0
  3 35  1  0
  3 36  1  0
  3 37  1  0
  4 38  1  0
  4 39  1  0
  5 40  1  0
  5 41  1  0
  6 42  1  0
 11 43  1  0
 12 44  1  0
 15 45  1  0
 15 46  1  0
 16 47  1  0
 16 48  1  0
 19 49  1  0
 20 50  1  0
 23 51  1  0
 24 52  1  0
 25 53  1  0
 25 54  1  0
 26 55  1  0
 26 56  1  0
 31 57  1  0
M  CHG  2  28   1  30  -1
M  END
$$$$
