
     RDKit          3D

 44 46  0  0  0  0  0  0  0  0999 V2000
    6.2738   -0.0719    2.6426 C   0  0  0  0  0  0  0  0  0  0  0  0
    6.0782    0.9629    1.5506 C   0  0  0  0  0  0  0  0  0  0  0  0
    4.8143    0.7638    0.9008 O   0  0  0  0  0  0  0  0  0  0  0  0
    4.8124   -0.1199   -0.1280 C   0  0  0  0  0  0  0  0  0  0  0  0
    5.7755   -0.7510   -0.5342 O   0  0  0  0  0  0  0  0  0  0  0  0
    3.4505   -0.2358   -0.7168 C   0  0  0  0  0  0  0  0  0  0  0  0
    3.2618   -1.1236   -1.7812 C   0  0  0  0  0  0  0  0  0  0  0  0
    1.9989   -1.2664   -2.3679 C   0  0  0  0  0  0  0  0  0  0  0  0
    0.8925   -0.5466   -1.8922 C   0  0  0  0  0  0  0  0  0  0  0  0
   -0.3485   -0.6805   -2.5527 N   0  0  0  0  0  0  0  0  0  0  0  0
   -1.6485   -0.4521   -2.0364 C   0  0  0  0  0  0  0  0  0  0  0  0
   -2.6976   -0.4139   -2.9372 C   0  0  0  0  0  0  0  0  0  0  0  0
   -3.9596   -0.1806   -2.4308 C   0  0  0  0  0  0  0  0  0  0  0  0
   -5.1444   -0.1193   -3.3462 C   0  0  0  0  0  0  0  0  0  0  0  0
   -4.1819    0.0009   -1.1173 N   0  0  0  0  0  0  0  0  0  0  0  0
   -3.1099   -0.0463   -0.3039 C   0  0  0  0  0  0  0  0  0  0  0  0
   -3.3283    0.1527    1.1440 C   0  0  0  0  0  0  0  0  0  0  0  0
   -2.2720    0.0395    2.0699 C   0  0  0  0  0  0  0  0  0  0  0  0
   -2.4758    0.2273    3.4410 C   0  0  0  0  0  0  0  0  0  0  0  0
   -3.7453    0.5337    3.9208 C   0  0  0  0  0  0  0  0  0  0  0  0
   -4.8093    0.6516    3.0319 C   0  0  0  0  0  0  0  0  0  0  0  0
   -4.6013    0.4628    1.6614 C   0  0  0  0  0  0  0  0  0  0  0  0
   -1.8500   -0.2633   -0.7237 N   0  0  0  0  0  0  0  0  0  0  0  0
    1.1033    0.3651   -0.8506 C   0  0  0  0  0  0  0  0  0  0  0  0
    2.3636    0.5141   -0.2574 C   0  0  0  0  0  0  0  0  0  0  0  0
    5.4408   -0.0435    3.3528 H   0  0  0  0  0  0  0  0  0  0  0  0
    7.2065    0.1079    3.1847 H   0  0  0  0  0  0  0  0  0  0  0  0
    6.3018   -1.0834    2.2251 H   0  0  0  0  0  0  0  0  0  0  0  0
    6.9042    0.9475    0.8301 H   0  0  0  0  0  0  0  0  0  0  0  0
    6.0559    1.9645    1.9925 H   0  0  0  0  0  0  0  0  0  0  0  0
    4.0976   -1.7063   -2.1641 H   0  0  0  0  0  0  0  0  0  0  0  0
    1.8912   -1.9554   -3.2020 H   0  0  0  0  0  0  0  0  0  0  0  0
   -0.3651   -1.4897   -3.1640 H   0  0  0  0  0  0  0  0  0  0  0  0
   -2.5345   -0.5455   -3.9992 H   0  0  0  0  0  0  0  0  0  0  0  0
   -5.2715   -1.0749   -3.8645 H   0  0  0  0  0  0  0  0  0  0  0  0
   -6.0611    0.0882   -2.7847 H   0  0  0  0  0  0  0  0  0  0  0  0
   -5.0107    0.6762   -4.0860 H   0  0  0  0  0  0  0  0  0  0  0  0
   -1.2687   -0.2033    1.7219 H   0  0  0  0  0  0  0  0  0  0  0  0
   -1.6405    0.1318    4.1298 H   0  0  0  0  0  0  0  0  0  0  0  0
   -3.9055    0.6793    4.9857 H   0  0  0  0  0  0  0  0  0  0  0  0
   -5.8036    0.8898    3.4003 H   0  0  0  0  0  0  0  0  0  0  0  0
   -5.4516    0.5607    0.9879 H   0  0  0  0  0  0  0  0  0  0  0  0
    0.2867    0.9848   -0.4880 H   0  0  0  0  0  0  0  0  0  0  0  0
    2.4757    1.2272    0.5554 H   0  0  0  0  0  0  0  0  0  0  0  0
  1  2  1  0
  2  3  1  0
  3  4  1  0
  4  5  2  0
  4  6  1  0
  6  7  2  0
  7  8  1  0
  8  9  2  0
  9 10  1  0
 10 11  1  0
 11 12  2  0
 12 13  1  0
 13 14  1  0
 13 15  2  0
 15 16  1  0
 16 17  1  0
 17 18  2  0
 18 19  1  0
 19 20  2  0
 20 21  1  0
 21 22  2  0
 16 23  2  0
  9 24  1  0
 24 25  2  0
 25  6  1  0
 23 11  1  0
 22 17  1  0
  1 26  1  0
  1 27  1  0
  1 28  1  0
  2 29  1  0
  2 30  1  0
  7 31  1  0
  8 32  1  0
 10 33  1  0
 12 34  1  0
 14 35  1  0
 14 36  1  0
 14 37  1  0
 18 38  1  0
 19 39  1  0
 20 40  1  0
 21 41  1  0
 22 42  1  0
 24 43  1  0
 25 44  1  0
M  END
$$$$
