
     RDKit          3D

 31 33  0  0  0  0  0  0  0  0999 V2000
    4.5014   -0.9097    1.8613 O   0  0  0  0  0  0  0  0  0  0  0  0
    4.0565   -0.4028    0.8441 C   0  0  0  0  0  0  0  0  0  0  0  0
    4.4837   -0.8236   -0.3695 O   0  0  0  0  0  0  0  0  0  0  0  0
    3.0706    0.7440    0.7769 C   0  0  0  0  0  0  0  0  0  0  0  0
    2.4100    0.7881   -0.5350 N   0  0  0  0  0  0  0  0  0  0  0  0
    1.2718    1.9727   -0.8192 S   0  0  0  0  0  6  0  0  0  0  0  0
    1.6534    3.1341   -0.0462 O   0  0  0  0  0  0  0  0  0  0  0  0
    1.0841    2.0436   -2.2498 O   0  0  0  0  0  0  0  0  0  0  0  0
   -0.1964    1.2716   -0.1086 C   0  0  0  0  0  0  0  0  0  0  0  0
   -0.7830    1.9277    1.0092 C   0  0  0  0  0  0  0  0  0  0  0  0
   -1.9391    1.4218    1.6250 C   0  0  0  0  0  0  0  0  0  0  0  0
   -2.4771    0.2704    1.1006 C   0  0  0  0  0  0  0  0  0  0  0  0
   -1.9062   -0.3500    0.0198 C   0  0  0  0  0  0  0  0  0  0  0  0
   -2.6349   -1.4674   -0.3017 C   0  0  0  0  0  0  0  0  0  0  0  0
   -2.2725   -2.2737   -1.3590 C   0  0  0  0  0  0  0  0  0  0  0  0
   -1.1342   -1.9024   -2.0877 C   0  0  0  0  0  0  0  0  0  0  0  0
   -0.3889   -0.7469   -1.7466 C   0  0  0  0  0  0  0  0  0  0  0  0
   -0.7657    0.0830   -0.6511 C   0  0  0  0  0  0  0  0  0  0  0  0
   -3.7538   -1.5493    0.6624 C   0  0  0  0  0  0  0  0  0  0  0  0
   -4.6135   -2.4048    0.6998 O   0  0  0  0  0  0  0  0  0  0  0  0
   -3.5983   -0.4520    1.4959 N   0  0  0  0  0  0  0  0  0  0  0  0
    5.1171   -1.5432   -0.1593 H   0  0  0  0  0  0  0  0  0  0  0  0
    3.6375    1.6643    0.9445 H   0  0  0  0  0  0  0  0  0  0  0  0
    2.3228    0.6008    1.5619 H   0  0  0  0  0  0  0  0  0  0  0  0
    2.9849    0.5378   -1.3427 H   0  0  0  0  0  0  0  0  0  0  0  0
   -0.3386    2.8415    1.4029 H   0  0  0  0  0  0  0  0  0  0  0  0
   -2.3838    1.9249    2.4764 H   0  0  0  0  0  0  0  0  0  0  0  0
   -2.8507   -3.1554   -1.6142 H   0  0  0  0  0  0  0  0  0  0  0  0
   -0.8181   -2.5089   -2.9348 H   0  0  0  0  0  0  0  0  0  0  0  0
    0.4811   -0.5005   -2.3524 H   0  0  0  0  0  0  0  0  0  0  0  0
   -4.2203   -0.2356    2.2598 H   0  0  0  0  0  0  0  0  0  0  0  0
  1  2  2  0
  2  3  1  0
  2  4  1  0
  4  5  1  0
  5  6  1  0
  6  7  2  0
  6  8  2  0
  6  9  1  0
  9 10  2  0
 10 11  1  0
 11 12  2  0
 12 13  1  0
 13 14  2  0
 14 15  1  0
 15 16  2  0
 16 17  1  0
 17 18  2  0
 14 19  1  0
 19 20  2  0
 19 21  1  0
 18  9  1  0
 21 12  1  0
 18 13  1  0
  3 22  1  0
  4 23  1  0
  4 24  1  0
  5 25  1  0
 10 26  1  0
 11 27  1  0
 15 28  1  0
 16 29  1  0
 17 30  1  0
 21 31  1  0
M  END
$$$$
