
     RDKit          3D

 43 45  0  0  0  0  0  0  0  0999 V2000
    2.1836   -3.1988   -0.3150 O   0  0  0  0  0  0  0  0  0  0  0  0
    1.3087   -2.4769    0.1617 C   0  0  0  0  0  0  0  0  0  0  0  0
    0.2807   -3.0453    1.1524 C   0  0  0  0  0  0  0  0  0  0  0  0
   -0.6867   -2.0931    1.6814 N   0  0  0  0  0  0  0  0  0  0  0  0
   -1.8504   -1.7844    1.0049 C   0  0  0  0  0  0  0  0  0  0  0  0
   -2.1103   -2.2563   -0.0987 O   0  0  0  0  0  0  0  0  0  0  0  0
   -2.7923   -0.8499    1.7671 C   0  0  0  0  0  0  0  0  0  0  0  0
   -3.6398   -0.0467    0.7896 C   0  0  0  0  0  0  0  0  0  0  0  0
   -4.5958    0.7606    1.4912 O   0  0  0  0  0  0  0  0  0  0  0  0
   -4.0292    1.3962    2.5662 C   0  0  0  0  0  0  0  0  0  0  0  0
   -4.7675    2.4296    3.1403 C   0  0  0  0  0  0  0  0  0  0  0  0
   -4.2512    3.1295    4.2327 C   0  0  0  0  0  0  0  0  0  0  0  0
   -2.9979    2.7936    4.7510 C   0  0  0  0  0  0  0  0  0  0  0  0
   -2.2614    1.7525    4.1822 C   0  0  0  0  0  0  0  0  0  0  0  0
   -2.7835    1.0455    3.0992 C   0  0  0  0  0  0  0  0  0  0  0  0
   -2.0173    0.0200    2.6059 O   0  0  0  0  0  0  0  0  0  0  0  0
    1.1397   -1.1229   -0.0982 N   0  0  0  0  0  0  0  0  0  0  0  0
    1.9241   -0.3353   -0.8989 N   0  0  0  0  0  0  0  0  0  0  0  0
    2.4726   -0.8795   -1.9394 C   0  0  0  0  0  0  0  0  0  0  0  0
    3.3271   -0.1037   -2.8640 C   0  0  0  0  0  0  0  0  0  0  0  0
    3.5588    1.2606   -2.6587 C   0  0  0  0  0  0  0  0  0  0  0  0
    4.3414    1.9760   -3.5678 C   0  0  0  0  0  0  0  0  0  0  0  0
    4.8875    1.3281   -4.6768 C   0  0  0  0  0  0  0  0  0  0  0  0
    4.6551   -0.0302   -4.8687 C   0  0  0  0  0  0  0  0  0  0  0  0
    5.2090   -0.6174   -5.9691 O   0  0  0  0  0  0  0  0  0  0  0  0
    3.8788   -0.7581   -3.9709 C   0  0  0  0  0  0  0  0  0  0  0  0
   -0.2573   -3.8571    0.6503 H   0  0  0  0  0  0  0  0  0  0  0  0
    0.8274   -3.4530    2.0092 H   0  0  0  0  0  0  0  0  0  0  0  0
   -0.5223   -1.6526    2.5827 H   0  0  0  0  0  0  0  0  0  0  0  0
   -3.4257   -1.4751    2.4122 H   0  0  0  0  0  0  0  0  0  0  0  0
   -3.0209    0.6107    0.1656 H   0  0  0  0  0  0  0  0  0  0  0  0
   -4.2030   -0.7039    0.1199 H   0  0  0  0  0  0  0  0  0  0  0  0
   -5.7398    2.6955    2.7309 H   0  0  0  0  0  0  0  0  0  0  0  0
   -4.8263    3.9385    4.6774 H   0  0  0  0  0  0  0  0  0  0  0  0
   -2.5967    3.3402    5.6018 H   0  0  0  0  0  0  0  0  0  0  0  0
   -1.2904    1.4877    4.5945 H   0  0  0  0  0  0  0  0  0  0  0  0
    0.5414   -0.6033    0.5362 H   0  0  0  0  0  0  0  0  0  0  0  0
    2.3003   -1.9310   -2.2246 H   0  0  0  0  0  0  0  0  0  0  0  0
    3.1291    1.7709   -1.7998 H   0  0  0  0  0  0  0  0  0  0  0  0
    4.5206    3.0372   -3.4155 H   0  0  0  0  0  0  0  0  0  0  0  0
    5.4935    1.8811   -5.3903 H   0  0  0  0  0  0  0  0  0  0  0  0
    4.9861   -1.5631   -5.9676 H   0  0  0  0  0  0  0  0  0  0  0  0
    3.7001   -1.8168   -4.1254 H   0  0  0  0  0  0  0  0  0  0  0  0
  1  2  2  0
  2  3  1  0
  3  4  1  0
  4  5  1  0
  5  6  2  0
  5  7  1  0
  7  8  1  0
  8  9  1  0
  9 10  1  0
 10 11  2  0
 11 12  1  0
 12 13  2  0
 13 14  1  0
 14 15  2  0
 15 16  1  0
  2 17  1  0
 17 18  1  0
 18 19  2  3
 19 20  1  0
 20 21  2  0
 21 22  1  0
 22 23  2  0
 23 24  1  0
 24 25  1  0
 24 26  2  0
 16  7  1  0
 26 20  1  0
 15 10  1  0
  3 27  1  0
  3 28  1  0
  4 29  1  0
  7 30  1  0
  8 31  1  0
  8 32  1  0
 11 33  1  0
 12 34  1  0
 13 35  1  0
 14 36  1  0
 17 37  1  0
 19 38  1  0
 21 39  1  0
 22 40  1  0
 23 41  1  0
 25 42  1  0
 26 43  1  0
M  END
$$$$
