
     RDKit          3D

 41 42  0  0  0  0  0  0  0  0999 V2000
   -5.0746   -1.0390    0.5234 C   0  0  0  0  0  0  0  0  0  0  0  0
   -3.6434   -0.6431    0.2617 C   0  0  0  0  0  0  0  0  0  0  0  0
   -2.8622   -1.1634   -0.7106 C   0  0  0  0  0  0  0  0  0  0  0  0
   -3.3227   -2.1575   -1.7464 C   0  0  0  0  0  0  0  0  0  0  0  0
   -1.4092   -0.7657   -0.8673 C   0  0  0  0  0  0  0  0  0  0  0  0
   -0.8194   -0.0116    0.3329 C   0  0  0  0  0  0  0  0  0  0  0  0
    0.5199    0.5972   -0.0843 C   0  0  0  0  0  0  0  0  0  0  0  0
    0.6354    1.7942   -0.3211 O   0  0  0  0  0  0  0  0  0  0  0  0
    1.5251   -0.3521   -0.1823 N   0  0  0  0  0  0  0  0  0  0  0  0
    2.8634   -0.1516   -0.5814 C   0  0  0  0  0  0  0  0  0  0  0  0
    3.7107   -1.2694   -0.5342 C   0  0  0  0  0  0  0  0  0  0  0  0
    5.0535   -1.1732   -0.9091 C   0  0  0  0  0  0  0  0  0  0  0  0
    5.5684    0.0462   -1.3402 C   0  0  0  0  0  0  0  0  0  0  0  0
    4.7269    1.1647   -1.3940 C   0  0  0  0  0  0  0  0  0  0  0  0
    5.2693    2.4498   -1.8535 N   0  0  0  0  0  4  0  0  0  0  0  0
    6.4943    2.5242   -2.0312 O   0  0  0  0  0  0  0  0  0  0  0  0
    4.4767    3.3824   -2.0412 O   0  0  0  0  0  1  0  0  0  0  0  0
    3.3774    1.0718   -1.0176 C   0  0  0  0  0  0  0  0  0  0  0  0
   -1.8047    1.0608    0.8128 C   0  0  0  0  0  0  0  0  0  0  0  0
   -1.3039    1.8616    1.9931 C   0  0  0  0  0  0  0  0  0  0  0  0
   -1.7559    2.9330    2.3657 O   0  0  0  0  0  0  0  0  0  0  0  0
   -0.3353    1.2586    2.7079 O   0  0  0  0  0  0  0  0  0  0  0  0
   -3.1362    0.4203    1.2156 C   0  0  0  0  0  0  0  0  0  0  0  0
   -5.7508   -0.2404    0.2022 H   0  0  0  0  0  0  0  0  0  0  0  0
   -5.2271   -1.2080    1.5952 H   0  0  0  0  0  0  0  0  0  0  0  0
   -5.3705   -1.9635    0.0230 H   0  0  0  0  0  0  0  0  0  0  0  0
   -2.9869   -1.8450   -2.7416 H   0  0  0  0  0  0  0  0  0  0  0  0
   -2.8984   -3.1442   -1.5353 H   0  0  0  0  0  0  0  0  0  0  0  0
   -4.4086   -2.2550   -1.8066 H   0  0  0  0  0  0  0  0  0  0  0  0
   -0.8115   -1.6710   -1.0372 H   0  0  0  0  0  0  0  0  0  0  0  0
   -1.3144   -0.1582   -1.7777 H   0  0  0  0  0  0  0  0  0  0  0  0
   -0.6317   -0.7242    1.1488 H   0  0  0  0  0  0  0  0  0  0  0  0
    1.2873   -1.2919    0.1116 H   0  0  0  0  0  0  0  0  0  0  0  0
    3.3378   -2.2357   -0.2007 H   0  0  0  0  0  0  0  0  0  0  0  0
    5.6959   -2.0499   -0.8637 H   0  0  0  0  0  0  0  0  0  0  0  0
    6.6153    0.1097   -1.6304 H   0  0  0  0  0  0  0  0  0  0  0  0
    2.7496    1.9561   -1.0726 H   0  0  0  0  0  0  0  0  0  0  0  0
   -1.9717    1.7790   -0.0025 H   0  0  0  0  0  0  0  0  0  0  0  0
   -0.1274    1.9189    3.4040 H   0  0  0  0  0  0  0  0  0  0  0  0
   -3.8892    1.2155    1.2996 H   0  0  0  0  0  0  0  0  0  0  0  0
   -3.0513   -0.0302    2.2141 H   0  0  0  0  0  0  0  0  0  0  0  0
  1  2  1  0
  2  3  2  0
  3  4  1  0
  3  5  1  0
  5  6  1  0
  6  7  1  0
  7  8  2  0
  7  9  1  0
  9 10  1  0
 10 11  2  0
 11 12  1  0
 12 13  2  0
 13 14  1  0
 14 15  1  0
 15 16  2  0
 15 17  1  0
 14 18  2  0
  6 19  1  0
 19 20  1  0
 20 21  2  0
 20 22  1  0
 19 23  1  0
 23  2  1  0
 18 10  1  0
  1 24  1  0
  1 25  1  0
  1 26  1  0
  4 27  1  0
  4 28  1  0
  4 29  1  0
  5 30  1  0
  5 31  1  0
  6 32  1  0
  9 33  1  0
 11 34  1  0
 12 35  1  0
 13 36  1  0
 18 37  1  0
 19 38  1  0
 22 39  1  0
 23 40  1  0
 23 41  1  0
M  CHG  2  15   1  17  -1
M  END
$$$$
