
     RDKit          3D

 33 35  0  0  0  0  0  0  0  0999 V2000
   -3.5340    1.9940    1.5497 C   0  0  0  0  0  0  0  0  0  0  0  0
   -3.3222    0.6815    2.2870 C   0  0  0  0  0  0  0  0  0  0  0  0
   -3.5280   -0.4879    1.3940 C   0  0  0  0  0  0  0  0  0  0  0  0
   -4.6365   -1.1925    1.2565 N   0  0  0  0  0  0  0  0  0  0  0  0
   -4.4060   -2.1697    0.3134 N   0  0  0  0  0  0  0  0  0  0  0  0
   -3.1644   -2.0373   -0.0810 C   0  0  0  0  0  0  0  0  0  0  0  0
   -2.5453   -1.0050    0.5755 N   0  0  0  0  0  0  0  0  0  0  0  0
   -1.2780   -0.5148    0.4357 N   0  0  0  0  0  0  0  0  0  0  0  0
   -0.4185   -1.2596   -0.2043 C   0  0  0  0  0  0  0  0  0  0  0  0
    0.9560   -0.6977   -0.4068 C   0  0  0  0  0  0  0  0  0  0  0  0
    1.1100    0.6898   -0.5234 C   0  0  0  0  0  0  0  0  0  0  0  0
    2.3782    1.2521   -0.7115 C   0  0  0  0  0  0  0  0  0  0  0  0
    3.5040    0.4325   -0.7774 C   0  0  0  0  0  0  0  0  0  0  0  0
    4.7937    0.8479   -0.9565 O   0  0  0  0  0  0  0  0  0  0  0  0
    5.0073    2.2479   -1.0899 C   0  0  0  0  0  0  0  0  0  0  0  0
    3.3498   -0.9505   -0.6492 C   0  0  0  0  0  0  0  0  0  0  0  0
    2.0858   -1.5184   -0.4615 C   0  0  0  0  0  0  0  0  0  0  0  0
   -0.6615   -2.6829   -0.6957 C   0  0  0  0  0  0  0  0  0  0  0  0
   -2.3430   -2.9323   -1.2962 S   0  0  0  0  0  0  0  0  0  0  0  0
   -3.3991    2.8386    2.2328 H   0  0  0  0  0  0  0  0  0  0  0  0
   -4.5442    2.0536    1.1303 H   0  0  0  0  0  0  0  0  0  0  0  0
   -2.8217    2.1078    0.7254 H   0  0  0  0  0  0  0  0  0  0  0  0
   -2.3173    0.6591    2.7237 H   0  0  0  0  0  0  0  0  0  0  0  0
   -4.0286    0.6215    3.1232 H   0  0  0  0  0  0  0  0  0  0  0  0
    0.2437    1.3468   -0.4734 H   0  0  0  0  0  0  0  0  0  0  0  0
    2.4487    2.3314   -0.8004 H   0  0  0  0  0  0  0  0  0  0  0  0
    6.0808    2.4107   -1.2259 H   0  0  0  0  0  0  0  0  0  0  0  0
    4.7014    2.7816   -0.1841 H   0  0  0  0  0  0  0  0  0  0  0  0
    4.4957    2.6426   -1.9740 H   0  0  0  0  0  0  0  0  0  0  0  0
    4.2281   -1.5918   -0.6903 H   0  0  0  0  0  0  0  0  0  0  0  0
    2.0197   -2.5959   -0.3431 H   0  0  0  0  0  0  0  0  0  0  0  0
   -0.4715   -3.3684    0.1371 H   0  0  0  0  0  0  0  0  0  0  0  0
    0.0167   -2.9343   -1.5154 H   0  0  0  0  0  0  0  0  0  0  0  0
  1  2  1  0
  2  3  1  0
  3  4  2  0
  4  5  1  0
  5  6  2  0
  6  7  1  0
  7  8  1  0
  8  9  2  0
  9 10  1  0
 10 11  2  0
 11 12  1  0
 12 13  2  0
 13 14  1  0
 14 15  1  0
 13 16  1  0
 16 17  2  0
  9 18  1  0
 18 19  1  0
  7  3  1  0
 17 10  1  0
 19  6  1  0
  1 20  1  0
  1 21  1  0
  1 22  1  0
  2 23  1  0
  2 24  1  0
 11 25  1  0
 12 26  1  0
 15 27  1  0
 15 28  1  0
 15 29  1  0
 16 30  1  0
 17 31  1  0
 18 32  1  0
 18 33  1  0
M  END
$$$$
