
     RDKit          3D

 43 45  0  0  0  0  0  0  0  0999 V2000
    6.6928    2.0686    0.6384 C   0  0  0  0  0  0  0  0  0  0  0  0
    5.2877    1.9248    0.4823 O   0  0  0  0  0  0  0  0  0  0  0  0
    4.8199    0.6767    0.1677 C   0  0  0  0  0  0  0  0  0  0  0  0
    5.5978   -0.4674    0.0012 C   0  0  0  0  0  0  0  0  0  0  0  0
    5.0141   -1.6995   -0.3208 C   0  0  0  0  0  0  0  0  0  0  0  0
    3.6237   -1.7457   -0.4695 C   0  0  0  0  0  0  0  0  0  0  0  0
    2.8037   -2.8028   -0.7787 N   0  0  0  0  0  0  0  0  0  0  0  0
    1.4972   -2.3929   -0.8196 C   0  0  0  0  0  0  0  0  0  0  0  0
    1.4499   -1.0376   -0.5331 C   0  0  0  0  0  0  0  0  0  0  0  0
    0.2403   -0.1988   -0.4748 C   0  0  0  0  0  0  0  0  0  0  0  0
    0.3312    1.0145   -0.2889 O   0  0  0  0  0  0  0  0  0  0  0  0
   -1.1131   -0.9136   -0.6748 C   0  0  0  0  0  0  0  0  0  0  0  0
   -2.2887   -0.0433   -0.4290 N   0  0  0  0  0  0  0  0  0  0  0  0
   -3.5085   -0.6779   -0.9473 C   0  0  0  0  0  0  0  0  0  0  0  0
   -4.7266    0.2310   -0.7718 C   0  0  0  0  0  0  0  0  0  0  0  0
   -4.9174    0.6302    0.6945 C   0  0  0  0  0  0  0  0  0  0  0  0
   -6.0710    1.6173    0.8491 C   0  0  0  0  0  0  0  0  0  0  0  0
   -3.6130    1.2168    1.2429 C   0  0  0  0  0  0  0  0  0  0  0  0
   -2.4323    0.2730    1.0018 C   0  0  0  0  0  0  0  0  0  0  0  0
    2.8089   -0.6247   -0.3115 C   0  0  0  0  0  0  0  0  0  0  0  0
    3.4286    0.6023    0.0126 C   0  0  0  0  0  0  0  0  0  0  0  0
    7.2202    1.8316   -0.2915 H   0  0  0  0  0  0  0  0  0  0  0  0
    6.8971    3.1165    0.8785 H   0  0  0  0  0  0  0  0  0  0  0  0
    7.0621    1.4590    1.4697 H   0  0  0  0  0  0  0  0  0  0  0  0
    6.6767   -0.4394    0.1154 H   0  0  0  0  0  0  0  0  0  0  0  0
    5.6287   -2.5847   -0.4491 H   0  0  0  0  0  0  0  0  0  0  0  0
    3.1271   -3.7450   -0.9517 H   0  0  0  0  0  0  0  0  0  0  0  0
    0.7193   -3.1071   -1.0545 H   0  0  0  0  0  0  0  0  0  0  0  0
   -1.1229   -1.2449   -1.7211 H   0  0  0  0  0  0  0  0  0  0  0  0
   -1.1585   -1.7975   -0.0273 H   0  0  0  0  0  0  0  0  0  0  0  0
   -3.6895   -1.6397   -0.4496 H   0  0  0  0  0  0  0  0  0  0  0  0
   -3.3943   -0.8832   -2.0187 H   0  0  0  0  0  0  0  0  0  0  0  0
   -4.6029    1.1282   -1.3925 H   0  0  0  0  0  0  0  0  0  0  0  0
   -5.6215   -0.2866   -1.1376 H   0  0  0  0  0  0  0  0  0  0  0  0
   -5.1623   -0.2717    1.2712 H   0  0  0  0  0  0  0  0  0  0  0  0
   -7.0052    1.1831    0.4777 H   0  0  0  0  0  0  0  0  0  0  0  0
   -6.2181    1.8798    1.9020 H   0  0  0  0  0  0  0  0  0  0  0  0
   -5.8829    2.5419    0.2929 H   0  0  0  0  0  0  0  0  0  0  0  0
   -3.4068    2.1853    0.7683 H   0  0  0  0  0  0  0  0  0  0  0  0
   -3.7125    1.4056    2.3186 H   0  0  0  0  0  0  0  0  0  0  0  0
   -2.5717   -0.6446    1.5886 H   0  0  0  0  0  0  0  0  0  0  0  0
   -1.5326    0.7643    1.3869 H   0  0  0  0  0  0  0  0  0  0  0  0
    2.8254    1.4982    0.1422 H   0  0  0  0  0  0  0  0  0  0  0  0
  1  2  1  0
  2  3  1  0
  3  4  2  0
  4  5  1  0
  5  6  2  0
  6  7  1  0
  7  8  1  0
  8  9  2  0
  9 10  1  0
 10 11  2  0
 10 12  1  0
 12 13  1  0
 13 14  1  0
 14 15  1  0
 15 16  1  0
 16 17  1  0
 16 18  1  0
 18 19  1  0
  9 20  1  0
 20 21  2  0
 21  3  1  0
 20  6  1  0
 19 13  1  0
  1 22  1  0
  1 23  1  0
  1 24  1  0
  4 25  1  0
  5 26  1  0
  7 27  1  0
  8 28  1  0
 12 29  1  0
 12 30  1  0
 14 31  1  0
 14 32  1  0
 15 33  1  0
 15 34  1  0
 16 35  1  0
 17 36  1  0
 17 37  1  0
 17 38  1  0
 18 39  1  0
 18 40  1  0
 19 41  1  0
 19 42  1  0
 21 43  1  0
M  END
$$$$
