
     RDKit          3D

 52 56  0  0  0  0  0  0  0  0999 V2000
    4.7564   -1.1971   -2.5622 C   0  0  0  0  0  0  0  0  0  0  0  0
    5.2987   -0.0938   -1.6706 C   0  0  0  0  0  0  0  0  0  0  0  0
    5.5304   -0.5814   -0.3497 O   0  0  0  0  0  0  0  0  0  0  0  0
    4.5347   -0.4736    0.5775 C   0  0  0  0  0  0  0  0  0  0  0  0
    4.9199   -0.7792    1.8811 C   0  0  0  0  0  0  0  0  0  0  0  0
    3.9977   -0.7128    2.9303 C   0  0  0  0  0  0  0  0  0  0  0  0
    2.6784   -0.3498    2.7116 C   0  0  0  0  0  0  0  0  0  0  0  0
    1.8265   -0.3049    3.7456 N   0  0  0  0  0  0  0  0  0  0  0  0
    0.5498    0.0613    3.4986 C   0  0  0  0  0  0  0  0  0  0  0  0
   -0.4231    0.0281    4.9207 Cl  0  0  0  0  0  0  0  0  0  0  0  0
    0.0381    0.3832    2.2456 C   0  0  0  0  0  0  0  0  0  0  0  0
   -1.4238    0.7406    2.0558 C   0  0  0  0  0  0  0  0  0  0  0  0
   -2.2796   -0.5148    1.9147 C   0  0  0  0  0  0  0  0  0  0  0  0
   -2.5643   -0.4715    0.4352 C   0  0  0  0  0  0  0  0  0  0  0  0
   -3.1683   -1.6195   -0.2794 C   0  0  0  0  0  0  0  0  0  0  0  0
   -3.6099   -2.7567    0.4058 C   0  0  0  0  0  0  0  0  0  0  0  0
   -4.1739   -3.8225   -0.3005 C   0  0  0  0  0  0  0  0  0  0  0  0
   -4.2997   -3.7561   -1.6876 C   0  0  0  0  0  0  0  0  0  0  0  0
   -3.8639   -2.6242   -2.3739 C   0  0  0  0  0  0  0  0  0  0  0  0
   -3.3000   -1.5570   -1.6725 C   0  0  0  0  0  0  0  0  0  0  0  0
   -2.2735    0.6552   -0.1455 N   0  0  0  0  0  0  0  0  0  0  0  0
   -1.7124    1.4616    0.8142 N   0  0  0  0  0  0  0  0  0  0  0  0
   -1.3565    2.8028    0.6278 C   0  0  0  0  0  0  0  0  0  0  0  0
   -0.7799    3.4038    1.5401 O   0  0  0  0  0  0  0  0  0  0  0  0
   -1.6745    3.4379   -0.6504 C   0  0  0  0  0  0  0  0  0  0  0  0
   -2.6863    3.1936   -1.5633 C   0  0  0  0  0  0  0  0  0  0  0  0
   -2.6389    4.0632   -2.6926 C   0  0  0  0  0  0  0  0  0  0  0  0
   -1.5988    4.9585   -2.6073 C   0  0  0  0  0  0  0  0  0  0  0  0
   -0.6941    4.7535   -1.1734 S   0  0  0  0  0  0  0  0  0  0  0  0
    0.9431    0.3076    1.1779 C   0  0  0  0  0  0  0  0  0  0  0  0
    2.2823   -0.0500    1.3942 C   0  0  0  0  0  0  0  0  0  0  0  0
    3.2108   -0.1149    0.3357 C   0  0  0  0  0  0  0  0  0  0  0  0
    5.4332   -2.0580   -2.5602 H   0  0  0  0  0  0  0  0  0  0  0  0
    4.6427   -0.8422   -3.5905 H   0  0  0  0  0  0  0  0  0  0  0  0
    3.7859   -1.5574   -2.2085 H   0  0  0  0  0  0  0  0  0  0  0  0
    6.2742    0.2179   -2.0610 H   0  0  0  0  0  0  0  0  0  0  0  0
    4.6695    0.8031   -1.6853 H   0  0  0  0  0  0  0  0  0  0  0  0
    5.9478   -1.0675    2.0884 H   0  0  0  0  0  0  0  0  0  0  0  0
    4.3204   -0.9503    3.9412 H   0  0  0  0  0  0  0  0  0  0  0  0
   -1.7650    1.3716    2.8845 H   0  0  0  0  0  0  0  0  0  0  0  0
   -1.7817   -1.4395    2.2174 H   0  0  0  0  0  0  0  0  0  0  0  0
   -3.2285   -0.4054    2.4510 H   0  0  0  0  0  0  0  0  0  0  0  0
   -3.5333   -2.8383    1.4858 H   0  0  0  0  0  0  0  0  0  0  0  0
   -4.5175   -4.7065    0.2319 H   0  0  0  0  0  0  0  0  0  0  0  0
   -4.7392   -4.5872   -2.2343 H   0  0  0  0  0  0  0  0  0  0  0  0
   -3.9627   -2.5715   -3.4554 H   0  0  0  0  0  0  0  0  0  0  0  0
   -2.9632   -0.6805   -2.2222 H   0  0  0  0  0  0  0  0  0  0  0  0
   -3.4418    2.4294   -1.4297 H   0  0  0  0  0  0  0  0  0  0  0  0
   -3.3376    4.0358   -3.5196 H   0  0  0  0  0  0  0  0  0  0  0  0
   -1.3288    5.7313   -3.3140 H   0  0  0  0  0  0  0  0  0  0  0  0
    0.6125    0.5301    0.1647 H   0  0  0  0  0  0  0  0  0  0  0  0
    2.8677    0.1141   -0.6679 H   0  0  0  0  0  0  0  0  0  0  0  0
  1  2  1  0
  2  3  1  0
  3  4  1  0
  4  5  2  0
  5  6  1  0
  6  7  2  0
  7  8  1  0
  8  9  2  0
  9 10  1  0
  9 11  1  0
 11 12  1  0
 12 13  1  0
 13 14  1  0
 14 15  1  0
 15 16  2  0
 16 17  1  0
 17 18  2  0
 18 19  1  0
 19 20  2  0
 14 21  2  0
 21 22  1  0
 22 23  1  0
 23 24  2  0
 23 25  1  0
 25 26  2  0
 26 27  1  0
 27 28  2  0
 28 29  1  0
 11 30  2  0
 30 31  1  0
 31 32  2  0
 32  4  1  0
 31  7  1  0
 22 12  1  0
 29 25  1  0
 20 15  1  0
  1 33  1  0
  1 34  1  0
  1 35  1  0
  2 36  1  0
  2 37  1  0
  5 38  1  0
  6 39  1  0
 12 40  1  0
 13 41  1  0
 13 42  1  0
 16 43  1  0
 17 44  1  0
 18 45  1  0
 19 46  1  0
 20 47  1  0
 26 48  1  0
 27 49  1  0
 28 50  1  0
 30 51  1  0
 32 52  1  0
M  END
$$$$
