
     RDKit          3D

 68 71  0  0  0  0  0  0  0  0999 V2000
   -1.9868    3.0326   -1.5418 C   0  0  0  0  0  0  0  0  0  0  0  0
   -1.1352    2.4742   -0.4033 C   0  0  0  0  0  0  0  0  0  0  0  0
   -1.0906    3.4868    0.6119 O   0  0  0  0  0  0  0  0  0  0  0  0
   -0.1099    3.2331    1.5316 C   0  0  0  0  0  0  0  0  0  0  0  0
   -0.4900    2.7921    2.7974 C   0  0  0  0  0  0  0  0  0  0  0  0
    0.4825    2.5274    3.7593 C   0  0  0  0  0  0  0  0  0  0  0  0
    1.8293    2.7322    3.4605 C   0  0  0  0  0  0  0  0  0  0  0  0
    2.2010    3.2145    2.2049 C   0  0  0  0  0  0  0  0  0  0  0  0
    1.2306    3.4732    1.2382 C   0  0  0  0  0  0  0  0  0  0  0  0
   -1.7822    1.1461    0.0809 C   0  0  0  0  0  0  0  0  0  0  0  0
   -2.5838    1.1388    1.0206 O   0  0  0  0  0  0  0  0  0  0  0  0
   -1.4768   -0.0308   -0.6101 N   0  0  0  0  0  0  0  0  0  0  0  0
   -2.2744   -1.2348   -0.3135 C   0  0  0  0  0  0  0  0  0  0  0  0
   -1.6334   -2.0847    0.7954 C   0  0  0  0  0  0  0  0  0  0  0  0
   -2.4495   -3.2997    1.1780 C   0  0  0  0  0  0  0  0  0  0  0  0
   -3.0436   -3.3940    2.3831 C   0  0  0  0  0  0  0  0  0  0  0  0
   -3.8004   -4.6016    2.8538 C   0  0  0  0  0  0  0  0  0  0  0  0
   -3.5722   -5.8332    1.9786 C   0  0  0  0  0  0  0  0  0  0  0  0
   -3.5947   -5.4680    0.4995 C   0  0  0  0  0  0  0  0  0  0  0  0
   -2.5242   -4.4239    0.1699 C   0  0  0  0  0  0  0  0  0  0  0  0
   -0.4147   -0.1738   -1.5018 C   0  0  0  0  0  0  0  0  0  0  0  0
    0.8901   -0.1039   -1.1323 C   0  0  0  0  0  0  0  0  0  0  0  0
    1.2428    0.0559    0.2025 N   0  0  0  0  0  0  0  0  0  0  0  0
    1.8850   -0.2249   -2.1031 N   0  0  0  0  0  0  0  0  0  0  0  0
    3.3034   -0.1472   -1.7309 C   0  0  0  0  0  0  0  0  0  0  0  0
    3.7995    1.2647   -1.4845 C   0  0  0  0  0  0  0  0  0  0  0  0
    3.4762    2.3195   -2.3517 C   0  0  0  0  0  0  0  0  0  0  0  0
    3.9699    3.6047   -2.1234 C   0  0  0  0  0  0  0  0  0  0  0  0
    4.8091    3.8484   -1.0394 C   0  0  0  0  0  0  0  0  0  0  0  0
    5.1597    2.8057   -0.1846 C   0  0  0  0  0  0  0  0  0  0  0  0
    4.6575    1.5217   -0.4036 C   0  0  0  0  0  0  0  0  0  0  0  0
    1.6092   -0.4628   -3.4427 C   0  0  0  0  0  0  0  0  0  0  0  0
    2.4559   -0.5219   -4.3329 O   0  0  0  0  0  0  0  0  0  0  0  0
    0.2990   -0.6260   -3.7689 N   0  0  0  0  0  0  0  0  0  0  0  0
   -0.7520   -0.4402   -2.9312 C   0  0  0  0  0  0  0  0  0  0  0  0
   -1.9084   -0.4563   -3.3437 O   0  0  0  0  0  0  0  0  0  0  0  0
   -2.0240    2.3493   -2.3962 H   0  0  0  0  0  0  0  0  0  0  0  0
   -1.5883    3.9957   -1.8810 H   0  0  0  0  0  0  0  0  0  0  0  0
   -3.0142    3.2157   -1.2071 H   0  0  0  0  0  0  0  0  0  0  0  0
   -0.1294    2.3147   -0.7992 H   0  0  0  0  0  0  0  0  0  0  0  0
   -1.5429    2.6456    3.0294 H   0  0  0  0  0  0  0  0  0  0  0  0
    0.1864    2.1789    4.7458 H   0  0  0  0  0  0  0  0  0  0  0  0
    2.5862    2.5367    4.2150 H   0  0  0  0  0  0  0  0  0  0  0  0
    3.2476    3.4035    1.9851 H   0  0  0  0  0  0  0  0  0  0  0  0
    1.5254    3.8626    0.2673 H   0  0  0  0  0  0  0  0  0  0  0  0
   -3.2840   -0.9294   -0.0110 H   0  0  0  0  0  0  0  0  0  0  0  0
   -2.3901   -1.8239   -1.2292 H   0  0  0  0  0  0  0  0  0  0  0  0
   -1.4608   -1.4526    1.6761 H   0  0  0  0  0  0  0  0  0  0  0  0
   -0.6385   -2.4228    0.4769 H   0  0  0  0  0  0  0  0  0  0  0  0
   -2.9806   -2.5684    3.0888 H   0  0  0  0  0  0  0  0  0  0  0  0
   -3.5016   -4.8386    3.8820 H   0  0  0  0  0  0  0  0  0  0  0  0
   -4.8678   -4.3525    2.8789 H   0  0  0  0  0  0  0  0  0  0  0  0
   -2.6033   -6.2873    2.2244 H   0  0  0  0  0  0  0  0  0  0  0  0
   -4.3366   -6.5881    2.1934 H   0  0  0  0  0  0  0  0  0  0  0  0
   -3.4359   -6.3635   -0.1128 H   0  0  0  0  0  0  0  0  0  0  0  0
   -4.5850   -5.0741    0.2368 H   0  0  0  0  0  0  0  0  0  0  0  0
   -1.5421   -4.9109    0.1229 H   0  0  0  0  0  0  0  0  0  0  0  0
   -2.7329   -4.0304   -0.8304 H   0  0  0  0  0  0  0  0  0  0  0  0
    1.9550    0.7733    0.3366 H   0  0  0  0  0  0  0  0  0  0  0  0
    0.4591    0.2316    0.8281 H   0  0  0  0  0  0  0  0  0  0  0  0
    3.4562   -0.7725   -0.8430 H   0  0  0  0  0  0  0  0  0  0  0  0
    3.9329   -0.5897   -2.5117 H   0  0  0  0  0  0  0  0  0  0  0  0
    2.8494    2.1480   -3.2243 H   0  0  0  0  0  0  0  0  0  0  0  0
    3.7118    4.4128   -2.8030 H   0  0  0  0  0  0  0  0  0  0  0  0
    5.2008    4.8482   -0.8708 H   0  0  0  0  0  0  0  0  0  0  0  0
    5.8280    2.9928    0.6527 H   0  0  0  0  0  0  0  0  0  0  0  0
    4.9500    0.7191    0.2714 H   0  0  0  0  0  0  0  0  0  0  0  0
    0.0914   -0.7678   -4.7456 H   0  0  0  0  0  0  0  0  0  0  0  0
  1  2  1  0
  2  3  1  0
  3  4  1  0
  4  5  2  0
  5  6  1  0
  6  7  2  0
  7  8  1  0
  8  9  2  0
  2 10  1  0
 10 11  2  0
 10 12  1  0
 12 13  1  0
 13 14  1  0
 14 15  1  0
 15 16  2  0
 16 17  1  0
 17 18  1  0
 18 19  1  0
 19 20  1  0
 12 21  1  0
 21 22  2  0
 22 23  1  0
 22 24  1  0
 24 25  1  0
 25 26  1  0
 26 27  2  0
 27 28  1  0
 28 29  2  0
 29 30  1  0
 30 31  2  0
 24 32  1  0
 32 33  2  0
 32 34  1  0
 34 35  1  0
 35 36  2  0
  9  4  1  0
 20 15  1  0
 35 21  1  0
 31 26  1  0
  1 37  1  0
  1 38  1  0
  1 39  1  0
  2 40  1  0
  5 41  1  0
  6 42  1  0
  7 43  1  0
  8 44  1  0
  9 45  1  0
 13 46  1  0
 13 47  1  0
 14 48  1  0
 14 49  1  0
 16 50  1  0
 17 51  1  0
 17 52  1  0
 18 53  1  0
 18 54  1  0
 19 55  1  0
 19 56  1  0
 20 57  1  0
 20 58  1  0
 23 59  1  0
 23 60  1  0
 25 61  1  0
 25 62  1  0
 27 63  1  0
 28 64  1  0
 29 65  1  0
 30 66  1  0
 31 67  1  0
 34 68  1  0
M  END
$$$$
