
     RDKit          3D

 46 47  0  0  0  0  0  0  0  0999 V2000
   -2.5452    4.8464    0.6024 C   0  0  0  0  0  0  0  0  0  0  0  0
   -1.2054    4.0870    1.5529 S   0  0  0  0  0  0  0  0  0  0  0  0
   -1.1090    2.5055    0.6505 C   0  0  0  0  0  0  0  0  0  0  0  0
   -0.0774    1.5932    1.3105 C   0  0  0  0  0  0  0  0  0  0  0  0
    0.1811    0.3194    0.4924 C   0  0  0  0  0  0  0  0  0  0  0  0
   -0.9754   -0.5745    0.5143 N   0  0  0  0  0  0  0  0  0  0  0  0
   -1.9347   -0.5716   -0.4681 C   0  0  0  0  0  0  0  0  0  0  0  0
   -1.9558    0.2225   -1.3987 O   0  0  0  0  0  0  0  0  0  0  0  0
   -2.9618   -1.6262   -0.3416 C   0  0  0  0  0  0  0  0  0  0  0  0
   -2.5394   -2.9634   -0.2735 C   0  0  0  0  0  0  0  0  0  0  0  0
   -3.4804   -3.9886   -0.1729 C   0  0  0  0  0  0  0  0  0  0  0  0
   -4.8404   -3.6841   -0.1421 C   0  0  0  0  0  0  0  0  0  0  0  0
   -5.2624   -2.3540   -0.2097 C   0  0  0  0  0  0  0  0  0  0  0  0
   -4.3261   -1.3193   -0.3105 C   0  0  0  0  0  0  0  0  0  0  0  0
   -4.9235    0.3013   -0.3306 Cl  0  0  0  0  0  0  0  0  0  0  0  0
    1.3620   -0.4687    1.1098 C   0  0  0  0  0  0  0  0  0  0  0  0
    1.1259   -1.4738    1.7945 O   0  0  0  0  0  0  0  0  0  0  0  0
    2.6580    0.0084    0.9409 N   0  0  0  0  0  0  0  0  0  0  0  0
    3.7322   -0.7221    1.5993 C   0  0  0  0  0  0  0  0  0  0  0  0
    3.0546    0.9793   -0.0829 C   0  0  0  0  0  0  0  0  0  0  0  0
    3.6379    0.2851   -1.2796 C   0  0  0  0  0  0  0  0  0  0  0  0
    4.9722    0.1340   -1.6101 C   0  0  0  0  0  0  0  0  0  0  0  0
    5.1542   -0.5786   -2.8303 C   0  0  0  0  0  0  0  0  0  0  0  0
    3.9542   -0.9434   -3.3967 C   0  0  0  0  0  0  0  0  0  0  0  0
    2.6204   -0.4263   -2.4626 S   0  0  0  0  0  0  0  0  0  0  0  0
   -3.4546    4.2446    0.6784 H   0  0  0  0  0  0  0  0  0  0  0  0
   -2.7523    5.8416    1.0044 H   0  0  0  0  0  0  0  0  0  0  0  0
   -2.2569    4.9481   -0.4470 H   0  0  0  0  0  0  0  0  0  0  0  0
   -2.0989    2.0414    0.6680 H   0  0  0  0  0  0  0  0  0  0  0  0
   -0.8284    2.7141   -0.3867 H   0  0  0  0  0  0  0  0  0  0  0  0
    0.8648    2.1395    1.4409 H   0  0  0  0  0  0  0  0  0  0  0  0
   -0.4161    1.3189    2.3190 H   0  0  0  0  0  0  0  0  0  0  0  0
    0.3975    0.5548   -0.5521 H   0  0  0  0  0  0  0  0  0  0  0  0
   -0.9702   -1.2907    1.2365 H   0  0  0  0  0  0  0  0  0  0  0  0
   -1.4804   -3.2105   -0.3159 H   0  0  0  0  0  0  0  0  0  0  0  0
   -3.1530   -5.0249   -0.1249 H   0  0  0  0  0  0  0  0  0  0  0  0
   -5.5749   -4.4827   -0.0652 H   0  0  0  0  0  0  0  0  0  0  0  0
   -6.3262   -2.1295   -0.1785 H   0  0  0  0  0  0  0  0  0  0  0  0
    3.3857   -1.1725    2.5342 H   0  0  0  0  0  0  0  0  0  0  0  0
    4.5538   -0.0381    1.8308 H   0  0  0  0  0  0  0  0  0  0  0  0
    4.0837   -1.5189    0.9374 H   0  0  0  0  0  0  0  0  0  0  0  0
    3.7981    1.6484    0.3670 H   0  0  0  0  0  0  0  0  0  0  0  0
    2.2183    1.6126   -0.3865 H   0  0  0  0  0  0  0  0  0  0  0  0
    5.7846    0.5149   -1.0026 H   0  0  0  0  0  0  0  0  0  0  0  0
    6.1158   -0.8109   -3.2714 H   0  0  0  0  0  0  0  0  0  0  0  0
    3.7937   -1.4876   -4.3174 H   0  0  0  0  0  0  0  0  0  0  0  0
  1  2  1  0
  2  3  1  0
  3  4  1  0
  4  5  1  0
  5  6  1  0
  6  7  1  0
  7  8  2  0
  7  9  1  0
  9 10  2  0
 10 11  1  0
 11 12  2  0
 12 13  1  0
 13 14  2  0
 14 15  1  0
  5 16  1  0
 16 17  2  0
 16 18  1  0
 18 19  1  0
 18 20  1  0
 20 21  1  0
 21 22  2  0
 22 23  1  0
 23 24  2  0
 24 25  1  0
 14  9  1  0
 25 21  1  0
  1 26  1  0
  1 27  1  0
  1 28  1  0
  3 29  1  0
  3 30  1  0
  4 31  1  0
  4 32  1  0
  5 33  1  0
  6 34  1  0
 10 35  1  0
 11 36  1  0
 12 37  1  0
 13 38  1  0
 19 39  1  0
 19 40  1  0
 19 41  1  0
 20 42  1  0
 20 43  1  0
 22 44  1  0
 23 45  1  0
 24 46  1  0
M  END
$$$$
