
     RDKit          3D

 63 67  0  0  0  0  0  0  0  0999 V2000
   -3.4731   -5.5265   -1.2487 C   0  0  0  0  0  0  0  0  0  0  0  0
   -3.4966   -4.1073   -1.1690 O   0  0  0  0  0  0  0  0  0  0  0  0
   -3.6729   -3.5607    0.0729 C   0  0  0  0  0  0  0  0  0  0  0  0
   -3.8694   -4.2679    1.2593 C   0  0  0  0  0  0  0  0  0  0  0  0
   -4.0377   -3.5823    2.4650 C   0  0  0  0  0  0  0  0  0  0  0  0
   -4.0112   -2.1875    2.4897 C   0  0  0  0  0  0  0  0  0  0  0  0
   -3.8173   -1.4639    1.3071 C   0  0  0  0  0  0  0  0  0  0  0  0
   -3.7729    0.0029    1.3232 C   0  0  0  0  0  0  0  0  0  0  0  0
   -5.1995    0.8553    1.7314 S   0  0  0  0  0  0  0  0  0  0  0  0
   -4.4544    2.3873    1.5198 C   0  0  0  0  0  0  0  0  0  0  0  0
   -5.0542    3.6497    1.6917 C   0  0  0  0  0  0  0  0  0  0  0  0
   -4.2923    4.8046    1.4804 C   0  0  0  0  0  0  0  0  0  0  0  0
   -2.9584    4.7135    1.1078 C   0  0  0  0  0  0  0  0  0  0  0  0
   -2.1140    5.7646    0.8751 O   0  0  0  0  0  0  0  0  0  0  0  0
   -2.6477    7.0713    1.0479 C   0  0  0  0  0  0  0  0  0  0  0  0
   -2.3748    3.4520    0.9401 C   0  0  0  0  0  0  0  0  0  0  0  0
   -3.1185    2.2589    1.1399 C   0  0  0  0  0  0  0  0  0  0  0  0
   -2.7321    0.8692    1.0251 C   0  0  0  0  0  0  0  0  0  0  0  0
   -1.4102    0.3823    0.6444 C   0  0  0  0  0  0  0  0  0  0  0  0
   -0.9512    0.5577   -0.6654 C   0  0  0  0  0  0  0  0  0  0  0  0
    0.3175    0.0996   -1.0387 C   0  0  0  0  0  0  0  0  0  0  0  0
    1.1378   -0.5320   -0.1034 C   0  0  0  0  0  0  0  0  0  0  0  0
    2.3913   -1.0258   -0.3347 O   0  0  0  0  0  0  0  0  0  0  0  0
    2.9573   -0.7922   -1.6247 C   0  0  0  0  0  0  0  0  0  0  0  0
    4.3833   -1.3782   -1.6784 C   0  0  0  0  0  0  0  0  0  0  0  0
    5.3505   -0.7679   -0.7439 N   0  0  0  0  0  0  0  0  0  0  0  0
    6.6137   -1.5378   -0.6931 C   0  0  0  0  0  0  0  0  0  0  0  0
    7.5143   -1.3403   -1.9248 C   0  0  0  0  0  0  0  0  0  0  0  0
    7.8042    0.0453   -2.1469 O   0  0  0  0  0  0  0  0  0  0  0  0
    6.5964    0.8038   -2.2850 C   0  0  0  0  0  0  0  0  0  0  0  0
    5.6830    0.6373   -1.0582 C   0  0  0  0  0  0  0  0  0  0  0  0
    0.6768   -0.7050    1.2042 C   0  0  0  0  0  0  0  0  0  0  0  0
   -0.5887   -0.2496    1.5814 C   0  0  0  0  0  0  0  0  0  0  0  0
   -3.6485   -2.1629    0.1041 C   0  0  0  0  0  0  0  0  0  0  0  0
   -3.3046   -5.7997   -2.2948 H   0  0  0  0  0  0  0  0  0  0  0  0
   -2.6492   -5.9425   -0.6595 H   0  0  0  0  0  0  0  0  0  0  0  0
   -4.4336   -5.9544   -0.9435 H   0  0  0  0  0  0  0  0  0  0  0  0
   -3.8969   -5.3520    1.2818 H   0  0  0  0  0  0  0  0  0  0  0  0
   -4.1882   -4.1368    3.3877 H   0  0  0  0  0  0  0  0  0  0  0  0
   -4.1362   -1.6692    3.4375 H   0  0  0  0  0  0  0  0  0  0  0  0
   -6.0972    3.7285    1.9860 H   0  0  0  0  0  0  0  0  0  0  0  0
   -4.7824    5.7626    1.6201 H   0  0  0  0  0  0  0  0  0  0  0  0
   -2.9722    7.2321    2.0813 H   0  0  0  0  0  0  0  0  0  0  0  0
   -3.4636    7.2604    0.3424 H   0  0  0  0  0  0  0  0  0  0  0  0
   -1.8500    7.7893    0.8342 H   0  0  0  0  0  0  0  0  0  0  0  0
   -1.3270    3.3888    0.6541 H   0  0  0  0  0  0  0  0  0  0  0  0
   -1.5806    1.0463   -1.4058 H   0  0  0  0  0  0  0  0  0  0  0  0
    0.6290    0.2490   -2.0664 H   0  0  0  0  0  0  0  0  0  0  0  0
    2.9710    0.2781   -1.8561 H   0  0  0  0  0  0  0  0  0  0  0  0
    2.3545   -1.3104   -2.3809 H   0  0  0  0  0  0  0  0  0  0  0  0
    4.2928   -2.4418   -1.4216 H   0  0  0  0  0  0  0  0  0  0  0  0
    4.7430   -1.3267   -2.7121 H   0  0  0  0  0  0  0  0  0  0  0  0
    7.1646   -1.2025    0.1954 H   0  0  0  0  0  0  0  0  0  0  0  0
    6.4120   -2.6044   -0.5394 H   0  0  0  0  0  0  0  0  0  0  0  0
    7.0612   -1.7618   -2.8291 H   0  0  0  0  0  0  0  0  0  0  0  0
    8.4686   -1.8532   -1.7675 H   0  0  0  0  0  0  0  0  0  0  0  0
    6.8814    1.8556   -2.3897 H   0  0  0  0  0  0  0  0  0  0  0  0
    6.0897    0.5086   -3.2105 H   0  0  0  0  0  0  0  0  0  0  0  0
    4.7826    1.2484   -1.1722 H   0  0  0  0  0  0  0  0  0  0  0  0
    6.2075    1.0472   -0.1848 H   0  0  0  0  0  0  0  0  0  0  0  0
    1.3123   -1.1969    1.9367 H   0  0  0  0  0  0  0  0  0  0  0  0
   -0.9233   -0.3916    2.6057 H   0  0  0  0  0  0  0  0  0  0  0  0
   -3.4958   -1.6181   -0.8247 H   0  0  0  0  0  0  0  0  0  0  0  0
  1  2  1  0
  2  3  1  0
  3  4  2  0
  4  5  1  0
  5  6  2  0
  6  7  1  0
  7  8  1  0
  8  9  1  0
  9 10  1  0
 10 11  2  0
 11 12  1  0
 12 13  2  0
 13 14  1  0
 14 15  1  0
 13 16  1  0
 16 17  2  0
 17 18  1  0
 18 19  1  0
 19 20  2  0
 20 21  1  0
 21 22  2  0
 22 23  1  0
 23 24  1  0
 24 25  1  0
 25 26  1  0
 26 27  1  0
 27 28  1  0
 28 29  1  0
 29 30  1  0
 30 31  1  0
 22 32  1  0
 32 33  2  0
  7 34  2  0
 34  3  1  0
 18  8  2  0
 33 19  1  0
 17 10  1  0
 31 26  1  0
  1 35  1  0
  1 36  1  0
  1 37  1  0
  4 38  1  0
  5 39  1  0
  6 40  1  0
 11 41  1  0
 12 42  1  0
 15 43  1  0
 15 44  1  0
 15 45  1  0
 16 46  1  0
 20 47  1  0
 21 48  1  0
 24 49  1  0
 24 50  1  0
 25 51  1  0
 25 52  1  0
 27 53  1  0
 27 54  1  0
 28 55  1  0
 28 56  1  0
 30 57  1  0
 30 58  1  0
 31 59  1  0
 31 60  1  0
 32 61  1  0
 33 62  1  0
 34 63  1  0
M  END
$$$$
