
     RDKit          3D

 55 58  0  0  0  0  0  0  0  0999 V2000
   -4.1956   -0.8536   -1.9522 C   0  0  0  0  0  0  0  0  0  0  0  0
   -3.5911    0.5053   -1.6024 C   0  0  0  0  0  0  0  0  0  0  0  0
   -4.3588    1.6607   -2.2491 C   0  0  0  0  0  0  0  0  0  0  0  0
   -3.4221    0.6717   -0.1618 N   0  0  0  0  0  0  0  0  0  0  0  0
   -2.2115    0.7765    0.4984 C   0  0  0  0  0  0  0  0  0  0  0  0
   -1.0155    0.6712   -0.1510 N   0  0  0  0  0  0  0  0  0  0  0  0
   -0.5790   -0.7350   -0.3644 C   0  0  0  0  0  0  0  0  0  0  0  0
    0.9414   -0.8290   -0.6288 C   0  0  0  0  0  0  0  0  0  0  0  0
    1.8031   -0.2922    0.4574 N   0  0  0  0  0  0  0  0  0  0  0  0
    2.2875   -1.3761    1.3495 C   0  0  0  0  0  0  0  0  0  0  0  0
    3.3742   -2.1988    0.6454 C   0  0  0  0  0  0  0  0  0  0  0  0
    3.4185   -3.4272    0.6971 O   0  0  0  0  0  0  0  0  0  0  0  0
    4.3032   -1.4166   -0.0078 N   0  0  0  0  0  0  0  0  0  0  0  0
    5.3408   -1.9869   -0.8272 C   0  0  0  0  0  0  0  0  0  0  0  0
    6.5215   -1.0751   -0.7856 C   0  0  0  0  0  0  0  0  0  0  0  0
    6.7953    0.0196   -1.5795 C   0  0  0  0  0  0  0  0  0  0  0  0
    8.0200    0.6571   -1.2196 C   0  0  0  0  0  0  0  0  0  0  0  0
    8.6417    0.0246   -0.1678 C   0  0  0  0  0  0  0  0  0  0  0  0
    7.7597   -1.3392    0.3721 S   0  0  0  0  0  0  0  0  0  0  0  0
    1.0567    0.7135    1.2594 C   0  0  0  0  0  0  0  0  0  0  0  0
    0.0590    1.5319    0.4127 C   0  0  0  0  0  0  0  0  0  0  0  0
   -2.3867    0.9952    1.7814 N   0  0  0  0  0  0  0  0  0  0  0  0
   -3.7404    0.9818    1.9793 C   0  0  0  0  0  0  0  0  0  0  0  0
   -4.4592    1.1356    3.1742 C   0  0  0  0  0  0  0  0  0  0  0  0
   -5.8566    1.0820    3.1369 C   0  0  0  0  0  0  0  0  0  0  0  0
   -6.5261    0.8803    1.9311 C   0  0  0  0  0  0  0  0  0  0  0  0
   -5.8254    0.7218    0.7304 C   0  0  0  0  0  0  0  0  0  0  0  0
   -4.4246    0.7774    0.7835 C   0  0  0  0  0  0  0  0  0  0  0  0
   -4.1800   -1.0158   -3.0364 H   0  0  0  0  0  0  0  0  0  0  0  0
   -3.6270   -1.6634   -1.4833 H   0  0  0  0  0  0  0  0  0  0  0  0
   -5.2345   -0.9418   -1.6195 H   0  0  0  0  0  0  0  0  0  0  0  0
   -2.5902    0.5289   -2.0469 H   0  0  0  0  0  0  0  0  0  0  0  0
   -4.3376    1.5675   -3.3373 H   0  0  0  0  0  0  0  0  0  0  0  0
   -3.9096    2.6234   -1.9877 H   0  0  0  0  0  0  0  0  0  0  0  0
   -5.4067    1.6903   -1.9453 H   0  0  0  0  0  0  0  0  0  0  0  0
   -1.1101   -1.1515   -1.2278 H   0  0  0  0  0  0  0  0  0  0  0  0
   -0.8285   -1.3554    0.5076 H   0  0  0  0  0  0  0  0  0  0  0  0
    1.2019   -1.8655   -0.8748 H   0  0  0  0  0  0  0  0  0  0  0  0
    1.1680   -0.2475   -1.5321 H   0  0  0  0  0  0  0  0  0  0  0  0
    1.4721   -2.0393    1.6602 H   0  0  0  0  0  0  0  0  0  0  0  0
    2.7538   -0.9559    2.2502 H   0  0  0  0  0  0  0  0  0  0  0  0
    4.0215   -0.4523   -0.1623 H   0  0  0  0  0  0  0  0  0  0  0  0
    5.5887   -3.0004   -0.4941 H   0  0  0  0  0  0  0  0  0  0  0  0
    4.9506   -2.0610   -1.8456 H   0  0  0  0  0  0  0  0  0  0  0  0
    6.1431    0.3580   -2.3767 H   0  0  0  0  0  0  0  0  0  0  0  0
    8.4237    1.5410   -1.7021 H   0  0  0  0  0  0  0  0  0  0  0  0
    9.5742    0.2909    0.3097 H   0  0  0  0  0  0  0  0  0  0  0  0
    0.5042    0.2270    2.0757 H   0  0  0  0  0  0  0  0  0  0  0  0
    1.7835    1.3952    1.7176 H   0  0  0  0  0  0  0  0  0  0  0  0
   -0.3474    2.3589    1.0102 H   0  0  0  0  0  0  0  0  0  0  0  0
    0.5884    2.0041   -0.4252 H   0  0  0  0  0  0  0  0  0  0  0  0
   -3.9296    1.2890    4.1064 H   0  0  0  0  0  0  0  0  0  0  0  0
   -6.4230    1.1978    4.0566 H   0  0  0  0  0  0  0  0  0  0  0  0
   -7.6142    0.8426    1.9213 H   0  0  0  0  0  0  0  0  0  0  0  0
   -6.3654    0.5586   -0.1952 H   0  0  0  0  0  0  0  0  0  0  0  0
  1  2  1  0
  2  3  1  0
  2  4  1  0
  4  5  1  0
  5  6  1  0
  6  7  1  0
  7  8  1  0
  8  9  1  0
  9 10  1  0
 10 11  1  0
 11 12  2  0
 11 13  1  0
 13 14  1  0
 14 15  1  0
 15 16  2  0
 16 17  1  0
 17 18  2  0
 18 19  1  0
  9 20  1  0
 20 21  1  0
  5 22  2  0
 22 23  1  0
 23 24  2  0
 24 25  1  0
 25 26  2  0
 26 27  1  0
 27 28  2  0
 28  4  1  0
 21  6  1  0
 28 23  1  0
 19 15  1  0
  1 29  1  0
  1 30  1  0
  1 31  1  0
  2 32  1  0
  3 33  1  0
  3 34  1  0
  3 35  1  0
  7 36  1  0
  7 37  1  0
  8 38  1  0
  8 39  1  0
 10 40  1  0
 10 41  1  0
 13 42  1  0
 14 43  1  0
 14 44  1  0
 16 45  1  0
 17 46  1  0
 18 47  1  0
 20 48  1  0
 20 49  1  0
 21 50  1  0
 21 51  1  0
 24 52  1  0
 25 53  1  0
 26 54  1  0
 27 55  1  0
M  END
$$$$
