
     RDKit          3D

 37 37  0  0  0  0  0  0  0  0999 V2000
   -4.0434    1.0244    2.3711 C   0  0  0  0  0  0  0  0  0  0  0  0
   -3.7854   -0.2656    1.6055 C   0  0  0  0  0  0  0  0  0  0  0  0
   -2.9776   -0.0144    0.4039 N   0  0  0  0  0  0  0  0  0  0  0  0
   -3.7367    0.2551   -0.8258 C   0  0  0  0  0  0  0  0  0  0  0  0
   -3.9849   -1.0276   -1.6067 C   0  0  0  0  0  0  0  0  0  0  0  0
   -1.5873   -0.0206    0.4286 C   0  0  0  0  0  0  0  0  0  0  0  0
   -0.8574   -0.1400    1.6265 C   0  0  0  0  0  0  0  0  0  0  0  0
    0.5456   -0.1472    1.6621 C   0  0  0  0  0  0  0  0  0  0  0  0
    1.2670   -0.0347    0.4795 C   0  0  0  0  0  0  0  0  0  0  0  0
    2.7415   -0.0475    0.5329 C   0  0  0  0  0  0  0  0  0  0  0  0
    3.4661    0.0511   -0.5319 N   0  0  0  0  0  0  0  0  0  0  0  0
    4.9314    0.0175   -0.2829 C   0  0  0  0  0  0  0  0  0  0  0  0
    5.3861    1.3493    0.1503 C   0  0  0  0  0  0  0  0  0  0  0  0
    5.7491    2.3862    0.5253 N   0  0  0  0  0  0  0  0  0  0  0  0
    5.5935   -0.3448   -1.5868 C   0  0  0  0  0  0  0  0  0  0  0  0
    5.0004   -0.4610   -2.7364 N   0  0  0  0  0  0  0  0  0  0  0  0
    7.0087   -0.6281   -1.6019 C   0  0  0  0  0  0  0  0  0  0  0  0
    8.1450   -0.8634   -1.5421 N   0  0  0  0  0  0  0  0  0  0  0  0
    0.5887    0.0860   -0.7273 C   0  0  0  0  0  0  0  0  0  0  0  0
   -0.8142    0.0920   -0.7423 C   0  0  0  0  0  0  0  0  0  0  0  0
   -4.6625    0.8238    3.2510 H   0  0  0  0  0  0  0  0  0  0  0  0
   -3.1125    1.4887    2.7102 H   0  0  0  0  0  0  0  0  0  0  0  0
   -4.5689    1.7542    1.7463 H   0  0  0  0  0  0  0  0  0  0  0  0
   -4.7532   -0.6950    1.3160 H   0  0  0  0  0  0  0  0  0  0  0  0
   -3.3282   -1.0219    2.2532 H   0  0  0  0  0  0  0  0  0  0  0  0
   -3.2452    1.0079   -1.4522 H   0  0  0  0  0  0  0  0  0  0  0  0
   -4.7084    0.6969   -0.5701 H   0  0  0  0  0  0  0  0  0  0  0  0
   -4.5436   -1.7522   -1.0051 H   0  0  0  0  0  0  0  0  0  0  0  0
   -3.0490   -1.5041   -1.9136 H   0  0  0  0  0  0  0  0  0  0  0  0
   -4.5682   -0.8141   -2.5079 H   0  0  0  0  0  0  0  0  0  0  0  0
   -1.3660   -0.2195    2.5826 H   0  0  0  0  0  0  0  0  0  0  0  0
    1.0463   -0.2375    2.6221 H   0  0  0  0  0  0  0  0  0  0  0  0
    3.1927   -0.1462    1.5382 H   0  0  0  0  0  0  0  0  0  0  0  0
    5.1877   -0.7507    0.4572 H   0  0  0  0  0  0  0  0  0  0  0  0
    3.9980   -0.2519   -2.5799 H   0  0  0  0  0  0  0  0  0  0  0  0
    1.1295    0.1762   -1.6656 H   0  0  0  0  0  0  0  0  0  0  0  0
   -1.2849    0.1788   -1.7170 H   0  0  0  0  0  0  0  0  0  0  0  0
  1  2  1  0
  2  3  1  0
  3  4  1  0
  4  5  1  0
  3  6  1  0
  6  7  2  0
  7  8  1  0
  8  9  2  0
  9 10  1  0
 10 11  2  3
 11 12  1  0
 12 13  1  0
 13 14  3  0
 12 15  1  0
 15 16  2  3
 15 17  1  0
 17 18  3  0
  9 19  1  0
 19 20  2  0
 20  6  1  0
  1 21  1  0
  1 22  1  0
  1 23  1  0
  2 24  1  0
  2 25  1  0
  4 26  1  0
  4 27  1  0
  5 28  1  0
  5 29  1  0
  5 30  1  0
  7 31  1  0
  8 32  1  0
 10 33  1  0
 12 34  1  0
 16 35  1  0
 19 36  1  0
 20 37  1  0
M  END
$$$$
