
     RDKit          3D

 44 46  0  0  0  0  0  0  0  0999 V2000
    3.1583   -2.3756    2.2628 C   0  0  0  0  0  0  0  0  0  0  0  0
    2.2660   -1.4975    1.4526 C   0  0  0  0  0  0  0  0  0  0  0  0
    0.9013   -1.3607    1.5852 C   0  0  0  0  0  0  0  0  0  0  0  0
    0.4137   -0.5208    0.5480 C   0  0  0  0  0  0  0  0  0  0  0  0
   -1.0140   -0.2082    0.3588 C   0  0  0  0  0  0  0  0  0  0  0  0
   -1.8305   -0.5305    1.2266 O   0  0  0  0  0  0  0  0  0  0  0  0
   -1.4826    0.4438   -0.9428 C   0  0  0  0  0  0  0  0  0  0  0  0
   -2.9073    0.4858   -1.0581 O   0  0  0  0  0  0  0  0  0  0  0  0
   -3.5018    1.4762   -0.3503 C   0  0  0  0  0  0  0  0  0  0  0  0
   -2.9132    2.3353    0.2936 O   0  0  0  0  0  0  0  0  0  0  0  0
   -4.9694    1.3563   -0.4088 C   0  0  0  0  0  0  0  0  0  0  0  0
   -5.6730    1.7423    0.6735 C   0  0  0  0  0  0  0  0  0  0  0  0
   -7.1132    1.6299    0.7142 C   0  0  0  0  0  0  0  0  0  0  0  0
   -7.7691    1.1299   -0.3386 C   0  0  0  0  0  0  0  0  0  0  0  0
   -7.0789    0.7393   -1.4560 N   0  0  0  0  0  0  0  0  0  0  0  0
   -5.7078    0.8299   -1.5933 C   0  0  0  0  0  0  0  0  0  0  0  0
   -5.1638    0.5172   -2.6472 O   0  0  0  0  0  0  0  0  0  0  0  0
    1.5358   -0.0879   -0.1589 C   0  0  0  0  0  0  0  0  0  0  0  0
    1.6433    0.9685   -1.2139 C   0  0  0  0  0  0  0  0  0  0  0  0
    2.6605   -0.7524    0.3490 N   0  0  0  0  0  0  0  0  0  0  0  0
    3.9795   -0.7006   -0.1923 C   0  0  0  0  0  0  0  0  0  0  0  0
    4.1693   -0.8451   -1.5754 C   0  0  0  0  0  0  0  0  0  0  0  0
    5.4591   -0.8053   -2.1084 C   0  0  0  0  0  0  0  0  0  0  0  0
    6.5466   -0.6206   -1.2625 C   0  0  0  0  0  0  0  0  0  0  0  0
    7.7825   -0.5812   -1.7769 F   0  0  0  0  0  0  0  0  0  0  0  0
    6.3713   -0.4752    0.1090 C   0  0  0  0  0  0  0  0  0  0  0  0
    5.0845   -0.5169    0.6501 C   0  0  0  0  0  0  0  0  0  0  0  0
    3.8633   -2.9288    1.6351 H   0  0  0  0  0  0  0  0  0  0  0  0
    3.7110   -1.7900    3.0031 H   0  0  0  0  0  0  0  0  0  0  0  0
    2.5679   -3.1187    2.8105 H   0  0  0  0  0  0  0  0  0  0  0  0
    0.2924   -1.8520    2.3367 H   0  0  0  0  0  0  0  0  0  0  0  0
   -1.1190   -0.1591   -1.7810 H   0  0  0  0  0  0  0  0  0  0  0  0
   -1.0752    1.4532   -1.0376 H   0  0  0  0  0  0  0  0  0  0  0  0
   -5.1774    2.1315    1.5598 H   0  0  0  0  0  0  0  0  0  0  0  0
   -7.6368    1.9479    1.6100 H   0  0  0  0  0  0  0  0  0  0  0  0
   -8.8483    1.0180   -0.3606 H   0  0  0  0  0  0  0  0  0  0  0  0
   -7.5753    0.3791   -2.2624 H   0  0  0  0  0  0  0  0  0  0  0  0
    1.0246    1.8314   -0.9518 H   0  0  0  0  0  0  0  0  0  0  0  0
    2.6561    1.3666   -1.3187 H   0  0  0  0  0  0  0  0  0  0  0  0
    1.3172    0.5792   -2.1828 H   0  0  0  0  0  0  0  0  0  0  0  0
    3.3307   -1.0243   -2.2438 H   0  0  0  0  0  0  0  0  0  0  0  0
    5.6233   -0.9248   -3.1747 H   0  0  0  0  0  0  0  0  0  0  0  0
    7.2363   -0.3227    0.7469 H   0  0  0  0  0  0  0  0  0  0  0  0
    4.9623   -0.3620    1.7185 H   0  0  0  0  0  0  0  0  0  0  0  0
  1  2  1  0
  2  3  2  0
  3  4  1  0
  4  5  1  0
  5  6  2  0
  5  7  1  0
  7  8  1  0
  8  9  1  0
  9 10  2  0
  9 11  1  0
 11 12  2  0
 12 13  1  0
 13 14  2  0
 14 15  1  0
 15 16  1  0
 16 17  2  0
  4 18  2  0
 18 19  1  0
 18 20  1  0
 20 21  1  0
 21 22  2  0
 22 23  1  0
 23 24  2  0
 24 25  1  0
 24 26  1  0
 26 27  2  0
 20  2  1  0
 27 21  1  0
 16 11  1  0
  1 28  1  0
  1 29  1  0
  1 30  1  0
  3 31  1  0
  7 32  1  0
  7 33  1  0
 12 34  1  0
 13 35  1  0
 14 36  1  0
 15 37  1  0
 19 38  1  0
 19 39  1  0
 19 40  1  0
 22 41  1  0
 23 42  1  0
 26 43  1  0
 27 44  1  0
M  END
$$$$
