
     RDKit          3D

 38 39  0  0  0  0  0  0  0  0999 V2000
   -1.0591    2.8065   -0.9411 C   0  0  0  0  0  0  0  0  0  0  0  0
   -1.4275    1.3979   -0.8599 N   0  0  0  0  0  0  0  0  0  0  0  0
   -2.1699    1.1382    0.3797 C   0  0  0  0  0  0  0  0  0  0  0  0
   -2.7793   -0.2463    0.3789 C   0  0  0  0  0  0  0  0  0  0  0  0
   -4.1283   -0.4047    0.0149 C   0  0  0  0  0  0  0  0  0  0  0  0
   -4.7216   -1.6665    0.0108 C   0  0  0  0  0  0  0  0  0  0  0  0
   -3.9756   -2.7842    0.3718 C   0  0  0  0  0  0  0  0  0  0  0  0
   -2.6318   -2.6452    0.7237 C   0  0  0  0  0  0  0  0  0  0  0  0
   -2.0243   -1.3850    0.7091 C   0  0  0  0  0  0  0  0  0  0  0  0
   -0.7126   -1.1678    1.0341 O   0  0  0  0  0  0  0  0  0  0  0  0
    0.1772   -2.2589    0.8223 C   0  0  0  0  0  0  0  0  0  0  0  0
    1.6088   -1.7464    0.6718 C   0  0  0  0  0  0  0  0  0  0  0  0
    2.5583   -2.4369    1.0341 O   0  0  0  0  0  0  0  0  0  0  0  0
    1.6725   -0.5142    0.0422 N   0  0  0  0  0  0  0  0  0  0  0  0
    2.8244    0.2164   -0.3081 C   0  0  0  0  0  0  0  0  0  0  0  0
    4.1288   -0.2023   -0.0402 C   0  0  0  0  0  0  0  0  0  0  0  0
    5.2200    0.5855   -0.4228 C   0  0  0  0  0  0  0  0  0  0  0  0
    5.0163    1.7975   -1.0779 C   0  0  0  0  0  0  0  0  0  0  0  0
    3.7201    2.2231   -1.3524 C   0  0  0  0  0  0  0  0  0  0  0  0
    2.6317    1.4353   -0.9690 C   0  0  0  0  0  0  0  0  0  0  0  0
   -1.9416    3.4548   -0.9481 H   0  0  0  0  0  0  0  0  0  0  0  0
   -0.4098    3.0938   -0.1078 H   0  0  0  0  0  0  0  0  0  0  0  0
   -0.5071    2.9854   -1.8689 H   0  0  0  0  0  0  0  0  0  0  0  0
   -2.0348    1.1701   -1.6479 H   0  0  0  0  0  0  0  0  0  0  0  0
   -2.9746    1.8745    0.5068 H   0  0  0  0  0  0  0  0  0  0  0  0
   -1.5116    1.2517    1.2498 H   0  0  0  0  0  0  0  0  0  0  0  0
   -4.7268    0.4605   -0.2620 H   0  0  0  0  0  0  0  0  0  0  0  0
   -5.7671   -1.7759   -0.2658 H   0  0  0  0  0  0  0  0  0  0  0  0
   -4.4404   -3.7670    0.3829 H   0  0  0  0  0  0  0  0  0  0  0  0
   -2.0851   -3.5356    1.0182 H   0  0  0  0  0  0  0  0  0  0  0  0
   -0.0568   -2.8089   -0.0976 H   0  0  0  0  0  0  0  0  0  0  0  0
    0.1421   -2.9248    1.6914 H   0  0  0  0  0  0  0  0  0  0  0  0
    0.7717   -0.0826   -0.1672 H   0  0  0  0  0  0  0  0  0  0  0  0
    4.3344   -1.1379    0.4695 H   0  0  0  0  0  0  0  0  0  0  0  0
    6.2296    0.2462   -0.2056 H   0  0  0  0  0  0  0  0  0  0  0  0
    5.8664    2.4061   -1.3740 H   0  0  0  0  0  0  0  0  0  0  0  0
    3.5540    3.1659   -1.8663 H   0  0  0  0  0  0  0  0  0  0  0  0
    1.6295    1.7819   -1.2007 H   0  0  0  0  0  0  0  0  0  0  0  0
  1  2  1  0
  2  3  1  0
  3  4  1  0
  4  5  2  0
  5  6  1  0
  6  7  2  0
  7  8  1  0
  8  9  2  0
  9 10  1  0
 10 11  1  0
 11 12  1  0
 12 13  2  0
 12 14  1  0
 14 15  1  0
 15 16  2  0
 16 17  1  0
 17 18  2  0
 18 19  1  0
 19 20  2  0
  9  4  1  0
 20 15  1  0
  1 21  1  0
  1 22  1  0
  1 23  1  0
  2 24  1  0
  3 25  1  0
  3 26  1  0
  5 27  1  0
  6 28  1  0
  7 29  1  0
  8 30  1  0
 11 31  1  0
 11 32  1  0
 14 33  1  0
 16 34  1  0
 17 35  1  0
 18 36  1  0
 19 37  1  0
 20 38  1  0
M  END
$$$$
