
     RDKit          3D

 57 61  0  0  0  0  0  0  0  0999 V2000
    6.0585    0.6867   -2.2983 C   0  0  0  0  0  0  0  0  0  0  0  0
    4.8146   -0.1505   -2.2537 C   0  0  0  0  0  0  0  0  0  0  0  0
    4.8445   -1.4871   -2.6664 C   0  0  0  0  0  0  0  0  0  0  0  0
    3.6808   -2.2593   -2.6546 C   0  0  0  0  0  0  0  0  0  0  0  0
    2.4620   -1.7031   -2.2432 C   0  0  0  0  0  0  0  0  0  0  0  0
    1.2072   -2.5387   -2.2204 C   0  0  0  0  0  0  0  0  0  0  0  0
    1.1508   -3.3858   -1.0475 N   0  0  0  0  0  0  0  0  0  0  0  0
    1.4398   -4.7090   -1.1279 N   0  0  0  0  0  0  0  0  0  0  0  0
    1.2788   -5.2348    0.0869 N   0  0  0  0  0  0  0  0  0  0  0  0
    0.8724   -4.2314    0.9108 C   0  0  0  0  0  0  0  0  0  0  0  0
    0.5558   -4.2321    2.3128 C   0  0  0  0  0  0  0  0  0  0  0  0
    0.5964   -5.2028    3.0602 O   0  0  0  0  0  0  0  0  0  0  0  0
    0.1807   -2.9717    2.7637 N   0  0  0  0  0  0  0  0  0  0  0  0
    0.1286   -1.8347    1.9604 C   0  0  0  0  0  0  0  0  0  0  0  0
   -0.3341   -0.5708    2.6729 C   0  0  0  0  0  0  0  0  0  0  0  0
   -1.8512   -0.4162    2.4841 C   0  0  0  0  0  0  0  0  0  0  0  0
   -2.1785    0.4684    1.2860 C   0  0  0  0  0  0  0  0  0  0  0  0
   -1.6079    1.8354    1.4419 N   0  0  0  0  0  0  0  0  0  0  0  0
   -2.7311    3.1007    1.6847 S   0  0  0  0  0  6  0  0  0  0  0  0
   -3.6180    2.6827    2.7502 O   0  0  0  0  0  0  0  0  0  0  0  0
   -2.0031    4.3489    1.7538 O   0  0  0  0  0  0  0  0  0  0  0  0
   -3.6380    3.1079    0.1569 C   0  0  0  0  0  0  0  0  0  0  0  0
   -5.0130    2.8486    0.1536 C   0  0  0  0  0  0  0  0  0  0  0  0
   -5.7052    2.8570   -1.0580 C   0  0  0  0  0  0  0  0  0  0  0  0
   -5.0209    3.1264   -2.2408 C   0  0  0  0  0  0  0  0  0  0  0  0
   -5.6901    3.1315   -3.4007 F   0  0  0  0  0  0  0  0  0  0  0  0
   -3.6541    3.3921   -2.2391 C   0  0  0  0  0  0  0  0  0  0  0  0
   -2.9537    3.3860   -1.0331 C   0  0  0  0  0  0  0  0  0  0  0  0
   -0.4185    1.9256    2.3295 C   0  0  0  0  0  0  0  0  0  0  0  0
    0.4347    0.6716    2.2009 C   0  0  0  0  0  0  0  0  0  0  0  0
    0.3835   -1.8338    0.6812 N   0  0  0  0  0  0  0  0  0  0  0  0
    0.7650   -3.0495    0.2186 C   0  0  0  0  0  0  0  0  0  0  0  0
    2.4332   -0.3621   -1.8361 C   0  0  0  0  0  0  0  0  0  0  0  0
    3.5978    0.4087   -1.8488 C   0  0  0  0  0  0  0  0  0  0  0  0
    6.9494    0.0727   -2.1295 H   0  0  0  0  0  0  0  0  0  0  0  0
    6.1453    1.1759   -3.2734 H   0  0  0  0  0  0  0  0  0  0  0  0
    6.0407    1.4540   -1.5172 H   0  0  0  0  0  0  0  0  0  0  0  0
    5.7776   -1.9393   -2.9962 H   0  0  0  0  0  0  0  0  0  0  0  0
    3.7340   -3.3017   -2.9655 H   0  0  0  0  0  0  0  0  0  0  0  0
    0.3090   -1.9103   -2.2212 H   0  0  0  0  0  0  0  0  0  0  0  0
    1.1525   -3.1753   -3.1114 H   0  0  0  0  0  0  0  0  0  0  0  0
   -0.0383   -2.9281    3.7483 H   0  0  0  0  0  0  0  0  0  0  0  0
   -0.1492   -0.7047    3.7473 H   0  0  0  0  0  0  0  0  0  0  0  0
   -2.3370   -1.3919    2.3640 H   0  0  0  0  0  0  0  0  0  0  0  0
   -2.2791    0.0360    3.3884 H   0  0  0  0  0  0  0  0  0  0  0  0
   -1.7755    0.0387    0.3616 H   0  0  0  0  0  0  0  0  0  0  0  0
   -3.2647    0.5031    1.1565 H   0  0  0  0  0  0  0  0  0  0  0  0
   -5.5463    2.6456    1.0795 H   0  0  0  0  0  0  0  0  0  0  0  0
   -6.7726    2.6601   -1.0893 H   0  0  0  0  0  0  0  0  0  0  0  0
   -3.1475    3.6063   -3.1754 H   0  0  0  0  0  0  0  0  0  0  0  0
   -1.8868    3.5990   -1.0198 H   0  0  0  0  0  0  0  0  0  0  0  0
    0.1811    2.7920    2.0291 H   0  0  0  0  0  0  0  0  0  0  0  0
   -0.7280    2.0659    3.3719 H   0  0  0  0  0  0  0  0  0  0  0  0
    1.3465    0.7790    2.8009 H   0  0  0  0  0  0  0  0  0  0  0  0
    0.7683    0.5764    1.1607 H   0  0  0  0  0  0  0  0  0  0  0  0
    1.5031    0.0925   -1.5003 H   0  0  0  0  0  0  0  0  0  0  0  0
    3.5500    1.4495   -1.5360 H   0  0  0  0  0  0  0  0  0  0  0  0
  1  2  1  0
  2  3  2  0
  3  4  1  0
  4  5  2  0
  5  6  1  0
  6  7  1  0
  7  8  1  0
  8  9  2  0
  9 10  1  0
 10 11  1  0
 11 12  2  0
 11 13  1  0
 13 14  1  0
 14 15  1  0
 15 16  1  0
 16 17  1  0
 17 18  1  0
 18 19  1  0
 19 20  2  0
 19 21  2  0
 19 22  1  0
 22 23  2  0
 23 24  1  0
 24 25  2  0
 25 26  1  0
 25 27  1  0
 27 28  2  0
 18 29  1  0
 29 30  1  0
 14 31  2  0
 31 32  1  0
  5 33  1  0
 33 34  2  0
 34  2  1  0
 32  7  1  0
 32 10  2  0
 30 15  1  0
 28 22  1  0
  1 35  1  0
  1 36  1  0
  1 37  1  0
  3 38  1  0
  4 39  1  0
  6 40  1  0
  6 41  1  0
 13 42  1  0
 15 43  1  0
 16 44  1  0
 16 45  1  0
 17 46  1  0
 17 47  1  0
 23 48  1  0
 24 49  1  0
 27 50  1  0
 28 51  1  0
 29 52  1  0
 29 53  1  0
 30 54  1  0
 30 55  1  0
 33 56  1  0
 34 57  1  0
M  END
$$$$
