
     RDKit          3D

 69 71  0  0  0  0  0  0  0  0999 V2000
   -6.5186   -2.2845    3.9102 C   0  0  0  0  0  0  0  0  0  0  0  0
   -5.5254   -1.2867    3.3377 C   0  0  0  0  0  0  0  0  0  0  0  0
   -6.1072   -0.5474    2.1330 C   0  0  0  0  0  0  0  0  0  0  0  0
   -5.1516    0.4125    1.5759 N   0  0  0  0  0  0  0  0  0  0  0  0
   -5.1824    1.7750    2.1140 C   0  0  0  0  0  0  0  0  0  0  0  0
   -6.1864    2.6515    1.3650 C   0  0  0  0  0  0  0  0  0  0  0  0
   -6.1854    4.0760    1.8947 C   0  0  0  0  0  0  0  0  0  0  0  0
   -4.2581   -0.0382    0.6000 C   0  0  0  0  0  0  0  0  0  0  0  0
   -4.2667   -1.2090    0.2115 O   0  0  0  0  0  0  0  0  0  0  0  0
   -3.2667    0.9902    0.0345 C   0  0  0  0  0  0  0  0  0  0  0  0
   -2.5204    0.4547   -1.1046 N   0  0  0  0  0  0  0  0  0  0  0  0
   -1.2856   -0.1498   -0.8419 C   0  0  0  0  0  0  0  0  0  0  0  0
   -0.8096   -0.1614    0.2974 O   0  0  0  0  0  0  0  0  0  0  0  0
   -0.5992   -0.7127   -1.9267 N   0  0  0  0  0  0  0  0  0  0  0  0
    0.7123   -1.2984   -1.6633 C   0  0  0  0  0  0  0  0  0  0  0  0
    1.8191   -0.2404   -1.7270 C   0  0  0  0  0  0  0  0  0  0  0  0
    3.2320   -0.8267   -1.6693 C   0  0  0  0  0  0  0  0  0  0  0  0
    3.5342   -1.5667   -0.3622 C   0  0  0  0  0  0  0  0  0  0  0  0
    4.9920   -2.0239   -0.2856 C   0  0  0  0  0  0  0  0  0  0  0  0
    5.9730   -0.8944    0.0067 C   0  0  0  0  0  0  0  0  0  0  0  0
    5.6002    0.2168    0.3628 O   0  0  0  0  0  0  0  0  0  0  0  0
    7.2848   -1.3118   -0.1576 N   0  0  0  0  0  0  0  0  0  0  0  0
    8.4592   -0.5572    0.0423 C   0  0  0  0  0  0  0  0  0  0  0  0
    9.6799   -1.1909   -0.2296 C   0  0  0  0  0  0  0  0  0  0  0  0
   10.8902   -0.5125   -0.0611 C   0  0  0  0  0  0  0  0  0  0  0  0
   10.8925    0.8062    0.3844 C   0  0  0  0  0  0  0  0  0  0  0  0
    9.6849    1.4430    0.6634 C   0  0  0  0  0  0  0  0  0  0  0  0
    8.4733    0.7649    0.4920 C   0  0  0  0  0  0  0  0  0  0  0  0
   -1.0263   -0.6766   -3.2600 C   0  0  0  0  0  0  0  0  0  0  0  0
   -0.3404   -1.1020   -4.1889 O   0  0  0  0  0  0  0  0  0  0  0  0
   -2.3237   -0.0850   -3.4265 C   0  0  0  0  0  0  0  0  0  0  0  0
   -3.1148    0.0200   -4.9249 S   0  0  0  0  0  0  0  0  0  0  0  0
   -4.4722    0.7773   -4.2059 C   0  0  0  0  0  0  0  0  0  0  0  0
   -4.3065    0.9487   -2.8466 C   0  0  0  0  0  0  0  0  0  0  0  0
   -3.0480    0.4508   -2.3961 C   0  0  0  0  0  0  0  0  0  0  0  0
   -6.7921   -3.0372    3.1639 H   0  0  0  0  0  0  0  0  0  0  0  0
   -7.4321   -1.7812    4.2431 H   0  0  0  0  0  0  0  0  0  0  0  0
   -6.0828   -2.8023    4.7706 H   0  0  0  0  0  0  0  0  0  0  0  0
   -4.6090   -1.8140    3.0483 H   0  0  0  0  0  0  0  0  0  0  0  0
   -5.2434   -0.5697    4.1175 H   0  0  0  0  0  0  0  0  0  0  0  0
   -6.3863   -1.2701    1.3574 H   0  0  0  0  0  0  0  0  0  0  0  0
   -7.0217   -0.0117    2.4116 H   0  0  0  0  0  0  0  0  0  0  0  0
   -5.4382    1.7216    3.1785 H   0  0  0  0  0  0  0  0  0  0  0  0
   -4.1849    2.2194    2.0553 H   0  0  0  0  0  0  0  0  0  0  0  0
   -5.9551    2.6652    0.2939 H   0  0  0  0  0  0  0  0  0  0  0  0
   -7.1945    2.2318    1.4599 H   0  0  0  0  0  0  0  0  0  0  0  0
   -5.2013    4.5395    1.7707 H   0  0  0  0  0  0  0  0  0  0  0  0
   -6.4466    4.0995    2.9575 H   0  0  0  0  0  0  0  0  0  0  0  0
   -6.9167    4.6822    1.3510 H   0  0  0  0  0  0  0  0  0  0  0  0
   -2.5733    1.2707    0.8341 H   0  0  0  0  0  0  0  0  0  0  0  0
   -3.7929    1.8935   -0.2871 H   0  0  0  0  0  0  0  0  0  0  0  0
    0.6987   -1.7746   -0.6767 H   0  0  0  0  0  0  0  0  0  0  0  0
    0.9116   -2.0908   -2.3940 H   0  0  0  0  0  0  0  0  0  0  0  0
    1.7250    0.3291   -2.6605 H   0  0  0  0  0  0  0  0  0  0  0  0
    1.6873    0.4841   -0.9138 H   0  0  0  0  0  0  0  0  0  0  0  0
    3.3791   -1.5061   -2.5178 H   0  0  0  0  0  0  0  0  0  0  0  0
    3.9438   -0.0035   -1.8013 H   0  0  0  0  0  0  0  0  0  0  0  0
    2.8965   -2.4563   -0.2962 H   0  0  0  0  0  0  0  0  0  0  0  0
    3.2873   -0.9299    0.4956 H   0  0  0  0  0  0  0  0  0  0  0  0
    5.2772   -2.5250   -1.2179 H   0  0  0  0  0  0  0  0  0  0  0  0
    5.0914   -2.7499    0.5310 H   0  0  0  0  0  0  0  0  0  0  0  0
    7.4220   -2.2636   -0.4724 H   0  0  0  0  0  0  0  0  0  0  0  0
    9.7090   -2.2200   -0.5765 H   0  0  0  0  0  0  0  0  0  0  0  0
   11.8303   -1.0134   -0.2798 H   0  0  0  0  0  0  0  0  0  0  0  0
   11.8314    1.3373    0.5165 H   0  0  0  0  0  0  0  0  0  0  0  0
    9.6790    2.4722    1.0138 H   0  0  0  0  0  0  0  0  0  0  0  0
    7.5578    1.3015    0.7210 H   0  0  0  0  0  0  0  0  0  0  0  0
   -5.3231    1.0563   -4.8125 H   0  0  0  0  0  0  0  0  0  0  0  0
   -5.0658    1.4041   -2.2243 H   0  0  0  0  0  0  0  0  0  0  0  0
  1  2  1  0
  2  3  1  0
  3  4  1  0
  4  5  1  0
  5  6  1  0
  6  7  1  0
  4  8  1  0
  8  9  2  0
  8 10  1  0
 10 11  1  0
 11 12  1  0
 12 13  2  0
 12 14  1  0
 14 15  1  0
 15 16  1  0
 16 17  1  0
 17 18  1  0
 18 19  1  0
 19 20  1  0
 20 21  2  0
 20 22  1  0
 22 23  1  0
 23 24  2  0
 24 25  1  0
 25 26  2  0
 26 27  1  0
 27 28  2  0
 14 29  1  0
 29 30  2  0
 29 31  1  0
 31 32  1  0
 32 33  1  0
 33 34  2  0
 34 35  1  0
 35 11  1  0
 28 23  1  0
 35 31  2  0
  1 36  1  0
  1 37  1  0
  1 38  1  0
  2 39  1  0
  2 40  1  0
  3 41  1  0
  3 42  1  0
  5 43  1  0
  5 44  1  0
  6 45  1  0
  6 46  1  0
  7 47  1  0
  7 48  1  0
  7 49  1  0
 10 50  1  0
 10 51  1  0
 15 52  1  0
 15 53  1  0
 16 54  1  0
 16 55  1  0
 17 56  1  0
 17 57  1  0
 18 58  1  0
 18 59  1  0
 19 60  1  0
 19 61  1  0
 22 62  1  0
 24 63  1  0
 25 64  1  0
 26 65  1  0
 27 66  1  0
 28 67  1  0
 33 68  1  0
 34 69  1  0
M  END
$$$$
