
     RDKit          3D

 43 45  0  0  0  0  0  0  0  0999 V2000
    4.6709    0.9973   -3.3069 C   0  0  0  0  0  0  0  0  0  0  0  0
    5.3905    1.4169   -2.1532 O   0  0  0  0  0  0  0  0  0  0  0  0
    4.8570    1.0771   -0.9390 C   0  0  0  0  0  0  0  0  0  0  0  0
    5.6777    1.3565    0.1548 C   0  0  0  0  0  0  0  0  0  0  0  0
    5.2463    1.0780    1.4493 C   0  0  0  0  0  0  0  0  0  0  0  0
    3.9896    0.5083    1.6532 C   0  0  0  0  0  0  0  0  0  0  0  0
    3.1623    0.2003    0.5661 C   0  0  0  0  0  0  0  0  0  0  0  0
    1.8914   -0.3421    0.8595 N   0  0  0  0  0  0  0  0  0  0  0  0
    1.0154   -1.0958    0.0864 C   0  0  0  0  0  0  0  0  0  0  0  0
    1.4637   -2.0235   -1.2438 S   0  0  0  0  0  0  0  0  0  0  0  0
   -0.2983   -1.0662    0.6210 N   0  0  0  0  0  0  0  0  0  0  0  0
   -1.3577   -1.9521    0.0863 C   0  0  0  0  0  0  0  0  0  0  0  0
   -2.5227   -2.1536    1.0751 C   0  0  0  0  0  0  0  0  0  0  0  0
   -3.0726   -0.8670    1.5472 N   0  0  0  0  0  0  0  0  0  0  0  0
   -3.9473   -0.2277    0.6550 C   0  0  0  0  0  0  0  0  0  0  0  0
   -5.0908   -0.8901    0.2022 C   0  0  0  0  0  0  0  0  0  0  0  0
   -5.9680   -0.2553   -0.6767 C   0  0  0  0  0  0  0  0  0  0  0  0
   -5.6961    1.0400   -1.0839 C   0  0  0  0  0  0  0  0  0  0  0  0
   -4.5603    1.6439   -0.5817 C   0  0  0  0  0  0  0  0  0  0  0  0
   -3.6993    1.0440    0.2718 N   0  0  0  0  0  0  0  0  0  0  0  0
   -2.0261    0.0047    2.1187 C   0  0  0  0  0  0  0  0  0  0  0  0
   -0.8361    0.2081    1.1600 C   0  0  0  0  0  0  0  0  0  0  0  0
    3.5941    0.5144   -0.7270 C   0  0  0  0  0  0  0  0  0  0  0  0
    5.2688    1.2576   -4.1856 H   0  0  0  0  0  0  0  0  0  0  0  0
    3.7159    1.5268   -3.3866 H   0  0  0  0  0  0  0  0  0  0  0  0
    4.5251   -0.0881   -3.3134 H   0  0  0  0  0  0  0  0  0  0  0  0
    6.6575    1.7993   -0.0062 H   0  0  0  0  0  0  0  0  0  0  0  0
    5.8889    1.3037    2.2959 H   0  0  0  0  0  0  0  0  0  0  0  0
    3.6740    0.2966    2.6713 H   0  0  0  0  0  0  0  0  0  0  0  0
    1.6565   -0.3723    1.8430 H   0  0  0  0  0  0  0  0  0  0  0  0
   -0.9382   -2.9365   -0.1433 H   0  0  0  0  0  0  0  0  0  0  0  0
   -1.7184   -1.5077   -0.8495 H   0  0  0  0  0  0  0  0  0  0  0  0
   -3.2846   -2.8010    0.6279 H   0  0  0  0  0  0  0  0  0  0  0  0
   -2.1469   -2.6958    1.9527 H   0  0  0  0  0  0  0  0  0  0  0  0
   -5.3233   -1.8901    0.5515 H   0  0  0  0  0  0  0  0  0  0  0  0
   -6.8583   -0.7689   -1.0268 H   0  0  0  0  0  0  0  0  0  0  0  0
   -6.3545    1.5683   -1.7633 H   0  0  0  0  0  0  0  0  0  0  0  0
   -4.3003    2.6618   -0.8573 H   0  0  0  0  0  0  0  0  0  0  0  0
   -1.6537   -0.4844    3.0285 H   0  0  0  0  0  0  0  0  0  0  0  0
   -2.4329    0.9691    2.4477 H   0  0  0  0  0  0  0  0  0  0  0  0
   -1.1242    0.8109    0.2912 H   0  0  0  0  0  0  0  0  0  0  0  0
   -0.0626    0.7769    1.6830 H   0  0  0  0  0  0  0  0  0  0  0  0
    2.9277    0.3579   -1.5647 H   0  0  0  0  0  0  0  0  0  0  0  0
  1  2  1  0
  2  3  1  0
  3  4  2  0
  4  5  1  0
  5  6  2  0
  6  7  1  0
  7  8  1  0
  8  9  1  0
  9 10  2  0
  9 11  1  0
 11 12  1  0
 12 13  1  0
 13 14  1  0
 14 15  1  0
 15 16  2  0
 16 17  1  0
 17 18  2  0
 18 19  1  0
 19 20  2  0
 14 21  1  0
 21 22  1  0
  7 23  2  0
 23  3  1  0
 22 11  1  0
 20 15  1  0
  1 24  1  0
  1 25  1  0
  1 26  1  0
  4 27  1  0
  5 28  1  0
  6 29  1  0
  8 30  1  0
 12 31  1  0
 12 32  1  0
 13 33  1  0
 13 34  1  0
 16 35  1  0
 17 36  1  0
 18 37  1  0
 19 38  1  0
 21 39  1  0
 21 40  1  0
 22 41  1  0
 22 42  1  0
 23 43  1  0
M  END
$$$$
