
     RDKit          3D

 55 59  0  0  0  0  0  0  0  0999 V2000
   -1.6173   -0.1241   -2.6078 C   0  0  0  0  0  0  0  0  0  0  0  0
   -2.4192   -0.3735   -1.3600 C   0  0  0  0  0  0  0  0  0  0  0  0
   -3.7851   -0.1015   -1.2963 C   0  0  0  0  0  0  0  0  0  0  0  0
   -4.5602    0.4994   -2.3936 C   0  0  0  0  0  0  0  0  0  0  0  0
   -4.2693    1.7879   -2.8767 C   0  0  0  0  0  0  0  0  0  0  0  0
   -5.0140    2.3527   -3.9155 C   0  0  0  0  0  0  0  0  0  0  0  0
   -6.0688    1.6399   -4.4820 C   0  0  0  0  0  0  0  0  0  0  0  0
   -6.3788    0.3695   -4.0024 C   0  0  0  0  0  0  0  0  0  0  0  0
   -7.6876   -0.5071   -4.6957 Cl  0  0  0  0  0  0  0  0  0  0  0  0
   -5.6374   -0.1975   -2.9662 C   0  0  0  0  0  0  0  0  0  0  0  0
   -4.5338   -0.3715   -0.1979 N   0  0  0  0  0  0  0  0  0  0  0  0
   -3.9579   -0.8868    0.8969 C   0  0  0  0  0  0  0  0  0  0  0  0
   -4.7619   -1.1442    1.9997 C   0  0  0  0  0  0  0  0  0  0  0  0
   -4.2458   -1.6688    3.1860 C   0  0  0  0  0  0  0  0  0  0  0  0
   -2.8905   -1.9450    3.2792 C   0  0  0  0  0  0  0  0  0  0  0  0
   -2.0640   -1.6948    2.1851 C   0  0  0  0  0  0  0  0  0  0  0  0
   -2.5845   -1.1642    0.9747 C   0  0  0  0  0  0  0  0  0  0  0  0
   -1.8256   -0.8768   -0.1860 C   0  0  0  0  0  0  0  0  0  0  0  0
   -0.3697   -1.1207   -0.1557 C   0  0  0  0  0  0  0  0  0  0  0  0
    0.1492   -2.2137   -0.0234 O   0  0  0  0  0  0  0  0  0  0  0  0
    0.2607    0.0715   -0.2665 O   0  0  0  0  0  0  0  0  0  0  0  0
    1.6882   -0.0199   -0.2190 C   0  0  0  0  0  0  0  0  0  0  0  0
    2.2821    1.3785   -0.3913 C   0  0  0  0  0  0  0  0  0  0  0  0
    1.6022    2.4019   -0.2407 O   0  0  0  0  0  0  0  0  0  0  0  0
    3.7458    1.5057   -0.7539 C   0  0  0  0  0  0  0  0  0  0  0  0
    4.0063    0.9025   -2.0639 C   0  0  0  0  0  0  0  0  0  0  0  0
    4.1940    0.4594   -3.1207 N   0  0  0  0  0  0  0  0  0  0  0  0
    4.5907    0.8977    0.3134 C   0  0  0  0  0  0  0  0  0  0  0  0
    4.5631   -0.3544    0.7247 N   0  0  0  0  0  0  0  0  0  0  0  0
    5.5079   -0.4476    1.7172 C   0  0  0  0  0  0  0  0  0  0  0  0
    5.8925   -1.5510    2.4906 C   0  0  0  0  0  0  0  0  0  0  0  0
    6.8947   -1.3767    3.4535 C   0  0  0  0  0  0  0  0  0  0  0  0
    7.4987   -0.1307    3.6407 C   0  0  0  0  0  0  0  0  0  0  0  0
    7.1262    0.9816    2.8765 C   0  0  0  0  0  0  0  0  0  0  0  0
    6.1255    0.7792    1.9242 C   0  0  0  0  0  0  0  0  0  0  0  0
    5.5268    1.6194    1.0206 N   0  0  0  0  0  0  0  0  0  0  0  0
   -2.2213   -0.2624   -3.5104 H   0  0  0  0  0  0  0  0  0  0  0  0
   -1.2137    0.8931   -2.6013 H   0  0  0  0  0  0  0  0  0  0  0  0
   -0.7883   -0.8332   -2.7021 H   0  0  0  0  0  0  0  0  0  0  0  0
   -3.4620    2.3678   -2.4320 H   0  0  0  0  0  0  0  0  0  0  0  0
   -4.7754    3.3504   -4.2757 H   0  0  0  0  0  0  0  0  0  0  0  0
   -6.6490    2.0813   -5.2879 H   0  0  0  0  0  0  0  0  0  0  0  0
   -5.8967   -1.1861   -2.5924 H   0  0  0  0  0  0  0  0  0  0  0  0
   -5.8261   -0.9266    1.9336 H   0  0  0  0  0  0  0  0  0  0  0  0
   -4.9053   -1.8586    4.0287 H   0  0  0  0  0  0  0  0  0  0  0  0
   -2.4752   -2.3566    4.1957 H   0  0  0  0  0  0  0  0  0  0  0  0
   -1.0052   -1.9288    2.2826 H   0  0  0  0  0  0  0  0  0  0  0  0
    2.0341   -0.6684   -1.0293 H   0  0  0  0  0  0  0  0  0  0  0  0
    1.9876   -0.4107    0.7579 H   0  0  0  0  0  0  0  0  0  0  0  0
    3.9689    2.5790   -0.8207 H   0  0  0  0  0  0  0  0  0  0  0  0
    5.4209   -2.5158    2.3399 H   0  0  0  0  0  0  0  0  0  0  0  0
    7.2051   -2.2240    4.0609 H   0  0  0  0  0  0  0  0  0  0  0  0
    8.2757   -0.0235    4.3956 H   0  0  0  0  0  0  0  0  0  0  0  0
    7.5982    1.9469    3.0239 H   0  0  0  0  0  0  0  0  0  0  0  0
    5.7446    2.5998    0.9051 H   0  0  0  0  0  0  0  0  0  0  0  0
  1  2  1  0
  2  3  2  0
  3  4  1  0
  4  5  2  0
  5  6  1  0
  6  7  2  0
  7  8  1  0
  8  9  1  0
  8 10  2  0
  3 11  1  0
 11 12  2  0
 12 13  1  0
 13 14  2  0
 14 15  1  0
 15 16  2  0
 16 17  1  0
 17 18  2  0
 18 19  1  0
 19 20  2  0
 19 21  1  0
 21 22  1  0
 22 23  1  0
 23 24  2  0
 23 25  1  0
 25 26  1  0
 26 27  3  0
 25 28  1  0
 28 29  2  0
 29 30  1  0
 30 31  2  0
 31 32  1  0
 32 33  2  0
 33 34  1  0
 34 35  2  0
 35 36  1  0
 18  2  1  0
 36 28  1  0
 10  4  1  0
 17 12  1  0
 35 30  1  0
  1 37  1  0
  1 38  1  0
  1 39  1  0
  5 40  1  0
  6 41  1  0
  7 42  1  0
 10 43  1  0
 13 44  1  0
 14 45  1  0
 15 46  1  0
 16 47  1  0
 22 48  1  0
 22 49  1  0
 25 50  1  0
 31 51  1  0
 32 52  1  0
 33 53  1  0
 34 54  1  0
 36 55  1  0
M  END
$$$$
