
     RDKit          3D

 40 41  0  0  0  0  0  0  0  0999 V2000
    5.6741   -2.4865   -1.1361 C   0  0  0  0  0  0  0  0  0  0  0  0
    5.0906   -2.2610    0.1410 O   0  0  0  0  0  0  0  0  0  0  0  0
    4.4600   -1.0623    0.3294 C   0  0  0  0  0  0  0  0  0  0  0  0
    3.9635   -0.8604    1.6189 C   0  0  0  0  0  0  0  0  0  0  0  0
    3.2931    0.3192    1.9499 C   0  0  0  0  0  0  0  0  0  0  0  0
    3.1090    1.3186    0.9875 C   0  0  0  0  0  0  0  0  0  0  0  0
    2.3478    2.5812    1.3225 C   0  0  0  0  0  0  0  0  0  0  0  0
    0.9248    2.6038    0.8088 C   0  0  0  0  0  0  0  0  0  0  0  0
    0.3873    3.6229    0.3860 O   0  0  0  0  0  0  0  0  0  0  0  0
    0.3556    1.3625    0.9424 O   0  0  0  0  0  0  0  0  0  0  0  0
   -0.9834    1.3807    0.5140 N   0  0  0  0  0  0  0  0  0  0  0  0
   -1.4747    0.1763    0.4755 C   0  0  0  0  0  0  0  0  0  0  0  0
   -0.7381   -0.9459    0.7916 N   0  0  0  0  0  0  0  0  0  0  0  0
   -2.9019    0.0113    0.0464 C   0  0  0  0  0  0  0  0  0  0  0  0
   -3.5439    1.0420   -0.6495 C   0  0  0  0  0  0  0  0  0  0  0  0
   -4.8710    0.8939   -1.0617 C   0  0  0  0  0  0  0  0  0  0  0  0
   -5.5781   -0.2785   -0.7702 C   0  0  0  0  0  0  0  0  0  0  0  0
   -6.9929   -0.4465   -1.2404 C   0  0  0  0  0  0  0  0  0  0  0  0
   -4.9326   -1.3094   -0.0769 C   0  0  0  0  0  0  0  0  0  0  0  0
   -3.6045   -1.1642    0.3360 C   0  0  0  0  0  0  0  0  0  0  0  0
    3.6044    1.1125   -0.3068 C   0  0  0  0  0  0  0  0  0  0  0  0
    4.2772   -0.0702   -0.6333 C   0  0  0  0  0  0  0  0  0  0  0  0
    6.4432   -1.7390   -1.3573 H   0  0  0  0  0  0  0  0  0  0  0  0
    6.1595   -3.4669   -1.1132 H   0  0  0  0  0  0  0  0  0  0  0  0
    4.9096   -2.5119   -1.9195 H   0  0  0  0  0  0  0  0  0  0  0  0
    4.1027   -1.6303    2.3743 H   0  0  0  0  0  0  0  0  0  0  0  0
    2.9148    0.4453    2.9622 H   0  0  0  0  0  0  0  0  0  0  0  0
    2.3185    2.7389    2.4068 H   0  0  0  0  0  0  0  0  0  0  0  0
    2.8841    3.4351    0.8904 H   0  0  0  0  0  0  0  0  0  0  0  0
    0.2574   -0.7456    0.8309 H   0  0  0  0  0  0  0  0  0  0  0  0
   -0.9280   -1.7600    0.2179 H   0  0  0  0  0  0  0  0  0  0  0  0
   -3.0149    1.9652   -0.8782 H   0  0  0  0  0  0  0  0  0  0  0  0
   -5.3489    1.7048   -1.6075 H   0  0  0  0  0  0  0  0  0  0  0  0
   -7.5181    0.5147   -1.2474 H   0  0  0  0  0  0  0  0  0  0  0  0
   -7.0033   -0.8641   -2.2520 H   0  0  0  0  0  0  0  0  0  0  0  0
   -7.5496   -1.1159   -0.5759 H   0  0  0  0  0  0  0  0  0  0  0  0
   -5.4635   -2.2301    0.1554 H   0  0  0  0  0  0  0  0  0  0  0  0
   -3.1396   -1.9675    0.9002 H   0  0  0  0  0  0  0  0  0  0  0  0
    3.4678    1.8714   -1.0756 H   0  0  0  0  0  0  0  0  0  0  0  0
    4.6420   -0.1843   -1.6488 H   0  0  0  0  0  0  0  0  0  0  0  0
  1  2  1  0
  2  3  1  0
  3  4  2  0
  4  5  1  0
  5  6  2  0
  6  7  1  0
  7  8  1  0
  8  9  2  0
  8 10  1  0
 10 11  1  0
 11 12  2  3
 12 13  1  0
 12 14  1  0
 14 15  2  0
 15 16  1  0
 16 17  2  0
 17 18  1  0
 17 19  1  0
 19 20  2  0
  6 21  1  0
 21 22  2  0
 22  3  1  0
 20 14  1  0
  1 23  1  0
  1 24  1  0
  1 25  1  0
  4 26  1  0
  5 27  1  0
  7 28  1  0
  7 29  1  0
 13 30  1  0
 13 31  1  0
 15 32  1  0
 16 33  1  0
 18 34  1  0
 18 35  1  0
 18 36  1  0
 19 37  1  0
 20 38  1  0
 21 39  1  0
 22 40  1  0
M  END
$$$$
