
     RDKit          3D

 53 56  0  0  0  0  0  0  0  0999 V2000
   -5.9987    3.4554    1.6915 C   0  0  0  0  0  0  0  0  0  0  0  0
   -4.8126    2.5546    1.5174 C   0  0  0  0  0  0  0  0  0  0  0  0
   -3.6066    3.0613    1.0268 C   0  0  0  0  0  0  0  0  0  0  0  0
   -2.5073    2.2175    0.8390 C   0  0  0  0  0  0  0  0  0  0  0  0
   -2.5903    0.8534    1.1451 C   0  0  0  0  0  0  0  0  0  0  0  0
   -1.4456    0.0653    0.8860 N   0  0  0  0  0  0  0  0  0  0  0  0
   -1.0708   -1.1869    1.3609 C   0  0  0  0  0  0  0  0  0  0  0  0
   -1.5562   -1.7926    2.8571 S   0  0  0  0  0  0  0  0  0  0  0  0
   -0.1754   -1.8587    0.4907 N   0  0  0  0  0  0  0  0  0  0  0  0
    0.4254   -3.1694    0.8162 C   0  0  0  0  0  0  0  0  0  0  0  0
   -0.2926   -4.2770    0.0947 C   0  0  0  0  0  0  0  0  0  0  0  0
   -1.6214   -4.6516    0.1741 C   0  0  0  0  0  0  0  0  0  0  0  0
   -1.9276   -5.7633   -0.6622 C   0  0  0  0  0  0  0  0  0  0  0  0
   -0.8229   -6.2084   -1.3515 C   0  0  0  0  0  0  0  0  0  0  0  0
    0.5737   -5.2963   -0.9825 S   0  0  0  0  0  0  0  0  0  0  0  0
    0.1502   -1.3528   -0.8605 C   0  0  0  0  0  0  0  0  0  0  0  0
    1.3372   -0.4219   -0.8553 C   0  0  0  0  0  0  0  0  0  0  0  0
    2.0911   -0.0743    0.2038 C   0  0  0  0  0  0  0  0  0  0  0  0
    3.2166    0.8520    0.0675 C   0  0  0  0  0  0  0  0  0  0  0  0
    3.9894    1.2075    1.1758 C   0  0  0  0  0  0  0  0  0  0  0  0
    5.0538    2.0938    1.0262 C   0  0  0  0  0  0  0  0  0  0  0  0
    5.3519    2.6262   -0.2294 C   0  0  0  0  0  0  0  0  0  0  0  0
    4.5903    2.2813   -1.3568 C   0  0  0  0  0  0  0  0  0  0  0  0
    4.9474    2.8662   -2.6943 C   0  0  0  0  0  0  0  0  0  0  0  0
    3.5186    1.3879   -1.1931 C   0  0  0  0  0  0  0  0  0  0  0  0
    2.7202    1.0109   -2.2832 N   0  0  0  0  0  0  0  0  0  0  0  0
    1.6574    0.1547   -2.1987 C   0  0  0  0  0  0  0  0  0  0  0  0
    0.9853   -0.1205   -3.1884 O   0  0  0  0  0  0  0  0  0  0  0  0
   -3.8072    0.3414    1.5949 C   0  0  0  0  0  0  0  0  0  0  0  0
   -4.9078    1.1863    1.7861 C   0  0  0  0  0  0  0  0  0  0  0  0
   -5.6938    4.4077    2.1390 H   0  0  0  0  0  0  0  0  0  0  0  0
   -6.4675    3.6489    0.7219 H   0  0  0  0  0  0  0  0  0  0  0  0
   -6.7453    3.0070    2.3557 H   0  0  0  0  0  0  0  0  0  0  0  0
   -3.5137    4.1181    0.7860 H   0  0  0  0  0  0  0  0  0  0  0  0
   -1.5843    2.6474    0.4587 H   0  0  0  0  0  0  0  0  0  0  0  0
   -0.7066    0.5651    0.4124 H   0  0  0  0  0  0  0  0  0  0  0  0
    0.4102   -3.3707    1.8902 H   0  0  0  0  0  0  0  0  0  0  0  0
    1.4845   -3.1257    0.5349 H   0  0  0  0  0  0  0  0  0  0  0  0
   -2.3455   -4.1528    0.8082 H   0  0  0  0  0  0  0  0  0  0  0  0
   -2.9092   -6.2146   -0.7510 H   0  0  0  0  0  0  0  0  0  0  0  0
   -0.7657   -7.0311   -2.0511 H   0  0  0  0  0  0  0  0  0  0  0  0
    0.3522   -2.1996   -1.5249 H   0  0  0  0  0  0  0  0  0  0  0  0
   -0.7287   -0.8398   -1.2689 H   0  0  0  0  0  0  0  0  0  0  0  0
    1.8941   -0.4694    1.1948 H   0  0  0  0  0  0  0  0  0  0  0  0
    3.7715    0.8008    2.1598 H   0  0  0  0  0  0  0  0  0  0  0  0
    5.6553    2.3707    1.8891 H   0  0  0  0  0  0  0  0  0  0  0  0
    6.1895    3.3155   -0.3212 H   0  0  0  0  0  0  0  0  0  0  0  0
    4.0990    3.4227   -3.1064 H   0  0  0  0  0  0  0  0  0  0  0  0
    5.7891    3.5632   -2.6176 H   0  0  0  0  0  0  0  0  0  0  0  0
    5.2358    2.0715   -3.3892 H   0  0  0  0  0  0  0  0  0  0  0  0
    2.9046    1.3811   -3.2041 H   0  0  0  0  0  0  0  0  0  0  0  0
   -3.9473   -0.7180    1.7767 H   0  0  0  0  0  0  0  0  0  0  0  0
   -5.8434    0.7595    2.1398 H   0  0  0  0  0  0  0  0  0  0  0  0
  1  2  1  0
  2  3  2  0
  3  4  1  0
  4  5  2  0
  5  6  1  0
  6  7  1  0
  7  8  2  0
  7  9  1  0
  9 10  1  0
 10 11  1  0
 11 12  2  0
 12 13  1  0
 13 14  2  0
 14 15  1  0
  9 16  1  0
 16 17  1  0
 17 18  2  0
 18 19  1  0
 19 20  2  0
 20 21  1  0
 21 22  2  0
 22 23  1  0
 23 24  1  0
 23 25  2  0
 25 26  1  0
 26 27  1  0
 27 28  2  0
  5 29  1  0
 29 30  2  0
 30  2  1  0
 15 11  1  0
 27 17  1  0
 25 19  1  0
  1 31  1  0
  1 32  1  0
  1 33  1  0
  3 34  1  0
  4 35  1  0
  6 36  1  0
 10 37  1  0
 10 38  1  0
 12 39  1  0
 13 40  1  0
 14 41  1  0
 16 42  1  0
 16 43  1  0
 18 44  1  0
 20 45  1  0
 21 46  1  0
 22 47  1  0
 24 48  1  0
 24 49  1  0
 24 50  1  0
 26 51  1  0
 29 52  1  0
 30 53  1  0
M  END
$$$$
