
     RDKit          3D

 67 72  0  0  0  0  0  0  0  0999 V2000
   -2.0962   -2.1286    1.8135 O   0  0  0  0  0  0  0  0  0  0  0  0
   -2.1721   -1.1131    1.1159 C   0  0  0  0  0  0  0  0  0  0  0  0
   -0.9082   -0.3578    0.7022 C   0  0  0  0  0  0  0  0  0  0  0  0
   -0.7680    0.9619    1.4837 C   0  0  0  0  0  0  0  0  0  0  0  0
    0.6027    1.1370    2.1285 C   0  0  0  0  0  0  0  0  0  0  0  0
    1.7439    0.7869    1.1750 C   0  0  0  0  0  0  0  0  0  0  0  0
    1.5341   -0.5204    0.5497 N   0  0  0  0  0  0  0  0  0  0  0  0
    2.6742   -1.2663    0.2367 C   0  0  0  0  0  0  0  0  0  0  0  0
    2.5835   -2.6312    0.1869 N   0  0  0  0  0  0  0  0  0  0  0  0
    3.6734   -3.3688   -0.1052 C   0  0  0  0  0  0  0  0  0  0  0  0
    4.9176   -2.9409   -0.3758 N   0  0  0  0  0  0  0  0  0  0  0  0
    4.9766   -1.5994   -0.3401 C   0  0  0  0  0  0  0  0  0  0  0  0
    3.9481   -0.7137   -0.0625 C   0  0  0  0  0  0  0  0  0  0  0  0
    4.4148    0.5870   -0.1402 N   0  0  0  0  0  0  0  0  0  0  0  0
    5.6915    0.4967   -0.4630 C   0  0  0  0  0  0  0  0  0  0  0  0
    6.0839   -0.8185   -0.5614 N   0  0  0  0  0  0  0  0  0  0  0  0
    7.4008   -1.3672   -0.8032 C   0  0  0  0  0  0  0  0  0  0  0  0
    8.6056   -0.4205   -0.7552 C   0  0  0  0  0  0  0  0  0  0  0  0
    8.5976    0.5072    0.4576 C   0  0  0  0  0  0  0  0  0  0  0  0
    7.7298    1.7627    0.2889 C   0  0  0  0  0  0  0  0  0  0  0  0
    6.5901    1.6541   -0.7208 C   0  0  0  0  0  0  0  0  0  0  0  0
    0.3180   -1.2663    0.8926 C   0  0  0  0  0  0  0  0  0  0  0  0
   -3.4057   -0.6210    0.6945 N   0  0  0  0  0  0  0  0  0  0  0  0
   -4.6057   -1.2120    1.3084 C   0  0  0  0  0  0  0  0  0  0  0  0
   -5.8581   -1.1198    0.4181 C   0  0  0  0  0  0  0  0  0  0  0  0
   -6.0576    0.2770   -0.0252 N   0  0  0  0  0  0  0  0  0  0  0  0
   -7.2866    0.5895   -0.6404 C   0  0  0  0  0  0  0  0  0  0  0  0
   -7.7080    1.9347   -0.6255 C   0  0  0  0  0  0  0  0  0  0  0  0
   -8.9259    2.3328   -1.1910 C   0  0  0  0  0  0  0  0  0  0  0  0
   -9.7587    1.3901   -1.7874 C   0  0  0  0  0  0  0  0  0  0  0  0
   -9.3688    0.0527   -1.8213 C   0  0  0  0  0  0  0  0  0  0  0  0
   -8.1531   -0.3371   -1.2501 C   0  0  0  0  0  0  0  0  0  0  0  0
   -7.8284   -1.6383   -1.3280 F   0  0  0  0  0  0  0  0  0  0  0  0
   -4.8914    0.7806   -0.7844 C   0  0  0  0  0  0  0  0  0  0  0  0
   -3.6145    0.6996    0.0788 C   0  0  0  0  0  0  0  0  0  0  0  0
   -0.9750   -0.1422   -0.3709 H   0  0  0  0  0  0  0  0  0  0  0  0
   -0.9451    1.8039    0.8012 H   0  0  0  0  0  0  0  0  0  0  0  0
   -1.5314    1.0411    2.2691 H   0  0  0  0  0  0  0  0  0  0  0  0
    0.6588    0.4925    3.0157 H   0  0  0  0  0  0  0  0  0  0  0  0
    0.7195    2.1668    2.4852 H   0  0  0  0  0  0  0  0  0  0  0  0
    2.6705    0.8172    1.7619 H   0  0  0  0  0  0  0  0  0  0  0  0
    1.8137    1.5513    0.3912 H   0  0  0  0  0  0  0  0  0  0  0  0
    3.5217   -4.4438   -0.1242 H   0  0  0  0  0  0  0  0  0  0  0  0
    7.5512   -2.1463   -0.0433 H   0  0  0  0  0  0  0  0  0  0  0  0
    7.3644   -1.8643   -1.7818 H   0  0  0  0  0  0  0  0  0  0  0  0
    9.5094   -1.0399   -0.7137 H   0  0  0  0  0  0  0  0  0  0  0  0
    8.6821    0.1543   -1.6851 H   0  0  0  0  0  0  0  0  0  0  0  0
    9.6240    0.8284    0.6738 H   0  0  0  0  0  0  0  0  0  0  0  0
    8.2684   -0.0501    1.3435 H   0  0  0  0  0  0  0  0  0  0  0  0
    8.3751    2.5936   -0.0268 H   0  0  0  0  0  0  0  0  0  0  0  0
    7.3357    2.0499    1.2736 H   0  0  0  0  0  0  0  0  0  0  0  0
    6.9776    1.5927   -1.7456 H   0  0  0  0  0  0  0  0  0  0  0  0
    6.0014    2.5796   -0.6856 H   0  0  0  0  0  0  0  0  0  0  0  0
    0.3893   -1.6432    1.9217 H   0  0  0  0  0  0  0  0  0  0  0  0
    0.1865   -2.1377    0.2372 H   0  0  0  0  0  0  0  0  0  0  0  0
   -4.7746   -0.6690    2.2485 H   0  0  0  0  0  0  0  0  0  0  0  0
   -4.4291   -2.2625    1.5657 H   0  0  0  0  0  0  0  0  0  0  0  0
   -6.7178   -1.4621    1.0028 H   0  0  0  0  0  0  0  0  0  0  0  0
   -5.7237   -1.7839   -0.4436 H   0  0  0  0  0  0  0  0  0  0  0  0
   -7.0871    2.6861   -0.1415 H   0  0  0  0  0  0  0  0  0  0  0  0
   -9.2202    3.3787   -1.1634 H   0  0  0  0  0  0  0  0  0  0  0  0
  -10.7019    1.6934   -2.2338 H   0  0  0  0  0  0  0  0  0  0  0  0
  -10.0018   -0.6964   -2.2894 H   0  0  0  0  0  0  0  0  0  0  0  0
   -5.0222    1.8245   -1.0959 H   0  0  0  0  0  0  0  0  0  0  0  0
   -4.7560    0.1792   -1.6938 H   0  0  0  0  0  0  0  0  0  0  0  0
   -2.7615    0.9743   -0.5445 H   0  0  0  0  0  0  0  0  0  0  0  0
   -3.6810    1.4245    0.9010 H   0  0  0  0  0  0  0  0  0  0  0  0
  1  2  2  0
  2  3  1  0
  3  4  1  0
  4  5  1  0
  5  6  1  0
  6  7  1  0
  7  8  1  0
  8  9  2  0
  9 10  1  0
 10 11  2  0
 11 12  1  0
 12 13  2  0
 13 14  1  0
 14 15  2  0
 15 16  1  0
 16 17  1  0
 17 18  1  0
 18 19  1  0
 19 20  1  0
 20 21  1  0
  7 22  1  0
  2 23  1  0
 23 24  1  0
 24 25  1  0
 25 26  1  0
 26 27  1  0
 27 28  2  0
 28 29  1  0
 29 30  2  0
 30 31  1  0
 31 32  2  0
 32 33  1  0
 26 34  1  0
 34 35  1  0
 22  3  1  0
 35 23  1  0
 13  8  1  0
 21 15  1  0
 32 27  1  0
 16 12  1  0
  3 36  1  0
  4 37  1  0
  4 38  1  0
  5 39  1  0
  5 40  1  0
  6 41  1  0
  6 42  1  0
 10 43  1  0
 17 44  1  0
 17 45  1  0
 18 46  1  0
 18 47  1  0
 19 48  1  0
 19 49  1  0
 20 50  1  0
 20 51  1  0
 21 52  1  0
 21 53  1  0
 22 54  1  0
 22 55  1  0
 24 56  1  0
 24 57  1  0
 25 58  1  0
 25 59  1  0
 28 60  1  0
 29 61  1  0
 30 62  1  0
 31 63  1  0
 34 64  1  0
 34 65  1  0
 35 66  1  0
 35 67  1  0
M  END
$$$$
