
     RDKit          3D

 54 56  0  0  0  0  0  0  0  0999 V2000
    7.0034    1.6733   -0.3858 C   0  0  0  0  0  0  0  0  0  0  0  0
    6.2067    0.4526    0.0637 C   0  0  0  0  0  0  0  0  0  0  0  0
    4.8884    0.8049    0.6070 N   0  0  0  0  0  0  0  0  0  0  0  0
    4.0186    1.4422   -0.4111 C   0  0  0  0  0  0  0  0  0  0  0  0
    2.5083    1.1752   -0.2194 C   0  0  0  0  0  0  0  0  0  0  0  0
    2.2456   -0.2704   -0.3143 N   0  0  0  0  0  0  0  0  0  0  0  0
    0.9116   -0.6618   -0.3437 C   0  0  0  0  0  0  0  0  0  0  0  0
    0.5584   -1.9799   -0.5516 C   0  0  0  0  0  0  0  0  0  0  0  0
   -0.7857   -2.2847   -0.5799 C   0  0  0  0  0  0  0  0  0  0  0  0
   -1.2644   -3.9862   -0.8539 S   0  0  0  0  0  0  0  0  0  0  0  0
   -3.0598   -3.9426   -0.4695 C   0  0  0  0  0  0  0  0  0  0  0  0
   -3.2844   -3.8981    1.0401 C   0  0  0  0  0  0  0  0  0  0  0  0
   -3.7029   -5.1945   -1.0643 C   0  0  0  0  0  0  0  0  0  0  0  0
   -1.7444   -1.3628   -0.4327 N   0  0  0  0  0  0  0  0  0  0  0  0
   -1.3307   -0.1000   -0.2561 C   0  0  0  0  0  0  0  0  0  0  0  0
   -2.3612    0.9472   -0.0968 C   0  0  0  0  0  0  0  0  0  0  0  0
   -2.0160    2.2975    0.1019 C   0  0  0  0  0  0  0  0  0  0  0  0
   -2.9891    3.2964    0.2538 C   0  0  0  0  0  0  0  0  0  0  0  0
   -4.3413    2.9686    0.2100 C   0  0  0  0  0  0  0  0  0  0  0  0
   -5.3875    3.8383    0.3420 O   0  0  0  0  0  0  0  0  0  0  0  0
   -5.0623    5.2105    0.5253 C   0  0  0  0  0  0  0  0  0  0  0  0
   -4.7074    1.6378    0.0150 C   0  0  0  0  0  0  0  0  0  0  0  0
   -3.7339    0.6431   -0.1364 C   0  0  0  0  0  0  0  0  0  0  0  0
   -0.0396    0.2778   -0.2115 N   0  0  0  0  0  0  0  0  0  0  0  0
    3.2496   -1.1497    0.3102 C   0  0  0  0  0  0  0  0  0  0  0  0
    4.2199   -0.3616    1.2227 C   0  0  0  0  0  0  0  0  0  0  0  0
    7.1078    2.3974    0.4292 H   0  0  0  0  0  0  0  0  0  0  0  0
    6.5357    2.1773   -1.2370 H   0  0  0  0  0  0  0  0  0  0  0  0
    8.0086    1.3689   -0.6945 H   0  0  0  0  0  0  0  0  0  0  0  0
    6.7971   -0.0430    0.8443 H   0  0  0  0  0  0  0  0  0  0  0  0
    6.1151   -0.2576   -0.7674 H   0  0  0  0  0  0  0  0  0  0  0  0
    4.1928    2.5240   -0.3912 H   0  0  0  0  0  0  0  0  0  0  0  0
    4.2852    1.0864   -1.4159 H   0  0  0  0  0  0  0  0  0  0  0  0
    2.1773    1.5679    0.7506 H   0  0  0  0  0  0  0  0  0  0  0  0
    1.9680    1.7136   -1.0081 H   0  0  0  0  0  0  0  0  0  0  0  0
    1.3033   -2.7479   -0.7097 H   0  0  0  0  0  0  0  0  0  0  0  0
   -3.5222   -3.0712   -0.9451 H   0  0  0  0  0  0  0  0  0  0  0  0
   -2.8521   -4.7722    1.5407 H   0  0  0  0  0  0  0  0  0  0  0  0
   -2.8542   -2.9989    1.4923 H   0  0  0  0  0  0  0  0  0  0  0  0
   -4.3574   -3.8886    1.2630 H   0  0  0  0  0  0  0  0  0  0  0  0
   -4.7816   -5.1967   -0.8708 H   0  0  0  0  0  0  0  0  0  0  0  0
   -3.2887   -6.1137   -0.6336 H   0  0  0  0  0  0  0  0  0  0  0  0
   -3.5698   -5.2325   -2.1518 H   0  0  0  0  0  0  0  0  0  0  0  0
   -0.9666    2.5871    0.1405 H   0  0  0  0  0  0  0  0  0  0  0  0
   -2.6504    4.3158    0.4040 H   0  0  0  0  0  0  0  0  0  0  0  0
   -6.0001    5.7695    0.6022 H   0  0  0  0  0  0  0  0  0  0  0  0
   -4.5063    5.3632    1.4563 H   0  0  0  0  0  0  0  0  0  0  0  0
   -4.5103    5.6039   -0.3349 H   0  0  0  0  0  0  0  0  0  0  0  0
   -5.7600    1.3680   -0.0212 H   0  0  0  0  0  0  0  0  0  0  0  0
   -4.0620   -0.3837   -0.2884 H   0  0  0  0  0  0  0  0  0  0  0  0
    3.8152   -1.6519   -0.4834 H   0  0  0  0  0  0  0  0  0  0  0  0
    2.7827   -1.9262    0.9283 H   0  0  0  0  0  0  0  0  0  0  0  0
    3.6418    0.0199    2.0755 H   0  0  0  0  0  0  0  0  0  0  0  0
    4.9510   -1.0521    1.6614 H   0  0  0  0  0  0  0  0  0  0  0  0
  1  2  1  0
  2  3  1  0
  3  4  1  0
  4  5  1  0
  5  6  1  0
  6  7  1  0
  7  8  2  0
  8  9  1  0
  9 10  1  0
 10 11  1  0
 11 12  1  0
 11 13  1  0
  9 14  2  0
 14 15  1  0
 15 16  1  0
 16 17  2  0
 17 18  1  0
 18 19  2  0
 19 20  1  0
 20 21  1  0
 19 22  1  0
 22 23  2  0
 15 24  2  0
  6 25  1  0
 25 26  1  0
 26  3  1  0
 24  7  1  0
 23 16  1  0
  1 27  1  0
  1 28  1  0
  1 29  1  0
  2 30  1  0
  2 31  1  0
  4 32  1  0
  4 33  1  0
  5 34  1  0
  5 35  1  0
  8 36  1  0
 11 37  1  0
 12 38  1  0
 12 39  1  0
 12 40  1  0
 13 41  1  0
 13 42  1  0
 13 43  1  0
 17 44  1  0
 18 45  1  0
 21 46  1  0
 21 47  1  0
 21 48  1  0
 22 49  1  0
 23 50  1  0
 25 51  1  0
 25 52  1  0
 26 53  1  0
 26 54  1  0
M  END
$$$$
