
     RDKit          3D

 45 46  0  0  0  0  0  0  0  0999 V2000
    6.6637    1.1328   -2.2858 C   0  0  0  0  0  0  0  0  0  0  0  0
    5.6009    1.2950   -1.3571 O   0  0  0  0  0  0  0  0  0  0  0  0
    4.3640    0.8334   -1.7273 C   0  0  0  0  0  0  0  0  0  0  0  0
    4.1098    0.0686   -2.8677 C   0  0  0  0  0  0  0  0  0  0  0  0
    2.8073   -0.3358   -3.1686 C   0  0  0  0  0  0  0  0  0  0  0  0
    1.7464    0.0172   -2.3324 C   0  0  0  0  0  0  0  0  0  0  0  0
    1.9721    0.7642   -1.1683 C   0  0  0  0  0  0  0  0  0  0  0  0
    0.8528    1.1744   -0.3012 C   0  0  0  0  0  0  0  0  0  0  0  0
   -0.2005    0.3949   -0.0100 C   0  0  0  0  0  0  0  0  0  0  0  0
   -1.2531    0.8902    0.9179 C   0  0  0  0  0  0  0  0  0  0  0  0
   -1.0287    1.8317    1.6744 O   0  0  0  0  0  0  0  0  0  0  0  0
   -2.4672    0.2282    0.8858 N   0  0  0  0  0  0  0  0  0  0  0  0
   -2.8702   -0.7675   -0.1122 C   0  0  0  0  0  0  0  0  0  0  0  0
   -4.3958   -0.9589   -0.1429 C   0  0  0  0  0  0  0  0  0  0  0  0
   -4.7910   -2.0353   -1.1443 C   0  0  0  0  0  0  0  0  0  0  0  0
   -4.8993   -1.3540    1.1399 O   0  0  0  0  0  0  0  0  0  0  0  0
   -4.3995   -0.5749    2.2426 C   0  0  0  0  0  0  0  0  0  0  0  0
   -3.6744   -1.5305    3.1868 C   0  0  0  0  0  0  0  0  0  0  0  0
   -3.5054    0.6149    1.8409 C   0  0  0  0  0  0  0  0  0  0  0  0
    3.2919    1.1614   -0.8747 C   0  0  0  0  0  0  0  0  0  0  0  0
    3.5223    1.9474    0.2347 O   0  0  0  0  0  0  0  0  0  0  0  0
    3.9542    1.1387    1.3290 C   0  0  0  0  0  0  0  0  0  0  0  0
    7.5474    1.6284   -1.8724 H   0  0  0  0  0  0  0  0  0  0  0  0
    6.4322    1.6104   -3.2438 H   0  0  0  0  0  0  0  0  0  0  0  0
    6.9091    0.0743   -2.4197 H   0  0  0  0  0  0  0  0  0  0  0  0
    4.9020   -0.2240   -3.5486 H   0  0  0  0  0  0  0  0  0  0  0  0
    2.6165   -0.9177   -4.0673 H   0  0  0  0  0  0  0  0  0  0  0  0
    0.7406   -0.2842   -2.6137 H   0  0  0  0  0  0  0  0  0  0  0  0
    0.9393    2.1681    0.1377 H   0  0  0  0  0  0  0  0  0  0  0  0
   -0.2828   -0.6124   -0.3910 H   0  0  0  0  0  0  0  0  0  0  0  0
   -2.5054   -0.4608   -1.0983 H   0  0  0  0  0  0  0  0  0  0  0  0
   -2.3753   -1.7050    0.1676 H   0  0  0  0  0  0  0  0  0  0  0  0
   -4.8904   -0.0213   -0.4258 H   0  0  0  0  0  0  0  0  0  0  0  0
   -5.8786   -2.1656   -1.1555 H   0  0  0  0  0  0  0  0  0  0  0  0
   -4.4597   -1.7796   -2.1552 H   0  0  0  0  0  0  0  0  0  0  0  0
   -4.3613   -3.0044   -0.8676 H   0  0  0  0  0  0  0  0  0  0  0  0
   -5.2761   -0.1838    2.7719 H   0  0  0  0  0  0  0  0  0  0  0  0
   -4.3445   -2.3400    3.4964 H   0  0  0  0  0  0  0  0  0  0  0  0
   -3.3195   -1.0119    4.0826 H   0  0  0  0  0  0  0  0  0  0  0  0
   -2.8191   -2.0054    2.6947 H   0  0  0  0  0  0  0  0  0  0  0  0
   -3.0666    1.0847    2.7281 H   0  0  0  0  0  0  0  0  0  0  0  0
   -4.1124    1.3781    1.3380 H   0  0  0  0  0  0  0  0  0  0  0  0
    4.0389    1.7849    2.2078 H   0  0  0  0  0  0  0  0  0  0  0  0
    3.2268    0.3519    1.5580 H   0  0  0  0  0  0  0  0  0  0  0  0
    4.9387    0.6991    1.1386 H   0  0  0  0  0  0  0  0  0  0  0  0
  1  2  1  0
  2  3  1  0
  3  4  2  0
  4  5  1  0
  5  6  2  0
  6  7  1  0
  7  8  1  0
  8  9  2  3
  9 10  1  0
 10 11  2  0
 10 12  1  0
 12 13  1  0
 13 14  1  0
 14 15  1  0
 14 16  1  0
 16 17  1  0
 17 18  1  0
 17 19  1  0
  7 20  2  0
 20 21  1  0
 21 22  1  0
 20  3  1  0
 19 12  1  0
  1 23  1  0
  1 24  1  0
  1 25  1  0
  4 26  1  0
  5 27  1  0
  6 28  1  0
  8 29  1  0
  9 30  1  0
 13 31  1  0
 13 32  1  0
 14 33  1  0
 15 34  1  0
 15 35  1  0
 15 36  1  0
 17 37  1  0
 18 38  1  0
 18 39  1  0
 18 40  1  0
 19 41  1  0
 19 42  1  0
 22 43  1  0
 22 44  1  0
 22 45  1  0
M  END
$$$$
