
     RDKit          3D

 36 37  0  0  0  0  0  0  0  0999 V2000
    4.1150    2.8807   -0.3542 C   0  0  0  0  0  0  0  0  0  0  0  0
    3.6645    1.5917   -0.8152 N   0  0  0  0  0  0  0  0  0  0  0  0
    2.6154    0.9411   -0.1918 C   0  0  0  0  0  0  0  0  0  0  0  0
    2.0593    1.3790    0.8107 O   0  0  0  0  0  0  0  0  0  0  0  0
    2.2298   -0.3752   -0.8637 C   0  0  0  0  0  0  0  0  0  0  0  0
    1.0157   -0.8942   -0.3194 O   0  0  0  0  0  0  0  0  0  0  0  0
    0.7360   -2.1573   -0.7177 C   0  0  0  0  0  0  0  0  0  0  0  0
    1.4181   -2.8153   -1.4890 O   0  0  0  0  0  0  0  0  0  0  0  0
   -0.4949   -2.6791   -0.0592 C   0  0  0  0  0  0  0  0  0  0  0  0
   -0.5696   -4.0827    0.0380 C   0  0  0  0  0  0  0  0  0  0  0  0
   -1.6783   -4.7003    0.6099 C   0  0  0  0  0  0  0  0  0  0  0  0
   -2.7256   -3.9211    1.0827 C   0  0  0  0  0  0  0  0  0  0  0  0
   -2.6689   -2.5267    0.9825 C   0  0  0  0  0  0  0  0  0  0  0  0
   -1.5621   -1.8797    0.4131 C   0  0  0  0  0  0  0  0  0  0  0  0
   -1.5090   -0.4712    0.2921 N   0  0  0  0  0  0  0  0  0  0  0  0
   -2.4650    0.4758    0.6136 C   0  0  0  0  0  0  0  0  0  0  0  0
   -3.5699    0.2403    1.0915 O   0  0  0  0  0  0  0  0  0  0  0  0
   -2.0346    1.8295    0.3106 C   0  0  0  0  0  0  0  0  0  0  0  0
   -2.6416    3.0507    0.5367 C   0  0  0  0  0  0  0  0  0  0  0  0
   -1.7597    4.0425    0.0448 C   0  0  0  0  0  0  0  0  0  0  0  0
   -0.6714    3.3703   -0.4578 C   0  0  0  0  0  0  0  0  0  0  0  0
   -0.8324    2.0296   -0.3188 O   0  0  0  0  0  0  0  0  0  0  0  0
    4.1494    2.9034    0.7383 H   0  0  0  0  0  0  0  0  0  0  0  0
    5.1106    3.0681   -0.7628 H   0  0  0  0  0  0  0  0  0  0  0  0
    3.4177    3.6427   -0.7125 H   0  0  0  0  0  0  0  0  0  0  0  0
    3.9822    1.2660   -1.7195 H   0  0  0  0  0  0  0  0  0  0  0  0
    2.0901   -0.1925   -1.9351 H   0  0  0  0  0  0  0  0  0  0  0  0
    3.0552   -1.0784   -0.7002 H   0  0  0  0  0  0  0  0  0  0  0  0
    0.2437   -4.7030   -0.3363 H   0  0  0  0  0  0  0  0  0  0  0  0
   -1.7251   -5.7839    0.6830 H   0  0  0  0  0  0  0  0  0  0  0  0
   -3.5973   -4.3925    1.5312 H   0  0  0  0  0  0  0  0  0  0  0  0
   -3.5185   -1.9725    1.3699 H   0  0  0  0  0  0  0  0  0  0  0  0
   -0.6341   -0.0765   -0.0522 H   0  0  0  0  0  0  0  0  0  0  0  0
   -3.6026    3.1931    1.0125 H   0  0  0  0  0  0  0  0  0  0  0  0
   -1.8963    5.1146    0.0624 H   0  0  0  0  0  0  0  0  0  0  0  0
    0.2544    3.6830   -0.9201 H   0  0  0  0  0  0  0  0  0  0  0  0
  1  2  1  0
  2  3  1  0
  3  4  2  0
  3  5  1  0
  5  6  1  0
  6  7  1  0
  7  8  2  0
  7  9  1  0
  9 10  2  0
 10 11  1  0
 11 12  2  0
 12 13  1  0
 13 14  2  0
 14 15  1  0
 15 16  1  0
 16 17  2  0
 16 18  1  0
 18 19  2  0
 19 20  1  0
 20 21  2  0
 21 22  1  0
 14  9  1  0
 22 18  1  0
  1 23  1  0
  1 24  1  0
  1 25  1  0
  2 26  1  0
  5 27  1  0
  5 28  1  0
 10 29  1  0
 11 30  1  0
 12 31  1  0
 13 32  1  0
 15 33  1  0
 19 34  1  0
 20 35  1  0
 21 36  1  0
M  END
$$$$
