
     RDKit          3D

 41 42  0  0  0  0  0  0  0  0999 V2000
   -4.4173   -1.7370    1.6928 C   0  0  0  0  0  0  0  0  0  0  0  0
   -3.2696   -0.8785    1.2421 C   0  0  0  0  0  0  0  0  0  0  0  0
   -3.3527    0.2669    0.5337 C   0  0  0  0  0  0  0  0  0  0  0  0
   -4.6101    0.9348    0.0551 C   0  0  0  0  0  0  0  0  0  0  0  0
   -2.0731    1.0067    0.2142 C   0  0  0  0  0  0  0  0  0  0  0  0
   -0.9619    0.0606   -0.2686 C   0  0  0  0  0  0  0  0  0  0  0  0
    0.3766    0.8056   -0.3269 C   0  0  0  0  0  0  0  0  0  0  0  0
    0.5185    1.9224    0.1578 O   0  0  0  0  0  0  0  0  0  0  0  0
    1.3617    0.0803   -0.9775 N   0  0  0  0  0  0  0  0  0  0  0  0
    2.7008    0.4536   -1.2129 C   0  0  0  0  0  0  0  0  0  0  0  0
    3.5050   -0.4780   -1.8871 C   0  0  0  0  0  0  0  0  0  0  0  0
    4.8458   -0.2038   -2.1685 C   0  0  0  0  0  0  0  0  0  0  0  0
    5.4025    1.0109   -1.7779 C   0  0  0  0  0  0  0  0  0  0  0  0
    4.6054    1.9458   -1.1046 C   0  0  0  0  0  0  0  0  0  0  0  0
    5.1934    3.2278   -0.6929 N   0  0  0  0  0  4  0  0  0  0  0  0
    4.4701    4.0355   -0.0949 O   0  0  0  0  0  0  0  0  0  0  0  0
    6.3857    3.4270   -0.9694 O   0  0  0  0  0  1  0  0  0  0  0  0
    3.2577    1.6730   -0.8203 C   0  0  0  0  0  0  0  0  0  0  0  0
   -0.8298   -1.2233    0.5871 C   0  0  0  0  0  0  0  0  0  0  0  0
   -0.8613   -2.4430   -0.3157 C   0  0  0  0  0  0  0  0  0  0  0  0
   -1.5979   -3.4106   -0.2538 O   0  0  0  0  0  0  0  0  0  0  0  0
    0.1120   -2.4113   -1.2580 O   0  0  0  0  0  0  0  0  0  0  0  0
   -1.9024   -1.3589    1.6804 C   0  0  0  0  0  0  0  0  0  0  0  0
   -5.3950   -1.3638    1.3842 H   0  0  0  0  0  0  0  0  0  0  0  0
   -4.4244   -1.8082    2.7856 H   0  0  0  0  0  0  0  0  0  0  0  0
   -4.3120   -2.7470    1.2826 H   0  0  0  0  0  0  0  0  0  0  0  0
   -4.6036    1.0037   -1.0378 H   0  0  0  0  0  0  0  0  0  0  0  0
   -4.6734    1.9490    0.4637 H   0  0  0  0  0  0  0  0  0  0  0  0
   -5.5239    0.4128    0.3429 H   0  0  0  0  0  0  0  0  0  0  0  0
   -2.2516    1.7571   -0.5673 H   0  0  0  0  0  0  0  0  0  0  0  0
   -1.7687    1.5681    1.1075 H   0  0  0  0  0  0  0  0  0  0  0  0
   -1.2099   -0.2002   -1.3085 H   0  0  0  0  0  0  0  0  0  0  0  0
    1.0886   -0.8401   -1.3203 H   0  0  0  0  0  0  0  0  0  0  0  0
    3.0960   -1.4354   -2.2033 H   0  0  0  0  0  0  0  0  0  0  0  0
    5.4538   -0.9383   -2.6919 H   0  0  0  0  0  0  0  0  0  0  0  0
    6.4478    1.2137   -2.0024 H   0  0  0  0  0  0  0  0  0  0  0  0
    2.6639    2.4172   -0.2982 H   0  0  0  0  0  0  0  0  0  0  0  0
    0.1428   -1.2646    1.0965 H   0  0  0  0  0  0  0  0  0  0  0  0
   -0.0282   -3.2669   -1.7262 H   0  0  0  0  0  0  0  0  0  0  0  0
   -1.9563   -2.3972    2.0313 H   0  0  0  0  0  0  0  0  0  0  0  0
   -1.6049   -0.7663    2.5564 H   0  0  0  0  0  0  0  0  0  0  0  0
  1  2  1  0
  2  3  2  0
  3  4  1  0
  3  5  1  0
  5  6  1  0
  6  7  1  0
  7  8  2  0
  7  9  1  0
  9 10  1  0
 10 11  2  0
 11 12  1  0
 12 13  2  0
 13 14  1  0
 14 15  1  0
 15 16  2  0
 15 17  1  0
 14 18  2  0
  6 19  1  0
 19 20  1  0
 20 21  2  0
 20 22  1  0
 19 23  1  0
 23  2  1  0
 18 10  1  0
  1 24  1  0
  1 25  1  0
  1 26  1  0
  4 27  1  0
  4 28  1  0
  4 29  1  0
  5 30  1  0
  5 31  1  0
  6 32  1  0
  9 33  1  0
 11 34  1  0
 12 35  1  0
 13 36  1  0
 18 37  1  0
 19 38  1  0
 22 39  1  0
 23 40  1  0
 23 41  1  0
M  CHG  2  15   1  17  -1
M  END
$$$$
