
     RDKit          3D

 50 52  0  0  0  0  0  0  0  0999 V2000
    2.9193   -0.5424    1.0736 O   0  0  0  0  0  0  0  0  0  0  0  0
    3.2064    0.1016    0.0740 C   0  0  0  0  0  0  0  0  0  0  0  0
    4.4970    0.8520   -0.1764 C   0  0  0  0  0  0  0  0  0  0  0  0
    5.5503    0.6302    0.8841 C   0  0  0  0  0  0  0  0  0  0  0  0
    6.4745   -0.4188    0.7578 C   0  0  0  0  0  0  0  0  0  0  0  0
    7.4367   -0.6327    1.7452 C   0  0  0  0  0  0  0  0  0  0  0  0
    7.4714    0.1955    2.8598 C   0  0  0  0  0  0  0  0  0  0  0  0
    8.3954   -0.0117    3.8066 F   0  0  0  0  0  0  0  0  0  0  0  0
    6.5609    1.2339    3.0074 C   0  0  0  0  0  0  0  0  0  0  0  0
    5.5976    1.4511    2.0215 C   0  0  0  0  0  0  0  0  0  0  0  0
    2.3769    0.2615   -0.9955 O   0  0  0  0  0  0  0  0  0  0  0  0
    1.1283   -0.4171   -0.8590 C   0  0  0  0  0  0  0  0  0  0  0  0
    0.2600   -0.2396   -2.1089 C   0  0  0  0  0  0  0  0  0  0  0  0
    0.6851    0.3292   -3.1154 O   0  0  0  0  0  0  0  0  0  0  0  0
   -1.0330   -0.7503   -2.0482 N   0  0  0  0  0  0  0  0  0  0  0  0
   -1.6030   -1.4243   -0.8761 C   0  0  0  0  0  0  0  0  0  0  0  0
   -2.9050   -2.1769   -1.1841 C   0  0  0  0  0  0  0  0  0  0  0  0
   -3.9104   -1.3068   -1.8493 N   0  0  0  0  0  0  0  0  0  0  0  0
   -5.3523   -0.9669   -1.0331 S   0  0  0  0  0  6  0  0  0  0  0  0
   -6.1952   -0.1891   -1.9149 O   0  0  0  0  0  0  0  0  0  0  0  0
   -5.8230   -2.1922   -0.4240 O   0  0  0  0  0  0  0  0  0  0  0  0
   -4.8270    0.1104    0.2885 C   0  0  0  0  0  0  0  0  0  0  0  0
   -4.4681   -0.4360    1.5260 C   0  0  0  0  0  0  0  0  0  0  0  0
   -4.0674    0.4090    2.5621 C   0  0  0  0  0  0  0  0  0  0  0  0
   -4.0485    1.7901    2.3634 C   0  0  0  0  0  0  0  0  0  0  0  0
   -3.5474    2.8278    3.6400 Cl  0  0  0  0  0  0  0  0  0  0  0  0
   -4.4365    2.3368    1.1398 C   0  0  0  0  0  0  0  0  0  0  0  0
   -4.8375    1.4967    0.0995 C   0  0  0  0  0  0  0  0  0  0  0  0
   -3.3616   -0.2466   -2.7407 C   0  0  0  0  0  0  0  0  0  0  0  0
   -1.9321   -0.5670   -3.1931 C   0  0  0  0  0  0  0  0  0  0  0  0
    4.2670    1.9220   -0.2420 H   0  0  0  0  0  0  0  0  0  0  0  0
    4.8979    0.5415   -1.1485 H   0  0  0  0  0  0  0  0  0  0  0  0
    6.4491   -1.0767   -0.1076 H   0  0  0  0  0  0  0  0  0  0  0  0
    8.1547   -1.4410    1.6551 H   0  0  0  0  0  0  0  0  0  0  0  0
    6.6040    1.8633    3.8894 H   0  0  0  0  0  0  0  0  0  0  0  0
    4.8825    2.2604    2.1495 H   0  0  0  0  0  0  0  0  0  0  0  0
    0.5900   -0.0020    0.0002 H   0  0  0  0  0  0  0  0  0  0  0  0
    1.3128   -1.4891   -0.7268 H   0  0  0  0  0  0  0  0  0  0  0  0
   -0.8656   -2.1198   -0.4643 H   0  0  0  0  0  0  0  0  0  0  0  0
   -1.7849   -0.6477   -0.1249 H   0  0  0  0  0  0  0  0  0  0  0  0
   -3.2965   -2.6164   -0.2615 H   0  0  0  0  0  0  0  0  0  0  0  0
   -2.6981   -3.0150   -1.8617 H   0  0  0  0  0  0  0  0  0  0  0  0
   -4.5054   -1.5104    1.6941 H   0  0  0  0  0  0  0  0  0  0  0  0
   -3.7832   -0.0114    3.5238 H   0  0  0  0  0  0  0  0  0  0  0  0
   -4.4381    3.4143    0.9944 H   0  0  0  0  0  0  0  0  0  0  0  0
   -5.1590    1.9283   -0.8463 H   0  0  0  0  0  0  0  0  0  0  0  0
   -4.0053   -0.1577   -3.6222 H   0  0  0  0  0  0  0  0  0  0  0  0
   -3.3535    0.7135   -2.2159 H   0  0  0  0  0  0  0  0  0  0  0  0
   -1.9127   -1.5019   -3.7659 H   0  0  0  0  0  0  0  0  0  0  0  0
   -1.5675    0.2300   -3.8494 H   0  0  0  0  0  0  0  0  0  0  0  0
  1  2  2  0
  2  3  1  0
  3  4  1  0
  4  5  2  0
  5  6  1  0
  6  7  2  0
  7  8  1  0
  7  9  1  0
  9 10  2  0
  2 11  1  0
 11 12  1  0
 12 13  1  0
 13 14  2  0
 13 15  1  0
 15 16  1  0
 16 17  1  0
 17 18  1  0
 18 19  1  0
 19 20  2  0
 19 21  2  0
 19 22  1  0
 22 23  2  0
 23 24  1  0
 24 25  2  0
 25 26  1  0
 25 27  1  0
 27 28  2  0
 18 29  1  0
 29 30  1  0
 10  4  1  0
 30 15  1  0
 28 22  1  0
  3 31  1  0
  3 32  1  0
  5 33  1  0
  6 34  1  0
  9 35  1  0
 10 36  1  0
 12 37  1  0
 12 38  1  0
 16 39  1  0
 16 40  1  0
 17 41  1  0
 17 42  1  0
 23 43  1  0
 24 44  1  0
 27 45  1  0
 28 46  1  0
 29 47  1  0
 29 48  1  0
 30 49  1  0
 30 50  1  0
M  END
$$$$
