
     RDKit          3D

 42 44  0  0  0  0  0  0  0  0999 V2000
    5.7233   -4.5130    1.1996 N   0  0  0  0  0  0  0  0  0  0  0  0
    4.7818   -3.9032    1.4977 C   0  0  0  0  0  0  0  0  0  0  0  0
    3.6241   -3.1491    1.8487 C   0  0  0  0  0  0  0  0  0  0  0  0
    3.1841   -3.2533    3.2016 C   0  0  0  0  0  0  0  0  0  0  0  0
    2.8144   -3.3352    4.2989 N   0  0  0  0  0  0  0  0  0  0  0  0
    2.9837   -2.3700    0.9423 C   0  0  0  0  0  0  0  0  0  0  0  0
    1.7700   -1.6111    1.2497 C   0  0  0  0  0  0  0  0  0  0  0  0
    1.3360   -0.5952    0.4825 C   0  0  0  0  0  0  0  0  0  0  0  0
    0.0317    0.0105    0.7035 C   0  0  0  0  0  0  0  0  0  0  0  0
   -0.6373    0.7154   -0.2364 C   0  0  0  0  0  0  0  0  0  0  0  0
   -1.9245    1.2684   -0.0541 N   0  0  0  0  0  0  0  0  0  0  0  0
   -2.7593    0.9497    1.1242 C   0  0  0  0  0  0  0  0  0  0  0  0
   -4.2431    0.9515    0.7600 C   0  0  0  0  0  0  0  0  0  0  0  0
   -4.6620    2.2628    0.1109 C   0  0  0  0  0  0  0  0  0  0  0  0
   -3.7680    2.5616   -1.0844 C   0  0  0  0  0  0  0  0  0  0  0  0
   -2.2952    2.5546   -0.6862 C   0  0  0  0  0  0  0  0  0  0  0  0
   -0.0099    0.8786   -1.6239 C   0  0  0  0  0  0  0  0  0  0  0  0
    1.1930   -0.0350   -1.9046 C   0  0  0  0  0  0  0  0  0  0  0  0
    2.1194   -0.0427   -0.6886 C   0  0  0  0  0  0  0  0  0  0  0  0
    3.4465   -0.7728   -0.9431 C   0  0  0  0  0  0  0  0  0  0  0  0
    3.4084   -2.2363   -0.5142 C   0  0  0  0  0  0  0  0  0  0  0  0
    1.1665   -1.9291    2.0991 H   0  0  0  0  0  0  0  0  0  0  0  0
   -0.4077   -0.1573    1.6811 H   0  0  0  0  0  0  0  0  0  0  0  0
   -2.5566    1.6735    1.9228 H   0  0  0  0  0  0  0  0  0  0  0  0
   -2.5333   -0.0487    1.5138 H   0  0  0  0  0  0  0  0  0  0  0  0
   -4.4479    0.1251    0.0675 H   0  0  0  0  0  0  0  0  0  0  0  0
   -4.8445    0.7737    1.6586 H   0  0  0  0  0  0  0  0  0  0  0  0
   -5.7082    2.2052   -0.2089 H   0  0  0  0  0  0  0  0  0  0  0  0
   -4.5904    3.0778    0.8413 H   0  0  0  0  0  0  0  0  0  0  0  0
   -4.0324    3.5364   -1.5092 H   0  0  0  0  0  0  0  0  0  0  0  0
   -3.9402    1.8107   -1.8657 H   0  0  0  0  0  0  0  0  0  0  0  0
   -1.7085    2.7593   -1.5863 H   0  0  0  0  0  0  0  0  0  0  0  0
   -2.0876    3.3703    0.0178 H   0  0  0  0  0  0  0  0  0  0  0  0
   -0.7655    0.6925   -2.3970 H   0  0  0  0  0  0  0  0  0  0  0  0
    0.3238    1.9187   -1.7313 H   0  0  0  0  0  0  0  0  0  0  0  0
    1.7197    0.3300   -2.7943 H   0  0  0  0  0  0  0  0  0  0  0  0
    0.8449   -1.0511   -2.1332 H   0  0  0  0  0  0  0  0  0  0  0  0
    2.3818    1.0023   -0.4650 H   0  0  0  0  0  0  0  0  0  0  0  0
    4.2382   -0.2672   -0.3725 H   0  0  0  0  0  0  0  0  0  0  0  0
    3.7374   -0.6974   -1.9975 H   0  0  0  0  0  0  0  0  0  0  0  0
    2.6990   -2.7888   -1.1444 H   0  0  0  0  0  0  0  0  0  0  0  0
    4.3945   -2.6722   -0.7036 H   0  0  0  0  0  0  0  0  0  0  0  0
  1  2  3  0
  2  3  1  0
  3  4  1  0
  4  5  3  0
  3  6  2  3
  6  7  1  0
  7  8  2  0
  8  9  1  0
  9 10  2  0
 10 11  1  0
 11 12  1  0
 12 13  1  0
 13 14  1  0
 14 15  1  0
 15 16  1  0
 10 17  1  0
 17 18  1  0
 18 19  1  0
 19 20  1  0
 20 21  1  0
 21  6  1  0
 19  8  1  0
 16 11  1  0
  7 22  1  0
  9 23  1  0
 12 24  1  0
 12 25  1  0
 13 26  1  0
 13 27  1  0
 14 28  1  0
 14 29  1  0
 15 30  1  0
 15 31  1  0
 16 32  1  0
 16 33  1  0
 17 34  1  0
 17 35  1  0
 18 36  1  0
 18 37  1  0
 19 38  1  0
 20 39  1  0
 20 40  1  0
 21 41  1  0
 21 42  1  0
M  END
$$$$
