
     RDKit          3D

 50 51  0  0  0  0  0  0  0  0999 V2000
    5.6024    2.9431   -1.4671 C   0  0  0  0  0  0  0  0  0  0  0  0
    4.7975    1.6906   -1.2800 C   0  0  0  0  0  0  0  0  0  0  0  0
    5.3670    0.5824   -0.6386 C   0  0  0  0  0  0  0  0  0  0  0  0
    4.6351   -0.5969   -0.4779 C   0  0  0  0  0  0  0  0  0  0  0  0
    3.3225   -0.6809   -0.9553 C   0  0  0  0  0  0  0  0  0  0  0  0
    2.5484   -1.9102   -0.7903 C   0  0  0  0  0  0  0  0  0  0  0  0
    2.5784   -2.8983   -1.6939 C   0  0  0  0  0  0  0  0  0  0  0  0
    1.5258   -4.2009   -1.2565 S   0  0  0  0  0  0  0  0  0  0  0  0
    0.9986   -3.3488    0.2102 C   0  0  0  0  0  0  0  0  0  0  0  0
   -0.1475   -3.9553    1.2544 S   0  0  0  0  0  0  0  0  0  0  0  0
    1.7035   -2.1448    0.2902 N   0  0  0  0  0  0  0  0  0  0  0  0
    1.5061   -1.1576    1.3583 C   0  0  0  0  0  0  0  0  0  0  0  0
    0.4278   -0.1419    1.0016 C   0  0  0  0  0  0  0  0  0  0  0  0
   -0.2565   -0.1372   -0.0151 O   0  0  0  0  0  0  0  0  0  0  0  0
    0.3263    0.7825    1.9990 O   0  0  0  0  0  0  0  0  0  0  0  0
   -0.6575    1.7977    1.7894 C   0  0  0  0  0  0  0  0  0  0  0  0
   -2.0747    1.3146    2.0993 C   0  0  0  0  0  0  0  0  0  0  0  0
   -2.5958    1.4856    3.1981 O   0  0  0  0  0  0  0  0  0  0  0  0
   -2.6954    0.6761    1.0440 N   0  0  0  0  0  0  0  0  0  0  0  0
   -3.9830    0.0097    1.1999 C   0  0  0  0  0  0  0  0  0  0  0  0
   -3.7843   -1.3800    1.8101 C   0  0  0  0  0  0  0  0  0  0  0  0
   -4.7768   -0.0352   -0.1294 C   0  0  0  0  0  0  0  0  0  0  0  0
   -4.0898   -0.8314   -1.2441 C   0  0  0  0  0  0  0  0  0  0  0  0
   -5.0963    1.3809   -0.6252 C   0  0  0  0  0  0  0  0  0  0  0  0
    2.7566    0.4208   -1.6086 C   0  0  0  0  0  0  0  0  0  0  0  0
    3.4895    1.5989   -1.7696 C   0  0  0  0  0  0  0  0  0  0  0  0
    6.4003    2.7700   -2.1960 H   0  0  0  0  0  0  0  0  0  0  0  0
    4.9809    3.7684   -1.8290 H   0  0  0  0  0  0  0  0  0  0  0  0
    6.0453    3.2555   -0.5154 H   0  0  0  0  0  0  0  0  0  0  0  0
    6.3876    0.6329   -0.2626 H   0  0  0  0  0  0  0  0  0  0  0  0
    5.0968   -1.4459    0.0226 H   0  0  0  0  0  0  0  0  0  0  0  0
    3.1641   -2.9036   -2.6040 H   0  0  0  0  0  0  0  0  0  0  0  0
    2.4468   -0.6344    1.5563 H   0  0  0  0  0  0  0  0  0  0  0  0
    1.2062   -1.6652    2.2795 H   0  0  0  0  0  0  0  0  0  0  0  0
   -0.6026    2.2013    0.7699 H   0  0  0  0  0  0  0  0  0  0  0  0
   -0.4277    2.6319    2.4637 H   0  0  0  0  0  0  0  0  0  0  0  0
   -2.0790    0.3369    0.3052 H   0  0  0  0  0  0  0  0  0  0  0  0
   -4.5697    0.5941    1.9201 H   0  0  0  0  0  0  0  0  0  0  0  0
   -3.3147   -1.3083    2.7989 H   0  0  0  0  0  0  0  0  0  0  0  0
   -3.1324   -2.0031    1.1912 H   0  0  0  0  0  0  0  0  0  0  0  0
   -4.7436   -1.8940    1.9322 H   0  0  0  0  0  0  0  0  0  0  0  0
   -5.7369   -0.5274    0.0762 H   0  0  0  0  0  0  0  0  0  0  0  0
   -3.9310   -1.8746   -0.9540 H   0  0  0  0  0  0  0  0  0  0  0  0
   -4.7148   -0.8380   -2.1447 H   0  0  0  0  0  0  0  0  0  0  0  0
   -3.1223   -0.3993   -1.5195 H   0  0  0  0  0  0  0  0  0  0  0  0
   -5.6120    1.9570    0.1508 H   0  0  0  0  0  0  0  0  0  0  0  0
   -4.1891    1.9258   -0.9072 H   0  0  0  0  0  0  0  0  0  0  0  0
   -5.7516    1.3466   -1.5027 H   0  0  0  0  0  0  0  0  0  0  0  0
    1.7401    0.3678   -1.9966 H   0  0  0  0  0  0  0  0  0  0  0  0
    3.0314    2.4420   -2.2839 H   0  0  0  0  0  0  0  0  0  0  0  0
  1  2  1  0
  2  3  2  0
  3  4  1  0
  4  5  2  0
  5  6  1  0
  6  7  2  0
  7  8  1  0
  8  9  1  0
  9 10  2  0
  9 11  1  0
 11 12  1  0
 12 13  1  0
 13 14  2  0
 13 15  1  0
 15 16  1  0
 16 17  1  0
 17 18  2  0
 17 19  1  0
 19 20  1  0
 20 21  1  0
 20 22  1  0
 22 23  1  0
 22 24  1  0
  5 25  1  0
 25 26  2  0
 26  2  1  0
 11  6  1  0
  1 27  1  0
  1 28  1  0
  1 29  1  0
  3 30  1  0
  4 31  1  0
  7 32  1  0
 12 33  1  0
 12 34  1  0
 16 35  1  0
 16 36  1  0
 19 37  1  0
 20 38  1  0
 21 39  1  0
 21 40  1  0
 21 41  1  0
 22 42  1  0
 23 43  1  0
 23 44  1  0
 23 45  1  0
 24 46  1  0
 24 47  1  0
 24 48  1  0
 25 49  1  0
 26 50  1  0
M  END
$$$$
