
     RDKit          3D

 57 60  0  0  0  0  0  0  0  0999 V2000
   -3.6882   -2.8476   -0.3365 C   0  0  0  0  0  0  0  0  0  0  0  0
   -4.6631   -1.9055    0.2649 C   0  0  0  0  0  0  0  0  0  0  0  0
   -5.9733   -2.1705    0.1911 N   0  0  0  0  0  0  0  0  0  0  0  0
   -6.6082   -1.1238    0.8250 O   0  0  0  0  0  0  0  0  0  0  0  0
   -5.6841   -0.2391    1.2782 C   0  0  0  0  0  0  0  0  0  0  0  0
   -6.2120    0.9408    1.9883 C   0  0  0  0  0  0  0  0  0  0  0  0
   -4.4195   -0.6772    0.9427 C   0  0  0  0  0  0  0  0  0  0  0  0
   -3.1206   -0.0194    1.2466 C   0  0  0  0  0  0  0  0  0  0  0  0
   -2.1295   -0.1619    0.2242 O   0  0  0  0  0  0  0  0  0  0  0  0
   -2.2519    0.5455   -0.9396 C   0  0  0  0  0  0  0  0  0  0  0  0
   -3.1697    1.5737   -1.1666 C   0  0  0  0  0  0  0  0  0  0  0  0
   -3.1945    2.2438   -2.3966 C   0  0  0  0  0  0  0  0  0  0  0  0
   -2.3048    1.8969   -3.4127 C   0  0  0  0  0  0  0  0  0  0  0  0
   -1.3826    0.8762   -3.2028 C   0  0  0  0  0  0  0  0  0  0  0  0
   -1.3576    0.2133   -1.9695 C   0  0  0  0  0  0  0  0  0  0  0  0
   -0.3801   -0.8777   -1.7917 C   0  0  0  0  0  0  0  0  0  0  0  0
   -0.7746   -2.0329   -1.9259 O   0  0  0  0  0  0  0  0  0  0  0  0
    0.9447   -0.5349   -1.5239 N   0  0  0  0  0  0  0  0  0  0  0  0
    1.8727   -1.6242   -1.2014 C   0  0  0  0  0  0  0  0  0  0  0  0
    2.0027   -1.7834    0.3286 C   0  0  0  0  0  0  0  0  0  0  0  0
    2.4146   -0.4921    0.9542 N   0  0  0  0  0  0  0  0  0  0  0  0
    3.7845   -0.2846    1.1209 C   0  0  0  0  0  0  0  0  0  0  0  0
    4.5717   -1.2599    1.7567 C   0  0  0  0  0  0  0  0  0  0  0  0
    5.9463   -1.0966    1.9551 C   0  0  0  0  0  0  0  0  0  0  0  0
    6.5753    0.0670    1.5307 C   0  0  0  0  0  0  0  0  0  0  0  0
    5.8273    1.0791    0.9218 C   0  0  0  0  0  0  0  0  0  0  0  0
    6.4915    2.3450    0.4437 C   0  0  0  0  0  0  0  0  0  0  0  0
    5.6807    3.4377    0.5297 F   0  0  0  0  0  0  0  0  0  0  0  0
    6.8728    2.2679   -0.8613 F   0  0  0  0  0  0  0  0  0  0  0  0
    7.6159    2.6629    1.1443 F   0  0  0  0  0  0  0  0  0  0  0  0
    4.4436    0.8886    0.7253 C   0  0  0  0  0  0  0  0  0  0  0  0
    1.5107    0.6277    0.5917 C   0  0  0  0  0  0  0  0  0  0  0  0
    1.3457    0.7541   -0.9404 C   0  0  0  0  0  0  0  0  0  0  0  0
   -3.4690   -2.5552   -1.3677 H   0  0  0  0  0  0  0  0  0  0  0  0
   -4.0822   -3.8694   -0.3489 H   0  0  0  0  0  0  0  0  0  0  0  0
   -2.7525   -2.8629    0.2306 H   0  0  0  0  0  0  0  0  0  0  0  0
   -7.2003    0.7383    2.4130 H   0  0  0  0  0  0  0  0  0  0  0  0
   -5.5478    1.2306    2.8083 H   0  0  0  0  0  0  0  0  0  0  0  0
   -6.3006    1.7879    1.3014 H   0  0  0  0  0  0  0  0  0  0  0  0
   -3.2376    1.0360    1.5193 H   0  0  0  0  0  0  0  0  0  0  0  0
   -2.7046   -0.5052    2.1380 H   0  0  0  0  0  0  0  0  0  0  0  0
   -3.8883    1.8821   -0.4152 H   0  0  0  0  0  0  0  0  0  0  0  0
   -3.9211    3.0363   -2.5642 H   0  0  0  0  0  0  0  0  0  0  0  0
   -2.3387    2.4142   -4.3685 H   0  0  0  0  0  0  0  0  0  0  0  0
   -0.6949    0.5876   -3.9937 H   0  0  0  0  0  0  0  0  0  0  0  0
    1.5394   -2.5658   -1.6494 H   0  0  0  0  0  0  0  0  0  0  0  0
    2.8434   -1.3702   -1.6434 H   0  0  0  0  0  0  0  0  0  0  0  0
    1.0289   -2.0640    0.7497 H   0  0  0  0  0  0  0  0  0  0  0  0
    2.6867   -2.6080    0.5515 H   0  0  0  0  0  0  0  0  0  0  0  0
    4.1082   -2.1649    2.1435 H   0  0  0  0  0  0  0  0  0  0  0  0
    6.5170   -1.8777    2.4511 H   0  0  0  0  0  0  0  0  0  0  0  0
    7.6459    0.1872    1.6869 H   0  0  0  0  0  0  0  0  0  0  0  0
    3.8968    1.6895    0.2351 H   0  0  0  0  0  0  0  0  0  0  0  0
    0.5306    0.4125    1.0355 H   0  0  0  0  0  0  0  0  0  0  0  0
    1.8334    1.5766    1.0341 H   0  0  0  0  0  0  0  0  0  0  0  0
    2.2954    1.0328   -1.4099 H   0  0  0  0  0  0  0  0  0  0  0  0
    0.6254    1.5430   -1.1679 H   0  0  0  0  0  0  0  0  0  0  0  0
  1  2  1  0
  2  3  2  0
  3  4  1  0
  4  5  1  0
  5  6  1  0
  5  7  2  0
  7  8  1  0
  8  9  1  0
  9 10  1  0
 10 11  2  0
 11 12  1  0
 12 13  2  0
 13 14  1  0
 14 15  2  0
 15 16  1  0
 16 17  2  0
 16 18  1  0
 18 19  1  0
 19 20  1  0
 20 21  1  0
 21 22  1  0
 22 23  2  0
 23 24  1  0
 24 25  2  0
 25 26  1  0
 26 27  1  0
 27 28  1  0
 27 29  1  0
 27 30  1  0
 26 31  2  0
 21 32  1  0
 32 33  1  0
  7  2  1  0
 15 10  1  0
 33 18  1  0
 31 22  1  0
  1 34  1  0
  1 35  1  0
  1 36  1  0
  6 37  1  0
  6 38  1  0
  6 39  1  0
  8 40  1  0
  8 41  1  0
 11 42  1  0
 12 43  1  0
 13 44  1  0
 14 45  1  0
 19 46  1  0
 19 47  1  0
 20 48  1  0
 20 49  1  0
 23 50  1  0
 24 51  1  0
 25 52  1  0
 31 53  1  0
 32 54  1  0
 32 55  1  0
 33 56  1  0
 33 57  1  0
M  END
$$$$
