
     RDKit          3D

 35 37  0  0  0  0  0  0  0  0999 V2000
   -5.6905    0.5021    0.1148 C   0  0  0  0  0  0  0  0  0  0  0  0
   -4.2580    0.0457    0.1197 C   0  0  0  0  0  0  0  0  0  0  0  0
   -3.2343    1.0054    0.0454 C   0  0  0  0  0  0  0  0  0  0  0  0
   -1.8931    0.6491    0.0075 C   0  0  0  0  0  0  0  0  0  0  0  0
   -0.9504    1.6062   -0.0632 N   0  0  0  0  0  0  0  0  0  0  0  0
    0.3336    1.2059   -0.1155 C   0  0  0  0  0  0  0  0  0  0  0  0
    1.3443    2.1462   -0.1948 C   0  0  0  0  0  0  0  0  0  0  0  0
    2.6910    1.7646   -0.2497 C   0  0  0  0  0  0  0  0  0  0  0  0
    3.0799    0.4190   -0.2178 C   0  0  0  0  0  0  0  0  0  0  0  0
    4.4222    0.0323   -0.2903 N   0  0  0  0  0  0  0  0  0  0  0  0
    5.4623    1.0179    0.0032 C   0  0  0  0  0  0  0  0  0  0  0  0
    4.7804   -1.3611   -0.0262 C   0  0  0  0  0  0  0  0  0  0  0  0
    2.0293   -0.5144   -0.1530 C   0  0  0  0  0  0  0  0  0  0  0  0
    0.6822   -0.1558   -0.0962 C   0  0  0  0  0  0  0  0  0  0  0  0
   -0.2639   -1.1123   -0.0227 N   0  0  0  0  0  0  0  0  0  0  0  0
   -1.5499   -0.7157    0.0305 C   0  0  0  0  0  0  0  0  0  0  0  0
   -2.5628   -1.6642    0.1076 C   0  0  0  0  0  0  0  0  0  0  0  0
   -3.9141   -1.3092    0.2065 C   0  0  0  0  0  0  0  0  0  0  0  0
   -4.8868   -2.3179    0.1695 N   0  0  0  0  0  0  0  0  0  0  0  0
   -6.1734    0.2421    1.0623 H   0  0  0  0  0  0  0  0  0  0  0  0
   -5.7678    1.5874   -0.0105 H   0  0  0  0  0  0  0  0  0  0  0  0
   -6.2362    0.0380   -0.7131 H   0  0  0  0  0  0  0  0  0  0  0  0
   -3.4820    2.0641    0.0019 H   0  0  0  0  0  0  0  0  0  0  0  0
    1.0844    3.2013   -0.2199 H   0  0  0  0  0  0  0  0  0  0  0  0
    3.4239    2.5621   -0.3261 H   0  0  0  0  0  0  0  0  0  0  0  0
    5.4502    1.8354   -0.7255 H   0  0  0  0  0  0  0  0  0  0  0  0
    6.4622    0.5738   -0.0605 H   0  0  0  0  0  0  0  0  0  0  0  0
    5.3457    1.4237    1.0142 H   0  0  0  0  0  0  0  0  0  0  0  0
    5.8581   -1.5226   -0.1416 H   0  0  0  0  0  0  0  0  0  0  0  0
    4.2984   -2.0368   -0.7410 H   0  0  0  0  0  0  0  0  0  0  0  0
    4.5096   -1.6497    0.9953 H   0  0  0  0  0  0  0  0  0  0  0  0
    2.2347   -1.5806   -0.1438 H   0  0  0  0  0  0  0  0  0  0  0  0
   -2.2784   -2.7134    0.0951 H   0  0  0  0  0  0  0  0  0  0  0  0
   -4.5674   -3.2155    0.5222 H   0  0  0  0  0  0  0  0  0  0  0  0
   -5.7836   -2.0529    0.5631 H   0  0  0  0  0  0  0  0  0  0  0  0
  1  2  1  0
  2  3  2  0
  3  4  1  0
  4  5  2  0
  5  6  1  0
  6  7  2  0
  7  8  1  0
  8  9  2  0
  9 10  1  0
 10 11  1  0
 10 12  1  0
  9 13  1  0
 13 14  2  0
 14 15  1  0
 15 16  2  0
 16 17  1  0
 17 18  2  0
 18 19  1  0
 18  2  1  0
 16  4  1  0
 14  6  1  0
  1 20  1  0
  1 21  1  0
  1 22  1  0
  3 23  1  0
  7 24  1  0
  8 25  1  0
 11 26  1  0
 11 27  1  0
 11 28  1  0
 12 29  1  0
 12 30  1  0
 12 31  1  0
 13 32  1  0
 17 33  1  0
 19 34  1  0
 19 35  1  0
M  END
$$$$
