
     RDKit          3D

 57 61  0  0  0  0  0  0  0  0999 V2000
    7.3276    2.8245   -0.4726 C   0  0  0  0  0  0  0  0  0  0  0  0
    6.6582    1.9668   -1.3878 O   0  0  0  0  0  0  0  0  0  0  0  0
    5.9784    0.9055   -0.8569 C   0  0  0  0  0  0  0  0  0  0  0  0
    5.3146    0.1102   -1.7930 C   0  0  0  0  0  0  0  0  0  0  0  0
    4.5792   -1.0055   -1.3874 C   0  0  0  0  0  0  0  0  0  0  0  0
    4.5043   -1.3492   -0.0321 C   0  0  0  0  0  0  0  0  0  0  0  0
    3.6754   -2.5276    0.4069 C   0  0  0  0  0  0  0  0  0  0  0  0
    2.3021   -2.1198    0.5922 N   0  0  0  0  0  0  0  0  0  0  0  0
    1.3410   -2.3454   -0.3629 C   0  0  0  0  0  0  0  0  0  0  0  0
    1.5117   -3.0321   -1.3629 O   0  0  0  0  0  0  0  0  0  0  0  0
    0.0416   -1.6941   -0.0684 C   0  0  0  0  0  0  0  0  0  0  0  0
   -1.0801   -2.3978   -0.2877 C   0  0  0  0  0  0  0  0  0  0  0  0
   -2.3986   -1.8919    0.0615 C   0  0  0  0  0  0  0  0  0  0  0  0
   -3.5983   -2.7374   -0.1997 C   0  0  0  0  0  0  0  0  0  0  0  0
   -3.4641   -3.8571   -0.6978 O   0  0  0  0  0  0  0  0  0  0  0  0
   -4.8170   -2.1891    0.1579 N   0  0  0  0  0  0  0  0  0  0  0  0
   -5.9859   -2.9067   -0.0741 C   0  0  0  0  0  0  0  0  0  0  0  0
   -7.1875   -2.4263    0.2683 C   0  0  0  0  0  0  0  0  0  0  0  0
   -7.2901   -1.1359    0.8950 C   0  0  0  0  0  0  0  0  0  0  0  0
   -6.1910   -0.4130    1.1396 C   0  0  0  0  0  0  0  0  0  0  0  0
   -4.8513   -0.9451    0.7586 C   0  0  0  0  0  0  0  0  0  0  0  0
   -3.8059   -0.2244    1.0102 N   0  0  0  0  0  0  0  0  0  0  0  0
   -2.5589   -0.6811    0.6452 C   0  0  0  0  0  0  0  0  0  0  0  0
   -1.4097    0.1188    0.8769 N   0  0  0  0  0  0  0  0  0  0  0  0
   -1.5737    1.4855    1.4028 C   0  0  0  0  0  0  0  0  0  0  0  0
   -1.9328    2.4737    0.3199 C   0  0  0  0  0  0  0  0  0  0  0  0
   -0.9710    3.0059   -0.5438 C   0  0  0  0  0  0  0  0  0  0  0  0
   -1.3495    3.9144   -1.5281 C   0  0  0  0  0  0  0  0  0  0  0  0
   -2.6854    4.2662   -1.6173 C   0  0  0  0  0  0  0  0  0  0  0  0
   -3.6460    3.7783   -0.8043 N   0  0  0  0  0  0  0  0  0  0  0  0
   -3.2475    2.8915    0.1382 C   0  0  0  0  0  0  0  0  0  0  0  0
   -0.1292   -0.3170    0.5093 C   0  0  0  0  0  0  0  0  0  0  0  0
    0.9066    0.4624    0.6595 N   0  0  0  0  0  0  0  0  0  0  0  0
    5.1646   -0.5448    0.9059 C   0  0  0  0  0  0  0  0  0  0  0  0
    5.9001    0.5736    0.4957 C   0  0  0  0  0  0  0  0  0  0  0  0
    7.8083    3.6199   -1.0503 H   0  0  0  0  0  0  0  0  0  0  0  0
    6.6198    3.2957    0.2175 H   0  0  0  0  0  0  0  0  0  0  0  0
    8.1121    2.2871    0.0708 H   0  0  0  0  0  0  0  0  0  0  0  0
    5.3663    0.3642   -2.8491 H   0  0  0  0  0  0  0  0  0  0  0  0
    4.0597   -1.6029   -2.1354 H   0  0  0  0  0  0  0  0  0  0  0  0
    3.7477   -3.3408   -0.3238 H   0  0  0  0  0  0  0  0  0  0  0  0
    4.0372   -2.9164    1.3651 H   0  0  0  0  0  0  0  0  0  0  0  0
    2.0813   -1.5714    1.4157 H   0  0  0  0  0  0  0  0  0  0  0  0
   -1.0253   -3.4021   -0.7051 H   0  0  0  0  0  0  0  0  0  0  0  0
   -5.8838   -3.8798   -0.5487 H   0  0  0  0  0  0  0  0  0  0  0  0
   -8.0943   -2.9926    0.0813 H   0  0  0  0  0  0  0  0  0  0  0  0
   -8.2748   -0.7647    1.1604 H   0  0  0  0  0  0  0  0  0  0  0  0
   -6.2275    0.5636    1.6058 H   0  0  0  0  0  0  0  0  0  0  0  0
   -0.6687    1.8324    1.9181 H   0  0  0  0  0  0  0  0  0  0  0  0
   -2.3385    1.5001    2.1913 H   0  0  0  0  0  0  0  0  0  0  0  0
    0.0731    2.7149   -0.4529 H   0  0  0  0  0  0  0  0  0  0  0  0
   -0.6176    4.3370   -2.2075 H   0  0  0  0  0  0  0  0  0  0  0  0
   -3.0283    4.9720   -2.3682 H   0  0  0  0  0  0  0  0  0  0  0  0
   -4.0488    2.5159    0.7685 H   0  0  0  0  0  0  0  0  0  0  0  0
    1.7622    0.0477    0.2682 H   0  0  0  0  0  0  0  0  0  0  0  0
    5.1113   -0.7802    1.9668 H   0  0  0  0  0  0  0  0  0  0  0  0
    6.3966    1.1645    1.2583 H   0  0  0  0  0  0  0  0  0  0  0  0
  1  2  1  0
  2  3  1  0
  3  4  2  0
  4  5  1  0
  5  6  2  0
  6  7  1  0
  7  8  1  0
  8  9  1  0
  9 10  2  0
  9 11  1  0
 11 12  2  0
 12 13  1  0
 13 14  1  0
 14 15  2  0
 14 16  1  0
 16 17  1  0
 17 18  2  0
 18 19  1  0
 19 20  2  0
 20 21  1  0
 21 22  2  0
 22 23  1  0
 23 24  1  0
 24 25  1  0
 25 26  1  0
 26 27  2  0
 27 28  1  0
 28 29  2  0
 29 30  1  0
 30 31  2  0
 24 32  1  0
 32 33  2  3
  6 34  1  0
 34 35  2  0
 35  3  1  0
 32 11  1  0
 23 13  2  0
 31 26  1  0
 21 16  1  0
  1 36  1  0
  1 37  1  0
  1 38  1  0
  4 39  1  0
  5 40  1  0
  7 41  1  0
  7 42  1  0
  8 43  1  0
 12 44  1  0
 17 45  1  0
 18 46  1  0
 19 47  1  0
 20 48  1  0
 25 49  1  0
 25 50  1  0
 27 51  1  0
 28 52  1  0
 29 53  1  0
 31 54  1  0
 33 55  1  0
 34 56  1  0
 35 57  1  0
M  END
$$$$
