
     RDKit          3D

 48 50  0  0  0  0  0  0  0  0999 V2000
    4.7247   -4.4107    1.3360 C   0  0  0  0  0  0  0  0  0  0  0  0
    4.2951   -3.0884    0.7717 C   0  0  0  0  0  0  0  0  0  0  0  0
    5.2336   -2.2114    0.2229 C   0  0  0  0  0  0  0  0  0  0  0  0
    4.8728   -0.9504   -0.2957 C   0  0  0  0  0  0  0  0  0  0  0  0
    5.9456   -0.0601   -0.8571 C   0  0  0  0  0  0  0  0  0  0  0  0
    3.5091   -0.5908   -0.2065 C   0  0  0  0  0  0  0  0  0  0  0  0
    2.7159    0.8638   -0.6888 S   0  0  0  0  0  0  0  0  0  0  0  0
    1.2057    0.2334   -0.1948 C   0  0  0  0  0  0  0  0  0  0  0  0
    0.0387    1.0021   -0.2656 N   0  0  0  0  0  0  0  0  0  0  0  0
   -1.1795    0.4726    0.3765 C   0  0  0  0  0  0  0  0  0  0  0  0
   -1.9184   -0.5139   -0.5355 C   0  0  0  0  0  0  0  0  0  0  0  0
   -3.1613   -1.1092    0.1358 C   0  0  0  0  0  0  0  0  0  0  0  0
   -4.1448   -0.1031    0.5709 N   0  0  0  0  0  0  0  0  0  0  0  0
   -5.1581   -0.7307    1.4251 C   0  0  0  0  0  0  0  0  0  0  0  0
   -4.7996    0.5528   -0.5641 C   0  0  0  0  0  0  0  0  0  0  0  0
   -0.0663    2.0194   -1.2311 C   0  0  0  0  0  0  0  0  0  0  0  0
    0.5515    2.0044   -2.2959 O   0  0  0  0  0  0  0  0  0  0  0  0
   -1.0097    3.0994   -0.9645 C   0  0  0  0  0  0  0  0  0  0  0  0
   -1.9251    3.6500   -1.8444 C   0  0  0  0  0  0  0  0  0  0  0  0
   -2.6553    4.7294   -1.2636 C   0  0  0  0  0  0  0  0  0  0  0  0
   -2.2296    4.9809    0.0158 C   0  0  0  0  0  0  0  0  0  0  0  0
   -2.9620    6.3595    1.1181 Br  0  0  0  0  0  0  0  0  0  0  0  0
   -0.9726    3.9638    0.5192 S   0  0  0  0  0  0  0  0  0  0  0  0
    1.2548   -0.9514    0.3710 N   0  0  0  0  0  0  0  0  0  0  0  0
    2.5501   -1.4409    0.3482 C   0  0  0  0  0  0  0  0  0  0  0  0
    2.9527   -2.6971    0.8443 C   0  0  0  0  0  0  0  0  0  0  0  0
    5.6206   -4.7820    0.8273 H   0  0  0  0  0  0  0  0  0  0  0  0
    3.9407   -5.1637    1.2017 H   0  0  0  0  0  0  0  0  0  0  0  0
    4.9412   -4.3098    2.4040 H   0  0  0  0  0  0  0  0  0  0  0  0
    6.2818   -2.5104    0.1904 H   0  0  0  0  0  0  0  0  0  0  0  0
    6.4961    0.4170   -0.0403 H   0  0  0  0  0  0  0  0  0  0  0  0
    6.6472   -0.6431   -1.4633 H   0  0  0  0  0  0  0  0  0  0  0  0
    5.5341    0.7211   -1.5023 H   0  0  0  0  0  0  0  0  0  0  0  0
   -1.8517    1.2923    0.6355 H   0  0  0  0  0  0  0  0  0  0  0  0
   -0.9018   -0.0047    1.3245 H   0  0  0  0  0  0  0  0  0  0  0  0
   -2.1846   -0.0281   -1.4813 H   0  0  0  0  0  0  0  0  0  0  0  0
   -1.2477   -1.3392   -0.8054 H   0  0  0  0  0  0  0  0  0  0  0  0
   -2.8149   -1.6759    1.0103 H   0  0  0  0  0  0  0  0  0  0  0  0
   -3.6258   -1.8366   -0.5429 H   0  0  0  0  0  0  0  0  0  0  0  0
   -5.7166   -1.5127    0.8978 H   0  0  0  0  0  0  0  0  0  0  0  0
   -4.6928   -1.1756    2.3119 H   0  0  0  0  0  0  0  0  0  0  0  0
   -5.8709    0.0170    1.7908 H   0  0  0  0  0  0  0  0  0  0  0  0
   -5.5406    1.2795   -0.2117 H   0  0  0  0  0  0  0  0  0  0  0  0
   -5.3074   -0.1642   -1.2192 H   0  0  0  0  0  0  0  0  0  0  0  0
   -4.0813    1.1217   -1.1621 H   0  0  0  0  0  0  0  0  0  0  0  0
   -2.0650    3.2845   -2.8557 H   0  0  0  0  0  0  0  0  0  0  0  0
   -3.4329    5.2891   -1.7687 H   0  0  0  0  0  0  0  0  0  0  0  0
    2.2040   -3.3495    1.2838 H   0  0  0  0  0  0  0  0  0  0  0  0
  1  2  1  0
  2  3  2  0
  3  4  1  0
  4  5  1  0
  4  6  2  0
  6  7  1  0
  7  8  1  0
  8  9  1  0
  9 10  1  0
 10 11  1  0
 11 12  1  0
 12 13  1  0
 13 14  1  0
 13 15  1  0
  9 16  1  0
 16 17  2  0
 16 18  1  0
 18 19  2  0
 19 20  1  0
 20 21  2  0
 21 22  1  0
 21 23  1  0
  8 24  2  0
 24 25  1  0
 25 26  2  0
 26  2  1  0
 25  6  1  0
 23 18  1  0
  1 27  1  0
  1 28  1  0
  1 29  1  0
  3 30  1  0
  5 31  1  0
  5 32  1  0
  5 33  1  0
 10 34  1  0
 10 35  1  0
 11 36  1  0
 11 37  1  0
 12 38  1  0
 12 39  1  0
 14 40  1  0
 14 41  1  0
 14 42  1  0
 15 43  1  0
 15 44  1  0
 15 45  1  0
 19 46  1  0
 20 47  1  0
 26 48  1  0
M  END
$$$$
