
     RDKit          3D

 61 66  0  0  0  0  0  0  0  0999 V2000
   -4.2683    5.2416   -1.2644 C   0  0  0  0  0  0  0  0  0  0  0  0
   -3.2831    4.2978   -0.5782 C   0  0  0  0  0  0  0  0  0  0  0  0
   -3.5127    2.8408   -1.0310 C   0  0  0  0  0  0  0  0  0  0  0  0
   -2.6067    1.8585   -0.2705 C   0  0  0  0  0  0  0  0  0  0  0  0
   -1.1906    2.3497   -0.1822 C   0  0  0  0  0  0  0  0  0  0  0  0
   -0.8658    3.6687   -0.4419 C   0  0  0  0  0  0  0  0  0  0  0  0
    0.7986    3.9741   -0.2930 S   0  0  0  0  0  0  0  0  0  0  0  0
    1.1172    2.3535    0.1286 C   0  0  0  0  0  0  0  0  0  0  0  0
    2.3752    1.9593    0.3744 N   0  0  0  0  0  0  0  0  0  0  0  0
    2.4656    0.6599    0.6846 C   0  0  0  0  0  0  0  0  0  0  0  0
    3.8591    0.0942    0.9363 C   0  0  0  0  0  0  0  0  0  0  0  0
    4.5821   -0.3662   -0.2747 N   0  0  0  0  0  0  0  0  0  0  0  0
    5.9685   -0.7374    0.0761 C   0  0  0  0  0  0  0  0  0  0  0  0
    6.7265   -1.2910   -1.1402 C   0  0  0  0  0  0  0  0  0  0  0  0
    6.0561   -2.4344   -1.6862 O   0  0  0  0  0  0  0  0  0  0  0  0
    4.7264   -2.0744   -2.0835 C   0  0  0  0  0  0  0  0  0  0  0  0
    3.9159   -1.5322   -0.8943 C   0  0  0  0  0  0  0  0  0  0  0  0
    1.4316   -0.2035    0.7868 N   0  0  0  0  0  0  0  0  0  0  0  0
    0.1683    0.2223    0.5509 C   0  0  0  0  0  0  0  0  0  0  0  0
   -0.9093   -0.6727    0.6869 N   0  0  0  0  0  0  0  0  0  0  0  0
   -1.4197   -0.6442    2.0659 C   0  0  0  0  0  0  0  0  0  0  0  0
   -2.7704   -1.3673    2.1096 C   0  0  0  0  0  0  0  0  0  0  0  0
   -2.7350   -2.7030    1.4065 C   0  0  0  0  0  0  0  0  0  0  0  0
   -3.7658   -3.6293    1.6166 C   0  0  0  0  0  0  0  0  0  0  0  0
   -3.7643   -4.8503    0.9431 C   0  0  0  0  0  0  0  0  0  0  0  0
   -2.7389   -5.1534    0.0507 C   0  0  0  0  0  0  0  0  0  0  0  0
   -1.7136   -4.2343   -0.1733 C   0  0  0  0  0  0  0  0  0  0  0  0
   -1.7062   -2.9973    0.4899 C   0  0  0  0  0  0  0  0  0  0  0  0
   -0.5525   -2.0361    0.2626 C   0  0  0  0  0  0  0  0  0  0  0  0
   -0.0263    1.5717    0.1809 C   0  0  0  0  0  0  0  0  0  0  0  0
   -1.8294    4.7376   -0.8581 C   0  0  0  0  0  0  0  0  0  0  0  0
   -4.1158    6.2725   -0.9282 H   0  0  0  0  0  0  0  0  0  0  0  0
   -4.1503    5.2183   -2.3530 H   0  0  0  0  0  0  0  0  0  0  0  0
   -5.3007    4.9616   -1.0302 H   0  0  0  0  0  0  0  0  0  0  0  0
   -3.4618    4.3501    0.5048 H   0  0  0  0  0  0  0  0  0  0  0  0
   -3.3143    2.7587   -2.1081 H   0  0  0  0  0  0  0  0  0  0  0  0
   -4.5596    2.5526   -0.8782 H   0  0  0  0  0  0  0  0  0  0  0  0
   -2.6469    0.8845   -0.7699 H   0  0  0  0  0  0  0  0  0  0  0  0
   -2.9952    1.7291    0.7467 H   0  0  0  0  0  0  0  0  0  0  0  0
    4.4400    0.8940    1.4143 H   0  0  0  0  0  0  0  0  0  0  0  0
    3.7809   -0.7162    1.6734 H   0  0  0  0  0  0  0  0  0  0  0  0
    5.9627   -1.5001    0.8660 H   0  0  0  0  0  0  0  0  0  0  0  0
    6.5056    0.1395    0.4551 H   0  0  0  0  0  0  0  0  0  0  0  0
    6.8402   -0.5289   -1.9207 H   0  0  0  0  0  0  0  0  0  0  0  0
    7.7293   -1.6093   -0.8379 H   0  0  0  0  0  0  0  0  0  0  0  0
    4.2451   -2.9748   -2.4786 H   0  0  0  0  0  0  0  0  0  0  0  0
    4.7776   -1.3407   -2.8971 H   0  0  0  0  0  0  0  0  0  0  0  0
    3.7972   -2.3330   -0.1528 H   0  0  0  0  0  0  0  0  0  0  0  0
    2.9222   -1.2573   -1.2631 H   0  0  0  0  0  0  0  0  0  0  0  0
   -1.5660    0.3830    2.4237 H   0  0  0  0  0  0  0  0  0  0  0  0
   -0.7092   -1.1306    2.7492 H   0  0  0  0  0  0  0  0  0  0  0  0
   -3.0708   -1.4992    3.1556 H   0  0  0  0  0  0  0  0  0  0  0  0
   -3.5303   -0.7486    1.6160 H   0  0  0  0  0  0  0  0  0  0  0  0
   -4.5767   -3.4018    2.3046 H   0  0  0  0  0  0  0  0  0  0  0  0
   -4.5655   -5.5649    1.1129 H   0  0  0  0  0  0  0  0  0  0  0  0
   -2.7379   -6.1064   -0.4720 H   0  0  0  0  0  0  0  0  0  0  0  0
   -0.9176   -4.4871   -0.8703 H   0  0  0  0  0  0  0  0  0  0  0  0
    0.3079   -2.4271    0.8223 H   0  0  0  0  0  0  0  0  0  0  0  0
   -0.3047   -2.0259   -0.8065 H   0  0  0  0  0  0  0  0  0  0  0  0
   -1.6952    4.9310   -1.9303 H   0  0  0  0  0  0  0  0  0  0  0  0
   -1.6230    5.6743   -0.3262 H   0  0  0  0  0  0  0  0  0  0  0  0
  1  2  1  0
  2  3  1  0
  3  4  1  0
  4  5  1  0
  5  6  2  0
  6  7  1  0
  7  8  1  0
  8  9  2  0
  9 10  1  0
 10 11  1  0
 11 12  1  0
 12 13  1  0
 13 14  1  0
 14 15  1  0
 15 16  1  0
 16 17  1  0
 10 18  2  0
 18 19  1  0
 19 20  1  0
 20 21  1  0
 21 22  1  0
 22 23  1  0
 23 24  2  0
 24 25  1  0
 25 26  2  0
 26 27  1  0
 27 28  2  0
 28 29  1  0
 19 30  2  0
  6 31  1  0
 31  2  1  0
 30  5  1  0
 30  8  1  0
 17 12  1  0
 29 20  1  0
 28 23  1  0
  1 32  1  0
  1 33  1  0
  1 34  1  0
  2 35  1  0
  3 36  1  0
  3 37  1  0
  4 38  1  0
  4 39  1  0
 11 40  1  0
 11 41  1  0
 13 42  1  0
 13 43  1  0
 14 44  1  0
 14 45  1  0
 16 46  1  0
 16 47  1  0
 17 48  1  0
 17 49  1  0
 21 50  1  0
 21 51  1  0
 22 52  1  0
 22 53  1  0
 24 54  1  0
 25 55  1  0
 26 56  1  0
 27 57  1  0
 29 58  1  0
 29 59  1  0
 31 60  1  0
 31 61  1  0
M  END
$$$$
