
     RDKit          3D

 40 43  0  0  0  0  0  0  0  0999 V2000
    6.9149    0.9197    2.7138 O   0  0  0  0  0  0  0  0  0  0  0  0
    6.5896    0.1359    1.8102 N   0  0  0  0  0  4  0  0  0  0  0  0
    7.3523   -0.6933    1.2929 O   0  0  0  0  0  1  0  0  0  0  0  0
    5.2078    0.1936    1.3188 C   0  0  0  0  0  0  0  0  0  0  0  0
    4.7995   -0.6631    0.2903 C   0  0  0  0  0  0  0  0  0  0  0  0
    3.4804   -0.6048   -0.1757 C   0  0  0  0  0  0  0  0  0  0  0  0
    2.5620    0.3030    0.3714 C   0  0  0  0  0  0  0  0  0  0  0  0
    1.1755    0.3722   -0.1100 C   0  0  0  0  0  0  0  0  0  0  0  0
    0.1924    0.9452    0.6845 N   0  0  0  0  0  0  0  0  0  0  0  0
   -0.9662    0.8475   -0.0551 N   0  0  0  0  0  0  0  0  0  0  0  0
   -2.1930    1.4877    0.3797 C   0  0  0  0  0  0  0  0  0  0  0  0
   -3.3106    0.5101    0.6553 C   0  0  0  0  0  0  0  0  0  0  0  0
   -4.6145    0.8030    0.2237 C   0  0  0  0  0  0  0  0  0  0  0  0
   -5.6627   -0.0826    0.4788 C   0  0  0  0  0  0  0  0  0  0  0  0
   -5.4248   -1.2616    1.1813 C   0  0  0  0  0  0  0  0  0  0  0  0
   -4.1412   -1.5523    1.6380 C   0  0  0  0  0  0  0  0  0  0  0  0
   -3.0912   -0.6687    1.3845 C   0  0  0  0  0  0  0  0  0  0  0  0
   -0.6910    0.2449   -1.2354 C   0  0  0  0  0  0  0  0  0  0  0  0
   -1.3110   -0.1458   -2.3614 C   0  0  0  0  0  0  0  0  0  0  0  0
   -2.5963   -0.1004   -2.6713 O   0  0  0  0  0  0  0  0  0  0  0  0
   -0.3933   -0.6833   -3.2511 N   0  0  0  0  0  0  0  0  0  0  0  0
    0.8607   -0.6567   -2.6153 C   0  0  0  0  0  0  0  0  0  0  0  0
    1.9626   -1.1156   -3.1957 O   0  0  0  0  0  0  0  0  0  0  0  0
    0.6438   -0.0872   -1.3900 C   0  0  0  0  0  0  0  0  0  0  0  0
    2.9917    1.1501    1.4082 C   0  0  0  0  0  0  0  0  0  0  0  0
    4.3068    1.1023    1.8832 C   0  0  0  0  0  0  0  0  0  0  0  0
    5.4852   -1.3791   -0.1579 H   0  0  0  0  0  0  0  0  0  0  0  0
    3.1816   -1.2884   -0.9667 H   0  0  0  0  0  0  0  0  0  0  0  0
   -1.9780    2.0608    1.2887 H   0  0  0  0  0  0  0  0  0  0  0  0
   -2.4683    2.1960   -0.4105 H   0  0  0  0  0  0  0  0  0  0  0  0
   -4.8269    1.7254   -0.3143 H   0  0  0  0  0  0  0  0  0  0  0  0
   -6.6683    0.1502    0.1367 H   0  0  0  0  0  0  0  0  0  0  0  0
   -6.2418   -1.9498    1.3835 H   0  0  0  0  0  0  0  0  0  0  0  0
   -3.9570   -2.4658    2.1983 H   0  0  0  0  0  0  0  0  0  0  0  0
   -2.0978   -0.9095    1.7628 H   0  0  0  0  0  0  0  0  0  0  0  0
   -3.1141   -0.0017   -1.8524 H   0  0  0  0  0  0  0  0  0  0  0  0
   -0.6137   -1.0490   -4.1663 H   0  0  0  0  0  0  0  0  0  0  0  0
    1.7564   -1.4227   -4.0949 H   0  0  0  0  0  0  0  0  0  0  0  0
    2.2955    1.8598    1.8538 H   0  0  0  0  0  0  0  0  0  0  0  0
    4.6031    1.7743    2.6856 H   0  0  0  0  0  0  0  0  0  0  0  0
  1  2  2  0
  2  3  1  0
  2  4  1  0
  4  5  2  0
  5  6  1  0
  6  7  2  0
  7  8  1  0
  8  9  2  0
  9 10  1  0
 10 11  1  0
 11 12  1  0
 12 13  2  0
 13 14  1  0
 14 15  2  0
 15 16  1  0
 16 17  2  0
 10 18  1  0
 18 19  2  0
 19 20  1  0
 19 21  1  0
 21 22  1  0
 22 23  1  0
 22 24  2  0
  7 25  1  0
 25 26  2  0
 26  4  1  0
 24  8  1  0
 17 12  1  0
 24 18  1  0
  5 27  1  0
  6 28  1  0
 11 29  1  0
 11 30  1  0
 13 31  1  0
 14 32  1  0
 15 33  1  0
 16 34  1  0
 17 35  1  0
 20 36  1  0
 21 37  1  0
 23 38  1  0
 25 39  1  0
 26 40  1  0
M  CHG  2   2   1   3  -1
M  END
$$$$
