
     RDKit          3D

 42 45  0  0  0  0  0  0  0  0999 V2000
   -3.9274   -1.8228    0.5922 O   0  0  0  0  0  0  0  0  0  0  0  0
   -4.0168   -0.6359    0.2663 C   0  0  0  0  0  0  0  0  0  0  0  0
   -2.8021    0.1040   -0.1173 C   0  0  0  0  0  0  0  0  0  0  0  0
   -1.4967   -0.4563   -0.2156 C   0  0  0  0  0  0  0  0  0  0  0  0
   -0.6839    0.5870   -0.5821 C   0  0  0  0  0  0  0  0  0  0  0  0
    0.7610    0.7362   -0.8705 C   0  0  0  0  0  0  0  0  0  0  0  0
    1.4482   -0.2187   -0.0637 O   0  0  0  0  0  0  0  0  0  0  0  0
    2.8111   -0.2522   -0.1616 C   0  0  0  0  0  0  0  0  0  0  0  0
    3.4308   -1.1850    0.6737 C   0  0  0  0  0  0  0  0  0  0  0  0
    4.8221   -1.3329    0.6841 C   0  0  0  0  0  0  0  0  0  0  0  0
    5.6102   -0.5382   -0.1541 C   0  0  0  0  0  0  0  0  0  0  0  0
    7.0237   -0.6612   -0.1699 N   0  0  0  0  0  0  0  0  0  0  0  0
    7.8287   -1.5047    0.5583 C   0  0  0  0  0  0  0  0  0  0  0  0
    9.0930   -1.3128    0.2577 N   0  0  0  0  0  0  0  0  0  0  0  0
    9.0284   -0.3265   -0.6764 C   0  0  0  0  0  0  0  0  0  0  0  0
    7.8027    0.1047   -0.9748 N   0  0  0  0  0  0  0  0  0  0  0  0
    4.9895    0.3982   -0.9940 C   0  0  0  0  0  0  0  0  0  0  0  0
    3.5962    0.5397   -0.9970 C   0  0  0  0  0  0  0  0  0  0  0  0
   -1.4417    1.7065   -0.7071 O   0  0  0  0  0  0  0  0  0  0  0  0
   -2.7561    1.4152   -0.4070 N   0  0  0  0  0  0  0  0  0  0  0  0
   -5.2557   -0.0054    0.2660 N   0  0  0  0  0  0  0  0  0  0  0  0
   -5.5863    1.3481   -0.1569 C   0  0  0  0  0  0  0  0  0  0  0  0
   -7.1104    1.3876   -0.1648 C   0  0  0  0  0  0  0  0  0  0  0  0
   -7.4881    0.3674    0.9003 C   0  0  0  0  0  0  0  0  0  0  0  0
   -6.4412   -0.7184    0.7094 C   0  0  0  0  0  0  0  0  0  0  0  0
   -1.2062   -1.4811   -0.0356 H   0  0  0  0  0  0  0  0  0  0  0  0
    1.0869    1.7513   -0.6164 H   0  0  0  0  0  0  0  0  0  0  0  0
    0.9353    0.5352   -1.9336 H   0  0  0  0  0  0  0  0  0  0  0  0
    2.8209   -1.8045    1.3274 H   0  0  0  0  0  0  0  0  0  0  0  0
    5.2455   -2.0724    1.3564 H   0  0  0  0  0  0  0  0  0  0  0  0
    7.4568   -2.2203    1.2753 H   0  0  0  0  0  0  0  0  0  0  0  0
    9.9040    0.0914   -1.1584 H   0  0  0  0  0  0  0  0  0  0  0  0
    5.5788    1.0308   -1.6563 H   0  0  0  0  0  0  0  0  0  0  0  0
    3.1659    1.2787   -1.6654 H   0  0  0  0  0  0  0  0  0  0  0  0
   -5.1776    1.5630   -1.1472 H   0  0  0  0  0  0  0  0  0  0  0  0
   -5.1798    2.0467    0.5802 H   0  0  0  0  0  0  0  0  0  0  0  0
   -7.5057    2.3862    0.0393 H   0  0  0  0  0  0  0  0  0  0  0  0
   -7.4896    1.0620   -1.1413 H   0  0  0  0  0  0  0  0  0  0  0  0
   -7.3875    0.8174    1.8965 H   0  0  0  0  0  0  0  0  0  0  0  0
   -8.5100   -0.0082    0.7924 H   0  0  0  0  0  0  0  0  0  0  0  0
   -6.2463   -1.2845    1.6257 H   0  0  0  0  0  0  0  0  0  0  0  0
   -6.7306   -1.4154   -0.0854 H   0  0  0  0  0  0  0  0  0  0  0  0
  1  2  2  0
  2  3  1  0
  3  4  1  0
  4  5  2  0
  5  6  1  0
  6  7  1  0
  7  8  1  0
  8  9  2  0
  9 10  1  0
 10 11  2  0
 11 12  1  0
 12 13  1  0
 13 14  2  0
 14 15  1  0
 15 16  2  0
 11 17  1  0
 17 18  2  0
  5 19  1  0
 19 20  1  0
  2 21  1  0
 21 22  1  0
 22 23  1  0
 23 24  1  0
 24 25  1  0
 20  3  2  0
 25 21  1  0
 18  8  1  0
 16 12  1  0
  4 26  1  0
  6 27  1  0
  6 28  1  0
  9 29  1  0
 10 30  1  0
 13 31  1  0
 15 32  1  0
 17 33  1  0
 18 34  1  0
 22 35  1  0
 22 36  1  0
 23 37  1  0
 23 38  1  0
 24 39  1  0
 24 40  1  0
 25 41  1  0
 25 42  1  0
M  END
$$$$
