
     RDKit          3D

 48 50  0  0  0  0  0  0  0  0999 V2000
   -0.5480   -2.1441    1.0627 C   0  0  0  0  0  0  0  0  0  0  0  0
   -0.1890   -1.1153    0.2810 C   0  0  0  0  0  0  0  0  0  0  0  0
    1.1908   -0.7982   -0.1609 C   0  0  0  0  0  0  0  0  0  0  0  0
    2.3137   -1.4308    0.2239 C   0  0  0  0  0  0  0  0  0  0  0  0
    3.6214   -1.0862   -0.2196 C   0  0  0  0  0  0  0  0  0  0  0  0
    4.8659   -0.7962    0.9413 S   0  0  0  0  0  0  0  0  0  0  0  0
    5.9767   -0.5003   -0.3112 C   0  0  0  0  0  0  0  0  0  0  0  0
    7.2869   -0.1589   -0.0897 N   0  0  0  0  0  0  0  0  0  0  0  0
    7.9171   -0.0193    1.1248 C   0  0  0  0  0  0  0  0  0  0  0  0
    9.3684    0.3661    0.9723 C   0  0  0  0  0  0  0  0  0  0  0  0
    7.4393   -0.1953    2.2393 O   0  0  0  0  0  0  0  0  0  0  0  0
    5.5156   -0.6173   -1.5339 N   0  0  0  0  0  0  0  0  0  0  0  0
    4.1897   -0.9629   -1.4767 C   0  0  0  0  0  0  0  0  0  0  0  0
    3.4992   -1.1841   -2.6046 O   0  0  0  0  0  0  0  0  0  0  0  0
    1.0999    0.3561   -1.0504 C   0  0  0  0  0  0  0  0  0  0  0  0
   -0.2004    0.7027   -1.1309 C   0  0  0  0  0  0  0  0  0  0  0  0
   -0.7186    1.8830   -1.8810 C   0  0  0  0  0  0  0  0  0  0  0  0
   -1.0011   -0.1534   -0.3455 N   0  0  0  0  0  0  0  0  0  0  0  0
   -2.3919    0.0131   -0.1341 C   0  0  0  0  0  0  0  0  0  0  0  0
   -3.2915    0.0074   -1.2072 C   0  0  0  0  0  0  0  0  0  0  0  0
   -4.6675    0.1786   -1.0038 C   0  0  0  0  0  0  0  0  0  0  0  0
   -5.1748    0.3615    0.2816 C   0  0  0  0  0  0  0  0  0  0  0  0
   -6.5422    0.5421    0.5739 N   0  0  0  0  0  0  0  0  0  0  0  0
   -7.5956    0.5915   -0.3212 C   0  0  0  0  0  0  0  0  0  0  0  0
   -8.9204    0.8015    0.3697 C   0  0  0  0  0  0  0  0  0  0  0  0
   -7.5335    0.5094   -1.5424 O   0  0  0  0  0  0  0  0  0  0  0  0
   -4.2843    0.3656    1.3610 C   0  0  0  0  0  0  0  0  0  0  0  0
   -2.9107    0.1927    1.1546 C   0  0  0  0  0  0  0  0  0  0  0  0
    0.1668   -2.8465    1.4716 H   0  0  0  0  0  0  0  0  0  0  0  0
   -1.5898   -2.3303    1.2978 H   0  0  0  0  0  0  0  0  0  0  0  0
    2.2564   -2.2413    0.9437 H   0  0  0  0  0  0  0  0  0  0  0  0
    7.8067   -0.0168   -0.9439 H   0  0  0  0  0  0  0  0  0  0  0  0
    9.6663    0.9913    1.8191 H   0  0  0  0  0  0  0  0  0  0  0  0
    9.5355    0.9389    0.0556 H   0  0  0  0  0  0  0  0  0  0  0  0
    9.9807   -0.5392    0.9525 H   0  0  0  0  0  0  0  0  0  0  0  0
    4.1247   -1.0571   -3.3373 H   0  0  0  0  0  0  0  0  0  0  0  0
    1.9246    0.8606   -1.5247 H   0  0  0  0  0  0  0  0  0  0  0  0
    0.1011    2.4944   -2.2742 H   0  0  0  0  0  0  0  0  0  0  0  0
   -1.3207    2.5263   -1.2315 H   0  0  0  0  0  0  0  0  0  0  0  0
   -1.3274    1.5681   -2.7333 H   0  0  0  0  0  0  0  0  0  0  0  0
   -2.9272   -0.1554   -2.2187 H   0  0  0  0  0  0  0  0  0  0  0  0
   -5.3125    0.1574   -1.8765 H   0  0  0  0  0  0  0  0  0  0  0  0
   -6.7717    0.6601    1.5524 H   0  0  0  0  0  0  0  0  0  0  0  0
   -9.0660    1.8687    0.5565 H   0  0  0  0  0  0  0  0  0  0  0  0
   -8.9601    0.2531    1.3153 H   0  0  0  0  0  0  0  0  0  0  0  0
   -9.7264    0.4311   -0.2703 H   0  0  0  0  0  0  0  0  0  0  0  0
   -4.6387    0.5083    2.3782 H   0  0  0  0  0  0  0  0  0  0  0  0
   -2.2374    0.2191    2.0082 H   0  0  0  0  0  0  0  0  0  0  0  0
  1  2  2  0
  2  3  1  0
  3  4  2  3
  4  5  1  0
  5  6  1  0
  6  7  1  0
  7  8  1  0
  8  9  1  0
  9 10  1  0
  9 11  2  0
  7 12  2  0
 12 13  1  0
 13 14  1  0
  3 15  1  0
 15 16  2  0
 16 17  1  0
 16 18  1  0
 18 19  1  0
 19 20  2  0
 20 21  1  0
 21 22  2  0
 22 23  1  0
 23 24  1  0
 24 25  1  0
 24 26  2  0
 22 27  1  0
 27 28  2  0
 18  2  1  0
 28 19  1  0
 13  5  2  0
  1 29  1  0
  1 30  1  0
  4 31  1  0
  8 32  1  0
 10 33  1  0
 10 34  1  0
 10 35  1  0
 14 36  1  0
 15 37  1  0
 17 38  1  0
 17 39  1  0
 17 40  1  0
 20 41  1  0
 21 42  1  0
 23 43  1  0
 25 44  1  0
 25 45  1  0
 25 46  1  0
 27 47  1  0
 28 48  1  0
M  END
$$$$
