
     RDKit          3D

 68 71  0  0  0  0  0  0  0  0999 V2000
    8.2860   -3.3309   -3.1954 C   0  0  0  0  0  0  0  0  0  0  0  0
    7.2517   -2.9426   -4.0927 O   0  0  0  0  0  0  0  0  0  0  0  0
    6.0556   -2.5795   -3.5386 C   0  0  0  0  0  0  0  0  0  0  0  0
    5.0768   -2.2019   -4.4610 C   0  0  0  0  0  0  0  0  0  0  0  0
    3.8074   -1.8050   -4.0328 C   0  0  0  0  0  0  0  0  0  0  0  0
    3.5048   -1.7734   -2.6692 C   0  0  0  0  0  0  0  0  0  0  0  0
    2.1616   -1.3669   -2.2418 C   0  0  0  0  0  0  0  0  0  0  0  0
    1.8684   -0.2846   -1.4922 C   0  0  0  0  0  0  0  0  0  0  0  0
    2.8588    0.6243   -1.0284 C   0  0  0  0  0  0  0  0  0  0  0  0
    3.6342    1.3876   -0.6219 N   0  0  0  0  0  0  0  0  0  0  0  0
    0.4179   -0.0424   -1.1775 C   0  0  0  0  0  0  0  0  0  0  0  0
   -0.4550   -0.6343   -1.8056 O   0  0  0  0  0  0  0  0  0  0  0  0
    0.1922    0.8551   -0.1595 N   0  0  0  0  0  0  0  0  0  0  0  0
   -1.0406    1.2802    0.3839 C   0  0  0  0  0  0  0  0  0  0  0  0
   -2.2911    0.8665   -0.0675 C   0  0  0  0  0  0  0  0  0  0  0  0
   -3.4379    1.3474    0.5735 C   0  0  0  0  0  0  0  0  0  0  0  0
   -5.0296    0.8030    0.0054 S   0  0  0  0  0  6  0  0  0  0  0  0
   -6.0262    1.2273    0.9681 O   0  0  0  0  0  0  0  0  0  0  0  0
   -5.1321    1.1724   -1.3892 O   0  0  0  0  0  0  0  0  0  0  0  0
   -4.9180   -0.9027    0.1213 N   0  0  0  0  0  0  0  0  0  0  0  0
   -4.7823   -1.4252    1.5104 C   0  0  0  0  0  0  0  0  0  0  0  0
   -4.4202   -2.9069    1.4586 C   0  0  0  0  0  0  0  0  0  0  0  0
   -5.4665   -3.7003    0.6818 C   0  0  0  0  0  0  0  0  0  0  0  0
   -5.6805   -3.0964   -0.7032 C   0  0  0  0  0  0  0  0  0  0  0  0
   -6.0043   -1.6059   -0.6180 C   0  0  0  0  0  0  0  0  0  0  0  0
   -3.3508    2.2383    1.6466 C   0  0  0  0  0  0  0  0  0  0  0  0
   -2.0972    2.6582    2.0915 C   0  0  0  0  0  0  0  0  0  0  0  0
   -0.9321    2.1854    1.4726 C   0  0  0  0  0  0  0  0  0  0  0  0
    0.3629    2.6018    1.8686 N   0  0  0  0  0  0  0  0  0  0  0  0
    0.6856    2.3014    3.2727 C   0  0  0  0  0  0  0  0  0  0  0  0
    2.0619    2.8714    3.6031 C   0  0  0  0  0  0  0  0  0  0  0  0
    2.0852    4.3940    3.4609 C   0  0  0  0  0  0  0  0  0  0  0  0
    0.9875    4.9184    2.5349 C   0  0  0  0  0  0  0  0  0  0  0  0
    0.7011    3.9577    1.3839 C   0  0  0  0  0  0  0  0  0  0  0  0
    4.4811   -2.1615   -1.7447 C   0  0  0  0  0  0  0  0  0  0  0  0
    5.7518   -2.5602   -2.1773 C   0  0  0  0  0  0  0  0  0  0  0  0
    8.5550   -2.5098   -2.5228 H   0  0  0  0  0  0  0  0  0  0  0  0
    9.1709   -3.5763   -3.7905 H   0  0  0  0  0  0  0  0  0  0  0  0
    8.0038   -4.2279   -2.6334 H   0  0  0  0  0  0  0  0  0  0  0  0
    5.3059   -2.2164   -5.5243 H   0  0  0  0  0  0  0  0  0  0  0  0
    3.0647   -1.5193   -4.7749 H   0  0  0  0  0  0  0  0  0  0  0  0
    1.3658   -2.0169   -2.6054 H   0  0  0  0  0  0  0  0  0  0  0  0
    0.9674    1.2847    0.3449 H   0  0  0  0  0  0  0  0  0  0  0  0
   -2.4018    0.1827   -0.9038 H   0  0  0  0  0  0  0  0  0  0  0  0
   -5.7199   -1.2834    2.0606 H   0  0  0  0  0  0  0  0  0  0  0  0
   -3.9885   -0.8955    2.0442 H   0  0  0  0  0  0  0  0  0  0  0  0
   -3.4413   -3.0292    0.9781 H   0  0  0  0  0  0  0  0  0  0  0  0
   -4.3332   -3.3047    2.4750 H   0  0  0  0  0  0  0  0  0  0  0  0
   -5.1515   -4.7462    0.5902 H   0  0  0  0  0  0  0  0  0  0  0  0
   -6.4152   -3.6967    1.2330 H   0  0  0  0  0  0  0  0  0  0  0  0
   -4.7722   -3.2389   -1.3029 H   0  0  0  0  0  0  0  0  0  0  0  0
   -6.4926   -3.6243   -1.2154 H   0  0  0  0  0  0  0  0  0  0  0  0
   -6.0834   -1.2147   -1.6369 H   0  0  0  0  0  0  0  0  0  0  0  0
   -6.9645   -1.4516   -0.1115 H   0  0  0  0  0  0  0  0  0  0  0  0
   -4.2485    2.6144    2.1320 H   0  0  0  0  0  0  0  0  0  0  0  0
   -2.0382    3.3676    2.9124 H   0  0  0  0  0  0  0  0  0  0  0  0
    0.7057    1.2144    3.4139 H   0  0  0  0  0  0  0  0  0  0  0  0
   -0.0569    2.7139    3.9669 H   0  0  0  0  0  0  0  0  0  0  0  0
    2.3605    2.5895    4.6182 H   0  0  0  0  0  0  0  0  0  0  0  0
    2.8065    2.4374    2.9238 H   0  0  0  0  0  0  0  0  0  0  0  0
    3.0684    4.7034    3.0883 H   0  0  0  0  0  0  0  0  0  0  0  0
    1.9686    4.8618    4.4458 H   0  0  0  0  0  0  0  0  0  0  0  0
    1.2729    5.9015    2.1443 H   0  0  0  0  0  0  0  0  0  0  0  0
    0.0694    5.0724    3.1175 H   0  0  0  0  0  0  0  0  0  0  0  0
    1.5950    3.8729    0.7545 H   0  0  0  0  0  0  0  0  0  0  0  0
   -0.0877    4.3770    0.7474 H   0  0  0  0  0  0  0  0  0  0  0  0
    4.2680   -2.1631   -0.6787 H   0  0  0  0  0  0  0  0  0  0  0  0
    6.4785   -2.8485   -1.4251 H   0  0  0  0  0  0  0  0  0  0  0  0
  1  2  1  0
  2  3  1  0
  3  4  2  0
  4  5  1  0
  5  6  2  0
  6  7  1  0
  7  8  2  3
  8  9  1  0
  9 10  3  0
  8 11  1  0
 11 12  2  0
 11 13  1  0
 13 14  1  0
 14 15  2  0
 15 16  1  0
 16 17  1  0
 17 18  2  0
 17 19  2  0
 17 20  1  0
 20 21  1  0
 21 22  1  0
 22 23  1  0
 23 24  1  0
 24 25  1  0
 16 26  2  0
 26 27  1  0
 27 28  2  0
 28 29  1  0
 29 30  1  0
 30 31  1  0
 31 32  1  0
 32 33  1  0
 33 34  1  0
  6 35  1  0
 35 36  2  0
 36  3  1  0
 28 14  1  0
 34 29  1  0
 25 20  1  0
  1 37  1  0
  1 38  1  0
  1 39  1  0
  4 40  1  0
  5 41  1  0
  7 42  1  0
 13 43  1  0
 15 44  1  0
 21 45  1  0
 21 46  1  0
 22 47  1  0
 22 48  1  0
 23 49  1  0
 23 50  1  0
 24 51  1  0
 24 52  1  0
 25 53  1  0
 25 54  1  0
 26 55  1  0
 27 56  1  0
 30 57  1  0
 30 58  1  0
 31 59  1  0
 31 60  1  0
 32 61  1  0
 32 62  1  0
 33 63  1  0
 33 64  1  0
 34 65  1  0
 34 66  1  0
 35 67  1  0
 36 68  1  0
M  END
$$$$
