
     RDKit          3D

 34 35  0  0  0  0  0  0  0  0999 V2000
   -4.4107   -1.4176   -1.1160 C   0  0  0  0  0  0  0  0  0  0  0  0
   -3.4498   -0.3638   -1.0212 O   0  0  0  0  0  0  0  0  0  0  0  0
   -2.3175   -0.6807   -1.7213 C   0  0  0  0  0  0  0  0  0  0  0  0
   -2.2984   -0.4662   -3.1018 C   0  0  0  0  0  0  0  0  0  0  0  0
   -1.1311   -0.7105   -3.8282 C   0  0  0  0  0  0  0  0  0  0  0  0
    0.0162   -1.1548   -3.1704 C   0  0  0  0  0  0  0  0  0  0  0  0
    1.4530   -1.4526   -4.0683 Cl  0  0  0  0  0  0  0  0  0  0  0  0
    0.0119   -1.3543   -1.7916 C   0  0  0  0  0  0  0  0  0  0  0  0
   -1.1590   -1.1048   -1.0622 C   0  0  0  0  0  0  0  0  0  0  0  0
   -1.1637   -1.3271    0.3962 C   0  0  0  0  0  0  0  0  0  0  0  0
   -1.9685   -2.0411    0.9719 O   0  0  0  0  0  0  0  0  0  0  0  0
   -0.1254   -0.6047    0.9073 O   0  0  0  0  0  0  0  0  0  0  0  0
   -0.0199   -0.8104    2.2941 N   0  0  0  0  0  0  0  0  0  0  0  0
    0.9018   -0.0622    2.8296 C   0  0  0  0  0  0  0  0  0  0  0  0
    1.0866   -0.1248    4.1849 N   0  0  0  0  0  0  0  0  0  0  0  0
    1.7676    0.8643    2.0576 C   0  0  0  0  0  0  0  0  0  0  0  0
    2.7330    0.3428    1.1910 C   0  0  0  0  0  0  0  0  0  0  0  0
    3.5507    1.2137    0.4694 C   0  0  0  0  0  0  0  0  0  0  0  0
    3.3990    2.5929    0.6239 C   0  0  0  0  0  0  0  0  0  0  0  0
    4.4067    3.6657   -0.2672 Cl  0  0  0  0  0  0  0  0  0  0  0  0
    2.4378    3.1113    1.4947 C   0  0  0  0  0  0  0  0  0  0  0  0
    1.6174    2.2442    2.2192 C   0  0  0  0  0  0  0  0  0  0  0  0
   -5.2011   -1.2167   -0.3868 H   0  0  0  0  0  0  0  0  0  0  0  0
   -3.9722   -2.3943   -0.8832 H   0  0  0  0  0  0  0  0  0  0  0  0
   -4.8643   -1.4355   -2.1126 H   0  0  0  0  0  0  0  0  0  0  0  0
   -3.1856   -0.0963   -3.6096 H   0  0  0  0  0  0  0  0  0  0  0  0
   -1.1207   -0.5448   -4.9027 H   0  0  0  0  0  0  0  0  0  0  0  0
    0.9091   -1.7052   -1.2878 H   0  0  0  0  0  0  0  0  0  0  0  0
    0.3131   -0.5698    4.6697 H   0  0  0  0  0  0  0  0  0  0  0  0
    1.4565    0.6928    4.6528 H   0  0  0  0  0  0  0  0  0  0  0  0
    2.8463   -0.7330    1.0825 H   0  0  0  0  0  0  0  0  0  0  0  0
    4.3015    0.8141   -0.2074 H   0  0  0  0  0  0  0  0  0  0  0  0
    2.3215    4.1861    1.6077 H   0  0  0  0  0  0  0  0  0  0  0  0
    0.8581    2.6432    2.8861 H   0  0  0  0  0  0  0  0  0  0  0  0
  1  2  1  0
  2  3  1  0
  3  4  2  0
  4  5  1  0
  5  6  2  0
  6  7  1  0
  6  8  1  0
  8  9  2  0
  9 10  1  0
 10 11  2  0
 10 12  1  0
 12 13  1  0
 13 14  2  3
 14 15  1  0
 14 16  1  0
 16 17  2  0
 17 18  1  0
 18 19  2  0
 19 20  1  0
 19 21  1  0
 21 22  2  0
  9  3  1  0
 22 16  1  0
  1 23  1  0
  1 24  1  0
  1 25  1  0
  4 26  1  0
  5 27  1  0
  8 28  1  0
 15 29  1  0
 15 30  1  0
 17 31  1  0
 18 32  1  0
 21 33  1  0
 22 34  1  0
M  END
$$$$
