
     RDKit          3D

 49 52  0  0  0  0  0  0  0  0999 V2000
    6.3865    2.2283   -0.6707 C   0  0  0  0  0  0  0  0  0  0  0  0
    6.3932    0.7703   -0.5665 N   0  0  0  0  0  0  0  0  0  0  0  0
    7.1079    0.0634   -1.6278 C   0  0  0  0  0  0  0  0  0  0  0  0
    5.3344    0.1285    0.0859 C   0  0  0  0  0  0  0  0  0  0  0  0
    5.1308   -1.2604   -0.0057 C   0  0  0  0  0  0  0  0  0  0  0  0
    4.0804   -1.9124    0.6584 C   0  0  0  0  0  0  0  0  0  0  0  0
    3.1906   -1.1904    1.4481 C   0  0  0  0  0  0  0  0  0  0  0  0
    2.1018   -1.8827    2.1390 C   0  0  0  0  0  0  0  0  0  0  0  0
    0.8005   -1.7025    1.8778 C   0  0  0  0  0  0  0  0  0  0  0  0
    0.1574   -0.8641    0.9247 C   0  0  0  0  0  0  0  0  0  0  0  0
   -1.1484   -1.0790    1.0850 C   0  0  0  0  0  0  0  0  0  0  0  0
   -2.2647   -0.4606    0.3522 C   0  0  0  0  0  0  0  0  0  0  0  0
   -2.0686    0.2029   -0.8659 C   0  0  0  0  0  0  0  0  0  0  0  0
   -3.1411    0.7851   -1.5486 C   0  0  0  0  0  0  0  0  0  0  0  0
   -4.4398    0.7210   -1.0300 C   0  0  0  0  0  0  0  0  0  0  0  0
   -4.6617    0.0372    0.1754 C   0  0  0  0  0  0  0  0  0  0  0  0
   -3.5724   -0.5349    0.8570 C   0  0  0  0  0  0  0  0  0  0  0  0
   -6.0368   -0.0480    0.7928 C   0  0  0  0  0  0  0  0  0  0  0  0
   -7.1611    0.2621   -0.1938 C   0  0  0  0  0  0  0  0  0  0  0  0
   -6.8436    1.5259   -0.9825 C   0  0  0  0  0  0  0  0  0  0  0  0
   -5.5760    1.3323   -1.8126 C   0  0  0  0  0  0  0  0  0  0  0  0
   -1.4746   -2.0136    2.0931 O   0  0  0  0  0  0  0  0  0  0  0  0
   -0.2677   -2.4325    2.6084 C   0  0  0  0  0  0  0  0  0  0  0  0
   -0.1167   -3.2486    3.5007 O   0  0  0  0  0  0  0  0  0  0  0  0
    3.3792    0.1830    1.5815 C   0  0  0  0  0  0  0  0  0  0  0  0
    4.4337    0.8235    0.9130 C   0  0  0  0  0  0  0  0  0  0  0  0
    7.2684    2.5932   -1.2092 H   0  0  0  0  0  0  0  0  0  0  0  0
    6.4251    2.6967    0.3186 H   0  0  0  0  0  0  0  0  0  0  0  0
    5.5008    2.5802   -1.2112 H   0  0  0  0  0  0  0  0  0  0  0  0
    7.9034    0.6848   -2.0545 H   0  0  0  0  0  0  0  0  0  0  0  0
    6.4302   -0.2109   -2.4437 H   0  0  0  0  0  0  0  0  0  0  0  0
    7.6036   -0.8339   -1.2424 H   0  0  0  0  0  0  0  0  0  0  0  0
    5.7930   -1.8842   -0.5982 H   0  0  0  0  0  0  0  0  0  0  0  0
    3.9730   -2.9889    0.5461 H   0  0  0  0  0  0  0  0  0  0  0  0
    2.4120   -2.5977    2.8994 H   0  0  0  0  0  0  0  0  0  0  0  0
    0.6455   -0.2010    0.2310 H   0  0  0  0  0  0  0  0  0  0  0  0
   -1.0808    0.2724   -1.3139 H   0  0  0  0  0  0  0  0  0  0  0  0
   -2.9553    1.2889   -2.4950 H   0  0  0  0  0  0  0  0  0  0  0  0
   -3.7593   -1.0426    1.8025 H   0  0  0  0  0  0  0  0  0  0  0  0
   -6.1987   -1.0507    1.2062 H   0  0  0  0  0  0  0  0  0  0  0  0
   -6.0791    0.6649    1.6257 H   0  0  0  0  0  0  0  0  0  0  0  0
   -8.1048    0.3820    0.3498 H   0  0  0  0  0  0  0  0  0  0  0  0
   -7.2932   -0.5792   -0.8861 H   0  0  0  0  0  0  0  0  0  0  0  0
   -6.7122    2.3674   -0.2904 H   0  0  0  0  0  0  0  0  0  0  0  0
   -7.6803    1.7804   -1.6427 H   0  0  0  0  0  0  0  0  0  0  0  0
   -5.2693    2.3038   -2.2183 H   0  0  0  0  0  0  0  0  0  0  0  0
   -5.7964    0.6732   -2.6617 H   0  0  0  0  0  0  0  0  0  0  0  0
    2.7199    0.7739    2.2130 H   0  0  0  0  0  0  0  0  0  0  0  0
    4.5312    1.8933    1.0701 H   0  0  0  0  0  0  0  0  0  0  0  0
  1  2  1  0
  2  3  1  0
  2  4  1  0
  4  5  2  0
  5  6  1  0
  6  7  2  0
  7  8  1  0
  8  9  2  3
  9 10  1  0
 10 11  2  0
 11 12  1  0
 12 13  2  0
 13 14  1  0
 14 15  2  0
 15 16  1  0
 16 17  2  0
 16 18  1  0
 18 19  1  0
 19 20  1  0
 20 21  1  0
 11 22  1  0
 22 23  1  0
 23 24  2  0
  7 25  1  0
 25 26  2  0
 26  4  1  0
 23  9  1  0
 17 12  1  0
 21 15  1  0
  1 27  1  0
  1 28  1  0
  1 29  1  0
  3 30  1  0
  3 31  1  0
  3 32  1  0
  5 33  1  0
  6 34  1  0
  8 35  1  0
 10 36  1  0
 13 37  1  0
 14 38  1  0
 17 39  1  0
 18 40  1  0
 18 41  1  0
 19 42  1  0
 19 43  1  0
 20 44  1  0
 20 45  1  0
 21 46  1  0
 21 47  1  0
 25 48  1  0
 26 49  1  0
M  END
$$$$
