
     RDKit          3D

 50 53  0  0  0  0  0  0  0  0999 V2000
    7.4874    1.9674   -1.4119 C   0  0  0  0  0  0  0  0  0  0  0  0
    6.3217    1.1300   -0.9885 C   0  0  0  0  0  0  0  0  0  0  0  0
    5.0169    1.5533   -1.2355 C   0  0  0  0  0  0  0  0  0  0  0  0
    3.9244    0.8375   -0.8755 N   0  0  0  0  0  0  0  0  0  0  0  0
    4.1981   -0.3438   -0.2499 C   0  0  0  0  0  0  0  0  0  0  0  0
    3.0360   -1.1749    0.1702 C   0  0  0  0  0  0  0  0  0  0  0  0
    3.1879   -2.2268    0.7790 O   0  0  0  0  0  0  0  0  0  0  0  0
    1.8090   -0.6524   -0.1743 N   0  0  0  0  0  0  0  0  0  0  0  0
    0.5656   -1.2396    0.2695 C   0  0  0  0  0  0  0  0  0  0  0  0
    0.2681   -0.8490    1.7367 C   0  0  0  0  0  0  0  0  0  0  0  0
   -1.2211   -1.0412    2.1490 C   0  0  0  0  0  0  0  0  0  0  0  0
   -1.6150   -2.5309    2.0800 C   0  0  0  0  0  0  0  0  0  0  0  0
   -1.3967   -0.5712    3.6056 C   0  0  0  0  0  0  0  0  0  0  0  0
   -2.1541   -0.1878    1.2321 C   0  0  0  0  0  0  0  0  0  0  0  0
   -1.7462   -0.2839   -0.2014 C   0  0  0  0  0  0  0  0  0  0  0  0
   -0.5240   -0.7709   -0.6314 C   0  0  0  0  0  0  0  0  0  0  0  0
   -0.6244   -0.7988   -2.0258 C   0  0  0  0  0  0  0  0  0  0  0  0
   -1.7950   -0.3394   -2.4589 N   0  0  0  0  0  0  0  0  0  0  0  0
   -2.4802    0.0370   -1.3377 N   0  0  0  0  0  0  0  0  0  0  0  0
   -3.7584    0.6611   -1.4887 C   0  0  0  0  0  0  0  0  0  0  0  0
   -4.4206    1.3006   -0.4348 C   0  0  0  0  0  0  0  0  0  0  0  0
   -5.6714    1.8959   -0.6399 C   0  0  0  0  0  0  0  0  0  0  0  0
   -6.2695    1.8667   -1.8971 C   0  0  0  0  0  0  0  0  0  0  0  0
   -5.6153    1.2493   -2.9580 C   0  0  0  0  0  0  0  0  0  0  0  0
   -4.3667    0.6550   -2.7578 C   0  0  0  0  0  0  0  0  0  0  0  0
    5.4902   -0.7739    0.0025 C   0  0  0  0  0  0  0  0  0  0  0  0
    6.5776   -0.0460   -0.3612 N   0  0  0  0  0  0  0  0  0  0  0  0
    7.4491    2.9450   -0.9215 H   0  0  0  0  0  0  0  0  0  0  0  0
    7.4775    2.1087   -2.4971 H   0  0  0  0  0  0  0  0  0  0  0  0
    8.4320    1.4860   -1.1394 H   0  0  0  0  0  0  0  0  0  0  0  0
    4.8140    2.4941   -1.7377 H   0  0  0  0  0  0  0  0  0  0  0  0
    1.8125    0.2809   -0.5789 H   0  0  0  0  0  0  0  0  0  0  0  0
    0.6509   -2.3309    0.1962 H   0  0  0  0  0  0  0  0  0  0  0  0
    0.5360    0.2073    1.8889 H   0  0  0  0  0  0  0  0  0  0  0  0
    0.9262   -1.4209    2.4041 H   0  0  0  0  0  0  0  0  0  0  0  0
   -2.6383   -2.6826    2.4421 H   0  0  0  0  0  0  0  0  0  0  0  0
   -1.5703   -2.9281    1.0613 H   0  0  0  0  0  0  0  0  0  0  0  0
   -0.9502   -3.1405    2.7025 H   0  0  0  0  0  0  0  0  0  0  0  0
   -1.1138    0.4812    3.7203 H   0  0  0  0  0  0  0  0  0  0  0  0
   -2.4381   -0.6732    3.9309 H   0  0  0  0  0  0  0  0  0  0  0  0
   -0.7731   -1.1587    4.2888 H   0  0  0  0  0  0  0  0  0  0  0  0
   -2.0850    0.8646    1.5348 H   0  0  0  0  0  0  0  0  0  0  0  0
   -3.1894   -0.5198    1.3678 H   0  0  0  0  0  0  0  0  0  0  0  0
    0.1031   -1.1475   -2.7482 H   0  0  0  0  0  0  0  0  0  0  0  0
   -3.9928    1.3952    0.5536 H   0  0  0  0  0  0  0  0  0  0  0  0
   -6.1756    2.3932    0.1854 H   0  0  0  0  0  0  0  0  0  0  0  0
   -7.2397    2.3314   -2.0516 H   0  0  0  0  0  0  0  0  0  0  0  0
   -6.0721    1.2282   -3.9441 H   0  0  0  0  0  0  0  0  0  0  0  0
   -3.8809    0.1777   -3.6078 H   0  0  0  0  0  0  0  0  0  0  0  0
    5.6938   -1.7145    0.5030 H   0  0  0  0  0  0  0  0  0  0  0  0
  1  2  1  0
  2  3  2  0
  3  4  1  0
  4  5  2  0
  5  6  1  0
  6  7  2  0
  6  8  1  0
  8  9  1  0
  9 10  1  0
 10 11  1  0
 11 12  1  0
 11 13  1  0
 11 14  1  0
 14 15  1  0
 15 16  2  0
 16 17  1  0
 17 18  2  0
 18 19  1  0
 19 20  1  0
 20 21  2  0
 21 22  1  0
 22 23  2  0
 23 24  1  0
 24 25  2  0
  5 26  1  0
 26 27  2  0
 27  2  1  0
 16  9  1  0
 25 20  1  0
 19 15  1  0
  1 28  1  0
  1 29  1  0
  1 30  1  0
  3 31  1  0
  8 32  1  0
  9 33  1  0
 10 34  1  0
 10 35  1  0
 12 36  1  0
 12 37  1  0
 12 38  1  0
 13 39  1  0
 13 40  1  0
 13 41  1  0
 14 42  1  0
 14 43  1  0
 17 44  1  0
 21 45  1  0
 22 46  1  0
 23 47  1  0
 24 48  1  0
 25 49  1  0
 26 50  1  0
M  END
$$$$
