
     RDKit          3D

 54 58  0  0  0  0  0  0  0  0999 V2000
    6.3356   -2.4309    0.8508 C   0  0  0  0  0  0  0  0  0  0  0  0
    5.0331   -1.9741    0.2131 C   0  0  0  0  0  0  0  0  0  0  0  0
    4.3619   -0.8563    0.9976 C   0  0  0  0  0  0  0  0  0  0  0  0
    4.8818   -0.3870    2.0104 O   0  0  0  0  0  0  0  0  0  0  0  0
    3.1239   -0.4087    0.5251 N   0  0  0  0  0  0  0  0  0  0  0  0
    2.5619    0.7756    1.1674 C   0  0  0  0  0  0  0  0  0  0  0  0
    1.0364    0.7769    1.1324 C   0  0  0  0  0  0  0  0  0  0  0  0
    0.4842    0.5867   -0.2989 C   0  0  0  0  0  0  0  0  0  0  0  0
    1.1160   -0.6964   -0.8957 C   0  0  0  0  0  0  0  0  0  0  0  0
    2.6422   -0.6801   -0.8280 C   0  0  0  0  0  0  0  0  0  0  0  0
    0.9873    1.6517   -1.1473 O   0  0  0  0  0  0  0  0  0  0  0  0
    0.3247    2.8418   -1.1375 C   0  0  0  0  0  0  0  0  0  0  0  0
    0.9826    3.9134   -1.7418 C   0  0  0  0  0  0  0  0  0  0  0  0
    0.3906    5.1787   -1.7625 C   0  0  0  0  0  0  0  0  0  0  0  0
   -0.8623    5.3684   -1.1800 C   0  0  0  0  0  0  0  0  0  0  0  0
   -1.5851    6.9286   -1.2017 Cl  0  0  0  0  0  0  0  0  0  0  0  0
   -1.5315    4.3030   -0.5844 C   0  0  0  0  0  0  0  0  0  0  0  0
   -0.9330    3.0387   -0.5784 C   0  0  0  0  0  0  0  0  0  0  0  0
   -1.6225    1.8910    0.0256 C   0  0  0  0  0  0  0  0  0  0  0  0
   -2.5786    2.0808    0.7730 O   0  0  0  0  0  0  0  0  0  0  0  0
   -1.0690    0.5149   -0.3283 C   0  0  0  0  0  0  0  0  0  0  0  0
   -1.6954   -0.5638    0.5451 C   0  0  0  0  0  0  0  0  0  0  0  0
   -2.7902   -0.9944   -0.3712 C   0  0  0  0  0  0  0  0  0  0  0  0
   -3.9074   -1.8558    0.0839 C   0  0  0  0  0  0  0  0  0  0  0  0
   -3.9541   -2.3717    1.3846 C   0  0  0  0  0  0  0  0  0  0  0  0
   -5.0228   -3.1849    1.7776 C   0  0  0  0  0  0  0  0  0  0  0  0
   -6.0413   -3.4829    0.8735 C   0  0  0  0  0  0  0  0  0  0  0  0
   -7.3513   -4.4844    1.3623 Cl  0  0  0  0  0  0  0  0  0  0  0  0
   -6.0026   -2.9754   -0.4228 C   0  0  0  0  0  0  0  0  0  0  0  0
   -4.9362   -2.1629   -0.8176 C   0  0  0  0  0  0  0  0  0  0  0  0
   -2.6663   -0.5872   -1.5943 N   0  0  0  0  0  0  0  0  0  0  0  0
   -1.5078    0.2151   -1.6644 O   0  0  0  0  0  0  0  0  0  0  0  0
    6.7857   -3.2362    0.2620 H   0  0  0  0  0  0  0  0  0  0  0  0
    6.1669   -2.8031    1.8667 H   0  0  0  0  0  0  0  0  0  0  0  0
    7.0551   -1.6075    0.9096 H   0  0  0  0  0  0  0  0  0  0  0  0
    5.2466   -1.6166   -0.7997 H   0  0  0  0  0  0  0  0  0  0  0  0
    4.3486   -2.8274    0.1603 H   0  0  0  0  0  0  0  0  0  0  0  0
    2.8881    0.8365    2.2115 H   0  0  0  0  0  0  0  0  0  0  0  0
    2.9690    1.6549    0.6538 H   0  0  0  0  0  0  0  0  0  0  0  0
    0.6909    1.7226    1.5651 H   0  0  0  0  0  0  0  0  0  0  0  0
    0.6728   -0.0273    1.7836 H   0  0  0  0  0  0  0  0  0  0  0  0
    0.8302   -0.8099   -1.9486 H   0  0  0  0  0  0  0  0  0  0  0  0
    0.7635   -1.5864   -0.3640 H   0  0  0  0  0  0  0  0  0  0  0  0
    3.0616    0.0895   -1.4867 H   0  0  0  0  0  0  0  0  0  0  0  0
    3.0116   -1.6429   -1.1894 H   0  0  0  0  0  0  0  0  0  0  0  0
    1.9615    3.7676   -2.1929 H   0  0  0  0  0  0  0  0  0  0  0  0
    0.9113    6.0099   -2.2320 H   0  0  0  0  0  0  0  0  0  0  0  0
   -2.5126    4.4489   -0.1381 H   0  0  0  0  0  0  0  0  0  0  0  0
   -2.0657   -0.2006    1.5064 H   0  0  0  0  0  0  0  0  0  0  0  0
   -1.0468   -1.4258    0.7179 H   0  0  0  0  0  0  0  0  0  0  0  0
   -3.1755   -2.1590    2.1110 H   0  0  0  0  0  0  0  0  0  0  0  0
   -5.0554   -3.5814    2.7895 H   0  0  0  0  0  0  0  0  0  0  0  0
   -6.7953   -3.2047   -1.1303 H   0  0  0  0  0  0  0  0  0  0  0  0
   -4.9168   -1.7696   -1.8327 H   0  0  0  0  0  0  0  0  0  0  0  0
  1  2  1  0
  2  3  1  0
  3  4  2  0
  3  5  1  0
  5  6  1  0
  6  7  1  0
  7  8  1  0
  8  9  1  0
  9 10  1  0
  8 11  1  0
 11 12  1  0
 12 13  2  0
 13 14  1  0
 14 15  2  0
 15 16  1  0
 15 17  1  0
 17 18  2  0
 18 19  1  0
 19 20  2  0
 19 21  1  0
 21 22  1  0
 22 23  1  0
 23 24  1  0
 24 25  2  0
 25 26  1  0
 26 27  2  0
 27 28  1  0
 27 29  1  0
 29 30  2  0
 23 31  2  0
 31 32  1  0
 10  5  1  0
 18 12  1  0
 32 21  1  0
 21  8  1  0
 30 24  1  0
  1 33  1  0
  1 34  1  0
  1 35  1  0
  2 36  1  0
  2 37  1  0
  6 38  1  0
  6 39  1  0
  7 40  1  0
  7 41  1  0
  9 42  1  0
  9 43  1  0
 10 44  1  0
 10 45  1  0
 13 46  1  0
 14 47  1  0
 17 48  1  0
 22 49  1  0
 22 50  1  0
 25 51  1  0
 26 52  1  0
 29 53  1  0
 30 54  1  0
M  END
$$$$
