
     RDKit          3D

 71 76  0  0  0  0  0  0  0  0999 V2000
    9.7156    2.6188   -2.9454 C   0  0  0  0  0  0  0  0  0  0  0  0
    9.4193    1.2289   -2.8884 O   0  0  0  0  0  0  0  0  0  0  0  0
    8.3798    0.8533   -2.0838 C   0  0  0  0  0  0  0  0  0  0  0  0
    7.5653    1.7024   -1.3404 C   0  0  0  0  0  0  0  0  0  0  0  0
    6.5249    1.1794   -0.5549 C   0  0  0  0  0  0  0  0  0  0  0  0
    6.2610   -0.1962   -0.4974 C   0  0  0  0  0  0  0  0  0  0  0  0
    5.2281   -0.7604    0.2743 N   0  0  0  0  0  0  0  0  0  0  0  0
    4.2555   -1.5486   -0.5341 C   0  0  0  0  0  0  0  0  0  0  0  0
    3.2833   -2.3237    0.3847 C   0  0  0  0  0  0  0  0  0  0  0  0
    2.6310   -1.4094    1.3299 N   0  0  0  0  0  0  0  0  0  0  0  0
    1.4649   -0.6989    1.0183 C   0  0  0  0  0  0  0  0  0  0  0  0
    1.2657    0.4173    1.4980 O   0  0  0  0  0  0  0  0  0  0  0  0
    0.4609   -1.3706    0.0716 C   0  0  0  0  0  0  0  0  0  0  0  0
   -0.1098   -2.6628    0.6623 C   0  0  0  0  0  0  0  0  0  0  0  0
   -1.1584   -2.3673    1.7247 C   0  0  0  0  0  0  0  0  0  0  0  0
   -2.2947   -1.5229    1.1596 C   0  0  0  0  0  0  0  0  0  0  0  0
   -1.7750   -0.2968    0.5593 N   0  0  0  0  0  0  0  0  0  0  0  0
   -2.7436    0.6424    0.1318 C   0  0  0  0  0  0  0  0  0  0  0  0
   -2.3199    1.7141   -0.6122 N   0  0  0  0  0  0  0  0  0  0  0  0
   -3.1991    2.6516   -1.0148 C   0  0  0  0  0  0  0  0  0  0  0  0
   -4.5228    2.6934   -0.8014 N   0  0  0  0  0  0  0  0  0  0  0  0
   -4.9219    1.6301   -0.0859 C   0  0  0  0  0  0  0  0  0  0  0  0
   -4.1404    0.5945    0.4035 C   0  0  0  0  0  0  0  0  0  0  0  0
   -4.9449   -0.3181    1.0653 N   0  0  0  0  0  0  0  0  0  0  0  0
   -6.1755    0.1531    0.9932 C   0  0  0  0  0  0  0  0  0  0  0  0
   -6.2073    1.3402    0.3006 N   0  0  0  0  0  0  0  0  0  0  0  0
   -7.3430    2.1723   -0.0340 C   0  0  0  0  0  0  0  0  0  0  0  0
   -8.7480    1.5770    0.1095 C   0  0  0  0  0  0  0  0  0  0  0  0
   -8.8665    0.1537   -0.4294 C   0  0  0  0  0  0  0  0  0  0  0  0
   -8.3996   -0.9311    0.5509 C   0  0  0  0  0  0  0  0  0  0  0  0
   -7.3736   -0.4938    1.5934 C   0  0  0  0  0  0  0  0  0  0  0  0
   -0.6498   -0.4105   -0.3821 C   0  0  0  0  0  0  0  0  0  0  0  0
    3.6139   -0.7184    2.1725 C   0  0  0  0  0  0  0  0  0  0  0  0
    4.5821    0.1071    1.2991 C   0  0  0  0  0  0  0  0  0  0  0  0
    7.1089   -1.0322   -1.2413 C   0  0  0  0  0  0  0  0  0  0  0  0
    8.1472   -0.5179   -2.0273 C   0  0  0  0  0  0  0  0  0  0  0  0
    8.8753    3.1850   -3.3602 H   0  0  0  0  0  0  0  0  0  0  0  0
   10.0037    3.0014   -1.9604 H   0  0  0  0  0  0  0  0  0  0  0  0
   10.5699    2.7500   -3.6177 H   0  0  0  0  0  0  0  0  0  0  0  0
    7.7038    2.7782   -1.3426 H   0  0  0  0  0  0  0  0  0  0  0  0
    5.9163    1.8883   -0.0031 H   0  0  0  0  0  0  0  0  0  0  0  0
    3.6860   -0.8655   -1.1776 H   0  0  0  0  0  0  0  0  0  0  0  0
    4.7560   -2.2794   -1.1776 H   0  0  0  0  0  0  0  0  0  0  0  0
    3.8372   -3.0631    0.9777 H   0  0  0  0  0  0  0  0  0  0  0  0
    2.5589   -2.8738   -0.2183 H   0  0  0  0  0  0  0  0  0  0  0  0
    1.0206   -1.6111   -0.8401 H   0  0  0  0  0  0  0  0  0  0  0  0
   -0.5665   -3.2567   -0.1400 H   0  0  0  0  0  0  0  0  0  0  0  0
    0.6730   -3.2875    1.1049 H   0  0  0  0  0  0  0  0  0  0  0  0
   -0.6922   -1.8456    2.5698 H   0  0  0  0  0  0  0  0  0  0  0  0
   -1.5613   -3.3096    2.1136 H   0  0  0  0  0  0  0  0  0  0  0  0
   -2.8554   -2.1078    0.4186 H   0  0  0  0  0  0  0  0  0  0  0  0
   -2.9532   -1.2947    2.0045 H   0  0  0  0  0  0  0  0  0  0  0  0
   -2.7802    3.4746   -1.5852 H   0  0  0  0  0  0  0  0  0  0  0  0
   -7.2069    2.4785   -1.0804 H   0  0  0  0  0  0  0  0  0  0  0  0
   -7.2662    3.0745    0.5857 H   0  0  0  0  0  0  0  0  0  0  0  0
   -9.4384    2.2240   -0.4467 H   0  0  0  0  0  0  0  0  0  0  0  0
   -9.0824    1.6215    1.1535 H   0  0  0  0  0  0  0  0  0  0  0  0
   -8.3093    0.0642   -1.3705 H   0  0  0  0  0  0  0  0  0  0  0  0
   -9.9142   -0.0481   -0.6830 H   0  0  0  0  0  0  0  0  0  0  0  0
   -8.0082   -1.7785   -0.0267 H   0  0  0  0  0  0  0  0  0  0  0  0
   -9.2756   -1.3159    1.0892 H   0  0  0  0  0  0  0  0  0  0  0  0
   -7.8269    0.1781    2.3318 H   0  0  0  0  0  0  0  0  0  0  0  0
   -7.0555   -1.3795    2.1591 H   0  0  0  0  0  0  0  0  0  0  0  0
   -0.1978    0.5699   -0.5806 H   0  0  0  0  0  0  0  0  0  0  0  0
   -1.0404   -0.7825   -1.3409 H   0  0  0  0  0  0  0  0  0  0  0  0
    4.1650   -1.4838    2.7324 H   0  0  0  0  0  0  0  0  0  0  0  0
    3.1149   -0.0743    2.9038 H   0  0  0  0  0  0  0  0  0  0  0  0
    5.3429    0.5493    1.9538 H   0  0  0  0  0  0  0  0  0  0  0  0
    4.0242    0.9149    0.8090 H   0  0  0  0  0  0  0  0  0  0  0  0
    6.9860   -2.1102   -1.1958 H   0  0  0  0  0  0  0  0  0  0  0  0
    8.7830   -1.1962   -2.5896 H   0  0  0  0  0  0  0  0  0  0  0  0
  1  2  1  0
  2  3  1  0
  3  4  2  0
  4  5  1  0
  5  6  2  0
  6  7  1  0
  7  8  1  0
  8  9  1  0
  9 10  1  0
 10 11  1  0
 11 12  2  0
 11 13  1  0
 13 14  1  0
 14 15  1  0
 15 16  1  0
 16 17  1  0
 17 18  1  0
 18 19  2  0
 19 20  1  0
 20 21  2  0
 21 22  1  0
 22 23  2  0
 23 24  1  0
 24 25  2  0
 25 26  1  0
 26 27  1  0
 27 28  1  0
 28 29  1  0
 29 30  1  0
 30 31  1  0
 17 32  1  0
 10 33  1  0
 33 34  1  0
  6 35  1  0
 35 36  2  0
 36  3  1  0
 34  7  1  0
 32 13  1  0
 23 18  1  0
 31 25  1  0
 26 22  1  0
  1 37  1  0
  1 38  1  0
  1 39  1  0
  4 40  1  0
  5 41  1  0
  8 42  1  0
  8 43  1  0
  9 44  1  0
  9 45  1  0
 13 46  1  0
 14 47  1  0
 14 48  1  0
 15 49  1  0
 15 50  1  0
 16 51  1  0
 16 52  1  0
 20 53  1  0
 27 54  1  0
 27 55  1  0
 28 56  1  0
 28 57  1  0
 29 58  1  0
 29 59  1  0
 30 60  1  0
 30 61  1  0
 31 62  1  0
 31 63  1  0
 32 64  1  0
 32 65  1  0
 33 66  1  0
 33 67  1  0
 34 68  1  0
 34 69  1  0
 35 70  1  0
 36 71  1  0
M  END
$$$$
