
     RDKit          3D

 49 51  0  0  0  0  0  0  0  0999 V2000
   -8.2610    0.9067    1.1084 C   0  0  0  0  0  0  0  0  0  0  0  0
   -7.5946   -0.1493    0.2628 C   0  0  0  0  0  0  0  0  0  0  0  0
   -8.2724   -0.9518   -0.3785 O   0  0  0  0  0  0  0  0  0  0  0  0
   -6.2116   -0.1671    0.2577 N   0  0  0  0  0  0  0  0  0  0  0  0
   -5.3647    0.7303    1.0498 C   0  0  0  0  0  0  0  0  0  0  0  0
   -3.9233    0.2153    1.2274 C   0  0  0  0  0  0  0  0  0  0  0  0
   -3.2979   -0.0868   -0.0685 N   0  0  0  0  0  0  0  0  0  0  0  0
   -1.9205   -0.1175   -0.2221 C   0  0  0  0  0  0  0  0  0  0  0  0
   -1.0444   -0.1708    0.8679 C   0  0  0  0  0  0  0  0  0  0  0  0
    0.3488   -0.1975    0.6995 C   0  0  0  0  0  0  0  0  0  0  0  0
    0.9287   -0.1698   -0.5724 C   0  0  0  0  0  0  0  0  0  0  0  0
    2.3389   -0.1984   -0.6139 N   0  0  0  0  0  0  0  0  0  0  0  0
    3.2627   -0.2493   -1.6299 C   0  0  0  0  0  0  0  0  0  0  0  0
    3.0482   -0.3494   -3.2826 S   0  0  0  0  0  0  0  0  0  0  0  0
    4.5860   -0.2135   -1.2065 N   0  0  0  0  0  0  0  0  0  0  0  0
    5.0936   -0.1524    0.0853 C   0  0  0  0  0  0  0  0  0  0  0  0
    4.3934   -0.2143    1.0925 O   0  0  0  0  0  0  0  0  0  0  0  0
    6.5730   -0.0551    0.2049 C   0  0  0  0  0  0  0  0  0  0  0  0
    7.1868   -0.6288    1.3254 C   0  0  0  0  0  0  0  0  0  0  0  0
    8.5726   -0.5618    1.4767 C   0  0  0  0  0  0  0  0  0  0  0  0
    9.3477    0.0866    0.5162 C   0  0  0  0  0  0  0  0  0  0  0  0
    8.7399    0.6763   -0.5923 C   0  0  0  0  0  0  0  0  0  0  0  0
    7.3533    0.6114   -0.7495 C   0  0  0  0  0  0  0  0  0  0  0  0
    0.0765   -0.1037   -1.6656 C   0  0  0  0  0  0  0  0  0  0  0  0
   -1.3189   -0.0792   -1.4883 C   0  0  0  0  0  0  0  0  0  0  0  0
   -4.1789   -0.5875   -1.1424 C   0  0  0  0  0  0  0  0  0  0  0  0
   -5.5111   -1.1309   -0.5940 C   0  0  0  0  0  0  0  0  0  0  0  0
   -9.3282    0.9406    0.8683 H   0  0  0  0  0  0  0  0  0  0  0  0
   -8.1500    0.6600    2.1673 H   0  0  0  0  0  0  0  0  0  0  0  0
   -7.8398    1.8932    0.8990 H   0  0  0  0  0  0  0  0  0  0  0  0
   -5.3515    1.6927    0.5239 H   0  0  0  0  0  0  0  0  0  0  0  0
   -5.8191    0.8928    2.0321 H   0  0  0  0  0  0  0  0  0  0  0  0
   -3.9290   -0.6911    1.8451 H   0  0  0  0  0  0  0  0  0  0  0  0
   -3.3631    0.9916    1.7621 H   0  0  0  0  0  0  0  0  0  0  0  0
   -1.4224   -0.2178    1.8847 H   0  0  0  0  0  0  0  0  0  0  0  0
    0.9720   -0.2477    1.5901 H   0  0  0  0  0  0  0  0  0  0  0  0
    2.7761   -0.2097    0.3099 H   0  0  0  0  0  0  0  0  0  0  0  0
    5.2405   -0.2764   -1.9740 H   0  0  0  0  0  0  0  0  0  0  0  0
    6.5880   -1.1320    2.0824 H   0  0  0  0  0  0  0  0  0  0  0  0
    9.0464   -1.0120    2.3458 H   0  0  0  0  0  0  0  0  0  0  0  0
   10.4272    0.1415    0.6373 H   0  0  0  0  0  0  0  0  0  0  0  0
    9.3481    1.1964   -1.3292 H   0  0  0  0  0  0  0  0  0  0  0  0
    6.9043    1.1116   -1.6030 H   0  0  0  0  0  0  0  0  0  0  0  0
    0.4362   -0.0529   -2.6838 H   0  0  0  0  0  0  0  0  0  0  0  0
   -1.9294   -0.0010   -2.3845 H   0  0  0  0  0  0  0  0  0  0  0  0
   -4.3813    0.2347   -1.8395 H   0  0  0  0  0  0  0  0  0  0  0  0
   -3.6983   -1.4001   -1.7007 H   0  0  0  0  0  0  0  0  0  0  0  0
   -5.3252   -2.0173    0.0250 H   0  0  0  0  0  0  0  0  0  0  0  0
   -6.1519   -1.4411   -1.4263 H   0  0  0  0  0  0  0  0  0  0  0  0
  1  2  1  0
  2  3  2  0
  2  4  1  0
  4  5  1  0
  5  6  1  0
  6  7  1  0
  7  8  1  0
  8  9  2  0
  9 10  1  0
 10 11  2  0
 11 12  1  0
 12 13  1  0
 13 14  2  0
 13 15  1  0
 15 16  1  0
 16 17  2  0
 16 18  1  0
 18 19  2  0
 19 20  1  0
 20 21  2  0
 21 22  1  0
 22 23  2  0
 11 24  1  0
 24 25  2  0
  7 26  1  0
 26 27  1  0
 27  4  1  0
 25  8  1  0
 23 18  1  0
  1 28  1  0
  1 29  1  0
  1 30  1  0
  5 31  1  0
  5 32  1  0
  6 33  1  0
  6 34  1  0
  9 35  1  0
 10 36  1  0
 12 37  1  0
 15 38  1  0
 19 39  1  0
 20 40  1  0
 21 41  1  0
 22 42  1  0
 23 43  1  0
 24 44  1  0
 25 45  1  0
 26 46  1  0
 26 47  1  0
 27 48  1  0
 27 49  1  0
M  END
$$$$
