
     RDKit          3D

 41 41  0  0  0  0  0  0  0  0999 V2000
    4.4448   -1.7518    3.3172 C   0  0  0  0  0  0  0  0  0  0  0  0
    3.5413   -0.6313    2.8279 C   0  0  0  0  0  0  0  0  0  0  0  0
    2.5941   -1.1147    1.7299 C   0  0  0  0  0  0  0  0  0  0  0  0
    1.6875    0.0169    1.2387 C   0  0  0  0  0  0  0  0  0  0  0  0
    0.7402   -0.4712    0.1374 C   0  0  0  0  0  0  0  0  0  0  0  0
   -0.3040    0.5836   -0.2996 C   0  0  0  0  0  0  0  0  0  0  0  0
    0.3624    1.8192   -0.9090 C   0  0  0  0  0  0  0  0  0  0  0  0
   -0.6735    2.8370   -1.3448 C   0  0  0  0  0  0  0  0  0  0  0  0
   -0.4036    4.0884   -1.1289 N   0  0  0  0  0  0  0  0  0  0  0  0
   -1.4178    4.9346   -1.5916 O   0  0  0  0  0  0  0  0  0  0  0  0
   -1.8800    2.3101   -2.0399 C   0  0  0  0  0  0  0  0  0  0  0  0
   -2.1487    0.9931   -2.0552 C   0  0  0  0  0  0  0  0  0  0  0  0
   -3.2947    0.4693   -2.8824 C   0  0  0  0  0  0  0  0  0  0  0  0
   -1.3183   -0.0373   -1.2990 C   0  0  0  0  0  0  0  0  0  0  0  0
   -2.2467   -0.9727   -0.5142 C   0  0  0  0  0  0  0  0  0  0  0  0
   -3.0750   -0.6149    0.3130 O   0  0  0  0  0  0  0  0  0  0  0  0
   -2.0069   -2.2697   -0.8655 O   0  0  0  0  0  0  0  0  0  0  0  0
   -2.8214   -3.2173   -0.1740 C   0  0  0  0  0  0  0  0  0  0  0  0
    5.0625   -2.1419    2.5019 H   0  0  0  0  0  0  0  0  0  0  0  0
    3.8570   -2.5783    3.7291 H   0  0  0  0  0  0  0  0  0  0  0  0
    5.1122   -1.3847    4.1032 H   0  0  0  0  0  0  0  0  0  0  0  0
    4.1604    0.1911    2.4508 H   0  0  0  0  0  0  0  0  0  0  0  0
    2.9628   -0.2407    3.6731 H   0  0  0  0  0  0  0  0  0  0  0  0
    3.1769   -1.5092    0.8886 H   0  0  0  0  0  0  0  0  0  0  0  0
    1.9799   -1.9390    2.1126 H   0  0  0  0  0  0  0  0  0  0  0  0
    2.3137    0.8339    0.8642 H   0  0  0  0  0  0  0  0  0  0  0  0
    1.1031    0.4095    2.0793 H   0  0  0  0  0  0  0  0  0  0  0  0
    0.2202   -1.3631    0.5068 H   0  0  0  0  0  0  0  0  0  0  0  0
    1.3288   -0.7895   -0.7324 H   0  0  0  0  0  0  0  0  0  0  0  0
   -0.8505    0.9057    0.5991 H   0  0  0  0  0  0  0  0  0  0  0  0
    1.0247    2.2997   -0.1809 H   0  0  0  0  0  0  0  0  0  0  0  0
    0.9682    1.5526   -1.7835 H   0  0  0  0  0  0  0  0  0  0  0  0
   -1.0878    5.8146   -1.3312 H   0  0  0  0  0  0  0  0  0  0  0  0
   -2.4953    3.0302   -2.5670 H   0  0  0  0  0  0  0  0  0  0  0  0
   -4.0879    0.0675   -2.2447 H   0  0  0  0  0  0  0  0  0  0  0  0
   -2.9460   -0.3244   -3.5514 H   0  0  0  0  0  0  0  0  0  0  0  0
   -3.7405    1.2506   -3.5076 H   0  0  0  0  0  0  0  0  0  0  0  0
   -0.7754   -0.6248   -2.0521 H   0  0  0  0  0  0  0  0  0  0  0  0
   -2.5475   -4.2170   -0.5224 H   0  0  0  0  0  0  0  0  0  0  0  0
   -3.8792   -3.0496   -0.3994 H   0  0  0  0  0  0  0  0  0  0  0  0
   -2.6400   -3.1646    0.9040 H   0  0  0  0  0  0  0  0  0  0  0  0
  1  2  1  0
  2  3  1  0
  3  4  1  0
  4  5  1  0
  5  6  1  0
  6  7  1  0
  7  8  1  0
  8  9  2  3
  9 10  1  0
  8 11  1  0
 11 12  2  0
 12 13  1  0
 12 14  1  0
 14 15  1  0
 15 16  2  0
 15 17  1  0
 17 18  1  0
 14  6  1  0
  1 19  1  0
  1 20  1  0
  1 21  1  0
  2 22  1  0
  2 23  1  0
  3 24  1  0
  3 25  1  0
  4 26  1  0
  4 27  1  0
  5 28  1  0
  5 29  1  0
  6 30  1  0
  7 31  1  0
  7 32  1  0
 10 33  1  0
 11 34  1  0
 13 35  1  0
 13 36  1  0
 13 37  1  0
 14 38  1  0
 18 39  1  0
 18 40  1  0
 18 41  1  0
M  END
$$$$
