
     RDKit          3D

 50 52  0  0  0  0  0  0  0  0999 V2000
   -3.2859   -2.8887   -0.2915 C   0  0  0  0  0  0  0  0  0  0  0  0
   -2.7113   -1.7026   -1.0587 C   0  0  0  0  0  0  0  0  0  0  0  0
   -2.7390   -0.3599   -0.2930 C   0  0  0  0  0  0  0  0  0  0  0  0
   -4.1289    0.0522    0.1853 C   0  0  0  0  0  0  0  0  0  0  0  0
   -5.1512    0.2819   -0.7587 C   0  0  0  0  0  0  0  0  0  0  0  0
   -6.4362    0.6577   -0.3606 C   0  0  0  0  0  0  0  0  0  0  0  0
   -6.7289    0.8103    0.9902 C   0  0  0  0  0  0  0  0  0  0  0  0
   -5.7380    0.5851    1.9407 C   0  0  0  0  0  0  0  0  0  0  0  0
   -4.4509    0.2093    1.5434 C   0  0  0  0  0  0  0  0  0  0  0  0
   -2.2028    0.6899   -1.1491 N   0  0  0  0  0  0  0  0  0  0  0  0
   -0.9811    1.1539   -0.7381 C   0  0  0  0  0  0  0  0  0  0  0  0
   -0.3281    1.9873   -1.3434 O   0  0  0  0  0  0  0  0  0  0  0  0
   -0.6557    0.5417    0.4255 N   0  0  0  0  0  0  0  0  0  0  0  0
    0.6074    0.7088    1.1054 C   0  0  0  0  0  0  0  0  0  0  0  0
    1.6309   -0.2797    0.5295 C   0  0  0  0  0  0  0  0  0  0  0  0
    1.3047   -1.1234   -0.3105 O   0  0  0  0  0  0  0  0  0  0  0  0
    2.9367   -0.1856    1.0105 N   0  0  0  0  0  0  0  0  0  0  0  0
    3.3926    0.8662    1.9089 C   0  0  0  0  0  0  0  0  0  0  0  0
    3.9709   -0.9945    0.3650 C   0  0  0  0  0  0  0  0  0  0  0  0
    4.7836   -0.2040   -0.6345 C   0  0  0  0  0  0  0  0  0  0  0  0
    4.2158    0.1952   -1.8533 C   0  0  0  0  0  0  0  0  0  0  0  0
    4.9580    0.9387   -2.7717 C   0  0  0  0  0  0  0  0  0  0  0  0
    6.2751    1.2900   -2.4829 C   0  0  0  0  0  0  0  0  0  0  0  0
    6.8512    0.8987   -1.2757 C   0  0  0  0  0  0  0  0  0  0  0  0
    6.1100    0.1561   -0.3547 C   0  0  0  0  0  0  0  0  0  0  0  0
   -1.6176   -0.3607    0.7830 C   0  0  0  0  0  0  0  0  0  0  0  0
   -1.5757   -1.0630    1.7873 O   0  0  0  0  0  0  0  0  0  0  0  0
   -2.7400   -3.0725    0.6376 H   0  0  0  0  0  0  0  0  0  0  0  0
   -3.2123   -3.7949   -0.9020 H   0  0  0  0  0  0  0  0  0  0  0  0
   -4.3425   -2.7406   -0.0498 H   0  0  0  0  0  0  0  0  0  0  0  0
   -3.2608   -1.6070   -2.0042 H   0  0  0  0  0  0  0  0  0  0  0  0
   -1.6778   -1.9477   -1.3393 H   0  0  0  0  0  0  0  0  0  0  0  0
   -4.9553    0.1673   -1.8229 H   0  0  0  0  0  0  0  0  0  0  0  0
   -7.2082    0.8298   -1.1064 H   0  0  0  0  0  0  0  0  0  0  0  0
   -7.7281    1.1012    1.3030 H   0  0  0  0  0  0  0  0  0  0  0  0
   -5.9651    0.6981    2.9981 H   0  0  0  0  0  0  0  0  0  0  0  0
   -3.7160    0.0352    2.3263 H   0  0  0  0  0  0  0  0  0  0  0  0
   -2.6190    1.0199   -2.0077 H   0  0  0  0  0  0  0  0  0  0  0  0
    0.9620    1.7319    0.9482 H   0  0  0  0  0  0  0  0  0  0  0  0
    0.4714    0.5011    2.1709 H   0  0  0  0  0  0  0  0  0  0  0  0
    4.2399    0.5041    2.4985 H   0  0  0  0  0  0  0  0  0  0  0  0
    2.6028    1.1697    2.5989 H   0  0  0  0  0  0  0  0  0  0  0  0
    3.6957    1.7332    1.3149 H   0  0  0  0  0  0  0  0  0  0  0  0
    3.5328   -1.8622   -0.1418 H   0  0  0  0  0  0  0  0  0  0  0  0
    4.6157   -1.4006    1.1541 H   0  0  0  0  0  0  0  0  0  0  0  0
    3.1873   -0.0722   -2.0920 H   0  0  0  0  0  0  0  0  0  0  0  0
    4.5055    1.2436   -3.7118 H   0  0  0  0  0  0  0  0  0  0  0  0
    6.8519    1.8686   -3.1996 H   0  0  0  0  0  0  0  0  0  0  0  0
    7.8791    1.1723   -1.0521 H   0  0  0  0  0  0  0  0  0  0  0  0
    6.5755   -0.1395    0.5826 H   0  0  0  0  0  0  0  0  0  0  0  0
  1  2  1  0
  2  3  1  0
  3  4  1  0
  4  5  2  0
  5  6  1  0
  6  7  2  0
  7  8  1  0
  8  9  2  0
  3 10  1  0
 10 11  1  0
 11 12  2  0
 11 13  1  0
 13 14  1  0
 14 15  1  0
 15 16  2  0
 15 17  1  0
 17 18  1  0
 17 19  1  0
 19 20  1  0
 20 21  2  0
 21 22  1  0
 22 23  2  0
 23 24  1  0
 24 25  2  0
 13 26  1  0
 26 27  2  0
 26  3  1  0
  9  4  1  0
 25 20  1  0
  1 28  1  0
  1 29  1  0
  1 30  1  0
  2 31  1  0
  2 32  1  0
  5 33  1  0
  6 34  1  0
  7 35  1  0
  8 36  1  0
  9 37  1  0
 10 38  1  0
 14 39  1  0
 14 40  1  0
 18 41  1  0
 18 42  1  0
 18 43  1  0
 19 44  1  0
 19 45  1  0
 21 46  1  0
 22 47  1  0
 23 48  1  0
 24 49  1  0
 25 50  1  0
M  END
$$$$
