
     RDKit          3D

 52 53  0  0  0  0  0  0  0  0999 V2000
    5.9219   -0.0751   -0.8103 C   0  0  0  0  0  0  0  0  0  0  0  0
    4.9592    0.0049    0.3953 C   0  0  0  0  0  0  0  0  0  0  0  0
    5.0762   -1.3096    1.1897 C   0  0  0  0  0  0  0  0  0  0  0  0
    5.4555    1.1569    1.2971 C   0  0  0  0  0  0  0  0  0  0  0  0
    3.4901    0.2902   -0.0966 C   0  0  0  0  0  0  0  0  0  0  0  0
    2.4769    0.4808    1.0552 C   0  0  0  0  0  0  0  0  0  0  0  0
    1.0760    0.8111    0.5437 C   0  0  0  0  0  0  0  0  0  0  0  0
    0.5635   -0.2497   -0.4286 C   0  0  0  0  0  0  0  0  0  0  0  0
   -0.6950    0.1727   -0.9949 O   0  0  0  0  0  0  0  0  0  0  0  0
   -1.8059   -0.0724   -0.2511 C   0  0  0  0  0  0  0  0  0  0  0  0
   -1.8307   -0.6217    0.8419 O   0  0  0  0  0  0  0  0  0  0  0  0
   -3.0442    0.4288   -0.9936 C   0  0  0  0  0  0  0  0  0  0  0  0
   -4.3888    0.3836   -0.1911 N   0  0  0  0  0  4  0  0  0  0  0  0
   -4.3169    1.3388    0.9941 C   0  0  0  0  0  0  0  0  0  0  0  0
   -5.5658    0.7659   -1.1094 C   0  0  0  0  0  0  0  0  0  0  0  0
   -6.3111   -0.5328   -1.3469 C   0  0  0  0  0  0  0  0  0  0  0  0
   -6.1505   -1.2675   -0.0344 C   0  0  0  0  0  0  0  0  0  0  0  0
   -4.6861   -1.0536    0.2954 C   0  0  0  0  0  0  0  0  0  0  0  0
    1.5473   -0.4303   -1.5820 C   0  0  0  0  0  0  0  0  0  0  0  0
    2.9506   -0.7696   -1.0841 C   0  0  0  0  0  0  0  0  0  0  0  0
    5.7333   -0.9598   -1.4266 H   0  0  0  0  0  0  0  0  0  0  0  0
    5.8309    0.8114   -1.4477 H   0  0  0  0  0  0  0  0  0  0  0  0
    6.9656   -0.1388   -0.4801 H   0  0  0  0  0  0  0  0  0  0  0  0
    4.4544   -1.2982    2.0901 H   0  0  0  0  0  0  0  0  0  0  0  0
    4.7867   -2.1765    0.5878 H   0  0  0  0  0  0  0  0  0  0  0  0
    6.1097   -1.4767    1.5160 H   0  0  0  0  0  0  0  0  0  0  0  0
    6.5189    1.0411    1.5382 H   0  0  0  0  0  0  0  0  0  0  0  0
    5.3330    2.1266    0.8021 H   0  0  0  0  0  0  0  0  0  0  0  0
    4.9195    1.1900    2.2509 H   0  0  0  0  0  0  0  0  0  0  0  0
    3.5224    1.2431   -0.6464 H   0  0  0  0  0  0  0  0  0  0  0  0
    2.4207   -0.4272    1.6663 H   0  0  0  0  0  0  0  0  0  0  0  0
    2.7914    1.2953    1.7153 H   0  0  0  0  0  0  0  0  0  0  0  0
    0.3886    0.9082    1.3923 H   0  0  0  0  0  0  0  0  0  0  0  0
    1.0789    1.7935    0.0536 H   0  0  0  0  0  0  0  0  0  0  0  0
    0.4403   -1.2135    0.0827 H   0  0  0  0  0  0  0  0  0  0  0  0
   -3.1955   -0.1911   -1.8840 H   0  0  0  0  0  0  0  0  0  0  0  0
   -2.8981    1.4762   -1.2783 H   0  0  0  0  0  0  0  0  0  0  0  0
   -5.2686    1.2928    1.5322 H   0  0  0  0  0  0  0  0  0  0  0  0
   -4.1446    2.3475    0.6079 H   0  0  0  0  0  0  0  0  0  0  0  0
   -3.5023    1.0372    1.6555 H   0  0  0  0  0  0  0  0  0  0  0  0
   -6.1958    1.4864   -0.5760 H   0  0  0  0  0  0  0  0  0  0  0  0
   -5.1856    1.2229   -2.0279 H   0  0  0  0  0  0  0  0  0  0  0  0
   -7.3599   -0.3644   -1.6072 H   0  0  0  0  0  0  0  0  0  0  0  0
   -5.8441   -1.0971   -2.1628 H   0  0  0  0  0  0  0  0  0  0  0  0
   -6.4041   -2.3283   -0.1146 H   0  0  0  0  0  0  0  0  0  0  0  0
   -6.7875   -0.8209    0.7382 H   0  0  0  0  0  0  0  0  0  0  0  0
   -4.4636   -1.1400    1.3630 H   0  0  0  0  0  0  0  0  0  0  0  0
   -4.0605   -1.7442   -0.2805 H   0  0  0  0  0  0  0  0  0  0  0  0
    1.1873   -1.2211   -2.2516 H   0  0  0  0  0  0  0  0  0  0  0  0
    1.5785    0.4816   -2.1927 H   0  0  0  0  0  0  0  0  0  0  0  0
    3.6040   -0.8517   -1.9583 H   0  0  0  0  0  0  0  0  0  0  0  0
    2.9238   -1.7556   -0.6067 H   0  0  0  0  0  0  0  0  0  0  0  0
  1  2  1  0
  2  3  1  0
  2  4  1  0
  2  5  1  0
  5  6  1  0
  6  7  1  0
  7  8  1  0
  8  9  1  0
  9 10  1  0
 10 11  2  0
 10 12  1  0
 12 13  1  0
 13 14  1  0
 13 15  1  0
 15 16  1  0
 16 17  1  0
 17 18  1  0
  8 19  1  0
 19 20  1  0
 20  5  1  0
 18 13  1  0
  1 21  1  0
  1 22  1  0
  1 23  1  0
  3 24  1  0
  3 25  1  0
  3 26  1  0
  4 27  1  0
  4 28  1  0
  4 29  1  0
  5 30  1  0
  6 31  1  0
  6 32  1  0
  7 33  1  0
  7 34  1  0
  8 35  1  0
 12 36  1  0
 12 37  1  0
 14 38  1  0
 14 39  1  0
 14 40  1  0
 15 41  1  0
 15 42  1  0
 16 43  1  0
 16 44  1  0
 17 45  1  0
 17 46  1  0
 18 47  1  0
 18 48  1  0
 19 49  1  0
 19 50  1  0
 20 51  1  0
 20 52  1  0
M  CHG  1  13   1
M  END
$$$$
