
     RDKit          3D

 39 40  0  0  0  0  0  0  0  0999 V2000
    7.6540   -0.6824    0.7106 C   0  0  0  0  0  0  0  0  0  0  0  0
    6.9075   -0.0376   -0.3133 O   0  0  0  0  0  0  0  0  0  0  0  0
    5.5625   -0.2830   -0.3452 C   0  0  0  0  0  0  0  0  0  0  0  0
    4.8716    0.3820   -1.3601 C   0  0  0  0  0  0  0  0  0  0  0  0
    3.4918    0.2224   -1.5084 C   0  0  0  0  0  0  0  0  0  0  0  0
    2.7814   -0.6136   -0.6406 C   0  0  0  0  0  0  0  0  0  0  0  0
    1.2912   -0.7738   -0.7823 C   0  0  0  0  0  0  0  0  0  0  0  0
    0.5176    0.2460    0.0491 C   0  0  0  0  0  0  0  0  0  0  0  0
   -0.8861    0.0157   -0.1532 O   0  0  0  0  0  0  0  0  0  0  0  0
   -1.6929    0.8513    0.5445 C   0  0  0  0  0  0  0  0  0  0  0  0
   -1.3276    1.7364    1.3003 O   0  0  0  0  0  0  0  0  0  0  0  0
   -3.1246    0.5498    0.2728 C   0  0  0  0  0  0  0  0  0  0  0  0
   -3.5271   -0.4955   -0.5661 C   0  0  0  0  0  0  0  0  0  0  0  0
   -4.8881   -0.7420   -0.7887 C   0  0  0  0  0  0  0  0  0  0  0  0
   -5.8826    0.0158   -0.1543 C   0  0  0  0  0  0  0  0  0  0  0  0
   -7.2166   -0.2011   -0.5370 N   0  0  0  0  0  0  0  0  0  0  0  0
   -5.4589    1.0967    0.6443 C   0  0  0  0  0  0  0  0  0  0  0  0
   -6.4352    1.9777    1.2857 N   0  0  0  0  0  4  0  0  0  0  0  0
   -7.5210    1.4844    1.6304 O   0  0  0  0  0  0  0  0  0  0  0  0
   -6.1091    3.1600    1.4634 O   0  0  0  0  0  1  0  0  0  0  0  0
   -4.0965    1.3552    0.8754 C   0  0  0  0  0  0  0  0  0  0  0  0
    3.4751   -1.2758    0.3797 C   0  0  0  0  0  0  0  0  0  0  0  0
    4.8577   -1.1133    0.5257 C   0  0  0  0  0  0  0  0  0  0  0  0
    7.3185   -0.3653    1.7036 H   0  0  0  0  0  0  0  0  0  0  0  0
    7.6085   -1.7715    0.6061 H   0  0  0  0  0  0  0  0  0  0  0  0
    8.7004   -0.3814    0.6014 H   0  0  0  0  0  0  0  0  0  0  0  0
    5.4140    1.0330   -2.0415 H   0  0  0  0  0  0  0  0  0  0  0  0
    2.9806    0.7565   -2.3061 H   0  0  0  0  0  0  0  0  0  0  0  0
    0.9944   -1.7909   -0.4945 H   0  0  0  0  0  0  0  0  0  0  0  0
    1.0024   -0.6891   -1.8381 H   0  0  0  0  0  0  0  0  0  0  0  0
    0.7679    1.2659   -0.2676 H   0  0  0  0  0  0  0  0  0  0  0  0
    0.7567    0.1306    1.1134 H   0  0  0  0  0  0  0  0  0  0  0  0
   -2.7946   -1.1238   -1.0688 H   0  0  0  0  0  0  0  0  0  0  0  0
   -5.1668   -1.5398   -1.4755 H   0  0  0  0  0  0  0  0  0  0  0  0
   -7.4298   -1.1522   -0.8244 H   0  0  0  0  0  0  0  0  0  0  0  0
   -7.9010    0.1441    0.1430 H   0  0  0  0  0  0  0  0  0  0  0  0
   -3.7905    2.1828    1.5153 H   0  0  0  0  0  0  0  0  0  0  0  0
    2.9444   -1.9259    1.0722 H   0  0  0  0  0  0  0  0  0  0  0  0
    5.3509   -1.6485    1.3299 H   0  0  0  0  0  0  0  0  0  0  0  0
  1  2  1  0
  2  3  1  0
  3  4  2  0
  4  5  1  0
  5  6  2  0
  6  7  1  0
  7  8  1  0
  8  9  1  0
  9 10  1  0
 10 11  2  0
 10 12  1  0
 12 13  2  0
 13 14  1  0
 14 15  2  0
 15 16  1  0
 15 17  1  0
 17 18  1  0
 18 19  2  0
 18 20  1  0
 17 21  2  0
  6 22  1  0
 22 23  2  0
 23  3  1  0
 21 12  1  0
  1 24  1  0
  1 25  1  0
  1 26  1  0
  4 27  1  0
  5 28  1  0
  7 29  1  0
  7 30  1  0
  8 31  1  0
  8 32  1  0
 13 33  1  0
 14 34  1  0
 16 35  1  0
 16 36  1  0
 21 37  1  0
 22 38  1  0
 23 39  1  0
M  CHG  2  18   1  20  -1
M  END
$$$$
