
     RDKit          3D

 62 64  0  0  0  0  0  0  0  0999 V2000
   -4.5589    2.7376   -0.9648 C   0  0  0  0  0  0  0  0  0  0  0  0
   -3.5245    1.7409   -0.5115 C   0  0  0  0  0  0  0  0  0  0  0  0
   -2.1860    2.1882   -0.6103 C   0  0  0  0  0  0  0  0  0  0  0  0
   -1.1150    1.3826   -0.2481 C   0  0  0  0  0  0  0  0  0  0  0  0
    0.1587    1.9595   -0.3534 O   0  0  0  0  0  0  0  0  0  0  0  0
    1.2883    1.2793    0.0640 C   0  0  0  0  0  0  0  0  0  0  0  0
    2.3844    1.8321    0.0705 O   0  0  0  0  0  0  0  0  0  0  0  0
    1.1199   -0.1330    0.5082 C   0  0  0  0  0  0  0  0  0  0  0  0
    2.4316   -0.7923    0.8673 C   0  0  0  0  0  0  0  0  0  0  0  0
    3.1493   -1.2997   -0.3795 C   0  0  0  0  0  0  0  0  0  0  0  0
    2.5785   -1.5368   -1.4404 O   0  0  0  0  0  0  0  0  0  0  0  0
    4.4939   -1.5329   -0.1736 N   0  0  0  0  0  0  0  0  0  0  0  0
    5.3824   -1.8965   -1.2580 C   0  0  0  0  0  0  0  0  0  0  0  0
    6.0793   -0.6756   -1.8602 C   0  0  0  0  0  0  0  0  0  0  0  0
    7.1087   -0.0361   -0.9105 C   0  0  0  0  0  0  0  0  0  0  0  0
    6.5415    0.4639    0.3589 N   0  0  0  0  0  0  0  0  0  0  0  0
    7.6204    0.7503    1.3108 C   0  0  0  0  0  0  0  0  0  0  0  0
    5.7586    1.6893    0.1370 C   0  0  0  0  0  0  0  0  0  0  0  0
   -0.0961   -0.7244    0.5617 C   0  0  0  0  0  0  0  0  0  0  0  0
   -0.2927   -2.1770    0.9093 C   0  0  0  0  0  0  0  0  0  0  0  0
   -1.2759    0.0869    0.2103 C   0  0  0  0  0  0  0  0  0  0  0  0
   -2.6113   -0.3463    0.3033 C   0  0  0  0  0  0  0  0  0  0  0  0
   -2.9899   -1.5686    0.7560 O   0  0  0  0  0  0  0  0  0  0  0  0
   -4.3261   -1.6421    0.6913 C   0  0  0  0  0  0  0  0  0  0  0  0
   -4.8908   -0.4777    0.1980 C   0  0  0  0  0  0  0  0  0  0  0  0
   -6.4015   -0.2894    0.0146 C   0  0  0  0  0  0  0  0  0  0  0  0
   -7.1755   -1.6228    0.2355 C   0  0  0  0  0  0  0  0  0  0  0  0
   -6.7574    0.1451   -1.4185 C   0  0  0  0  0  0  0  0  0  0  0  0
   -6.9569    0.6956    1.0609 C   0  0  0  0  0  0  0  0  0  0  0  0
   -3.7501    0.4085   -0.0441 C   0  0  0  0  0  0  0  0  0  0  0  0
   -5.4905    2.6445   -0.4148 H   0  0  0  0  0  0  0  0  0  0  0  0
   -4.7451    2.6169   -2.0361 H   0  0  0  0  0  0  0  0  0  0  0  0
   -4.2148    3.7645   -0.7950 H   0  0  0  0  0  0  0  0  0  0  0  0
   -1.9754    3.1940   -0.9731 H   0  0  0  0  0  0  0  0  0  0  0  0
    3.0785   -0.0892    1.4063 H   0  0  0  0  0  0  0  0  0  0  0  0
    2.2990   -1.6370    1.5502 H   0  0  0  0  0  0  0  0  0  0  0  0
    4.9482   -1.0171    0.5784 H   0  0  0  0  0  0  0  0  0  0  0  0
    6.1198   -2.5963   -0.8509 H   0  0  0  0  0  0  0  0  0  0  0  0
    4.8157   -2.4198   -2.0354 H   0  0  0  0  0  0  0  0  0  0  0  0
    6.6143   -0.9985   -2.7621 H   0  0  0  0  0  0  0  0  0  0  0  0
    5.3394    0.0632   -2.1877 H   0  0  0  0  0  0  0  0  0  0  0  0
    7.6388    0.7669   -1.4394 H   0  0  0  0  0  0  0  0  0  0  0  0
    7.8588   -0.8071   -0.6885 H   0  0  0  0  0  0  0  0  0  0  0  0
    7.2091    1.1038    2.2631 H   0  0  0  0  0  0  0  0  0  0  0  0
    8.3180    1.5063    0.9323 H   0  0  0  0  0  0  0  0  0  0  0  0
    8.1857   -0.1610    1.5353 H   0  0  0  0  0  0  0  0  0  0  0  0
    4.9253    1.5090   -0.5468 H   0  0  0  0  0  0  0  0  0  0  0  0
    6.3698    2.5010   -0.2741 H   0  0  0  0  0  0  0  0  0  0  0  0
    5.3173    2.0332    1.0793 H   0  0  0  0  0  0  0  0  0  0  0  0
   -0.8707   -2.6882    0.1317 H   0  0  0  0  0  0  0  0  0  0  0  0
    0.6417   -2.7382    0.9825 H   0  0  0  0  0  0  0  0  0  0  0  0
   -0.8038   -2.2788    1.8722 H   0  0  0  0  0  0  0  0  0  0  0  0
   -4.7386   -2.5844    1.0253 H   0  0  0  0  0  0  0  0  0  0  0  0
   -7.0411   -2.0080    1.2532 H   0  0  0  0  0  0  0  0  0  0  0  0
   -8.2535   -1.4849    0.0875 H   0  0  0  0  0  0  0  0  0  0  0  0
   -6.8450   -2.3992   -0.4649 H   0  0  0  0  0  0  0  0  0  0  0  0
   -7.8432    0.1533   -1.5721 H   0  0  0  0  0  0  0  0  0  0  0  0
   -6.4093    1.1451   -1.6626 H   0  0  0  0  0  0  0  0  0  0  0  0
   -6.3238   -0.5399   -2.1569 H   0  0  0  0  0  0  0  0  0  0  0  0
   -6.4453    1.6581    1.0564 H   0  0  0  0  0  0  0  0  0  0  0  0
   -6.8422    0.2934    2.0751 H   0  0  0  0  0  0  0  0  0  0  0  0
   -8.0241    0.8860    0.8992 H   0  0  0  0  0  0  0  0  0  0  0  0
  1  2  1  0
  2  3  2  0
  3  4  1  0
  4  5  1  0
  5  6  1  0
  6  7  2  0
  6  8  1  0
  8  9  1  0
  9 10  1  0
 10 11  2  0
 10 12  1  0
 12 13  1  0
 13 14  1  0
 14 15  1  0
 15 16  1  0
 16 17  1  0
 16 18  1  0
  8 19  2  0
 19 20  1  0
 19 21  1  0
 21 22  1  0
 22 23  1  0
 23 24  1  0
 24 25  2  0
 25 26  1  0
 26 27  1  0
 26 28  1  0
 26 29  1  0
 25 30  1  0
 30  2  1  0
 21  4  2  0
 30 22  2  0
  1 31  1  0
  1 32  1  0
  1 33  1  0
  3 34  1  0
  9 35  1  0
  9 36  1  0
 12 37  1  0
 13 38  1  0
 13 39  1  0
 14 40  1  0
 14 41  1  0
 15 42  1  0
 15 43  1  0
 17 44  1  0
 17 45  1  0
 17 46  1  0
 18 47  1  0
 18 48  1  0
 18 49  1  0
 20 50  1  0
 20 51  1  0
 20 52  1  0
 24 53  1  0
 27 54  1  0
 27 55  1  0
 27 56  1  0
 28 57  1  0
 28 58  1  0
 28 59  1  0
 29 60  1  0
 29 61  1  0
 29 62  1  0
M  END
$$$$
