
     RDKit          3D

 71 76  0  0  0  0  0  0  0  0999 V2000
    9.4692    2.5943   -2.4107 C   0  0  0  0  0  0  0  0  0  0  0  0
    9.5781    1.2734   -1.8968 O   0  0  0  0  0  0  0  0  0  0  0  0
    8.5323    0.8140   -1.1479 C   0  0  0  0  0  0  0  0  0  0  0  0
    7.3737    1.5142   -0.8318 C   0  0  0  0  0  0  0  0  0  0  0  0
    6.3717    0.9146   -0.0489 C   0  0  0  0  0  0  0  0  0  0  0  0
    6.4805   -0.4011    0.4255 C   0  0  0  0  0  0  0  0  0  0  0  0
    5.5061   -1.0221    1.2083 N   0  0  0  0  0  0  0  0  0  0  0  0
    5.1149   -2.4032    0.8362 C   0  0  0  0  0  0  0  0  0  0  0  0
    3.9682   -2.3893   -0.1911 C   0  0  0  0  0  0  0  0  0  0  0  0
    2.8234   -1.5649    0.2321 N   0  0  0  0  0  0  0  0  0  0  0  0
    1.5699   -1.9135   -0.2667 C   0  0  0  0  0  0  0  0  0  0  0  0
    1.4042   -2.9546   -0.9059 O   0  0  0  0  0  0  0  0  0  0  0  0
    0.4025   -0.9595   -0.0200 C   0  0  0  0  0  0  0  0  0  0  0  0
    0.4934    0.2794   -0.9316 C   0  0  0  0  0  0  0  0  0  0  0  0
   -0.7359    0.4571   -1.8178 C   0  0  0  0  0  0  0  0  0  0  0  0
   -2.0365    0.3835   -1.0159 C   0  0  0  0  0  0  0  0  0  0  0  0
   -2.0296   -0.7478   -0.0865 N   0  0  0  0  0  0  0  0  0  0  0  0
   -3.2693   -1.2199    0.3529 C   0  0  0  0  0  0  0  0  0  0  0  0
   -3.3690   -2.5048    0.8088 N   0  0  0  0  0  0  0  0  0  0  0  0
   -4.5558   -2.9744    1.2436 C   0  0  0  0  0  0  0  0  0  0  0  0
   -5.7317   -2.3293    1.3105 N   0  0  0  0  0  0  0  0  0  0  0  0
   -5.6050   -1.0644    0.8781 C   0  0  0  0  0  0  0  0  0  0  0  0
   -4.4614   -0.4471    0.3999 C   0  0  0  0  0  0  0  0  0  0  0  0
   -4.7463    0.8618    0.0528 N   0  0  0  0  0  0  0  0  0  0  0  0
   -6.0298    1.0420    0.3095 C   0  0  0  0  0  0  0  0  0  0  0  0
   -6.5897   -0.1101    0.8198 N   0  0  0  0  0  0  0  0  0  0  0  0
   -7.9649   -0.3451    1.2155 C   0  0  0  0  0  0  0  0  0  0  0  0
   -8.6834    0.8692    1.7935 C   0  0  0  0  0  0  0  0  0  0  0  0
   -9.1759    1.8524    0.7314 C   0  0  0  0  0  0  0  0  0  0  0  0
   -8.1878    2.1566   -0.3954 C   0  0  0  0  0  0  0  0  0  0  0  0
   -6.7532    2.3327    0.0856 C   0  0  0  0  0  0  0  0  0  0  0  0
   -0.9300   -1.7098   -0.1900 C   0  0  0  0  0  0  0  0  0  0  0  0
    3.1786   -0.2323    0.7519 C   0  0  0  0  0  0  0  0  0  0  0  0
    4.3596   -0.2633    1.7434 C   0  0  0  0  0  0  0  0  0  0  0  0
    7.6749   -1.0715    0.1139 C   0  0  0  0  0  0  0  0  0  0  0  0
    8.6799   -0.4814   -0.6633 C   0  0  0  0  0  0  0  0  0  0  0  0
    8.6174    2.6846   -3.0929 H   0  0  0  0  0  0  0  0  0  0  0  0
    9.4071    3.3295   -1.6011 H   0  0  0  0  0  0  0  0  0  0  0  0
   10.3781    2.8052   -2.9832 H   0  0  0  0  0  0  0  0  0  0  0  0
    7.2099    2.5310   -1.1733 H   0  0  0  0  0  0  0  0  0  0  0  0
    5.4948    1.5170    0.1626 H   0  0  0  0  0  0  0  0  0  0  0  0
    5.9441   -3.0023    0.4496 H   0  0  0  0  0  0  0  0  0  0  0  0
    4.7715   -2.9131    1.7456 H   0  0  0  0  0  0  0  0  0  0  0  0
    3.6477   -3.4203   -0.3770 H   0  0  0  0  0  0  0  0  0  0  0  0
    4.3182   -1.9768   -1.1456 H   0  0  0  0  0  0  0  0  0  0  0  0
    0.4439   -0.6359    1.0280 H   0  0  0  0  0  0  0  0  0  0  0  0
    0.5985    1.1724   -0.3017 H   0  0  0  0  0  0  0  0  0  0  0  0
    1.3846    0.2475   -1.5693 H   0  0  0  0  0  0  0  0  0  0  0  0
   -0.7364   -0.3224   -2.5899 H   0  0  0  0  0  0  0  0  0  0  0  0
   -0.6819    1.4162   -2.3455 H   0  0  0  0  0  0  0  0  0  0  0  0
   -2.1556    1.3135   -0.4474 H   0  0  0  0  0  0  0  0  0  0  0  0
   -2.8612    0.3089   -1.7360 H   0  0  0  0  0  0  0  0  0  0  0  0
   -4.5573   -4.0053    1.5841 H   0  0  0  0  0  0  0  0  0  0  0  0
   -7.9492   -1.1281    1.9835 H   0  0  0  0  0  0  0  0  0  0  0  0
   -8.4903   -0.7452    0.3399 H   0  0  0  0  0  0  0  0  0  0  0  0
   -8.0326    1.3876    2.5094 H   0  0  0  0  0  0  0  0  0  0  0  0
   -9.5556    0.5287    2.3653 H   0  0  0  0  0  0  0  0  0  0  0  0
   -9.4502    2.7891    1.2334 H   0  0  0  0  0  0  0  0  0  0  0  0
  -10.1006    1.4680    0.2827 H   0  0  0  0  0  0  0  0  0  0  0  0
   -8.2398    1.3682   -1.1567 H   0  0  0  0  0  0  0  0  0  0  0  0
   -8.5168    3.0795   -0.8887 H   0  0  0  0  0  0  0  0  0  0  0  0
   -6.2027    2.8915   -0.6823 H   0  0  0  0  0  0  0  0  0  0  0  0
   -6.7168    2.9394    0.9976 H   0  0  0  0  0  0  0  0  0  0  0  0
   -0.9902   -2.2377   -1.1506 H   0  0  0  0  0  0  0  0  0  0  0  0
   -0.9750   -2.4743    0.5961 H   0  0  0  0  0  0  0  0  0  0  0  0
    3.4254    0.3846   -0.1194 H   0  0  0  0  0  0  0  0  0  0  0  0
    2.3240    0.2309    1.2487 H   0  0  0  0  0  0  0  0  0  0  0  0
    4.0268   -0.7703    2.6585 H   0  0  0  0  0  0  0  0  0  0  0  0
    4.6421    0.7481    2.0563 H   0  0  0  0  0  0  0  0  0  0  0  0
    7.8648   -2.0674    0.5061 H   0  0  0  0  0  0  0  0  0  0  0  0
    9.5874   -1.0392   -0.8797 H   0  0  0  0  0  0  0  0  0  0  0  0
  1  2  1  0
  2  3  1  0
  3  4  2  0
  4  5  1  0
  5  6  2  0
  6  7  1  0
  7  8  1  0
  8  9  1  0
  9 10  1  0
 10 11  1  0
 11 12  2  0
 11 13  1  0
 13 14  1  0
 14 15  1  0
 15 16  1  0
 16 17  1  0
 17 18  1  0
 18 19  2  0
 19 20  1  0
 20 21  2  0
 21 22  1  0
 22 23  2  0
 23 24  1  0
 24 25  2  0
 25 26  1  0
 26 27  1  0
 27 28  1  0
 28 29  1  0
 29 30  1  0
 30 31  1  0
 17 32  1  0
 10 33  1  0
 33 34  1  0
  6 35  1  0
 35 36  2  0
 36  3  1  0
 34  7  1  0
 32 13  1  0
 23 18  1  0
 31 25  1  0
 26 22  1  0
  1 37  1  0
  1 38  1  0
  1 39  1  0
  4 40  1  0
  5 41  1  0
  8 42  1  0
  8 43  1  0
  9 44  1  0
  9 45  1  0
 13 46  1  0
 14 47  1  0
 14 48  1  0
 15 49  1  0
 15 50  1  0
 16 51  1  0
 16 52  1  0
 20 53  1  0
 27 54  1  0
 27 55  1  0
 28 56  1  0
 28 57  1  0
 29 58  1  0
 29 59  1  0
 30 60  1  0
 30 61  1  0
 31 62  1  0
 31 63  1  0
 32 64  1  0
 32 65  1  0
 33 66  1  0
 33 67  1  0
 34 68  1  0
 34 69  1  0
 35 70  1  0
 36 71  1  0
M  END
$$$$
