
     RDKit          3D

 57 61  0  0  0  0  0  0  0  0999 V2000
    5.6893   -1.8464   -4.6162 C   0  0  0  0  0  0  0  0  0  0  0  0
    5.4036   -1.6679   -3.1546 C   0  0  0  0  0  0  0  0  0  0  0  0
    6.0020   -2.5064   -2.2080 C   0  0  0  0  0  0  0  0  0  0  0  0
    5.7119   -2.3628   -0.8494 C   0  0  0  0  0  0  0  0  0  0  0  0
    4.8121   -1.3807   -0.4134 C   0  0  0  0  0  0  0  0  0  0  0  0
    4.4889   -1.2341    1.0520 C   0  0  0  0  0  0  0  0  0  0  0  0
    3.4928   -2.1957    1.4747 N   0  0  0  0  0  0  0  0  0  0  0  0
    3.8557   -3.3576    2.0747 N   0  0  0  0  0  0  0  0  0  0  0  0
    2.7418   -4.0308    2.3638 N   0  0  0  0  0  0  0  0  0  0  0  0
    1.6920   -3.2678    1.9564 C   0  0  0  0  0  0  0  0  0  0  0  0
    0.2761   -3.5021    2.0210 C   0  0  0  0  0  0  0  0  0  0  0  0
   -0.2712   -4.4938    2.4897 O   0  0  0  0  0  0  0  0  0  0  0  0
   -0.4534   -2.4486    1.4826 N   0  0  0  0  0  0  0  0  0  0  0  0
    0.1130   -1.2924    0.9563 C   0  0  0  0  0  0  0  0  0  0  0  0
   -0.8527   -0.2468    0.4195 C   0  0  0  0  0  0  0  0  0  0  0  0
   -1.7494    0.3239    1.5309 C   0  0  0  0  0  0  0  0  0  0  0  0
   -3.1981    0.5102    1.0823 C   0  0  0  0  0  0  0  0  0  0  0  0
   -3.1986    1.1234   -0.2637 N   0  0  0  0  0  0  0  0  0  0  0  0
   -4.6639    1.8669   -0.7424 S   0  0  0  0  0  6  0  0  0  0  0  0
   -5.7273    0.9281   -0.4530 O   0  0  0  0  0  0  0  0  0  0  0  0
   -4.4777    2.4185   -2.0666 O   0  0  0  0  0  0  0  0  0  0  0  0
   -4.7912    3.2357    0.3822 C   0  0  0  0  0  0  0  0  0  0  0  0
   -5.8666    3.3158    1.2739 C   0  0  0  0  0  0  0  0  0  0  0  0
   -5.9455    4.3982    2.1510 C   0  0  0  0  0  0  0  0  0  0  0  0
   -4.9591    5.3810    2.1231 C   0  0  0  0  0  0  0  0  0  0  0  0
   -5.0390    6.4165    2.9684 F   0  0  0  0  0  0  0  0  0  0  0  0
   -3.8919    5.3072    1.2318 C   0  0  0  0  0  0  0  0  0  0  0  0
   -3.8044    4.2291    0.3512 C   0  0  0  0  0  0  0  0  0  0  0  0
   -2.6114    0.2539   -1.3230 C   0  0  0  0  0  0  0  0  0  0  0  0
   -1.6746   -0.8051   -0.7442 C   0  0  0  0  0  0  0  0  0  0  0  0
    1.3970   -1.0668    0.9025 N   0  0  0  0  0  0  0  0  0  0  0  0
    2.1329   -2.0886    1.4060 C   0  0  0  0  0  0  0  0  0  0  0  0
    4.1954   -0.5578   -1.3657 C   0  0  0  0  0  0  0  0  0  0  0  0
    4.4874   -0.7022   -2.7240 C   0  0  0  0  0  0  0  0  0  0  0  0
    6.7054   -2.2235   -4.7728 H   0  0  0  0  0  0  0  0  0  0  0  0
    4.9780   -2.5542   -5.0528 H   0  0  0  0  0  0  0  0  0  0  0  0
    5.6119   -0.8924   -5.1483 H   0  0  0  0  0  0  0  0  0  0  0  0
    6.6970   -3.2821   -2.5227 H   0  0  0  0  0  0  0  0  0  0  0  0
    6.1861   -3.0325   -0.1334 H   0  0  0  0  0  0  0  0  0  0  0  0
    4.1073   -0.2313    1.2766 H   0  0  0  0  0  0  0  0  0  0  0  0
    5.3879   -1.3772    1.6632 H   0  0  0  0  0  0  0  0  0  0  0  0
   -1.4529   -2.5815    1.5099 H   0  0  0  0  0  0  0  0  0  0  0  0
   -0.2419    0.5789    0.0264 H   0  0  0  0  0  0  0  0  0  0  0  0
   -1.3410    1.2993    1.8280 H   0  0  0  0  0  0  0  0  0  0  0  0
   -1.7319   -0.2906    2.4383 H   0  0  0  0  0  0  0  0  0  0  0  0
   -3.7248   -0.4510    1.0609 H   0  0  0  0  0  0  0  0  0  0  0  0
   -3.7048    1.1487    1.8118 H   0  0  0  0  0  0  0  0  0  0  0  0
   -6.6396    2.5506    1.2890 H   0  0  0  0  0  0  0  0  0  0  0  0
   -6.7697    4.4859    2.8525 H   0  0  0  0  0  0  0  0  0  0  0  0
   -3.1410    6.0914    1.2274 H   0  0  0  0  0  0  0  0  0  0  0  0
   -2.9785    4.1659   -0.3541 H   0  0  0  0  0  0  0  0  0  0  0  0
   -2.0471    0.9003   -2.0053 H   0  0  0  0  0  0  0  0  0  0  0  0
   -3.3963   -0.2469   -1.9010 H   0  0  0  0  0  0  0  0  0  0  0  0
   -2.2699   -1.6653   -0.4120 H   0  0  0  0  0  0  0  0  0  0  0  0
   -1.0165   -1.1868   -1.5345 H   0  0  0  0  0  0  0  0  0  0  0  0
    3.4742    0.1969   -1.0576 H   0  0  0  0  0  0  0  0  0  0  0  0
    3.9919   -0.0567   -3.4458 H   0  0  0  0  0  0  0  0  0  0  0  0
  1  2  1  0
  2  3  2  0
  3  4  1  0
  4  5  2  0
  5  6  1  0
  6  7  1  0
  7  8  1  0
  8  9  2  0
  9 10  1  0
 10 11  1  0
 11 12  2  0
 11 13  1  0
 13 14  1  0
 14 15  1  0
 15 16  1  0
 16 17  1  0
 17 18  1  0
 18 19  1  0
 19 20  2  0
 19 21  2  0
 19 22  1  0
 22 23  2  0
 23 24  1  0
 24 25  2  0
 25 26  1  0
 25 27  1  0
 27 28  2  0
 18 29  1  0
 29 30  1  0
 14 31  2  0
 31 32  1  0
  5 33  1  0
 33 34  2  0
 34  2  1  0
 32  7  1  0
 32 10  2  0
 30 15  1  0
 28 22  1  0
  1 35  1  0
  1 36  1  0
  1 37  1  0
  3 38  1  0
  4 39  1  0
  6 40  1  0
  6 41  1  0
 13 42  1  0
 15 43  1  0
 16 44  1  0
 16 45  1  0
 17 46  1  0
 17 47  1  0
 23 48  1  0
 24 49  1  0
 27 50  1  0
 28 51  1  0
 29 52  1  0
 29 53  1  0
 30 54  1  0
 30 55  1  0
 33 56  1  0
 34 57  1  0
M  END
$$$$
