
     RDKit          3D

 69 73  0  0  0  0  0  0  0  0999 V2000
   -3.2910   -6.1048   -0.9295 C   0  0  0  0  0  0  0  0  0  0  0  0
   -1.8759   -6.1258   -0.7904 O   0  0  0  0  0  0  0  0  0  0  0  0
   -1.3122   -5.1277   -0.0434 C   0  0  0  0  0  0  0  0  0  0  0  0
    0.0725   -5.2256    0.1096 C   0  0  0  0  0  0  0  0  0  0  0  0
    0.7761   -4.2735    0.8466 C   0  0  0  0  0  0  0  0  0  0  0  0
    0.0938   -3.2115    1.4381 C   0  0  0  0  0  0  0  0  0  0  0  0
   -1.2947   -3.0942    1.2939 C   0  0  0  0  0  0  0  0  0  0  0  0
   -2.0076   -1.9593    1.8973 C   0  0  0  0  0  0  0  0  0  0  0  0
   -3.1820   -2.2827    3.0991 S   0  0  0  0  0  0  0  0  0  0  0  0
   -3.5450   -0.6193    3.3257 C   0  0  0  0  0  0  0  0  0  0  0  0
   -4.4909   -0.0807    4.2227 C   0  0  0  0  0  0  0  0  0  0  0  0
   -4.6731    1.3064    4.2754 C   0  0  0  0  0  0  0  0  0  0  0  0
   -5.5685    1.9325    5.1095 O   0  0  0  0  0  0  0  0  0  0  0  0
   -6.3394    1.1207    5.9833 C   0  0  0  0  0  0  0  0  0  0  0  0
   -3.9222    2.1464    3.4402 C   0  0  0  0  0  0  0  0  0  0  0  0
   -4.1720    3.4927    3.5555 O   0  0  0  0  0  0  0  0  0  0  0  0
   -3.4821    4.3700    2.6775 C   0  0  0  0  0  0  0  0  0  0  0  0
   -2.9817    1.5934    2.5601 C   0  0  0  0  0  0  0  0  0  0  0  0
   -2.7753    0.1890    2.4925 C   0  0  0  0  0  0  0  0  0  0  0  0
   -1.8751   -0.5968    1.6736 C   0  0  0  0  0  0  0  0  0  0  0  0
   -0.9231   -0.0643    0.7028 C   0  0  0  0  0  0  0  0  0  0  0  0
   -1.0921   -0.3014   -0.6654 C   0  0  0  0  0  0  0  0  0  0  0  0
   -0.1707    0.2027   -1.5905 C   0  0  0  0  0  0  0  0  0  0  0  0
    0.9237    0.9500   -1.1543 C   0  0  0  0  0  0  0  0  0  0  0  0
    1.8945    1.4936   -1.9478 O   0  0  0  0  0  0  0  0  0  0  0  0
    1.8503    1.1795   -3.3424 C   0  0  0  0  0  0  0  0  0  0  0  0
    3.0733    1.8020   -4.0448 C   0  0  0  0  0  0  0  0  0  0  0  0
    4.2793    0.9465   -4.0626 N   0  0  0  0  0  0  0  0  0  0  0  0
    4.7991    0.6135   -2.7275 C   0  0  0  0  0  0  0  0  0  0  0  0
    5.4502    1.7938   -2.0034 C   0  0  0  0  0  0  0  0  0  0  0  0
    6.5487    2.4208   -2.8563 C   0  0  0  0  0  0  0  0  0  0  0  0
    6.0416    2.7394   -4.2590 C   0  0  0  0  0  0  0  0  0  0  0  0
    5.3459    1.5310   -4.8929 C   0  0  0  0  0  0  0  0  0  0  0  0
    1.0833    1.1972    0.2117 C   0  0  0  0  0  0  0  0  0  0  0  0
    0.1676    0.6938    1.1384 C   0  0  0  0  0  0  0  0  0  0  0  0
   -1.9917   -4.0600    0.5469 C   0  0  0  0  0  0  0  0  0  0  0  0
   -3.7863   -6.1822    0.0443 H   0  0  0  0  0  0  0  0  0  0  0  0
   -3.6200   -5.2125   -1.4721 H   0  0  0  0  0  0  0  0  0  0  0  0
   -3.5813   -6.9789   -1.5200 H   0  0  0  0  0  0  0  0  0  0  0  0
    0.6069   -6.0526   -0.3517 H   0  0  0  0  0  0  0  0  0  0  0  0
    1.8538   -4.3586    0.9576 H   0  0  0  0  0  0  0  0  0  0  0  0
    0.6526   -2.4745    2.0105 H   0  0  0  0  0  0  0  0  0  0  0  0
   -5.0581   -0.7587    4.8495 H   0  0  0  0  0  0  0  0  0  0  0  0
   -5.6990    0.5769    6.6850 H   0  0  0  0  0  0  0  0  0  0  0  0
   -6.9873    1.7804    6.5684 H   0  0  0  0  0  0  0  0  0  0  0  0
   -6.9833    0.4366    5.4217 H   0  0  0  0  0  0  0  0  0  0  0  0
   -3.8292    5.3871    2.8815 H   0  0  0  0  0  0  0  0  0  0  0  0
   -3.7111    4.1452    1.6307 H   0  0  0  0  0  0  0  0  0  0  0  0
   -2.4035    4.3445    2.8623 H   0  0  0  0  0  0  0  0  0  0  0  0
   -2.3883    2.2212    1.9046 H   0  0  0  0  0  0  0  0  0  0  0  0
   -1.9382   -0.8844   -1.0225 H   0  0  0  0  0  0  0  0  0  0  0  0
   -0.3387   -0.0096   -2.6411 H   0  0  0  0  0  0  0  0  0  0  0  0
    1.8334    0.0954   -3.5057 H   0  0  0  0  0  0  0  0  0  0  0  0
    0.9455    1.6245   -3.7734 H   0  0  0  0  0  0  0  0  0  0  0  0
    3.2834    2.7848   -3.6078 H   0  0  0  0  0  0  0  0  0  0  0  0
    2.7790    1.9648   -5.0895 H   0  0  0  0  0  0  0  0  0  0  0  0
    5.5495   -0.1803   -2.8454 H   0  0  0  0  0  0  0  0  0  0  0  0
    4.0242    0.1652   -2.0978 H   0  0  0  0  0  0  0  0  0  0  0  0
    4.6970    2.5508   -1.7542 H   0  0  0  0  0  0  0  0  0  0  0  0
    5.8769    1.4510   -1.0533 H   0  0  0  0  0  0  0  0  0  0  0  0
    6.9239    3.3315   -2.3767 H   0  0  0  0  0  0  0  0  0  0  0  0
    7.3938    1.7250   -2.9269 H   0  0  0  0  0  0  0  0  0  0  0  0
    6.8832    3.0498   -4.8892 H   0  0  0  0  0  0  0  0  0  0  0  0
    5.3528    3.5907   -4.2167 H   0  0  0  0  0  0  0  0  0  0  0  0
    4.9522    1.8072   -5.8789 H   0  0  0  0  0  0  0  0  0  0  0  0
    6.0958    0.7527   -5.0881 H   0  0  0  0  0  0  0  0  0  0  0  0
    1.9332    1.7808    0.5578 H   0  0  0  0  0  0  0  0  0  0  0  0
    0.3185    0.8896    2.1973 H   0  0  0  0  0  0  0  0  0  0  0  0
   -3.0652   -3.9505    0.4331 H   0  0  0  0  0  0  0  0  0  0  0  0
  1  2  1  0
  2  3  1  0
  3  4  2  0
  4  5  1  0
  5  6  2  0
  6  7  1  0
  7  8  1  0
  8  9  1  0
  9 10  1  0
 10 11  2  0
 11 12  1  0
 12 13  1  0
 13 14  1  0
 12 15  2  0
 15 16  1  0
 16 17  1  0
 15 18  1  0
 18 19  2  0
 19 20  1  0
 20 21  1  0
 21 22  2  0
 22 23  1  0
 23 24  2  0
 24 25  1  0
 25 26  1  0
 26 27  1  0
 27 28  1  0
 28 29  1  0
 29 30  1  0
 30 31  1  0
 31 32  1  0
 32 33  1  0
 24 34  1  0
 34 35  2  0
  7 36  2  0
 36  3  1  0
 20  8  2  0
 35 21  1  0
 19 10  1  0
 33 28  1  0
  1 37  1  0
  1 38  1  0
  1 39  1  0
  4 40  1  0
  5 41  1  0
  6 42  1  0
 11 43  1  0
 14 44  1  0
 14 45  1  0
 14 46  1  0
 17 47  1  0
 17 48  1  0
 17 49  1  0
 18 50  1  0
 22 51  1  0
 23 52  1  0
 26 53  1  0
 26 54  1  0
 27 55  1  0
 27 56  1  0
 29 57  1  0
 29 58  1  0
 30 59  1  0
 30 60  1  0
 31 61  1  0
 31 62  1  0
 32 63  1  0
 32 64  1  0
 33 65  1  0
 33 66  1  0
 34 67  1  0
 35 68  1  0
 36 69  1  0
M  END
$$$$
