
     RDKit          3D

 46 48  0  0  0  0  0  0  0  0999 V2000
   -0.5770    1.5795   -1.2540 O   0  0  0  0  0  0  0  0  0  0  0  0
   -0.5329    0.6034   -0.5144 C   0  0  0  0  0  0  0  0  0  0  0  0
    0.7810   -0.0036   -0.0503 C   0  0  0  0  0  0  0  0  0  0  0  0
    1.9761    0.8552   -0.4755 C   0  0  0  0  0  0  0  0  0  0  0  0
    3.2603    0.3265    0.0473 N   0  0  0  0  0  0  0  0  0  0  0  0
    4.2868    1.3858   -0.0031 C   0  0  0  0  0  0  0  0  0  0  0  0
    5.2868    1.3118    1.1512 C   0  0  0  0  0  0  0  0  0  0  0  0
    5.8969   -0.0498    1.4681 C   0  0  0  0  0  0  0  0  0  0  0  0
    6.0741   -0.9733    0.2699 C   0  0  0  0  0  0  0  0  0  0  0  0
    4.7810   -1.6954   -0.0992 C   0  0  0  0  0  0  0  0  0  0  0  0
    3.7007   -0.8333   -0.7563 C   0  0  0  0  0  0  0  0  0  0  0  0
   -1.6176   -0.1005   -0.0132 N   0  0  0  0  0  0  0  0  0  0  0  0
   -2.9874    0.1545   -0.2326 C   0  0  0  0  0  0  0  0  0  0  0  0
   -3.4718    1.2004   -1.0226 C   0  0  0  0  0  0  0  0  0  0  0  0
   -4.8489    1.3822   -1.1968 C   0  0  0  0  0  0  0  0  0  0  0  0
   -5.7497    0.5173   -0.5844 C   0  0  0  0  0  0  0  0  0  0  0  0
   -5.2761   -0.5137    0.2288 C   0  0  0  0  0  0  0  0  0  0  0  0
   -3.9030   -0.7033    0.3919 C   0  0  0  0  0  0  0  0  0  0  0  0
   -6.1009   -1.3862    0.8933 O   0  0  0  0  0  0  0  0  0  0  0  0
   -7.4480   -0.8996    0.9342 C   0  0  0  0  0  0  0  0  0  0  0  0
   -7.8753   -0.3855   -0.4307 C   0  0  0  0  0  0  0  0  0  0  0  0
   -7.0815    0.7420   -0.8171 O   0  0  0  0  0  0  0  0  0  0  0  0
    0.7575   -0.0880    1.0432 H   0  0  0  0  0  0  0  0  0  0  0  0
    0.8409   -1.0118   -0.4725 H   0  0  0  0  0  0  0  0  0  0  0  0
    2.0137    0.9704   -1.5668 H   0  0  0  0  0  0  0  0  0  0  0  0
    1.7981    1.8574   -0.0625 H   0  0  0  0  0  0  0  0  0  0  0  0
    3.8272    2.3804    0.0738 H   0  0  0  0  0  0  0  0  0  0  0  0
    4.8131    1.3960   -0.9667 H   0  0  0  0  0  0  0  0  0  0  0  0
    6.1016    2.0123    0.9255 H   0  0  0  0  0  0  0  0  0  0  0  0
    4.8136    1.6937    2.0654 H   0  0  0  0  0  0  0  0  0  0  0  0
    5.2880   -0.5504    2.2317 H   0  0  0  0  0  0  0  0  0  0  0  0
    6.8753    0.1195    1.9355 H   0  0  0  0  0  0  0  0  0  0  0  0
    6.8130   -1.7380    0.5411 H   0  0  0  0  0  0  0  0  0  0  0  0
    6.4854   -0.4344   -0.5910 H   0  0  0  0  0  0  0  0  0  0  0  0
    4.3644   -2.1825    0.7919 H   0  0  0  0  0  0  0  0  0  0  0  0
    5.0307   -2.5053   -0.7967 H   0  0  0  0  0  0  0  0  0  0  0  0
    4.0341   -0.5165   -1.7538 H   0  0  0  0  0  0  0  0  0  0  0  0
    2.8573   -1.5101   -0.9324 H   0  0  0  0  0  0  0  0  0  0  0  0
   -1.4059   -0.8893    0.5860 H   0  0  0  0  0  0  0  0  0  0  0  0
   -2.8049    1.8951   -1.5237 H   0  0  0  0  0  0  0  0  0  0  0  0
   -5.2117    2.1946   -1.8206 H   0  0  0  0  0  0  0  0  0  0  0  0
   -3.5641   -1.5219    1.0203 H   0  0  0  0  0  0  0  0  0  0  0  0
   -7.5116   -0.1141    1.6974 H   0  0  0  0  0  0  0  0  0  0  0  0
   -8.0906   -1.7295    1.2442 H   0  0  0  0  0  0  0  0  0  0  0  0
   -8.9204   -0.0616   -0.4031 H   0  0  0  0  0  0  0  0  0  0  0  0
   -7.7779   -1.1610   -1.2006 H   0  0  0  0  0  0  0  0  0  0  0  0
  1  2  2  0
  2  3  1  0
  3  4  1  0
  4  5  1  0
  5  6  1  0
  6  7  1  0
  7  8  1  0
  8  9  1  0
  9 10  1  0
 10 11  1  0
  2 12  1  0
 12 13  1  0
 13 14  2  0
 14 15  1  0
 15 16  2  0
 16 17  1  0
 17 18  2  0
 17 19  1  0
 19 20  1  0
 20 21  1  0
 21 22  1  0
 11  5  1  0
 18 13  1  0
 22 16  1  0
  3 23  1  0
  3 24  1  0
  4 25  1  0
  4 26  1  0
  6 27  1  0
  6 28  1  0
  7 29  1  0
  7 30  1  0
  8 31  1  0
  8 32  1  0
  9 33  1  0
  9 34  1  0
 10 35  1  0
 10 36  1  0
 11 37  1  0
 11 38  1  0
 12 39  1  0
 14 40  1  0
 15 41  1  0
 18 42  1  0
 20 43  1  0
 20 44  1  0
 21 45  1  0
 21 46  1  0
M  END
$$$$
