
     RDKit          3D

 36 37  0  0  0  0  0  0  0  0999 V2000
    0.2421    2.8130   -0.0105 C   0  0  0  0  0  0  0  0  0  0  0  0
    1.0795    1.7514    0.7127 C   0  0  0  0  0  0  0  0  0  0  0  0
    0.1795    0.8875    1.4889 N   0  0  0  0  0  0  0  0  0  0  0  0
   -0.5884   -0.0110    0.9850 C   0  0  0  0  0  0  0  0  0  0  0  0
   -1.4406   -0.7623    2.0088 C   0  0  0  0  0  0  0  0  0  0  0  0
   -2.9282   -0.6628    1.7109 C   0  0  0  0  0  0  0  0  0  0  0  0
   -3.4199   -1.7371    0.7422 C   0  0  0  0  0  0  0  0  0  0  0  0
   -2.4893   -2.0376   -0.4327 C   0  0  0  0  0  0  0  0  0  0  0  0
   -1.8620   -0.7945   -1.0443 C   0  0  0  0  0  0  0  0  0  0  0  0
   -0.6687   -0.3678   -0.3402 N   0  0  0  0  0  0  0  0  0  0  0  0
    2.1236    1.0152   -0.1174 C   0  0  0  0  0  0  0  0  0  0  0  0
    2.4461    1.3732   -1.4357 C   0  0  0  0  0  0  0  0  0  0  0  0
    3.4224    0.6721   -2.1499 C   0  0  0  0  0  0  0  0  0  0  0  0
    4.0974   -0.3914   -1.5562 C   0  0  0  0  0  0  0  0  0  0  0  0
    3.8014   -0.7531   -0.2456 C   0  0  0  0  0  0  0  0  0  0  0  0
    2.8273   -0.0525    0.4678 C   0  0  0  0  0  0  0  0  0  0  0  0
    0.8764    3.6106   -0.4121 H   0  0  0  0  0  0  0  0  0  0  0  0
   -0.4714    3.2777    0.6797 H   0  0  0  0  0  0  0  0  0  0  0  0
   -0.3332    2.3908   -0.8408 H   0  0  0  0  0  0  0  0  0  0  0  0
    1.6670    2.3061    1.4581 H   0  0  0  0  0  0  0  0  0  0  0  0
   -1.1018   -1.8031    2.0594 H   0  0  0  0  0  0  0  0  0  0  0  0
   -1.2538   -0.3217    2.9966 H   0  0  0  0  0  0  0  0  0  0  0  0
   -3.1685    0.3311    1.3132 H   0  0  0  0  0  0  0  0  0  0  0  0
   -3.4937   -0.7655    2.6451 H   0  0  0  0  0  0  0  0  0  0  0  0
   -3.5905   -2.6711    1.2921 H   0  0  0  0  0  0  0  0  0  0  0  0
   -4.4009   -1.4297    0.3585 H   0  0  0  0  0  0  0  0  0  0  0  0
   -1.7080   -2.7415   -0.1197 H   0  0  0  0  0  0  0  0  0  0  0  0
   -3.0783   -2.5567   -1.1991 H   0  0  0  0  0  0  0  0  0  0  0  0
   -2.5803    0.0302   -1.1117 H   0  0  0  0  0  0  0  0  0  0  0  0
   -1.5638   -1.0335   -2.0718 H   0  0  0  0  0  0  0  0  0  0  0  0
   -0.0212    0.1282   -0.9414 H   0  0  0  0  0  0  0  0  0  0  0  0
    1.9500    2.2034   -1.9308 H   0  0  0  0  0  0  0  0  0  0  0  0
    3.6598    0.9616   -3.1704 H   0  0  0  0  0  0  0  0  0  0  0  0
    4.8571   -0.9341   -2.1120 H   0  0  0  0  0  0  0  0  0  0  0  0
    4.3272   -1.5790    0.2256 H   0  0  0  0  0  0  0  0  0  0  0  0
    2.6056   -0.3458    1.4930 H   0  0  0  0  0  0  0  0  0  0  0  0
  1  2  1  0
  2  3  1  0
  3  4  2  3
  4  5  1  0
  5  6  1  0
  6  7  1  0
  7  8  1  0
  8  9  1  0
  9 10  1  0
  2 11  1  0
 11 12  2  0
 12 13  1  0
 13 14  2  0
 14 15  1  0
 15 16  2  0
 10  4  1  0
 16 11  1  0
  1 17  1  0
  1 18  1  0
  1 19  1  0
  2 20  1  0
  5 21  1  0
  5 22  1  0
  6 23  1  0
  6 24  1  0
  7 25  1  0
  7 26  1  0
  8 27  1  0
  8 28  1  0
  9 29  1  0
  9 30  1  0
 10 31  1  0
 12 32  1  0
 13 33  1  0
 14 34  1  0
 15 35  1  0
 16 36  1  0
M  END
$$$$
