
     RDKit          3D

 22 23  0  0  0  0  0  0  0  0999 V2000
   -4.1700    0.4168    0.1783 C   0  0  0  0  0  0  0  0  0  0  0  0
   -2.6847    0.2165    0.1248 C   0  0  0  0  0  0  0  0  0  0  0  0
   -1.9354    0.7332   -0.9356 C   0  0  0  0  0  0  0  0  0  0  0  0
   -0.5441    0.5737   -0.9715 C   0  0  0  0  0  0  0  0  0  0  0  0
    0.1355   -0.0972    0.0578 C   0  0  0  0  0  0  0  0  0  0  0  0
    1.5973   -0.2966    0.0760 C   0  0  0  0  0  0  0  0  0  0  0  0
    2.2492   -0.9482    1.0228 N   0  0  0  0  0  0  0  0  0  0  0  0
    3.6103   -0.9955    0.8017 N   0  0  0  0  0  0  0  0  0  0  0  0
    3.9590   -0.3775   -0.3013 C   0  0  0  0  0  0  0  0  0  0  0  0
    5.2261   -0.2644   -0.7454 N   0  0  0  0  0  0  0  0  0  0  0  0
    2.6425    0.3172   -1.1504 S   0  0  0  0  0  0  0  0  0  0  0  0
   -0.6302   -0.5990    1.1242 C   0  0  0  0  0  0  0  0  0  0  0  0
   -2.0197   -0.4408    1.1621 C   0  0  0  0  0  0  0  0  0  0  0  0
   -4.6568   -0.4085    0.7085 H   0  0  0  0  0  0  0  0  0  0  0  0
   -4.4029    1.3543    0.6926 H   0  0  0  0  0  0  0  0  0  0  0  0
   -4.5961    0.4507   -0.8300 H   0  0  0  0  0  0  0  0  0  0  0  0
   -2.4291    1.2644   -1.7470 H   0  0  0  0  0  0  0  0  0  0  0  0
   -0.0134    0.9889   -1.8243 H   0  0  0  0  0  0  0  0  0  0  0  0
    5.4393    0.5197   -1.3498 H   0  0  0  0  0  0  0  0  0  0  0  0
    5.9421   -0.4470   -0.0496 H   0  0  0  0  0  0  0  0  0  0  0  0
   -0.1438   -1.1228    1.9469 H   0  0  0  0  0  0  0  0  0  0  0  0
   -2.5750   -0.8379    2.0092 H   0  0  0  0  0  0  0  0  0  0  0  0
  1  2  1  0
  2  3  2  0
  3  4  1  0
  4  5  2  0
  5  6  1  0
  6  7  2  0
  7  8  1  0
  8  9  2  0
  9 10  1  0
  9 11  1  0
  5 12  1  0
 12 13  2  0
 13  2  1  0
 11  6  1  0
  1 14  1  0
  1 15  1  0
  1 16  1  0
  3 17  1  0
  4 18  1  0
 10 19  1  0
 10 20  1  0
 12 21  1  0
 13 22  1  0
M  END
$$$$
