
     RDKit          3D

 57 60  0  0  0  0  0  0  0  0999 V2000
    4.5352    2.0206    2.2677 O   0  0  0  0  0  0  0  0  0  0  0  0
    4.3410    0.5891    2.3182 S   0  0  0  0  0  6  0  0  0  0  0  0
    4.9848   -0.2390    3.3129 O   0  0  0  0  0  0  0  0  0  0  0  0
    4.7553   -0.0535    0.8263 N   0  0  0  0  0  0  0  0  0  0  0  0
    4.5347    0.7335   -0.3912 C   0  0  0  0  0  0  0  0  0  0  0  0
    5.7964    1.4935   -0.7807 C   0  0  0  0  0  0  0  0  0  0  0  0
    6.6732    0.4700   -1.4982 C   0  0  0  0  0  0  0  0  0  0  0  0
    5.7317   -0.6234   -2.0010 C   0  0  0  0  0  0  0  0  0  0  0  0
    4.3272   -0.2042   -1.5755 C   0  0  0  0  0  0  0  0  0  0  0  0
    2.5991    0.2475    2.3844 C   0  0  0  0  0  0  0  0  0  0  0  0
    2.1722   -1.0736    2.5654 C   0  0  0  0  0  0  0  0  0  0  0  0
    0.8068   -1.3522    2.6260 C   0  0  0  0  0  0  0  0  0  0  0  0
   -0.1160   -0.3061    2.5069 C   0  0  0  0  0  0  0  0  0  0  0  0
   -1.8514   -0.6798    2.5929 S   0  0  0  0  0  6  0  0  0  0  0  0
   -2.5933    0.5625    2.5689 O   0  0  0  0  0  0  0  0  0  0  0  0
   -2.0329   -1.6394    3.6605 O   0  0  0  0  0  0  0  0  0  0  0  0
   -2.1288   -1.4762    1.1090 N   0  0  0  0  0  0  0  0  0  0  0  0
   -1.8274   -0.6585   -0.1204 C   0  0  0  0  0  0  0  0  0  0  0  0
   -2.6404   -1.1234   -1.3401 C   0  0  0  0  0  0  0  0  0  0  0  0
   -4.0910   -1.0037   -1.0997 N   0  0  0  0  0  0  0  0  0  0  0  0
   -4.8199    0.0368   -1.6903 C   0  0  0  0  0  0  0  0  0  0  0  0
   -4.2405    1.2275   -2.1508 C   0  0  0  0  0  0  0  0  0  0  0  0
   -5.0139    2.2397   -2.7329 C   0  0  0  0  0  0  0  0  0  0  0  0
   -6.3881    2.0792   -2.8717 C   0  0  0  0  0  0  0  0  0  0  0  0
   -6.9887    0.9078   -2.4265 C   0  0  0  0  0  0  0  0  0  0  0  0
   -6.2108   -0.0972   -1.8431 C   0  0  0  0  0  0  0  0  0  0  0  0
   -4.5185   -1.3011    0.2925 C   0  0  0  0  0  0  0  0  0  0  0  0
   -3.4737   -2.1522    1.0364 C   0  0  0  0  0  0  0  0  0  0  0  0
    0.3100    1.0173    2.3478 C   0  0  0  0  0  0  0  0  0  0  0  0
    1.6765    1.2954    2.2849 C   0  0  0  0  0  0  0  0  0  0  0  0
    5.5361   -0.7069    0.8690 H   0  0  0  0  0  0  0  0  0  0  0  0
    3.6719    1.3957   -0.2710 H   0  0  0  0  0  0  0  0  0  0  0  0
    5.5379    2.2977   -1.4805 H   0  0  0  0  0  0  0  0  0  0  0  0
    6.3176    1.9458    0.0686 H   0  0  0  0  0  0  0  0  0  0  0  0
    7.2329    0.9327   -2.3176 H   0  0  0  0  0  0  0  0  0  0  0  0
    7.4056    0.0403   -0.8051 H   0  0  0  0  0  0  0  0  0  0  0  0
    5.7972   -0.7498   -3.0866 H   0  0  0  0  0  0  0  0  0  0  0  0
    5.9990   -1.5834   -1.5438 H   0  0  0  0  0  0  0  0  0  0  0  0
    3.6977   -1.0683   -1.3397 H   0  0  0  0  0  0  0  0  0  0  0  0
    3.8510    0.3432   -2.3983 H   0  0  0  0  0  0  0  0  0  0  0  0
    2.8964   -1.8798    2.6663 H   0  0  0  0  0  0  0  0  0  0  0  0
    0.4652   -2.3754    2.7720 H   0  0  0  0  0  0  0  0  0  0  0  0
   -0.7604   -0.7659   -0.3437 H   0  0  0  0  0  0  0  0  0  0  0  0
   -2.0350    0.4012    0.0637 H   0  0  0  0  0  0  0  0  0  0  0  0
   -2.4222   -2.1823   -1.5318 H   0  0  0  0  0  0  0  0  0  0  0  0
   -2.3183   -0.5966   -2.2452 H   0  0  0  0  0  0  0  0  0  0  0  0
   -3.1775    1.4133   -2.0432 H   0  0  0  0  0  0  0  0  0  0  0  0
   -4.5381    3.1555   -3.0734 H   0  0  0  0  0  0  0  0  0  0  0  0
   -6.9880    2.8638   -3.3243 H   0  0  0  0  0  0  0  0  0  0  0  0
   -8.0604    0.7679   -2.5352 H   0  0  0  0  0  0  0  0  0  0  0  0
   -6.7035   -1.0130   -1.5263 H   0  0  0  0  0  0  0  0  0  0  0  0
   -4.6759   -0.3668    0.8476 H   0  0  0  0  0  0  0  0  0  0  0  0
   -5.4658   -1.8522    0.2778 H   0  0  0  0  0  0  0  0  0  0  0  0
   -3.3300   -3.1119    0.5242 H   0  0  0  0  0  0  0  0  0  0  0  0
   -3.8451   -2.3970    2.0371 H   0  0  0  0  0  0  0  0  0  0  0  0
   -0.4095    1.8311    2.2815 H   0  0  0  0  0  0  0  0  0  0  0  0
    2.0126    2.3242    2.1687 H   0  0  0  0  0  0  0  0  0  0  0  0
  1  2  2  0
  2  3  2  0
  2  4  1  0
  4  5  1  0
  5  6  1  0
  6  7  1  0
  7  8  1  0
  8  9  1  0
  2 10  1  0
 10 11  2  0
 11 12  1  0
 12 13  2  0
 13 14  1  0
 14 15  2  0
 14 16  2  0
 14 17  1  0
 17 18  1  0
 18 19  1  0
 19 20  1  0
 20 21  1  0
 21 22  2  0
 22 23  1  0
 23 24  2  0
 24 25  1  0
 25 26  2  0
 20 27  1  0
 27 28  1  0
 13 29  1  0
 29 30  2  0
  9  5  1  0
 30 10  1  0
 28 17  1  0
 26 21  1  0
  4 31  1  0
  5 32  1  0
  6 33  1  0
  6 34  1  0
  7 35  1  0
  7 36  1  0
  8 37  1  0
  8 38  1  0
  9 39  1  0
  9 40  1  0
 11 41  1  0
 12 42  1  0
 18 43  1  0
 18 44  1  0
 19 45  1  0
 19 46  1  0
 22 47  1  0
 23 48  1  0
 24 49  1  0
 25 50  1  0
 26 51  1  0
 27 52  1  0
 27 53  1  0
 28 54  1  0
 28 55  1  0
 29 56  1  0
 30 57  1  0
M  END
$$$$
