
     RDKit          3D

 58 60  0  0  0  0  0  0  0  0999 V2000
    0.0957   -2.5076    2.5012 C   0  0  0  0  0  0  0  0  0  0  0  0
    1.0812   -1.9242    3.5036 C   0  0  0  0  0  0  0  0  0  0  0  0
    1.4666   -0.4708    3.2073 C   0  0  0  0  0  0  0  0  0  0  0  0
    2.2469   -0.2958    1.9343 C   0  0  0  0  0  0  0  0  0  0  0  0
    3.5919   -0.6656    1.9082 N   0  0  0  0  0  0  0  0  0  0  0  0
    4.0403   -0.4528    0.5979 N   0  0  0  0  0  0  0  0  0  0  0  0
    5.3837   -0.6976    0.2421 C   0  0  0  0  0  0  0  0  0  0  0  0
    6.3151   -1.1215    1.2067 C   0  0  0  0  0  0  0  0  0  0  0  0
    7.6508   -1.3704    0.8660 C   0  0  0  0  0  0  0  0  0  0  0  0
    8.0696   -1.1954   -0.4567 C   0  0  0  0  0  0  0  0  0  0  0  0
    9.4678   -1.4549   -0.8218 N   0  0  0  0  0  4  0  0  0  0  0  0
   10.2422   -1.8051    0.0803 O   0  0  0  0  0  0  0  0  0  0  0  0
    9.7902   -1.3117   -2.0098 O   0  0  0  0  0  1  0  0  0  0  0  0
    7.1622   -0.7722   -1.4318 C   0  0  0  0  0  0  0  0  0  0  0  0
    5.8291   -0.5253   -1.0771 C   0  0  0  0  0  0  0  0  0  0  0  0
    3.0073    0.1118   -0.1515 C   0  0  0  0  0  0  0  0  0  0  0  0
    2.9810    0.4730   -1.3171 O   0  0  0  0  0  0  0  0  0  0  0  0
    1.8332    0.2116    0.7587 C   0  0  0  0  0  0  0  0  0  0  0  0
    0.5260    0.7321    0.3339 C   0  0  0  0  0  0  0  0  0  0  0  0
   -0.5381    0.6917    1.0573 N   0  0  0  0  0  0  0  0  0  0  0  0
   -1.7413    1.2565    0.4329 C   0  0  0  0  0  0  0  0  0  0  0  0
   -2.7741    0.1411    0.2518 C   0  0  0  0  0  0  0  0  0  0  0  0
   -4.0490    0.6479   -0.3762 C   0  0  0  0  0  0  0  0  0  0  0  0
   -5.1080    1.0836    0.4258 C   0  0  0  0  0  0  0  0  0  0  0  0
   -6.2833    1.5682   -0.1536 C   0  0  0  0  0  0  0  0  0  0  0  0
   -6.4156    1.6282   -1.5451 C   0  0  0  0  0  0  0  0  0  0  0  0
   -7.5308    2.0912   -2.1991 O   0  0  0  0  0  0  0  0  0  0  0  0
   -8.6479    2.4698   -1.4066 C   0  0  0  0  0  0  0  0  0  0  0  0
   -5.3509    1.1986   -2.3633 C   0  0  0  0  0  0  0  0  0  0  0  0
   -5.5562    1.2930   -3.7182 O   0  0  0  0  0  0  0  0  0  0  0  0
   -4.5110    0.8574   -4.5758 C   0  0  0  0  0  0  0  0  0  0  0  0
   -4.1768    0.7135   -1.7726 C   0  0  0  0  0  0  0  0  0  0  0  0
   -0.8199   -1.9094    2.4583 H   0  0  0  0  0  0  0  0  0  0  0  0
   -0.1808   -3.5251    2.7967 H   0  0  0  0  0  0  0  0  0  0  0  0
    0.5250   -2.5584    1.4958 H   0  0  0  0  0  0  0  0  0  0  0  0
    0.6283   -1.9665    4.5016 H   0  0  0  0  0  0  0  0  0  0  0  0
    1.9765   -2.5559    3.5399 H   0  0  0  0  0  0  0  0  0  0  0  0
    0.5689    0.1545    3.2187 H   0  0  0  0  0  0  0  0  0  0  0  0
    2.0821   -0.1000    4.0379 H   0  0  0  0  0  0  0  0  0  0  0  0
    3.7213   -1.6273    2.2293 H   0  0  0  0  0  0  0  0  0  0  0  0
    6.0249   -1.2442    2.2478 H   0  0  0  0  0  0  0  0  0  0  0  0
    8.3437   -1.6910    1.6417 H   0  0  0  0  0  0  0  0  0  0  0  0
    7.4674   -0.6273   -2.4668 H   0  0  0  0  0  0  0  0  0  0  0  0
    5.1517   -0.2000   -1.8636 H   0  0  0  0  0  0  0  0  0  0  0  0
    0.5183    1.1594   -0.6859 H   0  0  0  0  0  0  0  0  0  0  0  0
   -1.5342    1.7470   -0.5276 H   0  0  0  0  0  0  0  0  0  0  0  0
   -2.1395    2.0337    1.0970 H   0  0  0  0  0  0  0  0  0  0  0  0
   -2.9990   -0.3239    1.2213 H   0  0  0  0  0  0  0  0  0  0  0  0
   -2.3561   -0.6637   -0.3679 H   0  0  0  0  0  0  0  0  0  0  0  0
   -5.0259    1.0494    1.5108 H   0  0  0  0  0  0  0  0  0  0  0  0
   -7.0765    1.8937    0.5111 H   0  0  0  0  0  0  0  0  0  0  0  0
   -9.0214    1.6251   -0.8169 H   0  0  0  0  0  0  0  0  0  0  0  0
   -8.4062    3.3254   -0.7662 H   0  0  0  0  0  0  0  0  0  0  0  0
   -9.4485    2.7799   -2.0853 H   0  0  0  0  0  0  0  0  0  0  0  0
   -4.3026   -0.2082   -4.4367 H   0  0  0  0  0  0  0  0  0  0  0  0
   -4.8459    0.9975   -5.6062 H   0  0  0  0  0  0  0  0  0  0  0  0
   -3.6074    1.4592   -4.4359 H   0  0  0  0  0  0  0  0  0  0  0  0
   -3.3421    0.3778   -2.3806 H   0  0  0  0  0  0  0  0  0  0  0  0
  1  2  1  0
  2  3  1  0
  3  4  1  0
  4  5  1  0
  5  6  1  0
  6  7  1  0
  7  8  2  0
  8  9  1  0
  9 10  2  0
 10 11  1  0
 11 12  2  0
 11 13  1  0
 10 14  1  0
 14 15  2  0
  6 16  1  0
 16 17  2  0
 16 18  1  0
 18 19  1  0
 19 20  2  3
 20 21  1  0
 21 22  1  0
 22 23  1  0
 23 24  2  0
 24 25  1  0
 25 26  2  0
 26 27  1  0
 27 28  1  0
 26 29  1  0
 29 30  1  0
 30 31  1  0
 29 32  2  0
 18  4  2  0
 32 23  1  0
 15  7  1  0
  1 33  1  0
  1 34  1  0
  1 35  1  0
  2 36  1  0
  2 37  1  0
  3 38  1  0
  3 39  1  0
  5 40  1  0
  8 41  1  0
  9 42  1  0
 14 43  1  0
 15 44  1  0
 19 45  1  0
 21 46  1  0
 21 47  1  0
 22 48  1  0
 22 49  1  0
 24 50  1  0
 25 51  1  0
 28 52  1  0
 28 53  1  0
 28 54  1  0
 31 55  1  0
 31 56  1  0
 31 57  1  0
 32 58  1  0
M  CHG  2  11   1  13  -1
M  END
$$$$
