
     RDKit          3D

 49 52  0  0  0  0  0  0  0  0999 V2000
    4.1790   -1.9416   -2.2873 O   0  0  0  0  0  0  0  0  0  0  0  0
    3.1654   -1.8617   -1.5903 C   0  0  0  0  0  0  0  0  0  0  0  0
    2.0385   -2.8702   -1.7861 C   0  0  0  0  0  0  0  0  0  0  0  0
    0.4074   -2.0852   -2.0115 S   0  0  0  0  0  0  0  0  0  0  0  0
   -0.1507   -2.0072   -0.3795 C   0  0  0  0  0  0  0  0  0  0  0  0
    0.4997   -2.4722    0.6592 N   0  0  0  0  0  0  0  0  0  0  0  0
   -0.2421   -2.1918    1.7774 N   0  0  0  0  0  0  0  0  0  0  0  0
   -1.3354   -1.5540    1.4047 C   0  0  0  0  0  0  0  0  0  0  0  0
   -2.3513   -1.0270    2.3051 C   0  0  0  0  0  0  0  0  0  0  0  0
   -2.0653    0.0905    3.0922 C   0  0  0  0  0  0  0  0  0  0  0  0
   -3.0581    0.5765    3.9227 C   0  0  0  0  0  0  0  0  0  0  0  0
   -4.2846    0.0213    4.0265 N   0  0  0  0  0  0  0  0  0  0  0  0
   -4.5237   -1.0772    3.2832 C   0  0  0  0  0  0  0  0  0  0  0  0
   -3.6017   -1.6324    2.4119 C   0  0  0  0  0  0  0  0  0  0  0  0
   -1.3105   -1.4026    0.0312 N   0  0  0  0  0  0  0  0  0  0  0  0
   -2.2811   -0.6774   -0.7711 C   0  0  0  0  0  0  0  0  0  0  0  0
   -2.0181    0.8335   -0.7713 C   0  0  0  0  0  0  0  0  0  0  0  0
   -3.1742    1.6298   -1.3695 C   0  0  0  0  0  0  0  0  0  0  0  0
   -2.7532    1.8177   -2.8060 C   0  0  0  0  0  0  0  0  0  0  0  0
   -1.2544    1.9650   -2.6770 C   0  0  0  0  0  0  0  0  0  0  0  0
   -0.8684    1.1151   -1.5901 O   0  0  0  0  0  0  0  0  0  0  0  0
    2.9637   -0.9574   -0.5646 N   0  0  0  0  0  0  0  0  0  0  0  0
    3.8044    0.0950   -0.1339 C   0  0  0  0  0  0  0  0  0  0  0  0
    5.0863    0.3105   -0.6498 C   0  0  0  0  0  0  0  0  0  0  0  0
    5.8868    1.3502   -0.1621 C   0  0  0  0  0  0  0  0  0  0  0  0
    5.4163    2.1934    0.8394 C   0  0  0  0  0  0  0  0  0  0  0  0
    4.1354    2.0076    1.3490 C   0  0  0  0  0  0  0  0  0  0  0  0
    3.3350    0.9673    0.8670 C   0  0  0  0  0  0  0  0  0  0  0  0
    1.7358    0.8186    1.5191 Cl  0  0  0  0  0  0  0  0  0  0  0  0
    2.0502   -3.5954   -0.9678 H   0  0  0  0  0  0  0  0  0  0  0  0
    2.2491   -3.4284   -2.7062 H   0  0  0  0  0  0  0  0  0  0  0  0
   -1.0953    0.5760    3.0564 H   0  0  0  0  0  0  0  0  0  0  0  0
   -2.8858    1.4484    4.5491 H   0  0  0  0  0  0  0  0  0  0  0  0
   -5.5078   -1.5215    3.4134 H   0  0  0  0  0  0  0  0  0  0  0  0
   -3.8545   -2.5232    1.8488 H   0  0  0  0  0  0  0  0  0  0  0  0
   -3.2690   -0.9026   -0.3609 H   0  0  0  0  0  0  0  0  0  0  0  0
   -2.2582   -1.0852   -1.7858 H   0  0  0  0  0  0  0  0  0  0  0  0
   -1.8045    1.1868    0.2418 H   0  0  0  0  0  0  0  0  0  0  0  0
   -3.2316    2.6113   -0.8809 H   0  0  0  0  0  0  0  0  0  0  0  0
   -4.1482    1.1474   -1.2583 H   0  0  0  0  0  0  0  0  0  0  0  0
   -2.9956    0.9166   -3.3804 H   0  0  0  0  0  0  0  0  0  0  0  0
   -3.2262    2.6747   -3.2918 H   0  0  0  0  0  0  0  0  0  0  0  0
   -0.7185    1.6738   -3.5846 H   0  0  0  0  0  0  0  0  0  0  0  0
   -0.9710    2.9907   -2.4195 H   0  0  0  0  0  0  0  0  0  0  0  0
    2.0914   -1.0429   -0.0368 H   0  0  0  0  0  0  0  0  0  0  0  0
    5.5063   -0.3198   -1.4303 H   0  0  0  0  0  0  0  0  0  0  0  0
    6.8851    1.4939   -0.5694 H   0  0  0  0  0  0  0  0  0  0  0  0
    6.0445    2.9957    1.2154 H   0  0  0  0  0  0  0  0  0  0  0  0
    3.7583    2.6698    2.1243 H   0  0  0  0  0  0  0  0  0  0  0  0
  1  2  2  0
  2  3  1  0
  3  4  1  0
  4  5  1  0
  5  6  2  0
  6  7  1  0
  7  8  2  0
  8  9  1  0
  9 10  2  0
 10 11  1  0
 11 12  2  0
 12 13  1  0
 13 14  2  0
  8 15  1  0
 15 16  1  0
 16 17  1  0
 17 18  1  0
 18 19  1  0
 19 20  1  0
 20 21  1  0
  2 22  1  0
 22 23  1  0
 23 24  2  0
 24 25  1  0
 25 26  2  0
 26 27  1  0
 27 28  2  0
 28 29  1  0
 15  5  1  0
 21 17  1  0
 28 23  1  0
 14  9  1  0
  3 30  1  0
  3 31  1  0
 10 32  1  0
 11 33  1  0
 13 34  1  0
 14 35  1  0
 16 36  1  0
 16 37  1  0
 17 38  1  0
 18 39  1  0
 18 40  1  0
 19 41  1  0
 19 42  1  0
 20 43  1  0
 20 44  1  0
 22 45  1  0
 24 46  1  0
 25 47  1  0
 26 48  1  0
 27 49  1  0
M  END
$$$$
