
     RDKit          3D

 46 48  0  0  0  0  0  0  0  0999 V2000
    3.1864   -2.3244   -1.9873 C   0  0  0  0  0  0  0  0  0  0  0  0
    4.0880   -1.2248   -1.9463 O   0  0  0  0  0  0  0  0  0  0  0  0
    5.1698   -1.4181   -1.0334 C   0  0  0  0  0  0  0  0  0  0  0  0
    4.7853   -1.0948    0.4191 C   0  0  0  0  0  0  0  0  0  0  0  0
    4.2532    0.2644    0.5635 N   0  0  0  0  0  0  0  0  0  0  0  0
    2.8771    0.4438    0.5314 C   0  0  0  0  0  0  0  0  0  0  0  0
    2.0491   -0.4556    0.5076 O   0  0  0  0  0  0  0  0  0  0  0  0
    2.5462    1.8973    0.5718 C   0  0  0  0  0  0  0  0  0  0  0  0
    1.3367    2.4715    0.5095 C   0  0  0  0  0  0  0  0  0  0  0  0
    0.0552    1.7726    0.3649 C   0  0  0  0  0  0  0  0  0  0  0  0
   -0.3026    1.2621   -0.8845 C   0  0  0  0  0  0  0  0  0  0  0  0
   -1.5313    0.6147   -1.0655 C   0  0  0  0  0  0  0  0  0  0  0  0
   -2.4486    0.4521   -0.0192 C   0  0  0  0  0  0  0  0  0  0  0  0
   -3.6563   -0.1795   -0.2040 N   0  0  0  0  0  0  0  0  0  0  0  0
   -4.6939   -0.2902    0.8174 C   0  0  0  0  0  0  0  0  0  0  0  0
   -5.8966   -0.8427    0.0572 C   0  0  0  0  0  0  0  0  0  0  0  0
   -5.2545   -1.7100   -1.0110 C   0  0  0  0  0  0  0  0  0  0  0  0
   -4.0239   -0.9032   -1.4190 C   0  0  0  0  0  0  0  0  0  0  0  0
   -2.0667    0.9776    1.2270 C   0  0  0  0  0  0  0  0  0  0  0  0
   -0.8354    1.6334    1.4387 C   0  0  0  0  0  0  0  0  0  0  0  0
   -0.5066    2.1549    2.8108 C   0  0  0  0  0  0  0  0  0  0  0  0
    3.9958    2.8214    0.7222 S   0  0  0  0  0  0  0  0  0  0  0  0
    5.0264    1.3996    0.6675 C   0  0  0  0  0  0  0  0  0  0  0  0
    6.6898    1.5110    0.7533 S   0  0  0  0  0  0  0  0  0  0  0  0
    2.3703   -2.0718   -2.6696 H   0  0  0  0  0  0  0  0  0  0  0  0
    2.7633   -2.5342   -1.0022 H   0  0  0  0  0  0  0  0  0  0  0  0
    3.6958   -3.2140   -2.3701 H   0  0  0  0  0  0  0  0  0  0  0  0
    5.5560   -2.4413   -1.1113 H   0  0  0  0  0  0  0  0  0  0  0  0
    5.9716   -0.7496   -1.3617 H   0  0  0  0  0  0  0  0  0  0  0  0
    4.0344   -1.8096    0.7712 H   0  0  0  0  0  0  0  0  0  0  0  0
    5.6630   -1.2121    1.0631 H   0  0  0  0  0  0  0  0  0  0  0  0
    1.2402    3.5538    0.5650 H   0  0  0  0  0  0  0  0  0  0  0  0
    0.3692    1.3569   -1.7343 H   0  0  0  0  0  0  0  0  0  0  0  0
   -1.7574    0.2433   -2.0605 H   0  0  0  0  0  0  0  0  0  0  0  0
   -4.9442    0.6748    1.2710 H   0  0  0  0  0  0  0  0  0  0  0  0
   -4.3807   -0.9907    1.6001 H   0  0  0  0  0  0  0  0  0  0  0  0
   -6.5815   -1.3983    0.7035 H   0  0  0  0  0  0  0  0  0  0  0  0
   -6.4544   -0.0234   -0.4123 H   0  0  0  0  0  0  0  0  0  0  0  0
   -5.9207   -1.9125   -1.8541 H   0  0  0  0  0  0  0  0  0  0  0  0
   -4.9478   -2.6697   -0.5776 H   0  0  0  0  0  0  0  0  0  0  0  0
   -4.2757   -0.1945   -2.2161 H   0  0  0  0  0  0  0  0  0  0  0  0
   -3.2334   -1.5765   -1.7676 H   0  0  0  0  0  0  0  0  0  0  0  0
   -2.7364    0.8710    2.0762 H   0  0  0  0  0  0  0  0  0  0  0  0
   -0.3484    3.2377    2.7796 H   0  0  0  0  0  0  0  0  0  0  0  0
    0.3922    1.6645    3.1985 H   0  0  0  0  0  0  0  0  0  0  0  0
   -1.3181    1.9628    3.5207 H   0  0  0  0  0  0  0  0  0  0  0  0
  1  2  1  0
  2  3  1  0
  3  4  1  0
  4  5  1  0
  5  6  1  0
  6  7  2  0
  6  8  1  0
  8  9  2  3
  9 10  1  0
 10 11  2  0
 11 12  1  0
 12 13  2  0
 13 14  1  0
 14 15  1  0
 15 16  1  0
 16 17  1  0
 17 18  1  0
 13 19  1  0
 19 20  2  0
 20 21  1  0
  8 22  1  0
 22 23  1  0
 23 24  2  0
 23  5  1  0
 20 10  1  0
 18 14  1  0
  1 25  1  0
  1 26  1  0
  1 27  1  0
  3 28  1  0
  3 29  1  0
  4 30  1  0
  4 31  1  0
  9 32  1  0
 11 33  1  0
 12 34  1  0
 15 35  1  0
 15 36  1  0
 16 37  1  0
 16 38  1  0
 17 39  1  0
 17 40  1  0
 18 41  1  0
 18 42  1  0
 19 43  1  0
 21 44  1  0
 21 45  1  0
 21 46  1  0
M  END
$$$$
