
     RDKit          3D

 41 44  0  0  0  0  0  0  0  0999 V2000
    6.0319   -0.1335   -2.1896 C   0  0  0  0  0  0  0  0  0  0  0  0
    5.5171    1.1291   -1.5157 C   0  0  0  0  0  0  0  0  0  0  0  0
    4.1656    0.9147   -0.8825 C   0  0  0  0  0  0  0  0  0  0  0  0
    4.0650    0.4762    0.4430 C   0  0  0  0  0  0  0  0  0  0  0  0
    2.8130    0.2656    1.0260 C   0  0  0  0  0  0  0  0  0  0  0  0
    1.6428    0.4793    0.2877 C   0  0  0  0  0  0  0  0  0  0  0  0
    0.3197    0.2379    0.9427 C   0  0  0  0  0  0  0  0  0  0  0  0
    0.2459    0.2804    2.2415 N   0  0  0  0  0  0  0  0  0  0  0  0
   -0.9561    0.0640    2.8303 C   0  0  0  0  0  0  0  0  0  0  0  0
   -1.3270    0.2418    4.0801 N   0  0  0  0  0  0  0  0  0  0  0  0
   -2.6042   -0.2444    4.1154 C   0  0  0  0  0  0  0  0  0  0  0  0
   -3.0652   -0.7363    2.9623 N   0  0  0  0  0  0  0  0  0  0  0  0
   -2.0215   -0.4761    2.1542 N   0  0  0  0  0  0  0  0  0  0  0  0
   -1.9173   -0.8950    0.7652 C   0  0  0  0  0  0  0  0  0  0  0  0
   -3.2526   -0.9329    0.0488 C   0  0  0  0  0  0  0  0  0  0  0  0
   -3.7546   -2.1466   -0.4521 C   0  0  0  0  0  0  0  0  0  0  0  0
   -4.9886   -2.1821   -1.1075 C   0  0  0  0  0  0  0  0  0  0  0  0
   -5.6448   -3.8245   -1.7757 Br  0  0  0  0  0  0  0  0  0  0  0  0
   -5.7401   -1.0202   -1.2746 C   0  0  0  0  0  0  0  0  0  0  0  0
   -5.2532    0.1885   -0.7801 C   0  0  0  0  0  0  0  0  0  0  0  0
   -4.0237    0.2231   -0.1267 C   0  0  0  0  0  0  0  0  0  0  0  0
   -3.5757    1.4011    0.3288 F   0  0  0  0  0  0  0  0  0  0  0  0
   -0.8929   -0.0079    0.0516 C   0  0  0  0  0  0  0  0  0  0  0  0
    1.7387    0.9227   -1.0356 C   0  0  0  0  0  0  0  0  0  0  0  0
    2.9933    1.1332   -1.6168 C   0  0  0  0  0  0  0  0  0  0  0  0
    7.0125    0.0507   -2.6398 H   0  0  0  0  0  0  0  0  0  0  0  0
    6.1372   -0.9530   -1.4705 H   0  0  0  0  0  0  0  0  0  0  0  0
    5.3523   -0.4668   -2.9812 H   0  0  0  0  0  0  0  0  0  0  0  0
    5.4560    1.9423   -2.2491 H   0  0  0  0  0  0  0  0  0  0  0  0
    6.2331    1.4612   -0.7541 H   0  0  0  0  0  0  0  0  0  0  0  0
    4.9612    0.2993    1.0342 H   0  0  0  0  0  0  0  0  0  0  0  0
    2.7611   -0.0670    2.0612 H   0  0  0  0  0  0  0  0  0  0  0  0
   -3.2093   -0.2505    5.0129 H   0  0  0  0  0  0  0  0  0  0  0  0
   -1.5096   -1.9143    0.8243 H   0  0  0  0  0  0  0  0  0  0  0  0
   -3.1908   -3.0682   -0.3219 H   0  0  0  0  0  0  0  0  0  0  0  0
   -6.7019   -1.0465   -1.7800 H   0  0  0  0  0  0  0  0  0  0  0  0
   -5.8251    1.1044   -0.8942 H   0  0  0  0  0  0  0  0  0  0  0  0
   -0.5975   -0.4894   -0.8871 H   0  0  0  0  0  0  0  0  0  0  0  0
   -1.3016    0.9791   -0.1953 H   0  0  0  0  0  0  0  0  0  0  0  0
    0.8559    1.1316   -1.6324 H   0  0  0  0  0  0  0  0  0  0  0  0
    3.0512    1.4777   -2.6477 H   0  0  0  0  0  0  0  0  0  0  0  0
  1  2  1  0
  2  3  1  0
  3  4  2  0
  4  5  1  0
  5  6  2  0
  6  7  1  0
  7  8  2  0
  8  9  1  0
  9 10  2  0
 10 11  1  0
 11 12  2  0
 12 13  1  0
 13 14  1  0
 14 15  1  0
 15 16  2  0
 16 17  1  0
 17 18  1  0
 17 19  2  0
 19 20  1  0
 20 21  2  0
 21 22  1  0
 14 23  1  0
  6 24  1  0
 24 25  2  0
 25  3  1  0
 23  7  1  0
 13  9  1  0
 21 15  1  0
  1 26  1  0
  1 27  1  0
  1 28  1  0
  2 29  1  0
  2 30  1  0
  4 31  1  0
  5 32  1  0
 11 33  1  0
 14 34  1  0
 16 35  1  0
 19 36  1  0
 20 37  1  0
 23 38  1  0
 23 39  1  0
 24 40  1  0
 25 41  1  0
M  END
$$$$
