
     RDKit          3D

 37 38  0  0  0  0  0  0  0  0999 V2000
   -5.1191    1.8613    0.2078 C   0  0  0  0  0  0  0  0  0  0  0  0
   -3.9028    1.1377    0.5681 N   0  0  0  0  0  0  0  0  0  0  0  0
   -4.0326   -0.3147    0.3239 C   0  0  0  0  0  0  0  0  0  0  0  0
   -3.2131   -0.8614   -0.8594 C   0  0  0  0  0  0  0  0  0  0  0  0
   -1.7987   -0.4982   -0.7677 N   0  0  0  0  0  0  0  0  0  0  0  0
   -0.8749   -1.2835   -1.4263 C   0  0  0  0  0  0  0  0  0  0  0  0
   -1.1741   -2.2218   -2.1602 O   0  0  0  0  0  0  0  0  0  0  0  0
    0.5582   -0.9505   -1.2574 C   0  0  0  0  0  0  0  0  0  0  0  0
    1.1390   -1.0329   -0.0507 C   0  0  0  0  0  0  0  0  0  0  0  0
    2.5612   -0.7649    0.1957 C   0  0  0  0  0  0  0  0  0  0  0  0
    3.5617   -1.1358   -0.7148 C   0  0  0  0  0  0  0  0  0  0  0  0
    4.9100   -0.8885   -0.4350 C   0  0  0  0  0  0  0  0  0  0  0  0
    5.2630   -0.2740    0.7720 C   0  0  0  0  0  0  0  0  0  0  0  0
    6.6763   -0.0111    1.0708 N   0  0  0  0  0  4  0  0  0  0  0  0
    6.9456    0.5285    2.1535 O   0  0  0  0  0  0  0  0  0  0  0  0
    7.5165   -0.3421    0.2221 O   0  0  0  0  0  1  0  0  0  0  0  0
    4.2780    0.0870    1.6986 C   0  0  0  0  0  0  0  0  0  0  0  0
    2.9332   -0.1658    1.4082 C   0  0  0  0  0  0  0  0  0  0  0  0
   -1.5065    0.7828   -0.1110 C   0  0  0  0  0  0  0  0  0  0  0  0
   -2.7283    1.7203   -0.1084 C   0  0  0  0  0  0  0  0  0  0  0  0
   -5.0137    2.9287    0.4317 H   0  0  0  0  0  0  0  0  0  0  0  0
   -5.9695    1.5002    0.7967 H   0  0  0  0  0  0  0  0  0  0  0  0
   -5.3633    1.7527   -0.8550 H   0  0  0  0  0  0  0  0  0  0  0  0
   -5.0819   -0.6137    0.2087 H   0  0  0  0  0  0  0  0  0  0  0  0
   -3.6795   -0.8151    1.2350 H   0  0  0  0  0  0  0  0  0  0  0  0
   -3.5940   -0.4569   -1.8052 H   0  0  0  0  0  0  0  0  0  0  0  0
   -3.3101   -1.9520   -0.9053 H   0  0  0  0  0  0  0  0  0  0  0  0
    1.0912   -0.7262   -2.1722 H   0  0  0  0  0  0  0  0  0  0  0  0
    0.5461   -1.3050    0.8207 H   0  0  0  0  0  0  0  0  0  0  0  0
    3.3064   -1.6353   -1.6477 H   0  0  0  0  0  0  0  0  0  0  0  0
    5.6641   -1.1861   -1.1611 H   0  0  0  0  0  0  0  0  0  0  0  0
    4.5360    0.5593    2.6444 H   0  0  0  0  0  0  0  0  0  0  0  0
    2.1765    0.1167    2.1385 H   0  0  0  0  0  0  0  0  0  0  0  0
   -0.6702    1.2766   -0.6163 H   0  0  0  0  0  0  0  0  0  0  0  0
   -1.2018    0.5617    0.9186 H   0  0  0  0  0  0  0  0  0  0  0  0
   -2.4579    2.6581    0.3905 H   0  0  0  0  0  0  0  0  0  0  0  0
   -2.9709    1.9641   -1.1519 H   0  0  0  0  0  0  0  0  0  0  0  0
  1  2  1  0
  2  3  1  0
  3  4  1  0
  4  5  1  0
  5  6  1  0
  6  7  2  0
  6  8  1  0
  8  9  2  3
  9 10  1  0
 10 11  2  0
 11 12  1  0
 12 13  2  0
 13 14  1  0
 14 15  2  0
 14 16  1  0
 13 17  1  0
 17 18  2  0
  5 19  1  0
 19 20  1  0
 20  2  1  0
 18 10  1  0
  1 21  1  0
  1 22  1  0
  1 23  1  0
  3 24  1  0
  3 25  1  0
  4 26  1  0
  4 27  1  0
  8 28  1  0
  9 29  1  0
 11 30  1  0
 12 31  1  0
 17 32  1  0
 18 33  1  0
 19 34  1  0
 19 35  1  0
 20 36  1  0
 20 37  1  0
M  CHG  2  14   1  16  -1
M  END
$$$$
