
     RDKit          3D

 44 47  0  0  0  0  0  0  0  0999 V2000
   -7.3919   -2.3370   -1.3029 C   0  0  0  0  0  0  0  0  0  0  0  0
   -6.8758   -0.9511   -1.6583 C   0  0  0  0  0  0  0  0  0  0  0  0
   -5.6100   -0.6163   -0.9126 C   0  0  0  0  0  0  0  0  0  0  0  0
   -4.3605   -0.9438   -1.4494 C   0  0  0  0  0  0  0  0  0  0  0  0
   -3.1821   -0.6483   -0.7534 C   0  0  0  0  0  0  0  0  0  0  0  0
   -3.2326   -0.0247    0.4927 C   0  0  0  0  0  0  0  0  0  0  0  0
   -2.0964    0.3066    1.2607 N   0  0  0  0  0  0  0  0  0  0  0  0
   -0.7594    0.1012    0.9319 C   0  0  0  0  0  0  0  0  0  0  0  0
   -0.3444   -0.4181   -0.1002 O   0  0  0  0  0  0  0  0  0  0  0  0
    0.1733    0.5824    2.0519 C   0  0  0  0  0  0  0  0  0  0  0  0
    1.5681    0.5256    1.6475 N   0  0  0  0  0  0  0  0  0  0  0  0
    2.2816   -0.6169    2.0117 N   0  0  0  0  0  0  0  0  0  0  0  0
    3.5044   -0.7411    1.5869 C   0  0  0  0  0  0  0  0  0  0  0  0
    4.1061    0.2354    0.8048 N   0  0  0  0  0  0  0  0  0  0  0  0
    3.4397    1.3742    0.4467 C   0  0  0  0  0  0  0  0  0  0  0  0
    4.2891    2.1502   -0.3108 C   0  0  0  0  0  0  0  0  0  0  0  0
    5.5239    1.4540   -0.4159 C   0  0  0  0  0  0  0  0  0  0  0  0
    6.7475    1.7386   -1.0523 C   0  0  0  0  0  0  0  0  0  0  0  0
    7.7987    0.8203   -0.9648 C   0  0  0  0  0  0  0  0  0  0  0  0
    7.6449   -0.3681   -0.2568 C   0  0  0  0  0  0  0  0  0  0  0  0
    6.4405   -0.6751    0.3838 C   0  0  0  0  0  0  0  0  0  0  0  0
    5.3898    0.2531    0.2909 C   0  0  0  0  0  0  0  0  0  0  0  0
    2.0809    1.5751    0.8672 C   0  0  0  0  0  0  0  0  0  0  0  0
    1.4319    2.5800    0.5868 O   0  0  0  0  0  0  0  0  0  0  0  0
   -4.4839    0.2973    1.0334 C   0  0  0  0  0  0  0  0  0  0  0  0
   -5.6620    0.0028    0.3397 C   0  0  0  0  0  0  0  0  0  0  0  0
   -8.3103   -2.5526   -1.8580 H   0  0  0  0  0  0  0  0  0  0  0  0
   -7.6155   -2.4156   -0.2335 H   0  0  0  0  0  0  0  0  0  0  0  0
   -6.6566   -3.1103   -1.5499 H   0  0  0  0  0  0  0  0  0  0  0  0
   -6.6954   -0.8884   -2.7384 H   0  0  0  0  0  0  0  0  0  0  0  0
   -7.6444   -0.2010   -1.4356 H   0  0  0  0  0  0  0  0  0  0  0  0
   -4.2891   -1.4335   -2.4184 H   0  0  0  0  0  0  0  0  0  0  0  0
   -2.2406   -0.9219   -1.2189 H   0  0  0  0  0  0  0  0  0  0  0  0
   -2.2855    0.7646    2.1430 H   0  0  0  0  0  0  0  0  0  0  0  0
    0.0290   -0.0532    2.9325 H   0  0  0  0  0  0  0  0  0  0  0  0
   -0.0861    1.6141    2.3142 H   0  0  0  0  0  0  0  0  0  0  0  0
    4.0855   -1.6373    1.8528 H   0  0  0  0  0  0  0  0  0  0  0  0
    4.0428    3.1124   -0.7429 H   0  0  0  0  0  0  0  0  0  0  0  0
    6.8760    2.6630   -1.6086 H   0  0  0  0  0  0  0  0  0  0  0  0
    8.7436    1.0386   -1.4569 H   0  0  0  0  0  0  0  0  0  0  0  0
    8.4744   -1.0702   -0.2022 H   0  0  0  0  0  0  0  0  0  0  0  0
    6.3363   -1.6075    0.9297 H   0  0  0  0  0  0  0  0  0  0  0  0
   -4.5648    0.7820    2.0026 H   0  0  0  0  0  0  0  0  0  0  0  0
   -6.6205    0.2607    0.7843 H   0  0  0  0  0  0  0  0  0  0  0  0
  1  2  1  0
  2  3  1  0
  3  4  2  0
  4  5  1  0
  5  6  2  0
  6  7  1  0
  7  8  1  0
  8  9  2  0
  8 10  1  0
 10 11  1  0
 11 12  1  0
 12 13  2  0
 13 14  1  0
 14 15  1  0
 15 16  2  0
 16 17  1  0
 17 18  2  0
 18 19  1  0
 19 20  2  0
 20 21  1  0
 21 22  2  0
 15 23  1  0
 23 24  2  0
  6 25  1  0
 25 26  2  0
 26  3  1  0
 23 11  1  0
 22 14  1  0
 22 17  1  0
  1 27  1  0
  1 28  1  0
  1 29  1  0
  2 30  1  0
  2 31  1  0
  4 32  1  0
  5 33  1  0
  7 34  1  0
 10 35  1  0
 10 36  1  0
 13 37  1  0
 16 38  1  0
 18 39  1  0
 19 40  1  0
 20 41  1  0
 21 42  1  0
 25 43  1  0
 26 44  1  0
M  END
$$$$
