
     RDKit          3D

 36 37  0  0  0  0  0  0  0  0999 V2000
    1.2703    2.2394    0.9418 C   0  0  0  0  0  0  0  0  0  0  0  0
    1.3539    0.8180    0.8633 O   0  0  0  0  0  0  0  0  0  0  0  0
    2.1768    0.3062   -0.1111 C   0  0  0  0  0  0  0  0  0  0  0  0
    2.7000    1.0468   -1.1758 C   0  0  0  0  0  0  0  0  0  0  0  0
    3.4946    0.4285   -2.1442 C   0  0  0  0  0  0  0  0  0  0  0  0
    3.7650   -0.9337   -2.0623 C   0  0  0  0  0  0  0  0  0  0  0  0
    3.2449   -1.6817   -1.0085 C   0  0  0  0  0  0  0  0  0  0  0  0
    2.4554   -1.0716   -0.0198 C   0  0  0  0  0  0  0  0  0  0  0  0
    1.8990   -1.9242    1.0992 C   0  0  0  0  0  0  0  0  0  0  0  0
    0.4957   -2.4314    0.8111 C   0  0  0  0  0  0  0  0  0  0  0  0
    0.2709   -3.6280    0.6602 O   0  0  0  0  0  0  0  0  0  0  0  0
   -0.4577   -1.4270    0.8502 N   0  0  0  0  0  0  0  0  0  0  0  0
   -1.7202   -1.5202    0.2997 C   0  0  0  0  0  0  0  0  0  0  0  0
   -2.2199   -2.5209   -0.2044 O   0  0  0  0  0  0  0  0  0  0  0  0
   -2.5194   -0.2621    0.2837 C   0  0  0  0  0  0  0  0  0  0  0  0
   -2.3215    0.7468    1.2399 C   0  0  0  0  0  0  0  0  0  0  0  0
   -3.0722    1.9248    1.1850 C   0  0  0  0  0  0  0  0  0  0  0  0
   -4.0276    2.1003    0.1845 C   0  0  0  0  0  0  0  0  0  0  0  0
   -4.2475    1.0937   -0.7548 C   0  0  0  0  0  0  0  0  0  0  0  0
   -3.5069   -0.0850   -0.6973 C   0  0  0  0  0  0  0  0  0  0  0  0
   -3.8034   -1.0327   -1.6409 O   0  0  0  0  0  0  0  0  0  0  0  0
    2.2614    2.6930    1.0460 H   0  0  0  0  0  0  0  0  0  0  0  0
    0.6944    2.4882    1.8386 H   0  0  0  0  0  0  0  0  0  0  0  0
    0.7328    2.6462    0.0795 H   0  0  0  0  0  0  0  0  0  0  0  0
    2.4986    2.1064   -1.2945 H   0  0  0  0  0  0  0  0  0  0  0  0
    3.8938    1.0109   -2.9710 H   0  0  0  0  0  0  0  0  0  0  0  0
    4.3741   -1.4158   -2.8229 H   0  0  0  0  0  0  0  0  0  0  0  0
    3.4544   -2.7495   -0.9646 H   0  0  0  0  0  0  0  0  0  0  0  0
    1.8992   -1.3734    2.0476 H   0  0  0  0  0  0  0  0  0  0  0  0
    2.5506   -2.7913    1.2669 H   0  0  0  0  0  0  0  0  0  0  0  0
   -0.0829   -0.4936    0.9726 H   0  0  0  0  0  0  0  0  0  0  0  0
   -1.6105    0.6263    2.0524 H   0  0  0  0  0  0  0  0  0  0  0  0
   -2.9221    2.7030    1.9301 H   0  0  0  0  0  0  0  0  0  0  0  0
   -4.6148    3.0148    0.1435 H   0  0  0  0  0  0  0  0  0  0  0  0
   -5.0033    1.2195   -1.5260 H   0  0  0  0  0  0  0  0  0  0  0  0
   -3.3558   -1.8708   -1.3806 H   0  0  0  0  0  0  0  0  0  0  0  0
  1  2  1  0
  2  3  1  0
  3  4  2  0
  4  5  1  0
  5  6  2  0
  6  7  1  0
  7  8  2  0
  8  9  1  0
  9 10  1  0
 10 11  2  0
 10 12  1  0
 12 13  1  0
 13 14  2  0
 13 15  1  0
 15 16  2  0
 16 17  1  0
 17 18  2  0
 18 19  1  0
 19 20  2  0
 20 21  1  0
  8  3  1  0
 20 15  1  0
  1 22  1  0
  1 23  1  0
  1 24  1  0
  4 25  1  0
  5 26  1  0
  6 27  1  0
  7 28  1  0
  9 29  1  0
  9 30  1  0
 12 31  1  0
 16 32  1  0
 17 33  1  0
 18 34  1  0
 19 35  1  0
 21 36  1  0
M  END
$$$$
