
     RDKit          3D

 58 61  0  0  0  0  0  0  0  0999 V2000
    8.1908    1.5807   -1.4198 C   0  0  0  0  0  0  0  0  0  0  0  0
    7.1807    2.4125   -0.8580 O   0  0  0  0  0  0  0  0  0  0  0  0
    6.0603    1.7936   -0.3728 C   0  0  0  0  0  0  0  0  0  0  0  0
    5.1315    2.6488    0.2350 C   0  0  0  0  0  0  0  0  0  0  0  0
    3.9417    2.1428    0.7683 C   0  0  0  0  0  0  0  0  0  0  0  0
    3.6466    0.7713    0.7004 C   0  0  0  0  0  0  0  0  0  0  0  0
    2.3746    0.2753    1.2276 C   0  0  0  0  0  0  0  0  0  0  0  0
    1.3411   -0.1025    0.3886 C   0  0  0  0  0  0  0  0  0  0  0  0
    0.1430   -0.4909    0.9827 C   0  0  0  0  0  0  0  0  0  0  0  0
   -0.9873   -0.7677    0.0789 C   0  0  0  0  0  0  0  0  0  0  0  0
   -1.1792   -1.8897   -0.3641 O   0  0  0  0  0  0  0  0  0  0  0  0
   -1.7538    0.3405   -0.2031 N   0  0  0  0  0  0  0  0  0  0  0  0
   -2.8965    0.2791   -1.0953 C   0  0  0  0  0  0  0  0  0  0  0  0
   -4.1500   -0.3081   -0.4040 C   0  0  0  0  0  0  0  0  0  0  0  0
   -5.3916   -0.3992   -1.1890 N   0  0  0  0  0  0  0  0  0  0  0  0
   -5.2690   -1.3179   -2.3401 C   0  0  0  0  0  0  0  0  0  0  0  0
   -6.6081   -1.4362   -3.0843 C   0  0  0  0  0  0  0  0  0  0  0  0
   -7.0640   -0.1477   -3.5391 O   0  0  0  0  0  0  0  0  0  0  0  0
   -7.2267    0.7396   -2.4200 C   0  0  0  0  0  0  0  0  0  0  0  0
   -5.9035    0.9047   -1.6491 C   0  0  0  0  0  0  0  0  0  0  0  0
   -0.0106   -0.5425    2.3871 C   0  0  0  0  0  0  0  0  0  0  0  0
   -1.1937   -0.9540    3.0535 C   0  0  0  0  0  0  0  0  0  0  0  0
   -1.2648   -0.9682    4.4490 C   0  0  0  0  0  0  0  0  0  0  0  0
   -0.1586   -0.5759    5.1932 C   0  0  0  0  0  0  0  0  0  0  0  0
    1.0091   -0.1715    4.5357 C   0  0  0  0  0  0  0  0  0  0  0  0
    1.1062   -0.1438    3.1478 C   0  0  0  0  0  0  0  0  0  0  0  0
    2.2560    0.2732    2.5862 N   0  0  0  0  0  0  0  0  0  0  0  0
    4.5985   -0.0814    0.0980 C   0  0  0  0  0  0  0  0  0  0  0  0
    4.3604   -1.4385   -0.0164 O   0  0  0  0  0  0  0  0  0  0  0  0
    4.9612   -2.1345    1.0888 C   0  0  0  0  0  0  0  0  0  0  0  0
    5.7850    0.4245   -0.4514 C   0  0  0  0  0  0  0  0  0  0  0  0
    7.8277    1.0889   -2.3349 H   0  0  0  0  0  0  0  0  0  0  0  0
    9.0284    2.2240   -1.7047 H   0  0  0  0  0  0  0  0  0  0  0  0
    8.5619    0.8507   -0.6893 H   0  0  0  0  0  0  0  0  0  0  0  0
    5.3285    3.7167    0.2777 H   0  0  0  0  0  0  0  0  0  0  0  0
    3.2230    2.8313    1.2202 H   0  0  0  0  0  0  0  0  0  0  0  0
    1.4539   -0.0707   -0.6933 H   0  0  0  0  0  0  0  0  0  0  0  0
   -1.5512    1.2179    0.2646 H   0  0  0  0  0  0  0  0  0  0  0  0
   -2.6078   -0.3228   -1.9677 H   0  0  0  0  0  0  0  0  0  0  0  0
   -3.0801    1.3063   -1.4356 H   0  0  0  0  0  0  0  0  0  0  0  0
   -3.9136   -1.3096   -0.0225 H   0  0  0  0  0  0  0  0  0  0  0  0
   -4.3643    0.2819    0.4970 H   0  0  0  0  0  0  0  0  0  0  0  0
   -4.9597   -2.3142   -1.9976 H   0  0  0  0  0  0  0  0  0  0  0  0
   -4.5133   -0.9500   -3.0451 H   0  0  0  0  0  0  0  0  0  0  0  0
   -6.4888   -2.0734   -3.9670 H   0  0  0  0  0  0  0  0  0  0  0  0
   -7.3775   -1.8914   -2.4458 H   0  0  0  0  0  0  0  0  0  0  0  0
   -8.0227    0.3643   -1.7589 H   0  0  0  0  0  0  0  0  0  0  0  0
   -7.5559    1.7120   -2.8174 H   0  0  0  0  0  0  0  0  0  0  0  0
   -5.1769    1.3855   -2.3158 H   0  0  0  0  0  0  0  0  0  0  0  0
   -6.0767    1.5630   -0.7908 H   0  0  0  0  0  0  0  0  0  0  0  0
   -2.0670   -1.2782    2.4882 H   0  0  0  0  0  0  0  0  0  0  0  0
   -2.1748   -1.2927    4.9486 H   0  0  0  0  0  0  0  0  0  0  0  0
   -0.1962   -0.5863    6.2826 H   0  0  0  0  0  0  0  0  0  0  0  0
    1.8731    0.1294    5.1251 H   0  0  0  0  0  0  0  0  0  0  0  0
    4.4605   -1.8876    2.0390 H   0  0  0  0  0  0  0  0  0  0  0  0
    6.0341   -1.9210    1.1632 H   0  0  0  0  0  0  0  0  0  0  0  0
    4.8396   -3.2112    0.9125 H   0  0  0  0  0  0  0  0  0  0  0  0
    6.4664   -0.2795   -0.9363 H   0  0  0  0  0  0  0  0  0  0  0  0
  1  2  1  0
  2  3  1  0
  3  4  2  0
  4  5  1  0
  5  6  2  0
  6  7  1  0
  7  8  2  0
  8  9  1  0
  9 10  1  0
 10 11  2  0
 10 12  1  0
 12 13  1  0
 13 14  1  0
 14 15  1  0
 15 16  1  0
 16 17  1  0
 17 18  1  0
 18 19  1  0
 19 20  1  0
  9 21  2  0
 21 22  1  0
 22 23  2  0
 23 24  1  0
 24 25  2  0
 25 26  1  0
 26 27  2  0
  6 28  1  0
 28 29  1  0
 29 30  1  0
 28 31  2  0
 31  3  1  0
 27  7  1  0
 20 15  1  0
 26 21  1  0
  1 32  1  0
  1 33  1  0
  1 34  1  0
  4 35  1  0
  5 36  1  0
  8 37  1  0
 12 38  1  0
 13 39  1  0
 13 40  1  0
 14 41  1  0
 14 42  1  0
 16 43  1  0
 16 44  1  0
 17 45  1  0
 17 46  1  0
 19 47  1  0
 19 48  1  0
 20 49  1  0
 20 50  1  0
 22 51  1  0
 23 52  1  0
 24 53  1  0
 25 54  1  0
 30 55  1  0
 30 56  1  0
 30 57  1  0
 31 58  1  0
M  END
$$$$
