
     RDKit          3D

 40 42  0  0  0  0  0  0  0  0999 V2000
    0.7193   -4.2815    0.7222 C   0  0  0  0  0  0  0  0  0  0  0  0
    0.0744   -3.0349    0.4589 O   0  0  0  0  0  0  0  0  0  0  0  0
    0.9264   -1.9895    0.2679 C   0  0  0  0  0  0  0  0  0  0  0  0
    2.1508   -2.0861    0.3146 O   0  0  0  0  0  0  0  0  0  0  0  0
    0.2446   -0.7146    0.0149 C   0  0  0  0  0  0  0  0  0  0  0  0
    0.9554    0.4775   -0.1048 C   0  0  0  0  0  0  0  0  0  0  0  0
    2.3364    0.6086   -0.0309 N   0  0  0  0  0  0  0  0  0  0  0  0
    3.0979    1.7633   -0.1423 C   0  0  0  0  0  0  0  0  0  0  0  0
    2.6473    2.8892   -0.3290 O   0  0  0  0  0  0  0  0  0  0  0  0
    4.5333    1.5229   -0.0156 C   0  0  0  0  0  0  0  0  0  0  0  0
    5.3029    0.3876    0.1937 C   0  0  0  0  0  0  0  0  0  0  0  0
    6.6580    0.8031    0.2230 C   0  0  0  0  0  0  0  0  0  0  0  0
    6.6436    2.1620    0.0312 C   0  0  0  0  0  0  0  0  0  0  0  0
    5.3715    2.6061   -0.1135 O   0  0  0  0  0  0  0  0  0  0  0  0
   -0.0520    1.8191   -0.3485 S   0  0  0  0  0  0  0  0  0  0  0  0
   -1.4547    0.8691   -0.3095 C   0  0  0  0  0  0  0  0  0  0  0  0
   -1.1753   -0.4744   -0.1413 C   0  0  0  0  0  0  0  0  0  0  0  0
   -2.3015   -1.4676   -0.1051 C   0  0  0  0  0  0  0  0  0  0  0  0
   -3.5781   -0.8815   -0.7289 C   0  0  0  0  0  0  0  0  0  0  0  0
   -3.8609    0.4804   -0.2549 N   0  0  0  0  0  0  0  0  0  0  0  0
   -5.1869    0.8272   -0.0254 C   0  0  0  0  0  0  0  0  0  0  0  0
   -5.4746    2.2694    0.3116 C   0  0  0  0  0  0  0  0  0  0  0  0
   -6.1072    0.0108   -0.0734 O   0  0  0  0  0  0  0  0  0  0  0  0
   -2.8102    1.4873   -0.4651 C   0  0  0  0  0  0  0  0  0  0  0  0
    1.3088   -4.2212    1.6423 H   0  0  0  0  0  0  0  0  0  0  0  0
   -0.0553   -5.0414    0.8566 H   0  0  0  0  0  0  0  0  0  0  0  0
    1.3482   -4.5740   -0.1244 H   0  0  0  0  0  0  0  0  0  0  0  0
    2.8283   -0.2676    0.1176 H   0  0  0  0  0  0  0  0  0  0  0  0
    4.9462   -0.6260    0.3130 H   0  0  0  0  0  0  0  0  0  0  0  0
    7.5355    0.1882    0.3663 H   0  0  0  0  0  0  0  0  0  0  0  0
    7.4115    2.9211   -0.0257 H   0  0  0  0  0  0  0  0  0  0  0  0
   -2.0401   -2.3802   -0.6499 H   0  0  0  0  0  0  0  0  0  0  0  0
   -2.4946   -1.7353    0.9408 H   0  0  0  0  0  0  0  0  0  0  0  0
   -4.4164   -1.5547   -0.5209 H   0  0  0  0  0  0  0  0  0  0  0  0
   -3.4772   -0.8216   -1.8203 H   0  0  0  0  0  0  0  0  0  0  0  0
   -5.1566    2.9236   -0.5041 H   0  0  0  0  0  0  0  0  0  0  0  0
   -6.5525    2.3999    0.4495 H   0  0  0  0  0  0  0  0  0  0  0  0
   -4.9762    2.5442    1.2447 H   0  0  0  0  0  0  0  0  0  0  0  0
   -2.9359    1.8844   -1.4791 H   0  0  0  0  0  0  0  0  0  0  0  0
   -2.9338    2.3070    0.2487 H   0  0  0  0  0  0  0  0  0  0  0  0
  1  2  1  0
  2  3  1  0
  3  4  2  0
  3  5  1  0
  5  6  2  0
  6  7  1  0
  7  8  1  0
  8  9  2  0
  8 10  1  0
 10 11  2  0
 11 12  1  0
 12 13  2  0
 13 14  1  0
  6 15  1  0
 15 16  1  0
 16 17  2  0
 17 18  1  0
 18 19  1  0
 19 20  1  0
 20 21  1  0
 21 22  1  0
 21 23  2  0
 20 24  1  0
 17  5  1  0
 14 10  1  0
 24 16  1  0
  1 25  1  0
  1 26  1  0
  1 27  1  0
  7 28  1  0
 11 29  1  0
 12 30  1  0
 13 31  1  0
 18 32  1  0
 18 33  1  0
 19 34  1  0
 19 35  1  0
 22 36  1  0
 22 37  1  0
 22 38  1  0
 24 39  1  0
 24 40  1  0
M  END
$$$$
