
     RDKit          3D

 48 50  0  0  0  0  0  0  0  0999 V2000
   -4.3994    3.2987   -2.0989 C   0  0  0  0  0  0  0  0  0  0  0  0
   -2.9317    3.4515   -1.7505 C   0  0  0  0  0  0  0  0  0  0  0  0
   -2.4628    2.1921   -1.2544 O   0  0  0  0  0  0  0  0  0  0  0  0
   -1.1294    2.1493   -0.9790 C   0  0  0  0  0  0  0  0  0  0  0  0
   -0.3673    3.0951   -1.1538 O   0  0  0  0  0  0  0  0  0  0  0  0
   -0.6781    0.8457   -0.4711 C   0  0  0  0  0  0  0  0  0  0  0  0
    0.6755    0.5322   -0.3838 C   0  0  0  0  0  0  0  0  0  0  0  0
    1.7291    1.3776   -0.7135 N   0  0  0  0  0  0  0  0  0  0  0  0
    3.0949    1.2311   -0.7559 C   0  0  0  0  0  0  0  0  0  0  0  0
    3.9275    2.6380   -1.1293 S   0  0  0  0  0  0  0  0  0  0  0  0
    3.6004   -0.0210   -0.5472 N   0  0  0  0  0  0  0  0  0  0  0  0
    4.9069   -0.5421   -0.4074 C   0  0  0  0  0  0  0  0  0  0  0  0
    6.0662    0.2090   -0.2139 C   0  0  0  0  0  0  0  0  0  0  0  0
    7.3112   -0.4181   -0.0759 C   0  0  0  0  0  0  0  0  0  0  0  0
    7.4105   -1.8058   -0.1199 C   0  0  0  0  0  0  0  0  0  0  0  0
    6.2621   -2.5703   -0.2946 C   0  0  0  0  0  0  0  0  0  0  0  0
    5.0205   -1.9417   -0.4317 C   0  0  0  0  0  0  0  0  0  0  0  0
    0.9350   -1.0327    0.2039 S   0  0  0  0  0  0  0  0  0  0  0  0
   -0.7271   -1.3553    0.3533 C   0  0  0  0  0  0  0  0  0  0  0  0
   -1.5025   -0.2659   -0.0088 C   0  0  0  0  0  0  0  0  0  0  0  0
   -3.0145   -0.2809    0.0486 C   0  0  0  0  0  0  0  0  0  0  0  0
   -3.6445   -1.3877    0.9277 C   0  0  0  0  0  0  0  0  0  0  0  0
   -5.1490   -1.4776    0.6164 C   0  0  0  0  0  0  0  0  0  0  0  0
   -3.4759   -1.0813    2.4262 C   0  0  0  0  0  0  0  0  0  0  0  0
   -2.9180   -3.0349    0.5247 S   0  0  0  0  0  0  0  0  0  0  0  0
   -1.1669   -2.6889    0.8733 C   0  0  0  0  0  0  0  0  0  0  0  0
   -4.5281    2.5444   -2.8831 H   0  0  0  0  0  0  0  0  0  0  0  0
   -4.9737    2.9532   -1.2320 H   0  0  0  0  0  0  0  0  0  0  0  0
   -4.8195    4.2455   -2.4496 H   0  0  0  0  0  0  0  0  0  0  0  0
   -2.8097    4.2174   -0.9769 H   0  0  0  0  0  0  0  0  0  0  0  0
   -2.3704    3.7345   -2.6469 H   0  0  0  0  0  0  0  0  0  0  0  0
    1.4407    2.3276   -0.9620 H   0  0  0  0  0  0  0  0  0  0  0  0
    2.8790   -0.7300   -0.5561 H   0  0  0  0  0  0  0  0  0  0  0  0
    6.0510    1.2880   -0.1365 H   0  0  0  0  0  0  0  0  0  0  0  0
    8.2029    0.1859    0.0725 H   0  0  0  0  0  0  0  0  0  0  0  0
    8.3784   -2.2872   -0.0126 H   0  0  0  0  0  0  0  0  0  0  0  0
    6.3289   -3.6551   -0.3261 H   0  0  0  0  0  0  0  0  0  0  0  0
    4.1410   -2.5677   -0.5707 H   0  0  0  0  0  0  0  0  0  0  0  0
   -3.3786   -0.3728   -0.9838 H   0  0  0  0  0  0  0  0  0  0  0  0
   -3.3683    0.6857    0.4263 H   0  0  0  0  0  0  0  0  0  0  0  0
   -5.3352   -1.7194   -0.4373 H   0  0  0  0  0  0  0  0  0  0  0  0
   -5.6439   -0.5202    0.8192 H   0  0  0  0  0  0  0  0  0  0  0  0
   -5.6477   -2.2356    1.2321 H   0  0  0  0  0  0  0  0  0  0  0  0
   -2.4296   -0.9707    2.7246 H   0  0  0  0  0  0  0  0  0  0  0  0
   -3.9778   -0.1399    2.6825 H   0  0  0  0  0  0  0  0  0  0  0  0
   -3.9219   -1.8642    3.0504 H   0  0  0  0  0  0  0  0  0  0  0  0
   -0.5803   -3.4946    0.4186 H   0  0  0  0  0  0  0  0  0  0  0  0
   -1.0101   -2.7409    1.9555 H   0  0  0  0  0  0  0  0  0  0  0  0
  1  2  1  0
  2  3  1  0
  3  4  1  0
  4  5  2  0
  4  6  1  0
  6  7  2  0
  7  8  1  0
  8  9  1  0
  9 10  2  0
  9 11  1  0
 11 12  1  0
 12 13  2  0
 13 14  1  0
 14 15  2  0
 15 16  1  0
 16 17  2  0
  7 18  1  0
 18 19  1  0
 19 20  2  0
 20 21  1  0
 21 22  1  0
 22 23  1  0
 22 24  1  0
 22 25  1  0
 25 26  1  0
 20  6  1  0
 17 12  1  0
 26 19  1  0
  1 27  1  0
  1 28  1  0
  1 29  1  0
  2 30  1  0
  2 31  1  0
  8 32  1  0
 11 33  1  0
 13 34  1  0
 14 35  1  0
 15 36  1  0
 16 37  1  0
 17 38  1  0
 21 39  1  0
 21 40  1  0
 23 41  1  0
 23 42  1  0
 23 43  1  0
 24 44  1  0
 24 45  1  0
 24 46  1  0
 26 47  1  0
 26 48  1  0
M  END
$$$$
