
     RDKit          3D

 45 47  0  0  0  0  0  0  0  0999 V2000
   -4.7786    0.6812    2.2564 C   0  0  0  0  0  0  0  0  0  0  0  0
   -4.3545   -0.5670    1.4875 C   0  0  0  0  0  0  0  0  0  0  0  0
   -3.4452   -0.2453    0.3660 N   0  0  0  0  0  0  0  0  0  0  0  0
   -3.4044   -1.3671   -0.6037 C   0  0  0  0  0  0  0  0  0  0  0  0
   -4.6352   -1.3907   -1.5050 C   0  0  0  0  0  0  0  0  0  0  0  0
   -2.0699    0.0120    0.8781 C   0  0  0  0  0  0  0  0  0  0  0  0
   -1.1896    0.7683   -0.1034 C   0  0  0  0  0  0  0  0  0  0  0  0
   -1.7019    1.7707   -0.9456 C   0  0  0  0  0  0  0  0  0  0  0  0
   -3.0371    2.0667   -0.9864 O   0  0  0  0  0  0  0  0  0  0  0  0
   -0.8800    2.5123   -1.7914 C   0  0  0  0  0  0  0  0  0  0  0  0
    0.4897    2.2667   -1.8136 C   0  0  0  0  0  0  0  0  0  0  0  0
    1.0279    1.2834   -0.9784 C   0  0  0  0  0  0  0  0  0  0  0  0
    2.4809    1.0246   -0.9869 C   0  0  0  0  0  0  0  0  0  0  0  0
    3.2235    1.6603   -1.7262 O   0  0  0  0  0  0  0  0  0  0  0  0
    2.9768   -0.0337   -0.0644 C   0  0  0  0  0  0  0  0  0  0  0  0
    4.4043   -0.3890    0.0435 C   0  0  0  0  0  0  0  0  0  0  0  0
    5.3756    0.6085    0.2073 C   0  0  0  0  0  0  0  0  0  0  0  0
    6.7283    0.2769    0.3195 C   0  0  0  0  0  0  0  0  0  0  0  0
    7.1272   -1.0566    0.2666 C   0  0  0  0  0  0  0  0  0  0  0  0
    6.1755   -2.0593    0.0965 C   0  0  0  0  0  0  0  0  0  0  0  0
    4.8226   -1.7282   -0.0163 C   0  0  0  0  0  0  0  0  0  0  0  0
    2.0621   -0.6414    0.7064 C   0  0  0  0  0  0  0  0  0  0  0  0
    0.7103   -0.4076    0.7244 O   0  0  0  0  0  0  0  0  0  0  0  0
    0.2010    0.5464   -0.1251 C   0  0  0  0  0  0  0  0  0  0  0  0
   -5.2205    1.4246    1.5844 H   0  0  0  0  0  0  0  0  0  0  0  0
   -3.9441    1.1487    2.7859 H   0  0  0  0  0  0  0  0  0  0  0  0
   -5.5338    0.4174    3.0045 H   0  0  0  0  0  0  0  0  0  0  0  0
   -5.2781   -1.0207    1.1127 H   0  0  0  0  0  0  0  0  0  0  0  0
   -3.9021   -1.2981    2.1692 H   0  0  0  0  0  0  0  0  0  0  0  0
   -3.2889   -2.3305   -0.0913 H   0  0  0  0  0  0  0  0  0  0  0  0
   -2.5393   -1.2609   -1.2696 H   0  0  0  0  0  0  0  0  0  0  0  0
   -4.7675   -0.4302   -2.0143 H   0  0  0  0  0  0  0  0  0  0  0  0
   -4.5173   -2.1619   -2.2736 H   0  0  0  0  0  0  0  0  0  0  0  0
   -5.5515   -1.6168   -0.9531 H   0  0  0  0  0  0  0  0  0  0  0  0
   -2.1020    0.6408    1.7751 H   0  0  0  0  0  0  0  0  0  0  0  0
   -1.6131   -0.9399    1.1766 H   0  0  0  0  0  0  0  0  0  0  0  0
   -3.5003    1.3415   -0.5094 H   0  0  0  0  0  0  0  0  0  0  0  0
   -1.3104    3.2775   -2.4322 H   0  0  0  0  0  0  0  0  0  0  0  0
    1.1323    2.8430   -2.4756 H   0  0  0  0  0  0  0  0  0  0  0  0
    5.0884    1.6579    0.2412 H   0  0  0  0  0  0  0  0  0  0  0  0
    7.4691    1.0631    0.4408 H   0  0  0  0  0  0  0  0  0  0  0  0
    8.1803   -1.3126    0.3491 H   0  0  0  0  0  0  0  0  0  0  0  0
    6.4866   -3.0994    0.0441 H   0  0  0  0  0  0  0  0  0  0  0  0
    4.1010   -2.5283   -0.1651 H   0  0  0  0  0  0  0  0  0  0  0  0
    2.3021   -1.4075    1.4346 H   0  0  0  0  0  0  0  0  0  0  0  0
  1  2  1  0
  2  3  1  0
  3  4  1  0
  4  5  1  0
  3  6  1  0
  6  7  1  0
  7  8  2  0
  8  9  1  0
  8 10  1  0
 10 11  2  0
 11 12  1  0
 12 13  1  0
 13 14  2  0
 13 15  1  0
 15 16  1  0
 16 17  2  0
 17 18  1  0
 18 19  2  0
 19 20  1  0
 20 21  2  0
 15 22  2  0
 22 23  1  0
 23 24  1  0
 24  7  1  0
 24 12  2  0
 21 16  1  0
  1 25  1  0
  1 26  1  0
  1 27  1  0
  2 28  1  0
  2 29  1  0
  4 30  1  0
  4 31  1  0
  5 32  1  0
  5 33  1  0
  5 34  1  0
  6 35  1  0
  6 36  1  0
  9 37  1  0
 10 38  1  0
 11 39  1  0
 17 40  1  0
 18 41  1  0
 19 42  1  0
 20 43  1  0
 21 44  1  0
 22 45  1  0
M  END
$$$$
