
     RDKit          3D

 33 35  0  0  0  0  0  0  0  0999 V2000
   -3.3089   -2.6796    3.3473 C   0  0  0  0  0  0  0  0  0  0  0  0
   -2.4104   -1.9050    2.3961 C   0  0  0  0  0  0  0  0  0  0  0  0
   -3.1707   -0.9837    1.5088 C   0  0  0  0  0  0  0  0  0  0  0  0
   -4.4767   -0.7885    1.4664 N   0  0  0  0  0  0  0  0  0  0  0  0
   -4.7363    0.1689    0.5110 N   0  0  0  0  0  0  0  0  0  0  0  0
   -3.5849    0.5151   -0.0072 C   0  0  0  0  0  0  0  0  0  0  0  0
   -2.5557   -0.1874    0.5641 N   0  0  0  0  0  0  0  0  0  0  0  0
   -1.2105   -0.1080    0.3380 N   0  0  0  0  0  0  0  0  0  0  0  0
   -0.8246    0.5150   -0.7420 C   0  0  0  0  0  0  0  0  0  0  0  0
    0.6513    0.6510   -0.9633 C   0  0  0  0  0  0  0  0  0  0  0  0
    1.2032    0.6767   -2.2470 C   0  0  0  0  0  0  0  0  0  0  0  0
    2.5868    0.8023   -2.4071 C   0  0  0  0  0  0  0  0  0  0  0  0
    3.4323    0.8968   -1.2985 C   0  0  0  0  0  0  0  0  0  0  0  0
    4.7595    1.0158   -1.6026 O   0  0  0  0  0  0  0  0  0  0  0  0
    5.6651    1.1124   -0.5099 C   0  0  0  0  0  0  0  0  0  0  0  0
    2.8827    0.8599   -0.0178 C   0  0  0  0  0  0  0  0  0  0  0  0
    1.4985    0.7339    0.1492 C   0  0  0  0  0  0  0  0  0  0  0  0
   -1.7385    1.0481   -1.8408 C   0  0  0  0  0  0  0  0  0  0  0  0
   -3.2821    1.7193   -1.1948 S   0  0  0  0  0  0  0  0  0  0  0  0
   -3.8701   -2.0038    4.0016 H   0  0  0  0  0  0  0  0  0  0  0  0
   -4.0302   -3.2952    2.7989 H   0  0  0  0  0  0  0  0  0  0  0  0
   -2.7094   -3.3426    3.9793 H   0  0  0  0  0  0  0  0  0  0  0  0
   -1.8449   -2.6162    1.7826 H   0  0  0  0  0  0  0  0  0  0  0  0
   -1.6851   -1.3287    2.9823 H   0  0  0  0  0  0  0  0  0  0  0  0
    0.5899    0.5824   -3.1382 H   0  0  0  0  0  0  0  0  0  0  0  0
    3.0141    0.8208   -3.4077 H   0  0  0  0  0  0  0  0  0  0  0  0
    5.4677    2.0082    0.0881 H   0  0  0  0  0  0  0  0  0  0  0  0
    5.6351    0.2091    0.1083 H   0  0  0  0  0  0  0  0  0  0  0  0
    6.6755    1.2018   -0.9202 H   0  0  0  0  0  0  0  0  0  0  0  0
    3.4994    0.9246    0.8728 H   0  0  0  0  0  0  0  0  0  0  0  0
    1.0890    0.7059    1.1572 H   0  0  0  0  0  0  0  0  0  0  0  0
   -1.2477    1.8463   -2.4039 H   0  0  0  0  0  0  0  0  0  0  0  0
   -1.9635    0.2245   -2.5268 H   0  0  0  0  0  0  0  0  0  0  0  0
  1  2  1  0
  2  3  1  0
  3  4  2  0
  4  5  1  0
  5  6  2  0
  6  7  1  0
  7  8  1  0
  8  9  2  0
  9 10  1  0
 10 11  2  0
 11 12  1  0
 12 13  2  0
 13 14  1  0
 14 15  1  0
 13 16  1  0
 16 17  2  0
  9 18  1  0
 18 19  1  0
  7  3  1  0
 17 10  1  0
 19  6  1  0
  1 20  1  0
  1 21  1  0
  1 22  1  0
  2 23  1  0
  2 24  1  0
 11 25  1  0
 12 26  1  0
 15 27  1  0
 15 28  1  0
 15 29  1  0
 16 30  1  0
 17 31  1  0
 18 32  1  0
 18 33  1  0
M  END
$$$$
