
     RDKit          3D

 50 52  0  0  0  0  0  0  0  0999 V2000
    1.5480    0.2765   -4.2633 C   0  0  0  0  0  0  0  0  0  0  0  0
    1.9838    0.3878   -2.9121 O   0  0  0  0  0  0  0  0  0  0  0  0
    3.1296    1.1189   -2.6877 C   0  0  0  0  0  0  0  0  0  0  0  0
    3.8497    1.8024   -3.6718 C   0  0  0  0  0  0  0  0  0  0  0  0
    5.0022    2.5124   -3.3291 C   0  0  0  0  0  0  0  0  0  0  0  0
    5.4388    2.5426   -2.0073 C   0  0  0  0  0  0  0  0  0  0  0  0
    4.7230    1.8684   -1.0156 C   0  0  0  0  0  0  0  0  0  0  0  0
    3.5679    1.1576   -1.3455 C   0  0  0  0  0  0  0  0  0  0  0  0
    2.7846    0.4600   -0.4028 N   0  0  0  0  0  0  0  0  0  0  0  0
    2.9538    0.3647    0.9630 C   0  0  0  0  0  0  0  0  0  0  0  0
    3.8726    0.8427    1.6217 O   0  0  0  0  0  0  0  0  0  0  0  0
    1.8645   -0.4736    1.6287 C   0  0  0  0  0  0  0  0  0  0  0  0
    0.5682   -0.1099    1.1377 O   0  0  0  0  0  0  0  0  0  0  0  0
   -0.2129   -1.1261    0.7036 C   0  0  0  0  0  0  0  0  0  0  0  0
    0.0888   -2.3001    0.6020 O   0  0  0  0  0  0  0  0  0  0  0  0
   -1.5056   -0.5548    0.2920 C   0  0  0  0  0  0  0  0  0  0  0  0
   -1.4965    0.0095   -1.0014 C   0  0  0  0  0  0  0  0  0  0  0  0
   -2.6711    0.5380   -1.5319 C   0  0  0  0  0  0  0  0  0  0  0  0
   -2.6740    1.1263   -2.8764 N   0  0  0  0  0  4  0  0  0  0  0  0
   -3.7408    1.5930   -3.2996 O   0  0  0  0  0  0  0  0  0  0  0  0
   -1.6094    1.1183   -3.5110 O   0  0  0  0  0  1  0  0  0  0  0  0
   -3.8458    0.5013   -0.7874 C   0  0  0  0  0  0  0  0  0  0  0  0
   -3.8343   -0.0708    0.4924 C   0  0  0  0  0  0  0  0  0  0  0  0
   -2.6750   -0.6215    1.0879 C   0  0  0  0  0  0  0  0  0  0  0  0
   -2.7618   -1.1586    2.3563 N   0  0  0  0  0  0  0  0  0  0  0  0
   -4.0373   -1.4592    3.0199 C   0  0  0  0  0  0  0  0  0  0  0  0
   -3.6462   -2.2921    4.2367 C   0  0  0  0  0  0  0  0  0  0  0  0
   -2.2847   -1.7328    4.5984 C   0  0  0  0  0  0  0  0  0  0  0  0
   -1.6398   -1.5062    3.2320 C   0  0  0  0  0  0  0  0  0  0  0  0
    1.2450    1.2515   -4.6576 H   0  0  0  0  0  0  0  0  0  0  0  0
    2.3157   -0.1865   -4.8920 H   0  0  0  0  0  0  0  0  0  0  0  0
    0.6726   -0.3795   -4.2782 H   0  0  0  0  0  0  0  0  0  0  0  0
    3.5407    1.8075   -4.7115 H   0  0  0  0  0  0  0  0  0  0  0  0
    5.5608    3.0434   -4.0960 H   0  0  0  0  0  0  0  0  0  0  0  0
    6.3372    3.0942   -1.7414 H   0  0  0  0  0  0  0  0  0  0  0  0
    5.0920    1.9158    0.0037 H   0  0  0  0  0  0  0  0  0  0  0  0
    1.9739    0.0015   -0.8074 H   0  0  0  0  0  0  0  0  0  0  0  0
    1.8751   -0.2589    2.7016 H   0  0  0  0  0  0  0  0  0  0  0  0
    2.1112   -1.5304    1.4825 H   0  0  0  0  0  0  0  0  0  0  0  0
   -0.5724    0.0188   -1.5767 H   0  0  0  0  0  0  0  0  0  0  0  0
   -4.7785    0.9066   -1.1749 H   0  0  0  0  0  0  0  0  0  0  0  0
   -4.7785   -0.0613    1.0336 H   0  0  0  0  0  0  0  0  0  0  0  0
   -4.7207   -2.0266    2.3785 H   0  0  0  0  0  0  0  0  0  0  0  0
   -4.5220   -0.5302    3.3415 H   0  0  0  0  0  0  0  0  0  0  0  0
   -4.3731   -2.2107    5.0503 H   0  0  0  0  0  0  0  0  0  0  0  0
   -3.5568   -3.3494    3.9587 H   0  0  0  0  0  0  0  0  0  0  0  0
   -2.3984   -0.7774    5.1255 H   0  0  0  0  0  0  0  0  0  0  0  0
   -1.6999   -2.4065    5.2307 H   0  0  0  0  0  0  0  0  0  0  0  0
   -0.8998   -0.7035    3.3050 H   0  0  0  0  0  0  0  0  0  0  0  0
   -1.1645   -2.4329    2.8949 H   0  0  0  0  0  0  0  0  0  0  0  0
  1  2  1  0
  2  3  1  0
  3  4  2  0
  4  5  1  0
  5  6  2  0
  6  7  1  0
  7  8  2  0
  8  9  1  0
  9 10  1  0
 10 11  2  0
 10 12  1  0
 12 13  1  0
 13 14  1  0
 14 15  2  0
 14 16  1  0
 16 17  2  0
 17 18  1  0
 18 19  1  0
 19 20  2  0
 19 21  1  0
 18 22  2  0
 22 23  1  0
 23 24  2  0
 24 25  1  0
 25 26  1  0
 26 27  1  0
 27 28  1  0
 28 29  1  0
  8  3  1  0
 24 16  1  0
 29 25  1  0
  1 30  1  0
  1 31  1  0
  1 32  1  0
  4 33  1  0
  5 34  1  0
  6 35  1  0
  7 36  1  0
  9 37  1  0
 12 38  1  0
 12 39  1  0
 17 40  1  0
 22 41  1  0
 23 42  1  0
 26 43  1  0
 26 44  1  0
 27 45  1  0
 27 46  1  0
 28 47  1  0
 28 48  1  0
 29 49  1  0
 29 50  1  0
M  CHG  2  19   1  21  -1
M  END
$$$$
