
     RDKit          3D

 50 53  0  0  0  0  0  0  0  0999 V2000
   -6.2665    1.0064    3.0424 C   0  0  0  0  0  0  0  0  0  0  0  0
   -5.1133    0.7897    2.1052 C   0  0  0  0  0  0  0  0  0  0  0  0
   -3.9729    1.5918    2.1876 C   0  0  0  0  0  0  0  0  0  0  0  0
   -2.9101    1.4088    1.2972 C   0  0  0  0  0  0  0  0  0  0  0  0
   -2.9801    0.4223    0.3050 C   0  0  0  0  0  0  0  0  0  0  0  0
   -1.7742    0.2181   -0.6816 C   0  0  0  0  0  0  0  0  0  0  0  0
   -0.6041    0.9683   -0.7191 C   0  0  0  0  0  0  0  0  0  0  0  0
    0.2235    0.4734   -1.7354 N   0  0  0  0  0  4  0  0  0  0  0  0
    1.5381    1.0011   -2.1361 C   0  0  0  0  0  0  0  0  0  0  0  0
    2.3637    1.4501   -0.9253 C   0  0  0  0  0  0  0  0  0  0  0  0
    2.2522    2.6003   -0.5083 O   0  0  0  0  0  0  0  0  0  0  0  0
    3.1182    0.4316   -0.3623 N   0  0  0  0  0  0  0  0  0  0  0  0
    3.9695    0.5128    0.7708 C   0  0  0  0  0  0  0  0  0  0  0  0
    4.2574    1.7261    1.4063 C   0  0  0  0  0  0  0  0  0  0  0  0
    5.1019    1.7752    2.5199 C   0  0  0  0  0  0  0  0  0  0  0  0
    5.6715    0.6110    3.0159 C   0  0  0  0  0  0  0  0  0  0  0  0
    5.4024   -0.6044    2.3936 C   0  0  0  0  0  0  0  0  0  0  0  0
    4.5510   -0.6724    1.2737 C   0  0  0  0  0  0  0  0  0  0  0  0
    4.3148   -2.0235    0.6565 C   0  0  0  0  0  0  0  0  0  0  0  0
   -0.4346   -0.5163   -2.3261 C   0  0  0  0  0  0  0  0  0  0  0  0
   -1.5938   -0.7000   -1.7022 N   0  0  0  0  0  0  0  0  0  0  0  0
   -2.3687   -1.7812   -2.2933 C   0  0  0  0  0  0  0  0  0  0  0  0
   -1.3522   -2.4759   -3.2425 C   0  0  0  0  0  0  0  0  0  0  0  0
   -0.2283   -1.4436   -3.4611 C   0  0  0  0  0  0  0  0  0  0  0  0
   -4.1268   -0.3653    0.2054 C   0  0  0  0  0  0  0  0  0  0  0  0
   -5.1878   -0.1794    1.0986 C   0  0  0  0  0  0  0  0  0  0  0  0
   -5.9189    1.3910    4.0090 H   0  0  0  0  0  0  0  0  0  0  0  0
   -6.7878    0.0622    3.2375 H   0  0  0  0  0  0  0  0  0  0  0  0
   -6.9732    1.7218    2.6078 H   0  0  0  0  0  0  0  0  0  0  0  0
   -3.9053    2.3676    2.9522 H   0  0  0  0  0  0  0  0  0  0  0  0
   -2.0436    2.0540    1.4129 H   0  0  0  0  0  0  0  0  0  0  0  0
   -0.2565    1.8104   -0.1424 H   0  0  0  0  0  0  0  0  0  0  0  0
    2.0818    0.2307   -2.6922 H   0  0  0  0  0  0  0  0  0  0  0  0
    1.3800    1.8559   -2.8026 H   0  0  0  0  0  0  0  0  0  0  0  0
    3.0270   -0.4910   -0.7624 H   0  0  0  0  0  0  0  0  0  0  0  0
    3.8509    2.6732    1.0614 H   0  0  0  0  0  0  0  0  0  0  0  0
    5.3175    2.7299    2.9916 H   0  0  0  0  0  0  0  0  0  0  0  0
    6.3303    0.6497    3.8801 H   0  0  0  0  0  0  0  0  0  0  0  0
    5.8664   -1.5065    2.7923 H   0  0  0  0  0  0  0  0  0  0  0  0
    4.7556   -2.0645   -0.3426 H   0  0  0  0  0  0  0  0  0  0  0  0
    4.7680   -2.8240    1.2517 H   0  0  0  0  0  0  0  0  0  0  0  0
    3.2431   -2.2390    0.5962 H   0  0  0  0  0  0  0  0  0  0  0  0
   -3.2066   -1.3559   -2.8555 H   0  0  0  0  0  0  0  0  0  0  0  0
   -2.7235   -2.4742   -1.5264 H   0  0  0  0  0  0  0  0  0  0  0  0
   -1.8081   -2.8122   -4.1774 H   0  0  0  0  0  0  0  0  0  0  0  0
   -0.9368   -3.3548   -2.7353 H   0  0  0  0  0  0  0  0  0  0  0  0
    0.7739   -1.8704   -3.3939 H   0  0  0  0  0  0  0  0  0  0  0  0
   -0.3655   -0.8559   -4.3701 H   0  0  0  0  0  0  0  0  0  0  0  0
   -4.2401   -1.1274   -0.5564 H   0  0  0  0  0  0  0  0  0  0  0  0
   -6.0793   -0.7957    1.0046 H   0  0  0  0  0  0  0  0  0  0  0  0
  1  2  1  0
  2  3  2  0
  3  4  1  0
  4  5  2  0
  5  6  1  0
  6  7  2  0
  7  8  1  0
  8  9  1  0
  9 10  1  0
 10 11  2  0
 10 12  1  0
 12 13  1  0
 13 14  2  0
 14 15  1  0
 15 16  2  0
 16 17  1  0
 17 18  2  0
 18 19  1  0
  8 20  2  0
 20 21  1  0
 21 22  1  0
 22 23  1  0
 23 24  1  0
  5 25  1  0
 25 26  2  0
 26  2  1  0
 21  6  1  0
 18 13  1  0
 24 20  1  0
  1 27  1  0
  1 28  1  0
  1 29  1  0
  3 30  1  0
  4 31  1  0
  7 32  1  0
  9 33  1  0
  9 34  1  0
 12 35  1  0
 14 36  1  0
 15 37  1  0
 16 38  1  0
 17 39  1  0
 19 40  1  0
 19 41  1  0
 19 42  1  0
 22 43  1  0
 22 44  1  0
 23 45  1  0
 23 46  1  0
 24 47  1  0
 24 48  1  0
 25 49  1  0
 26 50  1  0
M  CHG  1   8   1
M  END
$$$$
