
     RDKit          3D

 42 43  0  0  0  0  0  0  0  0999 V2000
    3.3847   -1.0649    1.9397 C   0  0  0  0  0  0  0  0  0  0  0  0
    3.5237    0.2243    1.1508 C   0  0  0  0  0  0  0  0  0  0  0  0
    2.7404    1.2599    1.2798 N   0  0  0  0  0  0  0  0  0  0  0  0
    1.6238    1.1530    2.0662 N   0  0  0  0  0  0  0  0  0  0  0  0
    0.5692    0.3173    1.6852 C   0  0  0  0  0  0  0  0  0  0  0  0
    0.6250   -0.5513    0.8208 O   0  0  0  0  0  0  0  0  0  0  0  0
   -0.6828    0.5947    2.4984 C   0  0  0  0  0  0  0  0  0  0  0  0
   -1.8727   -0.2766    2.1005 C   0  0  0  0  0  0  0  0  0  0  0  0
   -2.4551    0.1053    0.7352 C   0  0  0  0  0  0  0  0  0  0  0  0
   -3.6881   -0.6468    0.5197 N   0  0  0  0  0  0  0  0  0  0  0  0
   -4.3945   -0.4851   -0.6799 C   0  0  0  0  0  0  0  0  0  0  0  0
   -4.2639    0.6259   -1.5208 C   0  0  0  0  0  0  0  0  0  0  0  0
   -5.0520    0.7624   -2.6699 C   0  0  0  0  0  0  0  0  0  0  0  0
   -6.0077   -0.1995   -2.9822 C   0  0  0  0  0  0  0  0  0  0  0  0
   -6.1830   -1.2909   -2.1386 C   0  0  0  0  0  0  0  0  0  0  0  0
   -5.3916   -1.4217   -0.9934 C   0  0  0  0  0  0  0  0  0  0  0  0
    4.6644    0.3202    0.1862 C   0  0  0  0  0  0  0  0  0  0  0  0
    5.2487   -0.8200   -0.3646 C   0  0  0  0  0  0  0  0  0  0  0  0
    6.2974   -0.6495   -1.2523 C   0  0  0  0  0  0  0  0  0  0  0  0
    6.7863    0.5548   -1.6160 N   0  0  0  0  0  0  0  0  0  0  0  0
    6.1921    1.6420   -1.0807 C   0  0  0  0  0  0  0  0  0  0  0  0
    5.1386    1.5789   -0.1870 C   0  0  0  0  0  0  0  0  0  0  0  0
    4.3706   -1.4759    2.1776 H   0  0  0  0  0  0  0  0  0  0  0  0
    2.8251   -1.8002    1.3560 H   0  0  0  0  0  0  0  0  0  0  0  0
    2.8786   -0.8942    2.8933 H   0  0  0  0  0  0  0  0  0  0  0  0
    1.3377    2.0498    2.4498 H   0  0  0  0  0  0  0  0  0  0  0  0
   -0.9433    1.6551    2.4041 H   0  0  0  0  0  0  0  0  0  0  0  0
   -0.4395    0.3993    3.5499 H   0  0  0  0  0  0  0  0  0  0  0  0
   -1.5880   -1.3363    2.0998 H   0  0  0  0  0  0  0  0  0  0  0  0
   -2.6522   -0.1649    2.8653 H   0  0  0  0  0  0  0  0  0  0  0  0
   -1.7392   -0.1105   -0.0649 H   0  0  0  0  0  0  0  0  0  0  0  0
   -2.6670    1.1807    0.7354 H   0  0  0  0  0  0  0  0  0  0  0  0
   -3.5829   -1.6359    0.7379 H   0  0  0  0  0  0  0  0  0  0  0  0
   -3.5446    1.4093   -1.3062 H   0  0  0  0  0  0  0  0  0  0  0  0
   -4.9207    1.6273   -3.3145 H   0  0  0  0  0  0  0  0  0  0  0  0
   -6.6215   -0.0916   -3.8719 H   0  0  0  0  0  0  0  0  0  0  0  0
   -6.9396   -2.0377   -2.3624 H   0  0  0  0  0  0  0  0  0  0  0  0
   -5.5631   -2.2710   -0.3367 H   0  0  0  0  0  0  0  0  0  0  0  0
    4.8994   -1.8200   -0.1381 H   0  0  0  0  0  0  0  0  0  0  0  0
    6.7854   -1.5040   -1.7132 H   0  0  0  0  0  0  0  0  0  0  0  0
    6.5986    2.5974   -1.4004 H   0  0  0  0  0  0  0  0  0  0  0  0
    4.7032    2.4907    0.2067 H   0  0  0  0  0  0  0  0  0  0  0  0
  1  2  1  0
  2  3  2  3
  3  4  1  0
  4  5  1  0
  5  6  2  0
  5  7  1  0
  7  8  1  0
  8  9  1  0
  9 10  1  0
 10 11  1  0
 11 12  2  0
 12 13  1  0
 13 14  2  0
 14 15  1  0
 15 16  2  0
  2 17  1  0
 17 18  2  0
 18 19  1  0
 19 20  2  0
 20 21  1  0
 21 22  2  0
 16 11  1  0
 22 17  1  0
  1 23  1  0
  1 24  1  0
  1 25  1  0
  4 26  1  0
  7 27  1  0
  7 28  1  0
  8 29  1  0
  8 30  1  0
  9 31  1  0
  9 32  1  0
 10 33  1  0
 12 34  1  0
 13 35  1  0
 14 36  1  0
 15 37  1  0
 16 38  1  0
 18 39  1  0
 19 40  1  0
 21 41  1  0
 22 42  1  0
M  END
$$$$
