
     RDKit          3D

 55 57  0  0  0  0  0  0  0  0999 V2000
   -1.7095   -2.7095   -2.8699 C   0  0  0  0  0  0  0  0  0  0  0  0
   -2.5074   -2.2260   -1.6719 C   0  0  0  0  0  0  0  0  0  0  0  0
   -1.6473   -1.9655   -0.5658 O   0  0  0  0  0  0  0  0  0  0  0  0
   -1.0645   -0.6571   -0.5767 C   0  0  0  0  0  0  0  0  0  0  0  0
    0.2526   -0.7590   -0.0259 O   0  0  0  0  0  0  0  0  0  0  0  0
    0.8744    0.4524    0.2122 C   0  0  0  0  0  0  0  0  0  0  0  0
    2.3752    0.4425    0.3792 C   0  0  0  0  0  0  0  0  0  0  0  0
    3.0081    1.4788    0.5347 O   0  0  0  0  0  0  0  0  0  0  0  0
    2.8701   -0.8447    0.3238 N   0  0  0  0  0  0  0  0  0  0  0  0
    4.2076   -1.2665    0.4328 C   0  0  0  0  0  0  0  0  0  0  0  0
    4.4526   -2.6434    0.3498 C   0  0  0  0  0  0  0  0  0  0  0  0
    5.7536   -3.1435    0.4482 C   0  0  0  0  0  0  0  0  0  0  0  0
    6.8223   -2.2703    0.6306 C   0  0  0  0  0  0  0  0  0  0  0  0
    6.5881   -0.8998    0.7143 C   0  0  0  0  0  0  0  0  0  0  0  0
    5.2857   -0.3992    0.6158 C   0  0  0  0  0  0  0  0  0  0  0  0
    0.2114    1.6138    0.3267 C   0  0  0  0  0  0  0  0  0  0  0  0
   -1.2860    1.7163    0.2514 C   0  0  0  0  0  0  0  0  0  0  0  0
   -1.7605    2.5981   -0.9021 C   0  0  0  0  0  0  0  0  0  0  0  0
   -1.1303    2.6067   -2.1572 C   0  0  0  0  0  0  0  0  0  0  0  0
   -1.6176    3.4051   -3.1945 C   0  0  0  0  0  0  0  0  0  0  0  0
   -2.7431    4.2008   -2.9960 C   0  0  0  0  0  0  0  0  0  0  0  0
   -3.3836    4.2002   -1.7599 C   0  0  0  0  0  0  0  0  0  0  0  0
   -2.8980    3.4037   -0.7212 C   0  0  0  0  0  0  0  0  0  0  0  0
   -1.9684    0.3283    0.1887 C   0  0  0  0  0  0  0  0  0  0  0  0
   -2.4422   -0.1765    1.5789 C   0  0  0  0  0  0  0  0  0  0  0  0
   -1.3626   -0.4350    2.6343 C   0  0  0  0  0  0  0  0  0  0  0  0
   -1.9441   -0.9469    3.9503 C   0  0  0  0  0  0  0  0  0  0  0  0
   -2.7914    0.0265    4.5441 O   0  0  0  0  0  0  0  0  0  0  0  0
   -2.3761   -2.9847   -3.6923 H   0  0  0  0  0  0  0  0  0  0  0  0
   -1.1028   -3.5803   -2.6006 H   0  0  0  0  0  0  0  0  0  0  0  0
   -1.0191   -1.9395   -3.2271 H   0  0  0  0  0  0  0  0  0  0  0  0
   -3.1113   -1.3474   -1.9232 H   0  0  0  0  0  0  0  0  0  0  0  0
   -3.1959   -3.0189   -1.3619 H   0  0  0  0  0  0  0  0  0  0  0  0
   -0.9433   -0.3256   -1.6157 H   0  0  0  0  0  0  0  0  0  0  0  0
    2.1691   -1.5674    0.1950 H   0  0  0  0  0  0  0  0  0  0  0  0
    3.6348   -3.3451    0.2084 H   0  0  0  0  0  0  0  0  0  0  0  0
    5.9309   -4.2137    0.3830 H   0  0  0  0  0  0  0  0  0  0  0  0
    7.8357   -2.6551    0.7082 H   0  0  0  0  0  0  0  0  0  0  0  0
    7.4184   -0.2128    0.8574 H   0  0  0  0  0  0  0  0  0  0  0  0
    5.1472    0.6750    0.6867 H   0  0  0  0  0  0  0  0  0  0  0  0
    0.7571    2.5360    0.5224 H   0  0  0  0  0  0  0  0  0  0  0  0
   -1.5980    2.2218    1.1763 H   0  0  0  0  0  0  0  0  0  0  0  0
   -0.2462    2.0016   -2.3447 H   0  0  0  0  0  0  0  0  0  0  0  0
   -1.1137    3.4092   -4.1579 H   0  0  0  0  0  0  0  0  0  0  0  0
   -3.1182    4.8242   -3.8034 H   0  0  0  0  0  0  0  0  0  0  0  0
   -4.2609    4.8225   -1.6026 H   0  0  0  0  0  0  0  0  0  0  0  0
   -3.4157    3.4180    0.2360 H   0  0  0  0  0  0  0  0  0  0  0  0
   -2.9040    0.4140   -0.3832 H   0  0  0  0  0  0  0  0  0  0  0  0
   -3.0225   -1.0975    1.4389 H   0  0  0  0  0  0  0  0  0  0  0  0
   -3.1532    0.5626    1.9703 H   0  0  0  0  0  0  0  0  0  0  0  0
   -0.8179    0.4940    2.8328 H   0  0  0  0  0  0  0  0  0  0  0  0
   -0.6496   -1.1815    2.2730 H   0  0  0  0  0  0  0  0  0  0  0  0
   -1.1326   -1.1535    4.6551 H   0  0  0  0  0  0  0  0  0  0  0  0
   -2.5096   -1.8737    3.8078 H   0  0  0  0  0  0  0  0  0  0  0  0
   -3.6479   -0.0125    4.0866 H   0  0  0  0  0  0  0  0  0  0  0  0
  1  2  1  0
  2  3  1  0
  3  4  1  0
  4  5  1  0
  5  6  1  0
  6  7  1  0
  7  8  2  0
  7  9  1  0
  9 10  1  0
 10 11  2  0
 11 12  1  0
 12 13  2  0
 13 14  1  0
 14 15  2  0
  6 16  2  0
 16 17  1  0
 17 18  1  0
 18 19  2  0
 19 20  1  0
 20 21  2  0
 21 22  1  0
 22 23  2  0
 17 24  1  0
 24 25  1  0
 25 26  1  0
 26 27  1  0
 27 28  1  0
 24  4  1  0
 15 10  1  0
 23 18  1  0
  1 29  1  0
  1 30  1  0
  1 31  1  0
  2 32  1  0
  2 33  1  0
  4 34  1  0
  9 35  1  0
 11 36  1  0
 12 37  1  0
 13 38  1  0
 14 39  1  0
 15 40  1  0
 16 41  1  0
 17 42  1  0
 19 43  1  0
 20 44  1  0
 21 45  1  0
 22 46  1  0
 23 47  1  0
 24 48  1  0
 25 49  1  0
 25 50  1  0
 26 51  1  0
 26 52  1  0
 27 53  1  0
 27 54  1  0
 28 55  1  0
M  END
$$$$
