
     RDKit          3D

 55 57  0  0  0  0  0  0  0  0999 V2000
   -8.0551   -2.2780    1.0584 C   0  0  0  0  0  0  0  0  0  0  0  0
   -7.7736   -1.2402    0.1299 O   0  0  0  0  0  0  0  0  0  0  0  0
   -6.6519   -0.4822    0.3593 C   0  0  0  0  0  0  0  0  0  0  0  0
   -5.9464   -0.4685    1.5667 C   0  0  0  0  0  0  0  0  0  0  0  0
   -4.8216    0.3467    1.7189 C   0  0  0  0  0  0  0  0  0  0  0  0
   -4.3784    1.1447    0.6620 C   0  0  0  0  0  0  0  0  0  0  0  0
   -3.2193    2.0319    0.8049 C   0  0  0  0  0  0  0  0  0  0  0  0
   -1.9513    1.6767    1.0609 C   0  0  0  0  0  0  0  0  0  0  0  0
   -0.6878    2.8440    1.1986 S   0  0  0  0  0  0  0  0  0  0  0  0
    0.5422    1.6305    1.5218 C   0  0  0  0  0  0  0  0  0  0  0  0
    2.1306    2.0549    1.7964 S   0  0  0  0  0  0  0  0  0  0  0  0
   -0.0221    0.3733    1.4931 N   0  0  0  0  0  0  0  0  0  0  0  0
    0.6949   -0.8837    1.7414 C   0  0  0  0  0  0  0  0  0  0  0  0
    0.9436   -1.7031    0.4650 C   0  0  0  0  0  0  0  0  0  0  0  0
    2.0015   -1.1134   -0.4679 C   0  0  0  0  0  0  0  0  0  0  0  0
    3.4106   -1.1867    0.1054 C   0  0  0  0  0  0  0  0  0  0  0  0
    3.6544   -1.8007    1.1380 O   0  0  0  0  0  0  0  0  0  0  0  0
    4.3197   -0.5097   -0.6896 N   0  0  0  0  0  0  0  0  0  0  0  0
    5.7009   -0.3348   -0.4586 C   0  0  0  0  0  0  0  0  0  0  0  0
    6.3721   -0.8182    0.6669 C   0  0  0  0  0  0  0  0  0  0  0  0
    7.7442   -0.5996    0.8265 C   0  0  0  0  0  0  0  0  0  0  0  0
    8.4599    0.1055   -0.1403 C   0  0  0  0  0  0  0  0  0  0  0  0
    7.8007    0.5961   -1.2713 C   0  0  0  0  0  0  0  0  0  0  0  0
    8.5919    1.3461   -2.2765 C   0  0  0  0  0  0  0  0  0  0  0  0
    9.7842    1.5817   -2.2208 O   0  0  0  0  0  0  0  0  0  0  0  0
    7.8454    1.7764   -3.3087 O   0  0  0  0  0  0  0  0  0  0  0  0
    6.4240    0.3753   -1.4261 C   0  0  0  0  0  0  0  0  0  0  0  0
   -1.3879    0.3088    1.2474 C   0  0  0  0  0  0  0  0  0  0  0  0
   -2.0396   -0.7240    1.1857 O   0  0  0  0  0  0  0  0  0  0  0  0
   -5.0932    1.1464   -0.5427 C   0  0  0  0  0  0  0  0  0  0  0  0
   -6.2299    0.3430   -0.7007 C   0  0  0  0  0  0  0  0  0  0  0  0
   -6.9800    0.2803   -1.8498 O   0  0  0  0  0  0  0  0  0  0  0  0
   -6.7070    1.2350   -2.8658 C   0  0  0  0  0  0  0  0  0  0  0  0
   -8.8940   -2.8602    0.6641 H   0  0  0  0  0  0  0  0  0  0  0  0
   -7.2024   -2.9568    1.1694 H   0  0  0  0  0  0  0  0  0  0  0  0
   -8.3633   -1.8668    2.0260 H   0  0  0  0  0  0  0  0  0  0  0  0
   -6.2504   -1.0744    2.4137 H   0  0  0  0  0  0  0  0  0  0  0  0
   -4.2939    0.3415    2.6696 H   0  0  0  0  0  0  0  0  0  0  0  0
   -3.4632    3.0842    0.6657 H   0  0  0  0  0  0  0  0  0  0  0  0
    1.6261   -0.6963    2.2808 H   0  0  0  0  0  0  0  0  0  0  0  0
    0.0677   -1.4854    2.4117 H   0  0  0  0  0  0  0  0  0  0  0  0
    1.2462   -2.7164    0.7583 H   0  0  0  0  0  0  0  0  0  0  0  0
    0.0090   -1.8103   -0.0971 H   0  0  0  0  0  0  0  0  0  0  0  0
    1.7581   -0.0770   -0.7224 H   0  0  0  0  0  0  0  0  0  0  0  0
    2.0048   -1.6907   -1.4009 H   0  0  0  0  0  0  0  0  0  0  0  0
    3.9564   -0.0840   -1.5341 H   0  0  0  0  0  0  0  0  0  0  0  0
    5.8556   -1.3684    1.4479 H   0  0  0  0  0  0  0  0  0  0  0  0
    8.2520   -0.9836    1.7080 H   0  0  0  0  0  0  0  0  0  0  0  0
    9.5273    0.2705   -0.0078 H   0  0  0  0  0  0  0  0  0  0  0  0
    8.4822    2.2688   -3.8688 H   0  0  0  0  0  0  0  0  0  0  0  0
    5.9201    0.7597   -2.3092 H   0  0  0  0  0  0  0  0  0  0  0  0
   -4.7397    1.7753   -1.3529 H   0  0  0  0  0  0  0  0  0  0  0  0
   -5.7242    1.0573   -3.3156 H   0  0  0  0  0  0  0  0  0  0  0  0
   -7.4594    1.1130   -3.6517 H   0  0  0  0  0  0  0  0  0  0  0  0
   -6.7904    2.2578   -2.4832 H   0  0  0  0  0  0  0  0  0  0  0  0
  1  2  1  0
  2  3  1  0
  3  4  2  0
  4  5  1  0
  5  6  2  0
  6  7  1  0
  7  8  2  3
  8  9  1  0
  9 10  1  0
 10 11  2  0
 10 12  1  0
 12 13  1  0
 13 14  1  0
 14 15  1  0
 15 16  1  0
 16 17  2  0
 16 18  1  0
 18 19  1  0
 19 20  2  0
 20 21  1  0
 21 22  2  0
 22 23  1  0
 23 24  1  0
 24 25  2  0
 24 26  1  0
 23 27  2  0
 12 28  1  0
 28 29  2  0
  6 30  1  0
 30 31  2  0
 31 32  1  0
 32 33  1  0
 31  3  1  0
 28  8  1  0
 27 19  1  0
  1 34  1  0
  1 35  1  0
  1 36  1  0
  4 37  1  0
  5 38  1  0
  7 39  1  0
 13 40  1  0
 13 41  1  0
 14 42  1  0
 14 43  1  0
 15 44  1  0
 15 45  1  0
 18 46  1  0
 20 47  1  0
 21 48  1  0
 22 49  1  0
 26 50  1  0
 27 51  1  0
 30 52  1  0
 33 53  1  0
 33 54  1  0
 33 55  1  0
M  END
$$$$
