
     RDKit          3D

 40 41  0  0  0  0  0  0  0  0999 V2000
   -2.9467   -0.4570    2.8577 C   0  0  0  0  0  0  0  0  0  0  0  0
   -3.7560    0.2835    1.8547 C   0  0  0  0  0  0  0  0  0  0  0  0
   -5.0459    0.5403    2.1008 N   0  0  0  0  0  0  0  0  0  0  0  0
   -5.4685    1.2002    1.0138 N   0  0  0  0  0  0  0  0  0  0  0  0
   -6.8473    1.6282    0.9495 C   0  0  0  0  0  0  0  0  0  0  0  0
   -4.4883    1.3980    0.0736 C   0  0  0  0  0  0  0  0  0  0  0  0
   -4.7381    2.1210   -1.1997 C   0  0  0  0  0  0  0  0  0  0  0  0
   -3.3485    0.7955    0.5904 C   0  0  0  0  0  0  0  0  0  0  0  0
   -2.0552    0.7293   -0.0521 C   0  0  0  0  0  0  0  0  0  0  0  0
   -1.0721    0.1434    0.5490 N   0  0  0  0  0  0  0  0  0  0  0  0
    0.1157    0.1196   -0.1202 N   0  0  0  0  0  0  0  0  0  0  0  0
    1.2225   -0.4714    0.4739 C   0  0  0  0  0  0  0  0  0  0  0  0
    1.2400   -1.0033    1.5794 O   0  0  0  0  0  0  0  0  0  0  0  0
    2.4393   -0.4153   -0.4173 C   0  0  0  0  0  0  0  0  0  0  0  0
    3.6684   -0.9257    0.3210 C   0  0  0  0  0  0  0  0  0  0  0  0
    4.8404   -0.9669   -0.5358 N   0  0  0  0  0  0  0  0  0  0  0  0
    5.5982   -2.0629   -0.8342 C   0  0  0  0  0  0  0  0  0  0  0  0
    6.6001   -1.6087   -1.6676 C   0  0  0  0  0  0  0  0  0  0  0  0
    7.6536   -2.3756   -2.2522 N   0  0  0  0  0  4  0  0  0  0  0  0
    8.4509   -1.7659   -2.9755 O   0  0  0  0  0  0  0  0  0  0  0  0
    7.6823   -3.5854   -1.9941 O   0  0  0  0  0  1  0  0  0  0  0  0
    6.3563   -0.2326   -1.8142 C   0  0  0  0  0  0  0  0  0  0  0  0
    5.2767    0.1636   -1.1302 N   0  0  0  0  0  0  0  0  0  0  0  0
   -2.5590   -1.3861    2.4283 H   0  0  0  0  0  0  0  0  0  0  0  0
   -2.1041    0.1533    3.1976 H   0  0  0  0  0  0  0  0  0  0  0  0
   -3.5434   -0.7204    3.7376 H   0  0  0  0  0  0  0  0  0  0  0  0
   -6.8768    2.7068    1.1216 H   0  0  0  0  0  0  0  0  0  0  0  0
   -7.4266    1.1086    1.7174 H   0  0  0  0  0  0  0  0  0  0  0  0
   -7.2474    1.3820   -0.0370 H   0  0  0  0  0  0  0  0  0  0  0  0
   -5.3118    1.4917   -1.8875 H   0  0  0  0  0  0  0  0  0  0  0  0
   -5.2988    3.0447   -1.0240 H   0  0  0  0  0  0  0  0  0  0  0  0
   -3.8035    2.3985   -1.6954 H   0  0  0  0  0  0  0  0  0  0  0  0
   -1.9475    1.1860   -1.0501 H   0  0  0  0  0  0  0  0  0  0  0  0
    0.1887    0.5583   -1.0318 H   0  0  0  0  0  0  0  0  0  0  0  0
    2.2458   -1.0272   -1.3066 H   0  0  0  0  0  0  0  0  0  0  0  0
    2.5891    0.6206   -0.7440 H   0  0  0  0  0  0  0  0  0  0  0  0
    3.5059   -1.9391    0.7063 H   0  0  0  0  0  0  0  0  0  0  0  0
    3.9192   -0.2812    1.1717 H   0  0  0  0  0  0  0  0  0  0  0  0
    5.3776   -3.0454   -0.4381 H   0  0  0  0  0  0  0  0  0  0  0  0
    6.9148    0.4967   -2.3885 H   0  0  0  0  0  0  0  0  0  0  0  0
  1  2  1  0
  2  3  2  0
  3  4  1  0
  4  5  1  0
  4  6  1  0
  6  7  1  0
  6  8  2  0
  8  9  1  0
  9 10  2  3
 10 11  1  0
 11 12  1  0
 12 13  2  0
 12 14  1  0
 14 15  1  0
 15 16  1  0
 16 17  1  0
 17 18  2  0
 18 19  1  0
 19 20  2  0
 19 21  1  0
 18 22  1  0
 22 23  2  0
  8  2  1  0
 23 16  1  0
  1 24  1  0
  1 25  1  0
  1 26  1  0
  5 27  1  0
  5 28  1  0
  5 29  1  0
  7 30  1  0
  7 31  1  0
  7 32  1  0
  9 33  1  0
 11 34  1  0
 14 35  1  0
 14 36  1  0
 15 37  1  0
 15 38  1  0
 17 39  1  0
 22 40  1  0
M  CHG  2  19   1  21  -1
M  END
$$$$
