
     RDKit          3D

 39 40  0  0  0  0  0  0  0  0999 V2000
   -4.9963   -0.4768    0.5028 C   0  0  0  0  0  0  0  0  0  0  0  0
   -3.7874   -1.0244   -0.2376 C   0  0  0  0  0  0  0  0  0  0  0  0
   -2.7291   -0.0251   -0.4232 N   0  0  0  0  0  0  0  0  0  0  0  0
   -2.8477    0.8829   -1.5675 C   0  0  0  0  0  0  0  0  0  0  0  0
   -3.4407    2.2356   -1.2007 C   0  0  0  0  0  0  0  0  0  0  0  0
   -1.6711    0.1815    0.4683 C   0  0  0  0  0  0  0  0  0  0  0  0
   -0.8462    1.0815    0.2783 O   0  0  0  0  0  0  0  0  0  0  0  0
   -1.5869   -0.7596    1.6723 C   0  0  0  0  0  0  0  0  0  0  0  0
   -0.2138   -0.3374    2.7898 S   0  0  0  0  0  0  0  0  0  0  0  0
    1.1062   -0.9149    1.8311 C   0  0  0  0  0  0  0  0  0  0  0  0
    1.4216   -2.1699    1.6311 N   0  0  0  0  0  0  0  0  0  0  0  0
    2.5238   -2.1827    0.8079 N   0  0  0  0  0  0  0  0  0  0  0  0
    2.8498   -0.9332    0.4951 C   0  0  0  0  0  0  0  0  0  0  0  0
    3.9789   -0.5593   -0.3646 C   0  0  0  0  0  0  0  0  0  0  0  0
    5.0461   -1.4551   -0.5016 C   0  0  0  0  0  0  0  0  0  0  0  0
    6.1114   -1.1153   -1.3190 C   0  0  0  0  0  0  0  0  0  0  0  0
    6.1863    0.0413   -2.0075 N   0  0  0  0  0  0  0  0  0  0  0  0
    5.1454    0.8888   -1.8759 C   0  0  0  0  0  0  0  0  0  0  0  0
    4.0357    0.6361   -1.0833 C   0  0  0  0  0  0  0  0  0  0  0  0
    1.9611   -0.0911    1.1412 N   0  0  0  0  0  0  0  0  0  0  0  0
    1.8997    1.3510    1.0944 N   0  0  0  0  0  0  0  0  0  0  0  0
   -4.7106   -0.0169    1.4536 H   0  0  0  0  0  0  0  0  0  0  0  0
   -5.7079   -1.2821    0.7104 H   0  0  0  0  0  0  0  0  0  0  0  0
   -5.5167    0.2776   -0.0936 H   0  0  0  0  0  0  0  0  0  0  0  0
   -4.0845   -1.4065   -1.2206 H   0  0  0  0  0  0  0  0  0  0  0  0
   -3.3925   -1.8805    0.3153 H   0  0  0  0  0  0  0  0  0  0  0  0
   -3.4491    0.4046   -2.3481 H   0  0  0  0  0  0  0  0  0  0  0  0
   -1.8471    1.0379   -1.9887 H   0  0  0  0  0  0  0  0  0  0  0  0
   -2.8447    2.7413   -0.4347 H   0  0  0  0  0  0  0  0  0  0  0  0
   -3.4761    2.8821   -2.0832 H   0  0  0  0  0  0  0  0  0  0  0  0
   -4.4589    2.1368   -0.8161 H   0  0  0  0  0  0  0  0  0  0  0  0
   -2.5102   -0.6770    2.2518 H   0  0  0  0  0  0  0  0  0  0  0  0
   -1.4649   -1.7911    1.3296 H   0  0  0  0  0  0  0  0  0  0  0  0
    5.0510   -2.4071    0.0216 H   0  0  0  0  0  0  0  0  0  0  0  0
    6.9559   -1.7868   -1.4442 H   0  0  0  0  0  0  0  0  0  0  0  0
    5.2238    1.8096   -2.4471 H   0  0  0  0  0  0  0  0  0  0  0  0
    3.2378    1.3686   -1.0542 H   0  0  0  0  0  0  0  0  0  0  0  0
    1.8623    1.7239    2.0429 H   0  0  0  0  0  0  0  0  0  0  0  0
    0.9855    1.6116    0.6948 H   0  0  0  0  0  0  0  0  0  0  0  0
  1  2  1  0
  2  3  1  0
  3  4  1  0
  4  5  1  0
  3  6  1  0
  6  7  2  0
  6  8  1  0
  8  9  1  0
  9 10  1  0
 10 11  2  0
 11 12  1  0
 12 13  2  0
 13 14  1  0
 14 15  2  0
 15 16  1  0
 16 17  2  0
 17 18  1  0
 18 19  2  0
 13 20  1  0
 20 21  1  0
 20 10  1  0
 19 14  1  0
  1 22  1  0
  1 23  1  0
  1 24  1  0
  2 25  1  0
  2 26  1  0
  4 27  1  0
  4 28  1  0
  5 29  1  0
  5 30  1  0
  5 31  1  0
  8 32  1  0
  8 33  1  0
 15 34  1  0
 16 35  1  0
 18 36  1  0
 19 37  1  0
 21 38  1  0
 21 39  1  0
M  END
$$$$
