
     RDKit          3D

 65 68  0  0  0  0  0  0  0  0999 V2000
   -4.2369    1.0690   -4.0502 C   0  0  0  0  0  0  0  0  0  0  0  0
   -4.8025    0.8083   -2.6862 C   0  0  0  0  0  0  0  0  0  0  0  0
   -4.9099    1.8430   -1.7516 C   0  0  0  0  0  0  0  0  0  0  0  0
   -5.4124    1.5935   -0.4725 C   0  0  0  0  0  0  0  0  0  0  0  0
   -5.8048    0.3015   -0.1018 C   0  0  0  0  0  0  0  0  0  0  0  0
   -6.3310    0.0290    1.2888 C   0  0  0  0  0  0  0  0  0  0  0  0
   -5.3629   -0.7829    2.1535 C   0  0  0  0  0  0  0  0  0  0  0  0
   -4.1010   -0.0990    2.3748 N   0  0  0  0  0  0  0  0  0  0  0  0
   -3.2367   -0.5300    3.3615 C   0  0  0  0  0  0  0  0  0  0  0  0
   -3.5326   -1.3764    4.1963 O   0  0  0  0  0  0  0  0  0  0  0  0
   -1.9004    0.1852    3.3181 C   0  0  0  0  0  0  0  0  0  0  0  0
   -0.8834   -0.4285    4.2782 C   0  0  0  0  0  0  0  0  0  0  0  0
    0.4118    0.3800    4.3609 C   0  0  0  0  0  0  0  0  0  0  0  0
    1.1079    0.4766    3.0826 N   0  0  0  0  0  0  0  0  0  0  0  0
    0.8679    1.6440    2.3478 N   0  0  0  0  0  0  0  0  0  0  0  0
    1.4220    1.8313    1.1826 C   0  0  0  0  0  0  0  0  0  0  0  0
    1.1319    3.1127    0.4549 C   0  0  0  0  0  0  0  0  0  0  0  0
    2.2776    0.8096    0.6317 C   0  0  0  0  0  0  0  0  0  0  0  0
    2.9475    0.6560   -0.5712 C   0  0  0  0  0  0  0  0  0  0  0  0
    2.8987    1.4864   -1.8023 C   0  0  0  0  0  0  0  0  0  0  0  0
    3.6778   -0.5326   -0.4401 N   0  0  0  0  0  0  0  0  0  0  0  0
    4.6963   -1.0965   -1.2698 C   0  0  0  0  0  0  0  0  0  0  0  0
    5.4150   -0.3365   -2.1979 C   0  0  0  0  0  0  0  0  0  0  0  0
    6.4096   -0.9325   -2.9838 C   0  0  0  0  0  0  0  0  0  0  0  0
    6.7040   -2.2930   -2.8555 C   0  0  0  0  0  0  0  0  0  0  0  0
    7.7913   -2.9218   -3.6749 C   0  0  0  0  0  0  0  0  0  0  0  0
    6.0143   -3.0456   -1.9016 C   0  0  0  0  0  0  0  0  0  0  0  0
    5.0230   -2.4538   -1.1134 C   0  0  0  0  0  0  0  0  0  0  0  0
    3.3074   -1.2071    0.6817 N   0  0  0  0  0  0  0  0  0  0  0  0
    2.5215   -0.3636    1.3531 C   0  0  0  0  0  0  0  0  0  0  0  0
    1.9243   -0.5951    2.6619 C   0  0  0  0  0  0  0  0  0  0  0  0
    2.1062   -1.6136    3.3250 O   0  0  0  0  0  0  0  0  0  0  0  0
   -5.6854   -0.7356   -1.0346 C   0  0  0  0  0  0  0  0  0  0  0  0
   -5.1828   -0.4850   -2.3132 C   0  0  0  0  0  0  0  0  0  0  0  0
   -4.6904    0.4041   -4.7926 H   0  0  0  0  0  0  0  0  0  0  0  0
   -3.1545    0.9086   -4.0424 H   0  0  0  0  0  0  0  0  0  0  0  0
   -4.4389    2.0966   -4.3695 H   0  0  0  0  0  0  0  0  0  0  0  0
   -4.6089    2.8536   -2.0163 H   0  0  0  0  0  0  0  0  0  0  0  0
   -5.4951    2.4175    0.2328 H   0  0  0  0  0  0  0  0  0  0  0  0
   -6.5603    0.9773    1.7915 H   0  0  0  0  0  0  0  0  0  0  0  0
   -7.2835   -0.5082    1.2006 H   0  0  0  0  0  0  0  0  0  0  0  0
   -5.1323   -1.7505    1.6936 H   0  0  0  0  0  0  0  0  0  0  0  0
   -5.8247   -0.9853    3.1265 H   0  0  0  0  0  0  0  0  0  0  0  0
   -3.6843    0.3592    1.5727 H   0  0  0  0  0  0  0  0  0  0  0  0
   -1.5210    0.1382    2.2912 H   0  0  0  0  0  0  0  0  0  0  0  0
   -2.0749    1.2360    3.5756 H   0  0  0  0  0  0  0  0  0  0  0  0
   -0.6672   -1.4577    3.9668 H   0  0  0  0  0  0  0  0  0  0  0  0
   -1.3159   -0.4913    5.2844 H   0  0  0  0  0  0  0  0  0  0  0  0
    0.2084    1.3938    4.7258 H   0  0  0  0  0  0  0  0  0  0  0  0
    1.0841   -0.0936    5.0857 H   0  0  0  0  0  0  0  0  0  0  0  0
    0.4607    2.9104   -0.3839 H   0  0  0  0  0  0  0  0  0  0  0  0
    2.0595    3.5595    0.0881 H   0  0  0  0  0  0  0  0  0  0  0  0
    0.6424    3.8274    1.1239 H   0  0  0  0  0  0  0  0  0  0  0  0
    3.6705    2.2610   -1.7782 H   0  0  0  0  0  0  0  0  0  0  0  0
    3.0121    0.8834   -2.7081 H   0  0  0  0  0  0  0  0  0  0  0  0
    1.9297    1.9821   -1.9026 H   0  0  0  0  0  0  0  0  0  0  0  0
    5.2725    0.7308   -2.3093 H   0  0  0  0  0  0  0  0  0  0  0  0
    6.9637   -0.3194   -3.6912 H   0  0  0  0  0  0  0  0  0  0  0  0
    7.9378   -2.3805   -4.6146 H   0  0  0  0  0  0  0  0  0  0  0  0
    8.7313   -2.9170   -3.1161 H   0  0  0  0  0  0  0  0  0  0  0  0
    7.5349   -3.9547   -3.9318 H   0  0  0  0  0  0  0  0  0  0  0  0
    6.2432   -4.0998   -1.7603 H   0  0  0  0  0  0  0  0  0  0  0  0
    4.5045   -3.0739   -0.3830 H   0  0  0  0  0  0  0  0  0  0  0  0
   -5.9821   -1.7490   -0.7733 H   0  0  0  0  0  0  0  0  0  0  0  0
   -5.0944   -1.3079   -3.0189 H   0  0  0  0  0  0  0  0  0  0  0  0
  1  2  1  0
  2  3  2  0
  3  4  1  0
  4  5  2  0
  5  6  1  0
  6  7  1  0
  7  8  1  0
  8  9  1  0
  9 10  2  0
  9 11  1  0
 11 12  1  0
 12 13  1  0
 13 14  1  0
 14 15  1  0
 15 16  2  0
 16 17  1  0
 16 18  1  0
 18 19  2  0
 19 20  1  0
 19 21  1  0
 21 22  1  0
 22 23  2  0
 23 24  1  0
 24 25  2  0
 25 26  1  0
 25 27  1  0
 27 28  2  0
 21 29  1  0
 29 30  2  0
 30 31  1  0
 31 32  2  0
  5 33  1  0
 33 34  2  0
 34  2  1  0
 31 14  1  0
 30 18  1  0
 28 22  1  0
  1 35  1  0
  1 36  1  0
  1 37  1  0
  3 38  1  0
  4 39  1  0
  6 40  1  0
  6 41  1  0
  7 42  1  0
  7 43  1  0
  8 44  1  0
 11 45  1  0
 11 46  1  0
 12 47  1  0
 12 48  1  0
 13 49  1  0
 13 50  1  0
 17 51  1  0
 17 52  1  0
 17 53  1  0
 20 54  1  0
 20 55  1  0
 20 56  1  0
 23 57  1  0
 24 58  1  0
 26 59  1  0
 26 60  1  0
 26 61  1  0
 27 62  1  0
 28 63  1  0
 33 64  1  0
 34 65  1  0
M  END
$$$$
