
     RDKit          3D

 22 23  0  0  0  0  0  0  0  0999 V2000
   -2.6237   -0.7620   -1.1869 C   0  0  0  0  0  0  0  0  0  0  0  0
   -2.9498    0.0119   -0.1412 C   0  0  0  0  0  0  0  0  0  0  0  0
   -2.0512    0.5768    0.9320 C   0  0  0  0  0  0  0  0  0  0  0  0
   -0.6584    0.1528    0.7849 N   0  0  0  0  0  0  0  0  0  0  0  0
   -0.1933   -1.0414    1.3750 C   0  0  0  0  0  0  0  0  0  0  0  0
   -1.0819   -2.1194    2.3098 S   0  0  0  0  0  0  0  0  0  0  0  0
    1.1271   -1.3716    1.1716 N   0  0  0  0  0  0  0  0  0  0  0  0
    1.9217   -0.5575    0.4305 C   0  0  0  0  0  0  0  0  0  0  0  0
    3.5299   -0.9622    0.1767 S   0  0  0  0  0  0  0  0  0  0  0  0
    3.7594    0.4659   -0.7586 C   0  0  0  0  0  0  0  0  0  0  0  0
    2.5992    1.2141   -0.8509 C   0  0  0  0  0  0  0  0  0  0  0  0
    1.5171    0.6042   -0.1469 C   0  0  0  0  0  0  0  0  0  0  0  0
    0.1457    1.0319    0.0211 C   0  0  0  0  0  0  0  0  0  0  0  0
   -0.2480    2.0858   -0.4715 O   0  0  0  0  0  0  0  0  0  0  0  0
   -1.6083   -1.0866   -1.3861 H   0  0  0  0  0  0  0  0  0  0  0  0
   -3.3883   -1.0931   -1.8842 H   0  0  0  0  0  0  0  0  0  0  0  0
   -3.9980    0.2872   -0.0303 H   0  0  0  0  0  0  0  0  0  0  0  0
   -2.1184    1.6704    0.8987 H   0  0  0  0  0  0  0  0  0  0  0  0
   -2.4369    0.2835    1.9131 H   0  0  0  0  0  0  0  0  0  0  0  0
    1.5014   -2.2231    1.5736 H   0  0  0  0  0  0  0  0  0  0  0  0
    4.7272    0.6831   -1.1902 H   0  0  0  0  0  0  0  0  0  0  0  0
    2.5273    2.1495   -1.3940 H   0  0  0  0  0  0  0  0  0  0  0  0
  1  2  2  0
  2  3  1  0
  3  4  1  0
  4  5  1  0
  5  6  2  0
  5  7  1  0
  7  8  1  0
  8  9  1  0
  9 10  1  0
 10 11  2  0
 11 12  1  0
 12 13  1  0
 13 14  2  0
 13  4  1  0
 12  8  2  0
  1 15  1  0
  1 16  1  0
  2 17  1  0
  3 18  1  0
  3 19  1  0
  7 20  1  0
 10 21  1  0
 11 22  1  0
M  END
$$$$
