
     RDKit          3D

 50 53  0  0  0  0  0  0  0  0999 V2000
   -4.0828   -0.7290   -3.1462 C   0  0  0  0  0  0  0  0  0  0  0  0
   -4.0116    0.1377   -1.8907 C   0  0  0  0  0  0  0  0  0  0  0  0
   -5.0418   -0.3090   -0.8513 C   0  0  0  0  0  0  0  0  0  0  0  0
   -5.0314    0.6082    0.3863 C   0  0  0  0  0  0  0  0  0  0  0  0
   -5.3504   -0.2033    1.6449 C   0  0  0  0  0  0  0  0  0  0  0  0
   -3.7144    1.3954    0.5456 C   0  0  0  0  0  0  0  0  0  0  0  0
   -2.5906    0.5837    0.0997 N   0  0  0  0  0  0  0  0  0  0  0  0
   -1.3367    0.8935    0.6079 C   0  0  0  0  0  0  0  0  0  0  0  0
   -1.2367    1.7235    1.6608 N   0  0  0  0  0  0  0  0  0  0  0  0
   -0.0059    1.9846    2.1512 C   0  0  0  0  0  0  0  0  0  0  0  0
    1.1399    1.4409    1.6296 C   0  0  0  0  0  0  0  0  0  0  0  0
    0.9682    0.5949    0.5583 C   0  0  0  0  0  0  0  0  0  0  0  0
   -0.2523    0.3256    0.0415 N   0  0  0  0  0  0  0  0  0  0  0  0
    2.1479   -0.0485   -0.1179 C   0  0  0  0  0  0  0  0  0  0  0  0
    3.3049   -0.2420    0.8737 C   0  0  0  0  0  0  0  0  0  0  0  0
    4.5069   -0.9000    0.2184 C   0  0  0  0  0  0  0  0  0  0  0  0
    4.9364   -2.1606    0.6635 C   0  0  0  0  0  0  0  0  0  0  0  0
    6.0381   -2.7878    0.0759 C   0  0  0  0  0  0  0  0  0  0  0  0
    6.7200   -2.1601   -0.9624 C   0  0  0  0  0  0  0  0  0  0  0  0
    8.0761   -2.9318   -1.6865 Cl  0  0  0  0  0  0  0  0  0  0  0  0
    6.3092   -0.9105   -1.4181 C   0  0  0  0  0  0  0  0  0  0  0  0
    5.2073   -0.2829   -0.8307 C   0  0  0  0  0  0  0  0  0  0  0  0
    3.6714    1.0954    1.5295 C   0  0  0  0  0  0  0  0  0  0  0  0
    2.4690    1.7411    2.1826 C   0  0  0  0  0  0  0  0  0  0  0  0
    2.5795    2.5342    3.1122 O   0  0  0  0  0  0  0  0  0  0  0  0
   -2.5973    0.1022   -1.2824 C   0  0  0  0  0  0  0  0  0  0  0  0
   -5.0759   -0.6677   -3.6035 H   0  0  0  0  0  0  0  0  0  0  0  0
   -3.8807   -1.7809   -2.9177 H   0  0  0  0  0  0  0  0  0  0  0  0
   -3.3500   -0.3960   -3.8887 H   0  0  0  0  0  0  0  0  0  0  0  0
   -4.2431    1.1703   -2.1855 H   0  0  0  0  0  0  0  0  0  0  0  0
   -4.8301   -1.3469   -0.5610 H   0  0  0  0  0  0  0  0  0  0  0  0
   -6.0487   -0.3127   -1.2871 H   0  0  0  0  0  0  0  0  0  0  0  0
   -5.8352    1.3480    0.2724 H   0  0  0  0  0  0  0  0  0  0  0  0
   -6.3002   -0.7368    1.5318 H   0  0  0  0  0  0  0  0  0  0  0  0
   -4.5675   -0.9405    1.8527 H   0  0  0  0  0  0  0  0  0  0  0  0
   -5.4385    0.4515    2.5182 H   0  0  0  0  0  0  0  0  0  0  0  0
   -3.6259    1.7134    1.5916 H   0  0  0  0  0  0  0  0  0  0  0  0
   -3.7571    2.3124   -0.0572 H   0  0  0  0  0  0  0  0  0  0  0  0
    0.0187    2.6629    2.9997 H   0  0  0  0  0  0  0  0  0  0  0  0
    1.8477   -1.0181   -0.5349 H   0  0  0  0  0  0  0  0  0  0  0  0
    2.4457    0.5887   -0.9597 H   0  0  0  0  0  0  0  0  0  0  0  0
    2.9439   -0.9070    1.6731 H   0  0  0  0  0  0  0  0  0  0  0  0
    4.4173   -2.6695    1.4738 H   0  0  0  0  0  0  0  0  0  0  0  0
    6.3571   -3.7635    0.4330 H   0  0  0  0  0  0  0  0  0  0  0  0
    6.8410   -0.4194   -2.2289 H   0  0  0  0  0  0  0  0  0  0  0  0
    4.9065    0.6931   -1.2056 H   0  0  0  0  0  0  0  0  0  0  0  0
    4.0786    1.8109    0.8058 H   0  0  0  0  0  0  0  0  0  0  0  0
    4.4301    0.9278    2.3035 H   0  0  0  0  0  0  0  0  0  0  0  0
   -1.9412    0.7114   -1.9190 H   0  0  0  0  0  0  0  0  0  0  0  0
   -2.2153   -0.9270   -1.2983 H   0  0  0  0  0  0  0  0  0  0  0  0
  1  2  1  0
  2  3  1  0
  3  4  1  0
  4  5  1  0
  4  6  1  0
  6  7  1  0
  7  8  1  0
  8  9  2  0
  9 10  1  0
 10 11  2  0
 11 12  1  0
 12 13  2  0
 12 14  1  0
 14 15  1  0
 15 16  1  0
 16 17  2  0
 17 18  1  0
 18 19  2  0
 19 20  1  0
 19 21  1  0
 21 22  2  0
 15 23  1  0
 23 24  1  0
 24 25  2  0
  7 26  1  0
 26  2  1  0
 13  8  1  0
 22 16  1  0
 24 11  1  0
  1 27  1  0
  1 28  1  0
  1 29  1  0
  2 30  1  0
  3 31  1  0
  3 32  1  0
  4 33  1  0
  5 34  1  0
  5 35  1  0
  5 36  1  0
  6 37  1  0
  6 38  1  0
 10 39  1  0
 14 40  1  0
 14 41  1  0
 15 42  1  0
 17 43  1  0
 18 44  1  0
 21 45  1  0
 22 46  1  0
 23 47  1  0
 23 48  1  0
 26 49  1  0
 26 50  1  0
M  END
$$$$
