
     RDKit          3D

 56 59  0  0  0  0  0  0  0  0999 V2000
   -4.9704   -2.4805    1.2997 C   0  0  0  0  0  0  0  0  0  0  0  0
   -4.7595   -1.7467   -0.0120 C   0  0  0  0  0  0  0  0  0  0  0  0
   -4.4914   -0.3259    0.2635 N   0  0  0  0  0  0  0  0  0  0  0  0
   -3.9297    0.4796   -0.7430 C   0  0  0  0  0  0  0  0  0  0  0  0
   -2.6012    0.6458   -0.8834 C   0  0  0  0  0  0  0  0  0  0  0  0
   -1.8187   -0.0317    0.1182 N   0  0  0  0  0  0  0  0  0  0  0  0
   -0.8814   -1.2930   -0.5182 S   0  0  0  0  0  6  0  0  0  0  0  0
   -1.2954   -2.4820    0.2017 O   0  0  0  0  0  0  0  0  0  0  0  0
   -0.9073   -1.2720   -1.9651 O   0  0  0  0  0  0  0  0  0  0  0  0
    0.7448   -0.8674    0.0456 C   0  0  0  0  0  0  0  0  0  0  0  0
    1.6145   -0.1749   -0.7963 C   0  0  0  0  0  0  0  0  0  0  0  0
    2.9053    0.1278   -0.3574 C   0  0  0  0  0  0  0  0  0  0  0  0
    3.3425   -0.2655    0.9178 C   0  0  0  0  0  0  0  0  0  0  0  0
    4.7539    0.0729    1.3663 C   0  0  0  0  0  0  0  0  0  0  0  0
    4.7900    0.8279    2.7031 C   0  0  0  0  0  0  0  0  0  0  0  0
    6.2051    1.3062    3.0424 C   0  0  0  0  0  0  0  0  0  0  0  0
    7.3071    0.3977    2.4939 C   0  0  0  0  0  0  0  0  0  0  0  0
    6.8416   -1.0458    2.3635 C   0  0  0  0  0  0  0  0  0  0  0  0
    5.6496   -1.1823    1.4112 C   0  0  0  0  0  0  0  0  0  0  0  0
    2.4595   -0.9813    1.7425 C   0  0  0  0  0  0  0  0  0  0  0  0
    1.1667   -1.2853    1.3101 C   0  0  0  0  0  0  0  0  0  0  0  0
   -1.9592    1.5188   -1.8972 C   0  0  0  0  0  0  0  0  0  0  0  0
   -0.7527    1.7379   -1.9231 O   0  0  0  0  0  0  0  0  0  0  0  0
   -2.8247    2.1212   -2.7992 O   0  0  0  0  0  0  0  0  0  0  0  0
   -4.2215    1.9770   -2.6911 C   0  0  0  0  0  0  0  0  0  0  0  0
   -4.9793    2.6695   -3.6376 C   0  0  0  0  0  0  0  0  0  0  0  0
   -6.3665    2.5798   -3.5990 C   0  0  0  0  0  0  0  0  0  0  0  0
   -6.9800    1.7995   -2.6213 C   0  0  0  0  0  0  0  0  0  0  0  0
   -6.2073    1.1091   -1.6786 C   0  0  0  0  0  0  0  0  0  0  0  0
   -4.8065    1.1912   -1.6939 C   0  0  0  0  0  0  0  0  0  0  0  0
   -5.1716   -3.5403    1.1163 H   0  0  0  0  0  0  0  0  0  0  0  0
   -5.8173   -2.0612    1.8531 H   0  0  0  0  0  0  0  0  0  0  0  0
   -4.0834   -2.4046    1.9376 H   0  0  0  0  0  0  0  0  0  0  0  0
   -3.9244   -2.2001   -0.5553 H   0  0  0  0  0  0  0  0  0  0  0  0
   -5.6535   -1.8395   -0.6384 H   0  0  0  0  0  0  0  0  0  0  0  0
   -5.3444    0.1068    0.6210 H   0  0  0  0  0  0  0  0  0  0  0  0
   -2.4425   -0.4330    0.8287 H   0  0  0  0  0  0  0  0  0  0  0  0
    1.2969    0.1399   -1.7884 H   0  0  0  0  0  0  0  0  0  0  0  0
    3.5679    0.6768   -1.0239 H   0  0  0  0  0  0  0  0  0  0  0  0
    5.1855    0.7528    0.6170 H   0  0  0  0  0  0  0  0  0  0  0  0
    4.4363    0.1776    3.5137 H   0  0  0  0  0  0  0  0  0  0  0  0
    4.1114    1.6898    2.6849 H   0  0  0  0  0  0  0  0  0  0  0  0
    6.2967    1.3841    4.1326 H   0  0  0  0  0  0  0  0  0  0  0  0
    6.3581    2.3192    2.6508 H   0  0  0  0  0  0  0  0  0  0  0  0
    7.6226    0.7634    1.5085 H   0  0  0  0  0  0  0  0  0  0  0  0
    8.1879    0.4560    3.1432 H   0  0  0  0  0  0  0  0  0  0  0  0
    6.5579   -1.4218    3.3547 H   0  0  0  0  0  0  0  0  0  0  0  0
    7.6643   -1.6797    2.0138 H   0  0  0  0  0  0  0  0  0  0  0  0
    6.0161   -1.3822    0.3956 H   0  0  0  0  0  0  0  0  0  0  0  0
    5.0838   -2.0767    1.7004 H   0  0  0  0  0  0  0  0  0  0  0  0
    2.7751   -1.3166    2.7280 H   0  0  0  0  0  0  0  0  0  0  0  0
    0.5018   -1.8480    1.9609 H   0  0  0  0  0  0  0  0  0  0  0  0
   -4.4892    3.2718   -4.3978 H   0  0  0  0  0  0  0  0  0  0  0  0
   -6.9683    3.1129   -4.3308 H   0  0  0  0  0  0  0  0  0  0  0  0
   -8.0648    1.7226   -2.5935 H   0  0  0  0  0  0  0  0  0  0  0  0
   -6.7306    0.5022   -0.9459 H   0  0  0  0  0  0  0  0  0  0  0  0
  1  2  1  0
  2  3  1  0
  3  4  1  0
  4  5  2  0
  5  6  1  0
  6  7  1  0
  7  8  2  0
  7  9  2  0
  7 10  1  0
 10 11  2  0
 11 12  1  0
 12 13  2  0
 13 14  1  0
 14 15  1  0
 15 16  1  0
 16 17  1  0
 17 18  1  0
 18 19  1  0
 13 20  1  0
 20 21  2  0
  5 22  1  0
 22 23  2  0
 22 24  1  0
 24 25  1  0
 25 26  2  0
 26 27  1  0
 27 28  2  0
 28 29  1  0
 29 30  2  0
 30  4  1  0
 21 10  1  0
 30 25  1  0
 19 14  1  0
  1 31  1  0
  1 32  1  0
  1 33  1  0
  2 34  1  0
  2 35  1  0
  3 36  1  0
  6 37  1  0
 11 38  1  0
 12 39  1  0
 14 40  1  0
 15 41  1  0
 15 42  1  0
 16 43  1  0
 16 44  1  0
 17 45  1  0
 17 46  1  0
 18 47  1  0
 18 48  1  0
 19 49  1  0
 19 50  1  0
 20 51  1  0
 21 52  1  0
 26 53  1  0
 27 54  1  0
 28 55  1  0
 29 56  1  0
M  END
$$$$
