
     RDKit          3D

 48 50  0  0  0  0  0  0  0  0999 V2000
    5.7198    1.7260   -1.7152 C   0  0  0  0  0  0  0  0  0  0  0  0
    5.5968    0.2193   -1.5313 C   0  0  0  0  0  0  0  0  0  0  0  0
    4.7414   -0.1105   -0.3816 N   0  0  0  0  0  0  0  0  0  0  0  0
    5.1618   -1.2840    0.4083 C   0  0  0  0  0  0  0  0  0  0  0  0
    4.8524   -2.5946   -0.3041 C   0  0  0  0  0  0  0  0  0  0  0  0
    3.3611    0.1228   -0.4341 C   0  0  0  0  0  0  0  0  0  0  0  0
    2.6225    0.2451    0.7554 C   0  0  0  0  0  0  0  0  0  0  0  0
    1.2408    0.4746    0.7527 C   0  0  0  0  0  0  0  0  0  0  0  0
    0.5535    0.5893   -0.4539 C   0  0  0  0  0  0  0  0  0  0  0  0
   -0.8862    0.8554   -0.4798 C   0  0  0  0  0  0  0  0  0  0  0  0
   -1.8858   -0.0131   -0.2231 C   0  0  0  0  0  0  0  0  0  0  0  0
   -1.6777   -1.4391    0.1090 C   0  0  0  0  0  0  0  0  0  0  0  0
   -0.6051   -2.0270    0.0564 O   0  0  0  0  0  0  0  0  0  0  0  0
   -2.8085   -2.1121    0.4638 N   0  0  0  0  0  0  0  0  0  0  0  0
   -4.0976   -1.6937    0.3246 C   0  0  0  0  0  0  0  0  0  0  0  0
   -5.0027   -2.5162    0.4493 O   0  0  0  0  0  0  0  0  0  0  0  0
   -4.2888   -0.3667    0.0055 N   0  0  0  0  0  0  0  0  0  0  0  0
   -5.6575    0.1308   -0.0331 C   0  0  0  0  0  0  0  0  0  0  0  0
   -5.9770    0.7813    1.2686 C   0  0  0  0  0  0  0  0  0  0  0  0
   -5.9205    2.0865    1.7139 C   0  0  0  0  0  0  0  0  0  0  0  0
   -6.3480    2.0672    3.0630 C   0  0  0  0  0  0  0  0  0  0  0  0
   -6.6363    0.7549    3.3548 C   0  0  0  0  0  0  0  0  0  0  0  0
   -6.4119   -0.0332    2.2726 O   0  0  0  0  0  0  0  0  0  0  0  0
   -3.2730    0.5265   -0.2942 C   0  0  0  0  0  0  0  0  0  0  0  0
   -3.4864    1.6959   -0.6157 O   0  0  0  0  0  0  0  0  0  0  0  0
    1.2648    0.4910   -1.6487 C   0  0  0  0  0  0  0  0  0  0  0  0
    2.6482    0.2634   -1.6337 C   0  0  0  0  0  0  0  0  0  0  0  0
    6.0890    2.2014   -0.8002 H   0  0  0  0  0  0  0  0  0  0  0  0
    6.4234    1.9505   -2.5232 H   0  0  0  0  0  0  0  0  0  0  0  0
    4.7616    2.1887   -1.9688 H   0  0  0  0  0  0  0  0  0  0  0  0
    6.6099   -0.1642   -1.3551 H   0  0  0  0  0  0  0  0  0  0  0  0
    5.2524   -0.2679   -2.4501 H   0  0  0  0  0  0  0  0  0  0  0  0
    4.7059   -1.2907    1.4042 H   0  0  0  0  0  0  0  0  0  0  0  0
    6.2422   -1.2243    0.5901 H   0  0  0  0  0  0  0  0  0  0  0  0
    3.7760   -2.7238   -0.4561 H   0  0  0  0  0  0  0  0  0  0  0  0
    5.3386   -2.6405   -1.2839 H   0  0  0  0  0  0  0  0  0  0  0  0
    5.2117   -3.4400    0.2911 H   0  0  0  0  0  0  0  0  0  0  0  0
    3.1278    0.1908    1.7159 H   0  0  0  0  0  0  0  0  0  0  0  0
    0.7194    0.5647    1.7015 H   0  0  0  0  0  0  0  0  0  0  0  0
   -1.1123    1.8904   -0.7374 H   0  0  0  0  0  0  0  0  0  0  0  0
   -2.6902   -3.0986    0.6470 H   0  0  0  0  0  0  0  0  0  0  0  0
   -6.3655   -0.6820   -0.2284 H   0  0  0  0  0  0  0  0  0  0  0  0
   -5.7673    0.8549   -0.8487 H   0  0  0  0  0  0  0  0  0  0  0  0
   -5.6012    2.9420    1.1332 H   0  0  0  0  0  0  0  0  0  0  0  0
   -6.4339    2.9050    3.7405 H   0  0  0  0  0  0  0  0  0  0  0  0
   -6.9913    0.2437    4.2389 H   0  0  0  0  0  0  0  0  0  0  0  0
    0.7562    0.5834   -2.6049 H   0  0  0  0  0  0  0  0  0  0  0  0
    3.1473    0.1771   -2.5931 H   0  0  0  0  0  0  0  0  0  0  0  0
  1  2  1  0
  2  3  1  0
  3  4  1  0
  4  5  1  0
  3  6  1  0
  6  7  2  0
  7  8  1  0
  8  9  2  0
  9 10  1  0
 10 11  2  3
 11 12  1  0
 12 13  2  0
 12 14  1  0
 14 15  1  0
 15 16  2  0
 15 17  1  0
 17 18  1  0
 18 19  1  0
 19 20  2  0
 20 21  1  0
 21 22  2  0
 22 23  1  0
 17 24  1  0
 24 25  2  0
  9 26  1  0
 26 27  2  0
 27  6  1  0
 24 11  1  0
 23 19  1  0
  1 28  1  0
  1 29  1  0
  1 30  1  0
  2 31  1  0
  2 32  1  0
  4 33  1  0
  4 34  1  0
  5 35  1  0
  5 36  1  0
  5 37  1  0
  7 38  1  0
  8 39  1  0
 10 40  1  0
 14 41  1  0
 18 42  1  0
 18 43  1  0
 20 44  1  0
 21 45  1  0
 22 46  1  0
 26 47  1  0
 27 48  1  0
M  END
$$$$
