
     RDKit          3D

 37 38  0  0  0  0  0  0  0  0999 V2000
   -5.7539   -0.2649   -0.7550 C   0  0  0  0  0  0  0  0  0  0  0  0
   -4.4954   -0.3199   -0.0170 N   0  0  0  0  0  0  0  0  0  0  0  0
   -3.3913   -0.7513   -0.8906 C   0  0  0  0  0  0  0  0  0  0  0  0
   -2.0021   -0.5221   -0.2662 C   0  0  0  0  0  0  0  0  0  0  0  0
   -1.7771    0.8788    0.1097 N   0  0  0  0  0  0  0  0  0  0  0  0
   -0.5414    1.4712    0.2891 C   0  0  0  0  0  0  0  0  0  0  0  0
   -0.3931    2.6857    0.4070 O   0  0  0  0  0  0  0  0  0  0  0  0
    0.6353    0.5619    0.3473 C   0  0  0  0  0  0  0  0  0  0  0  0
    1.8627    1.0620    0.1387 C   0  0  0  0  0  0  0  0  0  0  0  0
    3.0836    0.2521    0.1856 C   0  0  0  0  0  0  0  0  0  0  0  0
    4.0394    0.4070   -0.8271 C   0  0  0  0  0  0  0  0  0  0  0  0
    5.2263   -0.3322   -0.8051 C   0  0  0  0  0  0  0  0  0  0  0  0
    5.4662   -1.2198    0.2512 C   0  0  0  0  0  0  0  0  0  0  0  0
    6.7110   -1.9972    0.2796 N   0  0  0  0  0  4  0  0  0  0  0  0
    6.9452   -2.6728    1.2926 O   0  0  0  0  0  0  0  0  0  0  0  0
    7.4538   -1.9332   -0.7106 O   0  0  0  0  0  1  0  0  0  0  0  0
    4.5304   -1.3684    1.2819 C   0  0  0  0  0  0  0  0  0  0  0  0
    3.3439   -0.6288    1.2459 C   0  0  0  0  0  0  0  0  0  0  0  0
   -2.9703    1.7237    0.1643 C   0  0  0  0  0  0  0  0  0  0  0  0
   -4.2055    0.9550    0.6724 C   0  0  0  0  0  0  0  0  0  0  0  0
   -5.7360    0.5018   -1.5381 H   0  0  0  0  0  0  0  0  0  0  0  0
   -6.5864   -0.0446   -0.0773 H   0  0  0  0  0  0  0  0  0  0  0  0
   -5.9745   -1.2319   -1.2193 H   0  0  0  0  0  0  0  0  0  0  0  0
   -3.5044   -1.8182   -1.1180 H   0  0  0  0  0  0  0  0  0  0  0  0
   -3.4288   -0.2144   -1.8484 H   0  0  0  0  0  0  0  0  0  0  0  0
   -1.2296   -0.8276   -0.9805 H   0  0  0  0  0  0  0  0  0  0  0  0
   -1.8874   -1.1319    0.6382 H   0  0  0  0  0  0  0  0  0  0  0  0
    0.4750   -0.4815    0.5764 H   0  0  0  0  0  0  0  0  0  0  0  0
    1.9963    2.1162   -0.1023 H   0  0  0  0  0  0  0  0  0  0  0  0
    3.8610    1.0988   -1.6481 H   0  0  0  0  0  0  0  0  0  0  0  0
    5.9471   -0.2004   -1.6102 H   0  0  0  0  0  0  0  0  0  0  0  0
    4.7094   -2.0440    2.1163 H   0  0  0  0  0  0  0  0  0  0  0  0
    2.6314   -0.7369    2.0624 H   0  0  0  0  0  0  0  0  0  0  0  0
   -2.7882    2.5882    0.8121 H   0  0  0  0  0  0  0  0  0  0  0  0
   -3.1473    2.1058   -0.8492 H   0  0  0  0  0  0  0  0  0  0  0  0
   -4.0334    0.7053    1.7286 H   0  0  0  0  0  0  0  0  0  0  0  0
   -5.0719    1.6285    0.6635 H   0  0  0  0  0  0  0  0  0  0  0  0
  1  2  1  0
  2  3  1  0
  3  4  1  0
  4  5  1  0
  5  6  1  0
  6  7  2  0
  6  8  1  0
  8  9  2  3
  9 10  1  0
 10 11  2  0
 11 12  1  0
 12 13  2  0
 13 14  1  0
 14 15  2  0
 14 16  1  0
 13 17  1  0
 17 18  2  0
  5 19  1  0
 19 20  1  0
 20  2  1  0
 18 10  1  0
  1 21  1  0
  1 22  1  0
  1 23  1  0
  3 24  1  0
  3 25  1  0
  4 26  1  0
  4 27  1  0
  8 28  1  0
  9 29  1  0
 11 30  1  0
 12 31  1  0
 17 32  1  0
 18 33  1  0
 19 34  1  0
 19 35  1  0
 20 36  1  0
 20 37  1  0
M  CHG  2  14   1  16  -1
M  END
$$$$
