
     RDKit          3D

 62 65  0  0  0  0  0  0  0  0999 V2000
    9.7393   -0.1465    0.5386 C   0  0  0  0  0  0  0  0  0  0  0  0
    9.3647   -1.5834    0.2270 C   0  0  0  0  0  0  0  0  0  0  0  0
    7.9415   -1.7518    0.3007 O   0  0  0  0  0  0  0  0  0  0  0  0
    7.2464   -1.4624   -0.8320 C   0  0  0  0  0  0  0  0  0  0  0  0
    7.7600   -1.0731   -1.8734 O   0  0  0  0  0  0  0  0  0  0  0  0
    5.8887   -1.6479   -0.6693 N   0  0  0  0  0  0  0  0  0  0  0  0
    4.9757   -1.3368   -1.7643 C   0  0  0  0  0  0  0  0  0  0  0  0
    3.6513   -0.7485   -1.2594 C   0  0  0  0  0  0  0  0  0  0  0  0
    3.0129   -1.5638   -0.2166 N   0  0  0  0  0  0  0  0  0  0  0  0
    1.7005   -1.3972    0.2180 C   0  0  0  0  0  0  0  0  0  0  0  0
    1.2126   -2.1250    1.0838 O   0  0  0  0  0  0  0  0  0  0  0  0
    0.8912   -0.2632   -0.4382 C   0  0  0  0  0  0  0  0  0  0  0  0
   -0.3877   -0.0171    0.1289 O   0  0  0  0  0  0  0  0  0  0  0  0
   -1.4582   -0.7376   -0.3296 C   0  0  0  0  0  0  0  0  0  0  0  0
   -1.3649   -1.9065   -1.0922 C   0  0  0  0  0  0  0  0  0  0  0  0
   -2.5169   -2.5624   -1.5327 C   0  0  0  0  0  0  0  0  0  0  0  0
   -3.7735   -2.0577   -1.2110 C   0  0  0  0  0  0  0  0  0  0  0  0
   -3.8819   -0.9049   -0.4267 C   0  0  0  0  0  0  0  0  0  0  0  0
   -2.7258   -0.2463    0.0316 C   0  0  0  0  0  0  0  0  0  0  0  0
   -2.8833    1.0129    0.8448 C   0  0  0  0  0  0  0  0  0  0  0  0
   -4.1547    0.9448    1.6804 C   0  0  0  0  0  0  0  0  0  0  0  0
   -5.3173    0.6095    0.8701 N   0  0  0  0  0  0  0  0  0  0  0  0
   -6.6195    1.1115    1.2930 C   0  0  0  0  0  0  0  0  0  0  0  0
   -6.8437    2.5296    0.8401 C   0  0  0  0  0  0  0  0  0  0  0  0
   -7.0130    2.8263   -0.5208 C   0  0  0  0  0  0  0  0  0  0  0  0
   -7.2177    4.1434   -0.9390 C   0  0  0  0  0  0  0  0  0  0  0  0
   -7.2554    5.1775   -0.0035 C   0  0  0  0  0  0  0  0  0  0  0  0
   -7.0874    4.8939    1.3507 C   0  0  0  0  0  0  0  0  0  0  0  0
   -6.8835    3.5788    1.7605 C   0  0  0  0  0  0  0  0  0  0  0  0
   -6.7170    3.3305    3.0676 F   0  0  0  0  0  0  0  0  0  0  0  0
   -5.2408   -0.3773   -0.1055 C   0  0  0  0  0  0  0  0  0  0  0  0
   -6.2183   -0.8119   -0.7078 O   0  0  0  0  0  0  0  0  0  0  0  0
    3.8455   -2.5931    0.4182 C   0  0  0  0  0  0  0  0  0  0  0  0
    5.3042   -2.1471    0.5777 C   0  0  0  0  0  0  0  0  0  0  0  0
   10.8258   -0.0219    0.5481 H   0  0  0  0  0  0  0  0  0  0  0  0
    9.3160    0.5395   -0.2018 H   0  0  0  0  0  0  0  0  0  0  0  0
    9.3401    0.1522    1.5135 H   0  0  0  0  0  0  0  0  0  0  0  0
    9.8037   -2.2483    0.9783 H   0  0  0  0  0  0  0  0  0  0  0  0
    9.7545   -1.8990   -0.7476 H   0  0  0  0  0  0  0  0  0  0  0  0
    5.4437   -0.6472   -2.4746 H   0  0  0  0  0  0  0  0  0  0  0  0
    4.7882   -2.2786   -2.2944 H   0  0  0  0  0  0  0  0  0  0  0  0
    3.8294    0.2397   -0.8188 H   0  0  0  0  0  0  0  0  0  0  0  0
    2.9598   -0.6234   -2.0979 H   0  0  0  0  0  0  0  0  0  0  0  0
    0.8178   -0.4210   -1.5200 H   0  0  0  0  0  0  0  0  0  0  0  0
    1.4613    0.6610   -0.2900 H   0  0  0  0  0  0  0  0  0  0  0  0
   -0.4079   -2.3492   -1.3482 H   0  0  0  0  0  0  0  0  0  0  0  0
   -2.4337   -3.4705   -2.1248 H   0  0  0  0  0  0  0  0  0  0  0  0
   -4.6674   -2.5675   -1.5642 H   0  0  0  0  0  0  0  0  0  0  0  0
   -2.9257    1.8657    0.1562 H   0  0  0  0  0  0  0  0  0  0  0  0
   -2.0350    1.1638    1.5210 H   0  0  0  0  0  0  0  0  0  0  0  0
   -4.3154    1.9092    2.1737 H   0  0  0  0  0  0  0  0  0  0  0  0
   -4.0692    0.1755    2.4579 H   0  0  0  0  0  0  0  0  0  0  0  0
   -7.4262    0.4880    0.8897 H   0  0  0  0  0  0  0  0  0  0  0  0
   -6.6820    1.0186    2.3839 H   0  0  0  0  0  0  0  0  0  0  0  0
   -6.9846    2.0252   -1.2586 H   0  0  0  0  0  0  0  0  0  0  0  0
   -7.3478    4.3604   -1.9964 H   0  0  0  0  0  0  0  0  0  0  0  0
   -7.4152    6.2016   -0.3302 H   0  0  0  0  0  0  0  0  0  0  0  0
   -7.1131    5.6880    2.0902 H   0  0  0  0  0  0  0  0  0  0  0  0
    3.7937   -3.4766   -0.2300 H   0  0  0  0  0  0  0  0  0  0  0  0
    3.4391   -2.8780    1.3941 H   0  0  0  0  0  0  0  0  0  0  0  0
    5.9100   -2.9771    0.9576 H   0  0  0  0  0  0  0  0  0  0  0  0
    5.3661   -1.3274    1.3037 H   0  0  0  0  0  0  0  0  0  0  0  0
  1  2  1  0
  2  3  1  0
  3  4  1  0
  4  5  2  0
  4  6  1  0
  6  7  1  0
  7  8  1  0
  8  9  1  0
  9 10  1  0
 10 11  2  0
 10 12  1  0
 12 13  1  0
 13 14  1  0
 14 15  2  0
 15 16  1  0
 16 17  2  0
 17 18  1  0
 18 19  2  0
 19 20  1  0
 20 21  1  0
 21 22  1  0
 22 23  1  0
 23 24  1  0
 24 25  2  0
 25 26  1  0
 26 27  2  0
 27 28  1  0
 28 29  2  0
 29 30  1  0
 22 31  1  0
 31 32  2  0
  9 33  1  0
 33 34  1  0
 34  6  1  0
 19 14  1  0
 29 24  1  0
 31 18  1  0
  1 35  1  0
  1 36  1  0
  1 37  1  0
  2 38  1  0
  2 39  1  0
  7 40  1  0
  7 41  1  0
  8 42  1  0
  8 43  1  0
 12 44  1  0
 12 45  1  0
 15 46  1  0
 16 47  1  0
 17 48  1  0
 20 49  1  0
 20 50  1  0
 21 51  1  0
 21 52  1  0
 23 53  1  0
 23 54  1  0
 25 55  1  0
 26 56  1  0
 27 57  1  0
 28 58  1  0
 33 59  1  0
 33 60  1  0
 34 61  1  0
 34 62  1  0
M  END
$$$$
