
     RDKit          3D

 54 56  0  0  0  0  0  0  0  0999 V2000
    4.6388    2.2504    1.1206 C   0  0  0  0  0  0  0  0  0  0  0  0
    5.6305    1.5838    0.1787 C   0  0  0  0  0  0  0  0  0  0  0  0
    5.1830    0.4316   -0.5976 N   0  0  0  0  0  0  0  0  0  0  0  0
    4.8586   -0.7757    0.1765 C   0  0  0  0  0  0  0  0  0  0  0  0
    3.3848   -0.9520    0.6153 C   0  0  0  0  0  0  0  0  0  0  0  0
    2.4670   -0.7438   -0.5241 N   0  0  0  0  0  0  0  0  0  0  0  0
    1.1155   -0.9771   -0.1949 C   0  0  0  0  0  0  0  0  0  0  0  0
    0.7207   -2.2354    0.2147 C   0  0  0  0  0  0  0  0  0  0  0  0
   -0.6123   -2.4165    0.5105 C   0  0  0  0  0  0  0  0  0  0  0  0
   -1.1492   -4.0300    1.0637 S   0  0  0  0  0  0  0  0  0  0  0  0
   -2.9755   -3.8852    0.9377 C   0  0  0  0  0  0  0  0  0  0  0  0
   -3.4229   -3.9732   -0.5193 C   0  0  0  0  0  0  0  0  0  0  0  0
   -3.5990   -5.0177    1.7525 C   0  0  0  0  0  0  0  0  0  0  0  0
   -1.5171   -1.4332    0.4224 N   0  0  0  0  0  0  0  0  0  0  0  0
   -1.0656   -0.2444   -0.0037 C   0  0  0  0  0  0  0  0  0  0  0  0
   -2.0419    0.8572   -0.1345 C   0  0  0  0  0  0  0  0  0  0  0  0
   -1.6563    2.1355   -0.5815 C   0  0  0  0  0  0  0  0  0  0  0  0
   -2.5780    3.1855   -0.7082 C   0  0  0  0  0  0  0  0  0  0  0  0
   -3.9178    2.9829   -0.3891 C   0  0  0  0  0  0  0  0  0  0  0  0
   -4.9156    3.9137   -0.4660 O   0  0  0  0  0  0  0  0  0  0  0  0
   -4.5507    5.2105   -0.9212 C   0  0  0  0  0  0  0  0  0  0  0  0
   -4.3231    1.7254    0.0556 C   0  0  0  0  0  0  0  0  0  0  0  0
   -3.4010    0.6794    0.1809 C   0  0  0  0  0  0  0  0  0  0  0  0
    0.2171    0.0135   -0.3199 N   0  0  0  0  0  0  0  0  0  0  0  0
    2.6879    0.5559   -1.1909 C   0  0  0  0  0  0  0  0  0  0  0  0
    4.1644    0.7066   -1.6237 C   0  0  0  0  0  0  0  0  0  0  0  0
    5.1276    3.0865    1.6330 H   0  0  0  0  0  0  0  0  0  0  0  0
    4.2855    1.5646    1.8937 H   0  0  0  0  0  0  0  0  0  0  0  0
    3.7812    2.6626    0.5845 H   0  0  0  0  0  0  0  0  0  0  0  0
    6.5096    1.2848    0.7642 H   0  0  0  0  0  0  0  0  0  0  0  0
    6.0074    2.3451   -0.5165 H   0  0  0  0  0  0  0  0  0  0  0  0
    5.5140   -0.8642    1.0517 H   0  0  0  0  0  0  0  0  0  0  0  0
    5.1124   -1.6330   -0.4618 H   0  0  0  0  0  0  0  0  0  0  0  0
    3.2862   -1.9654    1.0217 H   0  0  0  0  0  0  0  0  0  0  0  0
    3.1417   -0.2527    1.4231 H   0  0  0  0  0  0  0  0  0  0  0  0
    1.4250   -3.0542    0.2750 H   0  0  0  0  0  0  0  0  0  0  0  0
   -3.3041   -2.9373    1.3763 H   0  0  0  0  0  0  0  0  0  0  0  0
   -3.0118   -3.1593   -1.1248 H   0  0  0  0  0  0  0  0  0  0  0  0
   -4.5145   -3.9036   -0.5854 H   0  0  0  0  0  0  0  0  0  0  0  0
   -3.1266   -4.9233   -0.9785 H   0  0  0  0  0  0  0  0  0  0  0  0
   -3.3149   -6.0042    1.3684 H   0  0  0  0  0  0  0  0  0  0  0  0
   -3.3045   -4.9597    2.8064 H   0  0  0  0  0  0  0  0  0  0  0  0
   -4.6924   -4.9540    1.7174 H   0  0  0  0  0  0  0  0  0  0  0  0
   -0.6155    2.3269   -0.8398 H   0  0  0  0  0  0  0  0  0  0  0  0
   -2.2103    4.1440   -1.0587 H   0  0  0  0  0  0  0  0  0  0  0  0
   -3.8318    5.6797   -0.2413 H   0  0  0  0  0  0  0  0  0  0  0  0
   -4.1629    5.1752   -1.9447 H   0  0  0  0  0  0  0  0  0  0  0  0
   -5.4537    5.8286   -0.9288 H   0  0  0  0  0  0  0  0  0  0  0  0
   -5.3666    1.5536    0.3083 H   0  0  0  0  0  0  0  0  0  0  0  0
   -3.7588   -0.2871    0.5319 H   0  0  0  0  0  0  0  0  0  0  0  0
    2.4088    1.3825   -0.5282 H   0  0  0  0  0  0  0  0  0  0  0  0
    2.0674    0.6246   -2.0938 H   0  0  0  0  0  0  0  0  0  0  0  0
    4.3415   -0.0064   -2.4403 H   0  0  0  0  0  0  0  0  0  0  0  0
    4.3177    1.6980   -2.0672 H   0  0  0  0  0  0  0  0  0  0  0  0
  1  2  1  0
  2  3  1  0
  3  4  1  0
  4  5  1  0
  5  6  1  0
  6  7  1  0
  7  8  2  0
  8  9  1  0
  9 10  1  0
 10 11  1  0
 11 12  1  0
 11 13  1  0
  9 14  2  0
 14 15  1  0
 15 16  1  0
 16 17  2  0
 17 18  1  0
 18 19  2  0
 19 20  1  0
 20 21  1  0
 19 22  1  0
 22 23  2  0
 15 24  2  0
  6 25  1  0
 25 26  1  0
 26  3  1  0
 24  7  1  0
 23 16  1  0
  1 27  1  0
  1 28  1  0
  1 29  1  0
  2 30  1  0
  2 31  1  0
  4 32  1  0
  4 33  1  0
  5 34  1  0
  5 35  1  0
  8 36  1  0
 11 37  1  0
 12 38  1  0
 12 39  1  0
 12 40  1  0
 13 41  1  0
 13 42  1  0
 13 43  1  0
 17 44  1  0
 18 45  1  0
 21 46  1  0
 21 47  1  0
 21 48  1  0
 22 49  1  0
 23 50  1  0
 25 51  1  0
 25 52  1  0
 26 53  1  0
 26 54  1  0
M  END
$$$$
