
     RDKit          3D

 36 38  0  0  0  0  0  0  0  0999 V2000
   -0.8951    0.0325    2.3494 C   0  0  0  0  0  0  0  0  0  0  0  0
   -1.6898   -0.4662    1.1550 C   0  0  0  0  0  0  0  0  0  0  0  0
   -1.3812   -0.1734   -0.0819 N   0  0  0  0  0  0  0  0  0  0  0  0
   -0.2476    0.5692   -0.2718 N   0  0  0  0  0  0  0  0  0  0  0  0
    0.9603   -0.1497   -0.5021 C   0  0  0  0  0  0  0  0  0  0  0  0
    1.0311   -1.4684   -0.1767 N   0  0  0  0  0  0  0  0  0  0  0  0
    2.1558   -2.1469   -0.4232 C   0  0  0  0  0  0  0  0  0  0  0  0
    3.2773   -1.6798   -0.9666 N   0  0  0  0  0  0  0  0  0  0  0  0
    3.1995   -0.3707   -1.2526 C   0  0  0  0  0  0  0  0  0  0  0  0
    4.5341    0.4190   -1.9437 S   0  0  0  0  0  0  0  0  0  0  0  0
    3.7237    1.9206   -1.9723 C   0  0  0  0  0  0  0  0  0  0  0  0
    4.4338    3.1223   -2.5085 C   0  0  0  0  0  0  0  0  0  0  0  0
    2.4393    1.8349   -1.4488 C   0  0  0  0  0  0  0  0  0  0  0  0
    1.5188    3.0078   -1.3072 C   0  0  0  0  0  0  0  0  0  0  0  0
    2.1135    0.4685   -1.0510 C   0  0  0  0  0  0  0  0  0  0  0  0
   -2.8771   -1.3416    1.4184 C   0  0  0  0  0  0  0  0  0  0  0  0
   -3.5728   -1.9108    0.3552 C   0  0  0  0  0  0  0  0  0  0  0  0
   -4.6712   -2.7202    0.6333 C   0  0  0  0  0  0  0  0  0  0  0  0
   -5.0395   -2.9357    1.9559 C   0  0  0  0  0  0  0  0  0  0  0  0
   -4.2907   -2.3307    2.9519 C   0  0  0  0  0  0  0  0  0  0  0  0
   -3.2213   -1.5402    2.7157 N   0  0  0  0  0  0  0  0  0  0  0  0
    0.0522   -0.5109    2.4065 H   0  0  0  0  0  0  0  0  0  0  0  0
   -0.6912    1.1020    2.2390 H   0  0  0  0  0  0  0  0  0  0  0  0
   -1.4215   -0.0978    3.2966 H   0  0  0  0  0  0  0  0  0  0  0  0
   -0.3432    1.2440   -1.0277 H   0  0  0  0  0  0  0  0  0  0  0  0
    2.1506   -3.1975   -0.1514 H   0  0  0  0  0  0  0  0  0  0  0  0
    5.3820    2.8671   -2.9930 H   0  0  0  0  0  0  0  0  0  0  0  0
    3.8110    3.6312   -3.2517 H   0  0  0  0  0  0  0  0  0  0  0  0
    4.6480    3.8256   -1.6971 H   0  0  0  0  0  0  0  0  0  0  0  0
    2.0422    3.9582   -1.4498 H   0  0  0  0  0  0  0  0  0  0  0  0
    1.0762    3.0339   -0.3065 H   0  0  0  0  0  0  0  0  0  0  0  0
    0.7180    2.9522   -2.0513 H   0  0  0  0  0  0  0  0  0  0  0  0
   -3.2658   -1.7360   -0.6709 H   0  0  0  0  0  0  0  0  0  0  0  0
   -5.2309   -3.1792   -0.1767 H   0  0  0  0  0  0  0  0  0  0  0  0
   -5.8890   -3.5620    2.2053 H   0  0  0  0  0  0  0  0  0  0  0  0
   -4.5394   -2.4711    4.0003 H   0  0  0  0  0  0  0  0  0  0  0  0
  1  2  1  0
  2  3  2  3
  3  4  1  0
  4  5  1  0
  5  6  2  0
  6  7  1  0
  7  8  2  0
  8  9  1  0
  9 10  1  0
 10 11  1  0
 11 12  1  0
 11 13  2  0
 13 14  1  0
 13 15  1  0
  2 16  1  0
 16 17  2  0
 17 18  1  0
 18 19  2  0
 19 20  1  0
 20 21  2  0
 15  5  1  0
 21 16  1  0
 15  9  2  0
  1 22  1  0
  1 23  1  0
  1 24  1  0
  4 25  1  0
  7 26  1  0
 12 27  1  0
 12 28  1  0
 12 29  1  0
 14 30  1  0
 14 31  1  0
 14 32  1  0
 17 33  1  0
 18 34  1  0
 19 35  1  0
 20 36  1  0
M  END
$$$$
