
     RDKit          3D

 43 45  0  0  0  0  0  0  0  0999 V2000
   -5.3119   -2.3839   -0.8380 C   0  0  0  0  0  0  0  0  0  0  0  0
   -4.9184   -1.1786   -0.1146 N   0  0  0  0  0  0  0  0  0  0  0  0
   -4.0719   -1.4870    1.0594 C   0  0  0  0  0  0  0  0  0  0  0  0
   -2.5604   -1.2453    0.8485 C   0  0  0  0  0  0  0  0  0  0  0  0
   -2.2972    0.1717    0.4948 N   0  0  0  0  0  0  0  0  0  0  0  0
   -0.9801    0.4008    0.0809 C   0  0  0  0  0  0  0  0  0  0  0  0
   -0.5759    0.1913   -1.2460 C   0  0  0  0  0  0  0  0  0  0  0  0
    0.7500    0.4081   -1.6463 C   0  0  0  0  0  0  0  0  0  0  0  0
    1.7151    0.8302   -0.7236 C   0  0  0  0  0  0  0  0  0  0  0  0
    3.1003    1.0620   -1.2060 C   0  0  0  0  0  0  0  0  0  0  0  0
    3.2722    1.4515   -2.3576 O   0  0  0  0  0  0  0  0  0  0  0  0
    4.2803    0.8385   -0.3340 C   0  0  0  0  0  0  0  0  0  0  0  0
    5.3819    1.6920   -0.4740 C   0  0  0  0  0  0  0  0  0  0  0  0
    6.5163    1.5084    0.3198 C   0  0  0  0  0  0  0  0  0  0  0  0
    6.5515    0.4637    1.2423 C   0  0  0  0  0  0  0  0  0  0  0  0
    8.0865    0.2125    2.3161 Br  0  0  0  0  0  0  0  0  0  0  0  0
    5.4669   -0.4040    1.3731 C   0  0  0  0  0  0  0  0  0  0  0  0
    4.3308   -0.2223    0.5793 C   0  0  0  0  0  0  0  0  0  0  0  0
    1.3448    1.0664    0.5993 C   0  0  0  0  0  0  0  0  0  0  0  0
    0.0129    0.8379    0.9753 C   0  0  0  0  0  0  0  0  0  0  0  0
   -0.3292    1.0910    2.3570 N   0  0  0  0  0  4  0  0  0  0  0  0
   -0.5962    2.2601    2.6671 O   0  0  0  0  0  0  0  0  0  0  0  0
   -0.2408    0.1326    3.1387 O   0  0  0  0  0  1  0  0  0  0  0  0
   -3.3750    0.8208   -0.2928 C   0  0  0  0  0  0  0  0  0  0  0  0
   -4.2636   -0.2116   -1.0222 C   0  0  0  0  0  0  0  0  0  0  0  0
   -5.9587   -2.1308   -1.6854 H   0  0  0  0  0  0  0  0  0  0  0  0
   -5.8918   -3.0492   -0.1888 H   0  0  0  0  0  0  0  0  0  0  0  0
   -4.4465   -2.9396   -1.2166 H   0  0  0  0  0  0  0  0  0  0  0  0
   -4.2348   -2.5141    1.4087 H   0  0  0  0  0  0  0  0  0  0  0  0
   -4.4105   -0.8379    1.8775 H   0  0  0  0  0  0  0  0  0  0  0  0
   -2.1950   -1.9188    0.0617 H   0  0  0  0  0  0  0  0  0  0  0  0
   -2.0297   -1.4968    1.7736 H   0  0  0  0  0  0  0  0  0  0  0  0
   -1.2890   -0.1521   -1.9913 H   0  0  0  0  0  0  0  0  0  0  0  0
    1.0271    0.2449   -2.6875 H   0  0  0  0  0  0  0  0  0  0  0  0
    5.3589    2.5008   -1.2024 H   0  0  0  0  0  0  0  0  0  0  0  0
    7.3642    2.1794    0.2064 H   0  0  0  0  0  0  0  0  0  0  0  0
    5.5011   -1.2281    2.0820 H   0  0  0  0  0  0  0  0  0  0  0  0
    3.5081   -0.9264    0.6728 H   0  0  0  0  0  0  0  0  0  0  0  0
    2.0578    1.4393    1.3302 H   0  0  0  0  0  0  0  0  0  0  0  0
   -2.9766    1.5449   -1.0143 H   0  0  0  0  0  0  0  0  0  0  0  0
   -3.9946    1.3972    0.4058 H   0  0  0  0  0  0  0  0  0  0  0  0
   -3.6397   -0.7400   -1.7552 H   0  0  0  0  0  0  0  0  0  0  0  0
   -5.0395    0.3204   -1.5846 H   0  0  0  0  0  0  0  0  0  0  0  0
  1  2  1  0
  2  3  1  0
  3  4  1  0
  4  5  1  0
  5  6  1  0
  6  7  2  0
  7  8  1  0
  8  9  2  0
  9 10  1  0
 10 11  2  0
 10 12  1  0
 12 13  2  0
 13 14  1  0
 14 15  2  0
 15 16  1  0
 15 17  1  0
 17 18  2  0
  9 19  1  0
 19 20  2  0
 20 21  1  0
 21 22  2  0
 21 23  1  0
  5 24  1  0
 24 25  1  0
 25  2  1  0
 20  6  1  0
 18 12  1  0
  1 26  1  0
  1 27  1  0
  1 28  1  0
  3 29  1  0
  3 30  1  0
  4 31  1  0
  4 32  1  0
  7 33  1  0
  8 34  1  0
 13 35  1  0
 14 36  1  0
 17 37  1  0
 18 38  1  0
 19 39  1  0
 24 40  1  0
 24 41  1  0
 25 42  1  0
 25 43  1  0
M  CHG  2  21   1  23  -1
M  END
$$$$
