
     RDKit          3D

 44 46  0  0  0  0  0  0  0  0999 V2000
    8.4470   -0.9586   -1.1153 C   0  0  0  0  0  0  0  0  0  0  0  0
    6.9502   -0.8642   -1.0697 C   0  0  0  0  0  0  0  0  0  0  0  0
    6.2922    0.2359   -1.6331 C   0  0  0  0  0  0  0  0  0  0  0  0
    4.8961    0.3128   -1.6183 C   0  0  0  0  0  0  0  0  0  0  0  0
    4.1402   -0.7193   -1.0489 C   0  0  0  0  0  0  0  0  0  0  0  0
    2.6534   -0.6902   -1.0066 C   0  0  0  0  0  0  0  0  0  0  0  0
    1.9756   -1.5281   -0.4318 O   0  0  0  0  0  0  0  0  0  0  0  0
    2.1725    0.3644   -1.7117 O   0  0  0  0  0  0  0  0  0  0  0  0
    0.7562    0.5078   -1.6381 C   0  0  0  0  0  0  0  0  0  0  0  0
    0.2819    1.0790   -0.2986 C   0  0  0  0  0  0  0  0  0  0  0  0
    1.0056    1.7379    0.4439 O   0  0  0  0  0  0  0  0  0  0  0  0
   -1.0380    0.8015   -0.0060 N   0  0  0  0  0  0  0  0  0  0  0  0
   -1.6829    1.3705    1.1665 C   0  0  0  0  0  0  0  0  0  0  0  0
   -2.9460    0.5965    1.5493 C   0  0  0  0  0  0  0  0  0  0  0  0
   -3.5631    1.1708    2.8210 C   0  0  0  0  0  0  0  0  0  0  0  0
   -4.7051    0.4032    3.2203 O   0  0  0  0  0  0  0  0  0  0  0  0
   -5.5292    0.1404    2.1567 C   0  0  0  0  0  0  0  0  0  0  0  0
   -6.8132   -0.3111    2.4563 C   0  0  0  0  0  0  0  0  0  0  0  0
   -7.7151   -0.5772    1.4248 C   0  0  0  0  0  0  0  0  0  0  0  0
   -7.3309   -0.3937    0.0955 C   0  0  0  0  0  0  0  0  0  0  0  0
   -6.0404    0.0452   -0.2053 C   0  0  0  0  0  0  0  0  0  0  0  0
   -5.1354    0.2971    0.8243 C   0  0  0  0  0  0  0  0  0  0  0  0
   -3.8791    0.7037    0.4550 O   0  0  0  0  0  0  0  0  0  0  0  0
    4.7967   -1.8250   -0.4941 C   0  0  0  0  0  0  0  0  0  0  0  0
    6.1920   -1.8995   -0.5107 C   0  0  0  0  0  0  0  0  0  0  0  0
    8.8291   -1.5215   -0.2572 H   0  0  0  0  0  0  0  0  0  0  0  0
    8.7622   -1.4590   -2.0360 H   0  0  0  0  0  0  0  0  0  0  0  0
    8.9025    0.0366   -1.0791 H   0  0  0  0  0  0  0  0  0  0  0  0
    6.8632    1.0450   -2.0842 H   0  0  0  0  0  0  0  0  0  0  0  0
    4.4140    1.1862   -2.0502 H   0  0  0  0  0  0  0  0  0  0  0  0
    0.2565   -0.4434   -1.8576 H   0  0  0  0  0  0  0  0  0  0  0  0
    0.4601    1.2187   -2.4171 H   0  0  0  0  0  0  0  0  0  0  0  0
   -1.6429    0.4558   -0.7425 H   0  0  0  0  0  0  0  0  0  0  0  0
   -0.9669    1.3796    1.9957 H   0  0  0  0  0  0  0  0  0  0  0  0
   -1.9263    2.4084    0.9106 H   0  0  0  0  0  0  0  0  0  0  0  0
   -2.7068   -0.4680    1.6802 H   0  0  0  0  0  0  0  0  0  0  0  0
   -2.8453    1.1396    3.6474 H   0  0  0  0  0  0  0  0  0  0  0  0
   -3.8785    2.2134    2.6854 H   0  0  0  0  0  0  0  0  0  0  0  0
   -7.1138   -0.4452    3.4917 H   0  0  0  0  0  0  0  0  0  0  0  0
   -8.7188   -0.9235    1.6584 H   0  0  0  0  0  0  0  0  0  0  0  0
   -8.0359   -0.5970   -0.7067 H   0  0  0  0  0  0  0  0  0  0  0  0
   -5.7397    0.1800   -1.2402 H   0  0  0  0  0  0  0  0  0  0  0  0
    4.2239   -2.6353   -0.0470 H   0  0  0  0  0  0  0  0  0  0  0  0
    6.6822   -2.7703   -0.0805 H   0  0  0  0  0  0  0  0  0  0  0  0
  1  2  1  0
  2  3  2  0
  3  4  1  0
  4  5  2  0
  5  6  1  0
  6  7  2  0
  6  8  1  0
  8  9  1  0
  9 10  1  0
 10 11  2  0
 10 12  1  0
 12 13  1  0
 13 14  1  0
 14 15  1  0
 15 16  1  0
 16 17  1  0
 17 18  2  0
 18 19  1  0
 19 20  2  0
 20 21  1  0
 21 22  2  0
 22 23  1  0
  5 24  1  0
 24 25  2  0
 25  2  1  0
 23 14  1  0
 22 17  1  0
  1 26  1  0
  1 27  1  0
  1 28  1  0
  3 29  1  0
  4 30  1  0
  9 31  1  0
  9 32  1  0
 12 33  1  0
 13 34  1  0
 13 35  1  0
 14 36  1  0
 15 37  1  0
 15 38  1  0
 18 39  1  0
 19 40  1  0
 20 41  1  0
 21 42  1  0
 24 43  1  0
 25 44  1  0
M  END
$$$$
