
     RDKit          3D

 49 52  0  0  0  0  0  0  0  0999 V2000
   -1.3714    5.3972    1.5587 C   0  0  0  0  0  0  0  0  0  0  0  0
   -1.2103    4.0800    0.8599 C   0  0  0  0  0  0  0  0  0  0  0  0
   -0.9018    2.9259    1.5868 C   0  0  0  0  0  0  0  0  0  0  0  0
   -0.7801    1.6927    0.9419 C   0  0  0  0  0  0  0  0  0  0  0  0
   -0.9670    1.5853   -0.4445 C   0  0  0  0  0  0  0  0  0  0  0  0
   -0.8689    0.2533   -1.1729 C   0  0  0  0  0  0  0  0  0  0  0  0
   -2.1788   -0.5287   -1.0586 C   0  0  0  0  0  0  0  0  0  0  0  0
   -1.7377   -1.6751   -0.1916 C   0  0  0  0  0  0  0  0  0  0  0  0
   -2.7016   -2.6668    0.3410 C   0  0  0  0  0  0  0  0  0  0  0  0
   -4.0625   -2.6112    0.0194 C   0  0  0  0  0  0  0  0  0  0  0  0
   -4.9438   -3.5628    0.5400 C   0  0  0  0  0  0  0  0  0  0  0  0
   -4.4712   -4.5706    1.3798 C   0  0  0  0  0  0  0  0  0  0  0  0
   -3.1166   -4.6314    1.7017 C   0  0  0  0  0  0  0  0  0  0  0  0
   -2.2331   -3.6826    1.1838 C   0  0  0  0  0  0  0  0  0  0  0  0
   -0.4589   -1.7421    0.0241 N   0  0  0  0  0  0  0  0  0  0  0  0
    0.1131   -0.6631   -0.5879 N   0  0  0  0  0  0  0  0  0  0  0  0
    1.4980   -0.5679   -0.7171 C   0  0  0  0  0  0  0  0  0  0  0  0
    2.3392   -1.5588   -0.1754 C   0  0  0  0  0  0  0  0  0  0  0  0
    3.7326   -1.4928   -0.2849 C   0  0  0  0  0  0  0  0  0  0  0  0
    4.3153   -0.4103   -0.9382 C   0  0  0  0  0  0  0  0  0  0  0  0
    6.0712   -0.3279   -1.1078 S   0  0  0  0  0  6  0  0  0  0  0  0
    6.5193    0.4873    0.2897 N   0  0  0  0  0  0  0  0  0  0  0  0
    6.4051    0.5537   -2.2026 O   0  0  0  0  0  0  0  0  0  0  0  0
    6.6281   -1.6552   -0.9880 O   0  0  0  0  0  0  0  0  0  0  0  0
    3.5163    0.5857   -1.4962 C   0  0  0  0  0  0  0  0  0  0  0  0
    2.1227    0.5028   -1.3791 C   0  0  0  0  0  0  0  0  0  0  0  0
   -1.2988    2.7439   -1.1649 C   0  0  0  0  0  0  0  0  0  0  0  0
   -1.4212    3.9769   -0.5188 C   0  0  0  0  0  0  0  0  0  0  0  0
   -1.1018    6.2264    0.8962 H   0  0  0  0  0  0  0  0  0  0  0  0
   -0.7177    5.4569    2.4353 H   0  0  0  0  0  0  0  0  0  0  0  0
   -2.4092    5.5250    1.8815 H   0  0  0  0  0  0  0  0  0  0  0  0
   -0.7495    2.9767    2.6627 H   0  0  0  0  0  0  0  0  0  0  0  0
   -0.5296    0.8116    1.5315 H   0  0  0  0  0  0  0  0  0  0  0  0
   -0.6430    0.4249   -2.2333 H   0  0  0  0  0  0  0  0  0  0  0  0
   -2.4871   -0.9220   -2.0332 H   0  0  0  0  0  0  0  0  0  0  0  0
   -2.9998    0.0347   -0.6067 H   0  0  0  0  0  0  0  0  0  0  0  0
   -4.4614   -1.8417   -0.6342 H   0  0  0  0  0  0  0  0  0  0  0  0
   -6.0011   -3.5190    0.2897 H   0  0  0  0  0  0  0  0  0  0  0  0
   -5.1586   -5.3101    1.7833 H   0  0  0  0  0  0  0  0  0  0  0  0
   -2.7456   -5.4169    2.3553 H   0  0  0  0  0  0  0  0  0  0  0  0
   -1.1776   -3.7409    1.4423 H   0  0  0  0  0  0  0  0  0  0  0  0
    1.8992   -2.4083    0.3437 H   0  0  0  0  0  0  0  0  0  0  0  0
    4.3420   -2.2855    0.1416 H   0  0  0  0  0  0  0  0  0  0  0  0
    6.9550    1.3770    0.0478 H   0  0  0  0  0  0  0  0  0  0  0  0
    7.0998   -0.1164    0.8717 H   0  0  0  0  0  0  0  0  0  0  0  0
    3.9609    1.4294   -2.0188 H   0  0  0  0  0  0  0  0  0  0  0  0
    1.5353    1.3053   -1.8154 H   0  0  0  0  0  0  0  0  0  0  0  0
   -1.4659    2.6968   -2.2389 H   0  0  0  0  0  0  0  0  0  0  0  0
   -1.6815    4.8588   -1.1001 H   0  0  0  0  0  0  0  0  0  0  0  0
  1  2  1  0
  2  3  2  0
  3  4  1  0
  4  5  2  0
  5  6  1  0
  6  7  1  0
  7  8  1  0
  8  9  1  0
  9 10  2  0
 10 11  1  0
 11 12  2  0
 12 13  1  0
 13 14  2  0
  8 15  2  0
 15 16  1  0
 16 17  1  0
 17 18  2  0
 18 19  1  0
 19 20  2  0
 20 21  1  0
 21 22  1  0
 21 23  2  0
 21 24  2  0
 20 25  1  0
 25 26  2  0
  5 27  1  0
 27 28  2  0
 28  2  1  0
 16  6  1  0
 26 17  1  0
 14  9  1  0
  1 29  1  0
  1 30  1  0
  1 31  1  0
  3 32  1  0
  4 33  1  0
  6 34  1  0
  7 35  1  0
  7 36  1  0
 10 37  1  0
 11 38  1  0
 12 39  1  0
 13 40  1  0
 14 41  1  0
 18 42  1  0
 19 43  1  0
 22 44  1  0
 22 45  1  0
 25 46  1  0
 26 47  1  0
 27 48  1  0
 28 49  1  0
M  END
$$$$
