
     RDKit          3D

 37 38  0  0  0  0  0  0  0  0999 V2000
    0.8788   -1.2082    3.0051 C   0  0  0  0  0  0  0  0  0  0  0  0
    0.7288   -0.6395    1.6889 N   0  0  0  0  0  0  0  0  0  0  0  0
    1.4931   -1.0959    0.6540 C   0  0  0  0  0  0  0  0  0  0  0  0
    2.3976   -1.9201    0.7947 O   0  0  0  0  0  0  0  0  0  0  0  0
    1.2171   -0.5720   -0.5865 N   0  0  0  0  0  0  0  0  0  0  0  0
    2.1243   -1.0154   -1.5943 O   0  0  0  0  0  0  0  0  0  0  0  0
    0.5414    0.6752   -0.9851 C   0  0  0  0  0  0  0  0  0  0  0  0
   -0.8446    0.8444   -0.5166 N   0  0  0  0  0  0  0  0  0  0  0  0
   -1.7515   -0.2693   -0.5145 C   0  0  0  0  0  0  0  0  0  0  0  0
   -1.5961   -1.3447   -1.4010 C   0  0  0  0  0  0  0  0  0  0  0  0
   -2.4556   -2.4469   -1.3525 C   0  0  0  0  0  0  0  0  0  0  0  0
   -3.4771   -2.4967   -0.4096 C   0  0  0  0  0  0  0  0  0  0  0  0
   -3.6368   -1.4469    0.4886 C   0  0  0  0  0  0  0  0  0  0  0  0
   -2.7771   -0.3455    0.4396 C   0  0  0  0  0  0  0  0  0  0  0  0
   -1.2790    2.1819   -0.5846 C   0  0  0  0  0  0  0  0  0  0  0  0
   -2.8158    2.8307   -0.4754 S   0  0  0  0  0  0  0  0  0  0  0  0
    0.0874    3.2580   -0.9075 S   0  0  0  0  0  0  0  0  0  0  0  0
    1.3461    1.9615   -0.6633 C   0  0  0  0  0  0  0  0  0  0  0  0
    1.8620    2.1087    0.7709 C   0  0  0  0  0  0  0  0  0  0  0  0
    2.4944    2.1889   -1.6517 C   0  0  0  0  0  0  0  0  0  0  0  0
    0.4795   -2.2260    2.9989 H   0  0  0  0  0  0  0  0  0  0  0  0
    1.9356   -1.2327    3.2845 H   0  0  0  0  0  0  0  0  0  0  0  0
    0.3192   -0.5936    3.7139 H   0  0  0  0  0  0  0  0  0  0  0  0
   -0.2028   -0.3431    1.4361 H   0  0  0  0  0  0  0  0  0  0  0  0
    2.6901   -1.6454   -1.0913 H   0  0  0  0  0  0  0  0  0  0  0  0
    0.4476    0.6134   -2.0815 H   0  0  0  0  0  0  0  0  0  0  0  0
   -0.8241   -1.3460   -2.1662 H   0  0  0  0  0  0  0  0  0  0  0  0
   -2.3258   -3.2657   -2.0563 H   0  0  0  0  0  0  0  0  0  0  0  0
   -4.1460   -3.3529   -0.3739 H   0  0  0  0  0  0  0  0  0  0  0  0
   -4.4284   -1.4840    1.2330 H   0  0  0  0  0  0  0  0  0  0  0  0
   -2.9111    0.4335    1.1861 H   0  0  0  0  0  0  0  0  0  0  0  0
    1.0679    1.9907    1.5158 H   0  0  0  0  0  0  0  0  0  0  0  0
    2.3147    3.0952    0.9336 H   0  0  0  0  0  0  0  0  0  0  0  0
    2.6457    1.3751    0.9870 H   0  0  0  0  0  0  0  0  0  0  0  0
    2.9672    3.1674   -1.5054 H   0  0  0  0  0  0  0  0  0  0  0  0
    3.2761    1.4326   -1.5203 H   0  0  0  0  0  0  0  0  0  0  0  0
    2.1572    2.1333   -2.6933 H   0  0  0  0  0  0  0  0  0  0  0  0
  1  2  1  0
  2  3  1  0
  3  4  2  0
  3  5  1  0
  5  6  1  0
  5  7  1  0
  7  8  1  0
  8  9  1  0
  9 10  2  0
 10 11  1  0
 11 12  2  0
 12 13  1  0
 13 14  2  0
  8 15  1  0
 15 16  2  0
 15 17  1  0
 17 18  1  0
 18 19  1  0
 18 20  1  0
 18  7  1  0
 14  9  1  0
  1 21  1  0
  1 22  1  0
  1 23  1  0
  2 24  1  0
  6 25  1  0
  7 26  1  0
 10 27  1  0
 11 28  1  0
 12 29  1  0
 13 30  1  0
 14 31  1  0
 19 32  1  0
 19 33  1  0
 19 34  1  0
 20 35  1  0
 20 36  1  0
 20 37  1  0
M  END
$$$$
