
     RDKit          3D

 37 40  0  0  0  0  0  0  0  0999 V2000
    2.5908    3.8873    0.2045 O   0  0  0  0  0  0  0  0  0  0  0  0
    3.0221    2.7525    0.2215 C   0  0  0  0  0  0  0  0  0  0  0  0
    4.3221    2.3619    0.2585 O   0  0  0  0  0  0  0  0  0  0  0  0
    4.3033    1.0046    0.2642 C   0  0  0  0  0  0  0  0  0  0  0  0
    5.5853    0.3751    0.3017 C   0  0  0  0  0  0  0  0  0  0  0  0
    5.9463   -0.9596    0.3176 C   0  0  0  0  0  0  0  0  0  0  0  0
    7.3609   -1.0002    0.3560 C   0  0  0  0  0  0  0  0  0  0  0  0
    7.7797    0.3087    0.3613 C   0  0  0  0  0  0  0  0  0  0  0  0
    6.7141    1.1489    0.3287 O   0  0  0  0  0  0  0  0  0  0  0  0
    3.1542    0.4087    0.2359 N   0  0  0  0  0  0  0  0  0  0  0  0
    2.2783    1.4625    0.2074 C   0  0  0  0  0  0  0  0  0  0  0  0
    0.9411    1.4553    0.1714 C   0  0  0  0  0  0  0  0  0  0  0  0
    0.1294    0.2876    0.1548 C   0  0  0  0  0  0  0  0  0  0  0  0
    0.4362   -1.0676    0.1696 C   0  0  0  0  0  0  0  0  0  0  0  0
   -0.7776   -1.7966    0.1400 C   0  0  0  0  0  0  0  0  0  0  0  0
   -1.7907   -0.8654    0.1081 C   0  0  0  0  0  0  0  0  0  0  0  0
   -3.2500   -0.9370    0.0686 C   0  0  0  0  0  0  0  0  0  0  0  0
   -3.9037   -2.1775    0.0516 C   0  0  0  0  0  0  0  0  0  0  0  0
   -5.2983   -2.2554    0.0095 C   0  0  0  0  0  0  0  0  0  0  0  0
   -6.0632   -1.0911   -0.0138 C   0  0  0  0  0  0  0  0  0  0  0  0
   -5.4412    0.1640    0.0115 C   0  0  0  0  0  0  0  0  0  0  0  0
   -6.2575    1.4314   -0.0362 C   0  0  0  0  0  0  0  0  0  0  0  0
   -6.4000    1.9082   -1.3035 F   0  0  0  0  0  0  0  0  0  0  0  0
   -7.5224    1.2726    0.4464 F   0  0  0  0  0  0  0  0  0  0  0  0
   -5.7113    2.4475    0.6879 F   0  0  0  0  0  0  0  0  0  0  0  0
   -4.0363    0.2266    0.0451 C   0  0  0  0  0  0  0  0  0  0  0  0
   -1.2459    0.3844    0.1168 O   0  0  0  0  0  0  0  0  0  0  0  0
    5.2627   -1.7980    0.3030 H   0  0  0  0  0  0  0  0  0  0  0  0
    7.9973   -1.8740    0.3772 H   0  0  0  0  0  0  0  0  0  0  0  0
    8.7503    0.7854    0.3853 H   0  0  0  0  0  0  0  0  0  0  0  0
    0.4063    2.4027    0.1527 H   0  0  0  0  0  0  0  0  0  0  0  0
    1.4310   -1.4900    0.1988 H   0  0  0  0  0  0  0  0  0  0  0  0
   -0.8886   -2.8711    0.1422 H   0  0  0  0  0  0  0  0  0  0  0  0
   -3.3351   -3.1042    0.0684 H   0  0  0  0  0  0  0  0  0  0  0  0
   -5.7864   -3.2272   -0.0067 H   0  0  0  0  0  0  0  0  0  0  0  0
   -7.1493   -1.1657   -0.0504 H   0  0  0  0  0  0  0  0  0  0  0  0
   -3.5536    1.2044    0.0543 H   0  0  0  0  0  0  0  0  0  0  0  0
  1  2  2  0
  2  3  1  0
  3  4  1  0
  4  5  1  0
  5  6  2  0
  6  7  1  0
  7  8  2  0
  8  9  1  0
  4 10  2  0
 10 11  1  0
 11 12  2  3
 12 13  1  0
 13 14  2  0
 14 15  1  0
 15 16  2  0
 16 17  1  0
 17 18  2  0
 18 19  1  0
 19 20  2  0
 20 21  1  0
 21 22  1  0
 22 23  1  0
 22 24  1  0
 22 25  1  0
 21 26  2  0
 16 27  1  0
 11  2  1  0
 27 13  1  0
  9  5  1  0
 26 17  1  0
  6 28  1  0
  7 29  1  0
  8 30  1  0
 12 31  1  0
 14 32  1  0
 15 33  1  0
 18 34  1  0
 19 35  1  0
 20 36  1  0
 26 37  1  0
M  END
$$$$
