
     RDKit          3D

 50 53  0  0  0  0  0  0  0  0999 V2000
    1.1576    4.0458    0.8963 C   0  0  0  0  0  0  0  0  0  0  0  0
    0.7890    3.2733   -0.3614 C   0  0  0  0  0  0  0  0  0  0  0  0
    0.5116    1.8183   -0.0671 C   0  0  0  0  0  0  0  0  0  0  0  0
    1.5457    0.8770   -0.1935 C   0  0  0  0  0  0  0  0  0  0  0  0
    1.3310   -0.4766    0.0920 C   0  0  0  0  0  0  0  0  0  0  0  0
    2.4028   -1.4785   -0.0280 C   0  0  0  0  0  0  0  0  0  0  0  0
    3.7873   -1.2134   -0.4640 C   0  0  0  0  0  0  0  0  0  0  0  0
    4.1242   -1.2801   -1.8218 C   0  0  0  0  0  0  0  0  0  0  0  0
    5.4341   -1.0282   -2.2328 C   0  0  0  0  0  0  0  0  0  0  0  0
    6.4121   -0.7093   -1.2912 C   0  0  0  0  0  0  0  0  0  0  0  0
    6.0831   -0.6411    0.0622 C   0  0  0  0  0  0  0  0  0  0  0  0
    4.7742   -0.8926    0.4767 C   0  0  0  0  0  0  0  0  0  0  0  0
    2.1184   -2.7530    0.2810 C   0  0  0  0  0  0  0  0  0  0  0  0
    0.7944   -3.1945    0.7332 C   0  0  0  0  0  0  0  0  0  0  0  0
    0.5818   -4.3696    1.0075 O   0  0  0  0  0  0  0  0  0  0  0  0
   -0.1883   -2.2258    0.8319 O   0  0  0  0  0  0  0  0  0  0  0  0
    0.0578   -0.8717    0.5121 C   0  0  0  0  0  0  0  0  0  0  0  0
   -1.0112    0.0314    0.6449 C   0  0  0  0  0  0  0  0  0  0  0  0
   -2.3534   -0.4336    1.1776 C   0  0  0  0  0  0  0  0  0  0  0  0
   -3.5079    0.2282    0.5237 N   0  0  0  0  0  0  0  0  0  0  0  0
   -4.7652   -0.0412    1.2654 C   0  0  0  0  0  0  0  0  0  0  0  0
   -5.6015   -1.1859    0.6733 C   0  0  0  0  0  0  0  0  0  0  0  0
   -6.0012   -0.9421   -0.6813 O   0  0  0  0  0  0  0  0  0  0  0  0
   -5.0843   -0.1055   -1.3993 C   0  0  0  0  0  0  0  0  0  0  0  0
   -3.6425   -0.2346   -0.8863 C   0  0  0  0  0  0  0  0  0  0  0  0
   -0.7514    1.3820    0.3566 C   0  0  0  0  0  0  0  0  0  0  0  0
   -1.7412    2.3235    0.4760 O   0  0  0  0  0  0  0  0  0  0  0  0
    2.0516    3.6269    1.3707 H   0  0  0  0  0  0  0  0  0  0  0  0
    0.3463    4.0237    1.6314 H   0  0  0  0  0  0  0  0  0  0  0  0
    1.3631    5.0924    0.6504 H   0  0  0  0  0  0  0  0  0  0  0  0
   -0.0814    3.7331   -0.8443 H   0  0  0  0  0  0  0  0  0  0  0  0
    1.6055    3.3528   -1.0899 H   0  0  0  0  0  0  0  0  0  0  0  0
    2.5282    1.2194   -0.5142 H   0  0  0  0  0  0  0  0  0  0  0  0
    3.3697   -1.5251   -2.5660 H   0  0  0  0  0  0  0  0  0  0  0  0
    5.6920   -1.0801   -3.2876 H   0  0  0  0  0  0  0  0  0  0  0  0
    7.4320   -0.5132   -1.6127 H   0  0  0  0  0  0  0  0  0  0  0  0
    6.8464   -0.3915    0.7949 H   0  0  0  0  0  0  0  0  0  0  0  0
    4.5292   -0.8332    1.5348 H   0  0  0  0  0  0  0  0  0  0  0  0
    2.8582   -3.5444    0.2161 H   0  0  0  0  0  0  0  0  0  0  0  0
   -2.4656   -1.5221    1.1095 H   0  0  0  0  0  0  0  0  0  0  0  0
   -2.3480   -0.1830    2.2469 H   0  0  0  0  0  0  0  0  0  0  0  0
   -5.3609    0.8792    1.2150 H   0  0  0  0  0  0  0  0  0  0  0  0
   -4.5769   -0.2221    2.3301 H   0  0  0  0  0  0  0  0  0  0  0  0
   -6.5136   -1.3278    1.2618 H   0  0  0  0  0  0  0  0  0  0  0  0
   -5.0457   -2.1303    0.7026 H   0  0  0  0  0  0  0  0  0  0  0  0
   -5.1361   -0.3938   -2.4542 H   0  0  0  0  0  0  0  0  0  0  0  0
   -5.4344    0.9310   -1.3279 H   0  0  0  0  0  0  0  0  0  0  0  0
   -2.9780    0.3570   -1.5251 H   0  0  0  0  0  0  0  0  0  0  0  0
   -3.3469   -1.2883   -0.9762 H   0  0  0  0  0  0  0  0  0  0  0  0
   -2.5918    1.8372    0.5502 H   0  0  0  0  0  0  0  0  0  0  0  0
  1  2  1  0
  2  3  1  0
  3  4  2  0
  4  5  1  0
  5  6  1  0
  6  7  1  0
  7  8  2  0
  8  9  1  0
  9 10  2  0
 10 11  1  0
 11 12  2  0
  6 13  2  0
 13 14  1  0
 14 15  2  0
 14 16  1  0
 16 17  1  0
 17 18  1  0
 18 19  1  0
 19 20  1  0
 20 21  1  0
 21 22  1  0
 22 23  1  0
 23 24  1  0
 24 25  1  0
 18 26  2  0
 26 27  1  0
 26  3  1  0
 17  5  2  0
 25 20  1  0
 12  7  1  0
  1 28  1  0
  1 29  1  0
  1 30  1  0
  2 31  1  0
  2 32  1  0
  4 33  1  0
  8 34  1  0
  9 35  1  0
 10 36  1  0
 11 37  1  0
 12 38  1  0
 13 39  1  0
 19 40  1  0
 19 41  1  0
 21 42  1  0
 21 43  1  0
 22 44  1  0
 22 45  1  0
 24 46  1  0
 24 47  1  0
 25 48  1  0
 25 49  1  0
 27 50  1  0
M  END
$$$$
