
     RDKit          3D

 65 68  0  0  0  0  0  0  0  0999 V2000
   -7.9020   -3.4953    3.9394 C   0  0  0  0  0  0  0  0  0  0  0  0
   -7.0337   -2.3876    3.4227 C   0  0  0  0  0  0  0  0  0  0  0  0
   -5.8721   -2.0105    4.1056 C   0  0  0  0  0  0  0  0  0  0  0  0
   -5.0548   -0.9940    3.6056 C   0  0  0  0  0  0  0  0  0  0  0  0
   -5.3825   -0.3409    2.4109 C   0  0  0  0  0  0  0  0  0  0  0  0
   -4.4889    0.7429    1.8587 C   0  0  0  0  0  0  0  0  0  0  0  0
   -3.6326    0.2343    0.6941 C   0  0  0  0  0  0  0  0  0  0  0  0
   -2.6351    1.1992    0.2678 N   0  0  0  0  0  0  0  0  0  0  0  0
   -2.9855    2.3360   -0.4237 C   0  0  0  0  0  0  0  0  0  0  0  0
   -4.1443    2.6544   -0.6732 O   0  0  0  0  0  0  0  0  0  0  0  0
   -1.8100    3.1841   -0.8666 C   0  0  0  0  0  0  0  0  0  0  0  0
   -1.6537    3.1802   -2.3855 C   0  0  0  0  0  0  0  0  0  0  0  0
   -1.1720    1.8473   -2.9648 C   0  0  0  0  0  0  0  0  0  0  0  0
    0.2330    1.5736   -2.6708 N   0  0  0  0  0  0  0  0  0  0  0  0
    1.1556    2.2041   -3.5152 N   0  0  0  0  0  0  0  0  0  0  0  0
    2.4394    2.0316   -3.3637 C   0  0  0  0  0  0  0  0  0  0  0  0
    3.3728    2.7381   -4.3051 C   0  0  0  0  0  0  0  0  0  0  0  0
    2.9179    1.1782   -2.3036 C   0  0  0  0  0  0  0  0  0  0  0  0
    4.1736    0.8184   -1.8433 C   0  0  0  0  0  0  0  0  0  0  0  0
    5.5149    1.3267   -2.2320 C   0  0  0  0  0  0  0  0  0  0  0  0
    3.9418   -0.1295   -0.8384 N   0  0  0  0  0  0  0  0  0  0  0  0
    4.8430   -1.0154   -0.1721 C   0  0  0  0  0  0  0  0  0  0  0  0
    6.0917   -1.3523   -0.7053 C   0  0  0  0  0  0  0  0  0  0  0  0
    6.9356   -2.2393   -0.0253 C   0  0  0  0  0  0  0  0  0  0  0  0
    6.5478   -2.8028    1.1947 C   0  0  0  0  0  0  0  0  0  0  0  0
    7.4362   -3.7798    1.9058 C   0  0  0  0  0  0  0  0  0  0  0  0
    5.2858   -2.4956    1.7097 C   0  0  0  0  0  0  0  0  0  0  0  0
    4.4392   -1.6129    1.0334 C   0  0  0  0  0  0  0  0  0  0  0  0
    2.6230   -0.1656   -0.5030 N   0  0  0  0  0  0  0  0  0  0  0  0
    2.0094    0.5580   -1.4415 C   0  0  0  0  0  0  0  0  0  0  0  0
    0.5727    0.7513   -1.5779 C   0  0  0  0  0  0  0  0  0  0  0  0
   -0.2565    0.2684   -0.8090 O   0  0  0  0  0  0  0  0  0  0  0  0
   -6.5418   -0.7231    1.7253 C   0  0  0  0  0  0  0  0  0  0  0  0
   -7.3574   -1.7414    2.2239 C   0  0  0  0  0  0  0  0  0  0  0  0
   -8.9599   -3.2195    3.8654 H   0  0  0  0  0  0  0  0  0  0  0  0
   -7.6953   -3.7065    4.9936 H   0  0  0  0  0  0  0  0  0  0  0  0
   -7.7277   -4.4083    3.3609 H   0  0  0  0  0  0  0  0  0  0  0  0
   -5.5914   -2.5061    5.0315 H   0  0  0  0  0  0  0  0  0  0  0  0
   -4.1587   -0.7154    4.1566 H   0  0  0  0  0  0  0  0  0  0  0  0
   -3.8441    1.1358    2.6567 H   0  0  0  0  0  0  0  0  0  0  0  0
   -5.1115    1.5892    1.5391 H   0  0  0  0  0  0  0  0  0  0  0  0
   -3.0907   -0.6741    0.9844 H   0  0  0  0  0  0  0  0  0  0  0  0
   -4.2622   -0.0122   -0.1688 H   0  0  0  0  0  0  0  0  0  0  0  0
   -1.6996    0.8263    0.0938 H   0  0  0  0  0  0  0  0  0  0  0  0
   -2.0153    4.2060   -0.5245 H   0  0  0  0  0  0  0  0  0  0  0  0
   -0.8878    2.8776   -0.3649 H   0  0  0  0  0  0  0  0  0  0  0  0
   -0.9551    3.9771   -2.6687 H   0  0  0  0  0  0  0  0  0  0  0  0
   -2.6181    3.4253   -2.8476 H   0  0  0  0  0  0  0  0  0  0  0  0
   -1.2753    1.8747   -4.0576 H   0  0  0  0  0  0  0  0  0  0  0  0
   -1.7925    1.0162   -2.6108 H   0  0  0  0  0  0  0  0  0  0  0  0
    4.1100    2.0362   -4.7046 H   0  0  0  0  0  0  0  0  0  0  0  0
    2.8142    3.1706   -5.1408 H   0  0  0  0  0  0  0  0  0  0  0  0
    3.8835    3.5469   -3.7747 H   0  0  0  0  0  0  0  0  0  0  0  0
    5.9139    0.7608   -3.0786 H   0  0  0  0  0  0  0  0  0  0  0  0
    5.4613    2.3788   -2.5267 H   0  0  0  0  0  0  0  0  0  0  0  0
    6.2249    1.2944   -1.4008 H   0  0  0  0  0  0  0  0  0  0  0  0
    6.4259   -0.9928   -1.6718 H   0  0  0  0  0  0  0  0  0  0  0  0
    7.8972   -2.4987   -0.4644 H   0  0  0  0  0  0  0  0  0  0  0  0
    7.3859   -3.6286    2.9892 H   0  0  0  0  0  0  0  0  0  0  0  0
    8.4827   -3.6526    1.6064 H   0  0  0  0  0  0  0  0  0  0  0  0
    7.1285   -4.8041    1.6708 H   0  0  0  0  0  0  0  0  0  0  0  0
    4.9483   -2.9422    2.6437 H   0  0  0  0  0  0  0  0  0  0  0  0
    3.4648   -1.3949    1.4690 H   0  0  0  0  0  0  0  0  0  0  0  0
   -6.8163   -0.2279    0.7959 H   0  0  0  0  0  0  0  0  0  0  0  0
   -8.2502   -2.0255    1.6707 H   0  0  0  0  0  0  0  0  0  0  0  0
  1  2  1  0
  2  3  2  0
  3  4  1  0
  4  5  2  0
  5  6  1  0
  6  7  1  0
  7  8  1  0
  8  9  1  0
  9 10  2  0
  9 11  1  0
 11 12  1  0
 12 13  1  0
 13 14  1  0
 14 15  1  0
 15 16  2  0
 16 17  1  0
 16 18  1  0
 18 19  2  0
 19 20  1  0
 19 21  1  0
 21 22  1  0
 22 23  2  0
 23 24  1  0
 24 25  2  0
 25 26  1  0
 25 27  1  0
 27 28  2  0
 21 29  1  0
 29 30  2  0
 30 31  1  0
 31 32  2  0
  5 33  1  0
 33 34  2  0
 34  2  1  0
 31 14  1  0
 30 18  1  0
 28 22  1  0
  1 35  1  0
  1 36  1  0
  1 37  1  0
  3 38  1  0
  4 39  1  0
  6 40  1  0
  6 41  1  0
  7 42  1  0
  7 43  1  0
  8 44  1  0
 11 45  1  0
 11 46  1  0
 12 47  1  0
 12 48  1  0
 13 49  1  0
 13 50  1  0
 17 51  1  0
 17 52  1  0
 17 53  1  0
 20 54  1  0
 20 55  1  0
 20 56  1  0
 23 57  1  0
 24 58  1  0
 26 59  1  0
 26 60  1  0
 26 61  1  0
 27 62  1  0
 28 63  1  0
 33 64  1  0
 34 65  1  0
M  END
$$$$
