
     RDKit          3D

 57 59  0  0  0  0  0  0  0  0999 V2000
   -5.0244   -3.0135   -0.2198 C   0  0  0  0  0  0  0  0  0  0  0  0
   -4.6315   -1.8460   -1.1114 C   0  0  0  0  0  0  0  0  0  0  0  0
   -4.2705   -0.6572   -0.3291 N   0  0  0  0  0  0  0  0  0  0  0  0
   -2.9617   -0.3734    0.0719 C   0  0  0  0  0  0  0  0  0  0  0  0
   -2.7129    0.5358    0.8673 O   0  0  0  0  0  0  0  0  0  0  0  0
   -1.8271   -1.2409   -0.4963 C   0  0  0  0  0  0  0  0  0  0  0  0
   -0.5399   -0.7603   -0.0963 O   0  0  0  0  0  0  0  0  0  0  0  0
   -0.1329    0.3376   -0.7812 C   0  0  0  0  0  0  0  0  0  0  0  0
   -0.6625    0.8205   -1.7656 O   0  0  0  0  0  0  0  0  0  0  0  0
    1.0888    0.8620   -0.1408 C   0  0  0  0  0  0  0  0  0  0  0  0
    2.1540   -0.0177    0.1030 C   0  0  0  0  0  0  0  0  0  0  0  0
    3.3405    0.4551    0.6859 C   0  0  0  0  0  0  0  0  0  0  0  0
    4.6505   -0.7042    0.9727 S   0  0  0  0  0  6  0  0  0  0  0  0
    4.2847   -1.9531    0.3346 O   0  0  0  0  0  0  0  0  0  0  0  0
    4.9709   -0.6607    2.3809 O   0  0  0  0  0  0  0  0  0  0  0  0
    5.9487   -0.0722    0.0782 N   0  0  0  0  0  0  0  0  0  0  0  0
    7.2834   -0.5919    0.5223 C   0  0  0  0  0  0  0  0  0  0  0  0
    8.3499   -0.2896   -0.5336 C   0  0  0  0  0  0  0  0  0  0  0  0
    8.0935   -0.9289   -1.7930 O   0  0  0  0  0  0  0  0  0  0  0  0
    6.6987   -1.1467   -2.0468 C   0  0  0  0  0  0  0  0  0  0  0  0
    5.8024   -0.0792   -1.4125 C   0  0  0  0  0  0  0  0  0  0  0  0
    3.4615    1.8012    1.0358 C   0  0  0  0  0  0  0  0  0  0  0  0
    4.8676    2.4908    1.7598 Cl  0  0  0  0  0  0  0  0  0  0  0  0
    2.3931    2.6732    0.7881 C   0  0  0  0  0  0  0  0  0  0  0  0
    1.2101    2.2116    0.1992 C   0  0  0  0  0  0  0  0  0  0  0  0
   -0.0581    3.3581   -0.0379 Cl  0  0  0  0  0  0  0  0  0  0  0  0
   -5.3858    0.1598    0.1833 C   0  0  0  0  0  0  0  0  0  0  0  0
   -5.3088    1.6454   -0.2098 C   0  0  0  0  0  0  0  0  0  0  0  0
   -6.4945    2.3212    0.4687 C   0  0  0  0  0  0  0  0  0  0  0  0
   -6.7436    1.4386    2.0037 S   0  0  0  0  0  6  0  0  0  0  0  0
   -6.2784    2.2527    3.1058 O   0  0  0  0  0  0  0  0  0  0  0  0
   -8.0741    0.8633    1.9808 O   0  0  0  0  0  0  0  0  0  0  0  0
   -5.5715    0.1296    1.7013 C   0  0  0  0  0  0  0  0  0  0  0  0
   -5.9049   -2.7716    0.3838 H   0  0  0  0  0  0  0  0  0  0  0  0
   -4.2126   -3.2784    0.4651 H   0  0  0  0  0  0  0  0  0  0  0  0
   -5.2617   -3.8920   -0.8276 H   0  0  0  0  0  0  0  0  0  0  0  0
   -5.4548   -1.5831   -1.7853 H   0  0  0  0  0  0  0  0  0  0  0  0
   -3.8002   -2.1523   -1.7497 H   0  0  0  0  0  0  0  0  0  0  0  0
   -1.9307   -2.2521   -0.0912 H   0  0  0  0  0  0  0  0  0  0  0  0
   -1.8817   -1.2939   -1.5884 H   0  0  0  0  0  0  0  0  0  0  0  0
    2.0528   -1.0692   -0.1639 H   0  0  0  0  0  0  0  0  0  0  0  0
    7.5544   -0.1071    1.4658 H   0  0  0  0  0  0  0  0  0  0  0  0
    7.2230   -1.6754    0.6784 H   0  0  0  0  0  0  0  0  0  0  0  0
    8.4197    0.7894   -0.7142 H   0  0  0  0  0  0  0  0  0  0  0  0
    9.3319   -0.6283   -0.1884 H   0  0  0  0  0  0  0  0  0  0  0  0
    6.4398   -2.1451   -1.6762 H   0  0  0  0  0  0  0  0  0  0  0  0
    6.5630   -1.1556   -3.1328 H   0  0  0  0  0  0  0  0  0  0  0  0
    6.0902    0.9173   -1.7684 H   0  0  0  0  0  0  0  0  0  0  0  0
    4.7623   -0.2390   -1.7117 H   0  0  0  0  0  0  0  0  0  0  0  0
    2.4800    3.7239    1.0620 H   0  0  0  0  0  0  0  0  0  0  0  0
   -6.3063   -0.2350   -0.2705 H   0  0  0  0  0  0  0  0  0  0  0  0
   -4.3834    2.1108    0.1444 H   0  0  0  0  0  0  0  0  0  0  0  0
   -5.3412    1.7818   -1.2959 H   0  0  0  0  0  0  0  0  0  0  0  0
   -6.3094    3.3775    0.6747 H   0  0  0  0  0  0  0  0  0  0  0  0
   -7.4033    2.2117   -0.1302 H   0  0  0  0  0  0  0  0  0  0  0  0
   -4.6645    0.3636    2.2619 H   0  0  0  0  0  0  0  0  0  0  0  0
   -5.9822   -0.8189    2.0549 H   0  0  0  0  0  0  0  0  0  0  0  0
  1  2  1  0
  2  3  1  0
  3  4  1  0
  4  5  2  0
  4  6  1  0
  6  7  1  0
  7  8  1  0
  8  9  2  0
  8 10  1  0
 10 11  2  0
 11 12  1  0
 12 13  1  0
 13 14  2  0
 13 15  2  0
 13 16  1  0
 16 17  1  0
 17 18  1  0
 18 19  1  0
 19 20  1  0
 20 21  1  0
 12 22  2  0
 22 23  1  0
 22 24  1  0
 24 25  2  0
 25 26  1  0
  3 27  1  0
 27 28  1  0
 28 29  1  0
 29 30  1  0
 30 31  2  0
 30 32  2  0
 30 33  1  0
 25 10  1  0
 33 27  1  0
 21 16  1  0
  1 34  1  0
  1 35  1  0
  1 36  1  0
  2 37  1  0
  2 38  1  0
  6 39  1  0
  6 40  1  0
 11 41  1  0
 17 42  1  0
 17 43  1  0
 18 44  1  0
 18 45  1  0
 20 46  1  0
 20 47  1  0
 21 48  1  0
 21 49  1  0
 24 50  1  0
 27 51  1  0
 28 52  1  0
 28 53  1  0
 29 54  1  0
 29 55  1  0
 33 56  1  0
 33 57  1  0
M  END
$$$$
