
     RDKit          3D

 42 45  0  0  0  0  0  0  0  0999 V2000
   -3.3053    0.1361   -2.1483 O   0  0  0  0  0  0  0  0  0  0  0  0
   -3.2964    0.3395   -0.9313 C   0  0  0  0  0  0  0  0  0  0  0  0
   -2.1661    1.0628   -0.3229 C   0  0  0  0  0  0  0  0  0  0  0  0
   -1.1020    1.6774   -1.0419 C   0  0  0  0  0  0  0  0  0  0  0  0
   -0.2776    2.2048   -0.0803 C   0  0  0  0  0  0  0  0  0  0  0  0
    0.9912    2.9655   -0.0974 C   0  0  0  0  0  0  0  0  0  0  0  0
    1.8410    2.4367   -1.1189 O   0  0  0  0  0  0  0  0  0  0  0  0
    2.6933    1.4179   -0.7944 C   0  0  0  0  0  0  0  0  0  0  0  0
    3.6768    1.1566   -1.7503 C   0  0  0  0  0  0  0  0  0  0  0  0
    4.6109    0.1355   -1.5554 C   0  0  0  0  0  0  0  0  0  0  0  0
    4.5638   -0.6474   -0.3946 C   0  0  0  0  0  0  0  0  0  0  0  0
    5.5183   -1.6811   -0.2110 N   0  0  0  0  0  0  0  0  0  0  0  0
    5.6510   -2.5613    0.8369 C   0  0  0  0  0  0  0  0  0  0  0  0
    6.6669   -3.3703    0.6370 N   0  0  0  0  0  0  0  0  0  0  0  0
    7.1450   -2.9526   -0.5666 C   0  0  0  0  0  0  0  0  0  0  0  0
    6.4902   -1.9343   -1.1241 N   0  0  0  0  0  0  0  0  0  0  0  0
    3.5709   -0.3958    0.5611 C   0  0  0  0  0  0  0  0  0  0  0  0
    2.6394    0.6325    0.3574 C   0  0  0  0  0  0  0  0  0  0  0  0
   -0.8018    1.9346    1.1428 O   0  0  0  0  0  0  0  0  0  0  0  0
   -1.9698    1.2155    0.9986 N   0  0  0  0  0  0  0  0  0  0  0  0
   -4.3471   -0.1121   -0.1424 N   0  0  0  0  0  0  0  0  0  0  0  0
   -5.4279   -0.8831   -0.7306 C   0  0  0  0  0  0  0  0  0  0  0  0
   -6.1928   -1.4365    0.4615 C   0  0  0  0  0  0  0  0  0  0  0  0
   -6.0182   -0.3426    1.5053 C   0  0  0  0  0  0  0  0  0  0  0  0
   -4.5867    0.1279    1.2744 C   0  0  0  0  0  0  0  0  0  0  0  0
   -0.9661    1.7114   -2.1136 H   0  0  0  0  0  0  0  0  0  0  0  0
    0.7731    4.0036   -0.3723 H   0  0  0  0  0  0  0  0  0  0  0  0
    1.4899    3.0018    0.8778 H   0  0  0  0  0  0  0  0  0  0  0  0
    3.7206    1.7544   -2.6583 H   0  0  0  0  0  0  0  0  0  0  0  0
    5.3656   -0.0361   -2.3214 H   0  0  0  0  0  0  0  0  0  0  0  0
    5.0011   -2.5730    1.6986 H   0  0  0  0  0  0  0  0  0  0  0  0
    7.9997   -3.4047   -1.0543 H   0  0  0  0  0  0  0  0  0  0  0  0
    3.4821   -0.9787    1.4734 H   0  0  0  0  0  0  0  0  0  0  0  0
    1.8752    0.7770    1.1150 H   0  0  0  0  0  0  0  0  0  0  0  0
   -5.0420   -1.6679   -1.3883 H   0  0  0  0  0  0  0  0  0  0  0  0
   -6.0485   -0.1976   -1.3192 H   0  0  0  0  0  0  0  0  0  0  0  0
   -5.7239   -2.3632    0.8140 H   0  0  0  0  0  0  0  0  0  0  0  0
   -7.2406   -1.6462    0.2307 H   0  0  0  0  0  0  0  0  0  0  0  0
   -6.7186    0.4766    1.3018 H   0  0  0  0  0  0  0  0  0  0  0  0
   -6.1878   -0.6913    2.5274 H   0  0  0  0  0  0  0  0  0  0  0  0
   -4.4684    1.1858    1.5236 H   0  0  0  0  0  0  0  0  0  0  0  0
   -3.8785   -0.4780    1.8493 H   0  0  0  0  0  0  0  0  0  0  0  0
  1  2  2  0
  2  3  1  0
  3  4  1  0
  4  5  2  0
  5  6  1  0
  6  7  1  0
  7  8  1  0
  8  9  2  0
  9 10  1  0
 10 11  2  0
 11 12  1  0
 12 13  1  0
 13 14  2  0
 14 15  1  0
 15 16  2  0
 11 17  1  0
 17 18  2  0
  5 19  1  0
 19 20  1  0
  2 21  1  0
 21 22  1  0
 22 23  1  0
 23 24  1  0
 24 25  1  0
 20  3  2  0
 25 21  1  0
 18  8  1  0
 16 12  1  0
  4 26  1  0
  6 27  1  0
  6 28  1  0
  9 29  1  0
 10 30  1  0
 13 31  1  0
 15 32  1  0
 17 33  1  0
 18 34  1  0
 22 35  1  0
 22 36  1  0
 23 37  1  0
 23 38  1  0
 24 39  1  0
 24 40  1  0
 25 41  1  0
 25 42  1  0
M  END
$$$$
