
     RDKit          3D

 44 45  0  0  0  0  0  0  0  0999 V2000
    6.0238   -0.6005   -0.6057 C   0  0  0  0  0  0  0  0  0  0  0  0
    5.2460    0.6826   -0.4888 C   0  0  0  0  0  0  0  0  0  0  0  0
    5.6538    1.6364    0.1655 O   0  0  0  0  0  0  0  0  0  0  0  0
    4.0493    0.6786   -1.1683 N   0  0  0  0  0  0  0  0  0  0  0  0
    3.1136    1.7823   -1.0218 C   0  0  0  0  0  0  0  0  0  0  0  0
    2.0446    1.7654   -2.1153 C   0  0  0  0  0  0  0  0  0  0  0  0
    1.3080    0.5381   -2.1066 O   0  0  0  0  0  0  0  0  0  0  0  0
    0.2649    0.4973   -1.2047 C   0  0  0  0  0  0  0  0  0  0  0  0
    0.0806    1.5077   -0.3695 N   0  0  0  0  0  0  0  0  0  0  0  0
   -0.9282    1.3646    0.4783 C   0  0  0  0  0  0  0  0  0  0  0  0
   -1.1967    2.3973    1.3825 N   0  0  0  0  0  0  0  0  0  0  0  0
   -0.0703    3.2792    1.6513 C   0  0  0  0  0  0  0  0  0  0  0  0
   -1.9999    2.0016    2.5300 C   0  0  0  0  0  0  0  0  0  0  0  0
   -1.7098    0.2871    0.4819 N   0  0  0  0  0  0  0  0  0  0  0  0
   -1.4542   -0.6807   -0.3958 C   0  0  0  0  0  0  0  0  0  0  0  0
   -2.2496   -1.8327   -0.3758 N   0  0  0  0  0  0  0  0  0  0  0  0
   -2.2429   -2.5860   -1.6417 C   0  0  0  0  0  0  0  0  0  0  0  0
   -3.0711   -3.8716   -1.4949 C   0  0  0  0  0  0  0  0  0  0  0  0
   -4.4054   -3.5917   -1.0435 O   0  0  0  0  0  0  0  0  0  0  0  0
   -4.3621   -2.9472    0.2391 C   0  0  0  0  0  0  0  0  0  0  0  0
   -3.5971   -1.6163    0.1777 C   0  0  0  0  0  0  0  0  0  0  0  0
   -0.4503   -0.6132   -1.2572 N   0  0  0  0  0  0  0  0  0  0  0  0
    7.0702   -0.3662   -0.8199 H   0  0  0  0  0  0  0  0  0  0  0  0
    5.6423   -1.2300   -1.4146 H   0  0  0  0  0  0  0  0  0  0  0  0
    5.9532   -1.1489    0.3372 H   0  0  0  0  0  0  0  0  0  0  0  0
    3.6552   -0.2197   -1.4244 H   0  0  0  0  0  0  0  0  0  0  0  0
    3.6694    2.7256   -1.0572 H   0  0  0  0  0  0  0  0  0  0  0  0
    2.6749    1.6877   -0.0236 H   0  0  0  0  0  0  0  0  0  0  0  0
    2.5371    1.8178   -3.0936 H   0  0  0  0  0  0  0  0  0  0  0  0
    1.3878    2.6424   -2.0590 H   0  0  0  0  0  0  0  0  0  0  0  0
    0.2815    3.7752    0.7393 H   0  0  0  0  0  0  0  0  0  0  0  0
    0.7633    2.7346    2.1100 H   0  0  0  0  0  0  0  0  0  0  0  0
   -0.3678    4.0773    2.3409 H   0  0  0  0  0  0  0  0  0  0  0  0
   -2.9794    1.6159    2.2243 H   0  0  0  0  0  0  0  0  0  0  0  0
   -2.1973    2.8672    3.1726 H   0  0  0  0  0  0  0  0  0  0  0  0
   -1.4870    1.2460    3.1364 H   0  0  0  0  0  0  0  0  0  0  0  0
   -2.6792   -1.9683   -2.4376 H   0  0  0  0  0  0  0  0  0  0  0  0
   -1.2256   -2.8721   -1.9341 H   0  0  0  0  0  0  0  0  0  0  0  0
   -3.1473   -4.3764   -2.4632 H   0  0  0  0  0  0  0  0  0  0  0  0
   -2.5961   -4.5675   -0.7928 H   0  0  0  0  0  0  0  0  0  0  0  0
   -5.3946   -2.7674    0.5553 H   0  0  0  0  0  0  0  0  0  0  0  0
   -3.9055   -3.6302    0.9657 H   0  0  0  0  0  0  0  0  0  0  0  0
   -3.5542   -1.2057    1.1935 H   0  0  0  0  0  0  0  0  0  0  0  0
   -4.1481   -0.9159   -0.4635 H   0  0  0  0  0  0  0  0  0  0  0  0
  1  2  1  0
  2  3  2  0
  2  4  1  0
  4  5  1  0
  5  6  1  0
  6  7  1  0
  7  8  1  0
  8  9  2  0
  9 10  1  0
 10 11  1  0
 11 12  1  0
 11 13  1  0
 10 14  2  0
 14 15  1  0
 15 16  1  0
 16 17  1  0
 17 18  1  0
 18 19  1  0
 19 20  1  0
 20 21  1  0
 15 22  2  0
 22  8  1  0
 21 16  1  0
  1 23  1  0
  1 24  1  0
  1 25  1  0
  4 26  1  0
  5 27  1  0
  5 28  1  0
  6 29  1  0
  6 30  1  0
 12 31  1  0
 12 32  1  0
 12 33  1  0
 13 34  1  0
 13 35  1  0
 13 36  1  0
 17 37  1  0
 17 38  1  0
 18 39  1  0
 18 40  1  0
 20 41  1  0
 20 42  1  0
 21 43  1  0
 21 44  1  0
M  END
$$$$
