
     RDKit          3D

 58 61  0  0  0  0  0  0  0  0999 V2000
    8.5991    1.2706   -0.6364 C   0  0  0  0  0  0  0  0  0  0  0  0
    7.7210    2.0806    0.1330 O   0  0  0  0  0  0  0  0  0  0  0  0
    6.4332    1.6410    0.2744 C   0  0  0  0  0  0  0  0  0  0  0  0
    5.6096    2.4724    1.0337 C   0  0  0  0  0  0  0  0  0  0  0  0
    4.2650    2.1502    1.2440 C   0  0  0  0  0  0  0  0  0  0  0  0
    3.7155    0.9799    0.7039 C   0  0  0  0  0  0  0  0  0  0  0  0
    2.3034    0.6652    0.9180 C   0  0  0  0  0  0  0  0  0  0  0  0
    1.3138    1.1637    0.0935 C   0  0  0  0  0  0  0  0  0  0  0  0
   -0.0048    0.8113    0.3699 C   0  0  0  0  0  0  0  0  0  0  0  0
   -1.0233    1.3294   -0.5675 C   0  0  0  0  0  0  0  0  0  0  0  0
   -1.1495    2.5370   -0.7298 O   0  0  0  0  0  0  0  0  0  0  0  0
   -1.7398    0.3704   -1.2463 N   0  0  0  0  0  0  0  0  0  0  0  0
   -2.8676    0.7209   -2.0878 C   0  0  0  0  0  0  0  0  0  0  0  0
   -4.1913    0.7423   -1.2987 C   0  0  0  0  0  0  0  0  0  0  0  0
   -4.4710   -0.5199   -0.5805 N   0  0  0  0  0  0  0  0  0  0  0  0
   -4.8318   -1.6362   -1.4821 C   0  0  0  0  0  0  0  0  0  0  0  0
   -6.2477   -1.5376   -2.0816 C   0  0  0  0  0  0  0  0  0  0  0  0
   -7.2394   -1.4011   -1.0569 O   0  0  0  0  0  0  0  0  0  0  0  0
   -6.9698   -0.2594   -0.2363 C   0  0  0  0  0  0  0  0  0  0  0  0
   -5.5712   -0.3485    0.3977 C   0  0  0  0  0  0  0  0  0  0  0  0
   -0.3281    0.0035    1.4811 C   0  0  0  0  0  0  0  0  0  0  0  0
   -1.6421   -0.3536    1.8741 C   0  0  0  0  0  0  0  0  0  0  0  0
   -1.8662   -1.1715    2.9800 C   0  0  0  0  0  0  0  0  0  0  0  0
   -0.7855   -1.6341    3.7175 C   0  0  0  0  0  0  0  0  0  0  0  0
    0.5100   -1.2666    3.3487 C   0  0  0  0  0  0  0  0  0  0  0  0
    0.7594   -0.4524    2.2517 C   0  0  0  0  0  0  0  0  0  0  0  0
    2.0347   -0.1343    1.9781 N   0  0  0  0  0  0  0  0  0  0  0  0
    4.5634    0.1400   -0.0382 C   0  0  0  0  0  0  0  0  0  0  0  0
    4.0665   -1.0000   -0.6246 O   0  0  0  0  0  0  0  0  0  0  0  0
    4.3653   -2.1335    0.1921 C   0  0  0  0  0  0  0  0  0  0  0  0
    5.9044    0.4725   -0.2705 C   0  0  0  0  0  0  0  0  0  0  0  0
    8.7262    0.2877   -0.1790 H   0  0  0  0  0  0  0  0  0  0  0  0
    9.5762    1.7616   -0.6538 H   0  0  0  0  0  0  0  0  0  0  0  0
    8.2507    1.1879   -1.6718 H   0  0  0  0  0  0  0  0  0  0  0  0
    6.0161    3.3843    1.4645 H   0  0  0  0  0  0  0  0  0  0  0  0
    3.6425    2.8211    1.8345 H   0  0  0  0  0  0  0  0  0  0  0  0
    1.5572    1.7995   -0.7528 H   0  0  0  0  0  0  0  0  0  0  0  0
   -1.6750   -0.5958   -0.9457 H   0  0  0  0  0  0  0  0  0  0  0  0
   -2.6945    1.7068   -2.5319 H   0  0  0  0  0  0  0  0  0  0  0  0
   -2.9027   -0.0053   -2.9038 H   0  0  0  0  0  0  0  0  0  0  0  0
   -5.0068    1.0178   -1.9717 H   0  0  0  0  0  0  0  0  0  0  0  0
   -4.1078    1.5473   -0.5613 H   0  0  0  0  0  0  0  0  0  0  0  0
   -4.7785   -2.5572   -0.8874 H   0  0  0  0  0  0  0  0  0  0  0  0
   -4.0933   -1.7590   -2.2807 H   0  0  0  0  0  0  0  0  0  0  0  0
   -6.4723   -2.4576   -2.6369 H   0  0  0  0  0  0  0  0  0  0  0  0
   -6.3373   -0.7001   -2.7846 H   0  0  0  0  0  0  0  0  0  0  0  0
   -7.7286   -0.2361    0.5524 H   0  0  0  0  0  0  0  0  0  0  0  0
   -7.0877    0.6507   -0.8336 H   0  0  0  0  0  0  0  0  0  0  0  0
   -5.3879    0.5229    1.0362 H   0  0  0  0  0  0  0  0  0  0  0  0
   -5.5497   -1.2201    1.0627 H   0  0  0  0  0  0  0  0  0  0  0  0
   -2.5073    0.0142    1.3245 H   0  0  0  0  0  0  0  0  0  0  0  0
   -2.8808   -1.4391    3.2635 H   0  0  0  0  0  0  0  0  0  0  0  0
   -0.9434   -2.2726    4.5855 H   0  0  0  0  0  0  0  0  0  0  0  0
    1.3530   -1.6225    3.9386 H   0  0  0  0  0  0  0  0  0  0  0  0
    3.8023   -2.9863   -0.1999 H   0  0  0  0  0  0  0  0  0  0  0  0
    4.0632   -1.9816    1.2343 H   0  0  0  0  0  0  0  0  0  0  0  0
    5.4313   -2.3769    0.1365 H   0  0  0  0  0  0  0  0  0  0  0  0
    6.4993   -0.1938   -0.8823 H   0  0  0  0  0  0  0  0  0  0  0  0
  1  2  1  0
  2  3  1  0
  3  4  2  0
  4  5  1  0
  5  6  2  0
  6  7  1  0
  7  8  2  0
  8  9  1  0
  9 10  1  0
 10 11  2  0
 10 12  1  0
 12 13  1  0
 13 14  1  0
 14 15  1  0
 15 16  1  0
 16 17  1  0
 17 18  1  0
 18 19  1  0
 19 20  1  0
  9 21  2  0
 21 22  1  0
 22 23  2  0
 23 24  1  0
 24 25  2  0
 25 26  1  0
 26 27  2  0
  6 28  1  0
 28 29  1  0
 29 30  1  0
 28 31  2  0
 31  3  1  0
 27  7  1  0
 20 15  1  0
 26 21  1  0
  1 32  1  0
  1 33  1  0
  1 34  1  0
  4 35  1  0
  5 36  1  0
  8 37  1  0
 12 38  1  0
 13 39  1  0
 13 40  1  0
 14 41  1  0
 14 42  1  0
 16 43  1  0
 16 44  1  0
 17 45  1  0
 17 46  1  0
 19 47  1  0
 19 48  1  0
 20 49  1  0
 20 50  1  0
 22 51  1  0
 23 52  1  0
 24 53  1  0
 25 54  1  0
 30 55  1  0
 30 56  1  0
 30 57  1  0
 31 58  1  0
M  END
$$$$
