
     RDKit          3D

 38 42  0  0  0  0  0  0  0  0999 V2000
    0.5504   -1.9260    1.5572 O   0  0  0  0  0  0  0  0  0  0  0  0
   -0.0481   -0.9124    0.9441 C   0  0  0  0  0  0  0  0  0  0  0  0
   -1.2309   -0.8288    0.2579 C   0  0  0  0  0  0  0  0  0  0  0  0
   -1.3983    0.5314   -0.1747 C   0  0  0  0  0  0  0  0  0  0  0  0
   -0.3142    1.2493    0.2568 C   0  0  0  0  0  0  0  0  0  0  0  0
    0.0014    2.5332    0.1394 O   0  0  0  0  0  0  0  0  0  0  0  0
    0.5195    0.3544    0.9139 N   0  0  0  0  0  0  0  0  0  0  0  0
    1.7860    0.7100    1.5418 C   0  0  0  0  0  0  0  0  0  0  0  0
    2.9501    0.5520    0.5937 C   0  0  0  0  0  0  0  0  0  0  0  0
    3.6354   -0.6682    0.5021 C   0  0  0  0  0  0  0  0  0  0  0  0
    4.7090   -0.8149   -0.3778 C   0  0  0  0  0  0  0  0  0  0  0  0
    5.1061    0.2542   -1.1786 C   0  0  0  0  0  0  0  0  0  0  0  0
    4.4275    1.4691   -1.1040 C   0  0  0  0  0  0  0  0  0  0  0  0
    3.3537    1.6171   -0.2246 C   0  0  0  0  0  0  0  0  0  0  0  0
   -2.6914    0.7659   -0.9393 C   0  0  0  0  0  0  0  0  0  0  0  0
   -2.6510   -0.2744   -2.0958 C   0  0  0  0  0  0  0  0  0  0  0  0
   -2.4925   -1.5618   -1.6864 C   0  0  0  0  0  0  0  0  0  0  0  0
   -2.3835   -1.7353   -0.1440 C   0  0  0  0  0  0  0  0  0  0  0  0
   -3.7193   -1.1437    0.4129 C   0  0  0  0  0  0  0  0  0  0  0  0
   -3.8354   -0.0200    1.4220 C   0  0  0  0  0  0  0  0  0  0  0  0
   -3.8995    0.3202   -0.0526 C   0  0  0  0  0  0  0  0  0  0  0  0
   -0.0133   -2.7078    1.4248 H   0  0  0  0  0  0  0  0  0  0  0  0
   -0.7102    2.9524   -0.3746 H   0  0  0  0  0  0  0  0  0  0  0  0
    1.9179    0.0831    2.4315 H   0  0  0  0  0  0  0  0  0  0  0  0
    1.7135    1.7422    1.9042 H   0  0  0  0  0  0  0  0  0  0  0  0
    3.3272   -1.5141    1.1134 H   0  0  0  0  0  0  0  0  0  0  0  0
    5.2313   -1.7656   -0.4412 H   0  0  0  0  0  0  0  0  0  0  0  0
    5.9399    0.1386   -1.8657 H   0  0  0  0  0  0  0  0  0  0  0  0
    4.7299    2.3010   -1.7343 H   0  0  0  0  0  0  0  0  0  0  0  0
    2.8240    2.5669   -0.1843 H   0  0  0  0  0  0  0  0  0  0  0  0
   -2.7987    1.7908   -1.3014 H   0  0  0  0  0  0  0  0  0  0  0  0
   -2.7294    0.0284   -3.1307 H   0  0  0  0  0  0  0  0  0  0  0  0
   -2.4295   -2.4084   -2.3558 H   0  0  0  0  0  0  0  0  0  0  0  0
   -2.2365   -2.7767    0.1511 H   0  0  0  0  0  0  0  0  0  0  0  0
   -4.5576   -1.8174    0.2851 H   0  0  0  0  0  0  0  0  0  0  0  0
   -2.9709    0.2721    2.0062 H   0  0  0  0  0  0  0  0  0  0  0  0
   -4.7581    0.0471    1.9902 H   0  0  0  0  0  0  0  0  0  0  0  0
   -4.8546    0.5959   -0.4824 H   0  0  0  0  0  0  0  0  0  0  0  0
  1  2  1  0
  2  3  2  0
  3  4  1  0
  4  5  2  0
  5  6  1  0
  5  7  1  0
  7  8  1  0
  8  9  1  0
  9 10  2  0
 10 11  1  0
 11 12  2  0
 12 13  1  0
 13 14  2  0
  4 15  1  0
 15 16  1  0
 16 17  2  0
 17 18  1  0
 18 19  1  0
 19 20  1  0
 20 21  1  0
  7  2  1  0
 14  9  1  0
 21 15  1  0
 18  3  1  0
 21 19  1  0
  1 22  1  0
  6 23  1  0
  8 24  1  0
  8 25  1  0
 10 26  1  0
 11 27  1  0
 12 28  1  0
 13 29  1  0
 14 30  1  0
 15 31  1  0
 16 32  1  0
 17 33  1  0
 18 34  1  0
 19 35  1  0
 20 36  1  0
 20 37  1  0
 21 38  1  0
M  END
$$$$
