
     RDKit          3D

 54 57  0  0  0  0  0  0  0  0999 V2000
    7.6525    4.0800    1.5699 C   0  0  0  0  0  0  0  0  0  0  0  0
    7.6164    2.6885    1.2805 O   0  0  0  0  0  0  0  0  0  0  0  0
    6.3986    2.1543    0.9645 C   0  0  0  0  0  0  0  0  0  0  0  0
    6.4126    0.7898    0.6822 C   0  0  0  0  0  0  0  0  0  0  0  0
    5.2321    0.1188    0.3433 C   0  0  0  0  0  0  0  0  0  0  0  0
    3.9994    0.7909    0.2705 C   0  0  0  0  0  0  0  0  0  0  0  0
    2.7636    0.0640   -0.0948 C   0  0  0  0  0  0  0  0  0  0  0  0
    1.6886    0.6640   -0.7263 C   0  0  0  0  0  0  0  0  0  0  0  0
    0.5638   -0.1108   -1.0140 C   0  0  0  0  0  0  0  0  0  0  0  0
   -0.5726    0.6069   -1.6313 C   0  0  0  0  0  0  0  0  0  0  0  0
   -0.4075    1.2519   -2.6584 O   0  0  0  0  0  0  0  0  0  0  0  0
   -1.7571    0.5376   -0.9410 N   0  0  0  0  0  0  0  0  0  0  0  0
   -2.9826    1.1157   -1.4578 C   0  0  0  0  0  0  0  0  0  0  0  0
   -4.0801    1.1489   -0.3795 C   0  0  0  0  0  0  0  0  0  0  0  0
   -4.2712   -0.1529    0.2976 N   0  0  0  0  0  0  0  0  0  0  0  0
   -4.7828   -1.1820   -0.6392 C   0  0  0  0  0  0  0  0  0  0  0  0
   -5.5408   -2.3008    0.0913 C   0  0  0  0  0  0  0  0  0  0  0  0
   -6.7225   -1.8254    0.7493 O   0  0  0  0  0  0  0  0  0  0  0  0
   -6.6173   -0.4623    1.1813 C   0  0  0  0  0  0  0  0  0  0  0  0
   -5.1710   -0.0297    1.4681 C   0  0  0  0  0  0  0  0  0  0  0  0
    0.5306   -1.4906   -0.7215 C   0  0  0  0  0  0  0  0  0  0  0  0
   -0.5323   -2.3732   -1.0468 C   0  0  0  0  0  0  0  0  0  0  0  0
   -0.4773   -3.7234   -0.7072 C   0  0  0  0  0  0  0  0  0  0  0  0
    0.6402   -4.2145   -0.0491 C   0  0  0  0  0  0  0  0  0  0  0  0
    1.6982   -3.3541    0.2527 C   0  0  0  0  0  0  0  0  0  0  0  0
    1.6692   -2.0057   -0.0780 C   0  0  0  0  0  0  0  0  0  0  0  0
    2.7395   -1.2535    0.2291 N   0  0  0  0  0  0  0  0  0  0  0  0
    4.0063    2.1660    0.5677 C   0  0  0  0  0  0  0  0  0  0  0  0
    5.1888    2.8411    0.9084 C   0  0  0  0  0  0  0  0  0  0  0  0
    8.6893    4.3479    1.7949 H   0  0  0  0  0  0  0  0  0  0  0  0
    7.0489    4.3153    2.4526 H   0  0  0  0  0  0  0  0  0  0  0  0
    7.3361    4.6718    0.7045 H   0  0  0  0  0  0  0  0  0  0  0  0
    7.3484    0.2383    0.7259 H   0  0  0  0  0  0  0  0  0  0  0  0
    5.2822   -0.9481    0.1298 H   0  0  0  0  0  0  0  0  0  0  0  0
    1.7052    1.7126   -1.0051 H   0  0  0  0  0  0  0  0  0  0  0  0
   -1.8490   -0.0580   -0.1235 H   0  0  0  0  0  0  0  0  0  0  0  0
   -3.2922    0.5180   -2.3221 H   0  0  0  0  0  0  0  0  0  0  0  0
   -2.7720    2.1296   -1.8158 H   0  0  0  0  0  0  0  0  0  0  0  0
   -3.7638    1.8848    0.3715 H   0  0  0  0  0  0  0  0  0  0  0  0
   -5.0185    1.5152   -0.8136 H   0  0  0  0  0  0  0  0  0  0  0  0
   -5.4692   -0.7286   -1.3664 H   0  0  0  0  0  0  0  0  0  0  0  0
   -3.9434   -1.6167   -1.1917 H   0  0  0  0  0  0  0  0  0  0  0  0
   -5.8511   -3.0721   -0.6210 H   0  0  0  0  0  0  0  0  0  0  0  0
   -4.9007   -2.7863    0.8374 H   0  0  0  0  0  0  0  0  0  0  0  0
   -7.0669    0.1753    0.4113 H   0  0  0  0  0  0  0  0  0  0  0  0
   -7.2266   -0.3586    2.0849 H   0  0  0  0  0  0  0  0  0  0  0  0
   -4.7650   -0.6862    2.2482 H   0  0  0  0  0  0  0  0  0  0  0  0
   -5.1566    0.9836    1.8862 H   0  0  0  0  0  0  0  0  0  0  0  0
   -1.4061   -2.0156   -1.5869 H   0  0  0  0  0  0  0  0  0  0  0  0
   -1.2987   -4.3877   -0.9631 H   0  0  0  0  0  0  0  0  0  0  0  0
    0.7017   -5.2654    0.2218 H   0  0  0  0  0  0  0  0  0  0  0  0
    2.5776   -3.7498    0.7570 H   0  0  0  0  0  0  0  0  0  0  0  0
    3.0822    2.7397    0.5560 H   0  0  0  0  0  0  0  0  0  0  0  0
    5.1231    3.9016    1.1274 H   0  0  0  0  0  0  0  0  0  0  0  0
  1  2  1  0
  2  3  1  0
  3  4  2  0
  4  5  1  0
  5  6  2  0
  6  7  1  0
  7  8  2  0
  8  9  1  0
  9 10  1  0
 10 11  2  0
 10 12  1  0
 12 13  1  0
 13 14  1  0
 14 15  1  0
 15 16  1  0
 16 17  1  0
 17 18  1  0
 18 19  1  0
 19 20  1  0
  9 21  2  0
 21 22  1  0
 22 23  2  0
 23 24  1  0
 24 25  2  0
 25 26  1  0
 26 27  2  0
  6 28  1  0
 28 29  2  0
 29  3  1  0
 27  7  1  0
 20 15  1  0
 26 21  1  0
  1 30  1  0
  1 31  1  0
  1 32  1  0
  4 33  1  0
  5 34  1  0
  8 35  1  0
 12 36  1  0
 13 37  1  0
 13 38  1  0
 14 39  1  0
 14 40  1  0
 16 41  1  0
 16 42  1  0
 17 43  1  0
 17 44  1  0
 19 45  1  0
 19 46  1  0
 20 47  1  0
 20 48  1  0
 22 49  1  0
 23 50  1  0
 24 51  1  0
 25 52  1  0
 28 53  1  0
 29 54  1  0
M  END
$$$$
