
     RDKit          3D

 42 44  0  0  0  0  0  0  0  0999 V2000
    1.6093    4.2856    1.1688 C   0  0  0  0  0  0  0  0  0  0  0  0
   -0.0055    3.9080    0.4380 S   0  0  0  0  0  0  0  0  0  0  0  0
    0.0959    2.1184    0.3195 C   0  0  0  0  0  0  0  0  0  0  0  0
    1.3433    1.6159    0.2629 N   0  0  0  0  0  0  0  0  0  0  0  0
    1.4545    0.2916    0.1030 C   0  0  0  0  0  0  0  0  0  0  0  0
    2.8098   -0.2891    0.0276 C   0  0  0  0  0  0  0  0  0  0  0  0
    3.0094   -1.6815   -0.0518 C   0  0  0  0  0  0  0  0  0  0  0  0
    4.2920   -2.2350   -0.1238 C   0  0  0  0  0  0  0  0  0  0  0  0
    5.4094   -1.4062   -0.1183 C   0  0  0  0  0  0  0  0  0  0  0  0
    5.2454   -0.0268   -0.0402 C   0  0  0  0  0  0  0  0  0  0  0  0
    3.9611    0.5229    0.0322 C   0  0  0  0  0  0  0  0  0  0  0  0
    0.4049   -0.5410   -0.0048 N   0  0  0  0  0  0  0  0  0  0  0  0
   -0.8504   -0.0484    0.0760 C   0  0  0  0  0  0  0  0  0  0  0  0
   -1.8379   -1.0110    0.0177 N   0  0  0  0  0  0  0  0  0  0  0  0
   -3.1686   -0.8632    0.6213 C   0  0  0  0  0  0  0  0  0  0  0  0
   -3.7843   -2.2471    0.8886 C   0  0  0  0  0  0  0  0  0  0  0  0
   -3.8071   -3.0518   -0.3012 O   0  0  0  0  0  0  0  0  0  0  0  0
   -2.4670   -3.2639   -0.7723 C   0  0  0  0  0  0  0  0  0  0  0  0
   -1.7786   -1.9377   -1.1262 C   0  0  0  0  0  0  0  0  0  0  0  0
   -1.0360    1.3192    0.2255 C   0  0  0  0  0  0  0  0  0  0  0  0
   -2.3589    1.9465    0.1492 C   0  0  0  0  0  0  0  0  0  0  0  0
   -2.8682    2.3018   -1.2228 C   0  0  0  0  0  0  0  0  0  0  0  0
   -2.9984    2.1598    1.1742 O   0  0  0  0  0  0  0  0  0  0  0  0
    1.6553    5.3549    1.3925 H   0  0  0  0  0  0  0  0  0  0  0  0
    1.7515    3.7327    2.1016 H   0  0  0  0  0  0  0  0  0  0  0  0
    2.4174    4.0483    0.4716 H   0  0  0  0  0  0  0  0  0  0  0  0
    2.1527   -2.3543   -0.0540 H   0  0  0  0  0  0  0  0  0  0  0  0
    4.4137   -3.3136   -0.1823 H   0  0  0  0  0  0  0  0  0  0  0  0
    6.4066   -1.8348   -0.1735 H   0  0  0  0  0  0  0  0  0  0  0  0
    6.1150    0.6255   -0.0349 H   0  0  0  0  0  0  0  0  0  0  0  0
    3.8641    1.6058    0.0916 H   0  0  0  0  0  0  0  0  0  0  0  0
   -3.8228   -0.3172   -0.0666 H   0  0  0  0  0  0  0  0  0  0  0  0
   -3.1123   -0.3337    1.5776 H   0  0  0  0  0  0  0  0  0  0  0  0
   -4.8169   -2.1332    1.2332 H   0  0  0  0  0  0  0  0  0  0  0  0
   -3.2290   -2.7805    1.6697 H   0  0  0  0  0  0  0  0  0  0  0  0
   -1.9010   -3.8092   -0.0074 H   0  0  0  0  0  0  0  0  0  0  0  0
   -2.5247   -3.9006   -1.6608 H   0  0  0  0  0  0  0  0  0  0  0  0
   -2.2994   -1.4719   -1.9722 H   0  0  0  0  0  0  0  0  0  0  0  0
   -0.7530   -2.1563   -1.4447 H   0  0  0  0  0  0  0  0  0  0  0  0
   -3.0027    3.3847   -1.2875 H   0  0  0  0  0  0  0  0  0  0  0  0
   -3.8222    1.7970   -1.3955 H   0  0  0  0  0  0  0  0  0  0  0  0
   -2.1664    1.9893   -2.0014 H   0  0  0  0  0  0  0  0  0  0  0  0
  1  2  1  0
  2  3  1  0
  3  4  2  0
  4  5  1  0
  5  6  1  0
  6  7  2  0
  7  8  1  0
  8  9  2  0
  9 10  1  0
 10 11  2  0
  5 12  2  0
 12 13  1  0
 13 14  1  0
 14 15  1  0
 15 16  1  0
 16 17  1  0
 17 18  1  0
 18 19  1  0
 13 20  2  0
 20 21  1  0
 21 22  1  0
 21 23  2  0
 20  3  1  0
 11  6  1  0
 19 14  1  0
  1 24  1  0
  1 25  1  0
  1 26  1  0
  7 27  1  0
  8 28  1  0
  9 29  1  0
 10 30  1  0
 11 31  1  0
 15 32  1  0
 15 33  1  0
 16 34  1  0
 16 35  1  0
 18 36  1  0
 18 37  1  0
 19 38  1  0
 19 39  1  0
 22 40  1  0
 22 41  1  0
 22 42  1  0
M  END
$$$$
