
     RDKit          3D

 42 44  0  0  0  0  0  0  0  0999 V2000
    8.1233   -0.7185   -1.7876 C   0  0  0  0  0  0  0  0  0  0  0  0
    6.8896   -0.8564   -2.4823 O   0  0  0  0  0  0  0  0  0  0  0  0
    5.7490   -0.8221   -1.7296 C   0  0  0  0  0  0  0  0  0  0  0  0
    5.6811   -0.6334   -0.3493 C   0  0  0  0  0  0  0  0  0  0  0  0
    4.4396   -0.6191    0.2970 C   0  0  0  0  0  0  0  0  0  0  0  0
    3.2559   -0.7832   -0.4327 C   0  0  0  0  0  0  0  0  0  0  0  0
    1.9574   -0.7583    0.3011 C   0  0  0  0  0  0  0  0  0  0  0  0
    1.9397   -1.0734    1.4830 O   0  0  0  0  0  0  0  0  0  0  0  0
    0.8826   -0.2951   -0.4259 N   0  0  0  0  0  0  0  0  0  0  0  0
   -0.4099   -0.2261    0.0495 C   0  0  0  0  0  0  0  0  0  0  0  0
   -1.3570    0.8271   -0.9096 S   0  0  0  0  0  0  0  0  0  0  0  0
   -2.7192    0.6120    0.0820 C   0  0  0  0  0  0  0  0  0  0  0  0
   -2.4841   -0.2940    1.0978 C   0  0  0  0  0  0  0  0  0  0  0  0
   -1.1350   -0.7994    1.0753 C   0  0  0  0  0  0  0  0  0  0  0  0
   -0.6829   -1.8155    1.9843 C   0  0  0  0  0  0  0  0  0  0  0  0
   -0.4487   -2.6740    2.7308 N   0  0  0  0  0  0  0  0  0  0  0  0
   -3.5763   -0.6418    2.0668 C   0  0  0  0  0  0  0  0  0  0  0  0
   -4.9535   -0.3105    1.4718 C   0  0  0  0  0  0  0  0  0  0  0  0
   -4.9938    1.0311    0.8650 N   0  0  0  0  0  0  0  0  0  0  0  0
   -6.1625    1.7712    1.0089 C   0  0  0  0  0  0  0  0  0  0  0  0
   -6.2436    3.0820    0.2663 C   0  0  0  0  0  0  0  0  0  0  0  0
   -7.1017    1.4053    1.7152 O   0  0  0  0  0  0  0  0  0  0  0  0
   -4.0098    1.3226   -0.1884 C   0  0  0  0  0  0  0  0  0  0  0  0
    3.3243   -0.9901   -1.8149 C   0  0  0  0  0  0  0  0  0  0  0  0
    4.5674   -1.0028   -2.4547 C   0  0  0  0  0  0  0  0  0  0  0  0
    8.9303   -0.7812   -2.5240 H   0  0  0  0  0  0  0  0  0  0  0  0
    8.1933    0.2590   -1.2992 H   0  0  0  0  0  0  0  0  0  0  0  0
    8.2647   -1.5319   -1.0682 H   0  0  0  0  0  0  0  0  0  0  0  0
    6.5713   -0.4986    0.2566 H   0  0  0  0  0  0  0  0  0  0  0  0
    4.4000   -0.4790    1.3764 H   0  0  0  0  0  0  0  0  0  0  0  0
    1.0592    0.2159   -1.2817 H   0  0  0  0  0  0  0  0  0  0  0  0
   -3.5435   -1.7030    2.3354 H   0  0  0  0  0  0  0  0  0  0  0  0
   -3.4234   -0.0577    2.9827 H   0  0  0  0  0  0  0  0  0  0  0  0
   -5.7127   -0.4112    2.2545 H   0  0  0  0  0  0  0  0  0  0  0  0
   -5.2105   -1.0240    0.6783 H   0  0  0  0  0  0  0  0  0  0  0  0
   -7.2134    3.5495    0.4635 H   0  0  0  0  0  0  0  0  0  0  0  0
   -5.4615    3.7612    0.6152 H   0  0  0  0  0  0  0  0  0  0  0  0
   -6.1603    2.9173   -0.8109 H   0  0  0  0  0  0  0  0  0  0  0  0
   -4.4393    0.9854   -1.1390 H   0  0  0  0  0  0  0  0  0  0  0  0
   -3.8385    2.4016   -0.2459 H   0  0  0  0  0  0  0  0  0  0  0  0
    2.4327   -1.1730   -2.4075 H   0  0  0  0  0  0  0  0  0  0  0  0
    4.6198   -1.1676   -3.5290 H   0  0  0  0  0  0  0  0  0  0  0  0
  1  2  1  0
  2  3  1  0
  3  4  2  0
  4  5  1  0
  5  6  2  0
  6  7  1  0
  7  8  2  0
  7  9  1  0
  9 10  1  0
 10 11  1  0
 11 12  1  0
 12 13  2  0
 13 14  1  0
 14 15  1  0
 15 16  3  0
 13 17  1  0
 17 18  1  0
 18 19  1  0
 19 20  1  0
 20 21  1  0
 20 22  2  0
 19 23  1  0
  6 24  1  0
 24 25  2  0
 25  3  1  0
 14 10  2  0
 23 12  1  0
  1 26  1  0
  1 27  1  0
  1 28  1  0
  4 29  1  0
  5 30  1  0
  9 31  1  0
 17 32  1  0
 17 33  1  0
 18 34  1  0
 18 35  1  0
 21 36  1  0
 21 37  1  0
 21 38  1  0
 23 39  1  0
 23 40  1  0
 24 41  1  0
 25 42  1  0
M  END
$$$$
