
     RDKit          3D

 46 49  0  0  0  0  0  0  0  0999 V2000
   -5.2216    1.1693    2.8419 C   0  0  0  0  0  0  0  0  0  0  0  0
   -3.8858    1.2073    2.1103 C   0  0  0  0  0  0  0  0  0  0  0  0
   -3.7897    0.1517    0.9922 C   0  0  0  0  0  0  0  0  0  0  0  0
   -4.7241    0.4209   -0.1990 C   0  0  0  0  0  0  0  0  0  0  0  0
   -4.3922   -0.4739   -1.4047 C   0  0  0  0  0  0  0  0  0  0  0  0
   -3.6066   -1.7194   -0.9949 C   0  0  0  0  0  0  0  0  0  0  0  0
   -2.3020   -1.3513   -0.2695 C   0  0  0  0  0  0  0  0  0  0  0  0
   -2.4252   -0.1081    0.5059 N   0  0  0  0  0  0  0  0  0  0  0  0
   -1.5801    0.9718    0.1766 C   0  0  0  0  0  0  0  0  0  0  0  0
   -2.0152    2.1173    0.0731 O   0  0  0  0  0  0  0  0  0  0  0  0
   -0.1622    0.6584    0.0165 C   0  0  0  0  0  0  0  0  0  0  0  0
    0.5951   -0.3329    0.6158 C   0  0  0  0  0  0  0  0  0  0  0  0
    1.9574   -0.2972    0.1957 C   0  0  0  0  0  0  0  0  0  0  0  0
    3.0542   -1.1606    0.5801 C   0  0  0  0  0  0  0  0  0  0  0  0
    2.8816   -2.0939    1.3625 O   0  0  0  0  0  0  0  0  0  0  0  0
    4.2834   -0.8342   -0.0192 N   0  0  0  0  0  0  0  0  0  0  0  0
    5.3949   -1.6087    0.2966 C   0  0  0  0  0  0  0  0  0  0  0  0
    6.5994   -1.3697   -0.2309 C   0  0  0  0  0  0  0  0  0  0  0  0
    6.7770   -0.2854   -1.1552 C   0  0  0  0  0  0  0  0  0  0  0  0
    5.7508    0.5040   -1.5072 C   0  0  0  0  0  0  0  0  0  0  0  0
    5.8850    1.6468   -2.4650 C   0  0  0  0  0  0  0  0  0  0  0  0
    4.3881    0.2442   -0.9189 C   0  0  0  0  0  0  0  0  0  0  0  0
    3.3941    1.0134   -1.2648 N   0  0  0  0  0  0  0  0  0  0  0  0
    2.2058    0.7197   -0.6906 C   0  0  0  0  0  0  0  0  0  0  0  0
    0.8045    1.6347   -1.0128 S   0  0  0  0  0  0  0  0  0  0  0  0
   -5.4096    0.1787    3.2678 H   0  0  0  0  0  0  0  0  0  0  0  0
   -5.2211    1.8945    3.6620 H   0  0  0  0  0  0  0  0  0  0  0  0
   -6.0500    1.4223    2.1737 H   0  0  0  0  0  0  0  0  0  0  0  0
   -3.0850    1.0357    2.8402 H   0  0  0  0  0  0  0  0  0  0  0  0
   -3.7441    2.2187    1.7160 H   0  0  0  0  0  0  0  0  0  0  0  0
   -4.1008   -0.7944    1.4591 H   0  0  0  0  0  0  0  0  0  0  0  0
   -4.6703    1.4702   -0.5129 H   0  0  0  0  0  0  0  0  0  0  0  0
   -5.7615    0.2412    0.1073 H   0  0  0  0  0  0  0  0  0  0  0  0
   -3.7965    0.1012   -2.1249 H   0  0  0  0  0  0  0  0  0  0  0  0
   -5.3160   -0.7585   -1.9207 H   0  0  0  0  0  0  0  0  0  0  0  0
   -4.2314   -2.3340   -0.3343 H   0  0  0  0  0  0  0  0  0  0  0  0
   -3.3816   -2.3394   -1.8699 H   0  0  0  0  0  0  0  0  0  0  0  0
   -2.0264   -2.1531    0.4241 H   0  0  0  0  0  0  0  0  0  0  0  0
   -1.5089   -1.2621   -1.0187 H   0  0  0  0  0  0  0  0  0  0  0  0
    0.1982   -1.0467    1.3288 H   0  0  0  0  0  0  0  0  0  0  0  0
    5.2465   -2.4264    0.9981 H   0  0  0  0  0  0  0  0  0  0  0  0
    7.4571   -1.9831    0.0264 H   0  0  0  0  0  0  0  0  0  0  0  0
    7.7732   -0.1275   -1.5584 H   0  0  0  0  0  0  0  0  0  0  0  0
    5.6123    2.5899   -1.9803 H   0  0  0  0  0  0  0  0  0  0  0  0
    5.2372    1.4984   -3.3351 H   0  0  0  0  0  0  0  0  0  0  0  0
    6.9117    1.7501   -2.8324 H   0  0  0  0  0  0  0  0  0  0  0  0
  1  2  1  0
  2  3  1  0
  3  4  1  0
  4  5  1  0
  5  6  1  0
  6  7  1  0
  7  8  1  0
  8  9  1  0
  9 10  2  0
  9 11  1  0
 11 12  2  0
 12 13  1  0
 13 14  1  0
 14 15  2  0
 14 16  1  0
 16 17  1  0
 17 18  2  0
 18 19  1  0
 19 20  2  0
 20 21  1  0
 20 22  1  0
 22 23  2  0
 23 24  1  0
 24 25  1  0
  8  3  1  0
 25 11  1  0
 24 13  2  0
 22 16  1  0
  1 26  1  0
  1 27  1  0
  1 28  1  0
  2 29  1  0
  2 30  1  0
  3 31  1  0
  4 32  1  0
  4 33  1  0
  5 34  1  0
  5 35  1  0
  6 36  1  0
  6 37  1  0
  7 38  1  0
  7 39  1  0
 12 40  1  0
 17 41  1  0
 18 42  1  0
 19 43  1  0
 21 44  1  0
 21 45  1  0
 21 46  1  0
M  END
$$$$
