
     RDKit          3D

 38 39  0  0  0  0  0  0  0  0999 V2000
    5.5453   -0.1785    0.6556 C   0  0  0  0  0  0  0  0  0  0  0  0
    4.8954    0.9589   -0.1210 C   0  0  0  0  0  0  0  0  0  0  0  0
    4.2187    0.4949   -1.4109 C   0  0  0  0  0  0  0  0  0  0  0  0
    3.0238   -0.3422   -1.1579 C   0  0  0  0  0  0  0  0  0  0  0  0
    2.8783   -1.6457   -1.2531 N   0  0  0  0  0  0  0  0  0  0  0  0
    1.5712   -1.9143   -0.9036 N   0  0  0  0  0  0  0  0  0  0  0  0
    1.0092   -0.7555   -0.6212 C   0  0  0  0  0  0  0  0  0  0  0  0
   -0.3529   -0.4542   -0.1954 C   0  0  0  0  0  0  0  0  0  0  0  0
   -0.7726    0.8635    0.0559 C   0  0  0  0  0  0  0  0  0  0  0  0
   -2.0824    1.1323    0.4617 C   0  0  0  0  0  0  0  0  0  0  0  0
   -2.5787    2.3825    0.7263 O   0  0  0  0  0  0  0  0  0  0  0  0
   -1.6524    3.4583    0.7851 C   0  0  0  0  0  0  0  0  0  0  0  0
   -2.9839    0.0635    0.5977 C   0  0  0  0  0  0  0  0  0  0  0  0
   -4.2648    0.3165    1.0384 O   0  0  0  0  0  0  0  0  0  0  0  0
   -5.1291    0.5193   -0.0782 C   0  0  0  0  0  0  0  0  0  0  0  0
   -2.5824   -1.2634    0.3732 C   0  0  0  0  0  0  0  0  0  0  0  0
   -3.5379   -2.2284    0.5593 O   0  0  0  0  0  0  0  0  0  0  0  0
   -3.1223   -3.5856    0.4853 C   0  0  0  0  0  0  0  0  0  0  0  0
   -1.2684   -1.5087   -0.0312 C   0  0  0  0  0  0  0  0  0  0  0  0
    1.8788    0.2966   -0.7644 O   0  0  0  0  0  0  0  0  0  0  0  0
    6.0680    0.2162    1.5328 H   0  0  0  0  0  0  0  0  0  0  0  0
    6.2760   -0.7088    0.0366 H   0  0  0  0  0  0  0  0  0  0  0  0
    4.8017   -0.9003    1.0071 H   0  0  0  0  0  0  0  0  0  0  0  0
    5.6714    1.6900   -0.3774 H   0  0  0  0  0  0  0  0  0  0  0  0
    4.1743    1.4727    0.5262 H   0  0  0  0  0  0  0  0  0  0  0  0
    4.9325   -0.0610   -2.0300 H   0  0  0  0  0  0  0  0  0  0  0  0
    3.9168    1.3745   -1.9918 H   0  0  0  0  0  0  0  0  0  0  0  0
   -0.0599    1.6716   -0.0750 H   0  0  0  0  0  0  0  0  0  0  0  0
   -2.1982    4.3527    1.1004 H   0  0  0  0  0  0  0  0  0  0  0  0
   -0.8678    3.2687    1.5252 H   0  0  0  0  0  0  0  0  0  0  0  0
   -1.2250    3.6609   -0.2022 H   0  0  0  0  0  0  0  0  0  0  0  0
   -6.1319    0.7245    0.3083 H   0  0  0  0  0  0  0  0  0  0  0  0
   -4.8148    1.3823   -0.6754 H   0  0  0  0  0  0  0  0  0  0  0  0
   -5.1869   -0.3755   -0.7074 H   0  0  0  0  0  0  0  0  0  0  0  0
   -2.3344   -3.8007    1.2147 H   0  0  0  0  0  0  0  0  0  0  0  0
   -3.9843   -4.2129    0.7322 H   0  0  0  0  0  0  0  0  0  0  0  0
   -2.8041   -3.8433   -0.5301 H   0  0  0  0  0  0  0  0  0  0  0  0
   -0.9263   -2.5213   -0.2294 H   0  0  0  0  0  0  0  0  0  0  0  0
  1  2  1  0
  2  3  1  0
  3  4  1  0
  4  5  2  0
  5  6  1  0
  6  7  2  0
  7  8  1  0
  8  9  2  0
  9 10  1  0
 10 11  1  0
 11 12  1  0
 10 13  2  0
 13 14  1  0
 14 15  1  0
 13 16  1  0
 16 17  1  0
 17 18  1  0
 16 19  2  0
  7 20  1  0
 20  4  1  0
 19  8  1  0
  1 21  1  0
  1 22  1  0
  1 23  1  0
  2 24  1  0
  2 25  1  0
  3 26  1  0
  3 27  1  0
  9 28  1  0
 12 29  1  0
 12 30  1  0
 12 31  1  0
 15 32  1  0
 15 33  1  0
 15 34  1  0
 18 35  1  0
 18 36  1  0
 18 37  1  0
 19 38  1  0
M  END
$$$$
