
     RDKit          3D

 22 22  0  0  0  0  0  0  0  0999 V2000
    3.0177    1.1867    0.0523 C   0  0  0  0  0  0  0  0  0  0  0  0
    1.5343    0.9491   -0.0030 C   0  0  0  0  0  0  0  0  0  0  0  0
    0.7794    2.0483   -0.2628 N   0  0  0  0  0  0  0  0  0  0  0  0
   -0.5532    1.8770   -0.3994 C   0  0  0  0  0  0  0  0  0  0  0  0
   -1.1834    0.6532   -0.2779 C   0  0  0  0  0  0  0  0  0  0  0  0
   -2.6212    0.6199   -0.5622 C   0  0  0  0  0  0  0  0  0  0  0  0
   -3.4282    1.4732   -0.2480 O   0  0  0  0  0  0  0  0  0  0  0  0
   -2.9484   -0.4216   -1.3461 O   0  0  0  0  0  0  0  0  0  0  0  0
   -0.4076   -0.4592    0.0585 C   0  0  0  0  0  0  0  0  0  0  0  0
   -1.0432   -1.7564    0.3748 C   0  0  0  0  0  0  0  0  0  0  0  0
   -0.5922   -2.8634    0.1461 O   0  0  0  0  0  0  0  0  0  0  0  0
   -2.1529   -1.5967    1.1204 O   0  0  0  0  0  0  0  0  0  0  0  0
    0.9923   -0.3341    0.2006 C   0  0  0  0  0  0  0  0  0  0  0  0
    1.8308   -1.4527    0.3493 N   0  0  0  0  0  0  0  0  0  0  0  0
    3.4057    0.9411    1.0456 H   0  0  0  0  0  0  0  0  0  0  0  0
    3.5306    0.5814   -0.7015 H   0  0  0  0  0  0  0  0  0  0  0  0
    3.2509    2.2379   -0.1478 H   0  0  0  0  0  0  0  0  0  0  0  0
   -1.1083    2.7816   -0.6382 H   0  0  0  0  0  0  0  0  0  0  0  0
   -3.9101   -0.3153   -1.5063 H   0  0  0  0  0  0  0  0  0  0  0  0
   -2.4515   -2.5117    1.3083 H   0  0  0  0  0  0  0  0  0  0  0  0
    1.3604   -2.3295    0.5834 H   0  0  0  0  0  0  0  0  0  0  0  0
    2.6982   -1.3088    0.8540 H   0  0  0  0  0  0  0  0  0  0  0  0
  1  2  1  0
  2  3  2  0
  3  4  1  0
  4  5  2  0
  5  6  1  0
  6  7  2  0
  6  8  1  0
  5  9  1  0
  9 10  1  0
 10 11  2  0
 10 12  1  0
  9 13  2  0
 13 14  1  0
 13  2  1  0
  1 15  1  0
  1 16  1  0
  1 17  1  0
  4 18  1  0
  8 19  1  0
 12 20  1  0
 14 21  1  0
 14 22  1  0
M  END
$$$$
