
     RDKit          3D

 52 55  0  0  0  0  0  0  0  0999 V2000
    0.9439   -1.8110   -0.8910 O   0  0  0  0  0  0  0  0  0  0  0  0
    0.1590   -1.3742   -0.0486 C   0  0  0  0  0  0  0  0  0  0  0  0
   -0.5563   -2.2228    0.7823 N   0  0  0  0  0  0  0  0  0  0  0  0
   -0.4084   -3.6675    0.7102 C   0  0  0  0  0  0  0  0  0  0  0  0
   -0.9306   -4.3444    1.9737 C   0  0  0  0  0  0  0  0  0  0  0  0
   -2.4407   -4.4532    1.7692 C   0  0  0  0  0  0  0  0  0  0  0  0
   -2.6770   -4.3567    0.2618 C   0  0  0  0  0  0  0  0  0  0  0  0
   -1.2938   -4.2714   -0.3772 C   0  0  0  0  0  0  0  0  0  0  0  0
   -0.2104    0.1338    0.0599 C   0  0  0  0  0  0  0  0  0  0  0  0
   -0.5631    0.6592    1.4533 C   0  0  0  0  0  0  0  0  0  0  0  0
    0.1109    0.2563    2.6120 C   0  0  0  0  0  0  0  0  0  0  0  0
   -0.2712    0.7893    3.8335 C   0  0  0  0  0  0  0  0  0  0  0  0
   -1.2696    1.6843    3.9831 N   0  0  0  0  0  0  0  0  0  0  0  0
   -1.8974    2.0828    2.8587 C   0  0  0  0  0  0  0  0  0  0  0  0
   -1.5856    1.6093    1.5935 C   0  0  0  0  0  0  0  0  0  0  0  0
    0.7493    0.9984   -0.6628 N   0  0  0  0  0  0  0  0  0  0  0  0
    2.0987    0.9645   -0.2518 C   0  0  0  0  0  0  0  0  0  0  0  0
    2.4354    0.3975    0.7905 O   0  0  0  0  0  0  0  0  0  0  0  0
    3.1148    1.5563   -1.1160 C   0  0  0  0  0  0  0  0  0  0  0  0
    4.4333    1.8809   -0.8439 C   0  0  0  0  0  0  0  0  0  0  0  0
    4.9915    2.3862   -2.0420 C   0  0  0  0  0  0  0  0  0  0  0  0
    3.9918    2.3230   -2.9819 C   0  0  0  0  0  0  0  0  0  0  0  0
    2.8586    1.8132   -2.4378 O   0  0  0  0  0  0  0  0  0  0  0  0
    0.1900    2.0785   -1.4160 C   0  0  0  0  0  0  0  0  0  0  0  0
    0.5763    3.4046   -1.1758 C   0  0  0  0  0  0  0  0  0  0  0  0
   -0.0101    4.4552   -1.8862 C   0  0  0  0  0  0  0  0  0  0  0  0
   -0.9878    4.1922   -2.8426 C   0  0  0  0  0  0  0  0  0  0  0  0
   -1.3801    2.8791   -3.0908 C   0  0  0  0  0  0  0  0  0  0  0  0
   -0.7970    1.8279   -2.3790 C   0  0  0  0  0  0  0  0  0  0  0  0
   -1.3003   -1.8401    1.3537 H   0  0  0  0  0  0  0  0  0  0  0  0
    0.6479   -3.9003    0.5381 H   0  0  0  0  0  0  0  0  0  0  0  0
   -0.6803   -3.8023    2.8912 H   0  0  0  0  0  0  0  0  0  0  0  0
   -0.5063   -5.3529    2.0528 H   0  0  0  0  0  0  0  0  0  0  0  0
   -2.8268   -5.3917    2.1802 H   0  0  0  0  0  0  0  0  0  0  0  0
   -2.9589   -3.6345    2.2814 H   0  0  0  0  0  0  0  0  0  0  0  0
   -3.2425   -5.2130   -0.1190 H   0  0  0  0  0  0  0  0  0  0  0  0
   -3.2563   -3.4540    0.0352 H   0  0  0  0  0  0  0  0  0  0  0  0
   -1.3091   -3.6902   -1.3044 H   0  0  0  0  0  0  0  0  0  0  0  0
   -0.9441   -5.2828   -0.6183 H   0  0  0  0  0  0  0  0  0  0  0  0
   -1.1600    0.1465   -0.4946 H   0  0  0  0  0  0  0  0  0  0  0  0
    0.9333   -0.4531    2.5776 H   0  0  0  0  0  0  0  0  0  0  0  0
    0.2360    0.5013    4.7502 H   0  0  0  0  0  0  0  0  0  0  0  0
   -2.6828    2.8192    3.0030 H   0  0  0  0  0  0  0  0  0  0  0  0
   -2.1310    1.9868    0.7336 H   0  0  0  0  0  0  0  0  0  0  0  0
    4.9212    1.7560    0.1134 H   0  0  0  0  0  0  0  0  0  0  0  0
    5.9999    2.7397   -2.2040 H   0  0  0  0  0  0  0  0  0  0  0  0
    3.9296    2.5808   -4.0299 H   0  0  0  0  0  0  0  0  0  0  0  0
    1.3170    3.6439   -0.4172 H   0  0  0  0  0  0  0  0  0  0  0  0
    0.2982    5.4790   -1.6901 H   0  0  0  0  0  0  0  0  0  0  0  0
   -1.4380    5.0101   -3.3996 H   0  0  0  0  0  0  0  0  0  0  0  0
   -2.1306    2.6705   -3.8491 H   0  0  0  0  0  0  0  0  0  0  0  0
   -1.0905    0.8098   -2.6223 H   0  0  0  0  0  0  0  0  0  0  0  0
  1  2  2  0
  2  3  1  0
  3  4  1  0
  4  5  1  0
  5  6  1  0
  6  7  1  0
  7  8  1  0
  2  9  1  0
  9 10  1  0
 10 11  2  0
 11 12  1  0
 12 13  2  0
 13 14  1  0
 14 15  2  0
  9 16  1  0
 16 17  1  0
 17 18  2  0
 17 19  1  0
 19 20  2  0
 20 21  1  0
 21 22  2  0
 22 23  1  0
 16 24  1  0
 24 25  2  0
 25 26  1  0
 26 27  2  0
 27 28  1  0
 28 29  2  0
  8  4  1  0
 15 10  1  0
 23 19  1  0
 29 24  1  0
  3 30  1  0
  4 31  1  0
  5 32  1  0
  5 33  1  0
  6 34  1  0
  6 35  1  0
  7 36  1  0
  7 37  1  0
  8 38  1  0
  8 39  1  0
  9 40  1  0
 11 41  1  0
 12 42  1  0
 14 43  1  0
 15 44  1  0
 20 45  1  0
 21 46  1  0
 22 47  1  0
 25 48  1  0
 26 49  1  0
 27 50  1  0
 28 51  1  0
 29 52  1  0
M  END
$$$$
