
     RDKit          3D

 45 46  0  0  0  0  0  0  0  0999 V2000
    5.1444    2.9167   -2.0829 C   0  0  0  0  0  0  0  0  0  0  0  0
    3.8969    2.4459   -1.5905 O   0  0  0  0  0  0  0  0  0  0  0  0
    3.6923    1.0907   -1.5755 C   0  0  0  0  0  0  0  0  0  0  0  0
    4.5498    0.1596   -2.1707 C   0  0  0  0  0  0  0  0  0  0  0  0
    4.2870   -1.2090   -2.0763 C   0  0  0  0  0  0  0  0  0  0  0  0
    3.1661   -1.6642   -1.3837 C   0  0  0  0  0  0  0  0  0  0  0  0
    2.2813   -0.7538   -0.7936 C   0  0  0  0  0  0  0  0  0  0  0  0
    1.1166   -1.2326   -0.0355 C   0  0  0  0  0  0  0  0  0  0  0  0
    0.2447   -2.1319   -0.5143 C   0  0  0  0  0  0  0  0  0  0  0  0
   -0.9122   -2.5813    0.2932 C   0  0  0  0  0  0  0  0  0  0  0  0
   -1.0419   -3.7839    0.5089 O   0  0  0  0  0  0  0  0  0  0  0  0
   -1.8083   -1.6272    0.7306 N   0  0  0  0  0  0  0  0  0  0  0  0
   -2.9148   -2.0466    1.5911 C   0  0  0  0  0  0  0  0  0  0  0  0
   -3.4465   -0.8637    2.4163 C   0  0  0  0  0  0  0  0  0  0  0  0
   -4.5995   -1.2892    3.3138 C   0  0  0  0  0  0  0  0  0  0  0  0
   -3.9084    0.2326    1.6061 O   0  0  0  0  0  0  0  0  0  0  0  0
   -3.2909    0.3153    0.3108 C   0  0  0  0  0  0  0  0  0  0  0  0
   -3.3364    1.7721   -0.1284 C   0  0  0  0  0  0  0  0  0  0  0  0
   -1.8499   -0.2250    0.2939 C   0  0  0  0  0  0  0  0  0  0  0  0
    2.5416    0.6269   -0.9071 C   0  0  0  0  0  0  0  0  0  0  0  0
    1.6564    1.4839   -0.2868 O   0  0  0  0  0  0  0  0  0  0  0  0
    1.0479    2.3934   -1.2027 C   0  0  0  0  0  0  0  0  0  0  0  0
    5.2397    2.7242   -3.1563 H   0  0  0  0  0  0  0  0  0  0  0  0
    5.9820    2.4840   -1.5257 H   0  0  0  0  0  0  0  0  0  0  0  0
    5.1730    4.0008   -1.9368 H   0  0  0  0  0  0  0  0  0  0  0  0
    5.4395    0.4652   -2.7114 H   0  0  0  0  0  0  0  0  0  0  0  0
    4.9674   -1.9245   -2.5325 H   0  0  0  0  0  0  0  0  0  0  0  0
    2.9980   -2.7357   -1.2974 H   0  0  0  0  0  0  0  0  0  0  0  0
    0.9780   -0.7806    0.9441 H   0  0  0  0  0  0  0  0  0  0  0  0
    0.3666   -2.6305   -1.4677 H   0  0  0  0  0  0  0  0  0  0  0  0
   -2.5852   -2.8618    2.2450 H   0  0  0  0  0  0  0  0  0  0  0  0
   -3.6966   -2.4382    0.9286 H   0  0  0  0  0  0  0  0  0  0  0  0
   -2.6389   -0.4710    3.0468 H   0  0  0  0  0  0  0  0  0  0  0  0
   -5.4496   -1.6381    2.7172 H   0  0  0  0  0  0  0  0  0  0  0  0
   -4.2987   -2.0888    3.9974 H   0  0  0  0  0  0  0  0  0  0  0  0
   -4.9579   -0.4400    3.9057 H   0  0  0  0  0  0  0  0  0  0  0  0
   -3.9091   -0.2761   -0.3763 H   0  0  0  0  0  0  0  0  0  0  0  0
   -2.9244    1.8983   -1.1342 H   0  0  0  0  0  0  0  0  0  0  0  0
   -4.3675    2.1415   -0.1241 H   0  0  0  0  0  0  0  0  0  0  0  0
   -2.7718    2.4060    0.5642 H   0  0  0  0  0  0  0  0  0  0  0  0
   -1.2293    0.3400    0.9992 H   0  0  0  0  0  0  0  0  0  0  0  0
   -1.4228   -0.1283   -0.7089 H   0  0  0  0  0  0  0  0  0  0  0  0
    0.0315    2.5900   -0.8471 H   0  0  0  0  0  0  0  0  0  0  0  0
    1.5871    3.3449   -1.2054 H   0  0  0  0  0  0  0  0  0  0  0  0
    0.9728    1.9898   -2.2192 H   0  0  0  0  0  0  0  0  0  0  0  0
  1  2  1  0
  2  3  1  0
  3  4  2  0
  4  5  1  0
  5  6  2  0
  6  7  1  0
  7  8  1  0
  8  9  2  3
  9 10  1  0
 10 11  2  0
 10 12  1  0
 12 13  1  0
 13 14  1  0
 14 15  1  0
 14 16  1  0
 16 17  1  0
 17 18  1  0
 17 19  1  0
  7 20  2  0
 20 21  1  0
 21 22  1  0
 20  3  1  0
 19 12  1  0
  1 23  1  0
  1 24  1  0
  1 25  1  0
  4 26  1  0
  5 27  1  0
  6 28  1  0
  8 29  1  0
  9 30  1  0
 13 31  1  0
 13 32  1  0
 14 33  1  0
 15 34  1  0
 15 35  1  0
 15 36  1  0
 17 37  1  0
 18 38  1  0
 18 39  1  0
 18 40  1  0
 19 41  1  0
 19 42  1  0
 22 43  1  0
 22 44  1  0
 22 45  1  0
M  END
$$$$
