
     RDKit          3D

 42 46  0  0  0  0  0  0  0  0999 V2000
   -3.0412    0.1009    2.3388 O   0  0  0  0  0  0  0  0  0  0  0  0
   -2.3412   -0.4178    1.4654 C   0  0  0  0  0  0  0  0  0  0  0  0
   -3.0257   -0.8917    0.2276 C   0  0  0  0  0  0  0  0  0  0  0  0
   -2.5858   -2.0088   -0.4920 C   0  0  0  0  0  0  0  0  0  0  0  0
   -3.2681   -2.4127   -1.6424 C   0  0  0  0  0  0  0  0  0  0  0  0
   -4.3953   -1.7126   -2.0712 C   0  0  0  0  0  0  0  0  0  0  0  0
   -4.8485   -0.6099   -1.3491 C   0  0  0  0  0  0  0  0  0  0  0  0
   -4.1689   -0.2023   -0.2000 C   0  0  0  0  0  0  0  0  0  0  0  0
   -0.8224   -0.6752    1.6450 C   0  0  0  0  0  0  0  0  0  0  0  0
   -0.2269    0.1504    2.6476 O   0  0  0  0  0  0  0  0  0  0  0  0
    0.0929    1.4160    2.2360 C   0  0  0  0  0  0  0  0  0  0  0  0
    0.2382    2.3727    3.2400 C   0  0  0  0  0  0  0  0  0  0  0  0
    0.5537    3.6896    2.9099 C   0  0  0  0  0  0  0  0  0  0  0  0
    0.7272    4.0484    1.5749 C   0  0  0  0  0  0  0  0  0  0  0  0
    0.5983    3.0874    0.5704 C   0  0  0  0  0  0  0  0  0  0  0  0
    0.2991    1.7546    0.8945 C   0  0  0  0  0  0  0  0  0  0  0  0
    0.1704    0.7042   -0.1746 C   0  0  0  0  0  0  0  0  0  0  0  0
    1.4181    0.5090   -1.0248 C   0  0  0  0  0  0  0  0  0  0  0  0
    1.8838   -0.8296   -0.5202 C   0  0  0  0  0  0  0  0  0  0  0  0
    3.1568   -1.3817   -0.9248 C   0  0  0  0  0  0  0  0  0  0  0  0
    4.1022   -0.8400   -1.7775 C   0  0  0  0  0  0  0  0  0  0  0  0
    5.2424   -1.6816   -1.9385 C   0  0  0  0  0  0  0  0  0  0  0  0
    5.1329   -2.8403   -1.2051 C   0  0  0  0  0  0  0  0  0  0  0  0
    3.6659   -2.9089   -0.3326 S   0  0  0  0  0  0  0  0  0  0  0  0
    1.0484   -1.4322    0.2734 N   0  0  0  0  0  0  0  0  0  0  0  0
   -0.0490   -0.6107    0.4081 N   0  0  0  0  0  0  0  0  0  0  0  0
   -1.7200   -2.5852   -0.1740 H   0  0  0  0  0  0  0  0  0  0  0  0
   -2.9222   -3.2798   -2.2003 H   0  0  0  0  0  0  0  0  0  0  0  0
   -4.9268   -2.0331   -2.9641 H   0  0  0  0  0  0  0  0  0  0  0  0
   -5.7345   -0.0709   -1.6754 H   0  0  0  0  0  0  0  0  0  0  0  0
   -4.5353    0.6539    0.3639 H   0  0  0  0  0  0  0  0  0  0  0  0
   -0.7521   -1.7062    2.0151 H   0  0  0  0  0  0  0  0  0  0  0  0
    0.0898    2.0916    4.2794 H   0  0  0  0  0  0  0  0  0  0  0  0
    0.6556    4.4348    3.6944 H   0  0  0  0  0  0  0  0  0  0  0  0
    0.9635    5.0780    1.3176 H   0  0  0  0  0  0  0  0  0  0  0  0
    0.7355    3.3880   -0.4658 H   0  0  0  0  0  0  0  0  0  0  0  0
   -0.6983    0.9470   -0.7979 H   0  0  0  0  0  0  0  0  0  0  0  0
    2.1859    1.2766   -0.8985 H   0  0  0  0  0  0  0  0  0  0  0  0
    1.1661    0.4110   -2.0862 H   0  0  0  0  0  0  0  0  0  0  0  0
    3.9930    0.1185   -2.2698 H   0  0  0  0  0  0  0  0  0  0  0  0
    6.0990   -1.4482   -2.5592 H   0  0  0  0  0  0  0  0  0  0  0  0
    5.8432   -3.6530   -1.1370 H   0  0  0  0  0  0  0  0  0  0  0  0
  1  2  2  0
  2  3  1  0
  3  4  2  0
  4  5  1  0
  5  6  2  0
  6  7  1  0
  7  8  2  0
  2  9  1  0
  9 10  1  0
 10 11  1  0
 11 12  2  0
 12 13  1  0
 13 14  2  0
 14 15  1  0
 15 16  2  0
 16 17  1  0
 17 18  1  0
 18 19  1  0
 19 20  1  0
 20 21  2  0
 21 22  1  0
 22 23  2  0
 23 24  1  0
 19 25  2  0
 25 26  1  0
  8  3  1  0
 26  9  1  0
 16 11  1  0
 26 17  1  0
 24 20  1  0
  4 27  1  0
  5 28  1  0
  6 29  1  0
  7 30  1  0
  8 31  1  0
  9 32  1  0
 12 33  1  0
 13 34  1  0
 14 35  1  0
 15 36  1  0
 17 37  1  0
 18 38  1  0
 18 39  1  0
 21 40  1  0
 22 41  1  0
 23 42  1  0
M  END
$$$$
