
     RDKit          3D

 49 52  0  0  0  0  0  0  0  0999 V2000
    6.1581   -1.7805   -2.1805 C   0  0  0  0  0  0  0  0  0  0  0  0
    5.0396   -2.3830   -1.3443 C   0  0  0  0  0  0  0  0  0  0  0  0
    4.1741   -1.3207   -0.7181 C   0  0  0  0  0  0  0  0  0  0  0  0
    3.0549   -0.8215   -1.3944 C   0  0  0  0  0  0  0  0  0  0  0  0
    2.2562    0.1772   -0.8207 C   0  0  0  0  0  0  0  0  0  0  0  0
    2.5564    0.7056    0.4402 C   0  0  0  0  0  0  0  0  0  0  0  0
    1.7648    1.7574    1.1006 C   0  0  0  0  0  0  0  0  0  0  0  0
    0.5580    2.3753    0.4281 C   0  0  0  0  0  0  0  0  0  0  0  0
   -0.5631    1.4468    0.2281 N   0  0  0  0  0  0  0  0  0  0  0  0
   -1.5702    2.0536   -0.6579 C   0  0  0  0  0  0  0  0  0  0  0  0
   -2.8376    1.2551   -0.7644 C   0  0  0  0  0  0  0  0  0  0  0  0
   -3.1605    0.2693    0.0925 C   0  0  0  0  0  0  0  0  0  0  0  0
   -4.4101   -0.4951   -0.0668 C   0  0  0  0  0  0  0  0  0  0  0  0
   -4.6965   -1.1406   -1.2785 C   0  0  0  0  0  0  0  0  0  0  0  0
   -5.8754   -1.8736   -1.4357 C   0  0  0  0  0  0  0  0  0  0  0  0
   -6.7820   -1.9693   -0.3825 C   0  0  0  0  0  0  0  0  0  0  0  0
   -6.5102   -1.3333    0.8269 C   0  0  0  0  0  0  0  0  0  0  0  0
   -5.3302   -0.6011    0.9842 C   0  0  0  0  0  0  0  0  0  0  0  0
   -2.2555   -0.0533    1.2556 C   0  0  0  0  0  0  0  0  0  0  0  0
   -1.1875    1.0312    1.4936 C   0  0  0  0  0  0  0  0  0  0  0  0
    2.1711    2.1857    2.3064 C   0  0  0  0  0  0  0  0  0  0  0  0
    3.3425    1.6489    3.0118 C   0  0  0  0  0  0  0  0  0  0  0  0
    3.6505    2.0748    4.1193 O   0  0  0  0  0  0  0  0  0  0  0  0
    4.0649    0.6629    2.3684 O   0  0  0  0  0  0  0  0  0  0  0  0
    3.6790    0.1971    1.0967 C   0  0  0  0  0  0  0  0  0  0  0  0
    4.4865   -0.7974    0.5389 C   0  0  0  0  0  0  0  0  0  0  0  0
    6.8122   -1.1469   -1.5719 H   0  0  0  0  0  0  0  0  0  0  0  0
    6.7695   -2.5736   -2.6224 H   0  0  0  0  0  0  0  0  0  0  0  0
    5.7588   -1.1663   -2.9948 H   0  0  0  0  0  0  0  0  0  0  0  0
    5.4654   -3.0215   -0.5606 H   0  0  0  0  0  0  0  0  0  0  0  0
    4.4228   -3.0406   -1.9690 H   0  0  0  0  0  0  0  0  0  0  0  0
    2.7897   -1.2093   -2.3761 H   0  0  0  0  0  0  0  0  0  0  0  0
    1.3905    0.5197   -1.3819 H   0  0  0  0  0  0  0  0  0  0  0  0
    0.2150    3.2552    0.9907 H   0  0  0  0  0  0  0  0  0  0  0  0
    0.8928    2.7658   -0.5432 H   0  0  0  0  0  0  0  0  0  0  0  0
   -1.1426    2.1402   -1.6641 H   0  0  0  0  0  0  0  0  0  0  0  0
   -1.8348    3.0654   -0.3238 H   0  0  0  0  0  0  0  0  0  0  0  0
   -3.5050    1.5216   -1.5799 H   0  0  0  0  0  0  0  0  0  0  0  0
   -3.9937   -1.0872   -2.1070 H   0  0  0  0  0  0  0  0  0  0  0  0
   -6.0822   -2.3717   -2.3792 H   0  0  0  0  0  0  0  0  0  0  0  0
   -7.6992   -2.5395   -0.5038 H   0  0  0  0  0  0  0  0  0  0  0  0
   -7.2174   -1.4043    1.6491 H   0  0  0  0  0  0  0  0  0  0  0  0
   -5.1467   -0.1021    1.9322 H   0  0  0  0  0  0  0  0  0  0  0  0
   -1.7595   -1.0115    1.0524 H   0  0  0  0  0  0  0  0  0  0  0  0
   -2.8243   -0.1744    2.1840 H   0  0  0  0  0  0  0  0  0  0  0  0
   -1.6398    1.8936    2.0023 H   0  0  0  0  0  0  0  0  0  0  0  0
   -0.4443    0.6088    2.1795 H   0  0  0  0  0  0  0  0  0  0  0  0
    1.6432    2.9643    2.8454 H   0  0  0  0  0  0  0  0  0  0  0  0
    5.3523   -1.1569    1.0892 H   0  0  0  0  0  0  0  0  0  0  0  0
  1  2  1  0
  2  3  1  0
  3  4  2  0
  4  5  1  0
  5  6  2  0
  6  7  1  0
  7  8  1  0
  8  9  1  0
  9 10  1  0
 10 11  1  0
 11 12  2  0
 12 13  1  0
 13 14  2  0
 14 15  1  0
 15 16  2  0
 16 17  1  0
 17 18  2  0
 12 19  1  0
 19 20  1  0
  7 21  2  0
 21 22  1  0
 22 23  2  0
 22 24  1  0
 24 25  1  0
 25 26  2  0
 26  3  1  0
 25  6  1  0
 20  9  1  0
 18 13  1  0
  1 27  1  0
  1 28  1  0
  1 29  1  0
  2 30  1  0
  2 31  1  0
  4 32  1  0
  5 33  1  0
  8 34  1  0
  8 35  1  0
 10 36  1  0
 10 37  1  0
 11 38  1  0
 14 39  1  0
 15 40  1  0
 16 41  1  0
 17 42  1  0
 18 43  1  0
 19 44  1  0
 19 45  1  0
 20 46  1  0
 20 47  1  0
 21 48  1  0
 26 49  1  0
M  END
$$$$
