
     RDKit          3D

 41 43  0  0  0  0  0  0  0  0999 V2000
   -2.1229    1.1871    0.0067 C   0  0  0  0  0  0  0  0  0  0  0  0
   -2.4185   -0.1067    0.7213 C   0  0  0  0  0  0  0  0  0  0  0  0
   -3.4688   -0.8903    0.3950 C   0  0  0  0  0  0  0  0  0  0  0  0
   -4.3837   -0.6711   -0.7314 C   0  0  0  0  0  0  0  0  0  0  0  0
   -5.7416   -0.4439   -0.4829 C   0  0  0  0  0  0  0  0  0  0  0  0
   -6.6288   -0.2505   -1.5438 C   0  0  0  0  0  0  0  0  0  0  0  0
   -6.1650   -0.2903   -2.8581 C   0  0  0  0  0  0  0  0  0  0  0  0
   -4.8149   -0.5259   -3.1135 C   0  0  0  0  0  0  0  0  0  0  0  0
   -3.9267   -0.7194   -2.0537 C   0  0  0  0  0  0  0  0  0  0  0  0
   -1.6326   -0.4669    1.8983 C   0  0  0  0  0  0  0  0  0  0  0  0
   -0.3297   -0.3012    2.1804 C   0  0  0  0  0  0  0  0  0  0  0  0
    0.3101   -0.7957    3.7274 S   0  0  0  0  0  0  0  0  0  0  0  0
    1.9487   -0.2858    3.3482 C   0  0  0  0  0  0  0  0  0  0  0  0
    3.2109   -0.3651    4.4360 S   0  0  0  0  0  0  0  0  0  0  0  0
    1.9625    0.2039    2.0614 N   0  0  0  0  0  0  0  0  0  0  0  0
    3.1559    0.5877    1.4127 N   0  0  0  0  0  0  0  0  0  0  0  0
    3.8157   -0.4167    0.7214 C   0  0  0  0  0  0  0  0  0  0  0  0
    3.5321   -1.6066    0.8162 O   0  0  0  0  0  0  0  0  0  0  0  0
    4.8920    0.0256   -0.2018 C   0  0  0  0  0  0  0  0  0  0  0  0
    5.6106    1.2028    0.0113 C   0  0  0  0  0  0  0  0  0  0  0  0
    6.5988    1.5281   -0.9008 C   0  0  0  0  0  0  0  0  0  0  0  0
    6.9028    0.7737   -1.9777 N   0  0  0  0  0  0  0  0  0  0  0  0
    6.2035   -0.3688   -2.1484 C   0  0  0  0  0  0  0  0  0  0  0  0
    5.2005   -0.7853   -1.2943 C   0  0  0  0  0  0  0  0  0  0  0  0
    0.7795    0.2424    1.3394 C   0  0  0  0  0  0  0  0  0  0  0  0
    0.6813    0.6757    0.2000 O   0  0  0  0  0  0  0  0  0  0  0  0
   -1.4869    1.0144   -0.8660 H   0  0  0  0  0  0  0  0  0  0  0  0
   -1.6380    1.9120    0.6695 H   0  0  0  0  0  0  0  0  0  0  0  0
   -3.0403    1.6750   -0.3413 H   0  0  0  0  0  0  0  0  0  0  0  0
   -3.6975   -1.7854    0.9713 H   0  0  0  0  0  0  0  0  0  0  0  0
   -6.1163   -0.4096    0.5372 H   0  0  0  0  0  0  0  0  0  0  0  0
   -7.6818   -0.0695   -1.3445 H   0  0  0  0  0  0  0  0  0  0  0  0
   -6.8561   -0.1403   -3.6835 H   0  0  0  0  0  0  0  0  0  0  0  0
   -4.4527   -0.5619   -4.1376 H   0  0  0  0  0  0  0  0  0  0  0  0
   -2.8771   -0.9102   -2.2659 H   0  0  0  0  0  0  0  0  0  0  0  0
   -2.2347   -0.9668    2.6620 H   0  0  0  0  0  0  0  0  0  0  0  0
    3.1171    1.5092    0.9876 H   0  0  0  0  0  0  0  0  0  0  0  0
    5.4422    1.8425    0.8693 H   0  0  0  0  0  0  0  0  0  0  0  0
    7.1970    2.4281   -0.7852 H   0  0  0  0  0  0  0  0  0  0  0  0
    6.4817   -0.9588   -3.0173 H   0  0  0  0  0  0  0  0  0  0  0  0
    4.6718   -1.7155   -1.4767 H   0  0  0  0  0  0  0  0  0  0  0  0
  1  2  1  0
  2  3  2  3
  3  4  1  0
  4  5  2  0
  5  6  1  0
  6  7  2  0
  7  8  1  0
  8  9  2  0
  2 10  1  0
 10 11  2  3
 11 12  1  0
 12 13  1  0
 13 14  2  0
 13 15  1  0
 15 16  1  0
 16 17  1  0
 17 18  2  0
 17 19  1  0
 19 20  2  0
 20 21  1  0
 21 22  2  0
 22 23  1  0
 23 24  2  0
 15 25  1  0
 25 26  2  0
  9  4  1  0
 25 11  1  0
 24 19  1  0
  1 27  1  0
  1 28  1  0
  1 29  1  0
  3 30  1  0
  5 31  1  0
  6 32  1  0
  7 33  1  0
  8 34  1  0
  9 35  1  0
 10 36  1  0
 16 37  1  0
 20 38  1  0
 21 39  1  0
 23 40  1  0
 24 41  1  0
M  END
$$$$
