
     RDKit          3D

 37 37  0  0  0  0  0  0  0  0999 V2000
   -4.3175    1.2961   -0.6126 C   0  0  0  0  0  0  0  0  0  0  0  0
   -3.7261    0.8656    0.7222 C   0  0  0  0  0  0  0  0  0  0  0  0
   -2.8804   -0.3263    0.5652 N   0  0  0  0  0  0  0  0  0  0  0  0
   -3.5594   -1.6157    0.7544 C   0  0  0  0  0  0  0  0  0  0  0  0
   -3.4627   -2.0775    2.2015 C   0  0  0  0  0  0  0  0  0  0  0  0
   -1.5268   -0.2379    0.2588 C   0  0  0  0  0  0  0  0  0  0  0  0
   -0.6850   -1.3663    0.2414 C   0  0  0  0  0  0  0  0  0  0  0  0
    0.6823   -1.2878   -0.0653 C   0  0  0  0  0  0  0  0  0  0  0  0
    1.2522   -0.0571   -0.3690 C   0  0  0  0  0  0  0  0  0  0  0  0
    2.6921    0.0105   -0.6880 C   0  0  0  0  0  0  0  0  0  0  0  0
    3.2704    1.1231   -0.9831 N   0  0  0  0  0  0  0  0  0  0  0  0
    4.7209    1.1172   -1.2885 C   0  0  0  0  0  0  0  0  0  0  0  0
    5.0426    0.1709   -2.3685 C   0  0  0  0  0  0  0  0  0  0  0  0
    5.2951   -0.6113   -3.1886 N   0  0  0  0  0  0  0  0  0  0  0  0
    5.5078    0.8309   -0.0363 C   0  0  0  0  0  0  0  0  0  0  0  0
    5.8360   -0.3180    0.4697 N   0  0  0  0  0  0  0  0  0  0  0  0
    5.9442    1.9593    0.7552 C   0  0  0  0  0  0  0  0  0  0  0  0
    6.2907    2.8962    1.3493 N   0  0  0  0  0  0  0  0  0  0  0  0
    0.4593    1.0841   -0.3652 C   0  0  0  0  0  0  0  0  0  0  0  0
   -0.9053    0.9856   -0.0549 C   0  0  0  0  0  0  0  0  0  0  0  0
   -4.9233    0.4959   -1.0507 H   0  0  0  0  0  0  0  0  0  0  0  0
   -3.5397    1.5564   -1.3367 H   0  0  0  0  0  0  0  0  0  0  0  0
   -4.9603    2.1714   -0.4759 H   0  0  0  0  0  0  0  0  0  0  0  0
   -3.1838    1.6912    1.1964 H   0  0  0  0  0  0  0  0  0  0  0  0
   -4.5520    0.6435    1.4102 H   0  0  0  0  0  0  0  0  0  0  0  0
   -3.1769   -2.3821    0.0711 H   0  0  0  0  0  0  0  0  0  0  0  0
   -4.6210   -1.5152    0.4941 H   0  0  0  0  0  0  0  0  0  0  0  0
   -3.9139   -1.3451    2.8790 H   0  0  0  0  0  0  0  0  0  0  0  0
   -2.4239   -2.2209    2.5136 H   0  0  0  0  0  0  0  0  0  0  0  0
   -3.9898   -3.0280    2.3304 H   0  0  0  0  0  0  0  0  0  0  0  0
   -1.0709   -2.3527    0.4807 H   0  0  0  0  0  0  0  0  0  0  0  0
    1.2757   -2.1979   -0.0581 H   0  0  0  0  0  0  0  0  0  0  0  0
    3.2368   -0.9503   -0.6564 H   0  0  0  0  0  0  0  0  0  0  0  0
    4.9782    2.1261   -1.6334 H   0  0  0  0  0  0  0  0  0  0  0  0
    5.5245   -1.1025   -0.1139 H   0  0  0  0  0  0  0  0  0  0  0  0
    0.8820    2.0572   -0.6021 H   0  0  0  0  0  0  0  0  0  0  0  0
   -1.4726    1.9111   -0.0793 H   0  0  0  0  0  0  0  0  0  0  0  0
  1  2  1  0
  2  3  1  0
  3  4  1  0
  4  5  1  0
  3  6  1  0
  6  7  2  0
  7  8  1  0
  8  9  2  0
  9 10  1  0
 10 11  2  3
 11 12  1  0
 12 13  1  0
 13 14  3  0
 12 15  1  0
 15 16  2  3
 15 17  1  0
 17 18  3  0
  9 19  1  0
 19 20  2  0
 20  6  1  0
  1 21  1  0
  1 22  1  0
  1 23  1  0
  2 24  1  0
  2 25  1  0
  4 26  1  0
  4 27  1  0
  5 28  1  0
  5 29  1  0
  5 30  1  0
  7 31  1  0
  8 32  1  0
 10 33  1  0
 12 34  1  0
 16 35  1  0
 19 36  1  0
 20 37  1  0
M  END
$$$$
