
     RDKit          3D

 47 50  0  0  0  0  0  0  0  0999 V2000
    3.0387   -1.8715    1.3932 C   0  0  0  0  0  0  0  0  0  0  0  0
    2.2361   -1.4539    0.2673 N   0  0  0  0  0  0  0  0  0  0  0  0
    2.3344   -0.2574   -0.4171 C   0  0  0  0  0  0  0  0  0  0  0  0
    3.2386    0.8380   -0.0988 C   0  0  0  0  0  0  0  0  0  0  0  0
    3.0833    1.5649    1.0887 C   0  0  0  0  0  0  0  0  0  0  0  0
    3.9503    2.6188    1.3893 C   0  0  0  0  0  0  0  0  0  0  0  0
    4.9737    2.9532    0.5023 C   0  0  0  0  0  0  0  0  0  0  0  0
    5.1310    2.2375   -0.6840 C   0  0  0  0  0  0  0  0  0  0  0  0
    4.2633    1.1852   -0.9860 C   0  0  0  0  0  0  0  0  0  0  0  0
    1.3854   -0.3605   -1.4180 C   0  0  0  0  0  0  0  0  0  0  0  0
    0.7078   -1.5490   -1.3522 N   0  0  0  0  0  0  0  0  0  0  0  0
    1.2217   -2.1700   -0.3162 C   0  0  0  0  0  0  0  0  0  0  0  0
    0.6451   -3.6821    0.3054 S   0  0  0  0  0  0  0  0  0  0  0  0
   -1.1320   -3.4776   -0.0520 C   0  0  0  0  0  0  0  0  0  0  0  0
   -1.6960   -2.2745    0.7134 C   0  0  0  0  0  0  0  0  0  0  0  0
   -1.5273   -2.2097    1.9362 O   0  0  0  0  0  0  0  0  0  0  0  0
   -2.3964   -1.3087   -0.0330 N   0  0  0  0  0  0  0  0  0  0  0  0
   -2.9884   -1.6597   -1.3269 C   0  0  0  0  0  0  0  0  0  0  0  0
   -4.2895   -0.9296   -1.6004 C   0  0  0  0  0  0  0  0  0  0  0  0
   -4.0335    0.5608   -1.6010 C   0  0  0  0  0  0  0  0  0  0  0  0
   -3.2854    0.9809   -0.3652 C   0  0  0  0  0  0  0  0  0  0  0  0
   -3.3513    2.3376    0.0055 C   0  0  0  0  0  0  0  0  0  0  0  0
   -2.6536    2.8076    1.1130 C   0  0  0  0  0  0  0  0  0  0  0  0
   -1.8723    1.9284    1.8504 C   0  0  0  0  0  0  0  0  0  0  0  0
   -1.7926    0.5806    1.4829 C   0  0  0  0  0  0  0  0  0  0  0  0
   -2.4982    0.0724    0.3789 C   0  0  0  0  0  0  0  0  0  0  0  0
    3.3672   -2.9020    1.2366 H   0  0  0  0  0  0  0  0  0  0  0  0
    2.4332   -1.7910    2.3001 H   0  0  0  0  0  0  0  0  0  0  0  0
    3.9245   -1.2409    1.4812 H   0  0  0  0  0  0  0  0  0  0  0  0
    2.2786    1.3233    1.7799 H   0  0  0  0  0  0  0  0  0  0  0  0
    3.8234    3.1813    2.3106 H   0  0  0  0  0  0  0  0  0  0  0  0
    5.6472    3.7749    0.7353 H   0  0  0  0  0  0  0  0  0  0  0  0
    5.9273    2.4995   -1.3769 H   0  0  0  0  0  0  0  0  0  0  0  0
    4.3966    0.6332   -1.9133 H   0  0  0  0  0  0  0  0  0  0  0  0
    1.1462    0.3802   -2.1707 H   0  0  0  0  0  0  0  0  0  0  0  0
   -1.2329   -3.4004   -1.1344 H   0  0  0  0  0  0  0  0  0  0  0  0
   -1.6721   -4.3706    0.2766 H   0  0  0  0  0  0  0  0  0  0  0  0
   -3.2088   -2.7332   -1.3486 H   0  0  0  0  0  0  0  0  0  0  0  0
   -2.2433   -1.4509   -2.1055 H   0  0  0  0  0  0  0  0  0  0  0  0
   -4.7072   -1.2387   -2.5669 H   0  0  0  0  0  0  0  0  0  0  0  0
   -5.0267   -1.1857   -0.8294 H   0  0  0  0  0  0  0  0  0  0  0  0
   -3.4410    0.8429   -2.4803 H   0  0  0  0  0  0  0  0  0  0  0  0
   -4.9945    1.0865   -1.6629 H   0  0  0  0  0  0  0  0  0  0  0  0
   -3.9487    3.0351   -0.5770 H   0  0  0  0  0  0  0  0  0  0  0  0
   -2.7122    3.8540    1.3934 H   0  0  0  0  0  0  0  0  0  0  0  0
   -1.3105    2.2854    2.7113 H   0  0  0  0  0  0  0  0  0  0  0  0
   -1.1389   -0.0447    2.0821 H   0  0  0  0  0  0  0  0  0  0  0  0
  1  2  1  0
  2  3  1  0
  3  4  1  0
  4  5  2  0
  5  6  1  0
  6  7  2  0
  7  8  1  0
  8  9  2  0
  3 10  2  0
 10 11  1  0
 11 12  2  0
 12 13  1  0
 13 14  1  0
 14 15  1  0
 15 16  2  0
 15 17  1  0
 17 18  1  0
 18 19  1  0
 19 20  1  0
 20 21  1  0
 21 22  2  0
 22 23  1  0
 23 24  2  0
 24 25  1  0
 25 26  2  0
 12  2  1  0
 26 17  1  0
  9  4  1  0
 26 21  1  0
  1 27  1  0
  1 28  1  0
  1 29  1  0
  5 30  1  0
  6 31  1  0
  7 32  1  0
  8 33  1  0
  9 34  1  0
 10 35  1  0
 14 36  1  0
 14 37  1  0
 18 38  1  0
 18 39  1  0
 19 40  1  0
 19 41  1  0
 20 42  1  0
 20 43  1  0
 22 44  1  0
 23 45  1  0
 24 46  1  0
 25 47  1  0
M  END
$$$$
