
     RDKit          3D

 60 62  0  0  0  0  0  0  0  0999 V2000
    7.7086    1.5277   -1.9824 C   0  0  0  0  0  0  0  0  0  0  0  0
    6.6652    2.3732   -2.4493 O   0  0  0  0  0  0  0  0  0  0  0  0
    5.3895    1.8889   -2.3626 C   0  0  0  0  0  0  0  0  0  0  0  0
    4.4081    2.7296   -2.8901 C   0  0  0  0  0  0  0  0  0  0  0  0
    3.0619    2.3546   -2.8688 C   0  0  0  0  0  0  0  0  0  0  0  0
    2.6768    1.1310   -2.3076 C   0  0  0  0  0  0  0  0  0  0  0  0
    1.2228    0.7862   -2.3005 C   0  0  0  0  0  0  0  0  0  0  0  0
    0.4692    1.3837   -3.0684 O   0  0  0  0  0  0  0  0  0  0  0  0
    0.7121   -0.2591   -1.3408 C   0  0  0  0  0  0  0  0  0  0  0  0
    0.7033   -1.6409   -1.9065 C   0  0  0  0  0  0  0  0  0  0  0  0
    1.6152   -2.1829   -2.5048 O   0  0  0  0  0  0  0  0  0  0  0  0
   -0.6166   -2.3232   -1.5723 C   0  0  0  0  0  0  0  0  0  0  0  0
   -0.8962   -3.4653   -1.8658 O   0  0  0  0  0  0  0  0  0  0  0  0
   -1.3825   -1.3842   -0.9191 N   0  0  0  0  0  0  0  0  0  0  0  0
   -2.8108   -1.5838   -0.6941 C   0  0  0  0  0  0  0  0  0  0  0  0
   -3.0874   -2.5500    0.4797 C   0  0  0  0  0  0  0  0  0  0  0  0
   -4.4979   -2.8024    0.8276 N   0  0  0  0  0  0  0  0  0  0  0  0
   -5.1922   -1.6006    1.2776 C   0  0  0  0  0  0  0  0  0  0  0  0
   -5.2277   -3.4654   -0.2499 C   0  0  0  0  0  0  0  0  0  0  0  0
   -0.7848   -0.0593   -1.0213 C   0  0  0  0  0  0  0  0  0  0  0  0
   -1.0051    0.8134    0.2056 C   0  0  0  0  0  0  0  0  0  0  0  0
   -1.5708    2.0856    0.0170 C   0  0  0  0  0  0  0  0  0  0  0  0
   -1.7994    2.9273    1.0996 C   0  0  0  0  0  0  0  0  0  0  0  0
   -1.4855    2.5054    2.3905 C   0  0  0  0  0  0  0  0  0  0  0  0
   -0.9298    1.2398    2.6154 C   0  0  0  0  0  0  0  0  0  0  0  0
   -0.6460    0.7628    3.8684 O   0  0  0  0  0  0  0  0  0  0  0  0
   -1.2504    1.4186    4.9767 C   0  0  0  0  0  0  0  0  0  0  0  0
   -0.6456    0.4072    1.5124 C   0  0  0  0  0  0  0  0  0  0  0  0
   -0.0742   -0.8412    1.5925 O   0  0  0  0  0  0  0  0  0  0  0  0
    0.9182   -1.0353    2.5958 C   0  0  0  0  0  0  0  0  0  0  0  0
    3.6598    0.2867   -1.7818 C   0  0  0  0  0  0  0  0  0  0  0  0
    5.0101    0.6653   -1.8106 C   0  0  0  0  0  0  0  0  0  0  0  0
    8.6568    2.0535   -2.1337 H   0  0  0  0  0  0  0  0  0  0  0  0
    7.6056    1.3291   -0.9089 H   0  0  0  0  0  0  0  0  0  0  0  0
    7.7482    0.5941   -2.5559 H   0  0  0  0  0  0  0  0  0  0  0  0
    4.6941    3.6833   -3.3289 H   0  0  0  0  0  0  0  0  0  0  0  0
    2.3189    3.0263   -3.2929 H   0  0  0  0  0  0  0  0  0  0  0  0
    1.3177   -0.2636   -0.4296 H   0  0  0  0  0  0  0  0  0  0  0  0
   -3.2374   -1.9782   -1.6242 H   0  0  0  0  0  0  0  0  0  0  0  0
   -3.2707   -0.6087   -0.5031 H   0  0  0  0  0  0  0  0  0  0  0  0
   -2.5764   -2.1737    1.3765 H   0  0  0  0  0  0  0  0  0  0  0  0
   -2.6064   -3.5154    0.2746 H   0  0  0  0  0  0  0  0  0  0  0  0
   -4.6500   -1.1240    2.1010 H   0  0  0  0  0  0  0  0  0  0  0  0
   -6.1843   -1.8565    1.6652 H   0  0  0  0  0  0  0  0  0  0  0  0
   -5.3237   -0.8651    0.4777 H   0  0  0  0  0  0  0  0  0  0  0  0
   -4.7145   -4.3818   -0.5620 H   0  0  0  0  0  0  0  0  0  0  0  0
   -5.3569   -2.8230   -1.1284 H   0  0  0  0  0  0  0  0  0  0  0  0
   -6.2222   -3.7677    0.0964 H   0  0  0  0  0  0  0  0  0  0  0  0
   -1.3038    0.3984   -1.8746 H   0  0  0  0  0  0  0  0  0  0  0  0
   -1.8339    2.4329   -0.9821 H   0  0  0  0  0  0  0  0  0  0  0  0
   -2.2316    3.9131    0.9394 H   0  0  0  0  0  0  0  0  0  0  0  0
   -1.6852    3.1934    3.2057 H   0  0  0  0  0  0  0  0  0  0  0  0
   -0.7798    2.3899    5.1556 H   0  0  0  0  0  0  0  0  0  0  0  0
   -1.0816    0.7992    5.8620 H   0  0  0  0  0  0  0  0  0  0  0  0
   -2.3323    1.5206    4.8455 H   0  0  0  0  0  0  0  0  0  0  0  0
    0.4582   -1.3764    3.5279 H   0  0  0  0  0  0  0  0  0  0  0  0
    1.5798   -1.8357    2.2498 H   0  0  0  0  0  0  0  0  0  0  0  0
    1.5371   -0.1443    2.7505 H   0  0  0  0  0  0  0  0  0  0  0  0
    3.4171   -0.6866   -1.3648 H   0  0  0  0  0  0  0  0  0  0  0  0
    5.7396   -0.0264   -1.4005 H   0  0  0  0  0  0  0  0  0  0  0  0
  1  2  1  0
  2  3  1  0
  3  4  2  0
  4  5  1  0
  5  6  2  0
  6  7  1  0
  7  8  2  0
  7  9  1  0
  9 10  1  0
 10 11  2  0
 10 12  1  0
 12 13  2  0
 12 14  1  0
 14 15  1  0
 15 16  1  0
 16 17  1  0
 17 18  1  0
 17 19  1  0
 14 20  1  0
 20 21  1  0
 21 22  2  0
 22 23  1  0
 23 24  2  0
 24 25  1  0
 25 26  1  0
 26 27  1  0
 25 28  2  0
 28 29  1  0
 29 30  1  0
  6 31  1  0
 31 32  2  0
 32  3  1  0
 20  9  1  0
 28 21  1  0
  1 33  1  0
  1 34  1  0
  1 35  1  0
  4 36  1  0
  5 37  1  0
  9 38  1  0
 15 39  1  0
 15 40  1  0
 16 41  1  0
 16 42  1  0
 18 43  1  0
 18 44  1  0
 18 45  1  0
 19 46  1  0
 19 47  1  0
 19 48  1  0
 20 49  1  0
 22 50  1  0
 23 51  1  0
 24 52  1  0
 27 53  1  0
 27 54  1  0
 27 55  1  0
 30 56  1  0
 30 57  1  0
 30 58  1  0
 31 59  1  0
 32 60  1  0
M  END
$$$$
