
     RDKit          3D

 60 63  0  0  0  0  0  0  0  0999 V2000
   -8.2439    0.8293   -0.2024 C   0  0  0  0  0  0  0  0  0  0  0  0
   -7.5575    0.1381   -1.3772 C   0  0  0  0  0  0  0  0  0  0  0  0
   -8.3641    0.3589   -2.6554 C   0  0  0  0  0  0  0  0  0  0  0  0
   -6.2691    0.7201   -1.5997 O   0  0  0  0  0  0  0  0  0  0  0  0
   -5.1856    0.2135   -0.9416 C   0  0  0  0  0  0  0  0  0  0  0  0
   -5.1963   -0.7553    0.0556 C   0  0  0  0  0  0  0  0  0  0  0  0
   -3.9944   -1.1735    0.6456 C   0  0  0  0  0  0  0  0  0  0  0  0
   -2.7501   -0.6415    0.2601 C   0  0  0  0  0  0  0  0  0  0  0  0
   -1.4993   -1.1043    0.9005 C   0  0  0  0  0  0  0  0  0  0  0  0
   -0.2696   -1.0856    0.2666 C   0  0  0  0  0  0  0  0  0  0  0  0
    0.8526   -1.5272    0.9698 C   0  0  0  0  0  0  0  0  0  0  0  0
    2.1449   -1.4165    0.2583 C   0  0  0  0  0  0  0  0  0  0  0  0
    2.2736   -1.9061   -0.8554 O   0  0  0  0  0  0  0  0  0  0  0  0
    3.1104   -0.6749    0.9017 N   0  0  0  0  0  0  0  0  0  0  0  0
    4.4021   -0.4075    0.2918 C   0  0  0  0  0  0  0  0  0  0  0  0
    4.3235    0.6698   -0.8074 C   0  0  0  0  0  0  0  0  0  0  0  0
    5.6468    1.0492   -1.3285 N   0  0  0  0  0  0  0  0  0  0  0  0
    5.5189    1.6673   -2.6668 C   0  0  0  0  0  0  0  0  0  0  0  0
    6.7661    2.4837   -3.0341 C   0  0  0  0  0  0  0  0  0  0  0  0
    6.9724    3.6044   -2.1619 O   0  0  0  0  0  0  0  0  0  0  0  0
    6.4210    3.4075   -0.8543 C   0  0  0  0  0  0  0  0  0  0  0  0
    6.4056    1.9328   -0.4170 C   0  0  0  0  0  0  0  0  0  0  0  0
    0.7420   -2.0363    2.2809 C   0  0  0  0  0  0  0  0  0  0  0  0
    1.8095   -2.5775    3.0438 C   0  0  0  0  0  0  0  0  0  0  0  0
    1.6017   -3.0514    4.3376 C   0  0  0  0  0  0  0  0  0  0  0  0
    0.3285   -3.0013    4.8851 C   0  0  0  0  0  0  0  0  0  0  0  0
   -0.7286   -2.4887    4.1301 C   0  0  0  0  0  0  0  0  0  0  0  0
   -0.5487   -2.0138    2.8376 C   0  0  0  0  0  0  0  0  0  0  0  0
   -1.6237   -1.5561    2.1740 N   0  0  0  0  0  0  0  0  0  0  0  0
   -2.7649    0.3448   -0.7400 C   0  0  0  0  0  0  0  0  0  0  0  0
   -3.9643    0.7635   -1.3299 C   0  0  0  0  0  0  0  0  0  0  0  0
   -9.2525    0.4344   -0.0463 H   0  0  0  0  0  0  0  0  0  0  0  0
   -8.3130    1.9098   -0.3710 H   0  0  0  0  0  0  0  0  0  0  0  0
   -7.6760    0.6953    0.7233 H   0  0  0  0  0  0  0  0  0  0  0  0
   -7.4943   -0.9444   -1.2176 H   0  0  0  0  0  0  0  0  0  0  0  0
   -9.3737   -0.0535   -2.5655 H   0  0  0  0  0  0  0  0  0  0  0  0
   -7.8666   -0.1199   -3.5060 H   0  0  0  0  0  0  0  0  0  0  0  0
   -8.4392    1.4255   -2.8954 H   0  0  0  0  0  0  0  0  0  0  0  0
   -6.1151   -1.2056    0.4137 H   0  0  0  0  0  0  0  0  0  0  0  0
   -4.0362   -1.9341    1.4248 H   0  0  0  0  0  0  0  0  0  0  0  0
   -0.1634   -0.7439   -0.7580 H   0  0  0  0  0  0  0  0  0  0  0  0
    2.8738   -0.1931    1.7606 H   0  0  0  0  0  0  0  0  0  0  0  0
    4.7873   -1.3432   -0.1298 H   0  0  0  0  0  0  0  0  0  0  0  0
    5.0676   -0.1042    1.1055 H   0  0  0  0  0  0  0  0  0  0  0  0
    3.7850    1.5527   -0.4386 H   0  0  0  0  0  0  0  0  0  0  0  0
    3.7146    0.2593   -1.6236 H   0  0  0  0  0  0  0  0  0  0  0  0
    5.3645    0.8788   -3.4115 H   0  0  0  0  0  0  0  0  0  0  0  0
    4.6483    2.3360   -2.6961 H   0  0  0  0  0  0  0  0  0  0  0  0
    7.6659    1.8577   -3.0059 H   0  0  0  0  0  0  0  0  0  0  0  0
    6.6741    2.8748   -4.0527 H   0  0  0  0  0  0  0  0  0  0  0  0
    7.0211    3.9987   -0.1550 H   0  0  0  0  0  0  0  0  0  0  0  0
    5.4072    3.8248   -0.8436 H   0  0  0  0  0  0  0  0  0  0  0  0
    7.4400    1.5669   -0.4129 H   0  0  0  0  0  0  0  0  0  0  0  0
    6.0490    1.8640    0.6165 H   0  0  0  0  0  0  0  0  0  0  0  0
    2.8115   -2.6534    2.6255 H   0  0  0  0  0  0  0  0  0  0  0  0
    2.4285   -3.4657    4.9091 H   0  0  0  0  0  0  0  0  0  0  0  0
    0.1479   -3.3700    5.8918 H   0  0  0  0  0  0  0  0  0  0  0  0
   -1.7273   -2.4655    4.5617 H   0  0  0  0  0  0  0  0  0  0  0  0
   -1.8453    0.8214   -1.0701 H   0  0  0  0  0  0  0  0  0  0  0  0
   -3.9432    1.5311   -2.1002 H   0  0  0  0  0  0  0  0  0  0  0  0
  1  2  1  0
  2  3  1  0
  2  4  1  0
  4  5  1  0
  5  6  2  0
  6  7  1  0
  7  8  2  0
  8  9  1  0
  9 10  2  0
 10 11  1  0
 11 12  1  0
 12 13  2  0
 12 14  1  0
 14 15  1  0
 15 16  1  0
 16 17  1  0
 17 18  1  0
 18 19  1  0
 19 20  1  0
 20 21  1  0
 21 22  1  0
 11 23  2  0
 23 24  1  0
 24 25  2  0
 25 26  1  0
 26 27  2  0
 27 28  1  0
 28 29  2  0
  8 30  1  0
 30 31  2  0
 31  5  1  0
 29  9  1  0
 22 17  1  0
 28 23  1  0
  1 32  1  0
  1 33  1  0
  1 34  1  0
  2 35  1  0
  3 36  1  0
  3 37  1  0
  3 38  1  0
  6 39  1  0
  7 40  1  0
 10 41  1  0
 14 42  1  0
 15 43  1  0
 15 44  1  0
 16 45  1  0
 16 46  1  0
 18 47  1  0
 18 48  1  0
 19 49  1  0
 19 50  1  0
 21 51  1  0
 21 52  1  0
 22 53  1  0
 22 54  1  0
 24 55  1  0
 25 56  1  0
 26 57  1  0
 27 58  1  0
 30 59  1  0
 31 60  1  0
M  END
$$$$
