
     RDKit          3D

 46 49  0  0  0  0  0  0  0  0999 V2000
    6.3772   -0.7263    0.9107 N   0  0  0  0  0  0  0  0  0  0  0  0
    5.5802   -0.5513    2.3851 S   0  0  0  0  0  6  0  0  0  0  0  0
    5.7136   -1.8280    3.0491 O   0  0  0  0  0  0  0  0  0  0  0  0
    6.0172    0.6862    2.9852 O   0  0  0  0  0  0  0  0  0  0  0  0
    3.9011   -0.3611    1.8562 C   0  0  0  0  0  0  0  0  0  0  0  0
    3.4510    0.8905    1.4448 C   0  0  0  0  0  0  0  0  0  0  0  0
    2.1270    1.0349    1.0178 C   0  0  0  0  0  0  0  0  0  0  0  0
    1.2245   -0.0461    0.9997 C   0  0  0  0  0  0  0  0  0  0  0  0
   -0.0868    0.1314    0.5621 N   0  0  0  0  0  0  0  0  0  0  0  0
   -0.5357    1.3643    0.1828 N   0  0  0  0  0  0  0  0  0  0  0  0
   -1.8237    1.2790    0.0390 C   0  0  0  0  0  0  0  0  0  0  0  0
   -2.6684    2.4186   -0.3895 C   0  0  0  0  0  0  0  0  0  0  0  0
   -4.0626    2.3141   -0.4514 C   0  0  0  0  0  0  0  0  0  0  0  0
   -4.8286    3.4089   -0.8610 C   0  0  0  0  0  0  0  0  0  0  0  0
   -4.2078    4.6083   -1.2079 C   0  0  0  0  0  0  0  0  0  0  0  0
   -2.8200    4.7182   -1.1458 C   0  0  0  0  0  0  0  0  0  0  0  0
   -2.0512    3.6268   -0.7373 C   0  0  0  0  0  0  0  0  0  0  0  0
   -2.4139   -0.0632    0.3730 C   0  0  0  0  0  0  0  0  0  0  0  0
   -1.1385   -0.8877    0.5578 C   0  0  0  0  0  0  0  0  0  0  0  0
   -0.9794   -1.9073   -0.5613 C   0  0  0  0  0  0  0  0  0  0  0  0
   -0.4805   -1.5535   -1.8267 C   0  0  0  0  0  0  0  0  0  0  0  0
   -0.3669   -2.5042   -2.8431 C   0  0  0  0  0  0  0  0  0  0  0  0
   -0.7560   -3.8223   -2.6134 C   0  0  0  0  0  0  0  0  0  0  0  0
   -1.2592   -4.1830   -1.3661 C   0  0  0  0  0  0  0  0  0  0  0  0
   -1.7927   -5.9694   -1.0516 Br  0  0  0  0  0  0  0  0  0  0  0  0
   -1.3759   -3.2381   -0.3453 C   0  0  0  0  0  0  0  0  0  0  0  0
    1.7128   -1.2894    1.4373 C   0  0  0  0  0  0  0  0  0  0  0  0
    3.0363   -1.4531    1.8656 C   0  0  0  0  0  0  0  0  0  0  0  0
    6.7768   -1.6649    0.8633 H   0  0  0  0  0  0  0  0  0  0  0  0
    5.7808   -0.5254    0.1085 H   0  0  0  0  0  0  0  0  0  0  0  0
    4.1110    1.7552    1.4539 H   0  0  0  0  0  0  0  0  0  0  0  0
    1.7897    2.0190    0.6965 H   0  0  0  0  0  0  0  0  0  0  0  0
   -4.5771    1.3964   -0.1837 H   0  0  0  0  0  0  0  0  0  0  0  0
   -5.9120    3.3275   -0.9084 H   0  0  0  0  0  0  0  0  0  0  0  0
   -4.8060    5.4591   -1.5254 H   0  0  0  0  0  0  0  0  0  0  0  0
   -2.3342    5.6532   -1.4139 H   0  0  0  0  0  0  0  0  0  0  0  0
   -0.9685    3.7261   -0.6920 H   0  0  0  0  0  0  0  0  0  0  0  0
   -2.9667    0.0206    1.3148 H   0  0  0  0  0  0  0  0  0  0  0  0
   -3.0746   -0.4308   -0.4168 H   0  0  0  0  0  0  0  0  0  0  0  0
   -1.1780   -1.3997    1.5277 H   0  0  0  0  0  0  0  0  0  0  0  0
   -0.1672   -0.5287   -2.0253 H   0  0  0  0  0  0  0  0  0  0  0  0
    0.0274   -2.2136   -3.8139 H   0  0  0  0  0  0  0  0  0  0  0  0
   -0.6637   -4.5560   -3.4096 H   0  0  0  0  0  0  0  0  0  0  0  0
   -1.7746   -3.5385    0.6212 H   0  0  0  0  0  0  0  0  0  0  0  0
    1.0706   -2.1651    1.4519 H   0  0  0  0  0  0  0  0  0  0  0  0
    3.3734   -2.4316    2.2008 H   0  0  0  0  0  0  0  0  0  0  0  0
  1  2  1  0
  2  3  2  0
  2  4  2  0
  2  5  1  0
  5  6  2  0
  6  7  1  0
  7  8  2  0
  8  9  1  0
  9 10  1  0
 10 11  2  0
 11 12  1  0
 12 13  2  0
 13 14  1  0
 14 15  2  0
 15 16  1  0
 16 17  2  0
 11 18  1  0
 18 19  1  0
 19 20  1  0
 20 21  2  0
 21 22  1  0
 22 23  2  0
 23 24  1  0
 24 25  1  0
 24 26  2  0
  8 27  1  0
 27 28  2  0
 28  5  1  0
 19  9  1  0
 26 20  1  0
 17 12  1  0
  1 29  1  0
  1 30  1  0
  6 31  1  0
  7 32  1  0
 13 33  1  0
 14 34  1  0
 15 35  1  0
 16 36  1  0
 17 37  1  0
 18 38  1  0
 18 39  1  0
 19 40  1  0
 21 41  1  0
 22 42  1  0
 23 43  1  0
 26 44  1  0
 27 45  1  0
 28 46  1  0
M  END
$$$$
