
     RDKit          3D

 46 48  0  0  0  0  0  0  0  0999 V2000
    6.4172   -3.1636   -0.6667 C   0  0  0  0  0  0  0  0  0  0  0  0
    5.0031   -3.1732   -0.5145 O   0  0  0  0  0  0  0  0  0  0  0  0
    4.4863   -1.9383   -0.0164 C   0  0  0  0  0  0  0  0  0  0  0  0
    4.2485   -0.9310   -1.1471 C   0  0  0  0  0  0  0  0  0  0  0  0
    3.8241    0.3763   -0.6432 N   0  0  0  0  0  0  0  0  0  0  0  0
    2.4756    0.5819   -0.3941 C   0  0  0  0  0  0  0  0  0  0  0  0
    1.6008   -0.2548   -0.5583 O   0  0  0  0  0  0  0  0  0  0  0  0
    2.2530    1.9593    0.1318 C   0  0  0  0  0  0  0  0  0  0  0  0
    1.0907    2.5391    0.4616 C   0  0  0  0  0  0  0  0  0  0  0  0
   -0.2340    1.9199    0.3596 C   0  0  0  0  0  0  0  0  0  0  0  0
   -0.9480    2.0651   -0.8311 C   0  0  0  0  0  0  0  0  0  0  0  0
   -2.2230    1.5025   -0.9704 C   0  0  0  0  0  0  0  0  0  0  0  0
   -2.8325    0.7750    0.0603 C   0  0  0  0  0  0  0  0  0  0  0  0
   -4.0864    0.2273   -0.0817 N   0  0  0  0  0  0  0  0  0  0  0  0
   -4.7997    0.1400   -1.3545 C   0  0  0  0  0  0  0  0  0  0  0  0
   -5.9090   -0.8762   -1.0907 C   0  0  0  0  0  0  0  0  0  0  0  0
   -6.1914   -0.7036    0.3911 C   0  0  0  0  0  0  0  0  0  0  0  0
   -4.8010   -0.4785    0.9783 C   0  0  0  0  0  0  0  0  0  0  0  0
   -2.0945    0.6476    1.2494 C   0  0  0  0  0  0  0  0  0  0  0  0
   -0.8110    1.2081    1.4203 C   0  0  0  0  0  0  0  0  0  0  0  0
   -0.0883    1.0026    2.7232 C   0  0  0  0  0  0  0  0  0  0  0  0
    3.7661    2.7744    0.2886 S   0  0  0  0  0  0  0  0  0  0  0  0
    4.6830    1.4002   -0.3086 C   0  0  0  0  0  0  0  0  0  0  0  0
    6.3482    1.4223   -0.4111 S   0  0  0  0  0  0  0  0  0  0  0  0
    6.7274   -4.1442   -1.0376 H   0  0  0  0  0  0  0  0  0  0  0  0
    6.9043   -2.9879    0.2972 H   0  0  0  0  0  0  0  0  0  0  0  0
    6.7299   -2.4062   -1.3903 H   0  0  0  0  0  0  0  0  0  0  0  0
    3.5314   -2.1636    0.4715 H   0  0  0  0  0  0  0  0  0  0  0  0
    5.1460   -1.5336    0.7602 H   0  0  0  0  0  0  0  0  0  0  0  0
    5.1461   -0.8165   -1.7618 H   0  0  0  0  0  0  0  0  0  0  0  0
    3.4791   -1.3275   -1.8213 H   0  0  0  0  0  0  0  0  0  0  0  0
    1.0701    3.5582    0.8420 H   0  0  0  0  0  0  0  0  0  0  0  0
   -0.5249    2.6159   -1.6675 H   0  0  0  0  0  0  0  0  0  0  0  0
   -2.7362    1.6547   -1.9152 H   0  0  0  0  0  0  0  0  0  0  0  0
   -4.1633   -0.2068   -2.1758 H   0  0  0  0  0  0  0  0  0  0  0  0
   -5.2256    1.1163   -1.6123 H   0  0  0  0  0  0  0  0  0  0  0  0
   -5.5417   -1.8914   -1.2845 H   0  0  0  0  0  0  0  0  0  0  0  0
   -6.7897   -0.7061   -1.7161 H   0  0  0  0  0  0  0  0  0  0  0  0
   -6.8169    0.1829    0.5517 H   0  0  0  0  0  0  0  0  0  0  0  0
   -6.6981   -1.5663    0.8324 H   0  0  0  0  0  0  0  0  0  0  0  0
   -4.8695    0.1063    1.9017 H   0  0  0  0  0  0  0  0  0  0  0  0
   -4.3151   -1.4382    1.1893 H   0  0  0  0  0  0  0  0  0  0  0  0
   -2.5155    0.0849    2.0785 H   0  0  0  0  0  0  0  0  0  0  0  0
    0.7801    0.3526    2.5759 H   0  0  0  0  0  0  0  0  0  0  0  0
   -0.7344    0.5321    3.4719 H   0  0  0  0  0  0  0  0  0  0  0  0
    0.2389    1.9618    3.1375 H   0  0  0  0  0  0  0  0  0  0  0  0
  1  2  1  0
  2  3  1  0
  3  4  1  0
  4  5  1  0
  5  6  1  0
  6  7  2  0
  6  8  1  0
  8  9  2  3
  9 10  1  0
 10 11  2  0
 11 12  1  0
 12 13  2  0
 13 14  1  0
 14 15  1  0
 15 16  1  0
 16 17  1  0
 17 18  1  0
 13 19  1  0
 19 20  2  0
 20 21  1  0
  8 22  1  0
 22 23  1  0
 23 24  2  0
 23  5  1  0
 20 10  1  0
 18 14  1  0
  1 25  1  0
  1 26  1  0
  1 27  1  0
  3 28  1  0
  3 29  1  0
  4 30  1  0
  4 31  1  0
  9 32  1  0
 11 33  1  0
 12 34  1  0
 15 35  1  0
 15 36  1  0
 16 37  1  0
 16 38  1  0
 17 39  1  0
 17 40  1  0
 18 41  1  0
 18 42  1  0
 19 43  1  0
 21 44  1  0
 21 45  1  0
 21 46  1  0
M  END
$$$$
