
     RDKit          3D

 53 56  0  0  0  0  0  0  0  0999 V2000
    5.7304    1.9848    1.9258 C   0  0  0  0  0  0  0  0  0  0  0  0
    5.0247    0.8554    1.2364 C   0  0  0  0  0  0  0  0  0  0  0  0
    3.6519    0.8766    1.0886 C   0  0  0  0  0  0  0  0  0  0  0  0
    3.0455   -0.1969    0.4385 C   0  0  0  0  0  0  0  0  0  0  0  0
    1.5783   -0.1062    0.2545 C   0  0  0  0  0  0  0  0  0  0  0  0
    0.8827    0.0909    1.2421 O   0  0  0  0  0  0  0  0  0  0  0  0
    1.1685   -0.1717   -1.0647 N   0  0  0  0  0  0  0  0  0  0  0  0
   -0.1571   -0.1809   -1.5426 C   0  0  0  0  0  0  0  0  0  0  0  0
   -0.3437   -0.0928   -2.9243 C   0  0  0  0  0  0  0  0  0  0  0  0
   -1.6296   -0.1067   -3.4743 C   0  0  0  0  0  0  0  0  0  0  0  0
   -2.7648   -0.2205   -2.6581 C   0  0  0  0  0  0  0  0  0  0  0  0
   -4.1179   -0.2522   -3.3104 C   0  0  0  0  0  0  0  0  0  0  0  0
   -2.5712   -0.3001   -1.2679 C   0  0  0  0  0  0  0  0  0  0  0  0
   -3.9396   -0.4216   -0.1266 S   0  0  0  0  0  6  0  0  0  0  0  0
   -5.0650    0.3267   -0.6482 O   0  0  0  0  0  0  0  0  0  0  0  0
   -4.0607   -1.8179    0.2326 O   0  0  0  0  0  0  0  0  0  0  0  0
   -3.4040    0.4370    1.2444 N   0  0  0  0  0  0  0  0  0  0  0  0
   -3.2277    1.9154    1.0631 C   0  0  0  0  0  0  0  0  0  0  0  0
   -4.3486    2.6868    1.7653 C   0  0  0  0  0  0  0  0  0  0  0  0
   -4.3664    2.4749    3.1857 O   0  0  0  0  0  0  0  0  0  0  0  0
   -3.9079    1.1681    3.5671 C   0  0  0  0  0  0  0  0  0  0  0  0
   -4.1563    0.1023    2.4948 C   0  0  0  0  0  0  0  0  0  0  0  0
   -1.2749   -0.2946   -0.7196 C   0  0  0  0  0  0  0  0  0  0  0  0
    3.8023   -1.3015   -0.0130 C   0  0  0  0  0  0  0  0  0  0  0  0
    3.2653   -2.4727   -0.6087 C   0  0  0  0  0  0  0  0  0  0  0  0
    4.0939   -3.5108   -1.0304 C   0  0  0  0  0  0  0  0  0  0  0  0
    5.4654   -3.4014   -0.8570 C   0  0  0  0  0  0  0  0  0  0  0  0
    5.9972   -2.2600   -0.2530 C   0  0  0  0  0  0  0  0  0  0  0  0
    5.1942   -1.2132    0.1799 C   0  0  0  0  0  0  0  0  0  0  0  0
    5.7852   -0.1613    0.7725 N   0  0  0  0  0  0  0  0  0  0  0  0
    5.5596    2.9222    1.3868 H   0  0  0  0  0  0  0  0  0  0  0  0
    6.8099    1.8054    1.9632 H   0  0  0  0  0  0  0  0  0  0  0  0
    5.3664    2.0865    2.9537 H   0  0  0  0  0  0  0  0  0  0  0  0
    3.0609    1.7061    1.4642 H   0  0  0  0  0  0  0  0  0  0  0  0
    1.8986   -0.1709   -1.7691 H   0  0  0  0  0  0  0  0  0  0  0  0
    0.5058   -0.0083   -3.5977 H   0  0  0  0  0  0  0  0  0  0  0  0
   -1.7361   -0.0357   -4.5554 H   0  0  0  0  0  0  0  0  0  0  0  0
   -4.6384    0.6981   -3.1543 H   0  0  0  0  0  0  0  0  0  0  0  0
   -4.7187   -1.0816   -2.9231 H   0  0  0  0  0  0  0  0  0  0  0  0
   -4.0334   -0.4060   -4.3930 H   0  0  0  0  0  0  0  0  0  0  0  0
   -2.2547    2.1793    1.4956 H   0  0  0  0  0  0  0  0  0  0  0  0
   -3.1945    2.1877    0.0033 H   0  0  0  0  0  0  0  0  0  0  0  0
   -5.3306    2.3984    1.3721 H   0  0  0  0  0  0  0  0  0  0  0  0
   -4.2307    3.7624    1.5973 H   0  0  0  0  0  0  0  0  0  0  0  0
   -2.8390    1.2430    3.7975 H   0  0  0  0  0  0  0  0  0  0  0  0
   -4.4254    0.8997    4.4934 H   0  0  0  0  0  0  0  0  0  0  0  0
   -5.2304    0.0479    2.2778 H   0  0  0  0  0  0  0  0  0  0  0  0
   -3.8140   -0.8721    2.8612 H   0  0  0  0  0  0  0  0  0  0  0  0
   -1.1622   -0.4018    0.3563 H   0  0  0  0  0  0  0  0  0  0  0  0
    2.1906   -2.5985   -0.7281 H   0  0  0  0  0  0  0  0  0  0  0  0
    3.6675   -4.4035   -1.4814 H   0  0  0  0  0  0  0  0  0  0  0  0
    6.1253   -4.2050   -1.1747 H   0  0  0  0  0  0  0  0  0  0  0  0
    7.0731   -2.1890   -0.1055 H   0  0  0  0  0  0  0  0  0  0  0  0
  1  2  1  0
  2  3  2  0
  3  4  1  0
  4  5  1  0
  5  6  2  0
  5  7  1  0
  7  8  1  0
  8  9  2  0
  9 10  1  0
 10 11  2  0
 11 12  1  0
 11 13  1  0
 13 14  1  0
 14 15  2  0
 14 16  2  0
 14 17  1  0
 17 18  1  0
 18 19  1  0
 19 20  1  0
 20 21  1  0
 21 22  1  0
 13 23  2  0
  4 24  2  0
 24 25  1  0
 25 26  2  0
 26 27  1  0
 27 28  2  0
 28 29  1  0
 29 30  2  0
 30  2  1  0
 23  8  1  0
 29 24  1  0
 22 17  1  0
  1 31  1  0
  1 32  1  0
  1 33  1  0
  3 34  1  0
  7 35  1  0
  9 36  1  0
 10 37  1  0
 12 38  1  0
 12 39  1  0
 12 40  1  0
 18 41  1  0
 18 42  1  0
 19 43  1  0
 19 44  1  0
 21 45  1  0
 21 46  1  0
 22 47  1  0
 22 48  1  0
 23 49  1  0
 25 50  1  0
 26 51  1  0
 27 52  1  0
 28 53  1  0
M  END
$$$$
