
     RDKit          3D

 40 40  0  0  0  0  0  0  0  0999 V2000
   -1.5144    3.0178   -0.5911 C   0  0  0  0  0  0  0  0  0  0  0  0
   -1.0887    2.9225    0.8656 C   0  0  0  0  0  0  0  0  0  0  0  0
   -1.9412    1.9549    1.6939 C   0  0  0  0  0  0  0  0  0  0  0  0
   -1.9211    0.5042    1.2067 C   0  0  0  0  0  0  0  0  0  0  0  0
   -0.5495    0.0098    1.2566 N   0  0  0  0  0  0  0  0  0  0  0  0
   -0.2290   -1.0424    0.5641 C   0  0  0  0  0  0  0  0  0  0  0  0
    1.0787   -1.5101    0.5158 N   0  0  0  0  0  0  0  0  0  0  0  0
    2.1301   -0.7229    0.9304 N   0  0  0  0  0  0  0  0  0  0  0  0
    2.8448    0.1125    0.0330 C   0  0  0  0  0  0  0  0  0  0  0  0
    2.7901   -0.0513   -1.3577 C   0  0  0  0  0  0  0  0  0  0  0  0
    3.5603    0.7530   -2.2046 C   0  0  0  0  0  0  0  0  0  0  0  0
    4.4111    1.7123   -1.6627 C   0  0  0  0  0  0  0  0  0  0  0  0
    5.4534    2.7979   -2.8058 Br  0  0  0  0  0  0  0  0  0  0  0  0
    4.5046    1.8697   -0.2832 C   0  0  0  0  0  0  0  0  0  0  0  0
    3.7316    1.0643    0.5584 C   0  0  0  0  0  0  0  0  0  0  0  0
   -1.2442   -1.8483   -0.2660 C   0  0  0  0  0  0  0  0  0  0  0  0
   -1.0989   -2.0057   -1.4656 O   0  0  0  0  0  0  0  0  0  0  0  0
   -2.1856   -2.3818    0.5361 O   0  0  0  0  0  0  0  0  0  0  0  0
   -3.1694   -3.1929   -0.1186 C   0  0  0  0  0  0  0  0  0  0  0  0
   -2.6852   -4.6277   -0.2116 C   0  0  0  0  0  0  0  0  0  0  0  0
   -1.3339    2.0792   -1.1234 H   0  0  0  0  0  0  0  0  0  0  0  0
   -0.9414    3.8004   -1.0989 H   0  0  0  0  0  0  0  0  0  0  0  0
   -2.5768    3.2669   -0.6751 H   0  0  0  0  0  0  0  0  0  0  0  0
   -1.1627    3.9192    1.3172 H   0  0  0  0  0  0  0  0  0  0  0  0
   -0.0320    2.6359    0.9163 H   0  0  0  0  0  0  0  0  0  0  0  0
   -2.9794    2.3085    1.7049 H   0  0  0  0  0  0  0  0  0  0  0  0
   -1.5866    1.9887    2.7318 H   0  0  0  0  0  0  0  0  0  0  0  0
   -2.3479    0.4505    0.1995 H   0  0  0  0  0  0  0  0  0  0  0  0
   -2.5512   -0.0923    1.8763 H   0  0  0  0  0  0  0  0  0  0  0  0
    1.2877   -2.2045   -0.2005 H   0  0  0  0  0  0  0  0  0  0  0  0
    1.8838   -0.1852    1.7709 H   0  0  0  0  0  0  0  0  0  0  0  0
    2.1382   -0.7947   -1.8061 H   0  0  0  0  0  0  0  0  0  0  0  0
    3.4884    0.6184   -3.2805 H   0  0  0  0  0  0  0  0  0  0  0  0
    5.1755    2.6073    0.1485 H   0  0  0  0  0  0  0  0  0  0  0  0
    3.8265    1.1859    1.6348 H   0  0  0  0  0  0  0  0  0  0  0  0
   -3.4234   -2.7919   -1.1068 H   0  0  0  0  0  0  0  0  0  0  0  0
   -4.0785   -3.1491    0.4902 H   0  0  0  0  0  0  0  0  0  0  0  0
   -1.7755   -4.6965   -0.8164 H   0  0  0  0  0  0  0  0  0  0  0  0
   -3.4512   -5.2675   -0.6587 H   0  0  0  0  0  0  0  0  0  0  0  0
   -2.4371   -5.0149    0.7821 H   0  0  0  0  0  0  0  0  0  0  0  0
  1  2  1  0
  2  3  1  0
  3  4  1  0
  4  5  1  0
  5  6  2  3
  6  7  1  0
  7  8  1  0
  8  9  1  0
  9 10  2  0
 10 11  1  0
 11 12  2  0
 12 13  1  0
 12 14  1  0
 14 15  2  0
  6 16  1  0
 16 17  2  0
 16 18  1  0
 18 19  1  0
 19 20  1  0
 15  9  1  0
  1 21  1  0
  1 22  1  0
  1 23  1  0
  2 24  1  0
  2 25  1  0
  3 26  1  0
  3 27  1  0
  4 28  1  0
  4 29  1  0
  7 30  1  0
  8 31  1  0
 10 32  1  0
 11 33  1  0
 14 34  1  0
 15 35  1  0
 19 36  1  0
 19 37  1  0
 20 38  1  0
 20 39  1  0
 20 40  1  0
M  END
$$$$
