
     RDKit          3D

 49 51  0  0  0  0  0  0  0  0999 V2000
   -3.4186   -3.7739   -0.1849 C   0  0  0  0  0  0  0  0  0  0  0  0
   -2.7808   -2.5225    0.3646 C   0  0  0  0  0  0  0  0  0  0  0  0
   -2.9131   -2.2797    1.8284 C   0  0  0  0  0  0  0  0  0  0  0  0
   -2.3588   -1.1406    2.2665 C   0  0  0  0  0  0  0  0  0  0  0  0
   -2.3569   -0.7527    3.7146 C   0  0  0  0  0  0  0  0  0  0  0  0
   -1.7433   -0.2927    1.3702 N   0  0  0  0  0  0  0  0  0  0  0  0
   -1.5756   -0.6126    0.0441 C   0  0  0  0  0  0  0  0  0  0  0  0
   -0.9050    0.0543   -0.8411 N   0  0  0  0  0  0  0  0  0  0  0  0
   -0.3476    1.2389   -0.4727 C   0  0  0  0  0  0  0  0  0  0  0  0
    0.8809    1.3102   -0.0903 N   0  0  0  0  0  0  0  0  0  0  0  0
    1.8718    0.0410    0.0538 S   0  0  0  0  0  6  0  0  0  0  0  0
    3.1794    0.5876    0.3794 O   0  0  0  0  0  0  0  0  0  0  0  0
    1.2697   -0.9209    0.9600 O   0  0  0  0  0  0  0  0  0  0  0  0
    1.9592   -0.6298   -1.6119 C   0  0  0  0  0  0  0  0  0  0  0  0
    2.9195   -1.7936   -1.6326 C   0  0  0  0  0  0  0  0  0  0  0  0
    2.4568   -3.0957   -1.3908 C   0  0  0  0  0  0  0  0  0  0  0  0
    3.3409   -4.1751   -1.4074 C   0  0  0  0  0  0  0  0  0  0  0  0
    4.6943   -3.9648   -1.6630 C   0  0  0  0  0  0  0  0  0  0  0  0
    5.1660   -2.6750   -1.8990 C   0  0  0  0  0  0  0  0  0  0  0  0
    4.2842   -1.5934   -1.8837 C   0  0  0  0  0  0  0  0  0  0  0  0
   -1.1780    2.3211   -0.5909 N   0  0  0  0  0  0  0  0  0  0  0  0
   -0.9874    3.6897   -0.3238 C   0  0  0  0  0  0  0  0  0  0  0  0
    0.1830    4.2132    0.2406 C   0  0  0  0  0  0  0  0  0  0  0  0
    0.3194    5.5832    0.4985 C   0  0  0  0  0  0  0  0  0  0  0  0
   -0.7166    6.4624    0.2015 C   0  0  0  0  0  0  0  0  0  0  0  0
   -1.8946    5.9733   -0.3529 C   0  0  0  0  0  0  0  0  0  0  0  0
   -2.0262    4.6040   -0.6089 C   0  0  0  0  0  0  0  0  0  0  0  0
   -3.6718    4.0074   -1.3619 Br  0  0  0  0  0  0  0  0  0  0  0  0
   -2.1578   -1.7469   -0.4683 N   0  0  0  0  0  0  0  0  0  0  0  0
   -3.9408   -4.3355    0.5938 H   0  0  0  0  0  0  0  0  0  0  0  0
   -2.6437   -4.4107   -0.6217 H   0  0  0  0  0  0  0  0  0  0  0  0
   -4.1366   -3.5008   -0.9639 H   0  0  0  0  0  0  0  0  0  0  0  0
   -3.4059   -3.0036    2.4610 H   0  0  0  0  0  0  0  0  0  0  0  0
   -1.3298   -0.6510    4.0803 H   0  0  0  0  0  0  0  0  0  0  0  0
   -2.8700    0.2048    3.8520 H   0  0  0  0  0  0  0  0  0  0  0  0
   -2.8628   -1.4967    4.3390 H   0  0  0  0  0  0  0  0  0  0  0  0
   -1.1247    0.4050    1.7669 H   0  0  0  0  0  0  0  0  0  0  0  0
    2.2984    0.1693   -2.2788 H   0  0  0  0  0  0  0  0  0  0  0  0
    0.9752   -0.9638   -1.9414 H   0  0  0  0  0  0  0  0  0  0  0  0
    1.4035   -3.2758   -1.1799 H   0  0  0  0  0  0  0  0  0  0  0  0
    2.9734   -5.1796   -1.2152 H   0  0  0  0  0  0  0  0  0  0  0  0
    5.3831   -4.8053   -1.6711 H   0  0  0  0  0  0  0  0  0  0  0  0
    6.2234   -2.5094   -2.0884 H   0  0  0  0  0  0  0  0  0  0  0  0
    4.6734   -0.5916   -2.0566 H   0  0  0  0  0  0  0  0  0  0  0  0
   -2.0685    2.1064   -1.0268 H   0  0  0  0  0  0  0  0  0  0  0  0
    1.0244    3.5767    0.4980 H   0  0  0  0  0  0  0  0  0  0  0  0
    1.2433    5.9579    0.9341 H   0  0  0  0  0  0  0  0  0  0  0  0
   -0.6056    7.5249    0.4029 H   0  0  0  0  0  0  0  0  0  0  0  0
   -2.7034    6.6624   -0.5819 H   0  0  0  0  0  0  0  0  0  0  0  0
  1  2  1  0
  2  3  1  0
  3  4  2  0
  4  5  1  0
  4  6  1  0
  6  7  1  0
  7  8  2  3
  8  9  1  0
  9 10  2  3
 10 11  1  0
 11 12  2  0
 11 13  2  0
 11 14  1  0
 14 15  1  0
 15 16  2  0
 16 17  1  0
 17 18  2  0
 18 19  1  0
 19 20  2  0
  9 21  1  0
 21 22  1  0
 22 23  2  0
 23 24  1  0
 24 25  2  0
 25 26  1  0
 26 27  2  0
 27 28  1  0
  7 29  1  0
 29  2  2  0
 20 15  1  0
 27 22  1  0
  1 30  1  0
  1 31  1  0
  1 32  1  0
  3 33  1  0
  5 34  1  0
  5 35  1  0
  5 36  1  0
  6 37  1  0
 14 38  1  0
 14 39  1  0
 16 40  1  0
 17 41  1  0
 18 42  1  0
 19 43  1  0
 20 44  1  0
 21 45  1  0
 23 46  1  0
 24 47  1  0
 25 48  1  0
 26 49  1  0
M  END
$$$$
