
     RDKit          3D

 48 50  0  0  0  0  0  0  0  0999 V2000
   -0.3975    0.7875    2.2194 C   0  0  0  0  0  0  0  0  0  0  0  0
   -0.1036    0.5418    0.9343 C   0  0  0  0  0  0  0  0  0  0  0  0
    1.2575    0.4878    0.3476 C   0  0  0  0  0  0  0  0  0  0  0  0
    2.4177    0.5825    1.0215 C   0  0  0  0  0  0  0  0  0  0  0  0
    3.7047    0.5165    0.4174 C   0  0  0  0  0  0  0  0  0  0  0  0
    4.8751   -0.5975    1.0255 S   0  0  0  0  0  0  0  0  0  0  0  0
    6.0002   -0.0589   -0.1296 C   0  0  0  0  0  0  0  0  0  0  0  0
    7.2658   -0.5757   -0.2451 N   0  0  0  0  0  0  0  0  0  0  0  0
    7.8357   -1.5625    0.5250 C   0  0  0  0  0  0  0  0  0  0  0  0
    9.2522   -1.8674    0.1026 C   0  0  0  0  0  0  0  0  0  0  0  0
    7.3341   -2.1533    1.4741 O   0  0  0  0  0  0  0  0  0  0  0  0
    5.5964    0.9011   -0.9275 N   0  0  0  0  0  0  0  0  0  0  0  0
    4.3053    1.2325   -0.6049 C   0  0  0  0  0  0  0  0  0  0  0  0
    3.6790    2.2237   -1.2553 O   0  0  0  0  0  0  0  0  0  0  0  0
    1.0960    0.2650   -1.0863 C   0  0  0  0  0  0  0  0  0  0  0  0
   -0.2262    0.1867   -1.3367 C   0  0  0  0  0  0  0  0  0  0  0  0
   -0.8207   -0.1110   -2.6717 C   0  0  0  0  0  0  0  0  0  0  0  0
   -0.9751    0.3452   -0.1514 N   0  0  0  0  0  0  0  0  0  0  0  0
   -2.3820    0.2056   -0.0626 C   0  0  0  0  0  0  0  0  0  0  0  0
   -3.2376    1.0242   -0.8099 C   0  0  0  0  0  0  0  0  0  0  0  0
   -4.6300    0.8849   -0.7312 C   0  0  0  0  0  0  0  0  0  0  0  0
   -5.1981   -0.0806    0.0984 C   0  0  0  0  0  0  0  0  0  0  0  0
   -6.5858   -0.2904    0.2327 N   0  0  0  0  0  0  0  0  0  0  0  0
   -7.6067    0.3933   -0.4026 C   0  0  0  0  0  0  0  0  0  0  0  0
   -8.9686   -0.1164   -0.0003 C   0  0  0  0  0  0  0  0  0  0  0  0
   -7.4953    1.3263   -1.1893 O   0  0  0  0  0  0  0  0  0  0  0  0
   -4.3514   -0.9025    0.8505 C   0  0  0  0  0  0  0  0  0  0  0  0
   -2.9613   -0.7594    0.7714 C   0  0  0  0  0  0  0  0  0  0  0  0
    0.3618    0.9530    2.9728 H   0  0  0  0  0  0  0  0  0  0  0  0
   -1.4265    0.8568    2.5538 H   0  0  0  0  0  0  0  0  0  0  0  0
    2.4069    0.6851    2.1020 H   0  0  0  0  0  0  0  0  0  0  0  0
    7.8022   -0.1429   -0.9832 H   0  0  0  0  0  0  0  0  0  0  0  0
    9.4649   -2.9241    0.2896 H   0  0  0  0  0  0  0  0  0  0  0  0
    9.4002   -1.6779   -0.9644 H   0  0  0  0  0  0  0  0  0  0  0  0
    9.9416   -1.2474    0.6817 H   0  0  0  0  0  0  0  0  0  0  0  0
    4.3175    2.5750   -1.8980 H   0  0  0  0  0  0  0  0  0  0  0  0
    1.8891    0.1473   -1.8054 H   0  0  0  0  0  0  0  0  0  0  0  0
   -1.5028   -0.9652   -2.6150 H   0  0  0  0  0  0  0  0  0  0  0  0
   -1.3657    0.7546   -3.0587 H   0  0  0  0  0  0  0  0  0  0  0  0
   -0.0455   -0.3624   -3.4040 H   0  0  0  0  0  0  0  0  0  0  0  0
   -2.8235    1.8006   -1.4486 H   0  0  0  0  0  0  0  0  0  0  0  0
   -5.2382    1.5539   -1.3317 H   0  0  0  0  0  0  0  0  0  0  0  0
   -6.8604   -1.0261    0.8710 H   0  0  0  0  0  0  0  0  0  0  0  0
   -9.2618    0.3422    0.9477 H   0  0  0  0  0  0  0  0  0  0  0  0
   -9.6978    0.1470   -0.7720 H   0  0  0  0  0  0  0  0  0  0  0  0
   -8.9632   -1.2053    0.1027 H   0  0  0  0  0  0  0  0  0  0  0  0
   -4.7541   -1.6704    1.5055 H   0  0  0  0  0  0  0  0  0  0  0  0
   -2.3245   -1.4230    1.3517 H   0  0  0  0  0  0  0  0  0  0  0  0
  1  2  2  0
  2  3  1  0
  3  4  2  3
  4  5  1  0
  5  6  1  0
  6  7  1  0
  7  8  1  0
  8  9  1  0
  9 10  1  0
  9 11  2  0
  7 12  2  0
 12 13  1  0
 13 14  1  0
  3 15  1  0
 15 16  2  0
 16 17  1  0
 16 18  1  0
 18 19  1  0
 19 20  2  0
 20 21  1  0
 21 22  2  0
 22 23  1  0
 23 24  1  0
 24 25  1  0
 24 26  2  0
 22 27  1  0
 27 28  2  0
 18  2  1  0
 28 19  1  0
 13  5  2  0
  1 29  1  0
  1 30  1  0
  4 31  1  0
  8 32  1  0
 10 33  1  0
 10 34  1  0
 10 35  1  0
 14 36  1  0
 15 37  1  0
 17 38  1  0
 17 39  1  0
 17 40  1  0
 20 41  1  0
 21 42  1  0
 23 43  1  0
 25 44  1  0
 25 45  1  0
 25 46  1  0
 27 47  1  0
 28 48  1  0
M  END
$$$$
