
     RDKit          3D

 37 39  0  0  0  0  0  0  0  0999 V2000
   -0.6471   -0.6144    0.4933 C   0  0  0  0  0  0  0  0  0  0  0  0
   -0.3074    0.7195   -0.1399 C   0  0  0  0  0  0  0  0  0  0  0  0
    0.8560    1.3063   -0.0943 N   0  0  0  0  0  0  0  0  0  0  0  0
    1.9202    0.6485    0.4629 N   0  0  0  0  0  0  0  0  0  0  0  0
    2.4227   -0.5198   -0.1093 C   0  0  0  0  0  0  0  0  0  0  0  0
    1.8725   -1.1755   -0.9879 O   0  0  0  0  0  0  0  0  0  0  0  0
    3.7524   -0.9590    0.4001 C   0  0  0  0  0  0  0  0  0  0  0  0
    4.5725   -1.7187   -0.4464 C   0  0  0  0  0  0  0  0  0  0  0  0
    5.8243   -2.1554   -0.0098 C   0  0  0  0  0  0  0  0  0  0  0  0
    6.2581   -1.8425    1.2780 C   0  0  0  0  0  0  0  0  0  0  0  0
    5.4354   -1.1010    2.1254 C   0  0  0  0  0  0  0  0  0  0  0  0
    5.9683   -0.7312    3.7197 Cl  0  0  0  0  0  0  0  0  0  0  0  0
    4.1832   -0.6588    1.6984 C   0  0  0  0  0  0  0  0  0  0  0  0
   -1.4156    1.4588   -0.8533 C   0  0  0  0  0  0  0  0  0  0  0  0
   -2.1492    0.6438   -1.8953 C   0  0  0  0  0  0  0  0  0  0  0  0
   -1.6799    0.0216   -2.8292 O   0  0  0  0  0  0  0  0  0  0  0  0
   -3.5832    0.7124   -1.6183 C   0  0  0  0  0  0  0  0  0  0  0  0
   -4.6260    0.1452   -2.3271 C   0  0  0  0  0  0  0  0  0  0  0  0
   -5.9217    0.3517   -1.8442 C   0  0  0  0  0  0  0  0  0  0  0  0
   -6.1446    1.1081   -0.6766 C   0  0  0  0  0  0  0  0  0  0  0  0
   -5.0754    1.6703    0.0272 C   0  0  0  0  0  0  0  0  0  0  0  0
   -3.8028    1.4573   -0.4695 C   0  0  0  0  0  0  0  0  0  0  0  0
   -2.5239    1.9129    0.0725 C   0  0  0  0  0  0  0  0  0  0  0  0
   -2.4199    2.5388    1.1113 O   0  0  0  0  0  0  0  0  0  0  0  0
   -0.6481   -1.3925   -0.2742 H   0  0  0  0  0  0  0  0  0  0  0  0
    0.0535   -0.8802    1.2874 H   0  0  0  0  0  0  0  0  0  0  0  0
   -1.6443   -0.5706    0.9400 H   0  0  0  0  0  0  0  0  0  0  0  0
    2.6251    1.2928    0.8114 H   0  0  0  0  0  0  0  0  0  0  0  0
    4.2356   -1.9701   -1.4515 H   0  0  0  0  0  0  0  0  0  0  0  0
    6.4570   -2.7411   -0.6726 H   0  0  0  0  0  0  0  0  0  0  0  0
    7.2326   -2.1855    1.6168 H   0  0  0  0  0  0  0  0  0  0  0  0
    3.5488   -0.1100    2.3885 H   0  0  0  0  0  0  0  0  0  0  0  0
   -1.0178    2.3506   -1.3531 H   0  0  0  0  0  0  0  0  0  0  0  0
   -4.4425   -0.4392   -3.2241 H   0  0  0  0  0  0  0  0  0  0  0  0
   -6.7698   -0.0782   -2.3750 H   0  0  0  0  0  0  0  0  0  0  0  0
   -7.1625    1.2538   -0.3186 H   0  0  0  0  0  0  0  0  0  0  0  0
   -5.2361    2.2514    0.9305 H   0  0  0  0  0  0  0  0  0  0  0  0
  1  2  1  0
  2  3  2  3
  3  4  1  0
  4  5  1  0
  5  6  2  0
  5  7  1  0
  7  8  2  0
  8  9  1  0
  9 10  2  0
 10 11  1  0
 11 12  1  0
 11 13  2  0
  2 14  1  0
 14 15  1  0
 15 16  2  0
 15 17  1  0
 17 18  2  0
 18 19  1  0
 19 20  2  0
 20 21  1  0
 21 22  2  0
 22 23  1  0
 23 24  2  0
 13  7  1  0
 23 14  1  0
 22 17  1  0
  1 25  1  0
  1 26  1  0
  1 27  1  0
  4 28  1  0
  8 29  1  0
  9 30  1  0
 10 31  1  0
 13 32  1  0
 14 33  1  0
 18 34  1  0
 19 35  1  0
 20 36  1  0
 21 37  1  0
M  END
$$$$
