
     RDKit          3D

 48 50  0  0  0  0  0  0  0  0999 V2000
    6.4160   -0.0602   -0.1939 C   0  0  0  0  0  0  0  0  0  0  0  0
    4.9705   -0.4285   -0.0296 C   0  0  0  0  0  0  0  0  0  0  0  0
    4.5811   -1.7695    0.0037 C   0  0  0  0  0  0  0  0  0  0  0  0
    3.2385   -2.1607    0.1892 C   0  0  0  0  0  0  0  0  0  0  0  0
    2.9090   -3.6274    0.1921 C   0  0  0  0  0  0  0  0  0  0  0  0
    2.2891   -1.1256    0.3427 C   0  0  0  0  0  0  0  0  0  0  0  0
    0.5811   -1.2132    0.5733 S   0  0  0  0  0  0  0  0  0  0  0  0
    0.4698    0.4948    0.6116 C   0  0  0  0  0  0  0  0  0  0  0  0
   -0.7827    1.0915    0.7781 N   0  0  0  0  0  0  0  0  0  0  0  0
   -1.9644    0.3933    1.2934 C   0  0  0  0  0  0  0  0  0  0  0  0
   -2.8902   -0.0612    0.1611 C   0  0  0  0  0  0  0  0  0  0  0  0
   -4.1052   -0.8087    0.7231 C   0  0  0  0  0  0  0  0  0  0  0  0
   -5.0784   -1.1853   -0.3152 N   0  0  0  0  0  0  0  0  0  0  0  0
   -6.3265   -1.6375    0.3073 C   0  0  0  0  0  0  0  0  0  0  0  0
   -4.5666   -2.2306   -1.2042 C   0  0  0  0  0  0  0  0  0  0  0  0
   -0.9132    2.4836    0.5768 C   0  0  0  0  0  0  0  0  0  0  0  0
   -1.8063    3.1138    1.1519 O   0  0  0  0  0  0  0  0  0  0  0  0
   -0.0485    3.1745   -0.3727 C   0  0  0  0  0  0  0  0  0  0  0  0
    0.6275    4.3669   -0.1822 C   0  0  0  0  0  0  0  0  0  0  0  0
    1.3422    4.7770   -1.3473 C   0  0  0  0  0  0  0  0  0  0  0  0
    1.1380    3.9033   -2.3845 C   0  0  0  0  0  0  0  0  0  0  0  0
    1.9270    4.1158   -4.1121 Br  0  0  0  0  0  0  0  0  0  0  0  0
    0.0964    2.6259   -1.9953 S   0  0  0  0  0  0  0  0  0  0  0  0
    1.6147    1.1223    0.5008 N   0  0  0  0  0  0  0  0  0  0  0  0
    2.6514    0.2226    0.3287 C   0  0  0  0  0  0  0  0  0  0  0  0
    4.0049    0.5691    0.1482 C   0  0  0  0  0  0  0  0  0  0  0  0
    6.5194    0.9308   -0.6484 H   0  0  0  0  0  0  0  0  0  0  0  0
    6.9132   -0.0546    0.7809 H   0  0  0  0  0  0  0  0  0  0  0  0
    6.9271   -0.7727   -0.8499 H   0  0  0  0  0  0  0  0  0  0  0  0
    5.3401   -2.5431   -0.1188 H   0  0  0  0  0  0  0  0  0  0  0  0
    3.0865   -4.0500   -0.8021 H   0  0  0  0  0  0  0  0  0  0  0  0
    1.8669   -3.8191    0.4608 H   0  0  0  0  0  0  0  0  0  0  0  0
    3.5381   -4.1525    0.9186 H   0  0  0  0  0  0  0  0  0  0  0  0
   -2.5198    1.0617    1.9623 H   0  0  0  0  0  0  0  0  0  0  0  0
   -1.6635   -0.4520    1.9218 H   0  0  0  0  0  0  0  0  0  0  0  0
   -3.2232    0.8115   -0.4147 H   0  0  0  0  0  0  0  0  0  0  0  0
   -2.3286   -0.6993   -0.5292 H   0  0  0  0  0  0  0  0  0  0  0  0
   -4.5962   -0.1396    1.4422 H   0  0  0  0  0  0  0  0  0  0  0  0
   -3.7763   -1.6922    1.2860 H   0  0  0  0  0  0  0  0  0  0  0  0
   -6.7597   -0.8426    0.9248 H   0  0  0  0  0  0  0  0  0  0  0  0
   -6.1765   -2.5221    0.9372 H   0  0  0  0  0  0  0  0  0  0  0  0
   -7.0742   -1.8788   -0.4566 H   0  0  0  0  0  0  0  0  0  0  0  0
   -4.2726   -3.1324   -0.6553 H   0  0  0  0  0  0  0  0  0  0  0  0
   -5.3258   -2.5124   -1.9430 H   0  0  0  0  0  0  0  0  0  0  0  0
   -3.7061   -1.8775   -1.7810 H   0  0  0  0  0  0  0  0  0  0  0  0
    0.6201    4.9047    0.7587 H   0  0  0  0  0  0  0  0  0  0  0  0
    1.9578    5.6655   -1.4097 H   0  0  0  0  0  0  0  0  0  0  0  0
    4.2782    1.6204    0.1438 H   0  0  0  0  0  0  0  0  0  0  0  0
  1  2  1  0
  2  3  2  0
  3  4  1  0
  4  5  1  0
  4  6  2  0
  6  7  1  0
  7  8  1  0
  8  9  1  0
  9 10  1  0
 10 11  1  0
 11 12  1  0
 12 13  1  0
 13 14  1  0
 13 15  1  0
  9 16  1  0
 16 17  2  0
 16 18  1  0
 18 19  2  0
 19 20  1  0
 20 21  2  0
 21 22  1  0
 21 23  1  0
  8 24  2  0
 24 25  1  0
 25 26  2  0
 26  2  1  0
 25  6  1  0
 23 18  1  0
  1 27  1  0
  1 28  1  0
  1 29  1  0
  3 30  1  0
  5 31  1  0
  5 32  1  0
  5 33  1  0
 10 34  1  0
 10 35  1  0
 11 36  1  0
 11 37  1  0
 12 38  1  0
 12 39  1  0
 14 40  1  0
 14 41  1  0
 14 42  1  0
 15 43  1  0
 15 44  1  0
 15 45  1  0
 19 46  1  0
 20 47  1  0
 26 48  1  0
M  END
$$$$
