
     RDKit          3D

 59 62  0  0  0  0  0  0  0  0999 V2000
   -3.9178   -0.1874   -1.9823 C   0  0  0  0  0  0  0  0  0  0  0  0
   -4.5057    0.8422   -1.0104 C   0  0  0  0  0  0  0  0  0  0  0  0
   -4.0155    2.2618   -1.3412 C   0  0  0  0  0  0  0  0  0  0  0  0
   -3.0928    2.8269   -0.2646 C   0  0  0  0  0  0  0  0  0  0  0  0
   -2.1240    1.7652    0.2527 C   0  0  0  0  0  0  0  0  0  0  0  0
   -2.7674    0.5454    0.7822 N   0  0  0  0  0  0  0  0  0  0  0  0
   -2.5387    0.4120    2.2364 C   0  0  0  0  0  0  0  0  0  0  0  0
   -2.8243   -0.9917    2.7999 C   0  0  0  0  0  0  0  0  0  0  0  0
   -1.8915   -2.0664    2.2362 C   0  0  0  0  0  0  0  0  0  0  0  0
   -2.1867   -2.2798    0.8118 N   0  0  0  0  0  0  0  0  0  0  0  0
   -1.1519   -3.2676   -0.0741 S   0  0  0  0  0  6  0  0  0  0  0  0
   -0.8894   -4.4606    0.7001 O   0  0  0  0  0  0  0  0  0  0  0  0
   -1.6697   -3.3282   -1.4232 O   0  0  0  0  0  0  0  0  0  0  0  0
    0.3387   -2.2965   -0.1288 C   0  0  0  0  0  0  0  0  0  0  0  0
    1.4251   -2.6305    0.6980 C   0  0  0  0  0  0  0  0  0  0  0  0
    2.5977   -1.8686    0.6564 C   0  0  0  0  0  0  0  0  0  0  0  0
    2.6644   -0.8000   -0.2244 C   0  0  0  0  0  0  0  0  0  0  0  0
    1.5852   -0.4852   -1.0547 C   0  0  0  0  0  0  0  0  0  0  0  0
    0.4117   -1.2227   -1.0230 C   0  0  0  0  0  0  0  0  0  0  0  0
    1.8774    0.7152   -1.8955 C   0  0  0  0  0  0  0  0  0  0  0  0
    3.3517    0.9823   -1.5671 C   0  0  0  0  0  0  0  0  0  0  0  0
    3.7263    0.0911   -0.4577 N   0  0  0  0  0  0  0  0  0  0  0  0
    4.9392    0.0935    0.2048 C   0  0  0  0  0  0  0  0  0  0  0  0
    5.2505   -0.6345    1.1393 O   0  0  0  0  0  0  0  0  0  0  0  0
    5.9296    1.1052   -0.2721 C   0  0  0  0  0  0  0  0  0  0  0  0
    7.4106    0.7957   -0.2204 C   0  0  0  0  0  0  0  0  0  0  0  0
    6.7132    0.8688   -1.5442 C   0  0  0  0  0  0  0  0  0  0  0  0
   -4.2074    0.4766    0.4543 C   0  0  0  0  0  0  0  0  0  0  0  0
   -4.2773   -1.1941   -1.7448 H   0  0  0  0  0  0  0  0  0  0  0  0
   -4.2220    0.0398   -3.0104 H   0  0  0  0  0  0  0  0  0  0  0  0
   -2.8245   -0.1997   -1.9537 H   0  0  0  0  0  0  0  0  0  0  0  0
   -5.5949    0.8197   -1.1484 H   0  0  0  0  0  0  0  0  0  0  0  0
   -3.4994    2.2769   -2.3092 H   0  0  0  0  0  0  0  0  0  0  0  0
   -4.8768    2.9325   -1.4491 H   0  0  0  0  0  0  0  0  0  0  0  0
   -3.6905    3.2176    0.5687 H   0  0  0  0  0  0  0  0  0  0  0  0
   -2.5346    3.6784   -0.6698 H   0  0  0  0  0  0  0  0  0  0  0  0
   -1.4769    1.4537   -0.5776 H   0  0  0  0  0  0  0  0  0  0  0  0
   -1.4537    2.2289    0.9868 H   0  0  0  0  0  0  0  0  0  0  0  0
   -3.1321    1.1545    2.7862 H   0  0  0  0  0  0  0  0  0  0  0  0
   -1.4855    0.6285    2.4595 H   0  0  0  0  0  0  0  0  0  0  0  0
   -3.8715   -1.2706    2.6405 H   0  0  0  0  0  0  0  0  0  0  0  0
   -2.6781   -0.9522    3.8870 H   0  0  0  0  0  0  0  0  0  0  0  0
   -2.0492   -3.0043    2.7784 H   0  0  0  0  0  0  0  0  0  0  0  0
   -0.8539   -1.7520    2.3785 H   0  0  0  0  0  0  0  0  0  0  0  0
   -2.3753   -1.3979    0.3159 H   0  0  0  0  0  0  0  0  0  0  0  0
    1.3654   -3.4802    1.3756 H   0  0  0  0  0  0  0  0  0  0  0  0
    3.4308   -2.1328    1.3002 H   0  0  0  0  0  0  0  0  0  0  0  0
   -0.4233   -0.9747   -1.6721 H   0  0  0  0  0  0  0  0  0  0  0  0
    1.7353    0.5179   -2.9617 H   0  0  0  0  0  0  0  0  0  0  0  0
    1.2500    1.5577   -1.5889 H   0  0  0  0  0  0  0  0  0  0  0  0
    3.9905    0.7498   -2.4268 H   0  0  0  0  0  0  0  0  0  0  0  0
    3.5224    2.0266   -1.2857 H   0  0  0  0  0  0  0  0  0  0  0  0
    5.6630    2.1269   -0.0212 H   0  0  0  0  0  0  0  0  0  0  0  0
    8.0860    1.5989    0.0494 H   0  0  0  0  0  0  0  0  0  0  0  0
    7.7197   -0.1799    0.1378 H   0  0  0  0  0  0  0  0  0  0  0  0
    6.9191    1.7213   -2.1802 H   0  0  0  0  0  0  0  0  0  0  0  0
    6.5646   -0.0630   -2.0797 H   0  0  0  0  0  0  0  0  0  0  0  0
   -4.7834    1.1457    1.1085 H   0  0  0  0  0  0  0  0  0  0  0  0
   -4.5829   -0.5363    0.6388 H   0  0  0  0  0  0  0  0  0  0  0  0
  1  2  1  0
  2  3  1  0
  3  4  1  0
  4  5  1  0
  5  6  1  0
  6  7  1  0
  7  8  1  0
  8  9  1  0
  9 10  1  0
 10 11  1  0
 11 12  2  0
 11 13  2  0
 11 14  1  0
 14 15  2  0
 15 16  1  0
 16 17  2  0
 17 18  1  0
 18 19  2  0
 18 20  1  0
 20 21  1  0
 21 22  1  0
 22 23  1  0
 23 24  2  0
 23 25  1  0
 25 26  1  0
 26 27  1  0
  6 28  1  0
 28  2  1  0
 19 14  1  0
 27 25  1  0
 22 17  1  0
  1 29  1  0
  1 30  1  0
  1 31  1  0
  2 32  1  0
  3 33  1  0
  3 34  1  0
  4 35  1  0
  4 36  1  0
  5 37  1  0
  5 38  1  0
  7 39  1  0
  7 40  1  0
  8 41  1  0
  8 42  1  0
  9 43  1  0
  9 44  1  0
 10 45  1  0
 15 46  1  0
 16 47  1  0
 19 48  1  0
 20 49  1  0
 20 50  1  0
 21 51  1  0
 21 52  1  0
 25 53  1  0
 26 54  1  0
 26 55  1  0
 27 56  1  0
 27 57  1  0
 28 58  1  0
 28 59  1  0
M  END
$$$$
