
     RDKit          3D

 37 40  0  0  0  0  0  0  0  0999 V2000
    5.5614    2.4896   -1.0314 C   0  0  0  0  0  0  0  0  0  0  0  0
    4.5334    1.4517   -0.6820 C   0  0  0  0  0  0  0  0  0  0  0  0
    4.5869    0.1860   -1.2716 C   0  0  0  0  0  0  0  0  0  0  0  0
    3.6557   -0.8037   -0.9353 C   0  0  0  0  0  0  0  0  0  0  0  0
    2.6552   -0.5307    0.0172 C   0  0  0  0  0  0  0  0  0  0  0  0
    1.6763   -1.4113    0.4429 N   0  0  0  0  0  0  0  0  0  0  0  0
    0.9204   -0.8237    1.3296 C   0  0  0  0  0  0  0  0  0  0  0  0
   -0.1613   -1.3094    2.0081 N   0  0  0  0  0  0  0  0  0  0  0  0
   -0.7231   -2.5356    1.7403 C   0  0  0  0  0  0  0  0  0  0  0  0
   -0.3015   -3.3631    0.9339 O   0  0  0  0  0  0  0  0  0  0  0  0
   -1.9377   -2.8933    2.5909 C   0  0  0  0  0  0  0  0  0  0  0  0
   -2.8711   -1.4760    3.2318 S   0  0  0  0  0  0  0  0  0  0  0  0
   -3.2833   -0.7121    1.7254 C   0  0  0  0  0  0  0  0  0  0  0  0
   -2.7778    0.4552    1.3800 N   0  0  0  0  0  0  0  0  0  0  0  0
   -3.2844    0.6638    0.1222 C   0  0  0  0  0  0  0  0  0  0  0  0
   -3.1152    1.7245   -0.7761 C   0  0  0  0  0  0  0  0  0  0  0  0
   -3.7698    1.6500   -2.0154 C   0  0  0  0  0  0  0  0  0  0  0  0
   -4.5695    0.5485   -2.3482 C   0  0  0  0  0  0  0  0  0  0  0  0
   -4.7471   -0.5196   -1.4602 C   0  0  0  0  0  0  0  0  0  0  0  0
   -4.0829   -0.4069   -0.2456 C   0  0  0  0  0  0  0  0  0  0  0  0
   -4.0817   -1.3006    0.7846 O   0  0  0  0  0  0  0  0  0  0  0  0
    1.3131    0.7858    1.7308 S   0  0  0  0  0  0  0  0  0  0  0  0
    2.6216    0.7336    0.6097 C   0  0  0  0  0  0  0  0  0  0  0  0
    3.5514    1.7352    0.2809 C   0  0  0  0  0  0  0  0  0  0  0  0
    6.4275    2.3955   -0.3692 H   0  0  0  0  0  0  0  0  0  0  0  0
    5.8938    2.3765   -2.0687 H   0  0  0  0  0  0  0  0  0  0  0  0
    5.1473    3.4985   -0.9319 H   0  0  0  0  0  0  0  0  0  0  0  0
    5.3570   -0.0470   -2.0047 H   0  0  0  0  0  0  0  0  0  0  0  0
    3.6959   -1.7846   -1.3989 H   0  0  0  0  0  0  0  0  0  0  0  0
   -0.6349   -0.6563    2.6191 H   0  0  0  0  0  0  0  0  0  0  0  0
   -1.5871   -3.4894    3.4392 H   0  0  0  0  0  0  0  0  0  0  0  0
   -2.6116   -3.5139    1.9908 H   0  0  0  0  0  0  0  0  0  0  0  0
   -2.4932    2.5744   -0.5185 H   0  0  0  0  0  0  0  0  0  0  0  0
   -3.6506    2.4618   -2.7307 H   0  0  0  0  0  0  0  0  0  0  0  0
   -5.0611    0.5201   -3.3194 H   0  0  0  0  0  0  0  0  0  0  0  0
   -5.3575   -1.3806   -1.7021 H   0  0  0  0  0  0  0  0  0  0  0  0
    3.5053    2.7072    0.7637 H   0  0  0  0  0  0  0  0  0  0  0  0
  1  2  1  0
  2  3  2  0
  3  4  1  0
  4  5  2  0
  5  6  1  0
  6  7  2  0
  7  8  1  0
  8  9  1  0
  9 10  2  0
  9 11  1  0
 11 12  1  0
 12 13  1  0
 13 14  2  0
 14 15  1  0
 15 16  2  0
 16 17  1  0
 17 18  2  0
 18 19  1  0
 19 20  2  0
 20 21  1  0
  7 22  1  0
 22 23  1  0
 23 24  2  0
 24  2  1  0
 23  5  1  0
 21 13  1  0
 20 15  1  0
  1 25  1  0
  1 26  1  0
  1 27  1  0
  3 28  1  0
  4 29  1  0
  8 30  1  0
 11 31  1  0
 11 32  1  0
 16 33  1  0
 17 34  1  0
 18 35  1  0
 19 36  1  0
 24 37  1  0
M  END
$$$$
