
     RDKit          3D

 37 39  0  0  0  0  0  0  0  0999 V2000
   -2.2654   -3.1899   -2.9983 C   0  0  0  0  0  0  0  0  0  0  0  0
   -3.0645   -2.0211   -3.1076 O   0  0  0  0  0  0  0  0  0  0  0  0
   -2.6405   -0.8988   -2.4477 C   0  0  0  0  0  0  0  0  0  0  0  0
   -1.4624   -0.7995   -1.7030 C   0  0  0  0  0  0  0  0  0  0  0  0
   -1.1192    0.4016   -1.0587 C   0  0  0  0  0  0  0  0  0  0  0  0
    0.1305    0.5338   -0.2927 C   0  0  0  0  0  0  0  0  0  0  0  0
    0.5351   -0.3838    0.6010 C   0  0  0  0  0  0  0  0  0  0  0  0
    1.7321   -0.3117    1.3779 C   0  0  0  0  0  0  0  0  0  0  0  0
    2.0870   -1.2467    2.2388 N   0  0  0  0  0  0  0  0  0  0  0  0
    3.2851   -0.9329    2.8561 C   0  0  0  0  0  0  0  0  0  0  0  0
    3.9455   -1.7137    3.8263 C   0  0  0  0  0  0  0  0  0  0  0  0
    5.1572   -1.2718    4.3678 C   0  0  0  0  0  0  0  0  0  0  0  0
    5.7146   -0.0660    3.9545 C   0  0  0  0  0  0  0  0  0  0  0  0
    5.0778    0.7257    2.9934 C   0  0  0  0  0  0  0  0  0  0  0  0
    3.8614    0.2706    2.4575 C   0  0  0  0  0  0  0  0  0  0  0  0
    2.8521    1.0047    1.2786 S   0  0  0  0  0  0  0  0  0  0  0  0
   -1.9541    1.5224   -1.1833 C   0  0  0  0  0  0  0  0  0  0  0  0
   -3.1336    1.4406   -1.9220 C   0  0  0  0  0  0  0  0  0  0  0  0
   -4.0382    2.4552   -2.1137 O   0  0  0  0  0  0  0  0  0  0  0  0
   -3.7537    3.6964   -1.4787 C   0  0  0  0  0  0  0  0  0  0  0  0
   -3.4636    0.2287   -2.5457 C   0  0  0  0  0  0  0  0  0  0  0  0
   -4.6285    0.1580   -3.2730 O   0  0  0  0  0  0  0  0  0  0  0  0
   -2.1866   -3.5198   -1.9571 H   0  0  0  0  0  0  0  0  0  0  0  0
   -1.2758   -3.0336   -3.4401 H   0  0  0  0  0  0  0  0  0  0  0  0
   -2.7589   -3.9869   -3.5627 H   0  0  0  0  0  0  0  0  0  0  0  0
   -0.7875   -1.6454   -1.6210 H   0  0  0  0  0  0  0  0  0  0  0  0
    0.6934    1.4417   -0.4905 H   0  0  0  0  0  0  0  0  0  0  0  0
   -0.0728   -1.2658    0.7872 H   0  0  0  0  0  0  0  0  0  0  0  0
    3.5062   -2.6536    4.1452 H   0  0  0  0  0  0  0  0  0  0  0  0
    5.6637   -1.8770    5.1161 H   0  0  0  0  0  0  0  0  0  0  0  0
    6.6577    0.2667    4.3832 H   0  0  0  0  0  0  0  0  0  0  0  0
    5.5136    1.6664    2.6714 H   0  0  0  0  0  0  0  0  0  0  0  0
   -1.6659    2.4438   -0.6875 H   0  0  0  0  0  0  0  0  0  0  0  0
   -2.8241    4.1306   -1.8610 H   0  0  0  0  0  0  0  0  0  0  0  0
   -3.7214    3.5846   -0.3899 H   0  0  0  0  0  0  0  0  0  0  0  0
   -4.5672    4.3879   -1.7183 H   0  0  0  0  0  0  0  0  0  0  0  0
   -5.0288    1.0446   -3.2027 H   0  0  0  0  0  0  0  0  0  0  0  0
  1  2  1  0
  2  3  1  0
  3  4  2  0
  4  5  1  0
  5  6  1  0
  6  7  2  3
  7  8  1  0
  8  9  2  0
  9 10  1  0
 10 11  2  0
 11 12  1  0
 12 13  2  0
 13 14  1  0
 14 15  2  0
 15 16  1  0
  5 17  2  0
 17 18  1  0
 18 19  1  0
 19 20  1  0
 18 21  2  0
 21 22  1  0
 21  3  1  0
 16  8  1  0
 15 10  1  0
  1 23  1  0
  1 24  1  0
  1 25  1  0
  4 26  1  0
  6 27  1  0
  7 28  1  0
 11 29  1  0
 12 30  1  0
 13 31  1  0
 14 32  1  0
 17 33  1  0
 20 34  1  0
 20 35  1  0
 20 36  1  0
 22 37  1  0
M  END
$$$$
