
     RDKit          3D

 40 44  0  0  0  0  0  0  0  0999 V2000
    6.2028    0.9516    0.4229 C   0  0  0  0  0  0  0  0  0  0  0  0
    5.7864   -0.2396    1.0120 C   0  0  0  0  0  0  0  0  0  0  0  0
    4.4578   -0.6548    0.8871 C   0  0  0  0  0  0  0  0  0  0  0  0
    3.5230    0.1130    0.1728 C   0  0  0  0  0  0  0  0  0  0  0  0
    2.1229   -0.3243    0.0421 C   0  0  0  0  0  0  0  0  0  0  0  0
    1.8112   -1.5888   -0.4801 C   0  0  0  0  0  0  0  0  0  0  0  0
    0.4904   -2.0354   -0.6171 C   0  0  0  0  0  0  0  0  0  0  0  0
   -0.5351   -1.1718   -0.2168 C   0  0  0  0  0  0  0  0  0  0  0  0
   -0.2728    0.1040    0.3146 C   0  0  0  0  0  0  0  0  0  0  0  0
    1.0687    0.5200    0.4416 C   0  0  0  0  0  0  0  0  0  0  0  0
   -1.5281    0.7011    0.6345 C   0  0  0  0  0  0  0  0  0  0  0  0
   -2.4901   -0.2053    0.2710 C   0  0  0  0  0  0  0  0  0  0  0  0
   -1.8967   -1.3203   -0.2172 N   0  0  0  0  0  0  0  0  0  0  0  0
   -2.7281   -2.4551   -0.5551 C   0  0  0  0  0  0  0  0  0  0  0  0
   -4.1382   -1.9815   -0.9485 C   0  0  0  0  0  0  0  0  0  0  0  0
   -4.7273   -0.9212   -0.0828 N   0  0  0  0  0  0  0  0  0  0  0  0
   -3.9016   -0.0589    0.4098 C   0  0  0  0  0  0  0  0  0  0  0  0
   -4.3408    1.1534    1.2103 C   0  0  0  0  0  0  0  0  0  0  0  0
   -3.3802    2.3438    0.9842 C   0  0  0  0  0  0  0  0  0  0  0  0
   -1.8934    2.0039    1.2600 C   0  0  0  0  0  0  0  0  0  0  0  0
    3.9638    1.3116   -0.4127 C   0  0  0  0  0  0  0  0  0  0  0  0
    5.2923    1.7277   -0.2898 C   0  0  0  0  0  0  0  0  0  0  0  0
    7.2358    1.2749    0.5194 H   0  0  0  0  0  0  0  0  0  0  0  0
    6.4932   -0.8462    1.5718 H   0  0  0  0  0  0  0  0  0  0  0  0
    4.1496   -1.5829    1.3643 H   0  0  0  0  0  0  0  0  0  0  0  0
    2.6143   -2.2501   -0.8026 H   0  0  0  0  0  0  0  0  0  0  0  0
    0.2809   -3.0187   -1.0246 H   0  0  0  0  0  0  0  0  0  0  0  0
    1.2834    1.4980    0.8642 H   0  0  0  0  0  0  0  0  0  0  0  0
   -2.2610   -3.0098   -1.3740 H   0  0  0  0  0  0  0  0  0  0  0  0
   -2.7681   -3.0900    0.3369 H   0  0  0  0  0  0  0  0  0  0  0  0
   -4.8151   -2.8430   -0.9423 H   0  0  0  0  0  0  0  0  0  0  0  0
   -4.1247   -1.5985   -1.9769 H   0  0  0  0  0  0  0  0  0  0  0  0
   -5.3594    1.4304    0.9191 H   0  0  0  0  0  0  0  0  0  0  0  0
   -4.3540    0.8755    2.2705 H   0  0  0  0  0  0  0  0  0  0  0  0
   -3.4747    2.6708   -0.0601 H   0  0  0  0  0  0  0  0  0  0  0  0
   -3.6836    3.1891    1.6121 H   0  0  0  0  0  0  0  0  0  0  0  0
   -1.2561    2.8083    0.8774 H   0  0  0  0  0  0  0  0  0  0  0  0
   -1.7319    1.9360    2.3424 H   0  0  0  0  0  0  0  0  0  0  0  0
    3.2703    1.9266   -0.9828 H   0  0  0  0  0  0  0  0  0  0  0  0
    5.6141    2.6565   -0.7534 H   0  0  0  0  0  0  0  0  0  0  0  0
  1  2  2  0
  2  3  1  0
  3  4  2  0
  4  5  1  0
  5  6  2  0
  6  7  1  0
  7  8  2  0
  8  9  1  0
  9 10  2  0
  9 11  1  0
 11 12  2  0
 12 13  1  0
 13 14  1  0
 14 15  1  0
 15 16  1  0
 16 17  2  0
 17 18  1  0
 18 19  1  0
 19 20  1  0
  4 21  1  0
 21 22  2  0
 22  1  1  0
 10  5  1  0
 20 11  1  0
 13  8  1  0
 17 12  1  0
  1 23  1  0
  2 24  1  0
  3 25  1  0
  6 26  1  0
  7 27  1  0
 10 28  1  0
 14 29  1  0
 14 30  1  0
 15 31  1  0
 15 32  1  0
 18 33  1  0
 18 34  1  0
 19 35  1  0
 19 36  1  0
 20 37  1  0
 20 38  1  0
 21 39  1  0
 22 40  1  0
M  END
$$$$
