
     RDKit          3D

 52 55  0  0  0  0  0  0  0  0999 V2000
    8.0901    0.8815   -0.0527 C   0  0  0  0  0  0  0  0  0  0  0  0
    7.1647    1.8955   -0.7030 C   0  0  0  0  0  0  0  0  0  0  0  0
    6.2237    1.2482   -1.5578 O   0  0  0  0  0  0  0  0  0  0  0  0
    5.0308    0.8398   -1.0342 C   0  0  0  0  0  0  0  0  0  0  0  0
    4.6610    0.8648    0.3077 C   0  0  0  0  0  0  0  0  0  0  0  0
    3.3958    0.4065    0.7061 C   0  0  0  0  0  0  0  0  0  0  0  0
    2.4845   -0.0812   -0.2308 C   0  0  0  0  0  0  0  0  0  0  0  0
    1.1957   -0.5615    0.0858 N   0  0  0  0  0  0  0  0  0  0  0  0
    0.5756   -0.5770    1.3173 C   0  0  0  0  0  0  0  0  0  0  0  0
    1.0618   -0.1155    2.3466 O   0  0  0  0  0  0  0  0  0  0  0  0
   -0.6965   -1.1612    1.3188 N   0  0  0  0  0  0  0  0  0  0  0  0
   -1.2886   -1.8703    0.1833 C   0  0  0  0  0  0  0  0  0  0  0  0
   -2.6135   -2.5439    0.5064 C   0  0  0  0  0  0  0  0  0  0  0  0
   -3.5708   -1.6307    1.2856 C   0  0  0  0  0  0  0  0  0  0  0  0
   -4.4249   -0.8468    0.4084 N   0  0  0  0  0  0  0  0  0  0  0  0
   -5.6957   -1.3071   -0.0243 C   0  0  0  0  0  0  0  0  0  0  0  0
   -6.2740   -2.3284    0.3081 O   0  0  0  0  0  0  0  0  0  0  0  0
   -6.1766   -0.3667   -0.9413 N   0  0  0  0  0  0  0  0  0  0  0  0
   -5.2234    0.6257   -1.1151 C   0  0  0  0  0  0  0  0  0  0  0  0
   -5.2778    1.7223   -1.9476 C   0  0  0  0  0  0  0  0  0  0  0  0
   -4.1655    2.5654   -1.9516 C   0  0  0  0  0  0  0  0  0  0  0  0
   -3.0493    2.2887   -1.1375 C   0  0  0  0  0  0  0  0  0  0  0  0
   -3.0230    1.1649   -0.2999 C   0  0  0  0  0  0  0  0  0  0  0  0
   -4.1266    0.3374   -0.2975 C   0  0  0  0  0  0  0  0  0  0  0  0
   -2.8882   -0.8380    2.4106 C   0  0  0  0  0  0  0  0  0  0  0  0
   -1.4241   -1.2246    2.5862 C   0  0  0  0  0  0  0  0  0  0  0  0
    2.8637   -0.1128   -1.5773 C   0  0  0  0  0  0  0  0  0  0  0  0
    4.1258    0.3419   -1.9723 C   0  0  0  0  0  0  0  0  0  0  0  0
    8.5816    0.2673   -0.8143 H   0  0  0  0  0  0  0  0  0  0  0  0
    8.8581    1.3856    0.5410 H   0  0  0  0  0  0  0  0  0  0  0  0
    7.5399    0.1970    0.5988 H   0  0  0  0  0  0  0  0  0  0  0  0
    6.6857    2.5557    0.0288 H   0  0  0  0  0  0  0  0  0  0  0  0
    7.7669    2.5484   -1.3454 H   0  0  0  0  0  0  0  0  0  0  0  0
    5.3295    1.2223    1.0830 H   0  0  0  0  0  0  0  0  0  0  0  0
    3.1612    0.4400    1.7655 H   0  0  0  0  0  0  0  0  0  0  0  0
    0.6526   -0.8718   -0.7005 H   0  0  0  0  0  0  0  0  0  0  0  0
   -1.4191   -1.1546   -0.6345 H   0  0  0  0  0  0  0  0  0  0  0  0
   -0.5708   -2.6248   -0.1615 H   0  0  0  0  0  0  0  0  0  0  0  0
   -3.0777   -2.9217   -0.4123 H   0  0  0  0  0  0  0  0  0  0  0  0
   -2.4021   -3.4263    1.1268 H   0  0  0  0  0  0  0  0  0  0  0  0
   -4.2584   -2.3217    1.7942 H   0  0  0  0  0  0  0  0  0  0  0  0
   -7.0633   -0.4503   -1.4106 H   0  0  0  0  0  0  0  0  0  0  0  0
   -6.1398    1.9259   -2.5714 H   0  0  0  0  0  0  0  0  0  0  0  0
   -4.1588    3.4482   -2.5879 H   0  0  0  0  0  0  0  0  0  0  0  0
   -2.1949    2.9634   -1.1549 H   0  0  0  0  0  0  0  0  0  0  0  0
   -2.1531    0.9865    0.3188 H   0  0  0  0  0  0  0  0  0  0  0  0
   -2.9636    0.2419    2.2558 H   0  0  0  0  0  0  0  0  0  0  0  0
   -3.4174   -1.0237    3.3542 H   0  0  0  0  0  0  0  0  0  0  0  0
   -0.9727   -0.5702    3.3390 H   0  0  0  0  0  0  0  0  0  0  0  0
   -1.3347   -2.2497    2.9654 H   0  0  0  0  0  0  0  0  0  0  0  0
    2.1895   -0.4910   -2.3404 H   0  0  0  0  0  0  0  0  0  0  0  0
    4.4069    0.3068   -3.0224 H   0  0  0  0  0  0  0  0  0  0  0  0
  1  2  1  0
  2  3  1  0
  3  4  1  0
  4  5  2  0
  5  6  1  0
  6  7  2  0
  7  8  1  0
  8  9  1  0
  9 10  2  0
  9 11  1  0
 11 12  1  0
 12 13  1  0
 13 14  1  0
 14 15  1  0
 15 16  1  0
 16 17  2  0
 16 18  1  0
 18 19  1  0
 19 20  2  0
 20 21  1  0
 21 22  2  0
 22 23  1  0
 23 24  2  0
 14 25  1  0
 25 26  1  0
  7 27  1  0
 27 28  2  0
 28  4  1  0
 26 11  1  0
 24 15  1  0
 24 19  1  0
  1 29  1  0
  1 30  1  0
  1 31  1  0
  2 32  1  0
  2 33  1  0
  5 34  1  0
  6 35  1  0
  8 36  1  0
 12 37  1  0
 12 38  1  0
 13 39  1  0
 13 40  1  0
 14 41  1  0
 18 42  1  0
 20 43  1  0
 21 44  1  0
 22 45  1  0
 23 46  1  0
 25 47  1  0
 25 48  1  0
 26 49  1  0
 26 50  1  0
 27 51  1  0
 28 52  1  0
M  END
$$$$
