
     RDKit          3D

 64 67  0  0  0  0  0  0  0  0999 V2000
   -0.7610   -0.0513   -2.5894 C   0  0  0  0  0  0  0  0  0  0  0  0
   -0.9772   -0.1169   -1.1798 O   0  0  0  0  0  0  0  0  0  0  0  0
   -1.2526    1.0959   -0.6014 C   0  0  0  0  0  0  0  0  0  0  0  0
   -2.2690    1.9166   -1.1153 C   0  0  0  0  0  0  0  0  0  0  0  0
   -2.5984    3.1252   -0.4935 C   0  0  0  0  0  0  0  0  0  0  0  0
   -3.5635    3.9903   -0.9460 O   0  0  0  0  0  0  0  0  0  0  0  0
   -4.1717    3.7041   -2.1983 C   0  0  0  0  0  0  0  0  0  0  0  0
   -1.9275    3.4948    0.6833 C   0  0  0  0  0  0  0  0  0  0  0  0
   -2.2316    4.7289    1.4058 C   0  0  0  0  0  0  0  0  0  0  0  0
   -1.5792    5.0396    2.5289 C   0  0  0  0  0  0  0  0  0  0  0  0
   -0.5345    4.1740    3.0896 C   0  0  0  0  0  0  0  0  0  0  0  0
    0.0534    4.4812    4.1192 O   0  0  0  0  0  0  0  0  0  0  0  0
   -0.2571    3.0101    2.3892 O   0  0  0  0  0  0  0  0  0  0  0  0
   -0.9308    2.6521    1.1936 C   0  0  0  0  0  0  0  0  0  0  0  0
   -0.5578    1.4466    0.5694 C   0  0  0  0  0  0  0  0  0  0  0  0
    0.5618    0.5802    1.1628 C   0  0  0  0  0  0  0  0  0  0  0  0
    0.0161   -0.4761    2.1618 C   0  0  0  0  0  0  0  0  0  0  0  0
   -1.0243   -1.4636    1.6108 C   0  0  0  0  0  0  0  0  0  0  0  0
   -1.4733   -2.4183    2.6353 N   0  0  0  0  0  0  0  0  0  0  0  0
   -0.4470   -3.3774    3.0464 C   0  0  0  0  0  0  0  0  0  0  0  0
   -1.2454   -4.4660    3.7497 C   0  0  0  0  0  0  0  0  0  0  0  0
   -2.6597   -4.3497    3.1937 C   0  0  0  0  0  0  0  0  0  0  0  0
   -2.5825   -3.2454    2.1529 C   0  0  0  0  0  0  0  0  0  0  0  0
    1.6188    0.1345    0.1465 C   0  0  0  0  0  0  0  0  0  0  0  0
    2.2582    1.1051   -0.6386 C   0  0  0  0  0  0  0  0  0  0  0  0
    3.2270    0.7566   -1.5912 C   0  0  0  0  0  0  0  0  0  0  0  0
    3.6129   -0.5728   -1.8145 C   0  0  0  0  0  0  0  0  0  0  0  0
    4.5803   -0.9232   -2.7644 N   0  0  0  0  0  0  0  0  0  0  0  0
    5.0257    0.0778   -3.7312 C   0  0  0  0  0  0  0  0  0  0  0  0
    4.6452   -2.3131   -3.2148 C   0  0  0  0  0  0  0  0  0  0  0  0
    2.9994   -1.5263   -0.9852 C   0  0  0  0  0  0  0  0  0  0  0  0
    2.0281   -1.1876   -0.0261 C   0  0  0  0  0  0  0  0  0  0  0  0
   -0.1673   -0.9242   -2.8776 H   0  0  0  0  0  0  0  0  0  0  0  0
   -1.7170   -0.1047   -3.1216 H   0  0  0  0  0  0  0  0  0  0  0  0
   -0.2057    0.8479   -2.8839 H   0  0  0  0  0  0  0  0  0  0  0  0
   -2.8132    1.5780   -1.9896 H   0  0  0  0  0  0  0  0  0  0  0  0
   -3.4257    3.6228   -2.9971 H   0  0  0  0  0  0  0  0  0  0  0  0
   -4.8328    4.5395   -2.4462 H   0  0  0  0  0  0  0  0  0  0  0  0
   -4.7855    2.7997   -2.1352 H   0  0  0  0  0  0  0  0  0  0  0  0
   -3.0004    5.3871    1.0143 H   0  0  0  0  0  0  0  0  0  0  0  0
   -1.7906    5.9464    3.0814 H   0  0  0  0  0  0  0  0  0  0  0  0
    1.1653    1.2396    1.8059 H   0  0  0  0  0  0  0  0  0  0  0  0
   -0.4504    0.0592    3.0014 H   0  0  0  0  0  0  0  0  0  0  0  0
    0.8665   -1.0194    2.5909 H   0  0  0  0  0  0  0  0  0  0  0  0
   -0.6430   -1.9966    0.7338 H   0  0  0  0  0  0  0  0  0  0  0  0
   -1.9039   -0.8944    1.2898 H   0  0  0  0  0  0  0  0  0  0  0  0
    0.2924   -2.9392    3.7232 H   0  0  0  0  0  0  0  0  0  0  0  0
    0.0790   -3.8034    2.1827 H   0  0  0  0  0  0  0  0  0  0  0  0
   -0.8190   -5.4575    3.5667 H   0  0  0  0  0  0  0  0  0  0  0  0
   -1.2562   -4.3018    4.8333 H   0  0  0  0  0  0  0  0  0  0  0  0
   -3.0063   -5.2928    2.7598 H   0  0  0  0  0  0  0  0  0  0  0  0
   -3.3515   -4.0760    3.9988 H   0  0  0  0  0  0  0  0  0  0  0  0
   -2.3658   -3.6764    1.1672 H   0  0  0  0  0  0  0  0  0  0  0  0
   -3.5202   -2.6849    2.0905 H   0  0  0  0  0  0  0  0  0  0  0  0
    2.0085    2.1581   -0.5184 H   0  0  0  0  0  0  0  0  0  0  0  0
    3.6705    1.5723   -2.1529 H   0  0  0  0  0  0  0  0  0  0  0  0
    5.8071   -0.3247   -4.3859 H   0  0  0  0  0  0  0  0  0  0  0  0
    4.1967    0.4076   -4.3672 H   0  0  0  0  0  0  0  0  0  0  0  0
    5.4735    0.9431   -3.2305 H   0  0  0  0  0  0  0  0  0  0  0  0
    3.6801   -2.6479   -3.6096 H   0  0  0  0  0  0  0  0  0  0  0  0
    4.9601   -2.9750   -2.4024 H   0  0  0  0  0  0  0  0  0  0  0  0
    5.3865   -2.4407   -4.0111 H   0  0  0  0  0  0  0  0  0  0  0  0
    3.2684   -2.5766   -1.0536 H   0  0  0  0  0  0  0  0  0  0  0  0
    1.6169   -1.9906    0.5757 H   0  0  0  0  0  0  0  0  0  0  0  0
  1  2  1  0
  2  3  1  0
  3  4  2  0
  4  5  1  0
  5  6  1  0
  6  7  1  0
  5  8  2  0
  8  9  1  0
  9 10  2  0
 10 11  1  0
 11 12  2  0
 11 13  1  0
 13 14  1  0
 14 15  2  0
 15 16  1  0
 16 17  1  0
 17 18  1  0
 18 19  1  0
 19 20  1  0
 20 21  1  0
 21 22  1  0
 22 23  1  0
 16 24  1  0
 24 25  2  0
 25 26  1  0
 26 27  2  0
 27 28  1  0
 28 29  1  0
 28 30  1  0
 27 31  1  0
 31 32  2  0
 15  3  1  0
 23 19  1  0
 32 24  1  0
 14  8  1  0
  1 33  1  0
  1 34  1  0
  1 35  1  0
  4 36  1  0
  7 37  1  0
  7 38  1  0
  7 39  1  0
  9 40  1  0
 10 41  1  0
 16 42  1  0
 17 43  1  0
 17 44  1  0
 18 45  1  0
 18 46  1  0
 20 47  1  0
 20 48  1  0
 21 49  1  0
 21 50  1  0
 22 51  1  0
 22 52  1  0
 23 53  1  0
 23 54  1  0
 25 55  1  0
 26 56  1  0
 29 57  1  0
 29 58  1  0
 29 59  1  0
 30 60  1  0
 30 61  1  0
 30 62  1  0
 31 63  1  0
 32 64  1  0
M  END
$$$$
