
     RDKit          3D

 39 41  0  0  0  0  0  0  0  0999 V2000
   -1.6452    2.4248    1.7348 O   0  0  0  0  0  0  0  0  0  0  0  0
   -2.1610    1.3605    2.0697 C   0  0  0  0  0  0  0  0  0  0  0  0
   -3.6677    1.1980    2.2644 C   0  0  0  0  0  0  0  0  0  0  0  0
   -4.1844   -0.0425    1.7927 O   0  0  0  0  0  0  0  0  0  0  0  0
   -4.0985   -0.2684    0.4412 C   0  0  0  0  0  0  0  0  0  0  0  0
   -4.3148    0.7229   -0.5205 C   0  0  0  0  0  0  0  0  0  0  0  0
   -4.2137    0.4110   -1.8805 C   0  0  0  0  0  0  0  0  0  0  0  0
   -3.9071   -0.8901   -2.2793 C   0  0  0  0  0  0  0  0  0  0  0  0
   -3.7703   -1.2565   -3.9539 Cl  0  0  0  0  0  0  0  0  0  0  0  0
   -3.7113   -1.8922   -1.3335 C   0  0  0  0  0  0  0  0  0  0  0  0
   -3.8109   -1.5797    0.0228 C   0  0  0  0  0  0  0  0  0  0  0  0
   -3.5120   -2.8330    1.1776 Cl  0  0  0  0  0  0  0  0  0  0  0  0
   -1.4430    0.2062    2.3504 N   0  0  0  0  0  0  0  0  0  0  0  0
   -0.1008    0.1932    1.9259 N   0  0  0  0  0  0  0  0  0  0  0  0
    0.1810   -0.1448    0.6134 C   0  0  0  0  0  0  0  0  0  0  0  0
   -0.6227   -0.5291   -0.2265 O   0  0  0  0  0  0  0  0  0  0  0  0
    1.6439   -0.0004    0.3798 C   0  0  0  0  0  0  0  0  0  0  0  0
    2.1927   -0.2755   -0.8107 C   0  0  0  0  0  0  0  0  0  0  0  0
    3.6158   -0.1728   -1.1449 C   0  0  0  0  0  0  0  0  0  0  0  0
    4.3434   -1.3364   -1.4217 C   0  0  0  0  0  0  0  0  0  0  0  0
    5.6963   -1.2564   -1.7621 C   0  0  0  0  0  0  0  0  0  0  0  0
    6.3199   -0.0120   -1.8334 C   0  0  0  0  0  0  0  0  0  0  0  0
    7.9833    0.0856   -2.2600 Cl  0  0  0  0  0  0  0  0  0  0  0  0
    5.6050    1.1519   -1.5628 C   0  0  0  0  0  0  0  0  0  0  0  0
    4.2524    1.0723   -1.2209 C   0  0  0  0  0  0  0  0  0  0  0  0
    2.4379    0.5102    1.8236 S   0  0  0  0  0  0  0  0  0  0  0  0
    0.9406    0.5573    2.7547 C   0  0  0  0  0  0  0  0  0  0  0  0
    0.8762    0.9528    4.3742 S   0  0  0  0  0  0  0  0  0  0  0  0
   -3.8512    1.2313    3.3448 H   0  0  0  0  0  0  0  0  0  0  0  0
   -4.2021    2.0516    1.8356 H   0  0  0  0  0  0  0  0  0  0  0  0
   -4.5743    1.7428   -0.2491 H   0  0  0  0  0  0  0  0  0  0  0  0
   -4.3741    1.1898   -2.6235 H   0  0  0  0  0  0  0  0  0  0  0  0
   -3.4660   -2.9029   -1.6484 H   0  0  0  0  0  0  0  0  0  0  0  0
   -1.9355   -0.6809    2.2549 H   0  0  0  0  0  0  0  0  0  0  0  0
    1.5621   -0.6219   -1.6280 H   0  0  0  0  0  0  0  0  0  0  0  0
    3.8674   -2.3130   -1.3699 H   0  0  0  0  0  0  0  0  0  0  0  0
    6.2547   -2.1650   -1.9701 H   0  0  0  0  0  0  0  0  0  0  0  0
    6.0903    2.1225   -1.6201 H   0  0  0  0  0  0  0  0  0  0  0  0
    3.7039    1.9889   -1.0194 H   0  0  0  0  0  0  0  0  0  0  0  0
  1  2  2  0
  2  3  1  0
  3  4  1  0
  4  5  1  0
  5  6  2  0
  6  7  1  0
  7  8  2  0
  8  9  1  0
  8 10  1  0
 10 11  2  0
 11 12  1  0
  2 13  1  0
 13 14  1  0
 14 15  1  0
 15 16  2  0
 15 17  1  0
 17 18  2  3
 18 19  1  0
 19 20  2  0
 20 21  1  0
 21 22  2  0
 22 23  1  0
 22 24  1  0
 24 25  2  0
 17 26  1  0
 26 27  1  0
 27 28  2  0
 11  5  1  0
 27 14  1  0
 25 19  1  0
  3 29  1  0
  3 30  1  0
  6 31  1  0
  7 32  1  0
 10 33  1  0
 13 34  1  0
 18 35  1  0
 20 36  1  0
 21 37  1  0
 24 38  1  0
 25 39  1  0
M  END
$$$$
