
     RDKit          3D

 44 46  0  0  0  0  0  0  0  0999 V2000
    3.5813    3.3550   -3.5257 C   0  0  0  0  0  0  0  0  0  0  0  0
    2.7575    3.3643   -2.3211 N   0  0  0  0  0  0  0  0  0  0  0  0
    1.3780    2.9335   -2.6281 C   0  0  0  0  0  0  0  0  0  0  0  0
    0.6157    2.3609   -1.4121 C   0  0  0  0  0  0  0  0  0  0  0  0
    1.2844    1.1512   -0.8692 N   0  0  0  0  0  0  0  0  0  0  0  0
    0.5736    0.1032   -0.2557 C   0  0  0  0  0  0  0  0  0  0  0  0
   -0.6771    0.2483    0.2340 C   0  0  0  0  0  0  0  0  0  0  0  0
   -1.4354   -0.8401    0.8252 C   0  0  0  0  0  0  0  0  0  0  0  0
   -2.4312   -0.6059    1.6983 C   0  0  0  0  0  0  0  0  0  0  0  0
   -3.0974   -1.6763    2.4433 C   0  0  0  0  0  0  0  0  0  0  0  0
   -4.2813   -1.5112    3.0840 C   0  0  0  0  0  0  0  0  0  0  0  0
   -4.8769   -2.5670    3.8340 C   0  0  0  0  0  0  0  0  0  0  0  0
   -5.3506   -3.4334    4.4439 N   0  0  0  0  0  0  0  0  0  0  0  0
   -4.9907   -0.2745    3.0576 C   0  0  0  0  0  0  0  0  0  0  0  0
   -5.5510    0.7417    3.0458 N   0  0  0  0  0  0  0  0  0  0  0  0
   -2.2880   -2.9667    2.4799 C   0  0  0  0  0  0  0  0  0  0  0  0
   -1.7890   -3.3488    1.0896 C   0  0  0  0  0  0  0  0  0  0  0  0
   -0.9879   -2.2255    0.4153 C   0  0  0  0  0  0  0  0  0  0  0  0
    0.5151   -2.3185    0.6745 C   0  0  0  0  0  0  0  0  0  0  0  0
    1.2659   -1.2586   -0.1502 C   0  0  0  0  0  0  0  0  0  0  0  0
    2.7484    1.1208   -1.0929 C   0  0  0  0  0  0  0  0  0  0  0  0
    3.3402    2.5416   -1.2444 C   0  0  0  0  0  0  0  0  0  0  0  0
    3.1445    4.0036   -4.2936 H   0  0  0  0  0  0  0  0  0  0  0  0
    3.6957    2.3497   -3.9453 H   0  0  0  0  0  0  0  0  0  0  0  0
    4.5797    3.7525   -3.3105 H   0  0  0  0  0  0  0  0  0  0  0  0
    1.3811    2.1647   -3.4137 H   0  0  0  0  0  0  0  0  0  0  0  0
    0.8252    3.7942   -3.0232 H   0  0  0  0  0  0  0  0  0  0  0  0
    0.5354    3.1164   -0.6207 H   0  0  0  0  0  0  0  0  0  0  0  0
   -0.3990    2.1176   -1.7490 H   0  0  0  0  0  0  0  0  0  0  0  0
   -1.1501    1.2258    0.2359 H   0  0  0  0  0  0  0  0  0  0  0  0
   -2.7171    0.4244    1.9080 H   0  0  0  0  0  0  0  0  0  0  0  0
   -1.4327   -2.8290    3.1545 H   0  0  0  0  0  0  0  0  0  0  0  0
   -2.8635   -3.8083    2.8777 H   0  0  0  0  0  0  0  0  0  0  0  0
   -2.6606   -3.5824    0.4625 H   0  0  0  0  0  0  0  0  0  0  0  0
   -1.1979   -4.2711    1.1418 H   0  0  0  0  0  0  0  0  0  0  0  0
   -1.1461   -2.3404   -0.6671 H   0  0  0  0  0  0  0  0  0  0  0  0
    0.8962   -3.3124    0.4115 H   0  0  0  0  0  0  0  0  0  0  0  0
    0.7285   -2.1714    1.7413 H   0  0  0  0  0  0  0  0  0  0  0  0
    2.2595   -1.1553    0.2942 H   0  0  0  0  0  0  0  0  0  0  0  0
    1.4058   -1.6417   -1.1695 H   0  0  0  0  0  0  0  0  0  0  0  0
    3.2504    0.6567   -0.2383 H   0  0  0  0  0  0  0  0  0  0  0  0
    2.9681    0.5208   -1.9831 H   0  0  0  0  0  0  0  0  0  0  0  0
    4.4320    2.4773   -1.3359 H   0  0  0  0  0  0  0  0  0  0  0  0
    3.1615    3.0791   -0.3035 H   0  0  0  0  0  0  0  0  0  0  0  0
  1  2  1  0
  2  3  1  0
  3  4  1  0
  4  5  1  0
  5  6  1  0
  6  7  2  0
  7  8  1  0
  8  9  2  0
  9 10  1  0
 10 11  2  3
 11 12  1  0
 12 13  3  0
 11 14  1  0
 14 15  3  0
 10 16  1  0
 16 17  1  0
 17 18  1  0
 18 19  1  0
 19 20  1  0
  5 21  1  0
 21 22  1  0
 22  2  1  0
 20  6  1  0
 18  8  1  0
  1 23  1  0
  1 24  1  0
  1 25  1  0
  3 26  1  0
  3 27  1  0
  4 28  1  0
  4 29  1  0
  7 30  1  0
  9 31  1  0
 16 32  1  0
 16 33  1  0
 17 34  1  0
 17 35  1  0
 18 36  1  0
 19 37  1  0
 19 38  1  0
 20 39  1  0
 20 40  1  0
 21 41  1  0
 21 42  1  0
 22 43  1  0
 22 44  1  0
M  END
$$$$
