
     RDKit          3D

 42 44  0  0  0  0  0  0  0  0999 V2000
   -0.2314    5.1942   -0.6666 C   0  0  0  0  0  0  0  0  0  0  0  0
   -1.0176    4.6275   -1.7098 O   0  0  0  0  0  0  0  0  0  0  0  0
   -1.3374    3.2983   -1.5858 C   0  0  0  0  0  0  0  0  0  0  0  0
   -1.1294    2.5101   -0.4547 C   0  0  0  0  0  0  0  0  0  0  0  0
   -1.4880    1.1539   -0.4659 C   0  0  0  0  0  0  0  0  0  0  0  0
   -1.2921    0.2920    0.7104 C   0  0  0  0  0  0  0  0  0  0  0  0
   -0.1310    0.0780    1.3610 C   0  0  0  0  0  0  0  0  0  0  0  0
    1.0977    0.7125    1.0319 C   0  0  0  0  0  0  0  0  0  0  0  0
    2.0833    1.2650    0.7665 N   0  0  0  0  0  0  0  0  0  0  0  0
   -0.1921   -0.8368    2.5331 C   0  0  0  0  0  0  0  0  0  0  0  0
   -1.1334   -0.7968    3.3218 O   0  0  0  0  0  0  0  0  0  0  0  0
    0.9333   -1.7490    2.6976 C   0  0  0  0  0  0  0  0  0  0  0  0
    1.4214   -2.1242    3.9379 C   0  0  0  0  0  0  0  0  0  0  0  0
    2.4758   -2.9732    3.7549 N   0  0  0  0  0  0  0  0  0  0  0  0
    2.6678   -3.2066    2.4141 C   0  0  0  0  0  0  0  0  0  0  0  0
    3.6108   -4.0222    1.7766 C   0  0  0  0  0  0  0  0  0  0  0  0
    3.5687   -4.0990    0.3833 C   0  0  0  0  0  0  0  0  0  0  0  0
    2.6139   -3.3938   -0.3413 C   0  0  0  0  0  0  0  0  0  0  0  0
    1.6770   -2.5826    0.3111 C   0  0  0  0  0  0  0  0  0  0  0  0
    1.7067   -2.4666    1.7196 C   0  0  0  0  0  0  0  0  0  0  0  0
   -2.0939    0.6004   -1.6065 C   0  0  0  0  0  0  0  0  0  0  0  0
   -2.3231    1.3805   -2.7426 C   0  0  0  0  0  0  0  0  0  0  0  0
   -2.9012    0.9363   -3.9013 O   0  0  0  0  0  0  0  0  0  0  0  0
   -3.3218   -0.4187   -3.9527 C   0  0  0  0  0  0  0  0  0  0  0  0
   -1.9374    2.7252   -2.7159 C   0  0  0  0  0  0  0  0  0  0  0  0
   -2.1481    3.5144   -3.8218 O   0  0  0  0  0  0  0  0  0  0  0  0
   -0.7998    5.2443    0.2676 H   0  0  0  0  0  0  0  0  0  0  0  0
    0.0207    6.2183   -0.9581 H   0  0  0  0  0  0  0  0  0  0  0  0
    0.7067    4.6452   -0.5317 H   0  0  0  0  0  0  0  0  0  0  0  0
   -0.6996    2.9380    0.4452 H   0  0  0  0  0  0  0  0  0  0  0  0
   -2.1952   -0.2267    1.0356 H   0  0  0  0  0  0  0  0  0  0  0  0
    1.1056   -1.8419    4.9346 H   0  0  0  0  0  0  0  0  0  0  0  0
    3.0251   -3.3914    4.4939 H   0  0  0  0  0  0  0  0  0  0  0  0
    4.3507   -4.5822    2.3399 H   0  0  0  0  0  0  0  0  0  0  0  0
    4.2892   -4.7230   -0.1409 H   0  0  0  0  0  0  0  0  0  0  0  0
    2.5937   -3.4725   -1.4259 H   0  0  0  0  0  0  0  0  0  0  0  0
    0.9380   -2.0573   -0.2861 H   0  0  0  0  0  0  0  0  0  0  0  0
   -2.3782   -0.4472   -1.5885 H   0  0  0  0  0  0  0  0  0  0  0  0
   -2.4716   -1.1001   -3.8435 H   0  0  0  0  0  0  0  0  0  0  0  0
   -4.0912   -0.6225   -3.2007 H   0  0  0  0  0  0  0  0  0  0  0  0
   -3.7646   -0.5951   -4.9376 H   0  0  0  0  0  0  0  0  0  0  0  0
   -1.8080    4.3954   -3.5771 H   0  0  0  0  0  0  0  0  0  0  0  0
  1  2  1  0
  2  3  1  0
  3  4  2  0
  4  5  1  0
  5  6  1  0
  6  7  2  3
  7  8  1  0
  8  9  3  0
  7 10  1  0
 10 11  2  0
 10 12  1  0
 12 13  2  0
 13 14  1  0
 14 15  1  0
 15 16  2  0
 16 17  1  0
 17 18  2  0
 18 19  1  0
 19 20  2  0
  5 21  2  0
 21 22  1  0
 22 23  1  0
 23 24  1  0
 22 25  2  0
 25 26  1  0
 25  3  1  0
 20 12  1  0
 20 15  1  0
  1 27  1  0
  1 28  1  0
  1 29  1  0
  4 30  1  0
  6 31  1  0
 13 32  1  0
 14 33  1  0
 16 34  1  0
 17 35  1  0
 18 36  1  0
 19 37  1  0
 21 38  1  0
 24 39  1  0
 24 40  1  0
 24 41  1  0
 26 42  1  0
M  END
$$$$
