
     RDKit          3D

 61 65  0  0  0  0  0  0  0  0999 V2000
   -2.5753   -4.1863    1.1322 C   0  0  0  0  0  0  0  0  0  0  0  0
   -2.6045   -3.1720    0.0741 N   0  0  0  0  0  0  0  0  0  0  0  0
   -3.6323   -3.5208   -0.9116 C   0  0  0  0  0  0  0  0  0  0  0  0
   -2.8445   -1.8386    0.6612 C   0  0  0  0  0  0  0  0  0  0  0  0
   -2.6143   -0.6807   -0.3336 C   0  0  0  0  0  0  0  0  0  0  0  0
   -2.6500    0.6391    0.3380 N   0  0  0  0  0  0  0  0  0  0  0  0
   -1.5086    1.1774    0.9495 C   0  0  0  0  0  0  0  0  0  0  0  0
   -1.4598    2.0409    1.8222 O   0  0  0  0  0  0  0  0  0  0  0  0
   -0.1893    0.6500    0.5404 C   0  0  0  0  0  0  0  0  0  0  0  0
    0.3256    0.9599   -0.7250 C   0  0  0  0  0  0  0  0  0  0  0  0
    1.5851    0.4822   -1.0884 C   0  0  0  0  0  0  0  0  0  0  0  0
    2.3215   -0.2842   -0.1755 C   0  0  0  0  0  0  0  0  0  0  0  0
    3.9300   -0.8843   -0.6594 S   0  0  0  0  0  6  0  0  0  0  0  0
    3.7547   -1.5033   -1.9572 O   0  0  0  0  0  0  0  0  0  0  0  0
    4.4822   -1.6206    0.4597 O   0  0  0  0  0  0  0  0  0  0  0  0
    4.8087    0.5742   -0.8223 N   0  0  0  0  0  0  0  0  0  0  0  0
    5.0056    1.3561    0.4511 C   0  0  0  0  0  0  0  0  0  0  0  0
    6.5101    1.3363    0.7655 C   0  0  0  0  0  0  0  0  0  0  0  0
    7.1010    0.9039   -0.5336 C   0  0  0  0  0  0  0  0  0  0  0  0
    8.4391    0.8705   -0.8923 C   0  0  0  0  0  0  0  0  0  0  0  0
    8.7749    0.3637   -2.1502 C   0  0  0  0  0  0  0  0  0  0  0  0
    7.7783   -0.1036   -3.0214 C   0  0  0  0  0  0  0  0  0  0  0  0
    6.4334   -0.0724   -2.6448 C   0  0  0  0  0  0  0  0  0  0  0  0
    6.1163    0.4254   -1.3938 C   0  0  0  0  0  0  0  0  0  0  0  0
    1.8123   -0.5852    1.0926 C   0  0  0  0  0  0  0  0  0  0  0  0
    0.5547   -0.1037    1.4561 C   0  0  0  0  0  0  0  0  0  0  0  0
   -3.9155    1.2043    0.5595 C   0  0  0  0  0  0  0  0  0  0  0  0
   -5.0328    0.5734    0.2635 N   0  0  0  0  0  0  0  0  0  0  0  0
   -6.1293    1.3614    0.5593 C   0  0  0  0  0  0  0  0  0  0  0  0
   -7.4818    0.9910    0.4022 C   0  0  0  0  0  0  0  0  0  0  0  0
   -8.4909    1.8958    0.7460 C   0  0  0  0  0  0  0  0  0  0  0  0
   -8.1589    3.1516    1.2346 C   0  0  0  0  0  0  0  0  0  0  0  0
   -9.1395    4.0053    1.5574 F   0  0  0  0  0  0  0  0  0  0  0  0
   -6.8341    3.5507    1.3987 C   0  0  0  0  0  0  0  0  0  0  0  0
   -5.8311    2.6321    1.0524 C   0  0  0  0  0  0  0  0  0  0  0  0
   -4.1243    2.8047    1.1266 S   0  0  0  0  0  0  0  0  0  0  0  0
   -2.3544   -5.1746    0.7132 H   0  0  0  0  0  0  0  0  0  0  0  0
   -3.5254   -4.2446    1.6760 H   0  0  0  0  0  0  0  0  0  0  0  0
   -1.7780   -3.9686    1.8515 H   0  0  0  0  0  0  0  0  0  0  0  0
   -3.6104   -2.8362   -1.7647 H   0  0  0  0  0  0  0  0  0  0  0  0
   -3.4466   -4.5199   -1.3220 H   0  0  0  0  0  0  0  0  0  0  0  0
   -4.6400   -3.5091   -0.4818 H   0  0  0  0  0  0  0  0  0  0  0  0
   -3.8536   -1.7786    1.0892 H   0  0  0  0  0  0  0  0  0  0  0  0
   -2.1495   -1.6962    1.4989 H   0  0  0  0  0  0  0  0  0  0  0  0
   -3.3685   -0.6838   -1.1295 H   0  0  0  0  0  0  0  0  0  0  0  0
   -1.6547   -0.8245   -0.8369 H   0  0  0  0  0  0  0  0  0  0  0  0
   -0.2467    1.5692   -1.4206 H   0  0  0  0  0  0  0  0  0  0  0  0
    1.9915    0.7070   -2.0730 H   0  0  0  0  0  0  0  0  0  0  0  0
    4.6678    2.3831    0.2611 H   0  0  0  0  0  0  0  0  0  0  0  0
    4.4241    0.9776    1.2965 H   0  0  0  0  0  0  0  0  0  0  0  0
    6.8646    2.3209    1.0827 H   0  0  0  0  0  0  0  0  0  0  0  0
    6.7334    0.5961    1.5414 H   0  0  0  0  0  0  0  0  0  0  0  0
    9.2120    1.2177   -0.2137 H   0  0  0  0  0  0  0  0  0  0  0  0
    9.8176    0.3239   -2.4566 H   0  0  0  0  0  0  0  0  0  0  0  0
    8.0547   -0.4944   -3.9973 H   0  0  0  0  0  0  0  0  0  0  0  0
    5.6658   -0.4263   -3.3246 H   0  0  0  0  0  0  0  0  0  0  0  0
    2.3847   -1.1842    1.7976 H   0  0  0  0  0  0  0  0  0  0  0  0
    0.1549   -0.3137    2.4456 H   0  0  0  0  0  0  0  0  0  0  0  0
   -7.7278    0.0055    0.0187 H   0  0  0  0  0  0  0  0  0  0  0  0
   -9.5360    1.6229    0.6331 H   0  0  0  0  0  0  0  0  0  0  0  0
   -6.5963    4.5369    1.7815 H   0  0  0  0  0  0  0  0  0  0  0  0
  1  2  1  0
  2  3  1  0
  2  4  1  0
  4  5  1  0
  5  6  1  0
  6  7  1  0
  7  8  2  0
  7  9  1  0
  9 10  2  0
 10 11  1  0
 11 12  2  0
 12 13  1  0
 13 14  2  0
 13 15  2  0
 13 16  1  0
 16 17  1  0
 17 18  1  0
 18 19  1  0
 19 20  2  0
 20 21  1  0
 21 22  2  0
 22 23  1  0
 23 24  2  0
 12 25  1  0
 25 26  2  0
  6 27  1  0
 27 28  2  0
 28 29  1  0
 29 30  2  0
 30 31  1  0
 31 32  2  0
 32 33  1  0
 32 34  1  0
 34 35  2  0
 35 36  1  0
 26  9  1  0
 36 27  1  0
 24 16  1  0
 35 29  1  0
 24 19  1  0
  1 37  1  0
  1 38  1  0
  1 39  1  0
  3 40  1  0
  3 41  1  0
  3 42  1  0
  4 43  1  0
  4 44  1  0
  5 45  1  0
  5 46  1  0
 10 47  1  0
 11 48  1  0
 17 49  1  0
 17 50  1  0
 18 51  1  0
 18 52  1  0
 20 53  1  0
 21 54  1  0
 22 55  1  0
 23 56  1  0
 25 57  1  0
 26 58  1  0
 30 59  1  0
 31 60  1  0
 34 61  1  0
M  END
$$$$
