
     RDKit          3D

 64 64  0  0  0  0  0  0  0  0999 V2000
   -8.8338   -1.8487    0.6599 C   0  0  0  0  0  0  0  0  0  0  0  0
   -7.9532   -1.2918    1.7672 C   0  0  0  0  0  0  0  0  0  0  0  0
   -7.2566    0.0194    1.3956 C   0  0  0  0  0  0  0  0  0  0  0  0
   -6.3424   -0.0328    0.1664 C   0  0  0  0  0  0  0  0  0  0  0  0
   -5.1761   -1.0118    0.3178 C   0  0  0  0  0  0  0  0  0  0  0  0
   -4.2603   -1.0632   -0.9100 C   0  0  0  0  0  0  0  0  0  0  0  0
   -3.5736    0.2517   -1.2922 C   0  0  0  0  0  0  0  0  0  0  0  0
   -2.6978    0.8291   -0.1776 C   0  0  0  0  0  0  0  0  0  0  0  0
   -1.9357    2.0662   -0.6598 C   0  0  0  0  0  0  0  0  0  0  0  0
   -1.1282    2.7522    0.4462 C   0  0  0  0  0  0  0  0  0  0  0  0
   -0.0517    1.8918    1.1159 C   0  0  0  0  0  0  0  0  0  0  0  0
    0.9819    1.2619    0.1759 C   0  0  0  0  0  0  0  0  0  0  0  0
    1.8081    2.2937   -0.5962 C   0  0  0  0  0  0  0  0  0  0  0  0
    2.8296    1.6638   -1.5489 C   0  0  0  0  0  0  0  0  0  0  0  0
    3.9465    0.9045   -0.8320 C   0  0  0  0  0  0  0  0  0  0  0  0
    4.9912    0.4030   -1.8232 C   0  0  0  0  0  0  0  0  0  0  0  0
    6.0468   -0.3367   -1.0869 N   0  0  0  0  0  4  0  0  0  0  0  0
    7.1330    0.3265   -0.6242 C   0  0  0  0  0  0  0  0  0  0  0  0
    8.1320   -0.3440    0.0709 C   0  0  0  0  0  0  0  0  0  0  0  0
    7.9933   -1.7087    0.3009 C   0  0  0  0  0  0  0  0  0  0  0  0
    9.0661   -2.4054    1.0389 C   0  0  0  0  0  0  0  0  0  0  0  0
    8.9570   -3.3726    1.8979 N   0  0  0  0  0  0  0  0  0  0  0  0
    7.6334   -3.7107    2.1867 O   0  0  0  0  0  0  0  0  0  0  0  0
    6.8864   -2.3832   -0.2022 C   0  0  0  0  0  0  0  0  0  0  0  0
    5.9156   -1.6699   -0.8907 C   0  0  0  0  0  0  0  0  0  0  0  0
   -9.5628   -1.1041    0.3249 H   0  0  0  0  0  0  0  0  0  0  0  0
   -8.2403   -2.1661   -0.2026 H   0  0  0  0  0  0  0  0  0  0  0  0
   -9.3845   -2.7229    1.0220 H   0  0  0  0  0  0  0  0  0  0  0  0
   -8.5779   -1.1098    2.6503 H   0  0  0  0  0  0  0  0  0  0  0  0
   -7.2162   -2.0459    2.0636 H   0  0  0  0  0  0  0  0  0  0  0  0
   -8.0211    0.7873    1.2230 H   0  0  0  0  0  0  0  0  0  0  0  0
   -6.6711    0.3582    2.2595 H   0  0  0  0  0  0  0  0  0  0  0  0
   -6.9260   -0.2833   -0.7266 H   0  0  0  0  0  0  0  0  0  0  0  0
   -5.9527    0.9792    0.0071 H   0  0  0  0  0  0  0  0  0  0  0  0
   -4.5937   -0.7624    1.2117 H   0  0  0  0  0  0  0  0  0  0  0  0
   -5.5659   -2.0238    0.4764 H   0  0  0  0  0  0  0  0  0  0  0  0
   -3.4894   -1.8236   -0.7322 H   0  0  0  0  0  0  0  0  0  0  0  0
   -4.8423   -1.4127   -1.7720 H   0  0  0  0  0  0  0  0  0  0  0  0
   -4.3217    0.9915   -1.5992 H   0  0  0  0  0  0  0  0  0  0  0  0
   -2.9504    0.0624   -2.1756 H   0  0  0  0  0  0  0  0  0  0  0  0
   -3.3186    1.1045    0.6822 H   0  0  0  0  0  0  0  0  0  0  0  0
   -1.9930    0.0607    0.1586 H   0  0  0  0  0  0  0  0  0  0  0  0
   -2.6531    2.7953   -1.0573 H   0  0  0  0  0  0  0  0  0  0  0  0
   -1.2778    1.7973   -1.4941 H   0  0  0  0  0  0  0  0  0  0  0  0
   -1.8200    3.1010    1.2235 H   0  0  0  0  0  0  0  0  0  0  0  0
   -0.6661    3.6560    0.0319 H   0  0  0  0  0  0  0  0  0  0  0  0
   -0.5350    1.0905    1.6878 H   0  0  0  0  0  0  0  0  0  0  0  0
    0.4730    2.5112    1.8545 H   0  0  0  0  0  0  0  0  0  0  0  0
    0.4884    0.5791   -0.5247 H   0  0  0  0  0  0  0  0  0  0  0  0
    1.6483    0.6452    0.7898 H   0  0  0  0  0  0  0  0  0  0  0  0
    1.1413    2.9225   -1.1968 H   0  0  0  0  0  0  0  0  0  0  0  0
    2.3228    2.9587    0.1078 H   0  0  0  0  0  0  0  0  0  0  0  0
    2.3151    0.9935   -2.2482 H   0  0  0  0  0  0  0  0  0  0  0  0
    3.2739    2.4665   -2.1506 H   0  0  0  0  0  0  0  0  0  0  0  0
    4.4229    1.5571   -0.0906 H   0  0  0  0  0  0  0  0  0  0  0  0
    3.5336    0.0516   -0.2823 H   0  0  0  0  0  0  0  0  0  0  0  0
    4.5575   -0.2776   -2.5643 H   0  0  0  0  0  0  0  0  0  0  0  0
    5.4717    1.2270   -2.3626 H   0  0  0  0  0  0  0  0  0  0  0  0
    7.1876    1.3956   -0.8120 H   0  0  0  0  0  0  0  0  0  0  0  0
    8.9950    0.2029    0.4446 H   0  0  0  0  0  0  0  0  0  0  0  0
   10.0895   -2.0382    0.8459 H   0  0  0  0  0  0  0  0  0  0  0  0
    7.7435   -4.3974    2.8749 H   0  0  0  0  0  0  0  0  0  0  0  0
    6.7752   -3.4567   -0.0676 H   0  0  0  0  0  0  0  0  0  0  0  0
    5.0284   -2.1547   -1.2890 H   0  0  0  0  0  0  0  0  0  0  0  0
  1  2  1  0
  2  3  1  0
  3  4  1  0
  4  5  1  0
  5  6  1  0
  6  7  1  0
  7  8  1  0
  8  9  1  0
  9 10  1  0
 10 11  1  0
 11 12  1  0
 12 13  1  0
 13 14  1  0
 14 15  1  0
 15 16  1  0
 16 17  1  0
 17 18  2  0
 18 19  1  0
 19 20  2  0
 20 21  1  0
 21 22  2  3
 22 23  1  0
 20 24  1  0
 24 25  2  0
 25 17  1  0
  1 26  1  0
  1 27  1  0
  1 28  1  0
  2 29  1  0
  2 30  1  0
  3 31  1  0
  3 32  1  0
  4 33  1  0
  4 34  1  0
  5 35  1  0
  5 36  1  0
  6 37  1  0
  6 38  1  0
  7 39  1  0
  7 40  1  0
  8 41  1  0
  8 42  1  0
  9 43  1  0
  9 44  1  0
 10 45  1  0
 10 46  1  0
 11 47  1  0
 11 48  1  0
 12 49  1  0
 12 50  1  0
 13 51  1  0
 13 52  1  0
 14 53  1  0
 14 54  1  0
 15 55  1  0
 15 56  1  0
 16 57  1  0
 16 58  1  0
 18 59  1  0
 19 60  1  0
 21 61  1  0
 23 62  1  0
 24 63  1  0
 25 64  1  0
M  CHG  1  17   1
M  END
$$$$
