
     RDKit          3D

 55 57  0  0  0  0  0  0  0  0999 V2000
    1.1869   -0.2265   -4.5011 N   0  0  0  0  0  0  0  0  0  0  0  0
    2.2370    0.0769   -3.7163 C   0  0  0  0  0  0  0  0  0  0  0  0
    3.4615    0.0430   -4.1472 N   0  0  0  0  0  0  0  0  0  0  0  0
    4.2694    0.4771   -2.9803 C   0  0  0  0  0  0  0  0  0  0  0  0
    3.2979    0.6861   -1.7952 C   0  0  0  0  0  0  0  0  0  0  0  0
    3.6100   -0.3012   -0.6584 C   0  0  0  0  0  0  0  0  0  0  0  0
    2.8315   -0.0772    0.6195 C   0  0  0  0  0  0  0  0  0  0  0  0
    2.0220   -1.0993    1.1366 C   0  0  0  0  0  0  0  0  0  0  0  0
    1.3243   -0.9169    2.3309 C   0  0  0  0  0  0  0  0  0  0  0  0
    1.4350    0.2860    3.0148 C   0  0  0  0  0  0  0  0  0  0  0  0
    0.7336    0.4227    4.1761 O   0  0  0  0  0  0  0  0  0  0  0  0
    2.2367    1.3118    2.5257 C   0  0  0  0  0  0  0  0  0  0  0  0
    2.9392    1.1263    1.3321 C   0  0  0  0  0  0  0  0  0  0  0  0
    1.9956    0.4082   -2.4163 N   0  0  0  0  0  0  0  0  0  0  0  0
    0.8733    1.2647   -2.0269 C   0  0  0  0  0  0  0  0  0  0  0  0
   -0.3368    0.4328   -1.5990 C   0  0  0  0  0  0  0  0  0  0  0  0
   -1.5203    1.3337   -1.2368 C   0  0  0  0  0  0  0  0  0  0  0  0
   -2.8043    0.5558   -0.9221 C   0  0  0  0  0  0  0  0  0  0  0  0
   -2.7310   -0.3616    0.3124 C   0  0  0  0  0  0  0  0  0  0  0  0
   -2.3945    0.4204    1.5965 C   0  0  0  0  0  0  0  0  0  0  0  0
   -2.8500   -0.2754    2.8828 C   0  0  0  0  0  0  0  0  0  0  0  0
   -2.9534   -1.7843    2.7152 C   0  0  0  0  0  0  0  0  0  0  0  0
   -3.9477   -2.1661    1.6184 C   0  0  0  0  0  0  0  0  0  0  0  0
   -4.0441   -1.1334    0.4915 C   0  0  0  0  0  0  0  0  0  0  0  0
    0.5472   -0.8632   -4.0466 H   0  0  0  0  0  0  0  0  0  0  0  0
    1.5159   -0.6157   -5.3781 H   0  0  0  0  0  0  0  0  0  0  0  0
    4.7742    1.4172   -3.2299 H   0  0  0  0  0  0  0  0  0  0  0  0
    5.0402   -0.2720   -2.7691 H   0  0  0  0  0  0  0  0  0  0  0  0
    3.3757    1.7257   -1.4556 H   0  0  0  0  0  0  0  0  0  0  0  0
    4.6752   -0.2342   -0.3986 H   0  0  0  0  0  0  0  0  0  0  0  0
    3.4496   -1.3287   -1.0121 H   0  0  0  0  0  0  0  0  0  0  0  0
    1.9270   -2.0460    0.6104 H   0  0  0  0  0  0  0  0  0  0  0  0
    0.6975   -1.7116    2.7253 H   0  0  0  0  0  0  0  0  0  0  0  0
    0.8949    1.3105    4.5327 H   0  0  0  0  0  0  0  0  0  0  0  0
    2.3346    2.2523    3.0587 H   0  0  0  0  0  0  0  0  0  0  0  0
    3.5781    1.9278    0.9689 H   0  0  0  0  0  0  0  0  0  0  0  0
    0.6069    1.9338   -2.8545 H   0  0  0  0  0  0  0  0  0  0  0  0
    1.1583    1.9149   -1.1911 H   0  0  0  0  0  0  0  0  0  0  0  0
   -0.0604   -0.1882   -0.7422 H   0  0  0  0  0  0  0  0  0  0  0  0
   -0.6373   -0.2520   -2.3970 H   0  0  0  0  0  0  0  0  0  0  0  0
   -1.7308    1.9999   -2.0830 H   0  0  0  0  0  0  0  0  0  0  0  0
   -1.2518    1.9814   -0.3947 H   0  0  0  0  0  0  0  0  0  0  0  0
   -3.6183    1.2789   -0.7847 H   0  0  0  0  0  0  0  0  0  0  0  0
   -3.0736   -0.0445   -1.8010 H   0  0  0  0  0  0  0  0  0  0  0  0
   -1.9404   -1.1046    0.1428 H   0  0  0  0  0  0  0  0  0  0  0  0
   -1.3098    0.5727    1.6367 H   0  0  0  0  0  0  0  0  0  0  0  0
   -2.8398    1.4232    1.5723 H   0  0  0  0  0  0  0  0  0  0  0  0
   -3.8307    0.1187    3.1782 H   0  0  0  0  0  0  0  0  0  0  0  0
   -2.1601   -0.0297    3.6979 H   0  0  0  0  0  0  0  0  0  0  0  0
   -3.2480   -2.2533    3.6606 H   0  0  0  0  0  0  0  0  0  0  0  0
   -1.9640   -2.1880    2.4657 H   0  0  0  0  0  0  0  0  0  0  0  0
   -4.9461   -2.3083    2.0508 H   0  0  0  0  0  0  0  0  0  0  0  0
   -3.6538   -3.1390    1.2034 H   0  0  0  0  0  0  0  0  0  0  0  0
   -4.8535   -0.4270    0.7181 H   0  0  0  0  0  0  0  0  0  0  0  0
   -4.3286   -1.6424   -0.4375 H   0  0  0  0  0  0  0  0  0  0  0  0
  1  2  1  0
  2  3  2  0
  3  4  1  0
  4  5  1  0
  5  6  1  0
  6  7  1  0
  7  8  2  0
  8  9  1  0
  9 10  2  0
 10 11  1  0
 10 12  1  0
 12 13  2  0
  5 14  1  0
 14 15  1  0
 15 16  1  0
 16 17  1  0
 17 18  1  0
 18 19  1  0
 19 20  1  0
 20 21  1  0
 21 22  1  0
 22 23  1  0
 23 24  1  0
 14  2  1  0
 24 19  1  0
 13  7  1  0
  1 25  1  0
  1 26  1  0
  4 27  1  0
  4 28  1  0
  5 29  1  0
  6 30  1  0
  6 31  1  0
  8 32  1  0
  9 33  1  0
 11 34  1  0
 12 35  1  0
 13 36  1  0
 15 37  1  0
 15 38  1  0
 16 39  1  0
 16 40  1  0
 17 41  1  0
 17 42  1  0
 18 43  1  0
 18 44  1  0
 19 45  1  0
 20 46  1  0
 20 47  1  0
 21 48  1  0
 21 49  1  0
 22 50  1  0
 22 51  1  0
 23 52  1  0
 23 53  1  0
 24 54  1  0
 24 55  1  0
M  END
$$$$
