
     RDKit          3D

 63 67  0  0  0  0  0  0  0  0999 V2000
    8.4217    1.6548   -2.7564 C   0  0  0  0  0  0  0  0  0  0  0  0
    7.9269    1.6185   -1.4258 O   0  0  0  0  0  0  0  0  0  0  0  0
    6.6276    1.2175   -1.2396 C   0  0  0  0  0  0  0  0  0  0  0  0
    5.7651    0.8286   -2.2669 C   0  0  0  0  0  0  0  0  0  0  0  0
    4.4541    0.4344   -1.9798 C   0  0  0  0  0  0  0  0  0  0  0  0
    3.9721    0.4212   -0.6636 C   0  0  0  0  0  0  0  0  0  0  0  0
    2.5890    0.0103   -0.3655 C   0  0  0  0  0  0  0  0  0  0  0  0
    1.4988    0.5799   -1.0500 C   0  0  0  0  0  0  0  0  0  0  0  0
    0.1815    0.1987   -0.7670 C   0  0  0  0  0  0  0  0  0  0  0  0
   -0.0695   -0.7553    0.2206 C   0  0  0  0  0  0  0  0  0  0  0  0
    1.0000   -1.3386    0.8815 C   0  0  0  0  0  0  0  0  0  0  0  0
    2.3196   -0.9642    0.6083 C   0  0  0  0  0  0  0  0  0  0  0  0
    0.6643   -2.5680    2.0822 S   0  0  0  0  0  6  0  0  0  0  0  0
    1.5722   -2.3239    3.1862 O   0  0  0  0  0  0  0  0  0  0  0  0
    0.6135   -3.8390    1.3932 O   0  0  0  0  0  0  0  0  0  0  0  0
   -0.9589   -2.2464    2.6848 C   0  0  0  0  0  0  0  0  0  0  0  0
   -1.2776   -2.6611    3.9833 C   0  0  0  0  0  0  0  0  0  0  0  0
   -2.5249   -2.3535    4.5091 C   0  0  0  0  0  0  0  0  0  0  0  0
   -3.4313   -1.6217    3.7431 C   0  0  0  0  0  0  0  0  0  0  0  0
   -3.1170   -1.2107    2.4311 C   0  0  0  0  0  0  0  0  0  0  0  0
   -4.1418   -0.3344    1.8041 C   0  0  0  0  0  0  0  0  0  0  0  0
   -4.5937    0.5957    2.4643 O   0  0  0  0  0  0  0  0  0  0  0  0
   -4.5686   -0.6517    0.5380 N   0  0  0  0  0  0  0  0  0  0  0  0
   -5.4856    0.2133   -0.1959 C   0  0  0  0  0  0  0  0  0  0  0  0
   -4.7515    1.4321   -0.7886 C   0  0  0  0  0  0  0  0  0  0  0  0
   -4.3469    1.2066   -2.2416 C   0  0  0  0  0  0  0  0  0  0  0  0
   -5.5605    0.9445   -3.1358 C   0  0  0  0  0  0  0  0  0  0  0  0
   -6.7210    0.2645   -2.4065 C   0  0  0  0  0  0  0  0  0  0  0  0
   -6.2299   -0.6096   -1.2603 C   0  0  0  0  0  0  0  0  0  0  0  0
   -1.8630   -1.5352    1.8851 C   0  0  0  0  0  0  0  0  0  0  0  0
   -1.4615   -1.1474    0.5127 C   0  0  0  0  0  0  0  0  0  0  0  0
   -2.2653   -1.1881   -0.4096 O   0  0  0  0  0  0  0  0  0  0  0  0
    4.8485    0.8128    0.3645 C   0  0  0  0  0  0  0  0  0  0  0  0
    6.1666    1.2048    0.0905 C   0  0  0  0  0  0  0  0  0  0  0  0
    7.0709    1.6019    1.0455 O   0  0  0  0  0  0  0  0  0  0  0  0
    6.6943    1.4705    2.4082 C   0  0  0  0  0  0  0  0  0  0  0  0
    9.4586    2.0012   -2.7174 H   0  0  0  0  0  0  0  0  0  0  0  0
    7.8571    2.3647   -3.3694 H   0  0  0  0  0  0  0  0  0  0  0  0
    8.4220    0.6563   -3.2048 H   0  0  0  0  0  0  0  0  0  0  0  0
    6.0811    0.8163   -3.3045 H   0  0  0  0  0  0  0  0  0  0  0  0
    3.8124    0.1248   -2.8029 H   0  0  0  0  0  0  0  0  0  0  0  0
    1.6695    1.3418   -1.8102 H   0  0  0  0  0  0  0  0  0  0  0  0
   -0.6405    0.6559   -1.3159 H   0  0  0  0  0  0  0  0  0  0  0  0
    3.1385   -1.4459    1.1422 H   0  0  0  0  0  0  0  0  0  0  0  0
   -0.5555   -3.2090    4.5873 H   0  0  0  0  0  0  0  0  0  0  0  0
   -2.7871   -2.6586    5.5200 H   0  0  0  0  0  0  0  0  0  0  0  0
   -4.3940   -1.3499    4.1778 H   0  0  0  0  0  0  0  0  0  0  0  0
   -3.9384   -1.2212   -0.0276 H   0  0  0  0  0  0  0  0  0  0  0  0
   -6.2179    0.5925    0.5288 H   0  0  0  0  0  0  0  0  0  0  0  0
   -3.8687    1.6934   -0.1937 H   0  0  0  0  0  0  0  0  0  0  0  0
   -5.4202    2.3021   -0.7495 H   0  0  0  0  0  0  0  0  0  0  0  0
   -3.6618    0.3516   -2.2980 H   0  0  0  0  0  0  0  0  0  0  0  0
   -3.7923    2.0732   -2.6209 H   0  0  0  0  0  0  0  0  0  0  0  0
   -5.9199    1.8889   -3.5624 H   0  0  0  0  0  0  0  0  0  0  0  0
   -5.2432    0.3284   -3.9861 H   0  0  0  0  0  0  0  0  0  0  0  0
   -7.3034   -0.3317   -3.1182 H   0  0  0  0  0  0  0  0  0  0  0  0
   -7.4014    1.0292   -2.0105 H   0  0  0  0  0  0  0  0  0  0  0  0
   -7.0750   -1.1293   -0.7930 H   0  0  0  0  0  0  0  0  0  0  0  0
   -5.5794   -1.3950   -1.6686 H   0  0  0  0  0  0  0  0  0  0  0  0
    4.4739    0.8209    1.3834 H   0  0  0  0  0  0  0  0  0  0  0  0
    6.4446    0.4326    2.6537 H   0  0  0  0  0  0  0  0  0  0  0  0
    5.8692    2.1464    2.6549 H   0  0  0  0  0  0  0  0  0  0  0  0
    7.5535    1.7584    3.0221 H   0  0  0  0  0  0  0  0  0  0  0  0
  1  2  1  0
  2  3  1  0
  3  4  2  0
  4  5  1  0
  5  6  2  0
  6  7  1  0
  7  8  2  0
  8  9  1  0
  9 10  2  0
 10 11  1  0
 11 12  2  0
 11 13  1  0
 13 14  2  0
 13 15  2  0
 13 16  1  0
 16 17  2  0
 17 18  1  0
 18 19  2  0
 19 20  1  0
 20 21  1  0
 21 22  2  0
 21 23  1  0
 23 24  1  0
 24 25  1  0
 25 26  1  0
 26 27  1  0
 27 28  1  0
 28 29  1  0
 20 30  2  0
 30 31  1  0
 31 32  2  0
  6 33  1  0
 33 34  2  0
 34 35  1  0
 35 36  1  0
 34  3  1  0
 12  7  1  0
 30 16  1  0
 31 10  1  0
 29 24  1  0
  1 37  1  0
  1 38  1  0
  1 39  1  0
  4 40  1  0
  5 41  1  0
  8 42  1  0
  9 43  1  0
 12 44  1  0
 17 45  1  0
 18 46  1  0
 19 47  1  0
 23 48  1  0
 24 49  1  0
 25 50  1  0
 25 51  1  0
 26 52  1  0
 26 53  1  0
 27 54  1  0
 27 55  1  0
 28 56  1  0
 28 57  1  0
 29 58  1  0
 29 59  1  0
 33 60  1  0
 36 61  1  0
 36 62  1  0
 36 63  1  0
M  END
$$$$
