
     RDKit          3D

 59 62  0  0  0  0  0  0  0  0999 V2000
    6.6492    3.4232   -1.3742 C   0  0  0  0  0  0  0  0  0  0  0  0
    5.7530    3.9735   -0.2770 C   0  0  0  0  0  0  0  0  0  0  0  0
    4.4442    3.4097   -0.3557 O   0  0  0  0  0  0  0  0  0  0  0  0
    4.1841    2.2427    0.3061 C   0  0  0  0  0  0  0  0  0  0  0  0
    2.8474    1.8376    0.2591 C   0  0  0  0  0  0  0  0  0  0  0  0
    2.4346    0.6567    0.8807 C   0  0  0  0  0  0  0  0  0  0  0  0
    3.3602   -0.1454    1.5570 C   0  0  0  0  0  0  0  0  0  0  0  0
    2.9240   -1.4452    2.1952 C   0  0  0  0  0  0  0  0  0  0  0  0
    3.3802   -2.6759    1.4024 C   0  0  0  0  0  0  0  0  0  0  0  0
    2.8366   -2.7188    0.0563 N   0  0  0  0  0  0  0  0  0  0  0  0
    1.5440   -3.1384   -0.1854 C   0  0  0  0  0  0  0  0  0  0  0  0
    0.8096   -3.5833    0.6940 O   0  0  0  0  0  0  0  0  0  0  0  0
    1.1110   -3.0140   -1.6370 C   0  0  0  0  0  0  0  0  0  0  0  0
   -0.0935   -2.1215   -1.8076 C   0  0  0  0  0  0  0  0  0  0  0  0
   -1.3800   -2.6733   -1.8683 C   0  0  0  0  0  0  0  0  0  0  0  0
   -2.4963   -1.8479   -2.0166 C   0  0  0  0  0  0  0  0  0  0  0  0
   -2.3480   -0.4604   -2.0778 C   0  0  0  0  0  0  0  0  0  0  0  0
   -3.4654    0.3702   -2.2196 N   0  0  0  0  0  0  0  0  0  0  0  0
   -4.1350    0.6738   -1.1664 C   0  0  0  0  0  0  0  0  0  0  0  0
   -3.9658    0.3165    0.1450 N   0  0  0  0  0  0  0  0  0  0  0  0
   -5.1007    0.5449    1.0188 C   0  0  0  0  0  0  0  0  0  0  0  0
   -6.0804   -0.6187    0.9815 C   0  0  0  0  0  0  0  0  0  0  0  0
   -7.6148    0.1198    1.4725 S   0  0  0  0  0  6  0  0  0  0  0  0
   -8.6894   -0.4569    0.6945 O   0  0  0  0  0  0  0  0  0  0  0  0
   -7.6404    0.1504    2.9213 O   0  0  0  0  0  0  0  0  0  0  0  0
   -7.2789    1.7709    0.8942 C   0  0  0  0  0  0  0  0  0  0  0  0
   -5.8214    1.7883    0.4672 C   0  0  0  0  0  0  0  0  0  0  0  0
   -5.5709    1.6888   -1.3460 S   0  0  0  0  0  0  0  0  0  0  0  0
   -1.0670    0.0915   -2.0278 C   0  0  0  0  0  0  0  0  0  0  0  0
    0.0546   -0.7305   -1.8912 C   0  0  0  0  0  0  0  0  0  0  0  0
    4.6989    0.2641    1.6075 C   0  0  0  0  0  0  0  0  0  0  0  0
    5.1082    1.4500    0.9852 C   0  0  0  0  0  0  0  0  0  0  0  0
    6.7891    2.3430   -1.2739 H   0  0  0  0  0  0  0  0  0  0  0  0
    7.6320    3.9048   -1.3496 H   0  0  0  0  0  0  0  0  0  0  0  0
    6.1988    3.5945   -2.3581 H   0  0  0  0  0  0  0  0  0  0  0  0
    5.6351    5.0514   -0.4382 H   0  0  0  0  0  0  0  0  0  0  0  0
    6.1971    3.8669    0.7188 H   0  0  0  0  0  0  0  0  0  0  0  0
    2.1187    2.4515   -0.2659 H   0  0  0  0  0  0  0  0  0  0  0  0
    1.3864    0.3673    0.8303 H   0  0  0  0  0  0  0  0  0  0  0  0
    1.8326   -1.4546    2.3086 H   0  0  0  0  0  0  0  0  0  0  0  0
    3.3357   -1.4935    3.2115 H   0  0  0  0  0  0  0  0  0  0  0  0
    4.4712   -2.6991    1.3047 H   0  0  0  0  0  0  0  0  0  0  0  0
    3.0722   -3.5843    1.9329 H   0  0  0  0  0  0  0  0  0  0  0  0
    3.3001   -2.1496   -0.6423 H   0  0  0  0  0  0  0  0  0  0  0  0
    0.8958   -4.0249   -2.0048 H   0  0  0  0  0  0  0  0  0  0  0  0
    1.9321   -2.6397   -2.2604 H   0  0  0  0  0  0  0  0  0  0  0  0
   -1.5206   -3.7503   -1.8039 H   0  0  0  0  0  0  0  0  0  0  0  0
   -3.4869   -2.2876   -2.0866 H   0  0  0  0  0  0  0  0  0  0  0  0
   -3.3309   -0.4516    0.3355 H   0  0  0  0  0  0  0  0  0  0  0  0
   -4.7663    0.7277    2.0465 H   0  0  0  0  0  0  0  0  0  0  0  0
   -6.2111   -1.0417   -0.0198 H   0  0  0  0  0  0  0  0  0  0  0  0
   -5.8144   -1.4187    1.6757 H   0  0  0  0  0  0  0  0  0  0  0  0
   -7.4413    2.4437    1.7430 H   0  0  0  0  0  0  0  0  0  0  0  0
   -7.9806    2.0284    0.0965 H   0  0  0  0  0  0  0  0  0  0  0  0
   -5.3287    2.7128    0.7922 H   0  0  0  0  0  0  0  0  0  0  0  0
   -0.9461    1.1693   -2.1011 H   0  0  0  0  0  0  0  0  0  0  0  0
    1.0418   -0.2748   -1.8578 H   0  0  0  0  0  0  0  0  0  0  0  0
    5.4382   -0.3387    2.1316 H   0  0  0  0  0  0  0  0  0  0  0  0
    6.1578    1.7161    1.0466 H   0  0  0  0  0  0  0  0  0  0  0  0
  1  2  1  0
  2  3  1  0
  3  4  1  0
  4  5  2  0
  5  6  1  0
  6  7  2  0
  7  8  1  0
  8  9  1  0
  9 10  1  0
 10 11  1  0
 11 12  2  0
 11 13  1  0
 13 14  1  0
 14 15  2  0
 15 16  1  0
 16 17  2  0
 17 18  1  0
 18 19  2  3
 19 20  1  0
 20 21  1  0
 21 22  1  0
 22 23  1  0
 23 24  2  0
 23 25  2  0
 23 26  1  0
 26 27  1  0
 27 28  1  0
 17 29  1  0
 29 30  2  0
  7 31  1  0
 31 32  2  0
 32  4  1  0
 30 14  1  0
 28 19  1  0
 27 21  1  0
  1 33  1  0
  1 34  1  0
  1 35  1  0
  2 36  1  0
  2 37  1  0
  5 38  1  0
  6 39  1  0
  8 40  1  0
  8 41  1  0
  9 42  1  0
  9 43  1  0
 10 44  1  0
 13 45  1  0
 13 46  1  0
 15 47  1  0
 16 48  1  0
 20 49  1  0
 21 50  1  0
 22 51  1  0
 22 52  1  0
 26 53  1  0
 26 54  1  0
 27 55  1  0
 29 56  1  0
 30 57  1  0
 31 58  1  0
 32 59  1  0
M  END
$$$$
