
     RDKit          3D

 67 69  0  0  0  0  0  0  0  0999 V2000
   -1.8203    2.9547   -3.1502 C   0  0  0  0  0  0  0  0  0  0  0  0
   -2.6524    2.4465   -1.9576 C   0  0  0  0  0  0  0  0  0  0  0  0
   -2.7798    3.5796   -0.9286 C   0  0  0  0  0  0  0  0  0  0  0  0
   -4.0422    2.0474   -2.4820 C   0  0  0  0  0  0  0  0  0  0  0  0
   -1.9486    1.2946   -1.3799 N   0  0  0  0  0  0  0  0  0  0  0  0
   -2.4114    0.5157   -0.3382 C   0  0  0  0  0  0  0  0  0  0  0  0
   -3.5022    0.6986    0.2009 O   0  0  0  0  0  0  0  0  0  0  0  0
   -1.4202   -0.5646    0.1939 C   0  0  0  0  0  0  0  0  0  0  0  0
   -0.6287   -0.1446    1.4411 C   0  0  0  0  0  0  0  0  0  0  0  0
   -0.0005   -1.1306    2.2281 C   0  0  0  0  0  0  0  0  0  0  0  0
    0.7176   -0.7886    3.3763 C   0  0  0  0  0  0  0  0  0  0  0  0
    0.8221    0.5438    3.7454 C   0  0  0  0  0  0  0  0  0  0  0  0
    1.5022    0.8728    4.8534 F   0  0  0  0  0  0  0  0  0  0  0  0
    0.2292    1.5386    2.9822 C   0  0  0  0  0  0  0  0  0  0  0  0
   -0.4924    1.1975    1.8343 C   0  0  0  0  0  0  0  0  0  0  0  0
   -0.5608   -1.1991   -0.8488 N   0  0  0  0  0  0  0  0  0  0  0  0
    0.5751   -0.5156   -1.2756 C   0  0  0  0  0  0  0  0  0  0  0  0
    0.7107    0.6985   -1.0940 O   0  0  0  0  0  0  0  0  0  0  0  0
    1.6408   -1.3034   -2.0187 C   0  0  0  0  0  0  0  0  0  0  0  0
    2.9954   -0.6096   -1.9373 C   0  0  0  0  0  0  0  0  0  0  0  0
    3.5027   -0.6291   -0.5066 C   0  0  0  0  0  0  0  0  0  0  0  0
    3.8735   -1.6839    0.0042 O   0  0  0  0  0  0  0  0  0  0  0  0
    3.4595    0.6035    0.0947 N   0  0  0  0  0  0  0  0  0  0  0  0
    3.8737    0.9630    1.3762 C   0  0  0  0  0  0  0  0  0  0  0  0
    4.4914    0.0958    2.2663 C   0  0  0  0  0  0  0  0  0  0  0  0
    4.8643    0.5748    3.5217 C   0  0  0  0  0  0  0  0  0  0  0  0
    4.6158    1.9003    3.8478 C   0  0  0  0  0  0  0  0  0  0  0  0
    4.0030    2.6967    2.8980 C   0  0  0  0  0  0  0  0  0  0  0  0
    3.6331    2.2591    1.6735 N   0  0  0  0  0  0  0  0  0  0  0  0
   -0.9749   -2.4757   -1.4748 C   0  0  0  0  0  0  0  0  0  0  0  0
   -2.4780   -2.6677   -1.7141 C   0  0  0  0  0  0  0  0  0  0  0  0
   -2.9854   -3.6301   -0.6411 C   0  0  0  0  0  0  0  0  0  0  0  0
   -1.7742   -4.0693    0.1703 C   0  0  0  0  0  0  0  0  0  0  0  0
   -0.5620   -3.7116   -0.6739 C   0  0  0  0  0  0  0  0  0  0  0  0
   -0.8153    3.2555   -2.8317 H   0  0  0  0  0  0  0  0  0  0  0  0
   -1.6995    2.1706   -3.9062 H   0  0  0  0  0  0  0  0  0  0  0  0
   -2.2925    3.8184   -3.6312 H   0  0  0  0  0  0  0  0  0  0  0  0
   -3.2446    4.4661   -1.3738 H   0  0  0  0  0  0  0  0  0  0  0  0
   -1.7960    3.8721   -0.5439 H   0  0  0  0  0  0  0  0  0  0  0  0
   -3.3895    3.2837   -0.0694 H   0  0  0  0  0  0  0  0  0  0  0  0
   -3.9727    1.1952   -3.1681 H   0  0  0  0  0  0  0  0  0  0  0  0
   -4.7211    1.7632   -1.6721 H   0  0  0  0  0  0  0  0  0  0  0  0
   -4.5150    2.8761   -3.0215 H   0  0  0  0  0  0  0  0  0  0  0  0
   -0.9308    1.3046   -1.4603 H   0  0  0  0  0  0  0  0  0  0  0  0
   -2.0897   -1.3494    0.5618 H   0  0  0  0  0  0  0  0  0  0  0  0
   -0.0638   -2.1777    1.9506 H   0  0  0  0  0  0  0  0  0  0  0  0
    1.1982   -1.5518    3.9799 H   0  0  0  0  0  0  0  0  0  0  0  0
    0.3353    2.5770    3.2767 H   0  0  0  0  0  0  0  0  0  0  0  0
   -0.9383    2.0020    1.2546 H   0  0  0  0  0  0  0  0  0  0  0  0
    1.7236   -2.3109   -1.6009 H   0  0  0  0  0  0  0  0  0  0  0  0
    1.3390   -1.3771   -3.0692 H   0  0  0  0  0  0  0  0  0  0  0  0
    3.7291   -1.1417   -2.5544 H   0  0  0  0  0  0  0  0  0  0  0  0
    2.9453    0.4151   -2.3228 H   0  0  0  0  0  0  0  0  0  0  0  0
    2.9703    1.3597   -0.3695 H   0  0  0  0  0  0  0  0  0  0  0  0
    4.6890   -0.9402    2.0217 H   0  0  0  0  0  0  0  0  0  0  0  0
    5.3396   -0.0890    4.2376 H   0  0  0  0  0  0  0  0  0  0  0  0
    4.8854    2.3006    4.8187 H   0  0  0  0  0  0  0  0  0  0  0  0
    3.7844    3.7406    3.1007 H   0  0  0  0  0  0  0  0  0  0  0  0
   -0.4896   -2.5190   -2.4546 H   0  0  0  0  0  0  0  0  0  0  0  0
   -3.0489   -1.7356   -1.7398 H   0  0  0  0  0  0  0  0  0  0  0  0
   -2.6226   -3.1435   -2.6933 H   0  0  0  0  0  0  0  0  0  0  0  0
   -3.4716   -4.4947   -1.1088 H   0  0  0  0  0  0  0  0  0  0  0  0
   -3.7321   -3.1519    0.0029 H   0  0  0  0  0  0  0  0  0  0  0  0
   -1.8067   -5.1393    0.4009 H   0  0  0  0  0  0  0  0  0  0  0  0
   -1.7536   -3.5380    1.1277 H   0  0  0  0  0  0  0  0  0  0  0  0
    0.3345   -3.5598   -0.0639 H   0  0  0  0  0  0  0  0  0  0  0  0
   -0.3557   -4.5388   -1.3651 H   0  0  0  0  0  0  0  0  0  0  0  0
  1  2  1  0
  2  3  1  0
  2  4  1  0
  2  5  1  0
  5  6  1  0
  6  7  2  0
  6  8  1  0
  8  9  1  0
  9 10  2  0
 10 11  1  0
 11 12  2  0
 12 13  1  0
 12 14  1  0
 14 15  2  0
  8 16  1  0
 16 17  1  0
 17 18  2  0
 17 19  1  0
 19 20  1  0
 20 21  1  0
 21 22  2  0
 21 23  1  0
 23 24  1  0
 24 25  2  0
 25 26  1  0
 26 27  2  0
 27 28  1  0
 28 29  2  0
 16 30  1  0
 30 31  1  0
 31 32  1  0
 32 33  1  0
 33 34  1  0
 15  9  1  0
 29 24  1  0
 34 30  1  0
  1 35  1  0
  1 36  1  0
  1 37  1  0
  3 38  1  0
  3 39  1  0
  3 40  1  0
  4 41  1  0
  4 42  1  0
  4 43  1  0
  5 44  1  0
  8 45  1  0
 10 46  1  0
 11 47  1  0
 14 48  1  0
 15 49  1  0
 19 50  1  0
 19 51  1  0
 20 52  1  0
 20 53  1  0
 23 54  1  0
 25 55  1  0
 26 56  1  0
 27 57  1  0
 28 58  1  0
 30 59  1  0
 31 60  1  0
 31 61  1  0
 32 62  1  0
 32 63  1  0
 33 64  1  0
 33 65  1  0
 34 66  1  0
 34 67  1  0
M  END
$$$$
