
     RDKit          3D

 45 47  0  0  0  0  0  0  0  0999 V2000
    7.7663    1.5456    0.9743 C   0  0  0  0  0  0  0  0  0  0  0  0
    6.8416    0.3766    0.8015 C   0  0  0  0  0  0  0  0  0  0  0  0
    7.3300   -0.9329    0.8792 C   0  0  0  0  0  0  0  0  0  0  0  0
    6.4741   -2.0211    0.7005 C   0  0  0  0  0  0  0  0  0  0  0  0
    5.1224   -1.8128    0.4218 C   0  0  0  0  0  0  0  0  0  0  0  0
    4.6283   -0.5076    0.3085 C   0  0  0  0  0  0  0  0  0  0  0  0
    3.1987   -0.2308    0.0049 C   0  0  0  0  0  0  0  0  0  0  0  0
    2.6597    0.7872    0.4315 O   0  0  0  0  0  0  0  0  0  0  0  0
    2.5562   -1.1540   -0.8106 N   0  0  0  0  0  0  0  0  0  0  0  0
    1.2255   -1.1979   -1.2094 C   0  0  0  0  0  0  0  0  0  0  0  0
    0.8310   -2.4589   -2.2301 S   0  0  0  0  0  0  0  0  0  0  0  0
    0.4456   -0.1880   -0.6993 N   0  0  0  0  0  0  0  0  0  0  0  0
   -0.9267    0.1318   -0.7873 C   0  0  0  0  0  0  0  0  0  0  0  0
   -1.9088   -0.6393   -1.4031 C   0  0  0  0  0  0  0  0  0  0  0  0
   -3.2456   -0.2166   -1.4213 C   0  0  0  0  0  0  0  0  0  0  0  0
   -3.6299    0.9861   -0.8174 C   0  0  0  0  0  0  0  0  0  0  0  0
   -5.0718    1.4376   -0.8418 C   0  0  0  0  0  0  0  0  0  0  0  0
   -6.0094    0.5578   -0.0492 C   0  0  0  0  0  0  0  0  0  0  0  0
   -7.0504   -0.1296   -0.6800 C   0  0  0  0  0  0  0  0  0  0  0  0
   -7.8916   -0.9179    0.0909 C   0  0  0  0  0  0  0  0  0  0  0  0
   -7.7705   -1.0651    1.4270 N   0  0  0  0  0  0  0  0  0  0  0  0
   -6.7586   -0.3952    2.0180 C   0  0  0  0  0  0  0  0  0  0  0  0
   -5.8678    0.4186    1.3352 C   0  0  0  0  0  0  0  0  0  0  0  0
   -2.6485    1.7601   -0.1932 C   0  0  0  0  0  0  0  0  0  0  0  0
   -1.3161    1.3342   -0.1779 C   0  0  0  0  0  0  0  0  0  0  0  0
    5.4871    0.5819    0.5076 C   0  0  0  0  0  0  0  0  0  0  0  0
    8.5853    1.2982    1.6578 H   0  0  0  0  0  0  0  0  0  0  0  0
    7.2357    2.4033    1.4008 H   0  0  0  0  0  0  0  0  0  0  0  0
    8.1878    1.8350    0.0068 H   0  0  0  0  0  0  0  0  0  0  0  0
    8.3823   -1.1135    1.0916 H   0  0  0  0  0  0  0  0  0  0  0  0
    6.8628   -3.0333    0.7873 H   0  0  0  0  0  0  0  0  0  0  0  0
    4.4730   -2.6781    0.3240 H   0  0  0  0  0  0  0  0  0  0  0  0
    3.1081   -1.8967   -1.2173 H   0  0  0  0  0  0  0  0  0  0  0  0
    0.9908    0.4891   -0.1619 H   0  0  0  0  0  0  0  0  0  0  0  0
   -1.6933   -1.5884   -1.8741 H   0  0  0  0  0  0  0  0  0  0  0  0
   -3.9875   -0.8469   -1.9081 H   0  0  0  0  0  0  0  0  0  0  0  0
   -5.3935    1.4932   -1.8902 H   0  0  0  0  0  0  0  0  0  0  0  0
   -5.1586    2.4626   -0.4578 H   0  0  0  0  0  0  0  0  0  0  0  0
   -7.2095   -0.0591   -1.7507 H   0  0  0  0  0  0  0  0  0  0  0  0
   -8.7111   -1.4686   -0.3619 H   0  0  0  0  0  0  0  0  0  0  0  0
   -6.6775   -0.5331    3.0923 H   0  0  0  0  0  0  0  0  0  0  0  0
   -5.0753    0.9260    1.8754 H   0  0  0  0  0  0  0  0  0  0  0  0
   -2.9073    2.7006    0.2877 H   0  0  0  0  0  0  0  0  0  0  0  0
   -0.5800    1.9638    0.3185 H   0  0  0  0  0  0  0  0  0  0  0  0
    5.0968    1.5960    0.4309 H   0  0  0  0  0  0  0  0  0  0  0  0
  1  2  1  0
  2  3  2  0
  3  4  1  0
  4  5  2  0
  5  6  1  0
  6  7  1  0
  7  8  2  0
  7  9  1  0
  9 10  1  0
 10 11  2  0
 10 12  1  0
 12 13  1  0
 13 14  2  0
 14 15  1  0
 15 16  2  0
 16 17  1  0
 17 18  1  0
 18 19  2  0
 19 20  1  0
 20 21  2  0
 21 22  1  0
 22 23  2  0
 16 24  1  0
 24 25  2  0
  6 26  2  0
 26  2  1  0
 25 13  1  0
 23 18  1  0
  1 27  1  0
  1 28  1  0
  1 29  1  0
  3 30  1  0
  4 31  1  0
  5 32  1  0
  9 33  1  0
 12 34  1  0
 14 35  1  0
 15 36  1  0
 17 37  1  0
 17 38  1  0
 19 39  1  0
 20 40  1  0
 22 41  1  0
 23 42  1  0
 24 43  1  0
 25 44  1  0
 26 45  1  0
M  END
$$$$
