
     RDKit          3D

 46 49  0  0  0  0  0  0  0  0999 V2000
   -6.1217   -1.1340    1.5200 C   0  0  0  0  0  0  0  0  0  0  0  0
   -4.7089   -1.1001    1.6753 O   0  0  0  0  0  0  0  0  0  0  0  0
   -3.9804   -0.6106    0.6238 C   0  0  0  0  0  0  0  0  0  0  0  0
   -4.4886   -0.2645   -0.6291 C   0  0  0  0  0  0  0  0  0  0  0  0
   -3.6333    0.2158   -1.6242 C   0  0  0  0  0  0  0  0  0  0  0  0
   -2.2705    0.3602   -1.3580 C   0  0  0  0  0  0  0  0  0  0  0  0
   -1.3897    0.8034   -2.3196 O   0  0  0  0  0  0  0  0  0  0  0  0
   -1.7628    2.0836   -2.8365 C   0  0  0  0  0  0  0  0  0  0  0  0
   -1.7333    0.0053   -0.1055 C   0  0  0  0  0  0  0  0  0  0  0  0
   -0.3377    0.0932    0.0826 N   0  0  0  0  0  0  0  0  0  0  0  0
    0.4143    0.3810    1.2578 C   0  0  0  0  0  0  0  0  0  0  0  0
   -0.2396    0.6310    2.4231 N   0  0  0  0  0  0  0  0  0  0  0  0
    0.6193    0.9358    3.4311 C   0  0  0  0  0  0  0  0  0  0  0  0
    0.2916    1.2378    4.6882 N   0  0  0  0  0  0  0  0  0  0  0  0
    1.5101    1.4721    5.3246 O   0  0  0  0  0  0  0  0  0  0  0  0
    2.5937    1.3163    4.4591 N   0  0  0  0  0  0  0  0  0  0  0  0
    2.0458    0.9855    3.2902 C   0  0  0  0  0  0  0  0  0  0  0  0
    2.7126    0.7268    2.1340 N   0  0  0  0  0  0  0  0  0  0  0  0
    1.8688    0.3986    1.1185 C   0  0  0  0  0  0  0  0  0  0  0  0
    2.4414    0.1005   -0.1514 N   0  0  0  0  0  0  0  0  0  0  0  0
    2.2082   -1.2963   -0.5845 C   0  0  0  0  0  0  0  0  0  0  0  0
    3.5122   -2.0199   -0.9195 C   0  0  0  0  0  0  0  0  0  0  0  0
    4.3549   -1.2506   -1.9358 C   0  0  0  0  0  0  0  0  0  0  0  0
    4.3014    0.2632   -1.7236 C   0  0  0  0  0  0  0  0  0  0  0  0
    3.8064    0.6188   -0.3240 C   0  0  0  0  0  0  0  0  0  0  0  0
   -2.6068   -0.4859    0.8706 C   0  0  0  0  0  0  0  0  0  0  0  0
   -6.4137   -1.8517    0.7447 H   0  0  0  0  0  0  0  0  0  0  0  0
   -6.5235   -0.1376    1.3077 H   0  0  0  0  0  0  0  0  0  0  0  0
   -6.5531   -1.4726    2.4666 H   0  0  0  0  0  0  0  0  0  0  0  0
   -5.5417   -0.3694   -0.8663 H   0  0  0  0  0  0  0  0  0  0  0  0
   -4.0345    0.4483   -2.6052 H   0  0  0  0  0  0  0  0  0  0  0  0
   -2.5835    1.9934   -3.5610 H   0  0  0  0  0  0  0  0  0  0  0  0
   -2.0307    2.7832   -2.0307 H   0  0  0  0  0  0  0  0  0  0  0  0
   -0.8919    2.4935   -3.3618 H   0  0  0  0  0  0  0  0  0  0  0  0
    0.1157    0.5326   -0.7196 H   0  0  0  0  0  0  0  0  0  0  0  0
    1.6771   -1.8876    0.1723 H   0  0  0  0  0  0  0  0  0  0  0  0
    1.5759   -1.2721   -1.4802 H   0  0  0  0  0  0  0  0  0  0  0  0
    3.2964   -3.0227   -1.3048 H   0  0  0  0  0  0  0  0  0  0  0  0
    4.0938   -2.1608    0.0000 H   0  0  0  0  0  0  0  0  0  0  0  0
    5.3944   -1.5989   -1.8700 H   0  0  0  0  0  0  0  0  0  0  0  0
    4.0175   -1.4807   -2.9543 H   0  0  0  0  0  0  0  0  0  0  0  0
    3.6293    0.7074   -2.4684 H   0  0  0  0  0  0  0  0  0  0  0  0
    5.2924    0.6976   -1.8993 H   0  0  0  0  0  0  0  0  0  0  0  0
    3.8015    1.7119   -0.2246 H   0  0  0  0  0  0  0  0  0  0  0  0
    4.4986    0.2128    0.4261 H   0  0  0  0  0  0  0  0  0  0  0  0
   -2.2275   -0.7936    1.8418 H   0  0  0  0  0  0  0  0  0  0  0  0
  1  2  1  0
  2  3  1  0
  3  4  2  0
  4  5  1  0
  5  6  2  0
  6  7  1  0
  7  8  1  0
  6  9  1  0
  9 10  1  0
 10 11  1  0
 11 12  2  0
 12 13  1  0
 13 14  2  0
 14 15  1  0
 15 16  1  0
 16 17  2  0
 17 18  1  0
 18 19  2  0
 19 20  1  0
 20 21  1  0
 21 22  1  0
 22 23  1  0
 23 24  1  0
 24 25  1  0
  9 26  2  0
 26  3  1  0
 19 11  1  0
 25 20  1  0
 17 13  1  0
  1 27  1  0
  1 28  1  0
  1 29  1  0
  4 30  1  0
  5 31  1  0
  8 32  1  0
  8 33  1  0
  8 34  1  0
 10 35  1  0
 21 36  1  0
 21 37  1  0
 22 38  1  0
 22 39  1  0
 23 40  1  0
 23 41  1  0
 24 42  1  0
 24 43  1  0
 25 44  1  0
 25 45  1  0
 26 46  1  0
M  END
$$$$
