
     RDKit          3D

 85 88  0  0  0  0  0  0  0  0999 V2000
    9.1922   -3.4140   -0.3028 C   0  0  0  0  0  0  0  0  0  0  0  0
    7.7458   -3.2453    0.1340 C   0  0  0  0  0  0  0  0  0  0  0  0
    7.3713   -1.7702    0.2746 C   0  0  0  0  0  0  0  0  0  0  0  0
    5.9151   -1.6057    0.7144 C   0  0  0  0  0  0  0  0  0  0  0  0
    5.5422   -0.1240    0.8536 C   0  0  0  0  0  0  0  0  0  0  0  0
    4.0816    0.0759    1.1956 C   0  0  0  0  0  0  0  0  0  0  0  0
    3.7668    0.3419    2.4738 C   0  0  0  0  0  0  0  0  0  0  0  0
    2.4016    0.5433    2.9539 C   0  0  0  0  0  0  0  0  0  0  0  0
    2.1696    0.8000    4.1288 O   0  0  0  0  0  0  0  0  0  0  0  0
    1.4089    0.4091    2.0108 O   0  0  0  0  0  0  0  0  0  0  0  0
    1.6659    0.1650    0.6347 C   0  0  0  0  0  0  0  0  0  0  0  0
    0.5206    0.1077   -0.2026 C   0  0  0  0  0  0  0  0  0  0  0  0
   -0.8778    0.2983    0.4118 C   0  0  0  0  0  0  0  0  0  0  0  0
   -1.9392   -0.7377   -0.0527 C   0  0  0  0  0  0  0  0  0  0  0  0
   -3.1456   -0.7867    0.9043 C   0  0  0  0  0  0  0  0  0  0  0  0
   -4.1000   -1.8686    0.5957 N   0  0  0  0  0  0  0  0  0  0  0  0
   -5.0873   -2.0281    1.6779 C   0  0  0  0  0  0  0  0  0  0  0  0
   -6.5156   -1.6563    1.2889 C   0  0  0  0  0  0  0  0  0  0  0  0
   -6.9964   -2.4694    0.0899 C   0  0  0  0  0  0  0  0  0  0  0  0
   -5.8993   -2.6668   -0.9687 C   0  0  0  0  0  0  0  0  0  0  0  0
   -5.4454   -4.1296   -1.0332 C   0  0  0  0  0  0  0  0  0  0  0  0
   -4.7134   -1.7143   -0.7316 C   0  0  0  0  0  0  0  0  0  0  0  0
   -1.3447    1.7503    0.3311 C   0  0  0  0  0  0  0  0  0  0  0  0
   -1.9544    2.2843   -0.8052 C   0  0  0  0  0  0  0  0  0  0  0  0
   -2.3646    3.6268   -0.8435 C   0  0  0  0  0  0  0  0  0  0  0  0
   -2.1945    4.5000    0.2438 C   0  0  0  0  0  0  0  0  0  0  0  0
   -2.5945    5.8416    0.1890 N   0  0  0  0  0  0  0  0  0  0  0  0
   -3.5948    6.2320   -0.8030 C   0  0  0  0  0  0  0  0  0  0  0  0
   -2.5770    6.6375    1.4143 C   0  0  0  0  0  0  0  0  0  0  0  0
   -1.5556    3.9500    1.3668 C   0  0  0  0  0  0  0  0  0  0  0  0
   -1.1430    2.6091    1.4161 C   0  0  0  0  0  0  0  0  0  0  0  0
    0.7377   -0.0781   -1.5764 C   0  0  0  0  0  0  0  0  0  0  0  0
   -0.3662   -0.0925   -2.3845 O   0  0  0  0  0  0  0  0  0  0  0  0
   -0.1836   -0.2074   -3.7892 C   0  0  0  0  0  0  0  0  0  0  0  0
    2.0449   -0.2276   -2.0562 C   0  0  0  0  0  0  0  0  0  0  0  0
    3.1606   -0.2023   -1.2002 C   0  0  0  0  0  0  0  0  0  0  0  0
    4.4365   -0.3260   -1.6884 O   0  0  0  0  0  0  0  0  0  0  0  0
    4.6147   -1.0088   -2.9239 C   0  0  0  0  0  0  0  0  0  0  0  0
    2.9919    0.0099    0.1823 C   0  0  0  0  0  0  0  0  0  0  0  0
    9.4390   -4.4765   -0.3934 H   0  0  0  0  0  0  0  0  0  0  0  0
    9.8763   -2.9670    0.4255 H   0  0  0  0  0  0  0  0  0  0  0  0
    9.3669   -2.9404   -1.2740 H   0  0  0  0  0  0  0  0  0  0  0  0
    7.0901   -3.7276   -0.6003 H   0  0  0  0  0  0  0  0  0  0  0  0
    7.5967   -3.7604    1.0901 H   0  0  0  0  0  0  0  0  0  0  0  0
    7.5249   -1.2606   -0.6846 H   0  0  0  0  0  0  0  0  0  0  0  0
    8.0332   -1.2902    1.0058 H   0  0  0  0  0  0  0  0  0  0  0  0
    5.7664   -2.1101    1.6779 H   0  0  0  0  0  0  0  0  0  0  0  0
    5.2599   -2.1099   -0.0045 H   0  0  0  0  0  0  0  0  0  0  0  0
    5.8235    0.4566   -0.0306 H   0  0  0  0  0  0  0  0  0  0  0  0
    6.1686    0.3012    1.6513 H   0  0  0  0  0  0  0  0  0  0  0  0
    4.5225    0.4125    3.2485 H   0  0  0  0  0  0  0  0  0  0  0  0
   -0.7792    0.0704    1.4817 H   0  0  0  0  0  0  0  0  0  0  0  0
   -1.4772   -1.7334   -0.0844 H   0  0  0  0  0  0  0  0  0  0  0  0
   -2.2921   -0.5173   -1.0631 H   0  0  0  0  0  0  0  0  0  0  0  0
   -2.7517   -0.9533    1.9153 H   0  0  0  0  0  0  0  0  0  0  0  0
   -3.6641    0.1798    0.9162 H   0  0  0  0  0  0  0  0  0  0  0  0
   -4.8081   -1.4613    2.5747 H   0  0  0  0  0  0  0  0  0  0  0  0
   -5.0715   -3.0817    1.9841 H   0  0  0  0  0  0  0  0  0  0  0  0
   -7.1908   -1.8210    2.1360 H   0  0  0  0  0  0  0  0  0  0  0  0
   -6.5661   -0.5849    1.0554 H   0  0  0  0  0  0  0  0  0  0  0  0
   -7.8520   -1.9509   -0.3599 H   0  0  0  0  0  0  0  0  0  0  0  0
   -7.3797   -3.4382    0.4339 H   0  0  0  0  0  0  0  0  0  0  0  0
   -6.3305   -2.4291   -1.9500 H   0  0  0  0  0  0  0  0  0  0  0  0
   -5.0325   -4.4756   -0.0812 H   0  0  0  0  0  0  0  0  0  0  0  0
   -6.2871   -4.7821   -1.2896 H   0  0  0  0  0  0  0  0  0  0  0  0
   -4.6783   -4.2618   -1.8028 H   0  0  0  0  0  0  0  0  0  0  0  0
   -5.0611   -0.6822   -0.8746 H   0  0  0  0  0  0  0  0  0  0  0  0
   -3.9647   -1.9054   -1.5087 H   0  0  0  0  0  0  0  0  0  0  0  0
   -2.1152    1.6730   -1.6887 H   0  0  0  0  0  0  0  0  0  0  0  0
   -2.8152    3.9709   -1.7690 H   0  0  0  0  0  0  0  0  0  0  0  0
   -3.8602    7.2909   -0.7056 H   0  0  0  0  0  0  0  0  0  0  0  0
   -4.5159    5.6502   -0.6852 H   0  0  0  0  0  0  0  0  0  0  0  0
   -3.2109    6.1122   -1.8216 H   0  0  0  0  0  0  0  0  0  0  0  0
   -2.8826    7.6715    1.2180 H   0  0  0  0  0  0  0  0  0  0  0  0
   -3.2632    6.2253    2.1623 H   0  0  0  0  0  0  0  0  0  0  0  0
   -1.5669    6.6993    1.8336 H   0  0  0  0  0  0  0  0  0  0  0  0
   -1.3561    4.5509    2.2486 H   0  0  0  0  0  0  0  0  0  0  0  0
   -0.6567    2.2497    2.3212 H   0  0  0  0  0  0  0  0  0  0  0  0
   -1.1723   -0.1752   -4.2571 H   0  0  0  0  0  0  0  0  0  0  0  0
    0.3971    0.6336   -4.1821 H   0  0  0  0  0  0  0  0  0  0  0  0
    0.2756   -1.1665   -4.0502 H   0  0  0  0  0  0  0  0  0  0  0  0
    2.2072   -0.3459   -3.1199 H   0  0  0  0  0  0  0  0  0  0  0  0
    4.0553   -1.9500   -2.9519 H   0  0  0  0  0  0  0  0  0  0  0  0
    4.3457   -0.3619   -3.7645 H   0  0  0  0  0  0  0  0  0  0  0  0
    5.6777   -1.2508   -3.0190 H   0  0  0  0  0  0  0  0  0  0  0  0
  1  2  1  0
  2  3  1  0
  3  4  1  0
  4  5  1  0
  5  6  1  0
  6  7  2  0
  7  8  1  0
  8  9  2  0
  8 10  1  0
 10 11  1  0
 11 12  2  0
 12 13  1  0
 13 14  1  0
 14 15  1  0
 15 16  1  0
 16 17  1  0
 17 18  1  0
 18 19  1  0
 19 20  1  0
 20 21  1  0
 20 22  1  0
 13 23  1  0
 23 24  2  0
 24 25  1  0
 25 26  2  0
 26 27  1  0
 27 28  1  0
 27 29  1  0
 26 30  1  0
 30 31  2  0
 12 32  1  0
 32 33  1  0
 33 34  1  0
 32 35  2  0
 35 36  1  0
 36 37  1  0
 37 38  1  0
 36 39  2  0
 39  6  1  0
 39 11  1  0
 22 16  1  0
 31 23  1  0
  1 40  1  0
  1 41  1  0
  1 42  1  0
  2 43  1  0
  2 44  1  0
  3 45  1  0
  3 46  1  0
  4 47  1  0
  4 48  1  0
  5 49  1  0
  5 50  1  0
  7 51  1  0
 13 52  1  0
 14 53  1  0
 14 54  1  0
 15 55  1  0
 15 56  1  0
 17 57  1  0
 17 58  1  0
 18 59  1  0
 18 60  1  0
 19 61  1  0
 19 62  1  0
 20 63  1  0
 21 64  1  0
 21 65  1  0
 21 66  1  0
 22 67  1  0
 22 68  1  0
 24 69  1  0
 25 70  1  0
 28 71  1  0
 28 72  1  0
 28 73  1  0
 29 74  1  0
 29 75  1  0
 29 76  1  0
 30 77  1  0
 31 78  1  0
 34 79  1  0
 34 80  1  0
 34 81  1  0
 35 82  1  0
 38 83  1  0
 38 84  1  0
 38 85  1  0
M  END
$$$$
