
     RDKit          3D

 57 61  0  0  0  0  0  0  0  0999 V2000
   -4.6154    1.5000    3.2478 C   0  0  0  0  0  0  0  0  0  0  0  0
   -5.4950    1.9197    2.1299 N   0  0  0  0  0  0  0  0  0  0  0  0
   -6.6702    2.6743    2.6280 C   0  0  0  0  0  0  0  0  0  0  0  0
   -4.6925    2.7287    0.8482 S   0  0  0  0  0  6  0  0  0  0  0  0
   -5.6784    3.0709   -0.1551 O   0  0  0  0  0  0  0  0  0  0  0  0
   -3.8408    3.7394    1.4362 O   0  0  0  0  0  0  0  0  0  0  0  0
   -3.6743    1.4477    0.1583 C   0  0  0  0  0  0  0  0  0  0  0  0
   -4.2713    0.4576   -0.6185 C   0  0  0  0  0  0  0  0  0  0  0  0
   -3.4795   -0.5406   -1.1887 C   0  0  0  0  0  0  0  0  0  0  0  0
   -2.0810   -0.5653   -1.0102 C   0  0  0  0  0  0  0  0  0  0  0  0
   -1.3017   -1.5988   -1.5734 N   0  0  0  0  0  0  0  0  0  0  0  0
   -1.4181   -2.8853   -0.8302 C   0  0  0  0  0  0  0  0  0  0  0  0
   -1.6469   -3.9514   -1.9042 C   0  0  0  0  0  0  0  0  0  0  0  0
   -1.0520   -3.3235   -3.1556 C   0  0  0  0  0  0  0  0  0  0  0  0
   -1.4807   -1.8664   -3.0176 C   0  0  0  0  0  0  0  0  0  0  0  0
   -1.4906    0.4472   -0.2038 C   0  0  0  0  0  0  0  0  0  0  0  0
   -0.0168    0.5321    0.0987 C   0  0  0  0  0  0  0  0  0  0  0  0
    0.3568    1.2744    1.0036 O   0  0  0  0  0  0  0  0  0  0  0  0
    0.7815   -0.2522   -0.6911 N   0  0  0  0  0  0  0  0  0  0  0  0
    2.1405   -0.2911   -0.6091 C   0  0  0  0  0  0  0  0  0  0  0  0
    2.9486    0.3940    0.1524 N   0  0  0  0  0  0  0  0  0  0  0  0
    4.2663    0.0375   -0.1189 C   0  0  0  0  0  0  0  0  0  0  0  0
    4.4159   -0.9423   -1.1070 C   0  0  0  0  0  0  0  0  0  0  0  0
    5.6754   -1.4187   -1.5053 C   0  0  0  0  0  0  0  0  0  0  0  0
    6.8135   -0.8846   -0.8899 C   0  0  0  0  0  0  0  0  0  0  0  0
    6.7147    0.0978    0.1041 C   0  0  0  0  0  0  0  0  0  0  0  0
    7.8519    0.6383    0.7264 C   0  0  0  0  0  0  0  0  0  0  0  0
    7.7277    1.6176    1.7178 C   0  0  0  0  0  0  0  0  0  0  0  0
    6.4678    2.0728    2.1033 C   0  0  0  0  0  0  0  0  0  0  0  0
    5.3240    1.5513    1.4987 C   0  0  0  0  0  0  0  0  0  0  0  0
    5.4377    0.5650    0.4987 C   0  0  0  0  0  0  0  0  0  0  0  0
    2.8574   -1.4024   -1.6844 S   0  0  0  0  0  0  0  0  0  0  0  0
   -2.2952    1.4537    0.3637 C   0  0  0  0  0  0  0  0  0  0  0  0
   -4.2446    2.3663    3.8052 H   0  0  0  0  0  0  0  0  0  0  0  0
   -3.7708    0.9091    2.8880 H   0  0  0  0  0  0  0  0  0  0  0  0
   -5.1797    0.8600    3.9350 H   0  0  0  0  0  0  0  0  0  0  0  0
   -6.3750    3.6650    2.9901 H   0  0  0  0  0  0  0  0  0  0  0  0
   -7.4192    2.7773    1.8357 H   0  0  0  0  0  0  0  0  0  0  0  0
   -7.1455    2.1312    3.4528 H   0  0  0  0  0  0  0  0  0  0  0  0
   -5.3477    0.4557   -0.7790 H   0  0  0  0  0  0  0  0  0  0  0  0
   -3.9770   -1.3164   -1.7657 H   0  0  0  0  0  0  0  0  0  0  0  0
   -0.4698   -3.0678   -0.3070 H   0  0  0  0  0  0  0  0  0  0  0  0
   -2.2245   -2.9046   -0.0861 H   0  0  0  0  0  0  0  0  0  0  0  0
   -2.7246   -4.1193   -2.0468 H   0  0  0  0  0  0  0  0  0  0  0  0
   -1.1846   -4.9107   -1.6432 H   0  0  0  0  0  0  0  0  0  0  0  0
    0.0425   -3.4014   -3.1342 H   0  0  0  0  0  0  0  0  0  0  0  0
   -1.4187   -3.7854   -4.0784 H   0  0  0  0  0  0  0  0  0  0  0  0
   -2.5168   -1.7568   -3.3545 H   0  0  0  0  0  0  0  0  0  0  0  0
   -0.8486   -1.2029   -3.6158 H   0  0  0  0  0  0  0  0  0  0  0  0
    0.3258   -0.8764   -1.3519 H   0  0  0  0  0  0  0  0  0  0  0  0
    5.7673   -2.1841   -2.2715 H   0  0  0  0  0  0  0  0  0  0  0  0
    7.7908   -1.2509   -1.1992 H   0  0  0  0  0  0  0  0  0  0  0  0
    8.8470    0.3017    0.4438 H   0  0  0  0  0  0  0  0  0  0  0  0
    8.6176    2.0272    2.1899 H   0  0  0  0  0  0  0  0  0  0  0  0
    6.3737    2.8344    2.8741 H   0  0  0  0  0  0  0  0  0  0  0  0
    4.3415    1.9108    1.8022 H   0  0  0  0  0  0  0  0  0  0  0  0
   -1.8386    2.2402    0.9641 H   0  0  0  0  0  0  0  0  0  0  0  0
  1  2  1  0
  2  3  1  0
  2  4  1  0
  4  5  2  0
  4  6  2  0
  4  7  1  0
  7  8  2  0
  8  9  1  0
  9 10  2  0
 10 11  1  0
 11 12  1  0
 12 13  1  0
 13 14  1  0
 14 15  1  0
 10 16  1  0
 16 17  1  0
 17 18  2  0
 17 19  1  0
 19 20  1  0
 20 21  2  0
 21 22  1  0
 22 23  2  0
 23 24  1  0
 24 25  2  0
 25 26  1  0
 26 27  2  0
 27 28  1  0
 28 29  2  0
 29 30  1  0
 30 31  2  0
 23 32  1  0
 16 33  2  0
 33  7  1  0
 15 11  1  0
 32 20  1  0
 31 22  1  0
 31 26  1  0
  1 34  1  0
  1 35  1  0
  1 36  1  0
  3 37  1  0
  3 38  1  0
  3 39  1  0
  8 40  1  0
  9 41  1  0
 12 42  1  0
 12 43  1  0
 13 44  1  0
 13 45  1  0
 14 46  1  0
 14 47  1  0
 15 48  1  0
 15 49  1  0
 19 50  1  0
 24 51  1  0
 25 52  1  0
 27 53  1  0
 28 54  1  0
 29 55  1  0
 30 56  1  0
 33 57  1  0
M  END
$$$$
