
     RDKit          3D

 56 58  0  0  0  0  0  0  0  0999 V2000
   -9.2762   -0.9665   -0.7697 C   0  0  0  0  0  0  0  0  0  0  0  0
   -8.3825    0.1349   -0.8334 O   0  0  0  0  0  0  0  0  0  0  0  0
   -7.0655   -0.0934   -0.5183 C   0  0  0  0  0  0  0  0  0  0  0  0
   -6.5378   -1.3456   -0.1866 C   0  0  0  0  0  0  0  0  0  0  0  0
   -5.1816   -1.4856    0.1188 C   0  0  0  0  0  0  0  0  0  0  0  0
   -4.3337   -0.3757    0.1000 C   0  0  0  0  0  0  0  0  0  0  0  0
   -2.8651   -0.5229    0.4113 C   0  0  0  0  0  0  0  0  0  0  0  0
   -2.0230   -0.6432   -0.8615 C   0  0  0  0  0  0  0  0  0  0  0  0
   -0.6110   -0.7996   -0.5691 N   0  0  0  0  0  0  0  0  0  0  0  0
    0.1693    0.2750   -0.2223 C   0  0  0  0  0  0  0  0  0  0  0  0
   -0.2294    1.4309   -0.1641 O   0  0  0  0  0  0  0  0  0  0  0  0
    1.5595   -0.0799    0.1651 C   0  0  0  0  0  0  0  0  0  0  0  0
    2.2903   -0.9456   -0.5618 C   0  0  0  0  0  0  0  0  0  0  0  0
    3.7033   -1.3314   -0.2283 C   0  0  0  0  0  0  0  0  0  0  0  0
    4.0553   -0.8695    1.1289 N   0  0  0  0  0  0  0  0  0  0  0  0
    5.5628   -1.3736    1.7225 S   0  0  0  0  0  6  0  0  0  0  0  0
    5.6874   -0.9197    3.0913 O   0  0  0  0  0  0  0  0  0  0  0  0
    5.7362   -2.7692    1.3781 O   0  0  0  0  0  0  0  0  0  0  0  0
    6.7274   -0.4375    0.7477 C   0  0  0  0  0  0  0  0  0  0  0  0
    7.1358    0.8281    1.1877 C   0  0  0  0  0  0  0  0  0  0  0  0
    8.0689    1.5465    0.4392 C   0  0  0  0  0  0  0  0  0  0  0  0
    8.5934    0.9894   -0.7238 C   0  0  0  0  0  0  0  0  0  0  0  0
    9.4898    1.6813   -1.4381 F   0  0  0  0  0  0  0  0  0  0  0  0
    8.2096   -0.2785   -1.1518 C   0  0  0  0  0  0  0  0  0  0  0  0
    7.2768   -1.0040   -0.4096 C   0  0  0  0  0  0  0  0  0  0  0  0
    3.6540    0.5322    1.3982 C   0  0  0  0  0  0  0  0  0  0  0  0
    2.1283    0.6357    1.3569 C   0  0  0  0  0  0  0  0  0  0  0  0
   -4.8600    0.8808   -0.2371 C   0  0  0  0  0  0  0  0  0  0  0  0
   -6.2178    1.0317   -0.5446 C   0  0  0  0  0  0  0  0  0  0  0  0
   -6.8085    2.2246   -0.8833 O   0  0  0  0  0  0  0  0  0  0  0  0
   -5.9930    3.3874   -0.8800 C   0  0  0  0  0  0  0  0  0  0  0  0
   -9.0073   -1.7358   -1.5004 H   0  0  0  0  0  0  0  0  0  0  0  0
  -10.2757   -0.6015   -1.0256 H   0  0  0  0  0  0  0  0  0  0  0  0
   -9.3235   -1.3804    0.2429 H   0  0  0  0  0  0  0  0  0  0  0  0
   -7.1564   -2.2356   -0.1572 H   0  0  0  0  0  0  0  0  0  0  0  0
   -4.7959   -2.4703    0.3736 H   0  0  0  0  0  0  0  0  0  0  0  0
   -2.7059   -1.4036    1.0473 H   0  0  0  0  0  0  0  0  0  0  0  0
   -2.5366    0.3337    1.0138 H   0  0  0  0  0  0  0  0  0  0  0  0
   -2.1508    0.2433   -1.4943 H   0  0  0  0  0  0  0  0  0  0  0  0
   -2.3279   -1.5179   -1.4470 H   0  0  0  0  0  0  0  0  0  0  0  0
   -0.2500   -1.7331   -0.4238 H   0  0  0  0  0  0  0  0  0  0  0  0
    1.8764   -1.4026   -1.4572 H   0  0  0  0  0  0  0  0  0  0  0  0
    3.7732   -2.4231   -0.2751 H   0  0  0  0  0  0  0  0  0  0  0  0
    4.3737   -0.8986   -0.9770 H   0  0  0  0  0  0  0  0  0  0  0  0
    6.7421    1.2528    2.1089 H   0  0  0  0  0  0  0  0  0  0  0  0
    8.3991    2.5306    0.7585 H   0  0  0  0  0  0  0  0  0  0  0  0
    8.6483   -0.6952   -2.0536 H   0  0  0  0  0  0  0  0  0  0  0  0
    6.9926   -2.0034   -0.7318 H   0  0  0  0  0  0  0  0  0  0  0  0
    4.1009    1.1961    0.6481 H   0  0  0  0  0  0  0  0  0  0  0  0
    3.9957    0.8596    2.3850 H   0  0  0  0  0  0  0  0  0  0  0  0
    1.7041    0.1876    2.2639 H   0  0  0  0  0  0  0  0  0  0  0  0
    1.8504    1.6955    1.3545 H   0  0  0  0  0  0  0  0  0  0  0  0
   -4.1837    1.7304   -0.2532 H   0  0  0  0  0  0  0  0  0  0  0  0
   -5.1994    3.3139   -1.6306 H   0  0  0  0  0  0  0  0  0  0  0  0
   -5.5817    3.5806    0.1162 H   0  0  0  0  0  0  0  0  0  0  0  0
   -6.6248    4.2401   -1.1483 H   0  0  0  0  0  0  0  0  0  0  0  0
  1  2  1  0
  2  3  1  0
  3  4  2  0
  4  5  1  0
  5  6  2  0
  6  7  1  0
  7  8  1  0
  8  9  1  0
  9 10  1  0
 10 11  2  0
 10 12  1  0
 12 13  2  0
 13 14  1  0
 14 15  1  0
 15 16  1  0
 16 17  2  0
 16 18  2  0
 16 19  1  0
 19 20  2  0
 20 21  1  0
 21 22  2  0
 22 23  1  0
 22 24  1  0
 24 25  2  0
 15 26  1  0
 26 27  1  0
  6 28  1  0
 28 29  2  0
 29 30  1  0
 30 31  1  0
 29  3  1  0
 27 12  1  0
 25 19  1  0
  1 32  1  0
  1 33  1  0
  1 34  1  0
  4 35  1  0
  5 36  1  0
  7 37  1  0
  7 38  1  0
  8 39  1  0
  8 40  1  0
  9 41  1  0
 13 42  1  0
 14 43  1  0
 14 44  1  0
 20 45  1  0
 21 46  1  0
 24 47  1  0
 25 48  1  0
 26 49  1  0
 26 50  1  0
 27 51  1  0
 27 52  1  0
 28 53  1  0
 31 54  1  0
 31 55  1  0
 31 56  1  0
M  END
$$$$
