
     RDKit          3D

 56 60  0  0  0  0  0  0  0  0999 V2000
    5.1938    2.2956   -2.6299 C   0  0  0  0  0  0  0  0  0  0  0  0
    5.1115    0.9945   -1.9231 C   0  0  0  0  0  0  0  0  0  0  0  0
    4.4208   -0.0192   -2.4595 N   0  0  0  0  0  0  0  0  0  0  0  0
    4.5336   -1.0198   -1.5571 N   0  0  0  0  0  0  0  0  0  0  0  0
    3.8779   -2.2937   -1.8404 C   0  0  0  0  0  0  0  0  0  0  0  0
    2.6405   -2.4974   -0.9991 C   0  0  0  0  0  0  0  0  0  0  0  0
    2.5758   -3.5387   -0.0611 C   0  0  0  0  0  0  0  0  0  0  0  0
    1.4268   -3.7327    0.7086 C   0  0  0  0  0  0  0  0  0  0  0  0
    0.3276   -2.8879    0.5525 C   0  0  0  0  0  0  0  0  0  0  0  0
    0.3779   -1.8416   -0.3758 C   0  0  0  0  0  0  0  0  0  0  0  0
   -0.7790   -0.9284   -0.5802 C   0  0  0  0  0  0  0  0  0  0  0  0
   -1.0052   -0.4791   -1.6958 O   0  0  0  0  0  0  0  0  0  0  0  0
   -1.5084   -0.6301    0.5534 N   0  0  0  0  0  0  0  0  0  0  0  0
   -2.6256    0.3207    0.5915 C   0  0  0  0  0  0  0  0  0  0  0  0
   -2.1650    1.7557    0.2359 C   0  0  0  0  0  0  0  0  0  0  0  0
   -3.3417    2.7424    0.3385 C   0  0  0  0  0  0  0  0  0  0  0  0
   -3.8843    2.7385    1.7764 C   0  0  0  0  0  0  0  0  0  0  0  0
   -4.3701    1.3293    2.1506 C   0  0  0  0  0  0  0  0  0  0  0  0
   -5.4833    0.9007    1.1824 C   0  0  0  0  0  0  0  0  0  0  0  0
   -4.9498    0.8929   -0.2584 C   0  0  0  0  0  0  0  0  0  0  0  0
   -4.4572    2.3032   -0.6253 C   0  0  0  0  0  0  0  0  0  0  0  0
   -3.7749   -0.0960   -0.3613 C   0  0  0  0  0  0  0  0  0  0  0  0
   -3.1959    0.3442    2.0360 C   0  0  0  0  0  0  0  0  0  0  0  0
    1.5254   -1.6579   -1.1571 C   0  0  0  0  0  0  0  0  0  0  0  0
    5.3169   -0.6904   -0.4731 C   0  0  0  0  0  0  0  0  0  0  0  0
    5.6123   -1.6181    0.6455 C   0  0  0  0  0  0  0  0  0  0  0  0
    5.6820    0.6178   -0.6923 C   0  0  0  0  0  0  0  0  0  0  0  0
    6.7277    1.7226    0.4006 Br  0  0  0  0  0  0  0  0  0  0  0  0
    6.2366    2.5510   -2.8433 H   0  0  0  0  0  0  0  0  0  0  0  0
    4.6534    2.2709   -3.5822 H   0  0  0  0  0  0  0  0  0  0  0  0
    4.7585    3.0922   -2.0179 H   0  0  0  0  0  0  0  0  0  0  0  0
    3.6149   -2.3168   -2.9047 H   0  0  0  0  0  0  0  0  0  0  0  0
    4.6194   -3.0829   -1.6748 H   0  0  0  0  0  0  0  0  0  0  0  0
    3.4188   -4.2138    0.0741 H   0  0  0  0  0  0  0  0  0  0  0  0
    1.3845   -4.5517    1.4228 H   0  0  0  0  0  0  0  0  0  0  0  0
   -0.5708   -3.0742    1.1348 H   0  0  0  0  0  0  0  0  0  0  0  0
   -1.0819   -0.8627    1.4405 H   0  0  0  0  0  0  0  0  0  0  0  0
   -1.3550    2.0694    0.9074 H   0  0  0  0  0  0  0  0  0  0  0  0
   -1.7530    1.7936   -0.7795 H   0  0  0  0  0  0  0  0  0  0  0  0
   -3.0015    3.7502    0.0753 H   0  0  0  0  0  0  0  0  0  0  0  0
   -3.1019    3.0631    2.4733 H   0  0  0  0  0  0  0  0  0  0  0  0
   -4.7093    3.4556    1.8676 H   0  0  0  0  0  0  0  0  0  0  0  0
   -4.7533    1.3308    3.1771 H   0  0  0  0  0  0  0  0  0  0  0  0
   -5.8511   -0.0970    1.4515 H   0  0  0  0  0  0  0  0  0  0  0  0
   -6.3354    1.5868    1.2632 H   0  0  0  0  0  0  0  0  0  0  0  0
   -5.7479    0.5899   -0.9454 H   0  0  0  0  0  0  0  0  0  0  0  0
   -5.2916    3.0140   -0.5797 H   0  0  0  0  0  0  0  0  0  0  0  0
   -4.0863    2.3140   -1.6576 H   0  0  0  0  0  0  0  0  0  0  0  0
   -4.1172   -1.1104   -0.1181 H   0  0  0  0  0  0  0  0  0  0  0  0
   -3.4330   -0.1295   -1.4019 H   0  0  0  0  0  0  0  0  0  0  0  0
   -2.4087    0.6262    2.7481 H   0  0  0  0  0  0  0  0  0  0  0  0
   -3.5256   -0.6620    2.3275 H   0  0  0  0  0  0  0  0  0  0  0  0
    1.5504   -0.8490   -1.8889 H   0  0  0  0  0  0  0  0  0  0  0  0
    5.8695   -2.6164    0.2788 H   0  0  0  0  0  0  0  0  0  0  0  0
    6.4599   -1.2671    1.2421 H   0  0  0  0  0  0  0  0  0  0  0  0
    4.7473   -1.7013    1.3110 H   0  0  0  0  0  0  0  0  0  0  0  0
  1  2  1  0
  2  3  2  0
  3  4  1  0
  4  5  1  0
  5  6  1  0
  6  7  2  0
  7  8  1  0
  8  9  2  0
  9 10  1  0
 10 11  1  0
 11 12  2  0
 11 13  1  0
 13 14  1  0
 14 15  1  0
 15 16  1  0
 16 17  1  0
 17 18  1  0
 18 19  1  0
 19 20  1  0
 20 21  1  0
 20 22  1  0
 18 23  1  0
 10 24  2  0
  4 25  1  0
 25 26  1  0
 25 27  2  0
 27 28  1  0
 27  2  1  0
 24  6  1  0
 22 14  1  0
 23 14  1  0
 21 16  1  0
  1 29  1  0
  1 30  1  0
  1 31  1  0
  5 32  1  0
  5 33  1  0
  7 34  1  0
  8 35  1  0
  9 36  1  0
 13 37  1  0
 15 38  1  0
 15 39  1  0
 16 40  1  0
 17 41  1  0
 17 42  1  0
 18 43  1  0
 19 44  1  0
 19 45  1  0
 20 46  1  0
 21 47  1  0
 21 48  1  0
 22 49  1  0
 22 50  1  0
 23 51  1  0
 23 52  1  0
 24 53  1  0
 26 54  1  0
 26 55  1  0
 26 56  1  0
M  END
$$$$
