
     RDKit          3D

 42 44  0  0  0  0  0  0  0  0999 V2000
   -5.6043    0.0926    0.7009 C   0  0  0  0  0  0  0  0  0  0  0  0
   -4.8819    0.4006   -0.6232 C   0  0  0  0  0  0  0  0  0  0  0  0
   -5.2401    1.8327   -1.0496 C   0  0  0  0  0  0  0  0  0  0  0  0
   -5.3638   -0.6019   -1.6833 C   0  0  0  0  0  0  0  0  0  0  0  0
   -3.4409    0.2680   -0.3949 N   0  0  0  0  0  0  0  0  0  0  0  0
   -2.4475    0.4633   -1.3396 C   0  0  0  0  0  0  0  0  0  0  0  0
   -2.6662    0.7770   -2.5050 O   0  0  0  0  0  0  0  0  0  0  0  0
   -1.0858    0.2536   -0.7941 C   0  0  0  0  0  0  0  0  0  0  0  0
    0.0617    0.3874   -1.5348 N   0  0  0  0  0  0  0  0  0  0  0  0
    1.0279    0.1192   -0.6897 C   0  0  0  0  0  0  0  0  0  0  0  0
    2.3737    0.1040   -0.9034 N   0  0  0  0  0  0  0  0  0  0  0  0
    3.1352   -0.2044    0.1063 C   0  0  0  0  0  0  0  0  0  0  0  0
    4.6146   -0.2373   -0.0860 C   0  0  0  0  0  0  0  0  0  0  0  0
    5.1872    0.6468   -1.0103 C   0  0  0  0  0  0  0  0  0  0  0  0
    6.5672    0.6487   -1.2210 C   0  0  0  0  0  0  0  0  0  0  0  0
    7.3806   -0.2380   -0.5180 C   0  0  0  0  0  0  0  0  0  0  0  0
    6.8160   -1.1333    0.3897 C   0  0  0  0  0  0  0  0  0  0  0  0
    5.4351   -1.1388    0.6045 C   0  0  0  0  0  0  0  0  0  0  0  0
    2.6246   -0.5091    1.4826 C   0  0  0  0  0  0  0  0  0  0  0  0
    1.2874   -0.4817    1.6440 C   0  0  0  0  0  0  0  0  0  0  0  0
    0.6013   -0.7488    2.9267 C   0  0  0  0  0  0  0  0  0  0  0  0
   -0.1179    0.3133    3.3649 F   0  0  0  0  0  0  0  0  0  0  0  0
    1.4912   -1.0351    3.9171 F   0  0  0  0  0  0  0  0  0  0  0  0
   -0.2357   -1.8130    2.8577 F   0  0  0  0  0  0  0  0  0  0  0  0
    0.4767   -0.1734    0.5609 N   0  0  0  0  0  0  0  0  0  0  0  0
   -0.8731   -0.0891    0.4930 N   0  0  0  0  0  0  0  0  0  0  0  0
   -5.2905    0.7838    1.4919 H   0  0  0  0  0  0  0  0  0  0  0  0
   -6.6916    0.1757    0.5935 H   0  0  0  0  0  0  0  0  0  0  0  0
   -5.3770   -0.9223    1.0478 H   0  0  0  0  0  0  0  0  0  0  0  0
   -6.3251    1.9594   -1.1383 H   0  0  0  0  0  0  0  0  0  0  0  0
   -4.8744    2.5635   -0.3190 H   0  0  0  0  0  0  0  0  0  0  0  0
   -4.8017    2.0932   -2.0183 H   0  0  0  0  0  0  0  0  0  0  0  0
   -4.9285   -0.3983   -2.6670 H   0  0  0  0  0  0  0  0  0  0  0  0
   -6.4533   -0.5659   -1.7954 H   0  0  0  0  0  0  0  0  0  0  0  0
   -5.0870   -1.6266   -1.4099 H   0  0  0  0  0  0  0  0  0  0  0  0
   -3.1036    0.0122    0.5295 H   0  0  0  0  0  0  0  0  0  0  0  0
    4.5627    1.3393   -1.5721 H   0  0  0  0  0  0  0  0  0  0  0  0
    7.0049    1.3387   -1.9386 H   0  0  0  0  0  0  0  0  0  0  0  0
    8.4549   -0.2388   -0.6870 H   0  0  0  0  0  0  0  0  0  0  0  0
    7.4529   -1.8358    0.9224 H   0  0  0  0  0  0  0  0  0  0  0  0
    5.0239   -1.8721    1.2915 H   0  0  0  0  0  0  0  0  0  0  0  0
    3.3098   -0.7091    2.2970 H   0  0  0  0  0  0  0  0  0  0  0  0
  1  2  1  0
  2  3  1  0
  2  4  1  0
  2  5  1  0
  5  6  1  0
  6  7  2  0
  6  8  1  0
  8  9  1  0
  9 10  2  0
 10 11  1  0
 11 12  2  0
 12 13  1  0
 13 14  2  0
 14 15  1  0
 15 16  2  0
 16 17  1  0
 17 18  2  0
 12 19  1  0
 19 20  2  0
 20 21  1  0
 21 22  1  0
 21 23  1  0
 21 24  1  0
 20 25  1  0
 25 26  1  0
 26  8  2  0
 25 10  1  0
 18 13  1  0
  1 27  1  0
  1 28  1  0
  1 29  1  0
  3 30  1  0
  3 31  1  0
  3 32  1  0
  4 33  1  0
  4 34  1  0
  4 35  1  0
  5 36  1  0
 14 37  1  0
 15 38  1  0
 16 39  1  0
 17 40  1  0
 18 41  1  0
 19 42  1  0
M  END
$$$$
