
     RDKit          3D

 57 59  0  0  0  0  0  0  0  0999 V2000
   -2.0190   -3.9679    2.5109 C   0  0  0  0  0  0  0  0  0  0  0  0
   -1.6661   -3.4648    1.1207 C   0  0  0  0  0  0  0  0  0  0  0  0
   -1.0572   -2.0622    1.1474 C   0  0  0  0  0  0  0  0  0  0  0  0
   -0.7130   -1.6976   -0.2050 O   0  0  0  0  0  0  0  0  0  0  0  0
   -1.2580   -0.4918   -0.5738 C   0  0  0  0  0  0  0  0  0  0  0  0
   -2.6482   -0.3506   -0.6914 C   0  0  0  0  0  0  0  0  0  0  0  0
   -3.2252    0.8662   -1.0816 C   0  0  0  0  0  0  0  0  0  0  0  0
   -4.6147    1.0668   -1.1725 N   0  0  0  0  0  0  0  0  0  0  0  0
   -5.4605   -0.1194   -1.3892 C   0  0  0  0  0  0  0  0  0  0  0  0
   -6.8103    0.2493   -1.9916 C   0  0  0  0  0  0  0  0  0  0  0  0
   -5.1286    2.1294   -0.2800 C   0  0  0  0  0  0  0  0  0  0  0  0
   -5.1737    1.7008    1.1832 C   0  0  0  0  0  0  0  0  0  0  0  0
   -2.3502    1.9194   -1.3983 C   0  0  0  0  0  0  0  0  0  0  0  0
   -0.9602    1.7759   -1.3155 C   0  0  0  0  0  0  0  0  0  0  0  0
   -0.4003    0.5674   -0.8918 C   0  0  0  0  0  0  0  0  0  0  0  0
    1.0612    0.3988   -0.8185 C   0  0  0  0  0  0  0  0  0  0  0  0
    1.8990    1.1041   -0.0321 C   0  0  0  0  0  0  0  0  0  0  0  0
    1.4153    2.0977    0.8779 C   0  0  0  0  0  0  0  0  0  0  0  0
    0.9888    2.9181    1.5833 N   0  0  0  0  0  0  0  0  0  0  0  0
    3.2995    0.8367   -0.0492 C   0  0  0  0  0  0  0  0  0  0  0  0
    4.1831    0.9070    0.9283 N   0  0  0  0  0  0  0  0  0  0  0  0
    5.3990    0.5966    0.3745 C   0  0  0  0  0  0  0  0  0  0  0  0
    6.6661    0.5183    0.9730 C   0  0  0  0  0  0  0  0  0  0  0  0
    7.7752    0.1765    0.1794 C   0  0  0  0  0  0  0  0  0  0  0  0
    9.1464    0.1211    0.7918 C   0  0  0  0  0  0  0  0  0  0  0  0
    7.6054   -0.0543   -1.1966 C   0  0  0  0  0  0  0  0  0  0  0  0
    6.3469    0.0220   -1.8112 C   0  0  0  0  0  0  0  0  0  0  0  0
    5.2702    0.3480   -0.9859 C   0  0  0  0  0  0  0  0  0  0  0  0
    3.9327    0.5203   -1.2358 N   0  0  0  0  0  0  0  0  0  0  0  0
   -2.7320   -3.2977    3.0058 H   0  0  0  0  0  0  0  0  0  0  0  0
   -1.1272   -4.0467    3.1424 H   0  0  0  0  0  0  0  0  0  0  0  0
   -2.4740   -4.9655    2.4476 H   0  0  0  0  0  0  0  0  0  0  0  0
   -0.9647   -4.1608    0.6375 H   0  0  0  0  0  0  0  0  0  0  0  0
   -2.5612   -3.4588    0.4876 H   0  0  0  0  0  0  0  0  0  0  0  0
   -0.1255   -2.0623    1.7313 H   0  0  0  0  0  0  0  0  0  0  0  0
   -1.7421   -1.3529    1.6302 H   0  0  0  0  0  0  0  0  0  0  0  0
   -3.2737   -1.2008   -0.4468 H   0  0  0  0  0  0  0  0  0  0  0  0
   -5.6095   -0.6756   -0.4552 H   0  0  0  0  0  0  0  0  0  0  0  0
   -4.9719   -0.7950   -2.1053 H   0  0  0  0  0  0  0  0  0  0  0  0
   -7.3386   -0.6547   -2.3127 H   0  0  0  0  0  0  0  0  0  0  0  0
   -7.4491    0.7599   -1.2620 H   0  0  0  0  0  0  0  0  0  0  0  0
   -6.6919    0.9073   -2.8610 H   0  0  0  0  0  0  0  0  0  0  0  0
   -4.5321    3.0465   -0.3673 H   0  0  0  0  0  0  0  0  0  0  0  0
   -6.1344    2.4243   -0.5981 H   0  0  0  0  0  0  0  0  0  0  0  0
   -5.8219    0.8302    1.3278 H   0  0  0  0  0  0  0  0  0  0  0  0
   -4.1777    1.4460    1.5583 H   0  0  0  0  0  0  0  0  0  0  0  0
   -5.5660    2.5173    1.7997 H   0  0  0  0  0  0  0  0  0  0  0  0
   -2.7517    2.8709   -1.7448 H   0  0  0  0  0  0  0  0  0  0  0  0
   -0.3337    2.6243   -1.5878 H   0  0  0  0  0  0  0  0  0  0  0  0
    1.4209   -0.4198   -1.4351 H   0  0  0  0  0  0  0  0  0  0  0  0
    6.7682    0.7257    2.0342 H   0  0  0  0  0  0  0  0  0  0  0  0
    9.6438    1.0913    0.6855 H   0  0  0  0  0  0  0  0  0  0  0  0
    9.7563   -0.6463    0.3061 H   0  0  0  0  0  0  0  0  0  0  0  0
    9.0913   -0.1325    1.8561 H   0  0  0  0  0  0  0  0  0  0  0  0
    8.4703   -0.2977   -1.8127 H   0  0  0  0  0  0  0  0  0  0  0  0
    6.2278   -0.1593   -2.8769 H   0  0  0  0  0  0  0  0  0  0  0  0
    3.4966    0.4506   -2.1420 H   0  0  0  0  0  0  0  0  0  0  0  0
  1  2  1  0
  2  3  1  0
  3  4  1  0
  4  5  1  0
  5  6  2  0
  6  7  1  0
  7  8  1  0
  8  9  1  0
  9 10  1  0
  8 11  1  0
 11 12  1  0
  7 13  2  0
 13 14  1  0
 14 15  2  0
 15 16  1  0
 16 17  2  3
 17 18  1  0
 18 19  3  0
 17 20  1  0
 20 21  2  0
 21 22  1  0
 22 23  2  0
 23 24  1  0
 24 25  1  0
 24 26  2  0
 26 27  1  0
 27 28  2  0
 28 29  1  0
 15  5  1  0
 29 20  1  0
 28 22  1  0
  1 30  1  0
  1 31  1  0
  1 32  1  0
  2 33  1  0
  2 34  1  0
  3 35  1  0
  3 36  1  0
  6 37  1  0
  9 38  1  0
  9 39  1  0
 10 40  1  0
 10 41  1  0
 10 42  1  0
 11 43  1  0
 11 44  1  0
 12 45  1  0
 12 46  1  0
 12 47  1  0
 13 48  1  0
 14 49  1  0
 16 50  1  0
 23 51  1  0
 25 52  1  0
 25 53  1  0
 25 54  1  0
 26 55  1  0
 27 56  1  0
 29 57  1  0
M  END
$$$$
