
     RDKit          3D

 37 39  0  0  0  0  0  0  0  0999 V2000
    6.1084   -0.6304   -0.2910 N   0  0  0  0  0  0  0  0  0  0  0  0
    5.0291   -0.2513   -1.0361 C   0  0  0  0  0  0  0  0  0  0  0  0
    5.1879    0.2027   -2.1627 O   0  0  0  0  0  0  0  0  0  0  0  0
    3.6782   -0.4592   -0.3692 C   0  0  0  0  0  0  0  0  0  0  0  0
    2.5361   -0.1052   -1.3241 C   0  0  0  0  0  0  0  0  0  0  0  0
    1.1799   -0.2788   -0.6500 C   0  0  0  0  0  0  0  0  0  0  0  0
    1.1178    0.5047    0.5943 N   0  0  0  0  0  0  0  0  0  0  0  0
   -0.1501    0.7075    1.0839 C   0  0  0  0  0  0  0  0  0  0  0  0
   -1.2351    0.2174    0.5203 N   0  0  0  0  0  0  0  0  0  0  0  0
   -2.3803    0.6061    1.1881 C   0  0  0  0  0  0  0  0  0  0  0  0
   -3.6990    0.1842    0.7447 C   0  0  0  0  0  0  0  0  0  0  0  0
   -4.6680   -0.2407    1.6680 C   0  0  0  0  0  0  0  0  0  0  0  0
   -5.9321   -0.6531    1.2334 C   0  0  0  0  0  0  0  0  0  0  0  0
   -6.2417   -0.6474   -0.1260 C   0  0  0  0  0  0  0  0  0  0  0  0
   -5.2870   -0.2305   -1.0513 C   0  0  0  0  0  0  0  0  0  0  0  0
   -4.0270    0.1793   -0.6155 C   0  0  0  0  0  0  0  0  0  0  0  0
   -3.1484    0.5941   -1.5409 F   0  0  0  0  0  0  0  0  0  0  0  0
   -2.1621    1.4079    2.2876 C   0  0  0  0  0  0  0  0  0  0  0  0
   -0.4861    1.6823    2.4812 S   0  0  0  0  0  0  0  0  0  0  0  0
    2.1882    0.2205    1.5548 C   0  0  0  0  0  0  0  0  0  0  0  0
    3.5591    0.3841    0.9026 C   0  0  0  0  0  0  0  0  0  0  0  0
    7.0074   -0.5851   -0.7548 H   0  0  0  0  0  0  0  0  0  0  0  0
    6.0207   -1.2451    0.5054 H   0  0  0  0  0  0  0  0  0  0  0  0
    3.6043   -1.5242   -0.1108 H   0  0  0  0  0  0  0  0  0  0  0  0
    2.5825   -0.7356   -2.2205 H   0  0  0  0  0  0  0  0  0  0  0  0
    2.6417    0.9334   -1.6654 H   0  0  0  0  0  0  0  0  0  0  0  0
    0.4128    0.0524   -1.3619 H   0  0  0  0  0  0  0  0  0  0  0  0
    0.9995   -1.3399   -0.4342 H   0  0  0  0  0  0  0  0  0  0  0  0
   -4.4446   -0.2720    2.7320 H   0  0  0  0  0  0  0  0  0  0  0  0
   -6.6732   -0.9845    1.9572 H   0  0  0  0  0  0  0  0  0  0  0  0
   -7.2236   -0.9688   -0.4643 H   0  0  0  0  0  0  0  0  0  0  0  0
   -5.5118   -0.2181   -2.1134 H   0  0  0  0  0  0  0  0  0  0  0  0
   -2.8804    1.8490    2.9628 H   0  0  0  0  0  0  0  0  0  0  0  0
    2.0775   -0.8016    1.9396 H   0  0  0  0  0  0  0  0  0  0  0  0
    2.1592    0.8976    2.4153 H   0  0  0  0  0  0  0  0  0  0  0  0
    3.7262    1.4422    0.6602 H   0  0  0  0  0  0  0  0  0  0  0  0
    4.3337    0.1062    1.6269 H   0  0  0  0  0  0  0  0  0  0  0  0
  1  2  1  0
  2  3  2  0
  2  4  1  0
  4  5  1  0
  5  6  1  0
  6  7  1  0
  7  8  1  0
  8  9  2  0
  9 10  1  0
 10 11  1  0
 11 12  2  0
 12 13  1  0
 13 14  2  0
 14 15  1  0
 15 16  2  0
 16 17  1  0
 10 18  2  0
 18 19  1  0
  7 20  1  0
 20 21  1  0
 21  4  1  0
 19  8  1  0
 16 11  1  0
  1 22  1  0
  1 23  1  0
  4 24  1  0
  5 25  1  0
  5 26  1  0
  6 27  1  0
  6 28  1  0
 12 29  1  0
 13 30  1  0
 14 31  1  0
 15 32  1  0
 18 33  1  0
 20 34  1  0
 20 35  1  0
 21 36  1  0
 21 37  1  0
M  END
$$$$
