
     RDKit          3D

 45 48  0  0  0  0  0  0  0  0999 V2000
    2.9668   -0.7481   -5.7485 O   0  0  0  0  0  0  0  0  0  0  0  0
    2.0810    0.0149   -5.4092 C   0  0  0  0  0  0  0  0  0  0  0  0
    1.8244    1.1433   -6.0864 O   0  0  0  0  0  0  0  0  0  0  0  0
    1.2132   -0.1917   -4.2439 C   0  0  0  0  0  0  0  0  0  0  0  0
    0.2483    0.6639   -3.8712 C   0  0  0  0  0  0  0  0  0  0  0  0
   -0.6181    0.4511   -2.7634 C   0  0  0  0  0  0  0  0  0  0  0  0
   -1.9858    0.3680   -2.8928 C   0  0  0  0  0  0  0  0  0  0  0  0
   -2.4951    0.1063   -1.6402 N   0  0  0  0  0  0  0  0  0  0  0  0
   -3.8571   -0.0823   -1.2693 C   0  0  0  0  0  0  0  0  0  0  0  0
   -4.1750   -0.3443    0.0730 C   0  0  0  0  0  0  0  0  0  0  0  0
   -5.5036   -0.5325    0.4596 C   0  0  0  0  0  0  0  0  0  0  0  0
   -6.5227   -0.4609   -0.4872 C   0  0  0  0  0  0  0  0  0  0  0  0
   -6.2160   -0.2011   -1.8219 C   0  0  0  0  0  0  0  0  0  0  0  0
   -4.8880   -0.0115   -2.2170 C   0  0  0  0  0  0  0  0  0  0  0  0
   -1.5087    0.0353   -0.7152 N   0  0  0  0  0  0  0  0  0  0  0  0
   -0.3728    0.2774   -1.3814 C   0  0  0  0  0  0  0  0  0  0  0  0
    0.9833    0.3521   -0.5889 C   0  0  0  0  0  0  0  0  0  0  0  0
    2.2348    0.6895   -1.0637 C   0  0  0  0  0  0  0  0  0  0  0  0
    3.1287    0.6167    0.0360 C   0  0  0  0  0  0  0  0  0  0  0  0
    2.3782    0.2486    1.1332 C   0  0  0  0  0  0  0  0  0  0  0  0
    2.6697    0.0053    2.5445 C   0  0  0  0  0  0  0  0  0  0  0  0
    1.6506   -0.3518    3.4447 C   0  0  0  0  0  0  0  0  0  0  0  0
    1.9260   -0.5854    4.7968 C   0  0  0  0  0  0  0  0  0  0  0  0
    3.2387   -0.4615    5.2622 C   0  0  0  0  0  0  0  0  0  0  0  0
    3.5373   -0.7043    6.6789 N   0  0  0  0  0  4  0  0  0  0  0  0
    4.7141   -0.5822    7.0486 O   0  0  0  0  0  0  0  0  0  0  0  0
    2.5964   -1.0166    7.4225 O   0  0  0  0  0  1  0  0  0  0  0  0
    4.2701   -0.1073    4.3851 C   0  0  0  0  0  0  0  0  0  0  0  0
    3.9807    0.1236    3.0346 C   0  0  0  0  0  0  0  0  0  0  0  0
    1.0773    0.0960    0.7530 O   0  0  0  0  0  0  0  0  0  0  0  0
    2.4743    1.1299   -6.8203 H   0  0  0  0  0  0  0  0  0  0  0  0
    1.4061   -1.1082   -3.6958 H   0  0  0  0  0  0  0  0  0  0  0  0
    0.0560    1.5515   -4.4721 H   0  0  0  0  0  0  0  0  0  0  0  0
   -2.6175    0.4487   -3.7638 H   0  0  0  0  0  0  0  0  0  0  0  0
   -3.3960   -0.4050    0.8315 H   0  0  0  0  0  0  0  0  0  0  0  0
   -5.7401   -0.7350    1.5012 H   0  0  0  0  0  0  0  0  0  0  0  0
   -7.5564   -0.6077   -0.1845 H   0  0  0  0  0  0  0  0  0  0  0  0
   -7.0143   -0.1460   -2.5582 H   0  0  0  0  0  0  0  0  0  0  0  0
   -4.6984    0.1883   -3.2665 H   0  0  0  0  0  0  0  0  0  0  0  0
    2.4920    0.9749   -2.0714 H   0  0  0  0  0  0  0  0  0  0  0  0
    4.1901    0.8192    0.0217 H   0  0  0  0  0  0  0  0  0  0  0  0
    0.6226   -0.4518    3.0964 H   0  0  0  0  0  0  0  0  0  0  0  0
    1.1098   -0.8597    5.4620 H   0  0  0  0  0  0  0  0  0  0  0  0
    5.2971   -0.0069    4.7306 H   0  0  0  0  0  0  0  0  0  0  0  0
    4.7976    0.3972    2.3705 H   0  0  0  0  0  0  0  0  0  0  0  0
  1  2  2  0
  2  3  1  0
  2  4  1  0
  4  5  2  3
  5  6  1  0
  6  7  2  0
  7  8  1  0
  8  9  1  0
  9 10  2  0
 10 11  1  0
 11 12  2  0
 12 13  1  0
 13 14  2  0
  8 15  1  0
 15 16  2  0
 16 17  1  0
 17 18  2  0
 18 19  1  0
 19 20  2  0
 20 21  1  0
 21 22  2  0
 22 23  1  0
 23 24  2  0
 24 25  1  0
 25 26  2  0
 25 27  1  0
 24 28  1  0
 28 29  2  0
 20 30  1  0
 16  6  1  0
 30 17  1  0
 14  9  1  0
 29 21  1  0
  3 31  1  0
  4 32  1  0
  5 33  1  0
  7 34  1  0
 10 35  1  0
 11 36  1  0
 12 37  1  0
 13 38  1  0
 14 39  1  0
 18 40  1  0
 19 41  1  0
 22 42  1  0
 23 43  1  0
 28 44  1  0
 29 45  1  0
M  CHG  2  25   1  27  -1
M  END
$$$$
