
     RDKit          3D

 49 51  0  0  0  0  0  0  0  0999 V2000
    6.0327    1.2983   -1.0893 C   0  0  0  0  0  0  0  0  0  0  0  0
    5.4037    2.5816   -0.5743 C   0  0  0  0  0  0  0  0  0  0  0  0
    4.5992    2.3341    1.0351 S   0  0  0  0  0  0  0  0  0  0  0  0
    3.1161    1.5296    0.5765 C   0  0  0  0  0  0  0  0  0  0  0  0
    2.7435    1.4701   -0.6556 N   0  0  0  0  0  0  0  0  0  0  0  0
    1.5558    0.8358   -0.9395 C   0  0  0  0  0  0  0  0  0  0  0  0
    1.0772    0.8213   -2.0692 O   0  0  0  0  0  0  0  0  0  0  0  0
    0.8215    0.1512    0.1703 C   0  0  0  0  0  0  0  0  0  0  0  0
    1.2724    0.2875    1.4286 C   0  0  0  0  0  0  0  0  0  0  0  0
    2.4204    1.0002    1.6095 N   0  0  0  0  0  0  0  0  0  0  0  0
    0.6362   -0.2910    2.4974 N   0  0  0  0  0  0  0  0  0  0  0  0
   -0.5815   -0.7223    2.3543 C   0  0  0  0  0  0  0  0  0  0  0  0
   -1.2637   -1.3285    3.5569 C   0  0  0  0  0  0  0  0  0  0  0  0
   -1.3723   -0.6646    1.0607 C   0  0  0  0  0  0  0  0  0  0  0  0
   -2.3214    0.5127    1.0519 C   0  0  0  0  0  0  0  0  0  0  0  0
   -2.3011    1.4345    1.8535 O   0  0  0  0  0  0  0  0  0  0  0  0
   -3.2130    0.3843    0.0291 O   0  0  0  0  0  0  0  0  0  0  0  0
   -4.1601    1.4580   -0.1341 C   0  0  0  0  0  0  0  0  0  0  0  0
   -3.5191    2.5769   -0.9467 C   0  0  0  0  0  0  0  0  0  0  0  0
   -5.3683    0.8833   -0.8636 C   0  0  0  0  0  0  0  0  0  0  0  0
   -0.4351   -0.5988   -0.1578 C   0  0  0  0  0  0  0  0  0  0  0  0
   -0.1363   -1.9884   -0.7170 C   0  0  0  0  0  0  0  0  0  0  0  0
   -0.4645   -2.2844   -2.0461 C   0  0  0  0  0  0  0  0  0  0  0  0
   -0.1922   -3.5513   -2.5397 C   0  0  0  0  0  0  0  0  0  0  0  0
    0.3755   -4.5345   -1.8108 N   0  0  0  0  0  0  0  0  0  0  0  0
    0.7051   -4.2306   -0.5391 C   0  0  0  0  0  0  0  0  0  0  0  0
    0.4755   -2.9928    0.0446 C   0  0  0  0  0  0  0  0  0  0  0  0
    6.7894    0.9173   -0.3948 H   0  0  0  0  0  0  0  0  0  0  0  0
    6.5314    1.4877   -2.0457 H   0  0  0  0  0  0  0  0  0  0  0  0
    5.2895    0.5127   -1.2556 H   0  0  0  0  0  0  0  0  0  0  0  0
    6.1905    3.3300   -0.4334 H   0  0  0  0  0  0  0  0  0  0  0  0
    4.7008    2.9973   -1.3030 H   0  0  0  0  0  0  0  0  0  0  0  0
    2.7697    1.0654    2.5552 H   0  0  0  0  0  0  0  0  0  0  0  0
   -0.6611   -1.1791    4.4571 H   0  0  0  0  0  0  0  0  0  0  0  0
   -2.2415   -0.8625    3.7028 H   0  0  0  0  0  0  0  0  0  0  0  0
   -1.3954   -2.4003    3.3890 H   0  0  0  0  0  0  0  0  0  0  0  0
   -2.0015   -1.5651    1.0294 H   0  0  0  0  0  0  0  0  0  0  0  0
   -4.4885    1.8317    0.8429 H   0  0  0  0  0  0  0  0  0  0  0  0
   -3.1508    2.2002   -1.9079 H   0  0  0  0  0  0  0  0  0  0  0  0
   -4.2300    3.3873   -1.1353 H   0  0  0  0  0  0  0  0  0  0  0  0
   -2.6533    2.9934   -0.4215 H   0  0  0  0  0  0  0  0  0  0  0  0
   -6.1292    1.6501   -1.0399 H   0  0  0  0  0  0  0  0  0  0  0  0
   -5.0767    0.4469   -1.8259 H   0  0  0  0  0  0  0  0  0  0  0  0
   -5.8172    0.0752   -0.2756 H   0  0  0  0  0  0  0  0  0  0  0  0
   -0.9568   -0.0400   -0.9472 H   0  0  0  0  0  0  0  0  0  0  0  0
   -0.9121   -1.5416   -2.7003 H   0  0  0  0  0  0  0  0  0  0  0  0
   -0.4293   -3.8130   -3.5673 H   0  0  0  0  0  0  0  0  0  0  0  0
    1.1786   -5.0331    0.0202 H   0  0  0  0  0  0  0  0  0  0  0  0
    0.7875   -2.8329    1.0712 H   0  0  0  0  0  0  0  0  0  0  0  0
  1  2  1  0
  2  3  1  0
  3  4  1  0
  4  5  2  0
  5  6  1  0
  6  7  2  0
  6  8  1  0
  8  9  2  0
  9 10  1  0
  9 11  1  0
 11 12  2  0
 12 13  1  0
 12 14  1  0
 14 15  1  0
 15 16  2  0
 15 17  1  0
 17 18  1  0
 18 19  1  0
 18 20  1  0
 14 21  1  0
 21 22  1  0
 22 23  2  0
 23 24  1  0
 24 25  2  0
 25 26  1  0
 26 27  2  0
 10  4  1  0
 27 22  1  0
 21  8  1  0
  1 28  1  0
  1 29  1  0
  1 30  1  0
  2 31  1  0
  2 32  1  0
 10 33  1  0
 13 34  1  0
 13 35  1  0
 13 36  1  0
 14 37  1  0
 18 38  1  0
 19 39  1  0
 19 40  1  0
 19 41  1  0
 20 42  1  0
 20 43  1  0
 20 44  1  0
 21 45  1  0
 23 46  1  0
 24 47  1  0
 26 48  1  0
 27 49  1  0
M  END
$$$$
