
     RDKit          3D

 44 46  0  0  0  0  0  0  0  0999 V2000
   -6.0999    0.2594   -2.3986 C   0  0  0  0  0  0  0  0  0  0  0  0
   -5.4056   -0.1473   -1.1325 C   0  0  0  0  0  0  0  0  0  0  0  0
   -6.1232   -0.7806   -0.1139 C   0  0  0  0  0  0  0  0  0  0  0  0
   -5.4912   -1.1359    1.0766 C   0  0  0  0  0  0  0  0  0  0  0  0
   -4.1313   -0.8585    1.2719 C   0  0  0  0  0  0  0  0  0  0  0  0
   -3.4689   -1.2503    2.5639 C   0  0  0  0  0  0  0  0  0  0  0  0
   -3.4031   -0.2164    0.2549 C   0  0  0  0  0  0  0  0  0  0  0  0
   -2.0793    0.0084    0.5314 O   0  0  0  0  0  0  0  0  0  0  0  0
   -1.2963    0.6556   -0.4678 C   0  0  0  0  0  0  0  0  0  0  0  0
    0.0907    0.7158    0.0468 C   0  0  0  0  0  0  0  0  0  0  0  0
    0.8896   -0.1343    0.7690 C   0  0  0  0  0  0  0  0  0  0  0  0
    2.1342    0.5426    0.8977 C   0  0  0  0  0  0  0  0  0  0  0  0
    3.3093    0.0277    1.6249 C   0  0  0  0  0  0  0  0  0  0  0  0
    3.1466   -0.8921    2.4321 O   0  0  0  0  0  0  0  0  0  0  0  0
    4.5913    0.5648    1.4057 N   0  0  0  0  0  0  0  0  0  0  0  0
    5.7053   -0.0924    2.0701 C   0  0  0  0  0  0  0  0  0  0  0  0
    4.9425    1.4112    0.2595 C   0  0  0  0  0  0  0  0  0  0  0  0
    4.8626    0.6579   -1.0431 C   0  0  0  0  0  0  0  0  0  0  0  0
    4.9029   -0.6550   -1.1768 N   0  0  0  0  0  0  0  0  0  0  0  0
    4.8068   -0.9947   -2.5110 C   0  0  0  0  0  0  0  0  0  0  0  0
    4.7078    0.0617   -3.3881 C   0  0  0  0  0  0  0  0  0  0  0  0
    4.7254    1.5373   -2.5198 S   0  0  0  0  0  0  0  0  0  0  0  0
    2.0603    1.7458    0.3046 N   0  0  0  0  0  0  0  0  0  0  0  0
    0.7954    1.8414   -0.2378 O   0  0  0  0  0  0  0  0  0  0  0  0
   -4.0471    0.1429   -0.9349 C   0  0  0  0  0  0  0  0  0  0  0  0
   -6.7863   -0.5264   -2.7301 H   0  0  0  0  0  0  0  0  0  0  0  0
   -6.6643    1.1830   -2.2375 H   0  0  0  0  0  0  0  0  0  0  0  0
   -5.3820    0.4258   -3.2082 H   0  0  0  0  0  0  0  0  0  0  0  0
   -7.1805   -1.0007   -0.2405 H   0  0  0  0  0  0  0  0  0  0  0  0
   -6.0688   -1.6307    1.8548 H   0  0  0  0  0  0  0  0  0  0  0  0
   -3.0425   -0.3698    3.0545 H   0  0  0  0  0  0  0  0  0  0  0  0
   -2.6766   -1.9821    2.3772 H   0  0  0  0  0  0  0  0  0  0  0  0
   -4.1832   -1.7017    3.2604 H   0  0  0  0  0  0  0  0  0  0  0  0
   -1.6757    1.6688   -0.6452 H   0  0  0  0  0  0  0  0  0  0  0  0
   -1.3020    0.0783   -1.3995 H   0  0  0  0  0  0  0  0  0  0  0  0
    0.6280   -1.1074    1.1589 H   0  0  0  0  0  0  0  0  0  0  0  0
    5.3971   -0.5611    3.0084 H   0  0  0  0  0  0  0  0  0  0  0  0
    6.4789    0.6469    2.2986 H   0  0  0  0  0  0  0  0  0  0  0  0
    6.1135   -0.8620    1.4089 H   0  0  0  0  0  0  0  0  0  0  0  0
    5.9705    1.7691    0.3963 H   0  0  0  0  0  0  0  0  0  0  0  0
    4.3178    2.3063    0.2587 H   0  0  0  0  0  0  0  0  0  0  0  0
    4.8185   -2.0407   -2.7917 H   0  0  0  0  0  0  0  0  0  0  0  0
    4.6279    0.0375   -4.4651 H   0  0  0  0  0  0  0  0  0  0  0  0
   -3.5153    0.6517   -1.7319 H   0  0  0  0  0  0  0  0  0  0  0  0
  1  2  1  0
  2  3  2  0
  3  4  1  0
  4  5  2  0
  5  6  1  0
  5  7  1  0
  7  8  1  0
  8  9  1  0
  9 10  1  0
 10 11  2  0
 11 12  1  0
 12 13  1  0
 13 14  2  0
 13 15  1  0
 15 16  1  0
 15 17  1  0
 17 18  1  0
 18 19  2  0
 19 20  1  0
 20 21  2  0
 21 22  1  0
 12 23  2  0
 23 24  1  0
  7 25  2  0
 25  2  1  0
 24 10  1  0
 22 18  1  0
  1 26  1  0
  1 27  1  0
  1 28  1  0
  3 29  1  0
  4 30  1  0
  6 31  1  0
  6 32  1  0
  6 33  1  0
  9 34  1  0
  9 35  1  0
 11 36  1  0
 16 37  1  0
 16 38  1  0
 16 39  1  0
 17 40  1  0
 17 41  1  0
 20 42  1  0
 21 43  1  0
 25 44  1  0
M  END
$$$$
