
     RDKit          3D

 66 68  0  0  0  0  0  0  0  0999 V2000
   -4.4873   -2.5699    0.6688 C   0  0  0  0  0  0  0  0  0  0  0  0
   -3.5507   -3.1057   -0.4116 C   0  0  0  0  0  0  0  0  0  0  0  0
   -2.1880   -3.3823    0.0669 N   0  0  0  0  0  0  0  0  0  0  0  0
   -1.3530   -4.0045   -0.9736 C   0  0  0  0  0  0  0  0  0  0  0  0
   -1.7410   -5.4538   -1.2554 C   0  0  0  0  0  0  0  0  0  0  0  0
   -1.5082   -2.2167    0.6672 C   0  0  0  0  0  0  0  0  0  0  0  0
   -1.3360   -0.9845   -0.2414 C   0  0  0  0  0  0  0  0  0  0  0  0
   -0.5448    0.1501    0.4636 C   0  0  0  0  0  0  0  0  0  0  0  0
    0.9232   -0.1376    0.7716 C   0  0  0  0  0  0  0  0  0  0  0  0
    1.7105   -1.0126    0.0202 C   0  0  0  0  0  0  0  0  0  0  0  0
    3.0549   -1.2461    0.3529 C   0  0  0  0  0  0  0  0  0  0  0  0
    3.6775   -0.6358    1.4545 C   0  0  0  0  0  0  0  0  0  0  0  0
    5.0205   -0.8736    1.7808 N   0  0  0  0  0  0  0  0  0  0  0  0
    5.4923   -0.4833    3.1095 C   0  0  0  0  0  0  0  0  0  0  0  0
    5.6809   -2.0454    1.2060 C   0  0  0  0  0  0  0  0  0  0  0  0
    2.8777    0.2626    2.1799 C   0  0  0  0  0  0  0  0  0  0  0  0
    1.5342    0.5065    1.8535 C   0  0  0  0  0  0  0  0  0  0  0  0
   -0.7416    1.4923   -0.2491 C   0  0  0  0  0  0  0  0  0  0  0  0
   -0.3276    1.7210   -1.5707 C   0  0  0  0  0  0  0  0  0  0  0  0
    0.2676    0.7022   -2.2713 O   0  0  0  0  0  0  0  0  0  0  0  0
    1.5615    1.0651   -2.7567 C   0  0  0  0  0  0  0  0  0  0  0  0
   -0.5758    2.9468   -2.2107 C   0  0  0  0  0  0  0  0  0  0  0  0
   -1.1985    3.9983   -1.5331 C   0  0  0  0  0  0  0  0  0  0  0  0
   -1.4724    5.2248   -2.0859 O   0  0  0  0  0  0  0  0  0  0  0  0
   -1.0907    5.4395   -3.4397 C   0  0  0  0  0  0  0  0  0  0  0  0
   -1.5853    3.8127   -0.1965 C   0  0  0  0  0  0  0  0  0  0  0  0
   -2.2337    4.8657    0.5840 C   0  0  0  0  0  0  0  0  0  0  0  0
   -2.5920    4.6523    1.8525 C   0  0  0  0  0  0  0  0  0  0  0  0
   -2.3591    3.3674    2.5228 C   0  0  0  0  0  0  0  0  0  0  0  0
   -2.6877    3.1945    3.6899 O   0  0  0  0  0  0  0  0  0  0  0  0
   -1.7536    2.3778    1.7640 O   0  0  0  0  0  0  0  0  0  0  0  0
   -1.3552    2.5723    0.4155 C   0  0  0  0  0  0  0  0  0  0  0  0
   -5.5112   -2.5227    0.2842 H   0  0  0  0  0  0  0  0  0  0  0  0
   -4.2116   -1.5599    0.9866 H   0  0  0  0  0  0  0  0  0  0  0  0
   -4.4912   -3.2238    1.5464 H   0  0  0  0  0  0  0  0  0  0  0  0
   -3.5415   -2.4140   -1.2624 H   0  0  0  0  0  0  0  0  0  0  0  0
   -4.0053   -4.0354   -0.7717 H   0  0  0  0  0  0  0  0  0  0  0  0
   -0.3070   -4.0241   -0.6420 H   0  0  0  0  0  0  0  0  0  0  0  0
   -1.3798   -3.4294   -1.9063 H   0  0  0  0  0  0  0  0  0  0  0  0
   -2.7251   -5.5337   -1.7264 H   0  0  0  0  0  0  0  0  0  0  0  0
   -1.0140   -5.9089   -1.9391 H   0  0  0  0  0  0  0  0  0  0  0  0
   -1.7464   -6.0447   -0.3328 H   0  0  0  0  0  0  0  0  0  0  0  0
   -0.5306   -2.5496    1.0375 H   0  0  0  0  0  0  0  0  0  0  0  0
   -2.0460   -1.9192    1.5757 H   0  0  0  0  0  0  0  0  0  0  0  0
   -0.8640   -1.2733   -1.1850 H   0  0  0  0  0  0  0  0  0  0  0  0
   -2.3293   -0.5977   -0.5027 H   0  0  0  0  0  0  0  0  0  0  0  0
   -1.0244    0.2208    1.4491 H   0  0  0  0  0  0  0  0  0  0  0  0
    1.3040   -1.5297   -0.8457 H   0  0  0  0  0  0  0  0  0  0  0  0
    3.6001   -1.9318   -0.2882 H   0  0  0  0  0  0  0  0  0  0  0  0
    6.5471   -0.7463    3.2467 H   0  0  0  0  0  0  0  0  0  0  0  0
    4.9213   -0.9879    3.8973 H   0  0  0  0  0  0  0  0  0  0  0  0
    5.4358    0.6016    3.2485 H   0  0  0  0  0  0  0  0  0  0  0  0
    5.7320   -1.9796    0.1133 H   0  0  0  0  0  0  0  0  0  0  0  0
    6.7195   -2.1221    1.5489 H   0  0  0  0  0  0  0  0  0  0  0  0
    5.1675   -2.9696    1.4956 H   0  0  0  0  0  0  0  0  0  0  0  0
    3.2762    0.8047    3.0323 H   0  0  0  0  0  0  0  0  0  0  0  0
    0.9691    1.2088    2.4646 H   0  0  0  0  0  0  0  0  0  0  0  0
    1.4763    1.6262   -3.6917 H   0  0  0  0  0  0  0  0  0  0  0  0
    2.1335    1.6349   -2.0157 H   0  0  0  0  0  0  0  0  0  0  0  0
    2.1096    0.1423   -2.9718 H   0  0  0  0  0  0  0  0  0  0  0  0
   -0.2865    3.0480   -3.2505 H   0  0  0  0  0  0  0  0  0  0  0  0
   -0.0052    5.3640   -3.5612 H   0  0  0  0  0  0  0  0  0  0  0  0
   -1.6147    4.7525   -4.1125 H   0  0  0  0  0  0  0  0  0  0  0  0
   -1.3849    6.4565   -3.7106 H   0  0  0  0  0  0  0  0  0  0  0  0
   -2.4184    5.8254    0.1126 H   0  0  0  0  0  0  0  0  0  0  0  0
   -3.0734    5.4176    2.4486 H   0  0  0  0  0  0  0  0  0  0  0  0
  1  2  1  0
  2  3  1  0
  3  4  1  0
  4  5  1  0
  3  6  1  0
  6  7  1  0
  7  8  1  0
  8  9  1  0
  9 10  2  0
 10 11  1  0
 11 12  2  0
 12 13  1  0
 13 14  1  0
 13 15  1  0
 12 16  1  0
 16 17  2  0
  8 18  1  0
 18 19  2  0
 19 20  1  0
 20 21  1  0
 19 22  1  0
 22 23  2  0
 23 24  1  0
 24 25  1  0
 23 26  1  0
 26 27  1  0
 27 28  2  0
 28 29  1  0
 29 30  2  0
 29 31  1  0
 31 32  1  0
 17  9  1  0
 32 18  1  0
 32 26  2  0
  1 33  1  0
  1 34  1  0
  1 35  1  0
  2 36  1  0
  2 37  1  0
  4 38  1  0
  4 39  1  0
  5 40  1  0
  5 41  1  0
  5 42  1  0
  6 43  1  0
  6 44  1  0
  7 45  1  0
  7 46  1  0
  8 47  1  0
 10 48  1  0
 11 49  1  0
 14 50  1  0
 14 51  1  0
 14 52  1  0
 15 53  1  0
 15 54  1  0
 15 55  1  0
 16 56  1  0
 17 57  1  0
 21 58  1  0
 21 59  1  0
 21 60  1  0
 22 61  1  0
 25 62  1  0
 25 63  1  0
 25 64  1  0
 27 65  1  0
 28 66  1  0
M  END
$$$$
