
     RDKit          3D

 80 86  0  0  0  0  0  0  0  0999 V2000
   -6.1856    0.1948   -0.2797 C   0  0  0  0  0  0  0  0  0  0  0  0
   -4.9068    0.4161    0.4751 C   0  0  0  0  0  0  0  0  0  0  0  0
   -4.9324    0.9045    1.8034 C   0  0  0  0  0  0  0  0  0  0  0  0
   -6.4148    1.1111    2.6773 Cl  0  0  0  0  0  0  0  0  0  0  0  0
   -3.7564    1.2517    2.4900 C   0  0  0  0  0  0  0  0  0  0  0  0
   -2.5184    1.1291    1.8739 C   0  0  0  0  0  0  0  0  0  0  0  0
   -2.4779    0.6168    0.5848 C   0  0  0  0  0  0  0  0  0  0  0  0
   -3.6435    0.2079   -0.0929 C   0  0  0  0  0  0  0  0  0  0  0  0
   -3.2625   -0.3635   -1.3338 N   0  0  0  0  0  0  0  0  0  0  0  0
   -4.0237   -1.2937   -2.1389 C   0  0  0  0  0  0  0  0  0  0  0  0
   -3.7807   -2.7320   -1.7222 C   0  0  0  0  0  0  0  0  0  0  0  0
   -4.4160   -3.2825   -0.6001 C   0  0  0  0  0  0  0  0  0  0  0  0
   -4.1556   -4.5977   -0.2084 C   0  0  0  0  0  0  0  0  0  0  0  0
   -3.2542   -5.3769   -0.9298 C   0  0  0  0  0  0  0  0  0  0  0  0
   -2.6098   -4.8415   -2.0420 C   0  0  0  0  0  0  0  0  0  0  0  0
   -2.8697   -3.5276   -2.4349 C   0  0  0  0  0  0  0  0  0  0  0  0
   -1.8643   -0.2807   -1.5373 C   0  0  0  0  0  0  0  0  0  0  0  0
   -1.2506   -0.6877   -2.5158 O   0  0  0  0  0  0  0  0  0  0  0  0
   -1.2769    0.3692   -0.2752 C   0  0  1  0  0  0  0  0  0  0  0  0
   -0.5780    1.6582   -0.5355 C   0  0  0  0  0  0  0  0  0  0  0  0
    0.8108    1.4525   -0.4843 C   0  0  0  0  0  0  0  0  0  0  0  0
    1.4482    2.6460   -0.6555 C   0  0  0  0  0  0  0  0  0  0  0  0
    2.7497    2.9024   -0.5346 O   0  0  0  0  0  0  0  0  0  0  0  0
    0.4527    3.6075   -0.9338 N   0  0  0  0  0  0  0  0  0  0  0  0
    0.6889    4.9653   -1.3211 C   0  0  0  0  0  0  0  0  0  0  0  0
    1.8146    5.2905   -2.0942 C   0  0  0  0  0  0  0  0  0  0  0  0
    2.0547    6.6149   -2.4688 C   0  0  0  0  0  0  0  0  0  0  0  0
    1.1731    7.6212   -2.0815 C   0  0  0  0  0  0  0  0  0  0  0  0
    0.0453    7.3042   -1.3274 C   0  0  0  0  0  0  0  0  0  0  0  0
   -0.2015    5.9808   -0.9519 C   0  0  0  0  0  0  0  0  0  0  0  0
   -0.8075    2.9888   -0.7819 C   0  0  0  0  0  0  0  0  0  0  0  0
   -1.9539    3.6486   -0.9305 O   0  0  0  0  0  0  0  0  0  0  0  0
    1.1125    0.0312   -0.2269 C   0  0  1  0  0  0  0  0  0  0  0  0
    2.2459   -0.3337    0.7247 C   0  0  0  0  0  0  0  0  0  0  0  0
    2.2136   -1.7801    1.0392 N   0  0  0  0  0  0  0  0  0  0  0  0
    3.3340   -2.4419    1.5137 C   0  0  0  0  0  0  0  0  0  0  0  0
    3.2993   -3.5654    1.9992 O   0  0  0  0  0  0  0  0  0  0  0  0
    4.4627   -1.7010    1.3748 O   0  0  0  0  0  0  0  0  0  0  0  0
    5.7531   -2.2087    1.7987 C   0  0  0  0  0  0  0  0  0  0  0  0
    5.7852   -2.4595    3.3102 C   0  0  0  0  0  0  0  0  0  0  0  0
    6.1521   -3.4547    1.0005 C   0  0  0  0  0  0  0  0  0  0  0  0
    6.7408   -1.0788    1.4689 C   0  0  0  0  0  0  0  0  0  0  0  0
    0.8963   -2.3667    1.3391 C   0  0  0  0  0  0  0  0  0  0  0  0
   -0.2536   -1.8530    0.4364 C   0  0  0  0  0  0  0  0  0  0  0  0
   -0.1908   -0.4005    0.3756 N   0  0  0  0  0  0  0  0  0  0  0  0
   -6.4686   -0.8600   -0.2702 H   0  0  0  0  0  0  0  0  0  0  0  0
   -6.0867    0.5541   -1.3088 H   0  0  0  0  0  0  0  0  0  0  0  0
   -7.0223    0.7698    0.1264 H   0  0  0  0  0  0  0  0  0  0  0  0
   -3.8078    1.6314    3.5086 H   0  0  0  0  0  0  0  0  0  0  0  0
   -1.6049    1.4089    2.3924 H   0  0  0  0  0  0  0  0  0  0  0  0
   -5.0908   -1.0809   -2.1311 H   0  0  0  0  0  0  0  0  0  0  0  0
   -3.7127   -1.1667   -3.1841 H   0  0  0  0  0  0  0  0  0  0  0  0
   -5.1141   -2.6944   -0.0124 H   0  0  0  0  0  0  0  0  0  0  0  0
   -4.6545   -5.0136    0.6634 H   0  0  0  0  0  0  0  0  0  0  0  0
   -3.0508   -6.3998   -0.6236 H   0  0  0  0  0  0  0  0  0  0  0  0
   -1.8994   -5.4442   -2.6024 H   0  0  0  0  0  0  0  0  0  0  0  0
   -2.3415   -3.1206   -3.2965 H   0  0  0  0  0  0  0  0  0  0  0  0
    2.8644    3.8543   -0.3603 H   0  0  0  0  0  0  0  0  0  0  0  0
    2.4907    4.5224   -2.4648 H   0  0  0  0  0  0  0  0  0  0  0  0
    2.9214    6.8582   -3.0785 H   0  0  0  0  0  0  0  0  0  0  0  0
    1.3579    8.6509   -2.3767 H   0  0  0  0  0  0  0  0  0  0  0  0
   -0.6468    8.0878   -1.0290 H   0  0  0  0  0  0  0  0  0  0  0  0
   -1.0787    5.7752   -0.3445 H   0  0  0  0  0  0  0  0  0  0  0  0
   -2.6856    3.0231   -0.7884 H   0  0  0  0  0  0  0  0  0  0  0  0
    1.2660   -0.4730   -1.1920 H   0  0  0  0  0  0  0  0  0  0  0  0
    2.1667    0.2072    1.6764 H   0  0  0  0  0  0  0  0  0  0  0  0
    3.2084   -0.0638    0.2772 H   0  0  0  0  0  0  0  0  0  0  0  0
    5.4111   -1.5865    3.8570 H   0  0  0  0  0  0  0  0  0  0  0  0
    5.1533   -3.3047    3.5987 H   0  0  0  0  0  0  0  0  0  0  0  0
    6.8013   -2.6784    3.6561 H   0  0  0  0  0  0  0  0  0  0  0  0
    5.5245   -4.3165    1.2462 H   0  0  0  0  0  0  0  0  0  0  0  0
    7.1910   -3.7393    1.1993 H   0  0  0  0  0  0  0  0  0  0  0  0
    6.0380   -3.2799   -0.0753 H   0  0  0  0  0  0  0  0  0  0  0  0
    7.7673   -1.3415    1.7452 H   0  0  0  0  0  0  0  0  0  0  0  0
    6.4665   -0.1561    1.9934 H   0  0  0  0  0  0  0  0  0  0  0  0
    6.7200   -0.8432    0.3983 H   0  0  0  0  0  0  0  0  0  0  0  0
    0.9549   -3.4586    1.2670 H   0  0  0  0  0  0  0  0  0  0  0  0
    0.6778   -2.1211    2.3865 H   0  0  0  0  0  0  0  0  0  0  0  0
   -0.1576   -2.2992   -0.5606 H   0  0  0  0  0  0  0  0  0  0  0  0
   -1.2070   -2.1865    0.8610 H   0  0  0  0  0  0  0  0  0  0  0  0
  1  2  1  0
  2  3  2  0
  3  4  1  0
  3  5  1  0
  5  6  2  0
  6  7  1  0
  7  8  2  0
  8  9  1  0
  9 10  1  0
 10 11  1  0
 11 12  2  0
 12 13  1  0
 13 14  2  0
 14 15  1  0
 15 16  2  0
  9 17  1  0
 17 18  2  0
 17 19  1  0
 19 20  1  0
 20 21  1  0
 21 22  2  0
 22 23  1  0
 22 24  1  0
 24 25  1  0
 25 26  2  0
 26 27  1  0
 27 28  2  0
 28 29  1  0
 29 30  2  0
 24 31  1  0
 31 32  1  0
 21 33  1  0
 33 34  1  0
 34 35  1  0
 35 36  1  0
 36 37  2  0
 36 38  1  0
 38 39  1  0
 39 40  1  0
 39 41  1  0
 39 42  1  0
 35 43  1  0
 43 44  1  0
 44 45  1  0
  8  2  1  0
 16 11  1  0
 19 45  1  1
 19  7  1  0
 31 20  2  0
 45 33  1  0
 30 25  1  0
  1 46  1  0
  1 47  1  0
  1 48  1  0
  5 49  1  0
  6 50  1  0
 10 51  1  0
 10 52  1  0
 12 53  1  0
 13 54  1  0
 14 55  1  0
 15 56  1  0
 16 57  1  0
 23 58  1  0
 26 59  1  0
 27 60  1  0
 28 61  1  0
 29 62  1  0
 30 63  1  0
 32 64  1  0
 33 65  1  6
 34 66  1  0
 34 67  1  0
 40 68  1  0
 40 69  1  0
 40 70  1  0
 41 71  1  0
 41 72  1  0
 41 73  1  0
 42 74  1  0
 42 75  1  0
 42 76  1  0
 43 77  1  0
 43 78  1  0
 44 79  1  0
 44 80  1  0
M  END
$$$$
