
     RDKit          3D

 37 40  0  0  0  0  0  0  0  0999 V2000
    2.9615   -1.9911   -1.4764 C   0  0  0  0  0  0  0  0  0  0  0  0
    3.2367   -0.8038   -0.6243 C   0  0  0  0  0  0  0  0  0  0  0  0
    4.5218   -0.5165   -0.3622 N   0  0  0  0  0  0  0  0  0  0  0  0
    4.4598    0.5143    0.4872 N   0  0  0  0  0  0  0  0  0  0  0  0
    5.6808    1.0922    0.9924 C   0  0  0  0  0  0  0  0  0  0  0  0
    3.1896    0.8937    0.7860 C   0  0  0  0  0  0  0  0  0  0  0  0
    2.3350    0.0796    0.0650 C   0  0  0  0  0  0  0  0  0  0  0  0
    0.9165    0.1395    0.0753 N   0  0  0  0  0  0  0  0  0  0  0  0
    0.2716    0.6937    1.1938 C   0  0  0  0  0  0  0  0  0  0  0  0
    0.8161    1.1491    2.1995 O   0  0  0  0  0  0  0  0  0  0  0  0
   -1.2132    0.6963    1.1915 C   0  0  0  0  0  0  0  0  0  0  0  0
   -1.8900    1.2228    2.3013 C   0  0  0  0  0  0  0  0  0  0  0  0
   -3.2772    1.2165    2.3409 C   0  0  0  0  0  0  0  0  0  0  0  0
   -3.9945    0.6687    1.2788 C   0  0  0  0  0  0  0  0  0  0  0  0
   -3.3470    0.1162    0.1507 C   0  0  0  0  0  0  0  0  0  0  0  0
   -4.0537   -0.4701   -0.9354 C   0  0  0  0  0  0  0  0  0  0  0  0
   -5.4605   -0.4703   -1.0038 N   0  0  0  0  0  0  0  0  0  0  0  0
   -3.3469   -0.8796   -2.0708 C   0  0  0  0  0  0  0  0  0  0  0  0
   -1.9574   -0.8221   -2.1031 C   0  0  0  0  0  0  0  0  0  0  0  0
   -1.2478   -0.3176   -1.0075 C   0  0  0  0  0  0  0  0  0  0  0  0
   -1.9239    0.1581    0.1150 C   0  0  0  0  0  0  0  0  0  0  0  0
    0.2301   -0.2468   -1.0817 C   0  0  0  0  0  0  0  0  0  0  0  0
    0.7362   -0.4706   -2.1800 O   0  0  0  0  0  0  0  0  0  0  0  0
    3.7571   -2.7378   -1.3718 H   0  0  0  0  0  0  0  0  0  0  0  0
    2.0278   -2.4828   -1.1878 H   0  0  0  0  0  0  0  0  0  0  0  0
    2.9132   -1.7071   -2.5318 H   0  0  0  0  0  0  0  0  0  0  0  0
    5.4418    1.9164    1.6691 H   0  0  0  0  0  0  0  0  0  0  0  0
    6.2330    0.3171    1.5296 H   0  0  0  0  0  0  0  0  0  0  0  0
    6.2633    1.4627    0.1452 H   0  0  0  0  0  0  0  0  0  0  0  0
    3.0043    1.7163    1.4622 H   0  0  0  0  0  0  0  0  0  0  0  0
   -1.3367    1.6426    3.1399 H   0  0  0  0  0  0  0  0  0  0  0  0
   -3.8014    1.6354    3.1965 H   0  0  0  0  0  0  0  0  0  0  0  0
   -5.0797    0.6935    1.3399 H   0  0  0  0  0  0  0  0  0  0  0  0
   -5.9190   -0.5655   -0.1042 H   0  0  0  0  0  0  0  0  0  0  0  0
   -5.8380   -1.1286   -1.6794 H   0  0  0  0  0  0  0  0  0  0  0  0
   -3.8765   -1.2533   -2.9442 H   0  0  0  0  0  0  0  0  0  0  0  0
   -1.4329   -1.1611   -2.9952 H   0  0  0  0  0  0  0  0  0  0  0  0
  1  2  1  0
  2  3  2  0
  3  4  1  0
  4  5  1  0
  4  6  1  0
  6  7  2  0
  7  8  1  0
  8  9  1  0
  9 10  2  0
  9 11  1  0
 11 12  2  0
 12 13  1  0
 13 14  2  0
 14 15  1  0
 15 16  2  0
 16 17  1  0
 16 18  1  0
 18 19  2  0
 19 20  1  0
 20 21  2  0
 20 22  1  0
 22 23  2  0
  7  2  1  0
 22  8  1  0
 21 11  1  0
 21 15  1  0
  1 24  1  0
  1 25  1  0
  1 26  1  0
  5 27  1  0
  5 28  1  0
  5 29  1  0
  6 30  1  0
 12 31  1  0
 13 32  1  0
 14 33  1  0
 17 34  1  0
 17 35  1  0
 18 36  1  0
 19 37  1  0
M  END
$$$$
