
     RDKit          3D

 50 53  0  0  0  0  0  0  0  0999 V2000
    4.6168    1.5490    3.1420 C   0  0  0  0  0  0  0  0  0  0  0  0
    4.0807    2.2027    1.8753 C   0  0  0  0  0  0  0  0  0  0  0  0
    4.0665    1.2640    0.7442 N   0  0  0  0  0  0  0  0  0  0  0  0
    5.0407    1.5154   -0.3261 C   0  0  0  0  0  0  0  0  0  0  0  0
    6.3725    0.8429   -0.0301 C   0  0  0  0  0  0  0  0  0  0  0  0
    3.1387    0.2307    0.6526 C   0  0  0  0  0  0  0  0  0  0  0  0
    2.0016    0.1657    1.4761 C   0  0  0  0  0  0  0  0  0  0  0  0
    1.0622   -0.8742    1.3892 C   0  0  0  0  0  0  0  0  0  0  0  0
    1.2236   -1.8940    0.4563 C   0  0  0  0  0  0  0  0  0  0  0  0
    0.2866   -3.0156    0.3617 C   0  0  0  0  0  0  0  0  0  0  0  0
   -1.0121   -2.9524    0.0313 C   0  0  0  0  0  0  0  0  0  0  0  0
   -2.0017   -4.4039   -0.0539 S   0  0  0  0  0  0  0  0  0  0  0  0
   -3.3433   -3.4516   -0.5296 C   0  0  0  0  0  0  0  0  0  0  0  0
   -4.5871   -3.7110   -0.8070 N   0  0  0  0  0  0  0  0  0  0  0  0
   -5.1671   -2.4889   -1.1048 N   0  0  0  0  0  0  0  0  0  0  0  0
   -4.2476   -1.5320   -1.0044 C   0  0  0  0  0  0  0  0  0  0  0  0
   -4.4714   -0.1028   -1.2254 C   0  0  0  0  0  0  0  0  0  0  0  0
   -3.6554    0.6000   -2.1280 C   0  0  0  0  0  0  0  0  0  0  0  0
   -3.8624    1.9577   -2.3772 C   0  0  0  0  0  0  0  0  0  0  0  0
   -4.8974    2.6304   -1.7382 C   0  0  0  0  0  0  0  0  0  0  0  0
   -5.7257    1.9472   -0.8492 C   0  0  0  0  0  0  0  0  0  0  0  0
   -5.5230    0.5826   -0.5781 C   0  0  0  0  0  0  0  0  0  0  0  0
   -6.4597   -0.1098    0.3772 C   0  0  0  0  0  0  0  0  0  0  0  0
   -3.0707   -2.1315   -0.6268 N   0  0  0  0  0  0  0  0  0  0  0  0
   -1.7923   -1.7233   -0.3267 C   0  0  0  0  0  0  0  0  0  0  0  0
   -1.4531   -0.5583   -0.3710 O   0  0  0  0  0  0  0  0  0  0  0  0
    2.3472   -1.8687   -0.3655 C   0  0  0  0  0  0  0  0  0  0  0  0
    3.2790   -0.8235   -0.2664 C   0  0  0  0  0  0  0  0  0  0  0  0
    5.6265    1.1561    2.9873 H   0  0  0  0  0  0  0  0  0  0  0  0
    4.6602    2.2824    3.9535 H   0  0  0  0  0  0  0  0  0  0  0  0
    3.9861    0.7195    3.4747 H   0  0  0  0  0  0  0  0  0  0  0  0
    3.0887    2.6354    2.0459 H   0  0  0  0  0  0  0  0  0  0  0  0
    4.7264    3.0596    1.6461 H   0  0  0  0  0  0  0  0  0  0  0  0
    4.6608    1.2015   -1.3053 H   0  0  0  0  0  0  0  0  0  0  0  0
    5.2076    2.5950   -0.4306 H   0  0  0  0  0  0  0  0  0  0  0  0
    7.0704    1.0081   -0.8569 H   0  0  0  0  0  0  0  0  0  0  0  0
    6.2597   -0.2363    0.1105 H   0  0  0  0  0  0  0  0  0  0  0  0
    6.8268    1.2521    0.8777 H   0  0  0  0  0  0  0  0  0  0  0  0
    1.8004    0.9385    2.2112 H   0  0  0  0  0  0  0  0  0  0  0  0
    0.2056   -0.8593    2.0582 H   0  0  0  0  0  0  0  0  0  0  0  0
    0.7445   -3.9815    0.5718 H   0  0  0  0  0  0  0  0  0  0  0  0
   -2.8456    0.0980   -2.6530 H   0  0  0  0  0  0  0  0  0  0  0  0
   -3.2160    2.4866   -3.0728 H   0  0  0  0  0  0  0  0  0  0  0  0
   -5.0636    3.6865   -1.9342 H   0  0  0  0  0  0  0  0  0  0  0  0
   -6.5368    2.4881   -0.3658 H   0  0  0  0  0  0  0  0  0  0  0  0
   -7.1453   -0.7629   -0.1716 H   0  0  0  0  0  0  0  0  0  0  0  0
   -7.0617    0.6132    0.9384 H   0  0  0  0  0  0  0  0  0  0  0  0
   -5.9012   -0.6960    1.1141 H   0  0  0  0  0  0  0  0  0  0  0  0
    2.5211   -2.6568   -1.0943 H   0  0  0  0  0  0  0  0  0  0  0  0
    4.1389   -0.8745   -0.9271 H   0  0  0  0  0  0  0  0  0  0  0  0
  1  2  1  0
  2  3  1  0
  3  4  1  0
  4  5  1  0
  3  6  1  0
  6  7  2  0
  7  8  1  0
  8  9  2  0
  9 10  1  0
 10 11  2  3
 11 12  1  0
 12 13  1  0
 13 14  2  0
 14 15  1  0
 15 16  2  0
 16 17  1  0
 17 18  2  0
 18 19  1  0
 19 20  2  0
 20 21  1  0
 21 22  2  0
 22 23  1  0
 16 24  1  0
 24 25  1  0
 25 26  2  0
  9 27  1  0
 27 28  2  0
 28  6  1  0
 25 11  1  0
 24 13  1  0
 22 17  1  0
  1 29  1  0
  1 30  1  0
  1 31  1  0
  2 32  1  0
  2 33  1  0
  4 34  1  0
  4 35  1  0
  5 36  1  0
  5 37  1  0
  5 38  1  0
  7 39  1  0
  8 40  1  0
 10 41  1  0
 18 42  1  0
 19 43  1  0
 20 44  1  0
 21 45  1  0
 23 46  1  0
 23 47  1  0
 23 48  1  0
 27 49  1  0
 28 50  1  0
M  END
$$$$
