
     RDKit          3D

 37 39  0  0  0  0  0  0  0  0999 V2000
    5.9287   -1.6826    0.6142 C   0  0  0  0  0  0  0  0  0  0  0  0
    4.7528   -0.7843    0.8630 C   0  0  0  0  0  0  0  0  0  0  0  0
    4.7555    0.1086    1.9416 C   0  0  0  0  0  0  0  0  0  0  0  0
    3.6833    0.9812    2.1469 C   0  0  0  0  0  0  0  0  0  0  0  0
    2.5983    0.9664    1.2711 C   0  0  0  0  0  0  0  0  0  0  0  0
    1.5695    1.8457    1.4567 O   0  0  0  0  0  0  0  0  0  0  0  0
    2.5748    0.0726    0.1961 C   0  0  0  0  0  0  0  0  0  0  0  0
    1.4583    0.0184   -0.7757 C   0  0  0  0  0  0  0  0  0  0  0  0
    1.7216   -0.0383   -1.9758 O   0  0  0  0  0  0  0  0  0  0  0  0
    0.0398   -0.0138   -0.3514 C   0  0  0  0  0  0  0  0  0  0  0  0
   -0.3645   -0.4932    0.8878 C   0  0  0  0  0  0  0  0  0  0  0  0
   -1.6588   -0.5560    1.2917 N   0  0  0  0  0  0  0  0  0  0  0  0
   -2.5885   -0.1400    0.4086 C   0  0  0  0  0  0  0  0  0  0  0  0
   -2.2941    0.3426   -0.8538 C   0  0  0  0  0  0  0  0  0  0  0  0
   -0.9526    0.4062   -1.2398 C   0  0  0  0  0  0  0  0  0  0  0  0
   -3.4013    0.8536   -1.7099 C   0  0  0  0  0  0  0  0  0  0  0  0
   -4.7130    0.3790   -1.3046 N   0  0  0  0  0  0  0  0  0  0  0  0
   -5.8235    0.6939   -2.1833 C   0  0  0  0  0  0  0  0  0  0  0  0
   -4.9819    0.0270    0.0031 C   0  0  0  0  0  0  0  0  0  0  0  0
   -6.1191   -0.1098    0.4499 O   0  0  0  0  0  0  0  0  0  0  0  0
   -3.9093   -0.2064    0.8053 N   0  0  0  0  0  0  0  0  0  0  0  0
    3.6643   -0.7831   -0.0187 C   0  0  0  0  0  0  0  0  0  0  0  0
    5.6130   -2.6143    0.1330 H   0  0  0  0  0  0  0  0  0  0  0  0
    6.6545   -1.1785   -0.0312 H   0  0  0  0  0  0  0  0  0  0  0  0
    6.4192   -1.9533    1.5551 H   0  0  0  0  0  0  0  0  0  0  0  0
    5.6023    0.1367    2.6253 H   0  0  0  0  0  0  0  0  0  0  0  0
    3.7201    1.6682    2.9875 H   0  0  0  0  0  0  0  0  0  0  0  0
    1.7811    2.4394    2.1976 H   0  0  0  0  0  0  0  0  0  0  0  0
    0.3455   -0.8633    1.6212 H   0  0  0  0  0  0  0  0  0  0  0  0
   -0.6768    0.7861   -2.2214 H   0  0  0  0  0  0  0  0  0  0  0  0
   -3.4155    1.9491   -1.6702 H   0  0  0  0  0  0  0  0  0  0  0  0
   -3.2393    0.5377   -2.7469 H   0  0  0  0  0  0  0  0  0  0  0  0
   -6.7345    0.1724   -1.8764 H   0  0  0  0  0  0  0  0  0  0  0  0
   -6.0034    1.7725   -2.1500 H   0  0  0  0  0  0  0  0  0  0  0  0
   -5.5732    0.3925   -3.2044 H   0  0  0  0  0  0  0  0  0  0  0  0
   -4.0935   -0.5417    1.7383 H   0  0  0  0  0  0  0  0  0  0  0  0
    3.6599   -1.4495   -0.8804 H   0  0  0  0  0  0  0  0  0  0  0  0
  1  2  1  0
  2  3  2  0
  3  4  1  0
  4  5  2  0
  5  6  1  0
  5  7  1  0
  7  8  1  0
  8  9  2  0
  8 10  1  0
 10 11  2  0
 11 12  1  0
 12 13  2  0
 13 14  1  0
 14 15  2  0
 14 16  1  0
 16 17  1  0
 17 18  1  0
 17 19  1  0
 19 20  2  0
 19 21  1  0
  7 22  2  0
 22  2  1  0
 15 10  1  0
 21 13  1  0
  1 23  1  0
  1 24  1  0
  1 25  1  0
  3 26  1  0
  4 27  1  0
  6 28  1  0
 11 29  1  0
 15 30  1  0
 16 31  1  0
 16 32  1  0
 18 33  1  0
 18 34  1  0
 18 35  1  0
 21 36  1  0
 22 37  1  0
M  END
$$$$
