
     RDKit          3D

 59 63  0  0  0  0  0  0  0  0999 V2000
   -2.9907    1.8263   -3.1254 C   0  0  0  0  0  0  0  0  0  0  0  0
   -2.5945    1.2666   -1.7639 C   0  0  0  0  0  0  0  0  0  0  0  0
   -1.4099    0.2936   -1.9055 C   0  0  0  0  0  0  0  0  0  0  0  0
   -0.8754   -0.1795   -0.6088 N   0  0  0  0  0  0  0  0  0  0  0  0
   -1.5229   -1.3153   -0.1040 C   0  0  0  0  0  0  0  0  0  0  0  0
   -2.8697   -1.3659   -0.1239 N   0  0  0  0  0  0  0  0  0  0  0  0
   -3.4749   -2.4643    0.3671 C   0  0  0  0  0  0  0  0  0  0  0  0
   -4.8628   -2.5288    0.3918 C   0  0  0  0  0  0  0  0  0  0  0  0
   -5.5291   -3.6477    0.8946 C   0  0  0  0  0  0  0  0  0  0  0  0
   -4.7939   -4.7218    1.3792 C   0  0  0  0  0  0  0  0  0  0  0  0
   -3.4000   -4.6665    1.3574 C   0  0  0  0  0  0  0  0  0  0  0  0
   -2.7299   -3.5550    0.8605 C   0  0  0  0  0  0  0  0  0  0  0  0
   -1.3877   -3.5350    0.8484 N   0  0  0  0  0  0  0  0  0  0  0  0
   -0.7803   -2.4141    0.3643 C   0  0  0  0  0  0  0  0  0  0  0  0
    0.7312   -2.4060    0.2604 C   0  0  0  0  0  0  0  0  0  0  0  0
    1.3530   -3.7305    0.4204 C   0  0  0  0  0  0  0  0  0  0  0  0
    1.9162   -4.7450    0.4972 N   0  0  0  0  0  0  0  0  0  0  0  0
    1.3731   -1.4684    1.2734 C   0  0  0  0  0  0  0  0  0  0  0  0
    0.9678   -1.3263    2.4259 O   0  0  0  0  0  0  0  0  0  0  0  0
    2.4645   -0.7591    0.7983 N   0  0  0  0  0  0  0  0  0  0  0  0
    3.2303    0.0929    1.6796 C   0  0  0  0  0  0  0  0  0  0  0  0
    4.1102    1.0169    0.8815 C   0  0  0  0  0  0  0  0  0  0  0  0
    5.4461    0.6583    0.5868 C   0  0  0  0  0  0  0  0  0  0  0  0
    6.2638    1.4983   -0.1767 C   0  0  0  0  0  0  0  0  0  0  0  0
    5.7213    2.6792   -0.6343 C   0  0  0  0  0  0  0  0  0  0  0  0
    4.4215    3.0319   -0.3621 C   0  0  0  0  0  0  0  0  0  0  0  0
    3.5909    2.2252    0.3855 C   0  0  0  0  0  0  0  0  0  0  0  0
    4.0827    4.2294   -0.9090 O   0  0  0  0  0  0  0  0  0  0  0  0
    5.3319    4.6097   -1.5222 C   0  0  0  0  0  0  0  0  0  0  0  0
    6.3650    3.6128   -1.3845 O   0  0  0  0  0  0  0  0  0  0  0  0
   -0.7309    0.9078    0.3901 C   0  0  0  0  0  0  0  0  0  0  0  0
   -1.8448    1.9797    0.3855 C   0  0  0  0  0  0  0  0  0  0  0  0
   -3.0559    1.6428    1.2522 C   0  0  0  0  0  0  0  0  0  0  0  0
   -2.2370    2.3829   -0.9342 O   0  0  0  0  0  0  0  0  0  0  0  0
   -3.8234    2.5302   -3.0195 H   0  0  0  0  0  0  0  0  0  0  0  0
   -2.1641    2.3841   -3.5784 H   0  0  0  0  0  0  0  0  0  0  0  0
   -3.2930    1.0279   -3.8107 H   0  0  0  0  0  0  0  0  0  0  0  0
   -3.4730    0.7715   -1.3412 H   0  0  0  0  0  0  0  0  0  0  0  0
   -0.5824    0.8163   -2.4049 H   0  0  0  0  0  0  0  0  0  0  0  0
   -1.6738   -0.5525   -2.5532 H   0  0  0  0  0  0  0  0  0  0  0  0
   -5.4365   -1.6852    0.0147 H   0  0  0  0  0  0  0  0  0  0  0  0
   -6.6157   -3.6746    0.9065 H   0  0  0  0  0  0  0  0  0  0  0  0
   -5.2973   -5.5999    1.7749 H   0  0  0  0  0  0  0  0  0  0  0  0
   -2.8207   -5.5055    1.7365 H   0  0  0  0  0  0  0  0  0  0  0  0
    0.9868   -2.0596   -0.7505 H   0  0  0  0  0  0  0  0  0  0  0  0
    2.9033   -1.0350   -0.0713 H   0  0  0  0  0  0  0  0  0  0  0  0
    2.5524    0.6668    2.3224 H   0  0  0  0  0  0  0  0  0  0  0  0
    3.8287   -0.5486    2.3367 H   0  0  0  0  0  0  0  0  0  0  0  0
    5.8553   -0.2808    0.9576 H   0  0  0  0  0  0  0  0  0  0  0  0
    7.2908    1.2326   -0.4014 H   0  0  0  0  0  0  0  0  0  0  0  0
    2.5677    2.5264    0.5825 H   0  0  0  0  0  0  0  0  0  0  0  0
    5.1590    4.7930   -2.5883 H   0  0  0  0  0  0  0  0  0  0  0  0
    5.6796    5.5396   -1.0579 H   0  0  0  0  0  0  0  0  0  0  0  0
   -0.5922    0.5197    1.4054 H   0  0  0  0  0  0  0  0  0  0  0  0
    0.2063    1.4179    0.1307 H   0  0  0  0  0  0  0  0  0  0  0  0
   -1.4047    2.8775    0.8382 H   0  0  0  0  0  0  0  0  0  0  0  0
   -3.6450    0.8125    0.8597 H   0  0  0  0  0  0  0  0  0  0  0  0
   -3.7342    2.5021    1.2905 H   0  0  0  0  0  0  0  0  0  0  0  0
   -2.7528    1.3983    2.2755 H   0  0  0  0  0  0  0  0  0  0  0  0
  1  2  1  0
  2  3  1  0
  3  4  1  0
  4  5  1  0
  5  6  2  0
  6  7  1  0
  7  8  2  0
  8  9  1  0
  9 10  2  0
 10 11  1  0
 11 12  2  0
 12 13  1  0
 13 14  2  0
 14 15  1  0
 15 16  1  0
 16 17  3  0
 15 18  1  0
 18 19  2  0
 18 20  1  0
 20 21  1  0
 21 22  1  0
 22 23  2  0
 23 24  1  0
 24 25  2  0
 25 26  1  0
 26 27  2  0
 26 28  1  0
 28 29  1  0
 29 30  1  0
  4 31  1  0
 31 32  1  0
 32 33  1  0
 32 34  1  0
 34  2  1  0
 14  5  1  0
 27 22  1  0
 12  7  1  0
 30 25  1  0
  1 35  1  0
  1 36  1  0
  1 37  1  0
  2 38  1  0
  3 39  1  0
  3 40  1  0
  8 41  1  0
  9 42  1  0
 10 43  1  0
 11 44  1  0
 15 45  1  0
 20 46  1  0
 21 47  1  0
 21 48  1  0
 23 49  1  0
 24 50  1  0
 27 51  1  0
 29 52  1  0
 29 53  1  0
 31 54  1  0
 31 55  1  0
 32 56  1  0
 33 57  1  0
 33 58  1  0
 33 59  1  0
M  END
$$$$
