
     RDKit          3D

 40 41  0  0  0  0  0  0  0  0999 V2000
    5.2143    0.8932   -1.2328 C   0  0  0  0  0  0  0  0  0  0  0  0
    5.3258    0.5289    0.2374 C   0  0  0  0  0  0  0  0  0  0  0  0
    4.5801   -0.6536    0.5224 O   0  0  0  0  0  0  0  0  0  0  0  0
    3.2753   -0.5343    0.9102 C   0  0  0  0  0  0  0  0  0  0  0  0
    2.5123    0.6352    0.8981 C   0  0  0  0  0  0  0  0  0  0  0  0
    1.1783    0.6087    1.3167 C   0  0  0  0  0  0  0  0  0  0  0  0
    0.6091   -0.5946    1.7415 C   0  0  0  0  0  0  0  0  0  0  0  0
   -1.0900   -0.6070    2.2576 S   0  0  0  0  0  6  0  0  0  0  0  0
   -1.4945   -1.9770    2.4963 O   0  0  0  0  0  0  0  0  0  0  0  0
   -1.2229    0.4077    3.2808 O   0  0  0  0  0  0  0  0  0  0  0  0
   -1.9173   -0.0750    0.8453 N   0  0  0  0  0  0  0  0  0  0  0  0
   -1.8297   -1.0160   -0.3097 C   0  0  0  0  0  0  0  0  0  0  0  0
   -1.7814   -0.2137   -1.6049 C   0  0  0  0  0  0  0  0  0  0  0  0
   -3.1462    0.1274   -2.1999 C   0  0  0  0  0  0  0  0  0  0  0  0
   -4.2792    0.4296   -1.2221 C   0  0  0  0  0  0  0  0  0  0  0  0
   -3.8742    1.2344    0.0093 C   0  0  0  0  0  0  0  0  0  0  0  0
   -3.3093    0.3660    1.1341 C   0  0  0  0  0  0  0  0  0  0  0  0
    1.3594   -1.7696    1.7597 C   0  0  0  0  0  0  0  0  0  0  0  0
    2.6899   -1.7322    1.3384 C   0  0  0  0  0  0  0  0  0  0  0  0
    5.8414    1.7587   -1.4650 H   0  0  0  0  0  0  0  0  0  0  0  0
    5.5289    0.0526   -1.8602 H   0  0  0  0  0  0  0  0  0  0  0  0
    4.1822    1.1262   -1.5108 H   0  0  0  0  0  0  0  0  0  0  0  0
    6.3737    0.2937    0.4561 H   0  0  0  0  0  0  0  0  0  0  0  0
    5.0625    1.3632    0.8967 H   0  0  0  0  0  0  0  0  0  0  0  0
    2.9193    1.5833    0.5634 H   0  0  0  0  0  0  0  0  0  0  0  0
    0.5876    1.5226    1.3088 H   0  0  0  0  0  0  0  0  0  0  0  0
   -0.9016   -1.5935   -0.2527 H   0  0  0  0  0  0  0  0  0  0  0  0
   -2.6523   -1.7392   -0.2999 H   0  0  0  0  0  0  0  0  0  0  0  0
   -1.2272   -0.7871   -2.3589 H   0  0  0  0  0  0  0  0  0  0  0  0
   -1.2107    0.7114   -1.4514 H   0  0  0  0  0  0  0  0  0  0  0  0
   -3.0161    0.9856   -2.8718 H   0  0  0  0  0  0  0  0  0  0  0  0
   -3.4704   -0.7013   -2.8426 H   0  0  0  0  0  0  0  0  0  0  0  0
   -5.0500    0.9868   -1.7698 H   0  0  0  0  0  0  0  0  0  0  0  0
   -4.7568   -0.5083   -0.9121 H   0  0  0  0  0  0  0  0  0  0  0  0
   -4.7782    1.7214    0.3968 H   0  0  0  0  0  0  0  0  0  0  0  0
   -3.1758    2.0354   -0.2602 H   0  0  0  0  0  0  0  0  0  0  0  0
   -3.3116    0.9844    2.0387 H   0  0  0  0  0  0  0  0  0  0  0  0
   -3.9518   -0.5009    1.3268 H   0  0  0  0  0  0  0  0  0  0  0  0
    0.9249   -2.7082    2.0951 H   0  0  0  0  0  0  0  0  0  0  0  0
    3.2822   -2.6449    1.3477 H   0  0  0  0  0  0  0  0  0  0  0  0
  1  2  1  0
  2  3  1  0
  3  4  1  0
  4  5  2  0
  5  6  1  0
  6  7  2  0
  7  8  1  0
  8  9  2  0
  8 10  2  0
  8 11  1  0
 11 12  1  0
 12 13  1  0
 13 14  1  0
 14 15  1  0
 15 16  1  0
 16 17  1  0
  7 18  1  0
 18 19  2  0
 19  4  1  0
 17 11  1  0
  1 20  1  0
  1 21  1  0
  1 22  1  0
  2 23  1  0
  2 24  1  0
  5 25  1  0
  6 26  1  0
 12 27  1  0
 12 28  1  0
 13 29  1  0
 13 30  1  0
 14 31  1  0
 14 32  1  0
 15 33  1  0
 15 34  1  0
 16 35  1  0
 16 36  1  0
 17 37  1  0
 17 38  1  0
 18 39  1  0
 19 40  1  0
M  END
$$$$
