
     RDKit          3D

 44 47  0  0  0  0  0  0  0  0999 V2000
    4.1326    1.5229   -2.5599 C   0  0  0  0  0  0  0  0  0  0  0  0
    5.3712    1.1292   -1.9826 O   0  0  0  0  0  0  0  0  0  0  0  0
    5.3013    0.4976   -0.8136 C   0  0  0  0  0  0  0  0  0  0  0  0
    6.2758    0.0055    0.0228 C   0  0  0  0  0  0  0  0  0  0  0  0
    5.6016   -0.5668    1.1276 C   0  0  0  0  0  0  0  0  0  0  0  0
    4.2496   -0.3916    0.9015 C   0  0  0  0  0  0  0  0  0  0  0  0
    3.0951   -0.7739    1.6859 C   0  0  0  0  0  0  0  0  0  0  0  0
    3.1669   -1.3721    2.7554 O   0  0  0  0  0  0  0  0  0  0  0  0
    1.8934   -0.4141    1.1191 N   0  0  0  0  0  0  0  0  0  0  0  0
    0.6273   -0.8307    1.6744 C   0  0  0  0  0  0  0  0  0  0  0  0
    0.3174   -2.2995    1.3025 C   0  0  0  0  0  0  0  0  0  0  0  0
   -1.1806   -2.6252    1.4250 C   0  0  0  0  0  0  0  0  0  0  0  0
   -2.0276   -1.7578    0.4724 C   0  0  0  0  0  0  0  0  0  0  0  0
   -1.6267   -0.3267    0.5974 C   0  0  0  0  0  0  0  0  0  0  0  0
   -0.4314    0.0868    1.1608 C   0  0  0  0  0  0  0  0  0  0  0  0
   -0.5326    1.4796    1.2219 C   0  0  0  0  0  0  0  0  0  0  0  0
   -1.6823    1.9257    0.7234 N   0  0  0  0  0  0  0  0  0  0  0  0
   -2.3499    0.8156    0.2794 N   0  0  0  0  0  0  0  0  0  0  0  0
   -3.6090    0.9985   -0.3617 C   0  0  0  0  0  0  0  0  0  0  0  0
   -4.2761    2.2287   -0.1919 C   0  0  0  0  0  0  0  0  0  0  0  0
   -5.5220    2.4602   -0.7831 C   0  0  0  0  0  0  0  0  0  0  0  0
   -6.1154    1.4743   -1.5646 C   0  0  0  0  0  0  0  0  0  0  0  0
   -5.4533    0.2655   -1.7631 C   0  0  0  0  0  0  0  0  0  0  0  0
   -4.2082    0.0351   -1.1714 C   0  0  0  0  0  0  0  0  0  0  0  0
   -3.6016   -1.1128   -1.4901 F   0  0  0  0  0  0  0  0  0  0  0  0
    4.0658    0.2599   -0.2922 O   0  0  0  0  0  0  0  0  0  0  0  0
    3.5073    0.6506   -2.7791 H   0  0  0  0  0  0  0  0  0  0  0  0
    4.3460    2.0326   -3.5041 H   0  0  0  0  0  0  0  0  0  0  0  0
    3.6012    2.2249   -1.9080 H   0  0  0  0  0  0  0  0  0  0  0  0
    7.3409    0.0585   -0.1504 H   0  0  0  0  0  0  0  0  0  0  0  0
    6.0357   -1.0516    1.9918 H   0  0  0  0  0  0  0  0  0  0  0  0
    1.9232   -0.0362    0.1792 H   0  0  0  0  0  0  0  0  0  0  0  0
    0.6718   -0.7432    2.7674 H   0  0  0  0  0  0  0  0  0  0  0  0
    0.8994   -2.9730    1.9429 H   0  0  0  0  0  0  0  0  0  0  0  0
    0.6365   -2.5037    0.2711 H   0  0  0  0  0  0  0  0  0  0  0  0
   -1.5019   -2.4614    2.4617 H   0  0  0  0  0  0  0  0  0  0  0  0
   -1.3504   -3.6840    1.1991 H   0  0  0  0  0  0  0  0  0  0  0  0
   -3.0854   -1.9012    0.7142 H   0  0  0  0  0  0  0  0  0  0  0  0
   -1.8425   -2.1000   -0.5516 H   0  0  0  0  0  0  0  0  0  0  0  0
    0.1751    2.1913    1.6285 H   0  0  0  0  0  0  0  0  0  0  0  0
   -3.8412    3.0195    0.4188 H   0  0  0  0  0  0  0  0  0  0  0  0
   -6.0241    3.4129   -0.6305 H   0  0  0  0  0  0  0  0  0  0  0  0
   -7.0819    1.6521   -2.0290 H   0  0  0  0  0  0  0  0  0  0  0  0
   -5.8910   -0.5019   -2.3951 H   0  0  0  0  0  0  0  0  0  0  0  0
  1  2  1  0
  2  3  1  0
  3  4  2  0
  4  5  1  0
  5  6  2  0
  6  7  1  0
  7  8  2  0
  7  9  1  0
  9 10  1  0
 10 11  1  0
 11 12  1  0
 12 13  1  0
 13 14  1  0
 14 15  2  0
 15 16  1  0
 16 17  2  0
 17 18  1  0
 18 19  1  0
 19 20  2  0
 20 21  1  0
 21 22  2  0
 22 23  1  0
 23 24  2  0
 24 25  1  0
  6 26  1  0
 26  3  1  0
 15 10  1  0
 24 19  1  0
 18 14  1  0
  1 27  1  0
  1 28  1  0
  1 29  1  0
  4 30  1  0
  5 31  1  0
  9 32  1  0
 10 33  1  0
 11 34  1  0
 11 35  1  0
 12 36  1  0
 12 37  1  0
 13 38  1  0
 13 39  1  0
 16 40  1  0
 20 41  1  0
 21 42  1  0
 22 43  1  0
 23 44  1  0
M  END
$$$$
