
     RDKit          3D

 46 48  0  0  0  0  0  0  0  0999 V2000
    8.1998    0.5689    0.8129 C   0  0  0  0  0  0  0  0  0  0  0  0
    7.4012   -0.5112    0.3450 O   0  0  0  0  0  0  0  0  0  0  0  0
    6.0492   -0.3129    0.3157 C   0  0  0  0  0  0  0  0  0  0  0  0
    5.3800    0.8460    0.7041 C   0  0  0  0  0  0  0  0  0  0  0  0
    3.9839    0.9113    0.6211 C   0  0  0  0  0  0  0  0  0  0  0  0
    3.2409   -0.1794    0.1483 C   0  0  0  0  0  0  0  0  0  0  0  0
    1.7527   -0.0513    0.0829 C   0  0  0  0  0  0  0  0  0  0  0  0
    1.2224    0.9735    0.5135 O   0  0  0  0  0  0  0  0  0  0  0  0
    0.9542   -1.2096   -0.5089 C   0  0  0  0  0  0  0  0  0  0  0  0
   -0.4404   -0.8411   -0.5806 N   0  0  0  0  0  0  0  0  0  0  0  0
   -1.0041   -0.1774   -1.6206 C   0  0  0  0  0  0  0  0  0  0  0  0
   -0.4716    0.1431   -2.6698 O   0  0  0  0  0  0  0  0  0  0  0  0
   -2.3191    0.0756   -1.3148 N   0  0  0  0  0  0  0  0  0  0  0  0
   -2.6816   -0.3417    0.0283 C   0  0  0  0  0  0  0  0  0  0  0  0
   -2.9105    0.8579    0.9622 C   0  0  0  0  0  0  0  0  0  0  0  0
   -3.8637    1.9330    0.4360 C   0  0  0  0  0  0  0  0  0  0  0  0
   -5.3380    1.5516    0.4199 C   0  0  0  0  0  0  0  0  0  0  0  0
   -5.6729    0.2862   -0.3625 C   0  0  0  0  0  0  0  0  0  0  0  0
   -5.2000   -0.9806    0.3398 C   0  0  0  0  0  0  0  0  0  0  0  0
   -3.7772   -1.4170   -0.0014 C   0  0  0  0  0  0  0  0  0  0  0  0
   -1.3393   -1.0022    0.4338 C   0  0  0  0  0  0  0  0  0  0  0  0
   -1.1213   -1.5669    1.4988 O   0  0  0  0  0  0  0  0  0  0  0  0
    3.9145   -1.3419   -0.2390 C   0  0  0  0  0  0  0  0  0  0  0  0
    5.3100   -1.4015   -0.1538 C   0  0  0  0  0  0  0  0  0  0  0  0
    8.0922    1.4475    0.1682 H   0  0  0  0  0  0  0  0  0  0  0  0
    7.9650    0.8108    1.8547 H   0  0  0  0  0  0  0  0  0  0  0  0
    9.2466    0.2525    0.7725 H   0  0  0  0  0  0  0  0  0  0  0  0
    5.9086    1.7176    1.0761 H   0  0  0  0  0  0  0  0  0  0  0  0
    3.4789    1.8259    0.9295 H   0  0  0  0  0  0  0  0  0  0  0  0
    1.3139   -1.4203   -1.5206 H   0  0  0  0  0  0  0  0  0  0  0  0
    1.0595   -2.0859    0.1378 H   0  0  0  0  0  0  0  0  0  0  0  0
   -2.8990    0.6042   -1.9529 H   0  0  0  0  0  0  0  0  0  0  0  0
   -3.2439    0.5098    1.9482 H   0  0  0  0  0  0  0  0  0  0  0  0
   -1.9469    1.3562    1.1419 H   0  0  0  0  0  0  0  0  0  0  0  0
   -3.5584    2.2605   -0.5642 H   0  0  0  0  0  0  0  0  0  0  0  0
   -3.7598    2.8178    1.0776 H   0  0  0  0  0  0  0  0  0  0  0  0
   -5.8986    2.3872   -0.0178 H   0  0  0  0  0  0  0  0  0  0  0  0
   -5.6990    1.4533    1.4514 H   0  0  0  0  0  0  0  0  0  0  0  0
   -6.7664    0.2354   -0.4435 H   0  0  0  0  0  0  0  0  0  0  0  0
   -5.2899    0.3420   -1.3874 H   0  0  0  0  0  0  0  0  0  0  0  0
   -5.3042   -0.8751    1.4267 H   0  0  0  0  0  0  0  0  0  0  0  0
   -5.8696   -1.8035    0.0573 H   0  0  0  0  0  0  0  0  0  0  0  0
   -3.5253   -2.2293    0.6936 H   0  0  0  0  0  0  0  0  0  0  0  0
   -3.7947   -1.8917   -0.9927 H   0  0  0  0  0  0  0  0  0  0  0  0
    3.3920   -2.2190   -0.6076 H   0  0  0  0  0  0  0  0  0  0  0  0
    5.8297   -2.3085   -0.4565 H   0  0  0  0  0  0  0  0  0  0  0  0
  1  2  1  0
  2  3  1  0
  3  4  2  0
  4  5  1  0
  5  6  2  0
  6  7  1  0
  7  8  2  0
  7  9  1  0
  9 10  1  0
 10 11  1  0
 11 12  2  0
 11 13  1  0
 13 14  1  0
 14 15  1  0
 15 16  1  0
 16 17  1  0
 17 18  1  0
 18 19  1  0
 19 20  1  0
 14 21  1  0
 21 22  2  0
  6 23  1  0
 23 24  2  0
 24  3  1  0
 21 10  1  0
 20 14  1  0
  1 25  1  0
  1 26  1  0
  1 27  1  0
  4 28  1  0
  5 29  1  0
  9 30  1  0
  9 31  1  0
 13 32  1  0
 15 33  1  0
 15 34  1  0
 16 35  1  0
 16 36  1  0
 17 37  1  0
 17 38  1  0
 18 39  1  0
 18 40  1  0
 19 41  1  0
 19 42  1  0
 20 43  1  0
 20 44  1  0
 23 45  1  0
 24 46  1  0
M  END
$$$$
