
     RDKit          3D

 53 56  0  0  0  0  0  0  0  0999 V2000
    7.3298    0.2712    1.2662 C   0  0  0  0  0  0  0  0  0  0  0  0
    6.9554    1.2683    0.3240 O   0  0  0  0  0  0  0  0  0  0  0  0
    5.7589    1.0925   -0.3160 C   0  0  0  0  0  0  0  0  0  0  0  0
    5.3982    2.1308   -1.1787 C   0  0  0  0  0  0  0  0  0  0  0  0
    4.1972    2.0839   -1.8917 C   0  0  0  0  0  0  0  0  0  0  0  0
    3.3395    0.9855   -1.7581 C   0  0  0  0  0  0  0  0  0  0  0  0
    2.0227    0.9419   -2.4877 C   0  0  0  0  0  0  0  0  0  0  0  0
    0.9632    1.4908   -1.6658 N   0  0  0  0  0  0  0  0  0  0  0  0
    0.1966    0.6720   -0.8434 C   0  0  0  0  0  0  0  0  0  0  0  0
    0.2783   -0.5549   -0.9145 O   0  0  0  0  0  0  0  0  0  0  0  0
   -0.7986    1.4043    0.0599 C   0  0  0  0  0  0  0  0  0  0  0  0
   -0.1004    2.4243    0.8616 C   0  0  0  0  0  0  0  0  0  0  0  0
    0.4586    3.2843    1.4080 N   0  0  0  0  0  0  0  0  0  0  0  0
   -1.6019    0.4473    0.9145 C   0  0  0  0  0  0  0  0  0  0  0  0
   -1.1720    0.2031    2.1860 N   0  0  0  0  0  0  0  0  0  0  0  0
   -1.8889   -0.6625    2.9214 C   0  0  0  0  0  0  0  0  0  0  0  0
   -1.4936   -0.9509    4.2223 C   0  0  0  0  0  0  0  0  0  0  0  0
   -2.2128   -1.8430    5.0186 C   0  0  0  0  0  0  0  0  0  0  0  0
   -3.3474   -2.4566    4.5042 C   0  0  0  0  0  0  0  0  0  0  0  0
   -3.7510   -2.1723    3.1978 C   0  0  0  0  0  0  0  0  0  0  0  0
   -3.0417   -1.2854    2.3960 C   0  0  0  0  0  0  0  0  0  0  0  0
   -3.4638   -1.0397    1.1408 N   0  0  0  0  0  0  0  0  0  0  0  0
   -2.7448   -0.1765    0.3878 C   0  0  0  0  0  0  0  0  0  0  0  0
   -3.1292    0.0641   -0.9489 N   0  0  0  0  0  0  0  0  0  0  0  0
   -4.5838    0.2795   -1.1003 C   0  0  0  0  0  0  0  0  0  0  0  0
   -4.9449   -0.4421   -2.3921 C   0  0  0  0  0  0  0  0  0  0  0  0
   -4.0549   -1.6660   -2.3240 C   0  0  0  0  0  0  0  0  0  0  0  0
   -2.7447   -1.0923   -1.7953 C   0  0  0  0  0  0  0  0  0  0  0  0
    3.7041   -0.0530   -0.8900 C   0  0  0  0  0  0  0  0  0  0  0  0
    4.9066   -0.0020   -0.1760 C   0  0  0  0  0  0  0  0  0  0  0  0
    6.5922    0.1903    2.0721 H   0  0  0  0  0  0  0  0  0  0  0  0
    8.2805    0.5759    1.7150 H   0  0  0  0  0  0  0  0  0  0  0  0
    7.4876   -0.6948    0.7747 H   0  0  0  0  0  0  0  0  0  0  0  0
    6.0577    2.9879   -1.2894 H   0  0  0  0  0  0  0  0  0  0  0  0
    3.9395    2.9133   -2.5455 H   0  0  0  0  0  0  0  0  0  0  0  0
    2.0745    1.5485   -3.3986 H   0  0  0  0  0  0  0  0  0  0  0  0
    1.7856   -0.0823   -2.7947 H   0  0  0  0  0  0  0  0  0  0  0  0
    1.0660    2.4687   -1.4232 H   0  0  0  0  0  0  0  0  0  0  0  0
   -1.4851    1.9489   -0.6032 H   0  0  0  0  0  0  0  0  0  0  0  0
   -0.6046   -0.4682    4.6213 H   0  0  0  0  0  0  0  0  0  0  0  0
   -1.8843   -2.0543    6.0335 H   0  0  0  0  0  0  0  0  0  0  0  0
   -3.9176   -3.1554    5.1116 H   0  0  0  0  0  0  0  0  0  0  0  0
   -4.6381   -2.6534    2.7928 H   0  0  0  0  0  0  0  0  0  0  0  0
   -5.1817   -0.1323   -0.2784 H   0  0  0  0  0  0  0  0  0  0  0  0
   -4.8006    1.3506   -1.1727 H   0  0  0  0  0  0  0  0  0  0  0  0
   -6.0063   -0.6929   -2.4512 H   0  0  0  0  0  0  0  0  0  0  0  0
   -4.6805    0.1737   -3.2610 H   0  0  0  0  0  0  0  0  0  0  0  0
   -3.9352   -2.1656   -3.2893 H   0  0  0  0  0  0  0  0  0  0  0  0
   -4.4689   -2.3904   -1.6104 H   0  0  0  0  0  0  0  0  0  0  0  0
   -2.1565   -1.8623   -1.2811 H   0  0  0  0  0  0  0  0  0  0  0  0
   -2.1441   -0.7112   -2.6291 H   0  0  0  0  0  0  0  0  0  0  0  0
    3.0440   -0.9103   -0.7567 H   0  0  0  0  0  0  0  0  0  0  0  0
    5.1414   -0.8312    0.4833 H   0  0  0  0  0  0  0  0  0  0  0  0
  1  2  1  0
  2  3  1  0
  3  4  2  0
  4  5  1  0
  5  6  2  0
  6  7  1  0
  7  8  1  0
  8  9  1  0
  9 10  2  0
  9 11  1  0
 11 12  1  0
 12 13  3  0
 11 14  1  0
 14 15  2  0
 15 16  1  0
 16 17  2  0
 17 18  1  0
 18 19  2  0
 19 20  1  0
 20 21  2  0
 21 22  1  0
 22 23  2  0
 23 24  1  0
 24 25  1  0
 25 26  1  0
 26 27  1  0
 27 28  1  0
  6 29  1  0
 29 30  2  0
 30  3  1  0
 23 14  1  0
 28 24  1  0
 21 16  1  0
  1 31  1  0
  1 32  1  0
  1 33  1  0
  4 34  1  0
  5 35  1  0
  7 36  1  0
  7 37  1  0
  8 38  1  0
 11 39  1  0
 17 40  1  0
 18 41  1  0
 19 42  1  0
 20 43  1  0
 25 44  1  0
 25 45  1  0
 26 46  1  0
 26 47  1  0
 27 48  1  0
 27 49  1  0
 28 50  1  0
 28 51  1  0
 29 52  1  0
 30 53  1  0
M  END
$$$$
