
     RDKit          3D

 56 59  0  0  0  0  0  0  0  0999 V2000
    7.6410   -1.8298    0.5487 C   0  0  0  0  0  0  0  0  0  0  0  0
    7.3958   -0.8630   -0.4677 O   0  0  0  0  0  0  0  0  0  0  0  0
    6.1873   -0.2155   -0.3249 C   0  0  0  0  0  0  0  0  0  0  0  0
    5.8833    0.7316   -1.2865 C   0  0  0  0  0  0  0  0  0  0  0  0
    4.6734    1.4099   -1.1813 C   0  0  0  0  0  0  0  0  0  0  0  0
    3.7976    1.1250   -0.1242 C   0  0  0  0  0  0  0  0  0  0  0  0
    2.5169    1.8863   -0.0690 C   0  0  0  0  0  0  0  0  0  0  0  0
    2.3274    2.8108   -0.8555 O   0  0  0  0  0  0  0  0  0  0  0  0
    1.5746    1.5006    0.8538 N   0  0  0  0  0  0  0  0  0  0  0  0
    0.2387    2.0615    0.8868 C   0  0  0  0  0  0  0  0  0  0  0  0
   -0.2854    2.0912    2.3425 C   0  0  0  0  0  0  0  0  0  0  0  0
   -1.8187    2.2023    2.4100 C   0  0  0  0  0  0  0  0  0  0  0  0
   -2.5057    0.9931    1.7429 C   0  0  0  0  0  0  0  0  0  0  0  0
   -1.8818    0.7357    0.4139 C   0  0  0  0  0  0  0  0  0  0  0  0
   -0.6541    1.2344    0.0214 C   0  0  0  0  0  0  0  0  0  0  0  0
   -0.5569    0.8926   -1.3333 C   0  0  0  0  0  0  0  0  0  0  0  0
   -1.6129    0.2036   -1.7609 N   0  0  0  0  0  0  0  0  0  0  0  0
   -2.4274    0.0756   -0.6797 N   0  0  0  0  0  0  0  0  0  0  0  0
   -3.6226   -0.7073   -0.7619 C   0  0  0  0  0  0  0  0  0  0  0  0
   -4.0190   -1.4403    0.3711 C   0  0  0  0  0  0  0  0  0  0  0  0
   -5.1320   -2.2756    0.3273 C   0  0  0  0  0  0  0  0  0  0  0  0
   -5.8564   -2.4051   -0.8506 C   0  0  0  0  0  0  0  0  0  0  0  0
   -5.4839   -1.6974   -2.0041 C   0  0  0  0  0  0  0  0  0  0  0  0
   -6.3014   -1.9015   -3.2532 C   0  0  0  0  0  0  0  0  0  0  0  0
   -4.3754   -0.8113   -1.9636 C   0  0  0  0  0  0  0  0  0  0  0  0
   -4.0325   -0.0004   -3.1916 C   0  0  0  0  0  0  0  0  0  0  0  0
    4.2005    0.1522    0.7937 C   0  0  0  0  0  0  0  0  0  0  0  0
    3.3558   -0.1679    1.8410 O   0  0  0  0  0  0  0  0  0  0  0  0
    3.9074   -1.1111    2.7565 C   0  0  0  0  0  0  0  0  0  0  0  0
    5.3764   -0.5197    0.7095 N   0  0  0  0  0  0  0  0  0  0  0  0
    8.6074   -2.2966    0.3413 H   0  0  0  0  0  0  0  0  0  0  0  0
    6.8827   -2.6184    0.5377 H   0  0  0  0  0  0  0  0  0  0  0  0
    7.7033   -1.3587    1.5364 H   0  0  0  0  0  0  0  0  0  0  0  0
    6.5706    0.9372   -2.0986 H   0  0  0  0  0  0  0  0  0  0  0  0
    4.4141    2.1592   -1.9291 H   0  0  0  0  0  0  0  0  0  0  0  0
    1.7368    0.6428    1.3694 H   0  0  0  0  0  0  0  0  0  0  0  0
    0.2580    3.0848    0.4916 H   0  0  0  0  0  0  0  0  0  0  0  0
    0.0161    1.1780    2.8749 H   0  0  0  0  0  0  0  0  0  0  0  0
    0.1773    2.9263    2.8805 H   0  0  0  0  0  0  0  0  0  0  0  0
   -2.1343    3.1283    1.9141 H   0  0  0  0  0  0  0  0  0  0  0  0
   -2.1404    2.2719    3.4545 H   0  0  0  0  0  0  0  0  0  0  0  0
   -2.3722    0.1193    2.3902 H   0  0  0  0  0  0  0  0  0  0  0  0
   -3.5773    1.1957    1.6478 H   0  0  0  0  0  0  0  0  0  0  0  0
    0.2323    1.1349   -2.0346 H   0  0  0  0  0  0  0  0  0  0  0  0
   -3.4359   -1.4365    1.2850 H   0  0  0  0  0  0  0  0  0  0  0  0
   -5.4148   -2.8532    1.2043 H   0  0  0  0  0  0  0  0  0  0  0  0
   -6.7119   -3.0778   -0.8703 H   0  0  0  0  0  0  0  0  0  0  0  0
   -6.8898   -1.0068   -3.4716 H   0  0  0  0  0  0  0  0  0  0  0  0
   -6.9956   -2.7397   -3.1470 H   0  0  0  0  0  0  0  0  0  0  0  0
   -5.6550   -2.1323   -4.1030 H   0  0  0  0  0  0  0  0  0  0  0  0
   -4.8904    0.1276   -3.8544 H   0  0  0  0  0  0  0  0  0  0  0  0
   -3.2383   -0.4923   -3.7609 H   0  0  0  0  0  0  0  0  0  0  0  0
   -3.7337    1.0185   -2.9220 H   0  0  0  0  0  0  0  0  0  0  0  0
    3.1814   -1.2542    3.5623 H   0  0  0  0  0  0  0  0  0  0  0  0
    4.8325   -0.7358    3.2076 H   0  0  0  0  0  0  0  0  0  0  0  0
    4.0669   -2.0825    2.2759 H   0  0  0  0  0  0  0  0  0  0  0  0
  1  2  1  0
  2  3  1  0
  3  4  2  0
  4  5  1  0
  5  6  2  0
  6  7  1  0
  7  8  2  0
  7  9  1  0
  9 10  1  0
 10 11  1  0
 11 12  1  0
 12 13  1  0
 13 14  1  0
 14 15  2  0
 15 16  1  0
 16 17  2  0
 17 18  1  0
 18 19  1  0
 19 20  2  0
 20 21  1  0
 21 22  2  0
 22 23  1  0
 23 24  1  0
 23 25  2  0
 25 26  1  0
  6 27  1  0
 27 28  1  0
 28 29  1  0
 27 30  2  0
 30  3  1  0
 15 10  1  0
 25 19  1  0
 18 14  1  0
  1 31  1  0
  1 32  1  0
  1 33  1  0
  4 34  1  0
  5 35  1  0
  9 36  1  0
 10 37  1  0
 11 38  1  0
 11 39  1  0
 12 40  1  0
 12 41  1  0
 13 42  1  0
 13 43  1  0
 16 44  1  0
 20 45  1  0
 21 46  1  0
 22 47  1  0
 24 48  1  0
 24 49  1  0
 24 50  1  0
 26 51  1  0
 26 52  1  0
 26 53  1  0
 29 54  1  0
 29 55  1  0
 29 56  1  0
M  END
$$$$
