
     RDKit          3D

 36 37  0  0  0  0  0  0  0  0999 V2000
    4.7258   -2.6831    1.2939 C   0  0  0  0  0  0  0  0  0  0  0  0
    3.4748   -2.7673    0.6231 O   0  0  0  0  0  0  0  0  0  0  0  0
    2.9663   -1.6055    0.1111 C   0  0  0  0  0  0  0  0  0  0  0  0
    1.7464   -1.7502   -0.5586 C   0  0  0  0  0  0  0  0  0  0  0  0
    1.1121   -0.6467   -1.1319 C   0  0  0  0  0  0  0  0  0  0  0  0
    1.6991    0.6150   -1.0191 C   0  0  0  0  0  0  0  0  0  0  0  0
    0.9143    2.0217   -1.7713 S   0  0  0  0  0  6  0  0  0  0  0  0
    1.9300    3.0307   -1.9930 O   0  0  0  0  0  0  0  0  0  0  0  0
    0.0729    1.5455   -2.8496 O   0  0  0  0  0  0  0  0  0  0  0  0
   -0.0898    2.6140   -0.5137 N   0  0  0  0  0  0  0  0  0  0  0  0
   -0.8424    1.6388    0.3146 N   0  0  0  0  0  0  0  0  0  0  0  0
   -2.0751    1.4134   -0.0426 C   0  0  0  0  0  0  0  0  0  0  0  0
   -2.7632    2.1376   -1.1825 C   0  0  0  0  0  0  0  0  0  0  0  0
   -2.8495    0.3733    0.7024 C   0  0  0  0  0  0  0  0  0  0  0  0
   -3.9574   -0.2568    0.1361 C   0  0  0  0  0  0  0  0  0  0  0  0
   -4.6124   -1.2193    0.8855 C   0  0  0  0  0  0  0  0  0  0  0  0
   -4.2385   -1.5857    2.1290 N   0  0  0  0  0  0  0  0  0  0  0  0
   -3.1547   -0.9719    2.6483 C   0  0  0  0  0  0  0  0  0  0  0  0
   -2.4325    0.0013    1.9821 C   0  0  0  0  0  0  0  0  0  0  0  0
    2.9249    0.7710   -0.3664 C   0  0  0  0  0  0  0  0  0  0  0  0
    3.5545   -0.3415    0.2025 C   0  0  0  0  0  0  0  0  0  0  0  0
    4.6565   -2.0417    2.1787 H   0  0  0  0  0  0  0  0  0  0  0  0
    4.9920   -3.6891    1.6323 H   0  0  0  0  0  0  0  0  0  0  0  0
    5.5148   -2.3399    0.6167 H   0  0  0  0  0  0  0  0  0  0  0  0
    1.2892   -2.7341   -0.6361 H   0  0  0  0  0  0  0  0  0  0  0  0
    0.1670   -0.7772   -1.6531 H   0  0  0  0  0  0  0  0  0  0  0  0
    0.4190    3.3350    0.0058 H   0  0  0  0  0  0  0  0  0  0  0  0
   -2.3873    3.1590   -1.2845 H   0  0  0  0  0  0  0  0  0  0  0  0
   -2.5912    1.5939   -2.1150 H   0  0  0  0  0  0  0  0  0  0  0  0
   -3.8392    2.2180   -1.0049 H   0  0  0  0  0  0  0  0  0  0  0  0
   -4.3081   -0.0352   -0.8647 H   0  0  0  0  0  0  0  0  0  0  0  0
   -5.4799   -1.7420    0.4916 H   0  0  0  0  0  0  0  0  0  0  0  0
   -2.8723   -1.2946    3.6465 H   0  0  0  0  0  0  0  0  0  0  0  0
   -1.5683    0.4540    2.4562 H   0  0  0  0  0  0  0  0  0  0  0  0
    3.3985    1.7478   -0.2977 H   0  0  0  0  0  0  0  0  0  0  0  0
    4.5037   -0.1882    0.7057 H   0  0  0  0  0  0  0  0  0  0  0  0
  1  2  1  0
  2  3  1  0
  3  4  2  0
  4  5  1  0
  5  6  2  0
  6  7  1  0
  7  8  2  0
  7  9  2  0
  7 10  1  0
 10 11  1  0
 11 12  2  3
 12 13  1  0
 12 14  1  0
 14 15  2  0
 15 16  1  0
 16 17  2  0
 17 18  1  0
 18 19  2  0
  6 20  1  0
 20 21  2  0
 21  3  1  0
 19 14  1  0
  1 22  1  0
  1 23  1  0
  1 24  1  0
  4 25  1  0
  5 26  1  0
 10 27  1  0
 13 28  1  0
 13 29  1  0
 13 30  1  0
 15 31  1  0
 16 32  1  0
 18 33  1  0
 19 34  1  0
 20 35  1  0
 21 36  1  0
M  END
$$$$
