
     RDKit          3D

 61 65  0  0  0  0  0  0  0  0999 V2000
   -2.0369   -3.2677   -2.2399 C   0  0  0  0  0  0  0  0  0  0  0  0
   -2.2945   -2.3163   -1.1577 N   0  0  0  0  0  0  0  0  0  0  0  0
   -2.8376   -3.0395    0.0000 C   0  0  0  0  0  0  0  0  0  0  0  0
   -3.2101   -1.2435   -1.5954 C   0  0  0  0  0  0  0  0  0  0  0  0
   -2.7769    0.1572   -1.1003 C   0  0  0  0  0  0  0  0  0  0  0  0
   -2.7993    0.3192    0.3682 N   0  0  0  0  0  0  0  0  0  0  0  0
   -1.6574    0.0714    1.1435 C   0  0  0  0  0  0  0  0  0  0  0  0
   -1.6132   -0.2284    2.3362 O   0  0  0  0  0  0  0  0  0  0  0  0
   -0.3342    0.1970    0.4912 C   0  0  0  0  0  0  0  0  0  0  0  0
    0.1056    1.4529    0.0534 C   0  0  0  0  0  0  0  0  0  0  0  0
    1.3591    1.5723   -0.5463 C   0  0  0  0  0  0  0  0  0  0  0  0
    2.1681    0.4404   -0.6779 C   0  0  0  0  0  0  0  0  0  0  0  0
    3.7610    0.5549   -1.4724 S   0  0  0  0  0  6  0  0  0  0  0  0
    3.8985    1.9019   -1.9801 O   0  0  0  0  0  0  0  0  0  0  0  0
    3.8605   -0.5938   -2.3467 O   0  0  0  0  0  0  0  0  0  0  0  0
    4.8241    0.3671   -0.1488 N   0  0  0  0  0  0  0  0  0  0  0  0
    4.8149    1.4890    0.8581 C   0  0  0  0  0  0  0  0  0  0  0  0
    6.1663    2.2123    0.7319 C   0  0  0  0  0  0  0  0  0  0  0  0
    7.0006    1.1952    0.0264 C   0  0  0  0  0  0  0  0  0  0  0  0
    8.3689    1.2084   -0.1880 C   0  0  0  0  0  0  0  0  0  0  0  0
    8.9314    0.1612   -0.9214 C   0  0  0  0  0  0  0  0  0  0  0  0
    8.1252   -0.8640   -1.4429 C   0  0  0  0  0  0  0  0  0  0  0  0
    6.7465   -0.8610   -1.2321 C   0  0  0  0  0  0  0  0  0  0  0  0
    6.2027    0.1823   -0.5038 C   0  0  0  0  0  0  0  0  0  0  0  0
    1.7382   -0.8109   -0.2225 C   0  0  0  0  0  0  0  0  0  0  0  0
    0.4840   -0.9287    0.3744 C   0  0  0  0  0  0  0  0  0  0  0  0
   -4.0495    0.5182    0.9680 C   0  0  0  0  0  0  0  0  0  0  0  0
   -5.1687    0.5404    0.2781 N   0  0  0  0  0  0  0  0  0  0  0  0
   -6.2456    0.7976    1.1039 C   0  0  0  0  0  0  0  0  0  0  0  0
   -7.5992    0.8709    0.7059 C   0  0  0  0  0  0  0  0  0  0  0  0
   -8.5839    1.1433    1.6570 C   0  0  0  0  0  0  0  0  0  0  0  0
   -8.2305    1.3465    2.9839 C   0  0  0  0  0  0  0  0  0  0  0  0
   -9.1940    1.6079    3.8817 F   0  0  0  0  0  0  0  0  0  0  0  0
   -6.9035    1.2820    3.4116 C   0  0  0  0  0  0  0  0  0  0  0  0
   -5.9258    1.0075    2.4457 C   0  0  0  0  0  0  0  0  0  0  0  0
   -4.2244    0.8825    2.6295 S   0  0  0  0  0  0  0  0  0  0  0  0
   -1.5519   -2.7604   -3.0804 H   0  0  0  0  0  0  0  0  0  0  0  0
   -1.3473   -4.0546   -1.9132 H   0  0  0  0  0  0  0  0  0  0  0  0
   -2.9562   -3.7440   -2.5985 H   0  0  0  0  0  0  0  0  0  0  0  0
   -3.7695   -3.5648   -0.2449 H   0  0  0  0  0  0  0  0  0  0  0  0
   -2.1083   -3.7793    0.3542 H   0  0  0  0  0  0  0  0  0  0  0  0
   -3.0348   -2.3667    0.8404 H   0  0  0  0  0  0  0  0  0  0  0  0
   -3.2128   -1.1842   -2.6914 H   0  0  0  0  0  0  0  0  0  0  0  0
   -4.2480   -1.4604   -1.3137 H   0  0  0  0  0  0  0  0  0  0  0  0
   -1.7846    0.3747   -1.5036 H   0  0  0  0  0  0  0  0  0  0  0  0
   -3.4377    0.9152   -1.5370 H   0  0  0  0  0  0  0  0  0  0  0  0
   -0.5252    2.3283    0.1746 H   0  0  0  0  0  0  0  0  0  0  0  0
    1.6939    2.5430   -0.9046 H   0  0  0  0  0  0  0  0  0  0  0  0
    3.9830    2.1876    0.7447 H   0  0  0  0  0  0  0  0  0  0  0  0
    4.7166    1.0356    1.8561 H   0  0  0  0  0  0  0  0  0  0  0  0
    6.0708    3.1102    0.1117 H   0  0  0  0  0  0  0  0  0  0  0  0
    6.5670    2.4817    1.7120 H   0  0  0  0  0  0  0  0  0  0  0  0
    8.9949    2.0042    0.2021 H   0  0  0  0  0  0  0  0  0  0  0  0
   10.0026    0.1428   -1.1021 H   0  0  0  0  0  0  0  0  0  0  0  0
    8.5833   -1.6678   -2.0120 H   0  0  0  0  0  0  0  0  0  0  0  0
    6.1279   -1.6608   -1.6317 H   0  0  0  0  0  0  0  0  0  0  0  0
    2.3714   -1.6862   -0.3400 H   0  0  0  0  0  0  0  0  0  0  0  0
    0.1334   -1.8955    0.7248 H   0  0  0  0  0  0  0  0  0  0  0  0
   -7.8656    0.7173   -0.3351 H   0  0  0  0  0  0  0  0  0  0  0  0
   -9.6284    1.1967    1.3660 H   0  0  0  0  0  0  0  0  0  0  0  0
   -6.6450    1.4615    4.4494 H   0  0  0  0  0  0  0  0  0  0  0  0
  1  2  1  0
  2  3  1  0
  2  4  1  0
  4  5  1  0
  5  6  1  0
  6  7  1  0
  7  8  2  0
  7  9  1  0
  9 10  2  0
 10 11  1  0
 11 12  2  0
 12 13  1  0
 13 14  2  0
 13 15  2  0
 13 16  1  0
 16 17  1  0
 17 18  1  0
 18 19  1  0
 19 20  2  0
 20 21  1  0
 21 22  2  0
 22 23  1  0
 23 24  2  0
 12 25  1  0
 25 26  2  0
  6 27  1  0
 27 28  2  0
 28 29  1  0
 29 30  2  0
 30 31  1  0
 31 32  2  0
 32 33  1  0
 32 34  1  0
 34 35  2  0
 35 36  1  0
 26  9  1  0
 36 27  1  0
 24 16  1  0
 35 29  1  0
 24 19  1  0
  1 37  1  0
  1 38  1  0
  1 39  1  0
  3 40  1  0
  3 41  1  0
  3 42  1  0
  4 43  1  0
  4 44  1  0
  5 45  1  0
  5 46  1  0
 10 47  1  0
 11 48  1  0
 17 49  1  0
 17 50  1  0
 18 51  1  0
 18 52  1  0
 20 53  1  0
 21 54  1  0
 22 55  1  0
 23 56  1  0
 25 57  1  0
 26 58  1  0
 30 59  1  0
 31 60  1  0
 34 61  1  0
M  END
$$$$
