
     RDKit          3D

 29 31  0  0  0  0  0  0  0  0999 V2000
    5.8681   -1.4272    0.3434 C   0  0  0  0  0  0  0  0  0  0  0  0
    5.4509   -0.2153   -0.2726 O   0  0  0  0  0  0  0  0  0  0  0  0
    4.1062    0.0435   -0.2928 C   0  0  0  0  0  0  0  0  0  0  0  0
    3.7629    1.2481   -0.9065 C   0  0  0  0  0  0  0  0  0  0  0  0
    2.4277    1.6551   -1.0068 C   0  0  0  0  0  0  0  0  0  0  0  0
    1.4118    0.8368   -0.4802 C   0  0  0  0  0  0  0  0  0  0  0  0
    0.0554    1.1062   -0.5059 N   0  0  0  0  0  0  0  0  0  0  0  0
   -0.5951    0.1362    0.0743 C   0  0  0  0  0  0  0  0  0  0  0  0
   -1.9383   -0.0195    0.2731 N   0  0  0  0  0  0  0  0  0  0  0  0
   -2.8650    0.9352   -0.0964 C   0  0  0  0  0  0  0  0  0  0  0  0
   -2.5820    2.0191   -0.5967 O   0  0  0  0  0  0  0  0  0  0  0  0
   -4.2480    0.5371    0.1862 C   0  0  0  0  0  0  0  0  0  0  0  0
   -4.7942   -0.7134    0.4309 C   0  0  0  0  0  0  0  0  0  0  0  0
   -6.2007   -0.6642    0.6682 C   0  0  0  0  0  0  0  0  0  0  0  0
   -6.6912    0.6181    0.5910 C   0  0  0  0  0  0  0  0  0  0  0  0
   -5.4666    1.7508    0.2277 S   0  0  0  0  0  0  0  0  0  0  0  0
    0.3383   -1.1571    0.6788 S   0  0  0  0  0  0  0  0  0  0  0  0
    1.7708   -0.3664    0.1312 C   0  0  0  0  0  0  0  0  0  0  0  0
    3.1113   -0.7850    0.2371 C   0  0  0  0  0  0  0  0  0  0  0  0
    6.9591   -1.4781    0.2763 H   0  0  0  0  0  0  0  0  0  0  0  0
    5.4611   -2.2973   -0.1823 H   0  0  0  0  0  0  0  0  0  0  0  0
    5.5984   -1.4437    1.4045 H   0  0  0  0  0  0  0  0  0  0  0  0
    4.5440    1.8857   -1.3156 H   0  0  0  0  0  0  0  0  0  0  0  0
    2.1670    2.5941   -1.4853 H   0  0  0  0  0  0  0  0  0  0  0  0
   -2.2208   -0.8532    0.7588 H   0  0  0  0  0  0  0  0  0  0  0  0
   -4.2324   -1.6387    0.4265 H   0  0  0  0  0  0  0  0  0  0  0  0
   -6.8222   -1.5269    0.8767 H   0  0  0  0  0  0  0  0  0  0  0  0
   -7.7131    0.9476    0.7222 H   0  0  0  0  0  0  0  0  0  0  0  0
    3.3366   -1.7274    0.7208 H   0  0  0  0  0  0  0  0  0  0  0  0
  1  2  1  0
  2  3  1  0
  3  4  2  0
  4  5  1  0
  5  6  2  0
  6  7  1  0
  7  8  2  0
  8  9  1  0
  9 10  1  0
 10 11  2  0
 10 12  1  0
 12 13  2  0
 13 14  1  0
 14 15  2  0
 15 16  1  0
  8 17  1  0
 17 18  1  0
 18 19  2  0
 19  3  1  0
 18  6  1  0
 16 12  1  0
  1 20  1  0
  1 21  1  0
  1 22  1  0
  4 23  1  0
  5 24  1  0
  9 25  1  0
 13 26  1  0
 14 27  1  0
 15 28  1  0
 19 29  1  0
M  END
$$$$
