
     RDKit          3D

 48 48  0  0  0  0  0  0  0  0999 V2000
    3.0924   -1.2778   -1.1547 C   0  0  0  0  0  0  0  0  0  0  0  0
    3.2449   -0.7294    0.2660 C   0  0  0  0  0  0  0  0  0  0  0  0
    2.6324    0.6768    0.3908 C   0  0  0  0  0  0  0  0  0  0  0  0
    1.1945    0.6853    0.1856 N   0  0  0  0  0  0  0  0  0  0  0  0
    0.3219    0.2774    1.1733 C   0  0  0  0  0  0  0  0  0  0  0  0
    0.6810   -0.0887    2.2868 O   0  0  0  0  0  0  0  0  0  0  0  0
   -1.1209    0.2585    0.8081 C   0  0  0  0  0  0  0  0  0  0  0  0
   -1.9593   -0.6577    1.4455 C   0  0  0  0  0  0  0  0  0  0  0  0
   -3.3233   -0.7090    1.1335 C   0  0  0  0  0  0  0  0  0  0  0  0
   -3.8875    0.1594    0.1846 C   0  0  0  0  0  0  0  0  0  0  0  0
   -5.3846    0.1366   -0.1743 C   0  0  0  0  0  0  0  0  0  0  0  0
   -6.0263    1.4858    0.2175 C   0  0  0  0  0  0  0  0  0  0  0  0
   -6.1818   -0.9775    0.5419 C   0  0  0  0  0  0  0  0  0  0  0  0
   -5.5579   -0.0869   -1.6932 C   0  0  0  0  0  0  0  0  0  0  0  0
   -3.0267    1.0900   -0.4317 C   0  0  0  0  0  0  0  0  0  0  0  0
   -1.6618    1.1435   -0.1259 C   0  0  0  0  0  0  0  0  0  0  0  0
    4.7104   -0.7318    0.7560 C   0  0  0  0  0  0  0  0  0  0  0  0
    5.5862    0.1693   -0.0163 N   0  0  0  0  0  0  0  0  0  0  0  0
    6.4338    0.9628    0.8781 C   0  0  0  0  0  0  0  0  0  0  0  0
    6.4350   -0.5795   -0.9478 C   0  0  0  0  0  0  0  0  0  0  0  0
    2.0366   -1.4269   -1.4033 H   0  0  0  0  0  0  0  0  0  0  0  0
    3.5904   -2.2482   -1.2521 H   0  0  0  0  0  0  0  0  0  0  0  0
    3.5134   -0.5962   -1.9002 H   0  0  0  0  0  0  0  0  0  0  0  0
    2.6943   -1.4097    0.9294 H   0  0  0  0  0  0  0  0  0  0  0  0
    2.8296    1.0873    1.3882 H   0  0  0  0  0  0  0  0  0  0  0  0
    3.0609    1.3642   -0.3465 H   0  0  0  0  0  0  0  0  0  0  0  0
    0.8595    0.7779   -0.7633 H   0  0  0  0  0  0  0  0  0  0  0  0
   -1.5535   -1.3397    2.1904 H   0  0  0  0  0  0  0  0  0  0  0  0
   -3.9254   -1.4441    1.6607 H   0  0  0  0  0  0  0  0  0  0  0  0
   -5.5885    2.3264   -0.3319 H   0  0  0  0  0  0  0  0  0  0  0  0
   -5.8962    1.6885    1.2876 H   0  0  0  0  0  0  0  0  0  0  0  0
   -7.1022    1.4892    0.0059 H   0  0  0  0  0  0  0  0  0  0  0  0
   -7.2371   -0.9627    0.2439 H   0  0  0  0  0  0  0  0  0  0  0  0
   -6.1558   -0.8573    1.6311 H   0  0  0  0  0  0  0  0  0  0  0  0
   -5.7913   -1.9724    0.2982 H   0  0  0  0  0  0  0  0  0  0  0  0
   -6.6182   -0.1470   -1.9656 H   0  0  0  0  0  0  0  0  0  0  0  0
   -5.1231    0.7255   -2.2858 H   0  0  0  0  0  0  0  0  0  0  0  0
   -5.0781   -1.0205   -2.0116 H   0  0  0  0  0  0  0  0  0  0  0  0
   -3.4146    1.8022   -1.1573 H   0  0  0  0  0  0  0  0  0  0  0  0
   -1.0473    1.9011   -0.6031 H   0  0  0  0  0  0  0  0  0  0  0  0
    5.0986   -1.7587    0.7590 H   0  0  0  0  0  0  0  0  0  0  0  0
    4.6910   -0.4332    1.8132 H   0  0  0  0  0  0  0  0  0  0  0  0
    7.0868    0.3337    1.4945 H   0  0  0  0  0  0  0  0  0  0  0  0
    7.0602    1.6539    0.3029 H   0  0  0  0  0  0  0  0  0  0  0  0
    5.8192    1.5804    1.5425 H   0  0  0  0  0  0  0  0  0  0  0  0
    7.1197   -1.2597   -0.4275 H   0  0  0  0  0  0  0  0  0  0  0  0
    5.8367   -1.1702   -1.6475 H   0  0  0  0  0  0  0  0  0  0  0  0
    7.0321    0.1094   -1.5559 H   0  0  0  0  0  0  0  0  0  0  0  0
  1  2  1  0
  2  3  1  0
  3  4  1  0
  4  5  1  0
  5  6  2  0
  5  7  1  0
  7  8  2  0
  8  9  1  0
  9 10  2  0
 10 11  1  0
 11 12  1  0
 11 13  1  0
 11 14  1  0
 10 15  1  0
 15 16  2  0
  2 17  1  0
 17 18  1  0
 18 19  1  0
 18 20  1  0
 16  7  1  0
  1 21  1  0
  1 22  1  0
  1 23  1  0
  2 24  1  0
  3 25  1  0
  3 26  1  0
  4 27  1  0
  8 28  1  0
  9 29  1  0
 12 30  1  0
 12 31  1  0
 12 32  1  0
 13 33  1  0
 13 34  1  0
 13 35  1  0
 14 36  1  0
 14 37  1  0
 14 38  1  0
 15 39  1  0
 16 40  1  0
 17 41  1  0
 17 42  1  0
 19 43  1  0
 19 44  1  0
 19 45  1  0
 20 46  1  0
 20 47  1  0
 20 48  1  0
M  END
$$$$
