
     RDKit          3D

 53 56  0  0  0  0  0  0  0  0999 V2000
   -3.1325   -3.5781   -0.3852 C   0  0  0  0  0  0  0  0  0  0  0  0
   -3.9812   -2.3670   -0.0159 C   0  0  0  0  0  0  0  0  0  0  0  0
   -3.2446   -1.3899    0.9196 C   0  0  0  0  0  0  0  0  0  0  0  0
   -4.1652   -0.2367    1.3825 C   0  0  0  0  0  0  0  0  0  0  0  0
   -5.2703   -0.6707    2.3157 C   0  0  0  0  0  0  0  0  0  0  0  0
   -6.6041   -0.6926    1.8872 C   0  0  0  0  0  0  0  0  0  0  0  0
   -7.6182   -1.1016    2.7550 C   0  0  0  0  0  0  0  0  0  0  0  0
   -7.3094   -1.4890    4.0577 C   0  0  0  0  0  0  0  0  0  0  0  0
   -5.9867   -1.4660    4.4953 C   0  0  0  0  0  0  0  0  0  0  0  0
   -4.9715   -1.0577    3.6296 C   0  0  0  0  0  0  0  0  0  0  0  0
   -2.0650   -0.8395    0.2477 N   0  0  0  0  0  0  0  0  0  0  0  0
   -0.9867   -0.3599    0.9619 C   0  0  0  0  0  0  0  0  0  0  0  0
   -0.9108   -0.4061    2.1842 O   0  0  0  0  0  0  0  0  0  0  0  0
    0.1373    0.2097    0.1686 C   0  0  0  0  0  0  0  0  0  0  0  0
   -0.0728    0.8476   -1.0567 C   0  0  0  0  0  0  0  0  0  0  0  0
    1.0089    1.3735   -1.7747 C   0  0  0  0  0  0  0  0  0  0  0  0
    2.3160    1.2674   -1.2571 C   0  0  0  0  0  0  0  0  0  0  0  0
    3.4656    1.7378   -1.8606 N   0  0  0  0  0  0  0  0  0  0  0  0
    4.5322    1.4874   -1.1301 C   0  0  0  0  0  0  0  0  0  0  0  0
    5.7970    1.8723   -1.4967 N   0  0  0  0  0  0  0  0  0  0  0  0
    6.9527    1.0607   -1.0694 C   0  0  0  0  0  0  0  0  0  0  0  0
    8.2683    1.8034   -1.3513 C   0  0  0  0  0  0  0  0  0  0  0  0
    8.3750    2.1884   -2.7288 O   0  0  0  0  0  0  0  0  0  0  0  0
    7.2919    3.0653   -3.0725 C   0  0  0  0  0  0  0  0  0  0  0  0
    5.9323    2.3813   -2.8785 C   0  0  0  0  0  0  0  0  0  0  0  0
    4.1732    0.6735    0.3575 S   0  0  0  0  0  0  0  0  0  0  0  0
    2.5018    0.6448   -0.0268 C   0  0  0  0  0  0  0  0  0  0  0  0
    1.4295    0.1130    0.7085 C   0  0  0  0  0  0  0  0  0  0  0  0
   -2.8124   -4.1193    0.5109 H   0  0  0  0  0  0  0  0  0  0  0  0
   -3.7124   -4.2671   -1.0077 H   0  0  0  0  0  0  0  0  0  0  0  0
   -2.2414   -3.2880   -0.9501 H   0  0  0  0  0  0  0  0  0  0  0  0
   -4.8944   -2.7336    0.4658 H   0  0  0  0  0  0  0  0  0  0  0  0
   -4.2861   -1.8524   -0.9355 H   0  0  0  0  0  0  0  0  0  0  0  0
   -2.8908   -1.9440    1.7984 H   0  0  0  0  0  0  0  0  0  0  0  0
   -3.5772    0.5322    1.9016 H   0  0  0  0  0  0  0  0  0  0  0  0
   -4.5884    0.2719    0.5059 H   0  0  0  0  0  0  0  0  0  0  0  0
   -6.8633   -0.3928    0.8747 H   0  0  0  0  0  0  0  0  0  0  0  0
   -8.6504   -1.1164    2.4151 H   0  0  0  0  0  0  0  0  0  0  0  0
   -8.0996   -1.8057    4.7331 H   0  0  0  0  0  0  0  0  0  0  0  0
   -5.7442   -1.7633    5.5122 H   0  0  0  0  0  0  0  0  0  0  0  0
   -3.9425   -1.0385    3.9859 H   0  0  0  0  0  0  0  0  0  0  0  0
   -2.0548   -0.8210   -0.7622 H   0  0  0  0  0  0  0  0  0  0  0  0
   -1.0723    0.9761   -1.4620 H   0  0  0  0  0  0  0  0  0  0  0  0
    0.8533    1.8741   -2.7258 H   0  0  0  0  0  0  0  0  0  0  0  0
    6.9444    0.1124   -1.6214 H   0  0  0  0  0  0  0  0  0  0  0  0
    6.9239    0.8388    0.0024 H   0  0  0  0  0  0  0  0  0  0  0  0
    9.1174    1.1517   -1.1221 H   0  0  0  0  0  0  0  0  0  0  0  0
    8.3565    2.6977   -0.7225 H   0  0  0  0  0  0  0  0  0  0  0  0
    7.3643    3.9770   -2.4672 H   0  0  0  0  0  0  0  0  0  0  0  0
    7.4170    3.3518   -4.1215 H   0  0  0  0  0  0  0  0  0  0  0  0
    5.8448    1.5401   -3.5780 H   0  0  0  0  0  0  0  0  0  0  0  0
    5.1481    3.1113   -3.1124 H   0  0  0  0  0  0  0  0  0  0  0  0
    1.5976   -0.3642    1.6708 H   0  0  0  0  0  0  0  0  0  0  0  0
  1  2  1  0
  2  3  1  0
  3  4  1  0
  4  5  1  0
  5  6  2  0
  6  7  1  0
  7  8  2  0
  8  9  1  0
  9 10  2  0
  3 11  1  0
 11 12  1  0
 12 13  2  0
 12 14  1  0
 14 15  2  0
 15 16  1  0
 16 17  2  0
 17 18  1  0
 18 19  2  0
 19 20  1  0
 20 21  1  0
 21 22  1  0
 22 23  1  0
 23 24  1  0
 24 25  1  0
 19 26  1  0
 26 27  1  0
 27 28  2  0
 10  5  1  0
 28 14  1  0
 27 17  1  0
 25 20  1  0
  1 29  1  0
  1 30  1  0
  1 31  1  0
  2 32  1  0
  2 33  1  0
  3 34  1  0
  4 35  1  0
  4 36  1  0
  6 37  1  0
  7 38  1  0
  8 39  1  0
  9 40  1  0
 10 41  1  0
 11 42  1  0
 15 43  1  0
 16 44  1  0
 21 45  1  0
 21 46  1  0
 22 47  1  0
 22 48  1  0
 24 49  1  0
 24 50  1  0
 25 51  1  0
 25 52  1  0
 28 53  1  0
M  END
$$$$
