
     RDKit          3D

 45 48  0  0  0  0  0  0  0  0999 V2000
   -0.1173   -0.3192   -4.4270 O   0  0  0  0  0  0  0  0  0  0  0  0
    0.8039   -1.0312   -4.0858 C   0  0  0  0  0  0  0  0  0  0  0  0
    1.6867   -1.5105   -4.9806 O   0  0  0  0  0  0  0  0  0  0  0  0
    1.1742   -1.5044   -2.7424 C   0  0  0  0  0  0  0  0  0  0  0  0
    0.5096   -1.3281   -1.5896 C   0  0  0  0  0  0  0  0  0  0  0  0
   -0.7418   -0.6960   -1.3374 C   0  0  0  0  0  0  0  0  0  0  0  0
   -1.8752   -0.7689   -2.1120 C   0  0  0  0  0  0  0  0  0  0  0  0
   -2.8510   -0.0261   -1.4841 N   0  0  0  0  0  0  0  0  0  0  0  0
   -4.1790    0.2311   -1.9303 C   0  0  0  0  0  0  0  0  0  0  0  0
   -4.6342   -0.2392   -3.1702 C   0  0  0  0  0  0  0  0  0  0  0  0
   -5.9435    0.0274   -3.5823 C   0  0  0  0  0  0  0  0  0  0  0  0
   -6.8023    0.7615   -2.7659 C   0  0  0  0  0  0  0  0  0  0  0  0
   -6.3556    1.2352   -1.5344 C   0  0  0  0  0  0  0  0  0  0  0  0
   -5.0490    0.9736   -1.1161 C   0  0  0  0  0  0  0  0  0  0  0  0
   -2.4109    0.4625   -0.2955 N   0  0  0  0  0  0  0  0  0  0  0  0
   -1.1346    0.0692   -0.2141 C   0  0  0  0  0  0  0  0  0  0  0  0
   -0.2444    0.4551    1.0162 C   0  0  0  0  0  0  0  0  0  0  0  0
   -0.6581    1.1994    2.1021 C   0  0  0  0  0  0  0  0  0  0  0  0
    0.4551    1.3089    2.9702 C   0  0  0  0  0  0  0  0  0  0  0  0
    1.4957    0.6288    2.3685 C   0  0  0  0  0  0  0  0  0  0  0  0
    2.8879    0.3632    2.7260 C   0  0  0  0  0  0  0  0  0  0  0  0
    3.3814    0.7260    3.9902 C   0  0  0  0  0  0  0  0  0  0  0  0
    4.7131    0.4781    4.3445 C   0  0  0  0  0  0  0  0  0  0  0  0
    5.5684   -0.1399    3.4258 C   0  0  0  0  0  0  0  0  0  0  0  0
    6.9657   -0.4028    3.7915 N   0  0  0  0  0  4  0  0  0  0  0  0
    7.3419   -0.0525    4.9192 O   0  0  0  0  0  0  0  0  0  0  0  0
    7.6866   -0.9600    2.9514 O   0  0  0  0  0  1  0  0  0  0  0  0
    5.0996   -0.5087    2.1607 C   0  0  0  0  0  0  0  0  0  0  0  0
    3.7661   -0.2554    1.8196 C   0  0  0  0  0  0  0  0  0  0  0  0
    1.0668    0.1073    1.1801 O   0  0  0  0  0  0  0  0  0  0  0  0
    1.3757   -1.1392   -5.8328 H   0  0  0  0  0  0  0  0  0  0  0  0
    2.1246   -2.0303   -2.7072 H   0  0  0  0  0  0  0  0  0  0  0  0
    1.0084   -1.7168   -0.7013 H   0  0  0  0  0  0  0  0  0  0  0  0
   -2.0598   -1.2723   -3.0478 H   0  0  0  0  0  0  0  0  0  0  0  0
   -3.9979   -0.8051   -3.8434 H   0  0  0  0  0  0  0  0  0  0  0  0
   -6.2927   -0.3364   -4.5457 H   0  0  0  0  0  0  0  0  0  0  0  0
   -7.8188    0.9673   -3.0911 H   0  0  0  0  0  0  0  0  0  0  0  0
   -7.0227    1.8103   -0.8973 H   0  0  0  0  0  0  0  0  0  0  0  0
   -4.7231    1.3551   -0.1502 H   0  0  0  0  0  0  0  0  0  0  0  0
   -1.6491    1.6101    2.2398 H   0  0  0  0  0  0  0  0  0  0  0  0
    0.4875    1.8286    3.9169 H   0  0  0  0  0  0  0  0  0  0  0  0
    2.7329    1.2051    4.7210 H   0  0  0  0  0  0  0  0  0  0  0  0
    5.0610    0.7714    5.3332 H   0  0  0  0  0  0  0  0  0  0  0  0
    5.7502   -0.9883    1.4321 H   0  0  0  0  0  0  0  0  0  0  0  0
    3.4179   -0.5439    0.8291 H   0  0  0  0  0  0  0  0  0  0  0  0
  1  2  2  0
  2  3  1  0
  2  4  1  0
  4  5  2  3
  5  6  1  0
  6  7  2  0
  7  8  1  0
  8  9  1  0
  9 10  2  0
 10 11  1  0
 11 12  2  0
 12 13  1  0
 13 14  2  0
  8 15  1  0
 15 16  2  0
 16 17  1  0
 17 18  2  0
 18 19  1  0
 19 20  2  0
 20 21  1  0
 21 22  2  0
 22 23  1  0
 23 24  2  0
 24 25  1  0
 25 26  2  0
 25 27  1  0
 24 28  1  0
 28 29  2  0
 20 30  1  0
 16  6  1  0
 30 17  1  0
 14  9  1  0
 29 21  1  0
  3 31  1  0
  4 32  1  0
  5 33  1  0
  7 34  1  0
 10 35  1  0
 11 36  1  0
 12 37  1  0
 13 38  1  0
 14 39  1  0
 18 40  1  0
 19 41  1  0
 22 42  1  0
 23 43  1  0
 28 44  1  0
 29 45  1  0
M  CHG  2  25   1  27  -1
M  END
$$$$
