
     RDKit          3D

 60 61  0  0  0  0  0  0  0  0999 V2000
    3.1591   -3.6348    1.9554 C   0  0  0  0  0  0  0  0  0  0  0  0
    1.9620   -2.8983    1.7421 O   0  0  0  0  0  0  0  0  0  0  0  0
    1.9787   -1.5554    2.0217 C   0  0  0  0  0  0  0  0  0  0  0  0
    3.0879   -0.8743    2.5365 C   0  0  0  0  0  0  0  0  0  0  0  0
    3.0314    0.5023    2.7689 C   0  0  0  0  0  0  0  0  0  0  0  0
    1.8615    1.2125    2.4882 C   0  0  0  0  0  0  0  0  0  0  0  0
    1.7982    2.6820    2.6703 C   0  0  0  0  0  0  0  0  0  0  0  0
    0.7371    3.2033    3.0113 O   0  0  0  0  0  0  0  0  0  0  0  0
    2.9915    3.5350    2.4322 C   0  0  0  0  0  0  0  0  0  0  0  0
    3.8268    3.4848    1.3794 C   0  0  0  0  0  0  0  0  0  0  0  0
    3.7341    2.5911    0.2173 C   0  0  0  0  0  0  0  0  0  0  0  0
    2.5604    2.4942   -0.5422 C   0  0  0  0  0  0  0  0  0  0  0  0
    2.4929    1.6196   -1.6290 C   0  0  0  0  0  0  0  0  0  0  0  0
    3.6036    0.8600   -1.9711 C   0  0  0  0  0  0  0  0  0  0  0  0
    3.4897    0.0152   -3.0346 O   0  0  0  0  0  0  0  0  0  0  0  0
    4.7882    0.9641   -1.2483 C   0  0  0  0  0  0  0  0  0  0  0  0
    4.8534    1.8344   -0.1563 C   0  0  0  0  0  0  0  0  0  0  0  0
    0.7286    0.5257    2.0257 C   0  0  0  0  0  0  0  0  0  0  0  0
   -0.4596    1.1817    1.8093 O   0  0  0  0  0  0  0  0  0  0  0  0
    0.7793   -0.8551    1.7633 C   0  0  0  0  0  0  0  0  0  0  0  0
   -0.4165   -1.5648    1.1572 C   0  0  0  0  0  0  0  0  0  0  0  0
   -0.3387   -1.6171   -0.3488 C   0  0  0  0  0  0  0  0  0  0  0  0
   -1.2157   -1.1171   -1.2431 C   0  0  0  0  0  0  0  0  0  0  0  0
   -0.9737   -1.2736   -2.7218 C   0  0  0  0  0  0  0  0  0  0  0  0
   -2.4727   -0.3570   -0.8752 C   0  0  0  0  0  0  0  0  0  0  0  0
   -3.6844   -1.2846   -0.7444 C   0  0  0  0  0  0  0  0  0  0  0  0
   -4.9335   -0.5185   -0.3968 C   0  0  0  0  0  0  0  0  0  0  0  0
   -6.0036   -0.2849   -1.1826 C   0  0  0  0  0  0  0  0  0  0  0  0
   -6.1317   -0.7163   -2.6179 C   0  0  0  0  0  0  0  0  0  0  0  0
   -7.1962    0.4677   -0.6511 C   0  0  0  0  0  0  0  0  0  0  0  0
    2.9664   -4.6732    1.6712 H   0  0  0  0  0  0  0  0  0  0  0  0
    3.4449   -3.6277    3.0131 H   0  0  0  0  0  0  0  0  0  0  0  0
    3.9707   -3.2618    1.3216 H   0  0  0  0  0  0  0  0  0  0  0  0
    4.0192   -1.3846    2.7582 H   0  0  0  0  0  0  0  0  0  0  0  0
    3.9110    1.0050    3.1608 H   0  0  0  0  0  0  0  0  0  0  0  0
    3.1179    4.3171    3.1767 H   0  0  0  0  0  0  0  0  0  0  0  0
    4.6554    4.1909    1.3397 H   0  0  0  0  0  0  0  0  0  0  0  0
    1.6794    3.0828   -0.2929 H   0  0  0  0  0  0  0  0  0  0  0  0
    1.5717    1.5270   -2.1980 H   0  0  0  0  0  0  0  0  0  0  0  0
    4.3214   -0.4752   -3.1309 H   0  0  0  0  0  0  0  0  0  0  0  0
    5.6600    0.3762   -1.5150 H   0  0  0  0  0  0  0  0  0  0  0  0
    5.7800    1.9054    0.4080 H   0  0  0  0  0  0  0  0  0  0  0  0
   -0.4061    2.0633    2.2393 H   0  0  0  0  0  0  0  0  0  0  0  0
   -1.3455   -1.1070    1.5113 H   0  0  0  0  0  0  0  0  0  0  0  0
   -0.4681   -2.5929    1.5378 H   0  0  0  0  0  0  0  0  0  0  0  0
    0.5395   -2.1426   -0.7241 H   0  0  0  0  0  0  0  0  0  0  0  0
   -0.9140   -0.2917   -3.2023 H   0  0  0  0  0  0  0  0  0  0  0  0
   -1.7893   -1.8383   -3.1835 H   0  0  0  0  0  0  0  0  0  0  0  0
   -0.0396   -1.8024   -2.9362 H   0  0  0  0  0  0  0  0  0  0  0  0
   -2.3282    0.2033    0.0551 H   0  0  0  0  0  0  0  0  0  0  0  0
   -2.6670    0.4087   -1.6382 H   0  0  0  0  0  0  0  0  0  0  0  0
   -3.5066   -2.0144    0.0557 H   0  0  0  0  0  0  0  0  0  0  0  0
   -3.8132   -1.8745   -1.6568 H   0  0  0  0  0  0  0  0  0  0  0  0
   -4.9482   -0.1419    0.6273 H   0  0  0  0  0  0  0  0  0  0  0  0
   -5.1889   -1.0581   -3.0505 H   0  0  0  0  0  0  0  0  0  0  0  0
   -6.4712    0.1226   -3.2354 H   0  0  0  0  0  0  0  0  0  0  0  0
   -6.8636   -1.5256   -2.7055 H   0  0  0  0  0  0  0  0  0  0  0  0
   -8.0875   -0.1697   -0.6749 H   0  0  0  0  0  0  0  0  0  0  0  0
   -7.0511    0.7992    0.3834 H   0  0  0  0  0  0  0  0  0  0  0  0
   -7.3872    1.3584   -1.2589 H   0  0  0  0  0  0  0  0  0  0  0  0
  1  2  1  0
  2  3  1  0
  3  4  2  0
  4  5  1  0
  5  6  2  0
  6  7  1  0
  7  8  2  0
  7  9  1  0
  9 10  2  3
 10 11  1  0
 11 12  2  0
 12 13  1  0
 13 14  2  0
 14 15  1  0
 14 16  1  0
 16 17  2  0
  6 18  1  0
 18 19  1  0
 18 20  2  0
 20 21  1  0
 21 22  1  0
 22 23  2  3
 23 24  1  0
 23 25  1  0
 25 26  1  0
 26 27  1  0
 27 28  2  3
 28 29  1  0
 28 30  1  0
 20  3  1  0
 17 11  1  0
  1 31  1  0
  1 32  1  0
  1 33  1  0
  4 34  1  0
  5 35  1  0
  9 36  1  0
 10 37  1  0
 12 38  1  0
 13 39  1  0
 15 40  1  0
 16 41  1  0
 17 42  1  0
 19 43  1  0
 21 44  1  0
 21 45  1  0
 22 46  1  0
 24 47  1  0
 24 48  1  0
 24 49  1  0
 25 50  1  0
 25 51  1  0
 26 52  1  0
 26 53  1  0
 27 54  1  0
 29 55  1  0
 29 56  1  0
 29 57  1  0
 30 58  1  0
 30 59  1  0
 30 60  1  0
M  END
$$$$
