
     RDKit          3D

 51 53  0  0  0  0  0  0  0  0999 V2000
   -4.7506    1.4437   -0.3959 O   0  0  0  0  0  0  0  0  0  0  0  0
   -4.9342    0.3138   -0.8399 C   0  0  0  0  0  0  0  0  0  0  0  0
   -3.8590   -0.4071   -1.6654 C   0  0  0  0  0  0  0  0  0  0  0  0
   -2.5536    0.1366   -1.4772 O   0  0  0  0  0  0  0  0  0  0  0  0
   -2.0074   -0.1568   -0.2639 C   0  0  0  0  0  0  0  0  0  0  0  0
   -2.5076   -0.9045    0.5645 O   0  0  0  0  0  0  0  0  0  0  0  0
   -0.6986    0.5679   -0.1070 C   0  0  0  0  0  0  0  0  0  0  0  0
   -0.0476    0.2108    1.2256 C   0  0  0  0  0  0  0  0  0  0  0  0
    1.2542    0.8659    1.3876 N   0  0  0  0  0  0  0  0  0  0  0  0
    2.3672    0.2681    0.8199 C   0  0  0  0  0  0  0  0  0  0  0  0
    2.3666   -0.7709    0.1738 O   0  0  0  0  0  0  0  0  0  0  0  0
    3.5835    1.0831    1.0820 C   0  0  0  0  0  0  0  0  0  0  0  0
    4.7950    0.7027    0.6519 C   0  0  0  0  0  0  0  0  0  0  0  0
    6.0434    1.4179    0.8455 C   0  0  0  0  0  0  0  0  0  0  0  0
    7.2571    1.0191    0.4301 C   0  0  0  0  0  0  0  0  0  0  0  0
    7.5622   -0.2248   -0.2809 C   0  0  0  0  0  0  0  0  0  0  0  0
    7.5520   -1.4531    0.3896 C   0  0  0  0  0  0  0  0  0  0  0  0
    7.8469   -2.6316   -0.2983 C   0  0  0  0  0  0  0  0  0  0  0  0
    8.1568   -2.5873   -1.6571 C   0  0  0  0  0  0  0  0  0  0  0  0
    8.1728   -1.3657   -2.3292 C   0  0  0  0  0  0  0  0  0  0  0  0
    7.8774   -0.1861   -1.6429 C   0  0  0  0  0  0  0  0  0  0  0  0
    3.1659    2.4942    1.9669 S   0  0  0  0  0  0  0  0  0  0  0  0
    1.4570    2.0776    2.0142 C   0  0  0  0  0  0  0  0  0  0  0  0
    0.3247    3.0705    2.7295 S   0  0  0  0  0  0  0  0  0  0  0  0
   -6.0859   -0.4400   -0.6937 N   0  0  0  0  0  0  0  0  0  0  0  0
   -7.2671   -0.0816   -0.0060 C   0  0  0  0  0  0  0  0  0  0  0  0
   -7.4731    1.1418    0.6301 C   0  0  0  0  0  0  0  0  0  0  0  0
   -8.6840    1.3850    1.2792 C   0  0  0  0  0  0  0  0  0  0  0  0
   -8.8779    2.5622    1.8882 F   0  0  0  0  0  0  0  0  0  0  0  0
   -9.6991    0.4325    1.3089 C   0  0  0  0  0  0  0  0  0  0  0  0
   -9.5044   -0.7917    0.6766 C   0  0  0  0  0  0  0  0  0  0  0  0
   -8.2962   -1.0360    0.0279 C   0  0  0  0  0  0  0  0  0  0  0  0
   -8.1161   -2.2184   -0.5828 F   0  0  0  0  0  0  0  0  0  0  0  0
   -4.1168   -0.2759   -2.7219 H   0  0  0  0  0  0  0  0  0  0  0  0
   -3.8583   -1.4839   -1.4581 H   0  0  0  0  0  0  0  0  0  0  0  0
   -0.8861    1.6456   -0.1621 H   0  0  0  0  0  0  0  0  0  0  0  0
   -0.0427    0.2837   -0.9372 H   0  0  0  0  0  0  0  0  0  0  0  0
    0.1043   -0.8745    1.2849 H   0  0  0  0  0  0  0  0  0  0  0  0
   -0.7060    0.4778    2.0589 H   0  0  0  0  0  0  0  0  0  0  0  0
    4.8611   -0.2325    0.0947 H   0  0  0  0  0  0  0  0  0  0  0  0
    5.9929    2.3736    1.3653 H   0  0  0  0  0  0  0  0  0  0  0  0
    8.1189    1.6572    0.6158 H   0  0  0  0  0  0  0  0  0  0  0  0
    7.3135   -1.4990    1.4496 H   0  0  0  0  0  0  0  0  0  0  0  0
    7.8346   -3.5835    0.2260 H   0  0  0  0  0  0  0  0  0  0  0  0
    8.3856   -3.5053   -2.1923 H   0  0  0  0  0  0  0  0  0  0  0  0
    8.4142   -1.3313   -3.3884 H   0  0  0  0  0  0  0  0  0  0  0  0
    7.8895    0.7601   -2.1785 H   0  0  0  0  0  0  0  0  0  0  0  0
   -6.0930   -1.3778   -1.0842 H   0  0  0  0  0  0  0  0  0  0  0  0
   -6.7250    1.9262    0.6463 H   0  0  0  0  0  0  0  0  0  0  0  0
  -10.6289    0.6541    1.8237 H   0  0  0  0  0  0  0  0  0  0  0  0
  -10.2782   -1.5525    0.6839 H   0  0  0  0  0  0  0  0  0  0  0  0
  1  2  2  0
  2  3  1  0
  3  4  1  0
  4  5  1  0
  5  6  2  0
  5  7  1  0
  7  8  1  0
  8  9  1  0
  9 10  1  0
 10 11  2  0
 10 12  1  0
 12 13  2  3
 13 14  1  0
 14 15  2  3
 15 16  1  0
 16 17  2  0
 17 18  1  0
 18 19  2  0
 19 20  1  0
 20 21  2  0
 12 22  1  0
 22 23  1  0
 23 24  2  0
  2 25  1  0
 25 26  1  0
 26 27  2  0
 27 28  1  0
 28 29  1  0
 28 30  2  0
 30 31  1  0
 31 32  2  0
 32 33  1  0
 23  9  1  0
 32 26  1  0
 21 16  1  0
  3 34  1  0
  3 35  1  0
  7 36  1  0
  7 37  1  0
  8 38  1  0
  8 39  1  0
 13 40  1  0
 14 41  1  0
 15 42  1  0
 17 43  1  0
 18 44  1  0
 19 45  1  0
 20 46  1  0
 21 47  1  0
 25 48  1  0
 27 49  1  0
 30 50  1  0
 31 51  1  0
M  END
$$$$
