
     RDKit          3D

 49 51  0  0  0  0  0  0  0  0999 V2000
    7.3556    1.8791   -2.0247 C   0  0  0  0  0  0  0  0  0  0  0  0
    6.1062    1.1771   -1.5194 C   0  0  0  0  0  0  0  0  0  0  0  0
    5.0748    2.3757   -0.6289 S   0  0  0  0  0  0  0  0  0  0  0  0
    3.6204    1.4375   -0.3992 C   0  0  0  0  0  0  0  0  0  0  0  0
    3.6777    0.1570   -0.2558 N   0  0  0  0  0  0  0  0  0  0  0  0
    2.4941   -0.5184   -0.0533 C   0  0  0  0  0  0  0  0  0  0  0  0
    2.4586   -1.7319    0.1288 O   0  0  0  0  0  0  0  0  0  0  0  0
    1.2129    0.2589   -0.0337 C   0  0  0  0  0  0  0  0  0  0  0  0
    1.2575    1.5968   -0.1713 C   0  0  0  0  0  0  0  0  0  0  0  0
    2.4805    2.1659   -0.3657 N   0  0  0  0  0  0  0  0  0  0  0  0
    0.1248    2.3737   -0.1444 N   0  0  0  0  0  0  0  0  0  0  0  0
   -0.9734    1.8766    0.3460 C   0  0  0  0  0  0  0  0  0  0  0  0
   -2.1726    2.7887    0.4171 C   0  0  0  0  0  0  0  0  0  0  0  0
   -1.0627    0.4728    0.9145 C   0  0  0  0  0  0  0  0  0  0  0  0
   -2.4464   -0.1239    0.9797 C   0  0  0  0  0  0  0  0  0  0  0  0
   -3.3361    0.0831    0.1695 O   0  0  0  0  0  0  0  0  0  0  0  0
   -2.5635   -0.8988    2.0935 O   0  0  0  0  0  0  0  0  0  0  0  0
   -3.8278   -1.5616    2.2988 C   0  0  0  0  0  0  0  0  0  0  0  0
   -3.6047   -2.5986    3.3972 C   0  0  0  0  0  0  0  0  0  0  0  0
   -4.8946   -0.5641    2.7435 C   0  0  0  0  0  0  0  0  0  0  0  0
   -0.0796   -0.4735    0.1974 C   0  0  0  0  0  0  0  0  0  0  0  0
   -0.5800   -1.1097   -1.0966 C   0  0  0  0  0  0  0  0  0  0  0  0
   -1.1133   -0.3643   -2.1546 C   0  0  0  0  0  0  0  0  0  0  0  0
   -1.5343   -1.0263   -3.2997 C   0  0  0  0  0  0  0  0  0  0  0  0
   -1.4495   -2.3604   -3.4717 N   0  0  0  0  0  0  0  0  0  0  0  0
   -0.9153   -3.0653   -2.4545 C   0  0  0  0  0  0  0  0  0  0  0  0
   -0.4737   -2.4964   -1.2689 C   0  0  0  0  0  0  0  0  0  0  0  0
    7.9505    2.2950   -1.1984 H   0  0  0  0  0  0  0  0  0  0  0  0
    7.1076    2.7007   -2.7028 H   0  0  0  0  0  0  0  0  0  0  0  0
    7.9856    1.1710   -2.5761 H   0  0  0  0  0  0  0  0  0  0  0  0
    5.5449    0.7515   -2.3639 H   0  0  0  0  0  0  0  0  0  0  0  0
    6.3863    0.3627   -0.8450 H   0  0  0  0  0  0  0  0  0  0  0  0
    2.5075    3.1709   -0.4447 H   0  0  0  0  0  0  0  0  0  0  0  0
   -2.8724    2.5371   -0.3826 H   0  0  0  0  0  0  0  0  0  0  0  0
   -1.8611    3.8299    0.2919 H   0  0  0  0  0  0  0  0  0  0  0  0
   -2.6665    2.6885    1.3862 H   0  0  0  0  0  0  0  0  0  0  0  0
   -0.7285    0.6075    1.9559 H   0  0  0  0  0  0  0  0  0  0  0  0
   -4.1271   -2.0786    1.3762 H   0  0  0  0  0  0  0  0  0  0  0  0
   -3.3101   -2.0990    4.3331 H   0  0  0  0  0  0  0  0  0  0  0  0
   -2.7918   -3.2833    3.1383 H   0  0  0  0  0  0  0  0  0  0  0  0
   -4.5081   -3.1882    3.5779 H   0  0  0  0  0  0  0  0  0  0  0  0
   -5.1146    0.1701    1.9602 H   0  0  0  0  0  0  0  0  0  0  0  0
   -5.8307   -1.0700    2.9967 H   0  0  0  0  0  0  0  0  0  0  0  0
   -4.5544    0.0042    3.6150 H   0  0  0  0  0  0  0  0  0  0  0  0
    0.1013   -1.2883    0.9136 H   0  0  0  0  0  0  0  0  0  0  0  0
   -1.2107    0.7145   -2.1156 H   0  0  0  0  0  0  0  0  0  0  0  0
   -1.9611   -0.4782   -4.1363 H   0  0  0  0  0  0  0  0  0  0  0  0
   -0.8446   -4.1360   -2.6203 H   0  0  0  0  0  0  0  0  0  0  0  0
   -0.0378   -3.1316   -0.5033 H   0  0  0  0  0  0  0  0  0  0  0  0
  1  2  1  0
  2  3  1  0
  3  4  1  0
  4  5  2  0
  5  6  1  0
  6  7  2  0
  6  8  1  0
  8  9  2  0
  9 10  1  0
  9 11  1  0
 11 12  2  0
 12 13  1  0
 12 14  1  0
 14 15  1  0
 15 16  2  0
 15 17  1  0
 17 18  1  0
 18 19  1  0
 18 20  1  0
 14 21  1  0
 21 22  1  0
 22 23  2  0
 23 24  1  0
 24 25  2  0
 25 26  1  0
 26 27  2  0
 10  4  1  0
 27 22  1  0
 21  8  1  0
  1 28  1  0
  1 29  1  0
  1 30  1  0
  2 31  1  0
  2 32  1  0
 10 33  1  0
 13 34  1  0
 13 35  1  0
 13 36  1  0
 14 37  1  0
 18 38  1  0
 19 39  1  0
 19 40  1  0
 19 41  1  0
 20 42  1  0
 20 43  1  0
 20 44  1  0
 21 45  1  0
 23 46  1  0
 24 47  1  0
 26 48  1  0
 27 49  1  0
M  END
$$$$
