
     RDKit          3D

 45 47  0  0  0  0  0  0  0  0999 V2000
    2.1886   -0.9010    2.2915 O   0  0  0  0  0  0  0  0  0  0  0  0
    1.8969   -0.3484    1.2276 C   0  0  0  0  0  0  0  0  0  0  0  0
    2.8967    0.5796    0.5525 C   0  0  0  0  0  0  0  0  0  0  0  0
    3.9531   -0.3777   -0.5830 S   0  0  0  0  0  0  0  0  0  0  0  0
    5.1446    0.8800   -0.9960 C   0  0  0  0  0  0  0  0  0  0  0  0
    4.7760    2.0145   -1.7269 C   0  0  0  0  0  0  0  0  0  0  0  0
    5.7281    2.9863   -2.0471 C   0  0  0  0  0  0  0  0  0  0  0  0
    7.0508    2.8185   -1.6414 C   0  0  0  0  0  0  0  0  0  0  0  0
    8.3385    4.1322   -2.0746 Br  0  0  0  0  0  0  0  0  0  0  0  0
    7.4308    1.6870   -0.9229 C   0  0  0  0  0  0  0  0  0  0  0  0
    6.4771    0.7166   -0.6043 C   0  0  0  0  0  0  0  0  0  0  0  0
    0.6598   -0.5356    0.6264 N   0  0  0  0  0  0  0  0  0  0  0  0
   -0.3307   -1.3906    1.2871 C   0  0  0  0  0  0  0  0  0  0  0  0
   -1.7602   -0.8776    1.0788 C   0  0  0  0  0  0  0  0  0  0  0  0
   -2.1196   -0.7179   -0.3716 N   0  0  0  0  0  0  0  0  0  0  0  0
   -3.3686   -1.7387   -0.9346 S   0  0  0  0  0  6  0  0  0  0  0  0
   -3.0257   -3.0855   -0.5286 O   0  0  0  0  0  0  0  0  0  0  0  0
   -3.6227   -1.4101   -2.3207 O   0  0  0  0  0  0  0  0  0  0  0  0
   -4.7700   -1.1939    0.0063 C   0  0  0  0  0  0  0  0  0  0  0  0
   -5.2276    0.1171   -0.1597 C   0  0  0  0  0  0  0  0  0  0  0  0
   -6.3262    0.5574    0.5773 C   0  0  0  0  0  0  0  0  0  0  0  0
   -6.9615   -0.3098    1.4684 C   0  0  0  0  0  0  0  0  0  0  0  0
   -6.5042   -1.6203    1.6242 C   0  0  0  0  0  0  0  0  0  0  0  0
   -5.4060   -2.0692    0.8907 C   0  0  0  0  0  0  0  0  0  0  0  0
   -0.9362   -0.6989   -1.2887 C   0  0  0  0  0  0  0  0  0  0  0  0
    0.2514    0.0405   -0.6591 C   0  0  0  0  0  0  0  0  0  0  0  0
    3.5132    1.0333    1.3367 H   0  0  0  0  0  0  0  0  0  0  0  0
    2.3877    1.3940    0.0307 H   0  0  0  0  0  0  0  0  0  0  0  0
    3.7517    2.1485   -2.0645 H   0  0  0  0  0  0  0  0  0  0  0  0
    5.4303    3.8630   -2.6164 H   0  0  0  0  0  0  0  0  0  0  0  0
    8.4619    1.5478   -0.6087 H   0  0  0  0  0  0  0  0  0  0  0  0
    6.7835   -0.1660   -0.0464 H   0  0  0  0  0  0  0  0  0  0  0  0
   -0.1213   -1.4609    2.3596 H   0  0  0  0  0  0  0  0  0  0  0  0
   -0.2198   -2.3960    0.8636 H   0  0  0  0  0  0  0  0  0  0  0  0
   -2.4565   -1.5451    1.5953 H   0  0  0  0  0  0  0  0  0  0  0  0
   -1.8697    0.1109    1.5417 H   0  0  0  0  0  0  0  0  0  0  0  0
   -4.7360    0.7890   -0.8597 H   0  0  0  0  0  0  0  0  0  0  0  0
   -6.6922    1.5740    0.4546 H   0  0  0  0  0  0  0  0  0  0  0  0
   -7.8209    0.0349    2.0393 H   0  0  0  0  0  0  0  0  0  0  0  0
   -7.0086   -2.2926    2.3146 H   0  0  0  0  0  0  0  0  0  0  0  0
   -5.0590   -3.0931    1.0108 H   0  0  0  0  0  0  0  0  0  0  0  0
   -0.6390   -1.7266   -1.5309 H   0  0  0  0  0  0  0  0  0  0  0  0
   -1.2156   -0.1893   -2.2171 H   0  0  0  0  0  0  0  0  0  0  0  0
   -0.0168    1.0858   -0.4650 H   0  0  0  0  0  0  0  0  0  0  0  0
    1.0939    0.0336   -1.3550 H   0  0  0  0  0  0  0  0  0  0  0  0
  1  2  2  0
  2  3  1  0
  3  4  1  0
  4  5  1  0
  5  6  2  0
  6  7  1  0
  7  8  2  0
  8  9  1  0
  8 10  1  0
 10 11  2  0
  2 12  1  0
 12 13  1  0
 13 14  1  0
 14 15  1  0
 15 16  1  0
 16 17  2  0
 16 18  2  0
 16 19  1  0
 19 20  2  0
 20 21  1  0
 21 22  2  0
 22 23  1  0
 23 24  2  0
 15 25  1  0
 25 26  1  0
 11  5  1  0
 26 12  1  0
 24 19  1  0
  3 27  1  0
  3 28  1  0
  6 29  1  0
  7 30  1  0
 10 31  1  0
 11 32  1  0
 13 33  1  0
 13 34  1  0
 14 35  1  0
 14 36  1  0
 20 37  1  0
 21 38  1  0
 22 39  1  0
 23 40  1  0
 24 41  1  0
 25 42  1  0
 25 43  1  0
 26 44  1  0
 26 45  1  0
M  END
$$$$
