
     RDKit          3D

 41 43  0  0  0  0  0  0  0  0999 V2000
   -3.0901    0.6176   -1.3773 O   0  0  0  0  0  0  0  0  0  0  0  0
   -3.3980    0.3027   -0.2342 C   0  0  0  0  0  0  0  0  0  0  0  0
   -2.5671   -0.2500    0.7245 N   0  0  0  0  0  0  0  0  0  0  0  0
   -1.2217   -0.6458    0.5652 C   0  0  0  0  0  0  0  0  0  0  0  0
   -0.5477   -1.0898    1.7073 C   0  0  0  0  0  0  0  0  0  0  0  0
    0.7778   -1.5168    1.6255 C   0  0  0  0  0  0  0  0  0  0  0  0
    1.4480   -1.4934    0.4019 C   0  0  0  0  0  0  0  0  0  0  0  0
    0.8007   -1.0282   -0.7440 C   0  0  0  0  0  0  0  0  0  0  0  0
    1.3976   -0.9870   -2.0222 N   0  0  0  0  0  0  0  0  0  0  0  0
    2.7120   -1.0485   -2.4165 C   0  0  0  0  0  0  0  0  0  0  0  0
    3.0082   -1.4099   -4.0206 S   0  0  0  0  0  0  0  0  0  0  0  0
    3.6464   -0.7228   -1.4574 N   0  0  0  0  0  0  0  0  0  0  0  0
    5.0383   -0.7135   -1.5376 C   0  0  0  0  0  0  0  0  0  0  0  0
    5.6797   -1.4721   -2.2586 O   0  0  0  0  0  0  0  0  0  0  0  0
    5.7008    0.1906   -0.5979 C   0  0  0  0  0  0  0  0  0  0  0  0
    7.0652    0.3511   -0.4318 C   0  0  0  0  0  0  0  0  0  0  0  0
    7.3897    1.3144    0.5662 C   0  0  0  0  0  0  0  0  0  0  0  0
    6.2630    1.8635    1.1342 C   0  0  0  0  0  0  0  0  0  0  0  0
    4.8288    1.2180    0.4653 S   0  0  0  0  0  0  0  0  0  0  0  0
   -0.5423   -0.6319   -0.6567 C   0  0  0  0  0  0  0  0  0  0  0  0
   -4.7912    0.5683    0.2236 C   0  0  0  0  0  0  0  0  0  0  0  0
   -5.4583   -0.3018    1.0966 C   0  0  0  0  0  0  0  0  0  0  0  0
   -6.7644   -0.0160    1.5009 C   0  0  0  0  0  0  0  0  0  0  0  0
   -7.4077    1.1290    1.0301 C   0  0  0  0  0  0  0  0  0  0  0  0
   -6.7532    1.9870    0.1464 C   0  0  0  0  0  0  0  0  0  0  0  0
   -5.4487    1.7054   -0.2616 C   0  0  0  0  0  0  0  0  0  0  0  0
   -2.9364   -0.3165    1.6641 H   0  0  0  0  0  0  0  0  0  0  0  0
   -1.0454   -1.1220    2.6731 H   0  0  0  0  0  0  0  0  0  0  0  0
    1.2843   -1.8874    2.5137 H   0  0  0  0  0  0  0  0  0  0  0  0
    2.4534   -1.9012    0.3687 H   0  0  0  0  0  0  0  0  0  0  0  0
    0.7503   -0.9673   -2.8071 H   0  0  0  0  0  0  0  0  0  0  0  0
    3.2745   -0.1076   -0.7475 H   0  0  0  0  0  0  0  0  0  0  0  0
    7.7959   -0.2049   -1.0100 H   0  0  0  0  0  0  0  0  0  0  0  0
    8.3984    1.5902    0.8499 H   0  0  0  0  0  0  0  0  0  0  0  0
    6.2132    2.6155    1.9102 H   0  0  0  0  0  0  0  0  0  0  0  0
   -1.0451   -0.3003   -1.5598 H   0  0  0  0  0  0  0  0  0  0  0  0
   -4.9900   -1.2186    1.4436 H   0  0  0  0  0  0  0  0  0  0  0  0
   -7.2874   -0.6923    2.1730 H   0  0  0  0  0  0  0  0  0  0  0  0
   -8.4265    1.3472    1.3420 H   0  0  0  0  0  0  0  0  0  0  0  0
   -7.2602    2.8721   -0.2303 H   0  0  0  0  0  0  0  0  0  0  0  0
   -4.9446    2.3730   -0.9579 H   0  0  0  0  0  0  0  0  0  0  0  0
  1  2  2  0
  2  3  1  0
  3  4  1  0
  4  5  2  0
  5  6  1  0
  6  7  2  0
  7  8  1  0
  8  9  1  0
  9 10  1  0
 10 11  2  0
 10 12  1  0
 12 13  1  0
 13 14  2  0
 13 15  1  0
 15 16  2  0
 16 17  1  0
 17 18  2  0
 18 19  1  0
  8 20  2  0
  2 21  1  0
 21 22  2  0
 22 23  1  0
 23 24  2  0
 24 25  1  0
 25 26  2  0
 20  4  1  0
 26 21  1  0
 19 15  1  0
  3 27  1  0
  5 28  1  0
  6 29  1  0
  7 30  1  0
  9 31  1  0
 12 32  1  0
 16 33  1  0
 17 34  1  0
 18 35  1  0
 20 36  1  0
 22 37  1  0
 23 38  1  0
 24 39  1  0
 25 40  1  0
 26 41  1  0
M  END
$$$$
