
     RDKit          3D

 58 62  0  0  0  0  0  0  0  0999 V2000
   -7.9387    1.0721   -1.1660 C   0  0  0  0  0  0  0  0  0  0  0  0
   -6.9671    1.3826   -0.1682 O   0  0  0  0  0  0  0  0  0  0  0  0
   -5.7141    0.8660   -0.3496 C   0  0  0  0  0  0  0  0  0  0  0  0
   -5.3450   -0.0713   -1.3142 C   0  0  0  0  0  0  0  0  0  0  0  0
   -4.0173   -0.5103   -1.3964 C   0  0  0  0  0  0  0  0  0  0  0  0
   -3.0529   -0.0248   -0.5051 C   0  0  0  0  0  0  0  0  0  0  0  0
   -1.6382   -0.4790   -0.6444 C   0  0  0  0  0  0  0  0  0  0  0  0
   -1.1885   -0.7336   -1.8262 N   0  0  0  0  0  0  0  0  0  0  0  0
    0.2137   -1.1208   -1.9664 C   0  0  0  0  0  0  0  0  0  0  0  0
    1.1217    0.0769   -1.6966 C   0  0  0  0  0  0  0  0  0  0  0  0
    1.7274    0.6215   -2.6255 O   0  0  0  0  0  0  0  0  0  0  0  0
    1.2964    0.4764   -0.3658 N   0  0  0  0  0  0  0  0  0  0  0  0
    2.4195    1.3843   -0.1352 C   0  0  0  0  0  0  0  0  0  0  0  0
    3.7617    0.6414   -0.0696 C   0  0  0  0  0  0  0  0  0  0  0  0
    3.8757   -0.5233    0.3003 O   0  0  0  0  0  0  0  0  0  0  0  0
    4.8460    1.4331   -0.3943 N   0  0  0  0  0  0  0  0  0  0  0  0
    6.1902    0.8993   -0.4414 C   0  0  0  0  0  0  0  0  0  0  0  0
    6.7927    1.2479   -1.7519 C   0  0  0  0  0  0  0  0  0  0  0  0
    7.5517    2.3126   -2.1997 C   0  0  0  0  0  0  0  0  0  0  0  0
    7.8169    2.0673   -3.5709 C   0  0  0  0  0  0  0  0  0  0  0  0
    7.2066    0.8727   -3.8702 C   0  0  0  0  0  0  0  0  0  0  0  0
    6.5828    0.3688   -2.7732 O   0  0  0  0  0  0  0  0  0  0  0  0
    0.4826   -0.0705    0.6336 C   0  0  0  0  0  0  0  0  0  0  0  0
    1.0887   -0.1133    2.2295 S   0  0  0  0  0  0  0  0  0  0  0  0
   -0.2317   -1.0185    2.7824 C   0  0  0  0  0  0  0  0  0  0  0  0
   -1.1876   -1.2122    1.8038 C   0  0  0  0  0  0  0  0  0  0  0  0
   -0.8060   -0.5844    0.5563 C   0  0  0  0  0  0  0  0  0  0  0  0
   -2.4439   -1.9915    2.0891 C   0  0  0  0  0  0  0  0  0  0  0  0
   -2.2931   -2.8747    3.3380 C   0  0  0  0  0  0  0  0  0  0  0  0
   -1.6946   -2.0835    4.5073 C   0  0  0  0  0  0  0  0  0  0  0  0
   -0.2847   -1.5653    4.1765 C   0  0  0  0  0  0  0  0  0  0  0  0
   -3.4218    0.9208    0.4573 C   0  0  0  0  0  0  0  0  0  0  0  0
   -4.7491    1.3537    0.5361 C   0  0  0  0  0  0  0  0  0  0  0  0
   -8.2117    0.0110   -1.1268 H   0  0  0  0  0  0  0  0  0  0  0  0
   -7.5935    1.3615   -2.1660 H   0  0  0  0  0  0  0  0  0  0  0  0
   -8.8390    1.6572   -0.9506 H   0  0  0  0  0  0  0  0  0  0  0  0
   -6.0610   -0.4770   -2.0208 H   0  0  0  0  0  0  0  0  0  0  0  0
   -3.7376   -1.2297   -2.1637 H   0  0  0  0  0  0  0  0  0  0  0  0
    0.3794   -1.4357   -3.0040 H   0  0  0  0  0  0  0  0  0  0  0  0
    0.4904   -1.9804   -1.3436 H   0  0  0  0  0  0  0  0  0  0  0  0
    2.2770    1.9537    0.7898 H   0  0  0  0  0  0  0  0  0  0  0  0
    2.4572    2.1212   -0.9479 H   0  0  0  0  0  0  0  0  0  0  0  0
    4.6835    2.3244   -0.8439 H   0  0  0  0  0  0  0  0  0  0  0  0
    6.7530    1.3713    0.3708 H   0  0  0  0  0  0  0  0  0  0  0  0
    6.2005   -0.1831   -0.2801 H   0  0  0  0  0  0  0  0  0  0  0  0
    7.8714    3.1597   -1.6109 H   0  0  0  0  0  0  0  0  0  0  0  0
    8.3850    2.6823   -4.2573 H   0  0  0  0  0  0  0  0  0  0  0  0
    7.1249    0.2757   -4.7678 H   0  0  0  0  0  0  0  0  0  0  0  0
   -2.7065   -2.6212    1.2323 H   0  0  0  0  0  0  0  0  0  0  0  0
   -3.2677   -1.2896    2.2598 H   0  0  0  0  0  0  0  0  0  0  0  0
   -3.2680   -3.2807    3.6200 H   0  0  0  0  0  0  0  0  0  0  0  0
   -1.6438   -3.7272    3.1088 H   0  0  0  0  0  0  0  0  0  0  0  0
   -2.3530   -1.2355    4.7413 H   0  0  0  0  0  0  0  0  0  0  0  0
   -1.6524   -2.7118    5.4053 H   0  0  0  0  0  0  0  0  0  0  0  0
    0.0049   -0.8035    4.9099 H   0  0  0  0  0  0  0  0  0  0  0  0
    0.4293   -2.3958    4.2559 H   0  0  0  0  0  0  0  0  0  0  0  0
   -2.6911    1.3412    1.1425 H   0  0  0  0  0  0  0  0  0  0  0  0
   -5.0311    2.0913    1.2839 H   0  0  0  0  0  0  0  0  0  0  0  0
  1  2  1  0
  2  3  1  0
  3  4  2  0
  4  5  1  0
  5  6  2  0
  6  7  1  0
  7  8  2  0
  8  9  1  0
  9 10  1  0
 10 11  2  0
 10 12  1  0
 12 13  1  0
 13 14  1  0
 14 15  2  0
 14 16  1  0
 16 17  1  0
 17 18  1  0
 18 19  2  0
 19 20  1  0
 20 21  2  0
 21 22  1  0
 12 23  1  0
 23 24  1  0
 24 25  1  0
 25 26  2  0
 26 27  1  0
 26 28  1  0
 28 29  1  0
 29 30  1  0
 30 31  1  0
  6 32  1  0
 32 33  2  0
 33  3  1  0
 27  7  1  0
 22 18  1  0
 27 23  2  0
 31 25  1  0
  1 34  1  0
  1 35  1  0
  1 36  1  0
  4 37  1  0
  5 38  1  0
  9 39  1  0
  9 40  1  0
 13 41  1  0
 13 42  1  0
 16 43  1  0
 17 44  1  0
 17 45  1  0
 19 46  1  0
 20 47  1  0
 21 48  1  0
 28 49  1  0
 28 50  1  0
 29 51  1  0
 29 52  1  0
 30 53  1  0
 30 54  1  0
 31 55  1  0
 31 56  1  0
 32 57  1  0
 33 58  1  0
M  END
$$$$
