
     RDKit          3D

 47 49  0  0  0  0  0  0  0  0999 V2000
    2.4177   -0.3679   -1.6894 O   0  0  0  0  0  0  0  0  0  0  0  0
    1.8619   -0.6597   -0.6345 C   0  0  0  0  0  0  0  0  0  0  0  0
    2.5386   -0.3817    0.6963 C   0  0  0  0  0  0  0  0  0  0  0  0
    1.7727    0.5745    1.6050 C   0  0  0  0  0  0  0  0  0  0  0  0
    1.4115    2.2064    0.8646 S   0  0  0  0  0  0  0  0  0  0  0  0
    3.0656    2.8550    0.7377 C   0  0  0  0  0  0  0  0  0  0  0  0
    3.7163    3.3701    1.8625 C   0  0  0  0  0  0  0  0  0  0  0  0
    5.0125    3.8779    1.7530 C   0  0  0  0  0  0  0  0  0  0  0  0
    5.6607    3.8758    0.5185 C   0  0  0  0  0  0  0  0  0  0  0  0
    5.0124    3.3708   -0.6077 C   0  0  0  0  0  0  0  0  0  0  0  0
    3.7156    2.8651   -0.4996 C   0  0  0  0  0  0  0  0  0  0  0  0
    0.6292   -1.2638   -0.4992 N   0  0  0  0  0  0  0  0  0  0  0  0
   -0.2523   -1.7049   -1.5167 C   0  0  0  0  0  0  0  0  0  0  0  0
    0.0929   -1.7065   -2.8715 C   0  0  0  0  0  0  0  0  0  0  0  0
   -0.7859   -2.2197   -3.8329 C   0  0  0  0  0  0  0  0  0  0  0  0
   -2.0178   -2.7473   -3.4543 C   0  0  0  0  0  0  0  0  0  0  0  0
   -2.3883   -2.7387   -2.1121 C   0  0  0  0  0  0  0  0  0  0  0  0
   -1.5276   -2.1883   -1.1516 C   0  0  0  0  0  0  0  0  0  0  0  0
   -1.9574   -2.1433    0.2687 C   0  0  0  0  0  0  0  0  0  0  0  0
   -1.1870   -2.5935    1.1169 O   0  0  0  0  0  0  0  0  0  0  0  0
   -3.1586   -1.5343    0.5918 N   0  0  0  0  0  0  0  0  0  0  0  0
   -3.9387   -0.6401   -0.2575 C   0  0  0  0  0  0  0  0  0  0  0  0
   -5.0924   -0.1876    0.6263 C   0  0  0  0  0  0  0  0  0  0  0  0
   -4.4745   -0.1909    2.0164 C   0  0  0  0  0  0  0  0  0  0  0  0
   -3.5665   -1.4119    1.9834 C   0  0  0  0  0  0  0  0  0  0  0  0
    3.5493   -0.0062    0.4997 H   0  0  0  0  0  0  0  0  0  0  0  0
    2.6690   -1.3428    1.2096 H   0  0  0  0  0  0  0  0  0  0  0  0
    0.8086    0.1382    1.8863 H   0  0  0  0  0  0  0  0  0  0  0  0
    2.3297    0.7229    2.5365 H   0  0  0  0  0  0  0  0  0  0  0  0
    3.2188    3.3860    2.8288 H   0  0  0  0  0  0  0  0  0  0  0  0
    5.5148    4.2783    2.6297 H   0  0  0  0  0  0  0  0  0  0  0  0
    6.6698    4.2707    0.4325 H   0  0  0  0  0  0  0  0  0  0  0  0
    5.5143    3.3685   -1.5719 H   0  0  0  0  0  0  0  0  0  0  0  0
    3.2227    2.4690   -1.3857 H   0  0  0  0  0  0  0  0  0  0  0  0
    0.3170   -1.4814    0.4471 H   0  0  0  0  0  0  0  0  0  0  0  0
    1.0544   -1.3370   -3.2149 H   0  0  0  0  0  0  0  0  0  0  0  0
   -0.4912   -2.2221   -4.8801 H   0  0  0  0  0  0  0  0  0  0  0  0
   -2.6841   -3.1663   -4.2041 H   0  0  0  0  0  0  0  0  0  0  0  0
   -3.3425   -3.1665   -1.8158 H   0  0  0  0  0  0  0  0  0  0  0  0
   -4.2972   -1.1446   -1.1563 H   0  0  0  0  0  0  0  0  0  0  0  0
   -3.2988    0.2011   -0.5459 H   0  0  0  0  0  0  0  0  0  0  0  0
   -5.9093   -0.9181    0.5824 H   0  0  0  0  0  0  0  0  0  0  0  0
   -5.4883    0.7889    0.3350 H   0  0  0  0  0  0  0  0  0  0  0  0
   -3.8761    0.7174    2.1571 H   0  0  0  0  0  0  0  0  0  0  0  0
   -5.2178   -0.2394    2.8168 H   0  0  0  0  0  0  0  0  0  0  0  0
   -2.7080   -1.3091    2.6539 H   0  0  0  0  0  0  0  0  0  0  0  0
   -4.1159   -2.3227    2.2450 H   0  0  0  0  0  0  0  0  0  0  0  0
  1  2  2  0
  2  3  1  0
  3  4  1  0
  4  5  1  0
  5  6  1  0
  6  7  2  0
  7  8  1  0
  8  9  2  0
  9 10  1  0
 10 11  2  0
  2 12  1  0
 12 13  1  0
 13 14  2  0
 14 15  1  0
 15 16  2  0
 16 17  1  0
 17 18  2  0
 18 19  1  0
 19 20  2  0
 19 21  1  0
 21 22  1  0
 22 23  1  0
 23 24  1  0
 24 25  1  0
 11  6  1  0
 18 13  1  0
 25 21  1  0
  3 26  1  0
  3 27  1  0
  4 28  1  0
  4 29  1  0
  7 30  1  0
  8 31  1  0
  9 32  1  0
 10 33  1  0
 11 34  1  0
 12 35  1  0
 14 36  1  0
 15 37  1  0
 16 38  1  0
 17 39  1  0
 22 40  1  0
 22 41  1  0
 23 42  1  0
 23 43  1  0
 24 44  1  0
 24 45  1  0
 25 46  1  0
 25 47  1  0
M  END
$$$$
