
     RDKit          3D

 39 41  0  0  0  0  0  0  0  0999 V2000
   -1.9238   -1.8621   -1.8347 C   0  0  0  0  0  0  0  0  0  0  0  0
   -2.6815   -0.8317   -1.0377 C   0  0  0  0  0  0  0  0  0  0  0  0
   -4.0740   -0.7640   -1.2103 C   0  0  0  0  0  0  0  0  0  0  0  0
   -4.8349    0.1471   -0.4889 C   0  0  0  0  0  0  0  0  0  0  0  0
   -4.2085    1.0239    0.3894 C   0  0  0  0  0  0  0  0  0  0  0  0
   -2.8120    1.0049    0.5675 C   0  0  0  0  0  0  0  0  0  0  0  0
   -2.2357    2.0771    1.4537 C   0  0  0  0  0  0  0  0  0  0  0  0
   -2.0450    0.0323   -0.1106 C   0  0  0  0  0  0  0  0  0  0  0  0
   -0.6387   -0.0869    0.0357 N   0  0  0  0  0  0  0  0  0  0  0  0
    0.0550   -0.0303    1.2278 C   0  0  0  0  0  0  0  0  0  0  0  0
   -0.4551    0.0571    2.3428 O   0  0  0  0  0  0  0  0  0  0  0  0
    1.5794   -0.0587    1.1015 C   0  0  0  0  0  0  0  0  0  0  0  0
    2.1769    1.2784    0.6262 C   0  0  0  0  0  0  0  0  0  0  0  0
    3.1866    0.8421   -0.4518 C   0  0  0  0  0  0  0  0  0  0  0  0
    4.3196    0.0253    0.1981 C   0  0  0  0  0  0  0  0  0  0  0  0
    3.6447   -1.3211    0.5141 C   0  0  0  0  0  0  0  0  0  0  0  0
    2.1816   -1.0721    0.0966 C   0  0  0  0  0  0  0  0  0  0  0  0
    2.3983   -0.2425   -1.1764 C   0  0  0  0  0  0  0  0  0  0  0  0
   -1.2178   -1.3725   -2.5132 H   0  0  0  0  0  0  0  0  0  0  0  0
   -1.3839   -2.5405   -1.1661 H   0  0  0  0  0  0  0  0  0  0  0  0
   -2.5944   -2.4751   -2.4466 H   0  0  0  0  0  0  0  0  0  0  0  0
   -4.5782   -1.4336   -1.9038 H   0  0  0  0  0  0  0  0  0  0  0  0
   -5.9130    0.1847   -0.6197 H   0  0  0  0  0  0  0  0  0  0  0  0
   -4.8155    1.7496    0.9278 H   0  0  0  0  0  0  0  0  0  0  0  0
   -1.2177    2.3473    1.1590 H   0  0  0  0  0  0  0  0  0  0  0  0
   -2.2557    1.7627    2.5009 H   0  0  0  0  0  0  0  0  0  0  0  0
   -2.8228    2.9993    1.3689 H   0  0  0  0  0  0  0  0  0  0  0  0
   -0.1778   -0.6154   -0.6876 H   0  0  0  0  0  0  0  0  0  0  0  0
    1.9482   -0.2895    2.1106 H   0  0  0  0  0  0  0  0  0  0  0  0
    1.4129    1.9369    0.1972 H   0  0  0  0  0  0  0  0  0  0  0  0
    2.6636    1.8162    1.4467 H   0  0  0  0  0  0  0  0  0  0  0  0
    3.5409    1.6651   -1.0754 H   0  0  0  0  0  0  0  0  0  0  0  0
    4.7171    0.5069    1.0972 H   0  0  0  0  0  0  0  0  0  0  0  0
    5.1466   -0.1259   -0.5045 H   0  0  0  0  0  0  0  0  0  0  0  0
    4.0907   -2.1182   -0.0921 H   0  0  0  0  0  0  0  0  0  0  0  0
    3.7492   -1.5986    1.5676 H   0  0  0  0  0  0  0  0  0  0  0  0
    1.6031   -1.9889   -0.0351 H   0  0  0  0  0  0  0  0  0  0  0  0
    2.9870   -0.7683   -1.9362 H   0  0  0  0  0  0  0  0  0  0  0  0
    1.4845    0.1387   -1.6383 H   0  0  0  0  0  0  0  0  0  0  0  0
  1  2  1  0
  2  3  2  0
  3  4  1  0
  4  5  2  0
  5  6  1  0
  6  7  1  0
  6  8  2  0
  8  9  1  0
  9 10  1  0
 10 11  2  0
 10 12  1  0
 12 13  1  0
 13 14  1  0
 14 15  1  0
 15 16  1  0
 16 17  1  0
 17 18  1  0
  8  2  1  0
 17 12  1  0
 18 14  1  0
  1 19  1  0
  1 20  1  0
  1 21  1  0
  3 22  1  0
  4 23  1  0
  5 24  1  0
  7 25  1  0
  7 26  1  0
  7 27  1  0
  9 28  1  0
 12 29  1  0
 13 30  1  0
 13 31  1  0
 14 32  1  0
 15 33  1  0
 15 34  1  0
 16 35  1  0
 16 36  1  0
 17 37  1  0
 18 38  1  0
 18 39  1  0
M  END
$$$$
