
     RDKit          3D

 39 40  0  0  0  0  0  0  0  0999 V2000
   -5.5417   -1.7812   -1.5712 C   0  0  0  0  0  0  0  0  0  0  0  0
   -5.2052   -1.0772   -0.2658 C   0  0  0  0  0  0  0  0  0  0  0  0
   -3.9177   -0.3842   -0.3397 N   0  0  0  0  0  0  0  0  0  0  0  0
   -3.9360    1.0070   -0.7975 C   0  0  0  0  0  0  0  0  0  0  0  0
   -4.1791    1.9752    0.3500 C   0  0  0  0  0  0  0  0  0  0  0  0
   -2.7613   -1.1004   -0.0069 C   0  0  0  0  0  0  0  0  0  0  0  0
   -2.8209   -2.2885    0.3197 O   0  0  0  0  0  0  0  0  0  0  0  0
   -1.4379   -0.3463   -0.1064 C   0  0  0  0  0  0  0  0  0  0  0  0
   -0.0787   -1.2277    0.7206 S   0  0  0  0  0  0  0  0  0  0  0  0
    1.2493   -0.2217    0.2591 C   0  0  0  0  0  0  0  0  0  0  0  0
    1.1908    0.9003   -0.4196 N   0  0  0  0  0  0  0  0  0  0  0  0
    2.4815    1.3524   -0.5826 N   0  0  0  0  0  0  0  0  0  0  0  0
    3.3015    0.4997    0.0111 C   0  0  0  0  0  0  0  0  0  0  0  0
    4.7533    0.5984    0.0571 C   0  0  0  0  0  0  0  0  0  0  0  0
    5.5034    0.3734   -1.0968 C   0  0  0  0  0  0  0  0  0  0  0  0
    6.8805    0.4937   -1.0197 C   0  0  0  0  0  0  0  0  0  0  0  0
    7.5415    0.8251    0.1109 N   0  0  0  0  0  0  0  0  0  0  0  0
    6.7930    1.0482    1.2117 C   0  0  0  0  0  0  0  0  0  0  0  0
    5.4115    0.9511    1.2361 C   0  0  0  0  0  0  0  0  0  0  0  0
    2.5530   -0.5176    0.5671 N   0  0  0  0  0  0  0  0  0  0  0  0
    3.0462   -1.6590    1.2932 N   0  0  0  0  0  0  0  0  0  0  0  0
   -4.7856   -2.5324   -1.8201 H   0  0  0  0  0  0  0  0  0  0  0  0
   -6.5110   -2.2833   -1.4929 H   0  0  0  0  0  0  0  0  0  0  0  0
   -5.5910   -1.0701   -2.4026 H   0  0  0  0  0  0  0  0  0  0  0  0
   -5.1786   -1.8128    0.5446 H   0  0  0  0  0  0  0  0  0  0  0  0
   -5.9861   -0.3521   -0.0123 H   0  0  0  0  0  0  0  0  0  0  0  0
   -2.9906    1.2531   -1.2903 H   0  0  0  0  0  0  0  0  0  0  0  0
   -4.7212    1.1163   -1.5533 H   0  0  0  0  0  0  0  0  0  0  0  0
   -4.1624    3.0074   -0.0149 H   0  0  0  0  0  0  0  0  0  0  0  0
   -5.1529    1.7967    0.8186 H   0  0  0  0  0  0  0  0  0  0  0  0
   -3.4149    1.8725    1.1267 H   0  0  0  0  0  0  0  0  0  0  0  0
   -1.5318    0.6311    0.3720 H   0  0  0  0  0  0  0  0  0  0  0  0
   -1.1997   -0.2255   -1.1675 H   0  0  0  0  0  0  0  0  0  0  0  0
    5.0296    0.1091   -2.0362 H   0  0  0  0  0  0  0  0  0  0  0  0
    7.5081    0.3268   -1.8930 H   0  0  0  0  0  0  0  0  0  0  0  0
    7.3537    1.3190    2.1037 H   0  0  0  0  0  0  0  0  0  0  0  0
    4.8687    1.1637    2.1492 H   0  0  0  0  0  0  0  0  0  0  0  0
    2.2991   -2.3474    1.4268 H   0  0  0  0  0  0  0  0  0  0  0  0
    3.3394   -1.3927    2.2317 H   0  0  0  0  0  0  0  0  0  0  0  0
  1  2  1  0
  2  3  1  0
  3  4  1  0
  4  5  1  0
  3  6  1  0
  6  7  2  0
  6  8  1  0
  8  9  1  0
  9 10  1  0
 10 11  2  0
 11 12  1  0
 12 13  2  0
 13 14  1  0
 14 15  2  0
 15 16  1  0
 16 17  2  0
 17 18  1  0
 18 19  2  0
 13 20  1  0
 20 21  1  0
 20 10  1  0
 19 14  1  0
  1 22  1  0
  1 23  1  0
  1 24  1  0
  2 25  1  0
  2 26  1  0
  4 27  1  0
  4 28  1  0
  5 29  1  0
  5 30  1  0
  5 31  1  0
  8 32  1  0
  8 33  1  0
 15 34  1  0
 16 35  1  0
 18 36  1  0
 19 37  1  0
 21 38  1  0
 21 39  1  0
M  END
$$$$
