
     RDKit          3D

 50 53  0  0  0  0  0  0  0  0999 V2000
   -1.4599   -1.1459    2.0615 C   0  0  0  0  0  0  0  0  0  0  0  0
   -2.7069   -1.0574    1.3844 O   0  0  0  0  0  0  0  0  0  0  0  0
   -2.6098   -0.4708    0.1392 C   0  0  0  0  0  0  0  0  0  0  0  0
   -1.4443   -0.0023   -0.2761 N   0  0  0  0  0  0  0  0  0  0  0  0
   -1.4700    0.5285   -1.4920 C   0  0  0  0  0  0  0  0  0  0  0  0
   -0.2845    1.0679   -2.0544 N   0  0  0  0  0  0  0  0  0  0  0  0
    0.9103    0.4555   -1.7534 N   0  0  0  0  0  0  0  0  0  0  0  0
    1.4075    0.8054   -0.6060 C   0  0  0  0  0  0  0  0  0  0  0  0
    2.6343    0.2366   -0.1290 C   0  0  0  0  0  0  0  0  0  0  0  0
    3.5018   -0.6887   -0.6701 C   0  0  0  0  0  0  0  0  0  0  0  0
    4.5477   -0.8615    0.2696 C   0  0  0  0  0  0  0  0  0  0  0  0
    4.2670   -0.0275    1.3342 C   0  0  0  0  0  0  0  0  0  0  0  0
    4.9113    0.2833    2.6083 C   0  0  0  0  0  0  0  0  0  0  0  0
    4.1113    0.5455    3.7350 C   0  0  0  0  0  0  0  0  0  0  0  0
    4.6791    0.8192    4.9864 C   0  0  0  0  0  0  0  0  0  0  0  0
    6.0637    0.8387    5.1437 C   0  0  0  0  0  0  0  0  0  0  0  0
    6.8854    0.5912    4.0480 C   0  0  0  0  0  0  0  0  0  0  0  0
    6.3001    0.3224    2.8004 C   0  0  0  0  0  0  0  0  0  0  0  0
    7.2037    0.1185    1.6916 N   0  0  0  0  0  4  0  0  0  0  0  0
    7.3495    1.0577    0.8996 O   0  0  0  0  0  0  0  0  0  0  0  0
    7.7802   -0.9761    1.6352 O   0  0  0  0  0  1  0  0  0  0  0  0
    3.0940    0.6338    1.0942 O   0  0  0  0  0  0  0  0  0  0  0  0
   -2.5605    0.6110   -2.2481 N   0  0  0  0  0  0  0  0  0  0  0  0
   -3.6870    0.1194   -1.7399 C   0  0  0  0  0  0  0  0  0  0  0  0
   -4.8464    0.2137   -2.4820 N   0  0  0  0  0  0  0  0  0  0  0  0
   -6.0345   -0.4897   -1.9905 C   0  0  0  0  0  0  0  0  0  0  0  0
   -7.2250   -0.1923   -2.9151 C   0  0  0  0  0  0  0  0  0  0  0  0
   -7.0151   -0.5920   -4.2786 O   0  0  0  0  0  0  0  0  0  0  0  0
   -5.6332   -0.6010   -4.6672 C   0  0  0  0  0  0  0  0  0  0  0  0
   -4.7694    0.4354   -3.9286 C   0  0  0  0  0  0  0  0  0  0  0  0
   -3.7483   -0.4326   -0.5361 N   0  0  0  0  0  0  0  0  0  0  0  0
   -1.6354   -1.6430    3.0205 H   0  0  0  0  0  0  0  0  0  0  0  0
   -1.0510   -0.1516    2.2734 H   0  0  0  0  0  0  0  0  0  0  0  0
   -0.7418   -1.7541    1.4997 H   0  0  0  0  0  0  0  0  0  0  0  0
   -0.4959    1.1222   -3.0513 H   0  0  0  0  0  0  0  0  0  0  0  0
    0.9097    1.5478    0.0438 H   0  0  0  0  0  0  0  0  0  0  0  0
    3.3852   -1.1774   -1.6283 H   0  0  0  0  0  0  0  0  0  0  0  0
    5.3959   -1.5259    0.1704 H   0  0  0  0  0  0  0  0  0  0  0  0
    3.0251    0.5305    3.6495 H   0  0  0  0  0  0  0  0  0  0  0  0
    4.0332    1.0156    5.8400 H   0  0  0  0  0  0  0  0  0  0  0  0
    6.4985    1.0516    6.1178 H   0  0  0  0  0  0  0  0  0  0  0  0
    7.9668    0.6149    4.1648 H   0  0  0  0  0  0  0  0  0  0  0  0
   -5.8463   -1.5707   -1.9779 H   0  0  0  0  0  0  0  0  0  0  0  0
   -6.2893   -0.1631   -0.9755 H   0  0  0  0  0  0  0  0  0  0  0  0
   -7.4455    0.8819   -2.9177 H   0  0  0  0  0  0  0  0  0  0  0  0
   -8.1208   -0.7087   -2.5559 H   0  0  0  0  0  0  0  0  0  0  0  0
   -5.5957   -0.4212   -5.7463 H   0  0  0  0  0  0  0  0  0  0  0  0
   -5.2466   -1.6121   -4.4916 H   0  0  0  0  0  0  0  0  0  0  0  0
   -5.1486    1.4426   -4.1376 H   0  0  0  0  0  0  0  0  0  0  0  0
   -3.7493    0.3745   -4.3232 H   0  0  0  0  0  0  0  0  0  0  0  0
  1  2  1  0
  2  3  1  0
  3  4  2  0
  4  5  1  0
  5  6  1  0
  6  7  1  0
  7  8  2  3
  8  9  1  0
  9 10  2  0
 10 11  1  0
 11 12  2  0
 12 13  1  0
 13 14  2  0
 14 15  1  0
 15 16  2  0
 16 17  1  0
 17 18  2  0
 18 19  1  0
 19 20  2  0
 19 21  1  0
 12 22  1  0
  5 23  2  0
 23 24  1  0
 24 25  1  0
 25 26  1  0
 26 27  1  0
 27 28  1  0
 28 29  1  0
 29 30  1  0
 24 31  2  0
 31  3  1  0
 22  9  1  0
 30 25  1  0
 18 13  1  0
  1 32  1  0
  1 33  1  0
  1 34  1  0
  6 35  1  0
  8 36  1  0
 10 37  1  0
 11 38  1  0
 14 39  1  0
 15 40  1  0
 16 41  1  0
 17 42  1  0
 26 43  1  0
 26 44  1  0
 27 45  1  0
 27 46  1  0
 29 47  1  0
 29 48  1  0
 30 49  1  0
 30 50  1  0
M  CHG  2  19   1  21  -1
M  END
$$$$
