
     RDKit          3D

 34 36  0  0  0  0  0  0  0  0999 V2000
    0.7430   -0.5681    1.5673 O   0  0  0  0  0  0  0  0  0  0  0  0
    1.3884    0.3088    1.0019 C   0  0  0  0  0  0  0  0  0  0  0  0
    1.0842    1.6683    1.0334 N   0  0  0  0  0  0  0  0  0  0  0  0
    0.1009    2.2917    1.7417 C   0  0  0  0  0  0  0  0  0  0  0  0
    0.4086    3.8154    2.3614 S   0  0  0  0  0  0  0  0  0  0  0  0
   -1.0984    1.7136    1.9880 N   0  0  0  0  0  0  0  0  0  0  0  0
   -1.8771    0.8577    1.1775 C   0  0  0  0  0  0  0  0  0  0  0  0
   -3.0262    0.2820    1.7801 C   0  0  0  0  0  0  0  0  0  0  0  0
   -3.8892   -0.5607    1.0668 C   0  0  0  0  0  0  0  0  0  0  0  0
   -3.5750   -0.7870   -0.2493 C   0  0  0  0  0  0  0  0  0  0  0  0
   -4.2299   -1.5592   -1.2017 N   0  0  0  0  0  0  0  0  0  0  0  0
   -3.5304   -1.4681   -2.4135 C   0  0  0  0  0  0  0  0  0  0  0  0
   -3.8174   -2.0155   -3.4628 O   0  0  0  0  0  0  0  0  0  0  0  0
   -2.4364   -0.6216   -2.1832 N   0  0  0  0  0  0  0  0  0  0  0  0
   -2.4625   -0.2090   -0.8546 C   0  0  0  0  0  0  0  0  0  0  0  0
   -1.6006    0.6222   -0.1761 C   0  0  0  0  0  0  0  0  0  0  0  0
    2.6058   -0.0893    0.2345 C   0  0  0  0  0  0  0  0  0  0  0  0
    2.8790   -1.4574    0.0778 C   0  0  0  0  0  0  0  0  0  0  0  0
    4.0023   -1.8812   -0.6386 C   0  0  0  0  0  0  0  0  0  0  0  0
    4.8648   -0.9437   -1.2048 C   0  0  0  0  0  0  0  0  0  0  0  0
    4.6048    0.4170   -1.0539 C   0  0  0  0  0  0  0  0  0  0  0  0
    3.4827    0.8339   -0.3389 C   0  0  0  0  0  0  0  0  0  0  0  0
    3.2740    2.1533   -0.2103 F   0  0  0  0  0  0  0  0  0  0  0  0
    1.8531    2.2917    0.8129 H   0  0  0  0  0  0  0  0  0  0  0  0
   -1.5863    2.1108    2.7836 H   0  0  0  0  0  0  0  0  0  0  0  0
   -3.2415    0.4736    2.8296 H   0  0  0  0  0  0  0  0  0  0  0  0
   -4.7553   -1.0080    1.5378 H   0  0  0  0  0  0  0  0  0  0  0  0
   -5.0657   -2.1057   -1.0768 H   0  0  0  0  0  0  0  0  0  0  0  0
   -1.7577   -0.3804   -2.8857 H   0  0  0  0  0  0  0  0  0  0  0  0
   -0.7691    1.0807   -0.6909 H   0  0  0  0  0  0  0  0  0  0  0  0
    2.2150   -2.2036    0.5129 H   0  0  0  0  0  0  0  0  0  0  0  0
    4.2018   -2.9448   -0.7528 H   0  0  0  0  0  0  0  0  0  0  0  0
    5.7391   -1.2743   -1.7612 H   0  0  0  0  0  0  0  0  0  0  0  0
    5.2713    1.1568   -1.4877 H   0  0  0  0  0  0  0  0  0  0  0  0
  1  2  2  0
  2  3  1  0
  3  4  1  0
  4  5  2  0
  4  6  1  0
  6  7  1  0
  7  8  2  0
  8  9  1  0
  9 10  2  0
 10 11  1  0
 11 12  1  0
 12 13  2  0
 12 14  1  0
 14 15  1  0
 15 16  2  0
  2 17  1  0
 17 18  2  0
 18 19  1  0
 19 20  2  0
 20 21  1  0
 21 22  2  0
 22 23  1  0
 16  7  1  0
 22 17  1  0
 15 10  1  0
  3 24  1  0
  6 25  1  0
  8 26  1  0
  9 27  1  0
 11 28  1  0
 14 29  1  0
 16 30  1  0
 18 31  1  0
 19 32  1  0
 20 33  1  0
 21 34  1  0
M  END
$$$$
