
     RDKit          3D

 68 71  0  0  0  0  0  0  0  0999 V2000
    7.2332    1.6406   -5.8224 C   0  0  0  0  0  0  0  0  0  0  0  0
    6.7927    0.4029   -5.2781 O   0  0  0  0  0  0  0  0  0  0  0  0
    5.6333    0.4325   -4.5537 C   0  0  0  0  0  0  0  0  0  0  0  0
    4.9965    1.5775   -4.0768 C   0  0  0  0  0  0  0  0  0  0  0  0
    3.7995    1.4718   -3.3601 C   0  0  0  0  0  0  0  0  0  0  0  0
    3.2285    0.2182   -3.1068 C   0  0  0  0  0  0  0  0  0  0  0  0
    1.9834    0.0759   -2.3405 C   0  0  0  0  0  0  0  0  0  0  0  0
    0.8063    0.6655   -2.6289 C   0  0  0  0  0  0  0  0  0  0  0  0
    0.5789    1.4892   -3.7656 C   0  0  0  0  0  0  0  0  0  0  0  0
    0.4503    2.2069   -4.6688 N   0  0  0  0  0  0  0  0  0  0  0  0
   -0.3582    0.4158   -1.7317 C   0  0  0  0  0  0  0  0  0  0  0  0
   -1.4223    0.0362   -2.2036 O   0  0  0  0  0  0  0  0  0  0  0  0
   -0.0874    0.6780   -0.4081 N   0  0  0  0  0  0  0  0  0  0  0  0
   -0.9660    0.6470    0.6954 C   0  0  0  0  0  0  0  0  0  0  0  0
   -2.3246    0.3589    0.6040 C   0  0  0  0  0  0  0  0  0  0  0  0
   -3.1067    0.3956    1.7616 C   0  0  0  0  0  0  0  0  0  0  0  0
   -4.8506    0.0850    1.6136 S   0  0  0  0  0  6  0  0  0  0  0  0
   -5.4358    0.1346    2.9364 O   0  0  0  0  0  0  0  0  0  0  0  0
   -5.3372    0.9178    0.5355 O   0  0  0  0  0  0  0  0  0  0  0  0
   -4.8776   -1.5417    1.1081 N   0  0  0  0  0  0  0  0  0  0  0  0
   -4.5554   -2.5459    2.1433 C   0  0  0  0  0  0  0  0  0  0  0  0
   -4.1573   -3.8571    1.4714 C   0  0  0  0  0  0  0  0  0  0  0  0
   -5.0497   -4.2272    0.2853 C   0  0  0  0  0  0  0  0  0  0  0  0
   -6.3265   -3.3987    0.2535 C   0  0  0  0  0  0  0  0  0  0  0  0
   -6.0327   -1.8990    0.2410 C   0  0  0  0  0  0  0  0  0  0  0  0
   -2.5488    0.7094    3.0021 C   0  0  0  0  0  0  0  0  0  0  0  0
   -1.1821    0.9862    3.0912 C   0  0  0  0  0  0  0  0  0  0  0  0
   -0.3734    0.9642    1.9479 C   0  0  0  0  0  0  0  0  0  0  0  0
    1.0053    1.2440    1.9741 N   0  0  0  0  0  0  0  0  0  0  0  0
    1.3780    2.6449    2.2248 C   0  0  0  0  0  0  0  0  0  0  0  0
    1.6794    2.9203    3.6947 C   0  0  0  0  0  0  0  0  0  0  0  0
    2.6486    1.8990    4.2798 C   0  0  0  0  0  0  0  0  0  0  0  0
    2.1484    0.4766    4.0553 C   0  0  0  0  0  0  0  0  0  0  0  0
    1.8570    0.2120    2.5808 C   0  0  0  0  0  0  0  0  0  0  0  0
    3.8890   -0.9287   -3.5543 C   0  0  0  0  0  0  0  0  0  0  0  0
    5.0829   -0.8196   -4.2719 C   0  0  0  0  0  0  0  0  0  0  0  0
    7.6142    2.3000   -5.0350 H   0  0  0  0  0  0  0  0  0  0  0  0
    6.4388    2.1310   -6.3989 H   0  0  0  0  0  0  0  0  0  0  0  0
    8.0576    1.4278   -6.5106 H   0  0  0  0  0  0  0  0  0  0  0  0
    5.4012    2.5695   -4.2473 H   0  0  0  0  0  0  0  0  0  0  0  0
    3.3284    2.3850   -3.0028 H   0  0  0  0  0  0  0  0  0  0  0  0
    2.0643   -0.5968   -1.4864 H   0  0  0  0  0  0  0  0  0  0  0  0
    0.8436    0.9806   -0.1282 H   0  0  0  0  0  0  0  0  0  0  0  0
   -2.7992    0.1289   -0.3455 H   0  0  0  0  0  0  0  0  0  0  0  0
   -5.4240   -2.6983    2.7941 H   0  0  0  0  0  0  0  0  0  0  0  0
   -3.7238   -2.2114    2.7711 H   0  0  0  0  0  0  0  0  0  0  0  0
   -4.1815   -4.6589    2.2203 H   0  0  0  0  0  0  0  0  0  0  0  0
   -3.1157   -3.7984    1.1247 H   0  0  0  0  0  0  0  0  0  0  0  0
   -4.4891   -4.0718   -0.6465 H   0  0  0  0  0  0  0  0  0  0  0  0
   -5.2930   -5.2954    0.3241 H   0  0  0  0  0  0  0  0  0  0  0  0
   -6.9280   -3.6632   -0.6244 H   0  0  0  0  0  0  0  0  0  0  0  0
   -6.9392   -3.6424    1.1323 H   0  0  0  0  0  0  0  0  0  0  0  0
   -5.7770   -1.5928   -0.7819 H   0  0  0  0  0  0  0  0  0  0  0  0
   -6.9383   -1.3563    0.5414 H   0  0  0  0  0  0  0  0  0  0  0  0
   -3.1654    0.7524    3.8963 H   0  0  0  0  0  0  0  0  0  0  0  0
   -0.7658    1.2312    4.0621 H   0  0  0  0  0  0  0  0  0  0  0  0
    0.6031    3.3340    1.8708 H   0  0  0  0  0  0  0  0  0  0  0  0
    2.2750    2.8613    1.6304 H   0  0  0  0  0  0  0  0  0  0  0  0
    0.7509    2.9165    4.2773 H   0  0  0  0  0  0  0  0  0  0  0  0
    2.1031    3.9262    3.7966 H   0  0  0  0  0  0  0  0  0  0  0  0
    3.6358    2.0188    3.8133 H   0  0  0  0  0  0  0  0  0  0  0  0
    2.7790    2.0853    5.3526 H   0  0  0  0  0  0  0  0  0  0  0  0
    1.2508    0.3047    4.6584 H   0  0  0  0  0  0  0  0  0  0  0  0
    2.9022   -0.2355    4.4084 H   0  0  0  0  0  0  0  0  0  0  0  0
    1.4238   -0.7884    2.4502 H   0  0  0  0  0  0  0  0  0  0  0  0
    2.8051    0.2030    2.0300 H   0  0  0  0  0  0  0  0  0  0  0  0
    3.4800   -1.9180   -3.3605 H   0  0  0  0  0  0  0  0  0  0  0  0
    5.5840   -1.7175   -4.6277 H   0  0  0  0  0  0  0  0  0  0  0  0
  1  2  1  0
  2  3  1  0
  3  4  2  0
  4  5  1  0
  5  6  2  0
  6  7  1  0
  7  8  2  3
  8  9  1  0
  9 10  3  0
  8 11  1  0
 11 12  2  0
 11 13  1  0
 13 14  1  0
 14 15  2  0
 15 16  1  0
 16 17  1  0
 17 18  2  0
 17 19  2  0
 17 20  1  0
 20 21  1  0
 21 22  1  0
 22 23  1  0
 23 24  1  0
 24 25  1  0
 16 26  2  0
 26 27  1  0
 27 28  2  0
 28 29  1  0
 29 30  1  0
 30 31  1  0
 31 32  1  0
 32 33  1  0
 33 34  1  0
  6 35  1  0
 35 36  2  0
 36  3  1  0
 28 14  1  0
 34 29  1  0
 25 20  1  0
  1 37  1  0
  1 38  1  0
  1 39  1  0
  4 40  1  0
  5 41  1  0
  7 42  1  0
 13 43  1  0
 15 44  1  0
 21 45  1  0
 21 46  1  0
 22 47  1  0
 22 48  1  0
 23 49  1  0
 23 50  1  0
 24 51  1  0
 24 52  1  0
 25 53  1  0
 25 54  1  0
 26 55  1  0
 27 56  1  0
 30 57  1  0
 30 58  1  0
 31 59  1  0
 31 60  1  0
 32 61  1  0
 32 62  1  0
 33 63  1  0
 33 64  1  0
 34 65  1  0
 34 66  1  0
 35 67  1  0
 36 68  1  0
M  END
$$$$
