
     RDKit          3D

 46 47  0  0  0  0  0  0  0  0999 V2000
    0.8371    0.1163    4.9461 C   0  0  0  0  0  0  0  0  0  0  0  0
   -0.6647   -0.7585    4.4423 S   0  0  0  0  0  0  0  0  0  0  0  0
   -0.8139   -0.1481    2.7280 C   0  0  0  0  0  0  0  0  0  0  0  0
    0.1904   -0.8243    1.7912 C   0  0  0  0  0  0  0  0  0  0  0  0
    0.0808   -0.3337    0.3370 C   0  0  0  0  0  0  0  0  0  0  0  0
   -1.2507   -0.5656   -0.2167 N   0  0  0  0  0  0  0  0  0  0  0  0
   -1.6323   -1.7940   -0.7009 C   0  0  0  0  0  0  0  0  0  0  0  0
   -0.9423   -2.8013   -0.6295 O   0  0  0  0  0  0  0  0  0  0  0  0
   -2.9774   -1.8312   -1.3112 C   0  0  0  0  0  0  0  0  0  0  0  0
   -4.0703   -1.4147   -0.5346 C   0  0  0  0  0  0  0  0  0  0  0  0
   -5.3597   -1.4524   -1.0663 C   0  0  0  0  0  0  0  0  0  0  0  0
   -5.5616   -1.9053   -2.3692 C   0  0  0  0  0  0  0  0  0  0  0  0
   -4.4748   -2.3199   -3.1432 C   0  0  0  0  0  0  0  0  0  0  0  0
   -3.1784   -2.2859   -2.6181 C   0  0  0  0  0  0  0  0  0  0  0  0
   -1.8823   -2.7598   -3.6560 Cl  0  0  0  0  0  0  0  0  0  0  0  0
    0.3834    1.1796    0.2341 C   0  0  0  0  0  0  0  0  0  0  0  0
   -0.5574    1.9720    0.0916 O   0  0  0  0  0  0  0  0  0  0  0  0
    1.6926    1.6227    0.3933 N   0  0  0  0  0  0  0  0  0  0  0  0
    1.9122    3.0625    0.3779 C   0  0  0  0  0  0  0  0  0  0  0  0
    2.8736    0.7771    0.1929 C   0  0  0  0  0  0  0  0  0  0  0  0
    3.4105    0.9285   -1.2010 C   0  0  0  0  0  0  0  0  0  0  0  0
    4.4862    1.6888   -1.6222 C   0  0  0  0  0  0  0  0  0  0  0  0
    4.7111    1.5848   -3.0253 C   0  0  0  0  0  0  0  0  0  0  0  0
    3.8055    0.7435   -3.6303 C   0  0  0  0  0  0  0  0  0  0  0  0
    2.6962    0.0836   -2.5114 S   0  0  0  0  0  0  0  0  0  0  0  0
    1.7029   -0.2416    4.3845 H   0  0  0  0  0  0  0  0  0  0  0  0
    0.7205    1.1933    4.8001 H   0  0  0  0  0  0  0  0  0  0  0  0
    1.0180   -0.0701    6.0081 H   0  0  0  0  0  0  0  0  0  0  0  0
   -0.6975    0.9398    2.7347 H   0  0  0  0  0  0  0  0  0  0  0  0
   -1.8369   -0.3649    2.4041 H   0  0  0  0  0  0  0  0  0  0  0  0
    1.2088   -0.6480    2.1529 H   0  0  0  0  0  0  0  0  0  0  0  0
    0.0302   -1.9098    1.8136 H   0  0  0  0  0  0  0  0  0  0  0  0
    0.7771   -0.8907   -0.2947 H   0  0  0  0  0  0  0  0  0  0  0  0
   -1.8097    0.2620   -0.4113 H   0  0  0  0  0  0  0  0  0  0  0  0
   -3.9225   -1.0799    0.4899 H   0  0  0  0  0  0  0  0  0  0  0  0
   -6.2073   -1.1361   -0.4623 H   0  0  0  0  0  0  0  0  0  0  0  0
   -6.5664   -1.9373   -2.7844 H   0  0  0  0  0  0  0  0  0  0  0  0
   -4.6451   -2.6660   -4.1602 H   0  0  0  0  0  0  0  0  0  0  0  0
    2.0134    3.4015   -0.6572 H   0  0  0  0  0  0  0  0  0  0  0  0
    2.8179    3.3028    0.9423 H   0  0  0  0  0  0  0  0  0  0  0  0
    1.0701    3.5891    0.8372 H   0  0  0  0  0  0  0  0  0  0  0  0
    2.6594   -0.2729    0.4019 H   0  0  0  0  0  0  0  0  0  0  0  0
    3.6288    1.0873    0.9253 H   0  0  0  0  0  0  0  0  0  0  0  0
    5.0857    2.2971   -0.9554 H   0  0  0  0  0  0  0  0  0  0  0  0
    5.4974    2.0993   -3.5641 H   0  0  0  0  0  0  0  0  0  0  0  0
    3.7413    0.4803   -4.6774 H   0  0  0  0  0  0  0  0  0  0  0  0
  1  2  1  0
  2  3  1  0
  3  4  1  0
  4  5  1  0
  5  6  1  0
  6  7  1  0
  7  8  2  0
  7  9  1  0
  9 10  2  0
 10 11  1  0
 11 12  2  0
 12 13  1  0
 13 14  2  0
 14 15  1  0
  5 16  1  0
 16 17  2  0
 16 18  1  0
 18 19  1  0
 18 20  1  0
 20 21  1  0
 21 22  2  0
 22 23  1  0
 23 24  2  0
 24 25  1  0
 14  9  1  0
 25 21  1  0
  1 26  1  0
  1 27  1  0
  1 28  1  0
  3 29  1  0
  3 30  1  0
  4 31  1  0
  4 32  1  0
  5 33  1  0
  6 34  1  0
 10 35  1  0
 11 36  1  0
 12 37  1  0
 13 38  1  0
 19 39  1  0
 19 40  1  0
 19 41  1  0
 20 42  1  0
 20 43  1  0
 22 44  1  0
 23 45  1  0
 24 46  1  0
M  END
$$$$
