
     RDKit          3D

 22 23  0  0  0  0  0  0  0  0999 V2000
   -4.1688    0.2773    0.3722 C   0  0  0  0  0  0  0  0  0  0  0  0
   -2.6782    0.2092    0.2212 C   0  0  0  0  0  0  0  0  0  0  0  0
   -2.0343    0.9248   -0.7905 C   0  0  0  0  0  0  0  0  0  0  0  0
   -0.6473    0.8342   -0.9491 C   0  0  0  0  0  0  0  0  0  0  0  0
    0.1343    0.0214   -0.1102 C   0  0  0  0  0  0  0  0  0  0  0  0
    1.5925   -0.0315   -0.3280 C   0  0  0  0  0  0  0  0  0  0  0  0
    2.2217    0.5808   -1.3155 N   0  0  0  0  0  0  0  0  0  0  0  0
    3.5853    0.3710   -1.2941 N   0  0  0  0  0  0  0  0  0  0  0  0
    3.9584   -0.3874   -0.2912 C   0  0  0  0  0  0  0  0  0  0  0  0
    5.2334   -0.7373   -0.0315 N   0  0  0  0  0  0  0  0  0  0  0  0
    2.6638   -0.8971    0.7093 S   0  0  0  0  0  0  0  0  0  0  0  0
   -0.5279   -0.7060    0.8916 C   0  0  0  0  0  0  0  0  0  0  0  0
   -1.9166   -0.6168    1.0522 C   0  0  0  0  0  0  0  0  0  0  0  0
   -4.6428   -0.4943   -0.2422 H   0  0  0  0  0  0  0  0  0  0  0  0
   -4.5483    1.2575    0.0649 H   0  0  0  0  0  0  0  0  0  0  0  0
   -4.4627    0.1286    1.4166 H   0  0  0  0  0  0  0  0  0  0  0  0
   -2.6041    1.5601   -1.4654 H   0  0  0  0  0  0  0  0  0  0  0  0
   -0.1762    1.4095   -1.7458 H   0  0  0  0  0  0  0  0  0  0  0  0
    5.9363   -0.1672   -0.4908 H   0  0  0  0  0  0  0  0  0  0  0  0
    5.4655   -0.9729    0.9257 H   0  0  0  0  0  0  0  0  0  0  0  0
    0.0143   -1.3633    1.5666 H   0  0  0  0  0  0  0  0  0  0  0  0
   -2.3983   -1.2006    1.8340 H   0  0  0  0  0  0  0  0  0  0  0  0
  1  2  1  0
  2  3  2  0
  3  4  1  0
  4  5  2  0
  5  6  1  0
  6  7  2  0
  7  8  1  0
  8  9  2  0
  9 10  1  0
  9 11  1  0
  5 12  1  0
 12 13  2  0
 13  2  1  0
 11  6  1  0
  1 14  1  0
  1 15  1  0
  1 16  1  0
  3 17  1  0
  4 18  1  0
 10 19  1  0
 10 20  1  0
 12 21  1  0
 13 22  1  0
M  END
$$$$
