
     RDKit          3D

 53 55  0  0  0  0  0  0  0  0999 V2000
    4.6749   -3.4894    1.2711 C   0  0  0  0  0  0  0  0  0  0  0  0
    5.0420   -2.3904    0.4477 O   0  0  0  0  0  0  0  0  0  0  0  0
    4.0903   -1.4311    0.2233 C   0  0  0  0  0  0  0  0  0  0  0  0
    2.7409   -1.5410    0.5551 C   0  0  0  0  0  0  0  0  0  0  0  0
    1.8638   -0.4909    0.2514 C   0  0  0  0  0  0  0  0  0  0  0  0
    0.4389   -0.6393    0.6097 C   0  0  0  0  0  0  0  0  0  0  0  0
   -0.4295    0.2908    0.3619 N   0  0  0  0  0  0  0  0  0  0  0  0
   -1.7262   -0.0034    0.7315 N   0  0  0  0  0  0  0  0  0  0  0  0
   -2.4202   -1.0527   -0.0463 C   0  0  0  0  0  0  0  0  0  0  0  0
   -3.7885   -1.4050    0.5721 C   0  0  0  0  0  0  0  0  0  0  0  0
   -4.6295   -0.1916    0.7434 N   0  0  0  0  0  0  0  0  0  0  0  0
   -5.4577    0.1573   -0.3246 C   0  0  0  0  0  0  0  0  0  0  0  0
   -5.5275    1.4527   -0.8607 C   0  0  0  0  0  0  0  0  0  0  0  0
   -6.3816    1.7673   -1.9272 C   0  0  0  0  0  0  0  0  0  0  0  0
   -7.2020    0.7875   -2.4706 C   0  0  0  0  0  0  0  0  0  0  0  0
   -8.2520    1.1708   -3.7768 Cl  0  0  0  0  0  0  0  0  0  0  0  0
   -7.1804   -0.4988   -1.9506 C   0  0  0  0  0  0  0  0  0  0  0  0
   -6.3214   -0.8014   -0.8870 C   0  0  0  0  0  0  0  0  0  0  0  0
   -3.9321    0.8495    1.5364 C   0  0  0  0  0  0  0  0  0  0  0  0
   -2.5525    1.1977    0.9461 C   0  0  0  0  0  0  0  0  0  0  0  0
    2.3163    0.6720   -0.3878 C   0  0  0  0  0  0  0  0  0  0  0  0
    3.6615    0.7984   -0.7269 C   0  0  0  0  0  0  0  0  0  0  0  0
    4.2224    1.8742   -1.3629 O   0  0  0  0  0  0  0  0  0  0  0  0
    3.3858    3.0034   -1.5819 C   0  0  0  0  0  0  0  0  0  0  0  0
    4.5316   -0.2556   -0.4061 C   0  0  0  0  0  0  0  0  0  0  0  0
    5.8820   -0.1457   -0.7644 O   0  0  0  0  0  0  0  0  0  0  0  0
    6.6407    0.4001    0.2602 C   0  0  0  0  0  0  0  0  0  0  0  0
    8.0651    0.4965   -0.1997 C   0  0  0  0  0  0  0  0  0  0  0  0
    6.2539    0.7529    1.3677 O   0  0  0  0  0  0  0  0  0  0  0  0
    4.3221   -3.1522    2.2515 H   0  0  0  0  0  0  0  0  0  0  0  0
    3.9268   -4.1166    0.7757 H   0  0  0  0  0  0  0  0  0  0  0  0
    5.5684   -4.1006    1.4307 H   0  0  0  0  0  0  0  0  0  0  0  0
    2.3514   -2.4294    1.0394 H   0  0  0  0  0  0  0  0  0  0  0  0
    0.1466   -1.5775    1.1146 H   0  0  0  0  0  0  0  0  0  0  0  0
   -1.7968   -1.9515   -0.0786 H   0  0  0  0  0  0  0  0  0  0  0  0
   -2.5455   -0.6801   -1.0700 H   0  0  0  0  0  0  0  0  0  0  0  0
   -4.2697   -2.1832   -0.0283 H   0  0  0  0  0  0  0  0  0  0  0  0
   -3.6274   -1.8422    1.5660 H   0  0  0  0  0  0  0  0  0  0  0  0
   -4.9075    2.2556   -0.4757 H   0  0  0  0  0  0  0  0  0  0  0  0
   -6.3970    2.7798   -2.3211 H   0  0  0  0  0  0  0  0  0  0  0  0
   -7.8320   -1.2695   -2.3520 H   0  0  0  0  0  0  0  0  0  0  0  0
   -6.3634   -1.8058   -0.4724 H   0  0  0  0  0  0  0  0  0  0  0  0
   -4.5467    1.7474    1.6656 H   0  0  0  0  0  0  0  0  0  0  0  0
   -3.7844    0.4456    2.5468 H   0  0  0  0  0  0  0  0  0  0  0  0
   -2.6546    1.7060   -0.0192 H   0  0  0  0  0  0  0  0  0  0  0  0
   -2.0160    1.8629    1.6318 H   0  0  0  0  0  0  0  0  0  0  0  0
    1.5982    1.4549   -0.6108 H   0  0  0  0  0  0  0  0  0  0  0  0
    2.9942    3.3962   -0.6377 H   0  0  0  0  0  0  0  0  0  0  0  0
    2.5759    2.7630   -2.2783 H   0  0  0  0  0  0  0  0  0  0  0  0
    3.9965    3.7871   -2.0403 H   0  0  0  0  0  0  0  0  0  0  0  0
    8.1273    1.1388   -1.0819 H   0  0  0  0  0  0  0  0  0  0  0  0
    8.4514   -0.5016   -0.4208 H   0  0  0  0  0  0  0  0  0  0  0  0
    8.6732    0.9380    0.5952 H   0  0  0  0  0  0  0  0  0  0  0  0
  1  2  1  0
  2  3  1  0
  3  4  2  0
  4  5  1  0
  5  6  1  0
  6  7  2  3
  7  8  1  0
  8  9  1  0
  9 10  1  0
 10 11  1  0
 11 12  1  0
 12 13  2  0
 13 14  1  0
 14 15  2  0
 15 16  1  0
 15 17  1  0
 17 18  2  0
 11 19  1  0
 19 20  1  0
  5 21  2  0
 21 22  1  0
 22 23  1  0
 23 24  1  0
 22 25  2  0
 25 26  1  0
 26 27  1  0
 27 28  1  0
 27 29  2  0
 25  3  1  0
 20  8  1  0
 18 12  1  0
  1 30  1  0
  1 31  1  0
  1 32  1  0
  4 33  1  0
  6 34  1  0
  9 35  1  0
  9 36  1  0
 10 37  1  0
 10 38  1  0
 13 39  1  0
 14 40  1  0
 17 41  1  0
 18 42  1  0
 19 43  1  0
 19 44  1  0
 20 45  1  0
 20 46  1  0
 21 47  1  0
 24 48  1  0
 24 49  1  0
 24 50  1  0
 28 51  1  0
 28 52  1  0
 28 53  1  0
M  END
$$$$
