
     RDKit          3D

 36 38  0  0  0  0  0  0  0  0999 V2000
   -4.6626    2.2904    0.7058 C   0  0  0  0  0  0  0  0  0  0  0  0
   -3.5509    1.4219    0.3835 N   0  0  0  0  0  0  0  0  0  0  0  0
   -2.2428    1.8226    0.3117 C   0  0  0  0  0  0  0  0  0  0  0  0
   -1.4763    0.7215   -0.0017 C   0  0  0  0  0  0  0  0  0  0  0  0
   -0.0558    0.7884   -0.1399 C   0  0  0  0  0  0  0  0  0  0  0  0
    0.8007   -0.1891    0.2016 C   0  0  0  0  0  0  0  0  0  0  0  0
    2.2576   -0.1041    0.0513 C   0  0  0  0  0  0  0  0  0  0  0  0
    2.9640   -1.2414   -0.3374 C   0  0  0  0  0  0  0  0  0  0  0  0
    4.3480   -1.1873   -0.4603 C   0  0  0  0  0  0  0  0  0  0  0  0
    5.0175   -0.0429   -0.1988 N   0  0  0  0  0  4  0  0  0  0  0  0
    6.4846   -0.0127   -0.3250 C   0  0  0  0  0  0  0  0  0  0  0  0
    4.3576    1.0656    0.2042 C   0  0  0  0  0  0  0  0  0  0  0  0
    2.9733    1.0571    0.3381 C   0  0  0  0  0  0  0  0  0  0  0  0
   -2.3620   -0.3889   -0.1676 C   0  0  0  0  0  0  0  0  0  0  0  0
   -2.2007   -1.7442   -0.5318 C   0  0  0  0  0  0  0  0  0  0  0  0
   -3.3188   -2.5805   -0.5943 C   0  0  0  0  0  0  0  0  0  0  0  0
   -3.1075   -4.2335   -1.0308 Cl  0  0  0  0  0  0  0  0  0  0  0  0
   -4.5917   -2.1002   -0.3129 C   0  0  0  0  0  0  0  0  0  0  0  0
   -4.7840   -0.7600    0.0328 C   0  0  0  0  0  0  0  0  0  0  0  0
   -3.6570    0.0772    0.0937 C   0  0  0  0  0  0  0  0  0  0  0  0
   -5.1535    1.9044    1.6028 H   0  0  0  0  0  0  0  0  0  0  0  0
   -5.3522    2.2979   -0.1421 H   0  0  0  0  0  0  0  0  0  0  0  0
   -4.2946    3.3025    0.8924 H   0  0  0  0  0  0  0  0  0  0  0  0
   -1.9668    2.8515    0.5043 H   0  0  0  0  0  0  0  0  0  0  0  0
    0.3290    1.7248   -0.5386 H   0  0  0  0  0  0  0  0  0  0  0  0
    0.4221   -1.1196    0.6200 H   0  0  0  0  0  0  0  0  0  0  0  0
    2.4434   -2.1728   -0.5546 H   0  0  0  0  0  0  0  0  0  0  0  0
    4.9275   -2.0548   -0.7639 H   0  0  0  0  0  0  0  0  0  0  0  0
    6.7908   -0.7085   -1.1105 H   0  0  0  0  0  0  0  0  0  0  0  0
    6.8005    0.9984   -0.5949 H   0  0  0  0  0  0  0  0  0  0  0  0
    6.9022   -0.3067    0.6411 H   0  0  0  0  0  0  0  0  0  0  0  0
    4.9456    1.9524    0.4235 H   0  0  0  0  0  0  0  0  0  0  0  0
    2.4661    1.9573    0.6800 H   0  0  0  0  0  0  0  0  0  0  0  0
   -1.2198   -2.1374   -0.7735 H   0  0  0  0  0  0  0  0  0  0  0  0
   -5.4516   -2.7638   -0.3671 H   0  0  0  0  0  0  0  0  0  0  0  0
   -5.7819   -0.3856    0.2413 H   0  0  0  0  0  0  0  0  0  0  0  0
  1  2  1  0
  2  3  1  0
  3  4  2  0
  4  5  1  0
  5  6  2  3
  6  7  1  0
  7  8  2  0
  8  9  1  0
  9 10  2  0
 10 11  1  0
 10 12  1  0
 12 13  2  0
  4 14  1  0
 14 15  2  0
 15 16  1  0
 16 17  1  0
 16 18  2  0
 18 19  1  0
 19 20  2  0
 20  2  1  0
 13  7  1  0
 20 14  1  0
  1 21  1  0
  1 22  1  0
  1 23  1  0
  3 24  1  0
  5 25  1  0
  6 26  1  0
  8 27  1  0
  9 28  1  0
 11 29  1  0
 11 30  1  0
 11 31  1  0
 12 32  1  0
 13 33  1  0
 15 34  1  0
 18 35  1  0
 19 36  1  0
M  CHG  1  10   1
M  END
$$$$
