
     RDKit          3D

 39 40  0  0  0  0  0  0  0  0999 V2000
   -3.6522   -2.1048   -0.8046 C   0  0  0  0  0  0  0  0  0  0  0  0
   -2.7868   -1.2974    0.1512 C   0  0  0  0  0  0  0  0  0  0  0  0
   -2.6219    0.0859   -0.3032 N   0  0  0  0  0  0  0  0  0  0  0  0
   -3.5891    1.0673    0.2019 C   0  0  0  0  0  0  0  0  0  0  0  0
   -3.3129    1.4758    1.6420 C   0  0  0  0  0  0  0  0  0  0  0  0
   -1.5913    0.3538   -1.1960 C   0  0  0  0  0  0  0  0  0  0  0  0
   -0.8159   -0.5329   -1.5806 O   0  0  0  0  0  0  0  0  0  0  0  0
   -1.3966    1.7607   -1.7363 C   0  0  0  0  0  0  0  0  0  0  0  0
   -0.5355    2.8684   -0.5991 S   0  0  0  0  0  0  0  0  0  0  0  0
    0.6101    1.8518    0.2075 C   0  0  0  0  0  0  0  0  0  0  0  0
    0.6959    1.7276    1.5121 N   0  0  0  0  0  0  0  0  0  0  0  0
    1.7372    0.8710    1.7833 N   0  0  0  0  0  0  0  0  0  0  0  0
    2.2995    0.5178    0.6396 C   0  0  0  0  0  0  0  0  0  0  0  0
    3.4527   -0.3656    0.5053 C   0  0  0  0  0  0  0  0  0  0  0  0
    4.5718    0.0008   -0.2459 C   0  0  0  0  0  0  0  0  0  0  0  0
    5.6336   -0.8853   -0.3209 C   0  0  0  0  0  0  0  0  0  0  0  0
    5.6518   -2.0863    0.2932 N   0  0  0  0  0  0  0  0  0  0  0  0
    4.5715   -2.4086    1.0357 C   0  0  0  0  0  0  0  0  0  0  0  0
    3.4639   -1.5906    1.1745 C   0  0  0  0  0  0  0  0  0  0  0  0
    1.5834    1.0907   -0.3976 N   0  0  0  0  0  0  0  0  0  0  0  0
    1.7449    0.8389   -1.8140 N   0  0  0  0  0  0  0  0  0  0  0  0
   -3.2127   -2.1359   -1.8068 H   0  0  0  0  0  0  0  0  0  0  0  0
   -3.7570   -3.1331   -0.4454 H   0  0  0  0  0  0  0  0  0  0  0  0
   -4.6529   -1.6698   -0.8929 H   0  0  0  0  0  0  0  0  0  0  0  0
   -3.2286   -1.3035    1.1524 H   0  0  0  0  0  0  0  0  0  0  0  0
   -1.8027   -1.7725    0.2352 H   0  0  0  0  0  0  0  0  0  0  0  0
   -3.5968    1.9623   -0.4215 H   0  0  0  0  0  0  0  0  0  0  0  0
   -4.5893    0.6261    0.1245 H   0  0  0  0  0  0  0  0  0  0  0  0
   -3.4059    0.6267    2.3257 H   0  0  0  0  0  0  0  0  0  0  0  0
   -2.3051    1.8824    1.7579 H   0  0  0  0  0  0  0  0  0  0  0  0
   -4.0287    2.2402    1.9604 H   0  0  0  0  0  0  0  0  0  0  0  0
   -2.3523    2.1949   -2.0401 H   0  0  0  0  0  0  0  0  0  0  0  0
   -0.8124    1.6894   -2.6607 H   0  0  0  0  0  0  0  0  0  0  0  0
    4.6355    0.9613   -0.7467 H   0  0  0  0  0  0  0  0  0  0  0  0
    6.5274   -0.6432   -0.8893 H   0  0  0  0  0  0  0  0  0  0  0  0
    4.6218   -3.3722    1.5348 H   0  0  0  0  0  0  0  0  0  0  0  0
    2.6277   -1.9023    1.7930 H   0  0  0  0  0  0  0  0  0  0  0  0
    2.6067    0.3338   -2.0086 H   0  0  0  0  0  0  0  0  0  0  0  0
    1.0112    0.1764   -2.0993 H   0  0  0  0  0  0  0  0  0  0  0  0
  1  2  1  0
  2  3  1  0
  3  4  1  0
  4  5  1  0
  3  6  1  0
  6  7  2  0
  6  8  1  0
  8  9  1  0
  9 10  1  0
 10 11  2  0
 11 12  1  0
 12 13  2  0
 13 14  1  0
 14 15  2  0
 15 16  1  0
 16 17  2  0
 17 18  1  0
 18 19  2  0
 13 20  1  0
 20 21  1  0
 20 10  1  0
 19 14  1  0
  1 22  1  0
  1 23  1  0
  1 24  1  0
  2 25  1  0
  2 26  1  0
  4 27  1  0
  4 28  1  0
  5 29  1  0
  5 30  1  0
  5 31  1  0
  8 32  1  0
  8 33  1  0
 15 34  1  0
 16 35  1  0
 18 36  1  0
 19 37  1  0
 21 38  1  0
 21 39  1  0
M  END
$$$$
