
     RDKit          3D

 46 48  0  0  0  0  0  0  0  0999 V2000
   -2.6793   -0.5501    3.0518 C   0  0  0  0  0  0  0  0  0  0  0  0
   -1.9556   -0.5739    1.8275 O   0  0  0  0  0  0  0  0  0  0  0  0
   -2.6831   -0.7546    0.6733 C   0  0  0  0  0  0  0  0  0  0  0  0
   -4.0760   -0.8101    0.6035 C   0  0  0  0  0  0  0  0  0  0  0  0
   -4.7077   -0.9947   -0.6290 C   0  0  0  0  0  0  0  0  0  0  0  0
   -3.9562   -1.1360   -1.7999 C   0  0  0  0  0  0  0  0  0  0  0  0
   -4.6377   -1.3031   -3.1266 C   0  0  0  0  0  0  0  0  0  0  0  0
   -2.5573   -1.0632   -1.7311 C   0  0  0  0  0  0  0  0  0  0  0  0
   -1.9158   -0.8757   -0.5049 C   0  0  0  0  0  0  0  0  0  0  0  0
   -0.5116   -0.8048   -0.3496 N   0  0  0  0  0  0  0  0  0  0  0  0
    0.4592   -0.8192   -1.3252 C   0  0  0  0  0  0  0  0  0  0  0  0
    0.2596   -0.8642   -2.5370 O   0  0  0  0  0  0  0  0  0  0  0  0
    1.9008   -0.7884   -0.8132 C   0  0  0  0  0  0  0  0  0  0  0  0
    2.1843   -1.9747    0.0923 C   0  0  0  0  0  0  0  0  0  0  0  0
    2.0326   -1.3817    1.4605 C   0  0  0  0  0  0  0  0  0  0  0  0
    1.9644   -2.0100    2.5025 O   0  0  0  0  0  0  0  0  0  0  0  0
    1.9603   -0.0195    1.3812 O   0  0  0  0  0  0  0  0  0  0  0  0
    2.2906    0.4139    0.0461 C   0  0  0  0  0  0  0  0  0  0  0  0
    3.8277    0.6555   -0.0126 C   0  0  0  0  0  0  0  0  0  0  0  0
    4.2565    2.0890    0.3225 C   0  0  0  0  0  0  0  0  0  0  0  0
    3.3065    2.7627    1.2964 C   0  0  0  0  0  0  0  0  0  0  0  0
    1.8911    2.8448    0.7308 C   0  0  0  0  0  0  0  0  0  0  0  0
    1.5496    1.7230   -0.2589 C   0  0  0  0  0  0  0  0  0  0  0  0
   -1.9543   -0.4532    3.8657 H   0  0  0  0  0  0  0  0  0  0  0  0
   -3.3472    0.3162    3.0962 H   0  0  0  0  0  0  0  0  0  0  0  0
   -3.2295   -1.4843    3.2052 H   0  0  0  0  0  0  0  0  0  0  0  0
   -4.7005   -0.7082    1.4843 H   0  0  0  0  0  0  0  0  0  0  0  0
   -5.7946   -1.0287   -0.6690 H   0  0  0  0  0  0  0  0  0  0  0  0
   -5.6080   -1.7971   -3.0092 H   0  0  0  0  0  0  0  0  0  0  0  0
   -4.0366   -1.9253   -3.7980 H   0  0  0  0  0  0  0  0  0  0  0  0
   -4.7936   -0.3253   -3.5926 H   0  0  0  0  0  0  0  0  0  0  0  0
   -1.9895   -1.1599   -2.6513 H   0  0  0  0  0  0  0  0  0  0  0  0
   -0.2455   -0.6477    0.6199 H   0  0  0  0  0  0  0  0  0  0  0  0
    2.5250   -0.8502   -1.7142 H   0  0  0  0  0  0  0  0  0  0  0  0
    1.4831   -2.8017   -0.0469 H   0  0  0  0  0  0  0  0  0  0  0  0
    3.2142   -2.3266   -0.0211 H   0  0  0  0  0  0  0  0  0  0  0  0
    4.3397   -0.0224    0.6824 H   0  0  0  0  0  0  0  0  0  0  0  0
    4.2158    0.4296   -1.0135 H   0  0  0  0  0  0  0  0  0  0  0  0
    4.2984    2.6783   -0.6026 H   0  0  0  0  0  0  0  0  0  0  0  0
    5.2742    2.0809    0.7294 H   0  0  0  0  0  0  0  0  0  0  0  0
    3.6633    3.7696    1.5414 H   0  0  0  0  0  0  0  0  0  0  0  0
    3.2951    2.2016    2.2390 H   0  0  0  0  0  0  0  0  0  0  0  0
    1.1789    2.8342    1.5652 H   0  0  0  0  0  0  0  0  0  0  0  0
    1.7499    3.8081    0.2253 H   0  0  0  0  0  0  0  0  0  0  0  0
    1.7956    2.0485   -1.2779 H   0  0  0  0  0  0  0  0  0  0  0  0
    0.4631    1.5985   -0.2236 H   0  0  0  0  0  0  0  0  0  0  0  0
  1  2  1  0
  2  3  1  0
  3  4  2  0
  4  5  1  0
  5  6  2  0
  6  7  1  0
  6  8  1  0
  8  9  2  0
  9 10  1  0
 10 11  1  0
 11 12  2  0
 11 13  1  0
 13 14  1  0
 14 15  1  0
 15 16  2  0
 15 17  1  0
 17 18  1  0
 18 19  1  0
 19 20  1  0
 20 21  1  0
 21 22  1  0
 22 23  1  0
  9  3  1  0
 18 13  1  0
 23 18  1  0
  1 24  1  0
  1 25  1  0
  1 26  1  0
  4 27  1  0
  5 28  1  0
  7 29  1  0
  7 30  1  0
  7 31  1  0
  8 32  1  0
 10 33  1  0
 13 34  1  0
 14 35  1  0
 14 36  1  0
 19 37  1  0
 19 38  1  0
 20 39  1  0
 20 40  1  0
 21 41  1  0
 21 42  1  0
 22 43  1  0
 22 44  1  0
 23 45  1  0
 23 46  1  0
M  END
$$$$
