
     RDKit          3D

 46 49  0  0  0  0  0  0  0  0999 V2000
   -2.8307   -2.1531    0.7216 C   0  0  0  0  0  0  0  0  0  0  0  0
   -2.0274   -0.9541    1.1973 C   0  0  0  0  0  0  0  0  0  0  0  0
   -2.5545    0.4438    0.7971 C   0  0  0  0  0  0  0  0  0  0  0  0
   -3.7262    0.9171    1.6775 C   0  0  0  0  0  0  0  0  0  0  0  0
   -5.0861    0.3396    1.3021 C   0  0  0  0  0  0  0  0  0  0  0  0
   -5.2474    0.1046   -0.1956 C   0  0  0  0  0  0  0  0  0  0  0  0
   -4.2342    0.8806   -1.0240 C   0  0  0  0  0  0  0  0  0  0  0  0
   -2.8484    0.5905   -0.6450 N   0  0  0  0  0  0  0  0  0  0  0  0
   -1.8911    0.6125   -1.6787 C   0  0  0  0  0  0  0  0  0  0  0  0
   -2.2384    0.7146   -2.8561 O   0  0  0  0  0  0  0  0  0  0  0  0
   -0.4843    0.5307   -1.3299 C   0  0  0  0  0  0  0  0  0  0  0  0
    0.2951    1.4068   -0.5995 C   0  0  0  0  0  0  0  0  0  0  0  0
    1.6490    0.9668   -0.5111 C   0  0  0  0  0  0  0  0  0  0  0  0
    2.7655    1.5822    0.1751 C   0  0  0  0  0  0  0  0  0  0  0  0
    2.6199    2.6226    0.8150 O   0  0  0  0  0  0  0  0  0  0  0  0
    3.9794    0.8853    0.0437 N   0  0  0  0  0  0  0  0  0  0  0  0
    5.1079    1.4077    0.6670 C   0  0  0  0  0  0  0  0  0  0  0  0
    6.2996    0.8068    0.5968 C   0  0  0  0  0  0  0  0  0  0  0  0
    6.4450   -0.4175   -0.1390 C   0  0  0  0  0  0  0  0  0  0  0  0
    5.4010   -0.9808   -0.7659 C   0  0  0  0  0  0  0  0  0  0  0  0
    5.5017   -2.2543   -1.5464 C   0  0  0  0  0  0  0  0  0  0  0  0
    4.0524   -0.3123   -0.6938 C   0  0  0  0  0  0  0  0  0  0  0  0
    3.0410   -0.8642   -1.3037 N   0  0  0  0  0  0  0  0  0  0  0  0
    1.8675   -0.2014   -1.1975 C   0  0  0  0  0  0  0  0  0  0  0  0
    0.4491   -0.7635   -1.9592 S   0  0  0  0  0  0  0  0  0  0  0  0
   -2.9570   -2.1499   -0.3648 H   0  0  0  0  0  0  0  0  0  0  0  0
   -2.3057   -3.0771    0.9874 H   0  0  0  0  0  0  0  0  0  0  0  0
   -3.8129   -2.1969    1.1954 H   0  0  0  0  0  0  0  0  0  0  0  0
   -1.0080   -1.0765    0.8179 H   0  0  0  0  0  0  0  0  0  0  0  0
   -1.9339   -1.0039    2.2895 H   0  0  0  0  0  0  0  0  0  0  0  0
   -1.7423    1.1418    1.0256 H   0  0  0  0  0  0  0  0  0  0  0  0
   -3.5199    0.7285    2.7377 H   0  0  0  0  0  0  0  0  0  0  0  0
   -3.7947    2.0101    1.5804 H   0  0  0  0  0  0  0  0  0  0  0  0
   -5.2659   -0.5971    1.8413 H   0  0  0  0  0  0  0  0  0  0  0  0
   -5.8648    1.0303    1.6495 H   0  0  0  0  0  0  0  0  0  0  0  0
   -6.2651    0.3736   -0.5018 H   0  0  0  0  0  0  0  0  0  0  0  0
   -5.1419   -0.9651   -0.4090 H   0  0  0  0  0  0  0  0  0  0  0  0
   -4.4036    0.6605   -2.0831 H   0  0  0  0  0  0  0  0  0  0  0  0
   -4.3826    1.9599   -0.8962 H   0  0  0  0  0  0  0  0  0  0  0  0
   -0.0791    2.3212   -0.1534 H   0  0  0  0  0  0  0  0  0  0  0  0
    4.9839    2.3356    1.2206 H   0  0  0  0  0  0  0  0  0  0  0  0
    7.1710    1.2280    1.0883 H   0  0  0  0  0  0  0  0  0  0  0  0
    7.4319   -0.8703   -0.1701 H   0  0  0  0  0  0  0  0  0  0  0  0
    4.8420   -3.0188   -1.1231 H   0  0  0  0  0  0  0  0  0  0  0  0
    5.2224   -2.0886   -2.5920 H   0  0  0  0  0  0  0  0  0  0  0  0
    6.5205   -2.6565   -1.5373 H   0  0  0  0  0  0  0  0  0  0  0  0
  1  2  1  0
  2  3  1  0
  3  4  1  0
  4  5  1  0
  5  6  1  0
  6  7  1  0
  7  8  1  0
  8  9  1  0
  9 10  2  0
  9 11  1  0
 11 12  2  0
 12 13  1  0
 13 14  1  0
 14 15  2  0
 14 16  1  0
 16 17  1  0
 17 18  2  0
 18 19  1  0
 19 20  2  0
 20 21  1  0
 20 22  1  0
 22 23  2  0
 23 24  1  0
 24 25  1  0
  8  3  1  0
 25 11  1  0
 24 13  2  0
 22 16  1  0
  1 26  1  0
  1 27  1  0
  1 28  1  0
  2 29  1  0
  2 30  1  0
  3 31  1  0
  4 32  1  0
  4 33  1  0
  5 34  1  0
  5 35  1  0
  6 36  1  0
  6 37  1  0
  7 38  1  0
  7 39  1  0
 12 40  1  0
 17 41  1  0
 18 42  1  0
 19 43  1  0
 21 44  1  0
 21 45  1  0
 21 46  1  0
M  END
$$$$
