
     RDKit          3D

 57 60  0  0  0  0  0  0  0  0999 V2000
   -1.3865    5.1385    0.7431 C   0  0  0  0  0  0  0  0  0  0  0  0
   -1.5994    4.8165   -0.7398 C   0  0  0  0  0  0  0  0  0  0  0  0
   -0.3503    4.1629   -1.3687 C   0  0  0  0  0  0  0  0  0  0  0  0
   -0.0368    2.7714   -0.7950 C   0  0  0  0  0  0  0  0  0  0  0  0
   -1.2722    1.9308   -0.6485 C   0  0  0  0  0  0  0  0  0  0  0  0
   -2.5378    2.4860   -0.7119 C   0  0  0  0  0  0  0  0  0  0  0  0
   -3.7691    1.3284   -0.5346 S   0  0  0  0  0  0  0  0  0  0  0  0
   -2.6374    0.0666   -0.3602 C   0  0  0  0  0  0  0  0  0  0  0  0
   -3.0593   -1.1942   -0.1868 N   0  0  0  0  0  0  0  0  0  0  0  0
   -2.0633   -2.0794   -0.0651 C   0  0  0  0  0  0  0  0  0  0  0  0
   -2.4578   -3.5469    0.1090 C   0  0  0  0  0  0  0  0  0  0  0  0
   -1.2302   -4.4534    0.3332 C   0  0  0  0  0  0  0  0  0  0  0  0
   -3.3886   -3.6873    1.3274 C   0  0  0  0  0  0  0  0  0  0  0  0
   -3.1898   -4.0227   -1.1582 C   0  0  0  0  0  0  0  0  0  0  0  0
   -0.7507   -1.7775   -0.0951 N   0  0  0  0  0  0  0  0  0  0  0  0
   -0.3423   -0.4957   -0.2511 C   0  0  0  0  0  0  0  0  0  0  0  0
    1.0356   -0.1960   -0.2378 N   0  0  0  0  0  0  0  0  0  0  0  0
    1.4571    0.0963    1.1517 C   0  0  0  0  0  0  0  0  0  0  0  0
    2.9345    0.5283    1.1664 C   0  0  0  0  0  0  0  0  0  0  0  0
    3.8214   -0.4135    0.4661 N   0  0  0  0  0  0  0  0  0  0  0  0
    5.1602   -0.4362    0.8470 C   0  0  0  0  0  0  0  0  0  0  0  0
    5.5688    0.2141    1.8138 O   0  0  0  0  0  0  0  0  0  0  0  0
    6.1338   -1.2820    0.0473 C   0  0  0  0  0  0  0  0  0  0  0  0
    5.8969   -2.9969    0.4377 Cl  0  0  0  0  0  0  0  0  0  0  0  0
    3.3281   -0.8783   -0.8425 C   0  0  0  0  0  0  0  0  0  0  0  0
    1.8449   -1.2938   -0.8080 C   0  0  0  0  0  0  0  0  0  0  0  0
   -1.3243    0.5042   -0.4149 C   0  0  0  0  0  0  0  0  0  0  0  0
   -2.8482    3.9328   -0.9531 C   0  0  0  0  0  0  0  0  0  0  0  0
   -0.4972    5.7628    0.8785 H   0  0  0  0  0  0  0  0  0  0  0  0
   -1.2633    4.2373    1.3515 H   0  0  0  0  0  0  0  0  0  0  0  0
   -2.2442    5.6918    1.1408 H   0  0  0  0  0  0  0  0  0  0  0  0
   -1.7756    5.7726   -1.2500 H   0  0  0  0  0  0  0  0  0  0  0  0
   -0.5169    4.0701   -2.4503 H   0  0  0  0  0  0  0  0  0  0  0  0
    0.5237    4.8133   -1.2443 H   0  0  0  0  0  0  0  0  0  0  0  0
    0.6860    2.2761   -1.4527 H   0  0  0  0  0  0  0  0  0  0  0  0
    0.4359    2.8822    0.1875 H   0  0  0  0  0  0  0  0  0  0  0  0
   -1.5302   -5.4995    0.4642 H   0  0  0  0  0  0  0  0  0  0  0  0
   -0.5402   -4.4147   -0.5182 H   0  0  0  0  0  0  0  0  0  0  0  0
   -0.6709   -4.1564    1.2284 H   0  0  0  0  0  0  0  0  0  0  0  0
   -4.3151   -3.1151    1.2006 H   0  0  0  0  0  0  0  0  0  0  0  0
   -3.6716   -4.7337    1.4903 H   0  0  0  0  0  0  0  0  0  0  0  0
   -2.9021   -3.3257    2.2413 H   0  0  0  0  0  0  0  0  0  0  0  0
   -4.1048   -3.4464   -1.3392 H   0  0  0  0  0  0  0  0  0  0  0  0
   -3.4772   -5.0772   -1.0767 H   0  0  0  0  0  0  0  0  0  0  0  0
   -2.5552   -3.9165   -2.0462 H   0  0  0  0  0  0  0  0  0  0  0  0
    0.8535    0.9015    1.5873 H   0  0  0  0  0  0  0  0  0  0  0  0
    1.3343   -0.7942    1.7837 H   0  0  0  0  0  0  0  0  0  0  0  0
    3.2610    0.6584    2.2038 H   0  0  0  0  0  0  0  0  0  0  0  0
    3.0446    1.4967    0.6622 H   0  0  0  0  0  0  0  0  0  0  0  0
    7.1572   -1.0101    0.3237 H   0  0  0  0  0  0  0  0  0  0  0  0
    6.0228   -1.1199   -1.0275 H   0  0  0  0  0  0  0  0  0  0  0  0
    3.4690   -0.0454   -1.5423 H   0  0  0  0  0  0  0  0  0  0  0  0
    3.9212   -1.7180   -1.2091 H   0  0  0  0  0  0  0  0  0  0  0  0
    1.7526   -2.2087   -0.2068 H   0  0  0  0  0  0  0  0  0  0  0  0
    1.5179   -1.5179   -1.8309 H   0  0  0  0  0  0  0  0  0  0  0  0
   -3.6694    4.2725   -0.3109 H   0  0  0  0  0  0  0  0  0  0  0  0
   -3.1828    4.0410   -1.9931 H   0  0  0  0  0  0  0  0  0  0  0  0
  1  2  1  0
  2  3  1  0
  3  4  1  0
  4  5  1  0
  5  6  2  0
  6  7  1  0
  7  8  1  0
  8  9  2  0
  9 10  1  0
 10 11  1  0
 11 12  1  0
 11 13  1  0
 11 14  1  0
 10 15  2  0
 15 16  1  0
 16 17  1  0
 17 18  1  0
 18 19  1  0
 19 20  1  0
 20 21  1  0
 21 22  2  0
 21 23  1  0
 23 24  1  0
 20 25  1  0
 25 26  1  0
 16 27  2  0
  6 28  1  0
 28  2  1  0
 27  5  1  0
 27  8  1  0
 26 17  1  0
  1 29  1  0
  1 30  1  0
  1 31  1  0
  2 32  1  0
  3 33  1  0
  3 34  1  0
  4 35  1  0
  4 36  1  0
 12 37  1  0
 12 38  1  0
 12 39  1  0
 13 40  1  0
 13 41  1  0
 13 42  1  0
 14 43  1  0
 14 44  1  0
 14 45  1  0
 18 46  1  0
 18 47  1  0
 19 48  1  0
 19 49  1  0
 23 50  1  0
 23 51  1  0
 25 52  1  0
 25 53  1  0
 26 54  1  0
 26 55  1  0
 28 56  1  0
 28 57  1  0
M  END
$$$$
