
     RDKit          3D

 55 57  0  0  0  0  0  0  0  0999 V2000
   -2.6201   -0.6356    4.8546 C   0  0  0  0  0  0  0  0  0  0  0  0
   -1.9717   -1.4972    3.7609 C   0  0  0  0  0  0  0  0  0  0  0  0
   -1.1110   -2.5963    4.3996 C   0  0  0  0  0  0  0  0  0  0  0  0
   -1.2000   -0.6190    2.7521 C   0  0  0  0  0  0  0  0  0  0  0  0
   -0.0104   -0.0111    3.3970 N   0  0  0  0  0  0  0  0  0  0  0  0
    0.2299    1.6428    3.2909 S   0  0  0  0  0  6  0  0  0  0  0  0
    1.5326    1.9089    3.8592 O   0  0  0  0  0  0  0  0  0  0  0  0
   -0.9656    2.2915    3.7829 O   0  0  0  0  0  0  0  0  0  0  0  0
    0.3303    1.9254    1.5428 C   0  0  0  0  0  0  0  0  0  0  0  0
    1.5434    1.7103    0.8779 C   0  0  0  0  0  0  0  0  0  0  0  0
    1.6256    1.9552   -0.4941 C   0  0  0  0  0  0  0  0  0  0  0  0
    0.5032    2.4097   -1.1901 C   0  0  0  0  0  0  0  0  0  0  0  0
   -0.7096    2.6019   -0.5188 C   0  0  0  0  0  0  0  0  0  0  0  0
   -0.7931    2.3916    0.8538 C   0  0  0  0  0  0  0  0  0  0  0  0
   -1.8608    3.0015   -1.1499 O   0  0  0  0  0  0  0  0  0  0  0  0
   -1.7742    2.7704   -2.5597 C   0  0  0  0  0  0  0  0  0  0  0  0
   -0.4650    3.3207   -3.1011 C   0  0  0  0  0  0  0  0  0  0  0  0
    0.6632    2.6403   -2.5318 O   0  0  0  0  0  0  0  0  0  0  0  0
   -0.7391   -1.4352    1.5421 C   0  0  0  0  0  0  0  0  0  0  0  0
    0.4217   -1.7657    1.3291 O   0  0  0  0  0  0  0  0  0  0  0  0
   -1.7870   -1.7559    0.7423 O   0  0  0  0  0  0  0  0  0  0  0  0
   -1.4317   -2.4935   -0.4264 C   0  0  0  0  0  0  0  0  0  0  0  0
   -0.6917   -1.6526   -1.4731 C   0  0  0  0  0  0  0  0  0  0  0  0
   -1.2689   -0.7332   -2.0492 O   0  0  0  0  0  0  0  0  0  0  0  0
    0.6264   -2.0411   -1.6493 N   0  0  0  0  0  0  0  0  0  0  0  0
    1.5901   -1.4968   -2.5351 C   0  0  0  0  0  0  0  0  0  0  0  0
    1.2838   -0.5011   -3.4689 C   0  0  0  0  0  0  0  0  0  0  0  0
    2.2727    0.0245   -4.3048 C   0  0  0  0  0  0  0  0  0  0  0  0
    3.5768   -0.4580   -4.2344 C   0  0  0  0  0  0  0  0  0  0  0  0
    3.9021   -1.4629   -3.3194 C   0  0  0  0  0  0  0  0  0  0  0  0
    5.5455   -2.0136   -3.2866 Cl  0  0  0  0  0  0  0  0  0  0  0  0
    2.9179   -1.9777   -2.4623 C   0  0  0  0  0  0  0  0  0  0  0  0
    3.3125   -3.2030   -1.2901 Cl  0  0  0  0  0  0  0  0  0  0  0  0
   -1.8667   -0.1387    5.4810 H   0  0  0  0  0  0  0  0  0  0  0  0
   -3.2464   -1.2527    5.5091 H   0  0  0  0  0  0  0  0  0  0  0  0
   -3.2634    0.1369    4.4114 H   0  0  0  0  0  0  0  0  0  0  0  0
   -2.7889   -1.9991    3.2204 H   0  0  0  0  0  0  0  0  0  0  0  0
   -0.2877   -2.1790    4.9912 H   0  0  0  0  0  0  0  0  0  0  0  0
   -1.7174   -3.2161    5.0697 H   0  0  0  0  0  0  0  0  0  0  0  0
   -0.6855   -3.2600    3.6387 H   0  0  0  0  0  0  0  0  0  0  0  0
   -1.8714    0.1640    2.3790 H   0  0  0  0  0  0  0  0  0  0  0  0
    0.8569   -0.5559    3.3639 H   0  0  0  0  0  0  0  0  0  0  0  0
    2.4235    1.3651    1.4183 H   0  0  0  0  0  0  0  0  0  0  0  0
    2.5636    1.8005   -1.0211 H   0  0  0  0  0  0  0  0  0  0  0  0
   -1.7334    2.5759    1.3678 H   0  0  0  0  0  0  0  0  0  0  0  0
   -1.8695    1.6942   -2.7500 H   0  0  0  0  0  0  0  0  0  0  0  0
   -2.6246    3.2742   -3.0350 H   0  0  0  0  0  0  0  0  0  0  0  0
   -0.4209    3.1823   -4.1857 H   0  0  0  0  0  0  0  0  0  0  0  0
   -0.3664    4.3930   -2.8865 H   0  0  0  0  0  0  0  0  0  0  0  0
   -2.3586   -2.8361   -0.8928 H   0  0  0  0  0  0  0  0  0  0  0  0
   -0.8739   -3.3955   -0.1566 H   0  0  0  0  0  0  0  0  0  0  0  0
    1.0137   -2.6914   -0.9623 H   0  0  0  0  0  0  0  0  0  0  0  0
    0.2822   -0.0884   -3.5604 H   0  0  0  0  0  0  0  0  0  0  0  0
    2.0206    0.8231   -4.9999 H   0  0  0  0  0  0  0  0  0  0  0  0
    4.3365   -0.0414   -4.8909 H   0  0  0  0  0  0  0  0  0  0  0  0
  1  2  1  0
  2  3  1  0
  2  4  1  0
  4  5  1  0
  5  6  1  0
  6  7  2  0
  6  8  2  0
  6  9  1  0
  9 10  2  0
 10 11  1  0
 11 12  2  0
 12 13  1  0
 13 14  2  0
 13 15  1  0
 15 16  1  0
 16 17  1  0
 17 18  1  0
  4 19  1  0
 19 20  2  0
 19 21  1  0
 21 22  1  0
 22 23  1  0
 23 24  2  0
 23 25  1  0
 25 26  1  0
 26 27  2  0
 27 28  1  0
 28 29  2  0
 29 30  1  0
 30 31  1  0
 30 32  2  0
 32 33  1  0
 14  9  1  0
 32 26  1  0
 18 12  1  0
  1 34  1  0
  1 35  1  0
  1 36  1  0
  2 37  1  0
  3 38  1  0
  3 39  1  0
  3 40  1  0
  4 41  1  0
  5 42  1  0
 10 43  1  0
 11 44  1  0
 14 45  1  0
 16 46  1  0
 16 47  1  0
 17 48  1  0
 17 49  1  0
 22 50  1  0
 22 51  1  0
 25 52  1  0
 27 53  1  0
 28 54  1  0
 29 55  1  0
M  END
$$$$
