
     RDKit          3D

 61 64  0  0  0  0  0  0  0  0999 V2000
    8.3016   -1.6876    0.1353 C   0  0  0  0  0  0  0  0  0  0  0  0
    7.0233   -0.8928    0.1665 C   0  0  0  0  0  0  0  0  0  0  0  0
    7.0276    0.3596    0.8000 C   0  0  0  0  0  0  0  0  0  0  0  0
    5.8736    1.1334    0.8508 C   0  0  0  0  0  0  0  0  0  0  0  0
    4.6993    0.6650    0.2671 C   0  0  0  0  0  0  0  0  0  0  0  0
    4.6555   -0.5848   -0.3726 C   0  0  0  0  0  0  0  0  0  0  0  0
    3.4641   -1.0645   -0.9493 N   0  0  0  0  0  0  0  0  0  0  0  0
    2.4543   -1.4928    0.0482 C   0  0  0  0  0  0  0  0  0  0  0  0
    1.1556   -0.6657   -0.0217 C   0  0  0  0  0  0  0  0  0  0  0  0
    0.5896   -0.6219   -1.3805 N   0  0  0  0  0  0  0  0  0  0  0  0
   -0.7603   -0.7235   -1.6811 C   0  0  0  0  0  0  0  0  0  0  0  0
   -1.1956   -0.9633   -2.8013 O   0  0  0  0  0  0  0  0  0  0  0  0
   -1.7369   -0.5163   -0.5938 C   0  0  0  0  0  0  0  0  0  0  0  0
   -1.8525    0.7380    0.0130 C   0  0  0  0  0  0  0  0  0  0  0  0
   -2.8148    0.9351    1.0045 C   0  0  0  0  0  0  0  0  0  0  0  0
   -3.6437   -0.1206    1.3904 C   0  0  0  0  0  0  0  0  0  0  0  0
   -4.6550    0.1261    2.3695 N   0  0  0  0  0  0  0  0  0  0  0  0
   -6.2207    0.4094    1.7551 S   0  0  0  0  0  6  0  0  0  0  0  0
   -6.5845   -0.7011    0.8996 O   0  0  0  0  0  0  0  0  0  0  0  0
   -7.0491    0.7796    2.8833 O   0  0  0  0  0  0  0  0  0  0  0  0
   -6.1964    1.7866    0.7510 C   0  0  0  0  0  0  0  0  0  0  0  0
   -6.1926    3.1417    1.1575 C   0  0  0  0  0  0  0  0  0  0  0  0
   -6.2328    3.7182    2.5217 C   0  0  0  0  0  0  0  0  0  0  0  0
   -6.1330    3.9585    0.0957 N   0  0  0  0  0  0  0  0  0  0  0  0
   -6.1115    3.1330   -1.0148 O   0  0  0  0  0  0  0  0  0  0  0  0
   -6.1444    1.8277   -0.6203 C   0  0  0  0  0  0  0  0  0  0  0  0
   -6.1273    0.8163   -1.6952 C   0  0  0  0  0  0  0  0  0  0  0  0
   -3.5317   -1.3697    0.7776 C   0  0  0  0  0  0  0  0  0  0  0  0
   -2.5833   -1.5673   -0.2285 C   0  0  0  0  0  0  0  0  0  0  0  0
    1.5524   -0.7189   -2.4847 C   0  0  0  0  0  0  0  0  0  0  0  0
    2.9571   -0.2488   -2.0730 C   0  0  0  0  0  0  0  0  0  0  0  0
    5.8237   -1.3834   -0.4054 C   0  0  0  0  0  0  0  0  0  0  0  0
    5.8019   -2.7178   -1.1148 C   0  0  0  0  0  0  0  0  0  0  0  0
    9.1493   -1.1003    0.5074 H   0  0  0  0  0  0  0  0  0  0  0  0
    8.5422   -1.9894   -0.8896 H   0  0  0  0  0  0  0  0  0  0  0  0
    8.2078   -2.5754    0.7690 H   0  0  0  0  0  0  0  0  0  0  0  0
    7.9388    0.7424    1.2568 H   0  0  0  0  0  0  0  0  0  0  0  0
    5.8885    2.1031    1.3434 H   0  0  0  0  0  0  0  0  0  0  0  0
    3.8103    1.2867    0.3196 H   0  0  0  0  0  0  0  0  0  0  0  0
    2.2123   -2.5418   -0.1715 H   0  0  0  0  0  0  0  0  0  0  0  0
    2.8450   -1.4756    1.0743 H   0  0  0  0  0  0  0  0  0  0  0  0
    1.3543    0.3729    0.2706 H   0  0  0  0  0  0  0  0  0  0  0  0
    0.4292   -1.0847    0.6843 H   0  0  0  0  0  0  0  0  0  0  0  0
   -1.2145    1.5611   -0.3007 H   0  0  0  0  0  0  0  0  0  0  0  0
   -2.9143    1.9128    1.4668 H   0  0  0  0  0  0  0  0  0  0  0  0
   -4.7391   -0.6330    3.0499 H   0  0  0  0  0  0  0  0  0  0  0  0
   -5.4947    3.2328    3.1696 H   0  0  0  0  0  0  0  0  0  0  0  0
   -6.0050    4.7923    2.5096 H   0  0  0  0  0  0  0  0  0  0  0  0
   -7.2291    3.5931    2.9616 H   0  0  0  0  0  0  0  0  0  0  0  0
   -5.2920    0.1179   -1.5625 H   0  0  0  0  0  0  0  0  0  0  0  0
   -7.0662    0.2529   -1.6969 H   0  0  0  0  0  0  0  0  0  0  0  0
   -6.0205    1.2857   -2.6790 H   0  0  0  0  0  0  0  0  0  0  0  0
   -4.1978   -2.1856    1.0483 H   0  0  0  0  0  0  0  0  0  0  0  0
   -2.5132   -2.5284   -0.7337 H   0  0  0  0  0  0  0  0  0  0  0  0
    1.5782   -1.7695   -2.7997 H   0  0  0  0  0  0  0  0  0  0  0  0
    1.1853   -0.1258   -3.3300 H   0  0  0  0  0  0  0  0  0  0  0  0
    3.6383   -0.3388   -2.9270 H   0  0  0  0  0  0  0  0  0  0  0  0
    2.9017    0.8115   -1.8000 H   0  0  0  0  0  0  0  0  0  0  0  0
    4.8208   -3.1995   -1.0538 H   0  0  0  0  0  0  0  0  0  0  0  0
    6.5054   -3.4257   -0.6664 H   0  0  0  0  0  0  0  0  0  0  0  0
    6.0654   -2.5789   -2.1683 H   0  0  0  0  0  0  0  0  0  0  0  0
  1  2  1  0
  2  3  2  0
  3  4  1  0
  4  5  2  0
  5  6  1  0
  6  7  1  0
  7  8  1  0
  8  9  1  0
  9 10  1  0
 10 11  1  0
 11 12  2  0
 11 13  1  0
 13 14  2  0
 14 15  1  0
 15 16  2  0
 16 17  1  0
 17 18  1  0
 18 19  2  0
 18 20  2  0
 18 21  1  0
 21 22  1  0
 22 23  1  0
 22 24  2  0
 24 25  1  0
 25 26  1  0
 26 27  1  0
 16 28  1  0
 28 29  2  0
 10 30  1  0
 30 31  1  0
  6 32  2  0
 32 33  1  0
 32  2  1  0
 31  7  1  0
 29 13  1  0
 26 21  2  0
  1 34  1  0
  1 35  1  0
  1 36  1  0
  3 37  1  0
  4 38  1  0
  5 39  1  0
  8 40  1  0
  8 41  1  0
  9 42  1  0
  9 43  1  0
 14 44  1  0
 15 45  1  0
 17 46  1  0
 23 47  1  0
 23 48  1  0
 23 49  1  0
 27 50  1  0
 27 51  1  0
 27 52  1  0
 28 53  1  0
 29 54  1  0
 30 55  1  0
 30 56  1  0
 31 57  1  0
 31 58  1  0
 33 59  1  0
 33 60  1  0
 33 61  1  0
M  END
$$$$
