
     RDKit          3D

 45 47  0  0  0  0  0  0  0  0999 V2000
    0.0335    2.8993   -1.1315 C   0  0  0  0  0  0  0  0  0  0  0  0
    0.5815    1.7639   -0.3266 C   0  0  0  0  0  0  0  0  0  0  0  0
   -0.0539    0.6065   -0.0631 C   0  0  0  0  0  0  0  0  0  0  0  0
   -1.3060    0.1690   -0.4365 N   0  0  0  0  0  0  0  0  0  0  0  0
   -1.7921   -1.2058   -0.4102 C   0  0  0  0  0  0  0  0  0  0  0  0
   -1.1337   -2.0390   -1.5118 C   0  0  0  0  0  0  0  0  0  0  0  0
   -3.3100   -1.2160   -0.5593 C   0  0  0  0  0  0  0  0  0  0  0  0
   -4.0761   -1.9529    0.3631 C   0  0  0  0  0  0  0  0  0  0  0  0
   -5.4671   -2.0176    0.2564 C   0  0  0  0  0  0  0  0  0  0  0  0
   -6.1185   -1.3481   -0.7758 C   0  0  0  0  0  0  0  0  0  0  0  0
   -5.3813   -0.6114   -1.7013 C   0  0  0  0  0  0  0  0  0  0  0  0
   -3.9901   -0.5490   -1.5903 C   0  0  0  0  0  0  0  0  0  0  0  0
   -3.2773    0.1892   -2.4980 O   0  0  0  0  0  0  0  0  0  0  0  0
    0.9307   -0.1801    0.7802 C   0  0  0  0  0  0  0  0  0  0  0  0
    0.7314   -1.3151    1.1905 O   0  0  0  0  0  0  0  0  0  0  0  0
    2.0781    0.6187    0.9027 N   0  0  0  0  0  0  0  0  0  0  0  0
    3.3908    0.1428    1.1629 C   0  0  0  0  0  0  0  0  0  0  0  0
    4.5194    0.8118    0.6627 C   0  0  0  0  0  0  0  0  0  0  0  0
    5.8122    0.3447    0.9215 C   0  0  0  0  0  0  0  0  0  0  0  0
    5.9980   -0.8031    1.6854 C   0  0  0  0  0  0  0  0  0  0  0  0
    4.8922   -1.4844    2.1849 C   0  0  0  0  0  0  0  0  0  0  0  0
    3.6000   -1.0159    1.9231 C   0  0  0  0  0  0  0  0  0  0  0  0
    1.8559    1.8634    0.2512 N   0  0  0  0  0  0  0  0  0  0  0  0
    2.1242    3.0296    1.1114 C   0  0  0  0  0  0  0  0  0  0  0  0
   -0.8946    2.6377   -1.6478 H   0  0  0  0  0  0  0  0  0  0  0  0
   -0.1760    3.7614   -0.4904 H   0  0  0  0  0  0  0  0  0  0  0  0
    0.7562    3.2037   -1.8959 H   0  0  0  0  0  0  0  0  0  0  0  0
   -1.7280    0.6996   -1.1967 H   0  0  0  0  0  0  0  0  0  0  0  0
   -1.5531   -1.6514    0.5612 H   0  0  0  0  0  0  0  0  0  0  0  0
   -1.3044   -1.6144   -2.5072 H   0  0  0  0  0  0  0  0  0  0  0  0
   -0.0496   -2.0973   -1.3697 H   0  0  0  0  0  0  0  0  0  0  0  0
   -1.5247   -3.0626   -1.5148 H   0  0  0  0  0  0  0  0  0  0  0  0
   -3.5873   -2.4846    1.1778 H   0  0  0  0  0  0  0  0  0  0  0  0
   -6.0396   -2.5912    0.9811 H   0  0  0  0  0  0  0  0  0  0  0  0
   -7.2012   -1.3980   -0.8566 H   0  0  0  0  0  0  0  0  0  0  0  0
   -5.9067   -0.0904   -2.4956 H   0  0  0  0  0  0  0  0  0  0  0  0
   -3.8905    0.5108   -3.1801 H   0  0  0  0  0  0  0  0  0  0  0  0
    4.4077    1.6900    0.0329 H   0  0  0  0  0  0  0  0  0  0  0  0
    6.6705    0.8739    0.5162 H   0  0  0  0  0  0  0  0  0  0  0  0
    7.0009   -1.1702    1.8858 H   0  0  0  0  0  0  0  0  0  0  0  0
    5.0284   -2.3837    2.7802 H   0  0  0  0  0  0  0  0  0  0  0  0
    2.7637   -1.5683    2.3435 H   0  0  0  0  0  0  0  0  0  0  0  0
    3.1142    2.9813    1.5737 H   0  0  0  0  0  0  0  0  0  0  0  0
    1.3801    3.1028    1.9131 H   0  0  0  0  0  0  0  0  0  0  0  0
    2.0922    3.9504    0.5193 H   0  0  0  0  0  0  0  0  0  0  0  0
  1  2  1  0
  2  3  2  0
  3  4  1  0
  4  5  1  0
  5  6  1  0
  5  7  1  0
  7  8  2  0
  8  9  1  0
  9 10  2  0
 10 11  1  0
 11 12  2  0
 12 13  1  0
  3 14  1  0
 14 15  2  0
 14 16  1  0
 16 17  1  0
 17 18  2  0
 18 19  1  0
 19 20  2  0
 20 21  1  0
 21 22  2  0
 16 23  1  0
 23 24  1  0
 23  2  1  0
 12  7  1  0
 22 17  1  0
  1 25  1  0
  1 26  1  0
  1 27  1  0
  4 28  1  0
  5 29  1  0
  6 30  1  0
  6 31  1  0
  6 32  1  0
  8 33  1  0
  9 34  1  0
 10 35  1  0
 11 36  1  0
 13 37  1  0
 18 38  1  0
 19 39  1  0
 20 40  1  0
 21 41  1  0
 22 42  1  0
 24 43  1  0
 24 44  1  0
 24 45  1  0
M  END
$$$$
