
     RDKit          3D

 46 49  0  0  0  0  0  0  0  0999 V2000
   -2.7370   -1.2259   -2.4238 C   0  0  0  0  0  0  0  0  0  0  0  0
   -2.2421   -2.0405   -1.3173 N   0  0  0  0  0  0  0  0  0  0  0  0
   -3.2960   -2.8193   -0.6717 C   0  0  0  0  0  0  0  0  0  0  0  0
   -1.4845   -1.2868   -0.3745 N   0  0  0  0  0  0  0  0  0  0  0  0
   -2.1209   -0.2870    0.3907 C   0  0  0  0  0  0  0  0  0  0  0  0
   -3.2832    0.2344    0.1222 N   0  0  0  0  0  0  0  0  0  0  0  0
   -1.3798    0.1965    1.6425 C   0  0  0  0  0  0  0  0  0  0  0  0
   -1.7466   -0.7073    2.7508 C   0  0  0  0  0  0  0  0  0  0  0  0
   -2.0248   -1.4187    3.6241 N   0  0  0  0  0  0  0  0  0  0  0  0
    0.1501    0.2182    1.4465 C   0  0  0  0  0  0  0  0  0  0  0  0
    0.6294    1.5393    0.8341 C   0  0  0  0  0  0  0  0  0  0  0  0
    0.1451    2.0130   -0.4108 C   0  0  0  0  0  0  0  0  0  0  0  0
    0.5964    3.2221   -0.9518 C   0  0  0  0  0  0  0  0  0  0  0  0
    1.5359    3.9349   -0.2423 C   0  0  0  0  0  0  0  0  0  0  0  0
    2.0261    3.4830    0.9577 C   0  0  0  0  0  0  0  0  0  0  0  0
    1.5980    2.2984    1.5190 C   0  0  0  0  0  0  0  0  0  0  0  0
    2.9507    4.3254    1.4918 O   0  0  0  0  0  0  0  0  0  0  0  0
    3.0078    5.3445    0.4737 C   0  0  0  0  0  0  0  0  0  0  0  0
    2.0837    5.1219   -0.6135 O   0  0  0  0  0  0  0  0  0  0  0  0
    0.6583   -0.9694    0.6570 C   0  0  0  0  0  0  0  0  0  0  0  0
   -0.1324   -1.6508   -0.1995 C   0  0  0  0  0  0  0  0  0  0  0  0
    0.4291   -2.7953   -1.0311 C   0  0  0  0  0  0  0  0  0  0  0  0
    1.9455   -2.7292   -1.1856 C   0  0  0  0  0  0  0  0  0  0  0  0
    2.6209   -2.5842    0.1616 C   0  0  0  0  0  0  0  0  0  0  0  0
    2.0668   -1.4029    0.9182 C   0  0  0  0  0  0  0  0  0  0  0  0
    2.7329   -0.8452    1.7902 O   0  0  0  0  0  0  0  0  0  0  0  0
   -3.5969   -0.6004   -2.1643 H   0  0  0  0  0  0  0  0  0  0  0  0
   -3.0499   -1.8799   -3.2439 H   0  0  0  0  0  0  0  0  0  0  0  0
   -1.9455   -0.5816   -2.8259 H   0  0  0  0  0  0  0  0  0  0  0  0
   -2.8794   -3.4407    0.1324 H   0  0  0  0  0  0  0  0  0  0  0  0
   -3.7471   -3.5061   -1.3963 H   0  0  0  0  0  0  0  0  0  0  0  0
   -4.0992   -2.2069   -0.2484 H   0  0  0  0  0  0  0  0  0  0  0  0
   -3.5688    0.9371    0.8114 H   0  0  0  0  0  0  0  0  0  0  0  0
   -1.7351    1.2048    1.8946 H   0  0  0  0  0  0  0  0  0  0  0  0
    0.5840    0.1590    2.4574 H   0  0  0  0  0  0  0  0  0  0  0  0
   -0.5868    1.4481   -0.9863 H   0  0  0  0  0  0  0  0  0  0  0  0
    0.2239    3.5867   -1.9015 H   0  0  0  0  0  0  0  0  0  0  0  0
    2.0221    1.9693    2.4625 H   0  0  0  0  0  0  0  0  0  0  0  0
    4.0244    5.3790    0.0652 H   0  0  0  0  0  0  0  0  0  0  0  0
    2.7816    6.3125    0.9326 H   0  0  0  0  0  0  0  0  0  0  0  0
    0.1390   -3.7481   -0.5671 H   0  0  0  0  0  0  0  0  0  0  0  0
    0.0140   -2.7846   -2.0455 H   0  0  0  0  0  0  0  0  0  0  0  0
    2.3089   -3.6306   -1.6926 H   0  0  0  0  0  0  0  0  0  0  0  0
    2.2083   -1.8738   -1.8252 H   0  0  0  0  0  0  0  0  0  0  0  0
    3.6955   -2.4307    0.0118 H   0  0  0  0  0  0  0  0  0  0  0  0
    2.4775   -3.4821    0.7706 H   0  0  0  0  0  0  0  0  0  0  0  0
  1  2  1  0
  2  3  1  0
  2  4  1  0
  4  5  1  0
  5  6  2  3
  5  7  1  0
  7  8  1  0
  8  9  3  0
  7 10  1  0
 10 11  1  0
 11 12  2  0
 12 13  1  0
 13 14  2  0
 14 15  1  0
 15 16  2  0
 15 17  1  0
 17 18  1  0
 18 19  1  0
 10 20  1  0
 20 21  2  0
 21 22  1  0
 22 23  1  0
 23 24  1  0
 24 25  1  0
 25 26  2  0
 21  4  1  0
 16 11  1  0
 25 20  1  0
 19 14  1  0
  1 27  1  0
  1 28  1  0
  1 29  1  0
  3 30  1  0
  3 31  1  0
  3 32  1  0
  6 33  1  0
  7 34  1  0
 10 35  1  0
 12 36  1  0
 13 37  1  0
 16 38  1  0
 18 39  1  0
 18 40  1  0
 22 41  1  0
 22 42  1  0
 23 43  1  0
 23 44  1  0
 24 45  1  0
 24 46  1  0
M  END
$$$$
