
     RDKit          3D

 31 32  0  0  0  0  0  0  0  0999 V2000
    0.4192    2.5254   -0.2479 S   0  0  0  0  0  0  0  0  0  0  0  0
   -0.0411    0.9514   -0.6214 C   0  0  0  0  0  0  0  0  0  0  0  0
    0.8471   -0.0812   -0.8892 N   0  0  0  0  0  0  0  0  0  0  0  0
    2.2137   -0.2565   -0.5611 C   0  0  0  0  0  0  0  0  0  0  0  0
    2.8120    0.3360    0.5545 C   0  0  0  0  0  0  0  0  0  0  0  0
    4.1600    0.1008    0.8484 C   0  0  0  0  0  0  0  0  0  0  0  0
    4.9134   -0.7454    0.0389 C   0  0  0  0  0  0  0  0  0  0  0  0
    6.5682   -1.0327    0.4092 Cl  0  0  0  0  0  0  0  0  0  0  0  0
    4.3316   -1.3723   -1.0575 C   0  0  0  0  0  0  0  0  0  0  0  0
    2.9862   -1.1347   -1.3470 C   0  0  0  0  0  0  0  0  0  0  0  0
    2.2935   -1.9503   -2.7099 Cl  0  0  0  0  0  0  0  0  0  0  0  0
   -1.3853    0.5404   -0.7851 N   0  0  0  0  0  0  0  0  0  0  0  0
   -2.5140    1.4852   -0.7808 C   0  0  0  0  0  0  0  0  0  0  0  0
   -3.2210    1.4714    0.5734 C   0  0  0  0  0  0  0  0  0  0  0  0
   -3.6628    0.0536    0.9404 C   0  0  0  0  0  0  0  0  0  0  0  0
   -2.5018   -0.9367    0.8354 C   0  0  0  0  0  0  0  0  0  0  0  0
   -1.8130   -0.8448   -0.5278 C   0  0  0  0  0  0  0  0  0  0  0  0
    0.5306   -0.6767   -1.6483 H   0  0  0  0  0  0  0  0  0  0  0  0
    2.2463    0.9631    1.2367 H   0  0  0  0  0  0  0  0  0  0  0  0
    4.6088    0.5765    1.7173 H   0  0  0  0  0  0  0  0  0  0  0  0
    4.9183   -2.0421   -1.6798 H   0  0  0  0  0  0  0  0  0  0  0  0
   -3.2068    1.1646   -1.5689 H   0  0  0  0  0  0  0  0  0  0  0  0
   -2.2002    2.4989   -1.0409 H   0  0  0  0  0  0  0  0  0  0  0  0
   -4.0916    2.1357    0.5468 H   0  0  0  0  0  0  0  0  0  0  0  0
   -2.5460    1.8499    1.3504 H   0  0  0  0  0  0  0  0  0  0  0  0
   -4.4690   -0.2609    0.2662 H   0  0  0  0  0  0  0  0  0  0  0  0
   -4.0718    0.0422    1.9568 H   0  0  0  0  0  0  0  0  0  0  0  0
   -1.7735   -0.7208    1.6271 H   0  0  0  0  0  0  0  0  0  0  0  0
   -2.8681   -1.9560    0.9996 H   0  0  0  0  0  0  0  0  0  0  0  0
   -2.5035   -1.1337   -1.3289 H   0  0  0  0  0  0  0  0  0  0  0  0
   -0.9794   -1.5505   -0.5442 H   0  0  0  0  0  0  0  0  0  0  0  0
  1  2  2  0
  2  3  1  0
  3  4  1  0
  4  5  2  0
  5  6  1  0
  6  7  2  0
  7  8  1  0
  7  9  1  0
  9 10  2  0
 10 11  1  0
  2 12  1  0
 12 13  1  0
 13 14  1  0
 14 15  1  0
 15 16  1  0
 16 17  1  0
 10  4  1  0
 17 12  1  0
  3 18  1  0
  5 19  1  0
  6 20  1  0
  9 21  1  0
 13 22  1  0
 13 23  1  0
 14 24  1  0
 14 25  1  0
 15 26  1  0
 15 27  1  0
 16 28  1  0
 16 29  1  0
 17 30  1  0
 17 31  1  0
M  END
$$$$
