
     RDKit          3D

 37 40  0  0  0  0  0  0  0  0999 V2000
    1.9388    0.7556    1.9672 O   0  0  0  0  0  0  0  0  0  0  0  0
    1.8516    0.3713    0.8095 C   0  0  0  0  0  0  0  0  0  0  0  0
    2.7759    0.4751   -0.2007 N   0  0  0  0  0  0  0  0  0  0  0  0
    4.0424    0.9909   -0.1124 C   0  0  0  0  0  0  0  0  0  0  0  0
    4.8203    1.0449   -1.1691 N   0  0  0  0  0  0  0  0  0  0  0  0
    6.0365    1.5983   -0.8169 C   0  0  0  0  0  0  0  0  0  0  0  0
    6.1647    1.9513    0.5086 C   0  0  0  0  0  0  0  0  0  0  0  0
    4.7136    1.5772    1.3391 S   0  0  0  0  0  0  0  0  0  0  0  0
    0.5702   -0.2372    0.3830 C   0  0  0  0  0  0  0  0  0  0  0  0
   -0.5669    0.5571    0.5396 C   0  0  0  0  0  0  0  0  0  0  0  0
   -1.7849    0.0613    0.1098 C   0  0  0  0  0  0  0  0  0  0  0  0
   -3.0492    0.8198    0.2202 C   0  0  0  0  0  0  0  0  0  0  0  0
   -3.2859    1.7346    1.2637 C   0  0  0  0  0  0  0  0  0  0  0  0
   -4.4863    2.4485    1.3487 C   0  0  0  0  0  0  0  0  0  0  0  0
   -5.4803    2.2604    0.3932 C   0  0  0  0  0  0  0  0  0  0  0  0
   -5.2778    1.3553   -0.6435 C   0  0  0  0  0  0  0  0  0  0  0  0
   -4.0774    0.6431   -0.7252 C   0  0  0  0  0  0  0  0  0  0  0  0
   -1.8793   -1.1636   -0.4658 N   0  0  0  0  0  0  0  0  0  0  0  0
   -0.7904   -1.9421   -0.5823 C   0  0  0  0  0  0  0  0  0  0  0  0
   -0.9414   -3.2032   -1.1431 C   0  0  0  0  0  0  0  0  0  0  0  0
    0.1325   -4.0846   -1.2845 C   0  0  0  0  0  0  0  0  0  0  0  0
    1.3934   -3.7056   -0.8487 C   0  0  0  0  0  0  0  0  0  0  0  0
    1.5730   -2.4438   -0.2854 C   0  0  0  0  0  0  0  0  0  0  0  0
    0.4878   -1.5374   -0.1592 C   0  0  0  0  0  0  0  0  0  0  0  0
    2.5389    0.1738   -1.1366 H   0  0  0  0  0  0  0  0  0  0  0  0
    6.8023    1.7225   -1.5729 H   0  0  0  0  0  0  0  0  0  0  0  0
    7.0108    2.3949    1.0128 H   0  0  0  0  0  0  0  0  0  0  0  0
   -0.4796    1.5498    0.9702 H   0  0  0  0  0  0  0  0  0  0  0  0
   -2.5432    1.8923    2.0430 H   0  0  0  0  0  0  0  0  0  0  0  0
   -4.6449    3.1462    2.1672 H   0  0  0  0  0  0  0  0  0  0  0  0
   -6.4138    2.8127    0.4605 H   0  0  0  0  0  0  0  0  0  0  0  0
   -6.0522    1.1973   -1.3895 H   0  0  0  0  0  0  0  0  0  0  0  0
   -3.9431   -0.0624   -1.5442 H   0  0  0  0  0  0  0  0  0  0  0  0
   -1.9307   -3.5137   -1.4737 H   0  0  0  0  0  0  0  0  0  0  0  0
   -0.0255   -5.0666   -1.7232 H   0  0  0  0  0  0  0  0  0  0  0  0
    2.2331   -4.3907   -0.9380 H   0  0  0  0  0  0  0  0  0  0  0  0
    2.5672   -2.1833    0.0727 H   0  0  0  0  0  0  0  0  0  0  0  0
  1  2  2  0
  2  3  1  0
  3  4  1  0
  4  5  2  0
  5  6  1  0
  6  7  2  0
  7  8  1  0
  2  9  1  0
  9 10  2  0
 10 11  1  0
 11 12  1  0
 12 13  2  0
 13 14  1  0
 14 15  2  0
 15 16  1  0
 16 17  2  0
 11 18  2  0
 18 19  1  0
 19 20  2  0
 20 21  1  0
 21 22  2  0
 22 23  1  0
 23 24  2  0
  8  4  1  0
 24  9  1  0
 17 12  1  0
 24 19  1  0
  3 25  1  0
  6 26  1  0
  7 27  1  0
 10 28  1  0
 13 29  1  0
 14 30  1  0
 15 31  1  0
 16 32  1  0
 17 33  1  0
 20 34  1  0
 21 35  1  0
 22 36  1  0
 23 37  1  0
M  END
$$$$
