
     RDKit          3D

 41 43  0  0  0  0  0  0  0  0999 V2000
   -5.7584    1.1036    2.7469 C   0  0  0  0  0  0  0  0  0  0  0  0
   -4.4180    0.8038    2.3804 O   0  0  0  0  0  0  0  0  0  0  0  0
   -4.2122    0.2967    1.1264 C   0  0  0  0  0  0  0  0  0  0  0  0
   -5.1955    0.0827    0.1618 C   0  0  0  0  0  0  0  0  0  0  0  0
   -4.8544   -0.4382   -1.0917 C   0  0  0  0  0  0  0  0  0  0  0  0
   -3.5255   -0.7500   -1.3871 C   0  0  0  0  0  0  0  0  0  0  0  0
   -3.0835   -1.2637   -2.5850 O   0  0  0  0  0  0  0  0  0  0  0  0
   -4.0617   -1.4855   -3.5938 C   0  0  0  0  0  0  0  0  0  0  0  0
   -2.5279   -0.5397   -0.4129 C   0  0  0  0  0  0  0  0  0  0  0  0
   -1.2040   -0.8705   -0.7759 N   0  0  0  0  0  0  0  0  0  0  0  0
   -0.0744   -0.8573    0.0046 C   0  0  0  0  0  0  0  0  0  0  0  0
    0.0021   -0.6050    1.2029 O   0  0  0  0  0  0  0  0  0  0  0  0
    1.0523   -1.2036   -0.7329 N   0  0  0  0  0  0  0  0  0  0  0  0
    2.2939   -1.0368   -0.0655 N   0  0  0  0  0  0  0  0  0  0  0  0
    3.2588   -0.2877   -0.7118 C   0  0  0  0  0  0  0  0  0  0  0  0
    3.1502    0.0162   -1.9002 O   0  0  0  0  0  0  0  0  0  0  0  0
    4.3856    0.1249    0.1017 C   0  0  0  0  0  0  0  0  0  0  0  0
    4.7048   -0.1571    1.4298 C   0  0  0  0  0  0  0  0  0  0  0  0
    5.9141    0.5215    1.6457 C   0  0  0  0  0  0  0  0  0  0  0  0
    6.7958    0.7061    2.6606 O   0  0  0  0  0  0  0  0  0  0  0  0
    7.7657    1.5060    2.1270 C   0  0  0  0  0  0  0  0  0  0  0  0
    7.5313    1.8330    0.8094 C   0  0  0  0  0  0  0  0  0  0  0  0
    6.3174    1.1715    0.5378 C   0  0  0  0  0  0  0  0  0  0  0  0
    5.3839    0.9347   -0.4308 N   0  0  0  0  0  0  0  0  0  0  0  0
   -2.8803   -0.0149    0.8329 C   0  0  0  0  0  0  0  0  0  0  0  0
   -6.3834    0.2046    2.7284 H   0  0  0  0  0  0  0  0  0  0  0  0
   -6.1757    1.8892    2.1082 H   0  0  0  0  0  0  0  0  0  0  0  0
   -5.7480    1.4806    3.7741 H   0  0  0  0  0  0  0  0  0  0  0  0
   -6.2388    0.3131    0.3506 H   0  0  0  0  0  0  0  0  0  0  0  0
   -5.6526   -0.5860   -1.8111 H   0  0  0  0  0  0  0  0  0  0  0  0
   -4.5415   -0.5473   -3.8914 H   0  0  0  0  0  0  0  0  0  0  0  0
   -4.8011   -2.2257   -3.2709 H   0  0  0  0  0  0  0  0  0  0  0  0
   -3.5490   -1.8896   -4.4721 H   0  0  0  0  0  0  0  0  0  0  0  0
   -1.1177   -1.2607   -1.7065 H   0  0  0  0  0  0  0  0  0  0  0  0
    1.0759   -0.8813   -1.6993 H   0  0  0  0  0  0  0  0  0  0  0  0
    2.2209   -0.9947    0.9499 H   0  0  0  0  0  0  0  0  0  0  0  0
    4.1581   -0.7603    2.1397 H   0  0  0  0  0  0  0  0  0  0  0  0
    8.5626    1.7585    2.8137 H   0  0  0  0  0  0  0  0  0  0  0  0
    8.1419    2.4468    0.1650 H   0  0  0  0  0  0  0  0  0  0  0  0
    5.4226    1.2950   -1.3771 H   0  0  0  0  0  0  0  0  0  0  0  0
   -2.1343    0.1672    1.6004 H   0  0  0  0  0  0  0  0  0  0  0  0
  1  2  1  0
  2  3  1  0
  3  4  2  0
  4  5  1  0
  5  6  2  0
  6  7  1  0
  7  8  1  0
  6  9  1  0
  9 10  1  0
 10 11  1  0
 11 12  2  0
 11 13  1  0
 13 14  1  0
 14 15  1  0
 15 16  2  0
 15 17  1  0
 17 18  2  0
 18 19  1  0
 19 20  1  0
 20 21  1  0
 21 22  2  0
 22 23  1  0
 23 24  1  0
  9 25  2  0
 25  3  1  0
 24 17  1  0
 23 19  2  0
  1 26  1  0
  1 27  1  0
  1 28  1  0
  4 29  1  0
  5 30  1  0
  8 31  1  0
  8 32  1  0
  8 33  1  0
 10 34  1  0
 13 35  1  0
 14 36  1  0
 18 37  1  0
 21 38  1  0
 22 39  1  0
 24 40  1  0
 25 41  1  0
M  END
$$$$
