
     RDKit          3D

 58 61  0  0  0  0  0  0  0  0999 V2000
    2.1811   -0.1942    0.8172 O   0  0  0  0  0  0  0  0  0  0  0  0
    2.2490    0.7485    0.0370 C   0  0  0  0  0  0  0  0  0  0  0  0
    3.2923    0.9025   -0.8525 N   0  0  0  0  0  0  0  0  0  0  0  0
    4.4122   -0.0219   -0.8756 C   0  0  0  0  0  0  0  0  0  0  0  0
    5.4021    0.2415    0.2555 C   0  0  0  0  0  0  0  0  0  0  0  0
    6.5733   -0.7070    0.2082 C   0  0  0  0  0  0  0  0  0  0  0  0
    7.7577   -0.3475   -0.4532 C   0  0  0  0  0  0  0  0  0  0  0  0
    8.8355   -1.2362   -0.5007 C   0  0  0  0  0  0  0  0  0  0  0  0
    8.7302   -2.4900    0.1071 C   0  0  0  0  0  0  0  0  0  0  0  0
   10.0608   -3.5832    0.0483 Cl  0  0  0  0  0  0  0  0  0  0  0  0
    7.5567   -2.8626    0.7614 C   0  0  0  0  0  0  0  0  0  0  0  0
    6.4794   -1.9725    0.8111 C   0  0  0  0  0  0  0  0  0  0  0  0
    1.2056    1.8695   -0.0360 C   0  0  0  0  0  0  0  0  0  0  0  0
    0.4866    1.8975   -1.3958 C   0  0  0  0  0  0  0  0  0  0  0  0
   -0.5429    0.7733   -1.5399 C   0  0  0  0  0  0  0  0  0  0  0  0
   -1.5739    0.7959   -0.3991 C   0  0  0  0  0  0  0  0  0  0  0  0
   -2.5927   -0.3428   -0.5987 C   0  0  0  0  0  0  0  0  0  0  0  0
   -3.6124   -0.3764    0.4543 N   0  0  0  0  0  0  0  0  0  0  0  0
   -4.8814    0.1719    0.2978 C   0  0  0  0  0  0  0  0  0  0  0  0
   -4.9581    1.5035   -0.0209 N   0  0  0  0  0  0  0  0  0  0  0  0
   -6.1101    2.2264   -0.1789 C   0  0  0  0  0  0  0  0  0  0  0  0
   -5.9641    3.8683   -0.5380 S   0  0  0  0  0  0  0  0  0  0  0  0
   -7.3098    1.5779   -0.0390 N   0  0  0  0  0  0  0  0  0  0  0  0
   -7.2826    0.3151    0.2602 C   0  0  0  0  0  0  0  0  0  0  0  0
   -8.5769   -0.4086    0.4140 C   0  0  0  0  0  0  0  0  0  0  0  0
   -8.6047   -1.7168    0.7035 C   0  0  0  0  0  0  0  0  0  0  0  0
   -7.4003   -2.4861    0.8906 C   0  0  0  0  0  0  0  0  0  0  0  0
   -6.1912   -1.9223    0.7871 C   0  0  0  0  0  0  0  0  0  0  0  0
   -6.0438   -0.5085    0.4690 C   0  0  0  0  0  0  0  0  0  0  0  0
   -0.8610    0.7087    0.9622 C   0  0  0  0  0  0  0  0  0  0  0  0
    0.2015    1.8041    1.1244 C   0  0  0  0  0  0  0  0  0  0  0  0
    3.3806    1.7719   -1.3590 H   0  0  0  0  0  0  0  0  0  0  0  0
    4.0226   -1.0408   -0.8194 H   0  0  0  0  0  0  0  0  0  0  0  0
    4.8985    0.0928   -1.8465 H   0  0  0  0  0  0  0  0  0  0  0  0
    5.7606    1.2734    0.1998 H   0  0  0  0  0  0  0  0  0  0  0  0
    4.9055    0.1625    1.2287 H   0  0  0  0  0  0  0  0  0  0  0  0
    7.8536    0.6286   -0.9295 H   0  0  0  0  0  0  0  0  0  0  0  0
    9.7519   -0.9467   -1.0106 H   0  0  0  0  0  0  0  0  0  0  0  0
    7.4723   -3.8408    1.2340 H   0  0  0  0  0  0  0  0  0  0  0  0
    5.5661   -2.2705    1.3262 H   0  0  0  0  0  0  0  0  0  0  0  0
    1.7720    2.8087    0.0727 H   0  0  0  0  0  0  0  0  0  0  0  0
    1.2005    1.8351   -2.2266 H   0  0  0  0  0  0  0  0  0  0  0  0
   -0.0268    2.8644   -1.5037 H   0  0  0  0  0  0  0  0  0  0  0  0
   -1.0542    0.8817   -2.5073 H   0  0  0  0  0  0  0  0  0  0  0  0
   -0.0281   -0.1962   -1.5615 H   0  0  0  0  0  0  0  0  0  0  0  0
   -2.0950    1.7605   -0.4457 H   0  0  0  0  0  0  0  0  0  0  0  0
   -2.0670   -1.3086   -0.5895 H   0  0  0  0  0  0  0  0  0  0  0  0
   -3.0714   -0.2608   -1.5854 H   0  0  0  0  0  0  0  0  0  0  0  0
   -3.6478   -1.3024    0.8744 H   0  0  0  0  0  0  0  0  0  0  0  0
   -4.0940    2.0329   -0.0818 H   0  0  0  0  0  0  0  0  0  0  0  0
   -9.4779    0.1743    0.2732 H   0  0  0  0  0  0  0  0  0  0  0  0
   -9.5509   -2.2324    0.8055 H   0  0  0  0  0  0  0  0  0  0  0  0
   -7.5042   -3.5439    1.1199 H   0  0  0  0  0  0  0  0  0  0  0  0
   -5.3130   -2.5375    0.9292 H   0  0  0  0  0  0  0  0  0  0  0  0
   -0.4007   -0.2807    1.0800 H   0  0  0  0  0  0  0  0  0  0  0  0
   -1.5875    0.8107    1.7774 H   0  0  0  0  0  0  0  0  0  0  0  0
   -0.3102    2.7743    1.1933 H   0  0  0  0  0  0  0  0  0  0  0  0
    0.7264    1.6617    2.0806 H   0  0  0  0  0  0  0  0  0  0  0  0
  1  2  2  0
  2  3  1  0
  3  4  1  0
  4  5  1  0
  5  6  1  0
  6  7  2  0
  7  8  1  0
  8  9  2  0
  9 10  1  0
  9 11  1  0
 11 12  2  0
  2 13  1  0
 13 14  1  0
 14 15  1  0
 15 16  1  0
 16 17  1  0
 17 18  1  0
 18 19  1  0
 19 20  1  0
 20 21  1  0
 21 22  2  0
 21 23  1  0
 23 24  2  0
 24 25  1  0
 25 26  2  0
 26 27  1  0
 27 28  2  0
 28 29  1  0
 16 30  1  0
 30 31  1  0
 12  6  1  0
 31 13  1  0
 29 19  2  0
 29 24  1  0
  3 32  1  0
  4 33  1  0
  4 34  1  0
  5 35  1  0
  5 36  1  0
  7 37  1  0
  8 38  1  0
 11 39  1  0
 12 40  1  0
 13 41  1  0
 14 42  1  0
 14 43  1  0
 15 44  1  0
 15 45  1  0
 16 46  1  0
 17 47  1  0
 17 48  1  0
 18 49  1  0
 20 50  1  0
 25 51  1  0
 26 52  1  0
 27 53  1  0
 28 54  1  0
 30 55  1  0
 30 56  1  0
 31 57  1  0
 31 58  1  0
M  END
$$$$
