
     RDKit          3D

 48 51  0  0  0  0  0  0  0  0999 V2000
    6.5376   -2.8722    1.5760 O   0  0  0  0  0  0  0  0  0  0  0  0
    5.3225   -2.1159    1.7914 S   0  0  0  0  0  6  0  0  0  0  0  0
    4.9411   -1.6648    3.1117 O   0  0  0  0  0  0  0  0  0  0  0  0
    4.0723   -3.0264    1.1180 N   0  0  0  0  0  0  0  0  0  0  0  0
    2.8047   -2.4233    0.8975 C   0  0  0  0  0  0  0  0  0  0  0  0
    2.3451   -2.2744   -0.4075 C   0  0  0  0  0  0  0  0  0  0  0  0
    1.1255   -1.6321   -0.6479 C   0  0  0  0  0  0  0  0  0  0  0  0
    0.3382   -1.1231    0.4033 C   0  0  0  0  0  0  0  0  0  0  0  0
   -0.9395   -0.4406    0.1240 C   0  0  0  0  0  0  0  0  0  0  0  0
   -1.4760    0.5620    0.9172 C   0  0  0  0  0  0  0  0  0  0  0  0
   -2.6935    1.1459    0.5573 C   0  0  0  0  0  0  0  0  0  0  0  0
   -3.3668    0.7237   -0.5831 C   0  0  0  0  0  0  0  0  0  0  0  0
   -4.5857    1.3316   -0.9509 N   0  0  0  0  0  0  0  0  0  0  0  0
   -5.6439    1.1743    0.0719 C   0  0  0  0  0  0  0  0  0  0  0  0
   -6.9181    1.9070   -0.3821 C   0  0  0  0  0  0  0  0  0  0  0  0
   -7.3680    1.4433   -1.6643 O   0  0  0  0  0  0  0  0  0  0  0  0
   -6.3446    1.6513   -2.6522 C   0  0  0  0  0  0  0  0  0  0  0  0
   -5.0549    0.8994   -2.2884 C   0  0  0  0  0  0  0  0  0  0  0  0
   -2.8000   -0.2350   -1.3432 N   0  0  0  0  0  0  0  0  0  0  0  0
   -1.5949   -0.8232   -0.9909 N   0  0  0  0  0  0  0  0  0  0  0  0
    0.8206   -1.3047    1.7125 C   0  0  0  0  0  0  0  0  0  0  0  0
    2.0402   -1.9470    1.9581 C   0  0  0  0  0  0  0  0  0  0  0  0
    5.3938   -0.6884    0.7289 C   0  0  0  0  0  0  0  0  0  0  0  0
    6.1649   -0.7318   -0.4357 C   0  0  0  0  0  0  0  0  0  0  0  0
    6.2182    0.3911   -1.2640 C   0  0  0  0  0  0  0  0  0  0  0  0
    5.5110    1.5515   -0.9263 C   0  0  0  0  0  0  0  0  0  0  0  0
    5.6171    2.8968   -2.0045 Cl  0  0  0  0  0  0  0  0  0  0  0  0
    4.7544    1.5918    0.2525 C   0  0  0  0  0  0  0  0  0  0  0  0
    3.8561    2.9882    0.7294 Cl  0  0  0  0  0  0  0  0  0  0  0  0
    4.7036    0.4738    1.0880 C   0  0  0  0  0  0  0  0  0  0  0  0
    4.4073   -3.7054    0.4364 H   0  0  0  0  0  0  0  0  0  0  0  0
    2.9225   -2.6405   -1.2516 H   0  0  0  0  0  0  0  0  0  0  0  0
    0.7886   -1.5226   -1.6792 H   0  0  0  0  0  0  0  0  0  0  0  0
   -0.9575    0.9237    1.7983 H   0  0  0  0  0  0  0  0  0  0  0  0
   -3.0902    1.9552    1.1608 H   0  0  0  0  0  0  0  0  0  0  0  0
   -5.8682    0.1079    0.2057 H   0  0  0  0  0  0  0  0  0  0  0  0
   -5.3381    1.5883    1.0387 H   0  0  0  0  0  0  0  0  0  0  0  0
   -6.7510    2.9896   -0.4343 H   0  0  0  0  0  0  0  0  0  0  0  0
   -7.7243    1.7281    0.3363 H   0  0  0  0  0  0  0  0  0  0  0  0
   -6.1597    2.7276   -2.7520 H   0  0  0  0  0  0  0  0  0  0  0  0
   -6.7299    1.2874   -3.6099 H   0  0  0  0  0  0  0  0  0  0  0  0
   -4.2979    1.1125   -3.0527 H   0  0  0  0  0  0  0  0  0  0  0  0
   -5.2649   -0.1785   -2.2828 H   0  0  0  0  0  0  0  0  0  0  0  0
    0.2437   -0.9644    2.5702 H   0  0  0  0  0  0  0  0  0  0  0  0
    2.3750   -2.0775    2.9850 H   0  0  0  0  0  0  0  0  0  0  0  0
    6.7255   -1.6258   -0.7024 H   0  0  0  0  0  0  0  0  0  0  0  0
    6.8162    0.3588   -2.1726 H   0  0  0  0  0  0  0  0  0  0  0  0
    4.1219    0.5064    2.0071 H   0  0  0  0  0  0  0  0  0  0  0  0
  1  2  2  0
  2  3  2  0
  2  4  1  0
  4  5  1  0
  5  6  2  0
  6  7  1  0
  7  8  2  0
  8  9  1  0
  9 10  2  0
 10 11  1  0
 11 12  2  0
 12 13  1  0
 13 14  1  0
 14 15  1  0
 15 16  1  0
 16 17  1  0
 17 18  1  0
 12 19  1  0
 19 20  2  0
  8 21  1  0
 21 22  2  0
  2 23  1  0
 23 24  2  0
 24 25  1  0
 25 26  2  0
 26 27  1  0
 26 28  1  0
 28 29  1  0
 28 30  2  0
 22  5  1  0
 30 23  1  0
 20  9  1  0
 18 13  1  0
  4 31  1  0
  6 32  1  0
  7 33  1  0
 10 34  1  0
 11 35  1  0
 14 36  1  0
 14 37  1  0
 15 38  1  0
 15 39  1  0
 17 40  1  0
 17 41  1  0
 18 42  1  0
 18 43  1  0
 21 44  1  0
 22 45  1  0
 24 46  1  0
 25 47  1  0
 30 48  1  0
M  END
$$$$
