
     RDKit          3D

 46 49  0  0  0  0  0  0  0  0999 V2000
   -1.5061    1.8390    1.5885 O   0  0  0  0  0  0  0  0  0  0  0  0
   -1.2857    0.7710    1.0229 C   0  0  0  0  0  0  0  0  0  0  0  0
    0.0386    0.4682    0.5053 C   0  0  0  0  0  0  0  0  0  0  0  0
    0.7341   -0.7116    0.6992 C   0  0  0  0  0  0  0  0  0  0  0  0
    1.9658   -0.5635    0.1135 N   0  0  0  0  0  0  0  0  0  0  0  0
    3.0237   -1.5145    0.0465 C   0  0  0  0  0  0  0  0  0  0  0  0
    4.2158   -1.1735   -0.6121 C   0  0  0  0  0  0  0  0  0  0  0  0
    5.2654   -2.0912   -0.6913 C   0  0  0  0  0  0  0  0  0  0  0  0
    5.1344   -3.3527   -0.1154 C   0  0  0  0  0  0  0  0  0  0  0  0
    3.9545   -3.6994    0.5406 C   0  0  0  0  0  0  0  0  0  0  0  0
    2.8987   -2.7861    0.6239 C   0  0  0  0  0  0  0  0  0  0  0  0
    2.0998    0.6617   -0.4428 N   0  0  0  0  0  0  0  0  0  0  0  0
    0.9479    1.3075   -0.1988 C   0  0  0  0  0  0  0  0  0  0  0  0
    0.7727    2.6860   -0.6696 C   0  0  0  0  0  0  0  0  0  0  0  0
   -0.4628    3.1460   -1.1507 C   0  0  0  0  0  0  0  0  0  0  0  0
   -0.6026    4.4616   -1.6031 C   0  0  0  0  0  0  0  0  0  0  0  0
    0.4926    5.3162   -1.5827 C   0  0  0  0  0  0  0  0  0  0  0  0
    0.3557    6.5750   -2.0194 F   0  0  0  0  0  0  0  0  0  0  0  0
    1.7278    4.8817   -1.1210 C   0  0  0  0  0  0  0  0  0  0  0  0
    1.8680    3.5678   -0.6677 C   0  0  0  0  0  0  0  0  0  0  0  0
   -2.2745   -0.2183    0.8872 N   0  0  0  0  0  0  0  0  0  0  0  0
   -3.5579    0.0643    1.5266 C   0  0  0  0  0  0  0  0  0  0  0  0
   -4.3492   -1.2102    1.8044 C   0  0  0  0  0  0  0  0  0  0  0  0
   -4.4890   -2.0646    0.5489 C   0  0  0  0  0  0  0  0  0  0  0  0
   -3.1185   -2.3458   -0.0591 C   0  0  0  0  0  0  0  0  0  0  0  0
   -2.3534   -1.0518   -0.3163 C   0  0  0  0  0  0  0  0  0  0  0  0
    0.4430   -1.6107    1.2197 H   0  0  0  0  0  0  0  0  0  0  0  0
    4.3424   -0.1939   -1.0703 H   0  0  0  0  0  0  0  0  0  0  0  0
    6.1850   -1.8182   -1.2030 H   0  0  0  0  0  0  0  0  0  0  0  0
    5.9529   -4.0654   -0.1772 H   0  0  0  0  0  0  0  0  0  0  0  0
    3.8566   -4.6845    0.9905 H   0  0  0  0  0  0  0  0  0  0  0  0
    2.0012   -3.1004    1.1465 H   0  0  0  0  0  0  0  0  0  0  0  0
   -1.3296    2.4923   -1.1850 H   0  0  0  0  0  0  0  0  0  0  0  0
   -1.5582    4.8222   -1.9697 H   0  0  0  0  0  0  0  0  0  0  0  0
    2.5727    5.5622   -1.1159 H   0  0  0  0  0  0  0  0  0  0  0  0
    2.8386    3.2305   -0.3086 H   0  0  0  0  0  0  0  0  0  0  0  0
   -4.1208    0.7334    0.8641 H   0  0  0  0  0  0  0  0  0  0  0  0
   -3.3945    0.5978    2.4700 H   0  0  0  0  0  0  0  0  0  0  0  0
   -5.3400   -0.9555    2.1963 H   0  0  0  0  0  0  0  0  0  0  0  0
   -3.8354   -1.7936    2.5789 H   0  0  0  0  0  0  0  0  0  0  0  0
   -4.9894   -3.0080    0.7933 H   0  0  0  0  0  0  0  0  0  0  0  0
   -5.1181   -1.5442   -0.1834 H   0  0  0  0  0  0  0  0  0  0  0  0
   -3.2337   -2.9029   -0.9953 H   0  0  0  0  0  0  0  0  0  0  0  0
   -2.5419   -2.9790    0.6268 H   0  0  0  0  0  0  0  0  0  0  0  0
   -2.8611   -0.4559   -1.0856 H   0  0  0  0  0  0  0  0  0  0  0  0
   -1.3657   -1.2890   -0.7154 H   0  0  0  0  0  0  0  0  0  0  0  0
  1  2  2  0
  2  3  1  0
  3  4  2  0
  4  5  1  0
  5  6  1  0
  6  7  2  0
  7  8  1  0
  8  9  2  0
  9 10  1  0
 10 11  2  0
  5 12  1  0
 12 13  2  0
 13 14  1  0
 14 15  2  0
 15 16  1  0
 16 17  2  0
 17 18  1  0
 17 19  1  0
 19 20  2  0
  2 21  1  0
 21 22  1  0
 22 23  1  0
 23 24  1  0
 24 25  1  0
 25 26  1  0
 13  3  1  0
 20 14  1  0
 26 21  1  0
 11  6  1  0
  4 27  1  0
  7 28  1  0
  8 29  1  0
  9 30  1  0
 10 31  1  0
 11 32  1  0
 15 33  1  0
 16 34  1  0
 19 35  1  0
 20 36  1  0
 22 37  1  0
 22 38  1  0
 23 39  1  0
 23 40  1  0
 24 41  1  0
 24 42  1  0
 25 43  1  0
 25 44  1  0
 26 45  1  0
 26 46  1  0
M  END
$$$$
