
     RDKit          3D

 46 47  0  0  0  0  0  0  0  0999 V2000
    0.2728   -3.4033    0.8282 C   0  0  0  0  0  0  0  0  0  0  0  0
    1.5673   -2.8290    0.2848 C   0  0  0  0  0  0  0  0  0  0  0  0
    1.4567   -1.3982    0.2638 O   0  0  0  0  0  0  0  0  0  0  0  0
    2.5687   -0.7666   -0.2164 C   0  0  0  0  0  0  0  0  0  0  0  0
    3.5441   -1.3563   -0.6668 O   0  0  0  0  0  0  0  0  0  0  0  0
    2.4399    0.6913   -0.2274 C   0  0  0  0  0  0  0  0  0  0  0  0
    3.0901    1.5236   -1.1361 C   0  0  0  0  0  0  0  0  0  0  0  0
    4.0229    1.1973   -2.2505 C   0  0  0  0  0  0  0  0  0  0  0  0
    2.7415    2.8210   -0.8612 N   0  0  0  0  0  0  0  0  0  0  0  0
    1.8838    2.8658    0.2083 C   0  0  0  0  0  0  0  0  0  0  0  0
    1.3645    4.1633    0.7176 C   0  0  0  0  0  0  0  0  0  0  0  0
    1.6953    1.5593    0.6410 C   0  0  0  0  0  0  0  0  0  0  0  0
    0.7569    1.0353    2.0114 S   0  0  0  0  0  6  0  0  0  0  0  0
    0.2244    2.2379    2.6101 O   0  0  0  0  0  0  0  0  0  0  0  0
    1.6491    0.1484    2.7220 O   0  0  0  0  0  0  0  0  0  0  0  0
   -0.5270    0.1263    1.4302 N   0  0  0  0  0  0  0  0  0  0  0  0
   -1.5342    0.8483    0.6496 C   0  0  0  0  0  0  0  0  0  0  0  0
   -2.3876   -0.1235   -0.1376 C   0  0  0  0  0  0  0  0  0  0  0  0
   -2.0928   -0.3331   -1.4977 C   0  0  0  0  0  0  0  0  0  0  0  0
   -2.8247   -1.2452   -2.2566 C   0  0  0  0  0  0  0  0  0  0  0  0
   -3.8560   -1.9672   -1.6663 C   0  0  0  0  0  0  0  0  0  0  0  0
   -4.1535   -1.7810   -0.3164 C   0  0  0  0  0  0  0  0  0  0  0  0
   -3.4263   -0.8666    0.4627 C   0  0  0  0  0  0  0  0  0  0  0  0
   -3.7681   -0.7128    1.9203 C   0  0  0  0  0  0  0  0  0  0  0  0
    0.3145   -4.4955    0.8616 H   0  0  0  0  0  0  0  0  0  0  0  0
   -0.5749   -3.1011    0.2043 H   0  0  0  0  0  0  0  0  0  0  0  0
    0.0774   -3.0267    1.8376 H   0  0  0  0  0  0  0  0  0  0  0  0
    1.7353   -3.2020   -0.7320 H   0  0  0  0  0  0  0  0  0  0  0  0
    2.4018   -3.1238    0.9309 H   0  0  0  0  0  0  0  0  0  0  0  0
    4.2503    2.0805   -2.8566 H   0  0  0  0  0  0  0  0  0  0  0  0
    3.5822    0.4436   -2.9112 H   0  0  0  0  0  0  0  0  0  0  0  0
    4.9660    0.8071   -1.8548 H   0  0  0  0  0  0  0  0  0  0  0  0
    3.0813    3.6310   -1.3662 H   0  0  0  0  0  0  0  0  0  0  0  0
    1.7297    4.3518    1.7321 H   0  0  0  0  0  0  0  0  0  0  0  0
    1.6874    4.9989    0.0875 H   0  0  0  0  0  0  0  0  0  0  0  0
    0.2700    4.1624    0.7274 H   0  0  0  0  0  0  0  0  0  0  0  0
   -0.1670   -0.7085    0.9637 H   0  0  0  0  0  0  0  0  0  0  0  0
   -1.0564    1.5419   -0.0515 H   0  0  0  0  0  0  0  0  0  0  0  0
   -2.1619    1.4541    1.3110 H   0  0  0  0  0  0  0  0  0  0  0  0
   -1.2839    0.2157   -1.9763 H   0  0  0  0  0  0  0  0  0  0  0  0
   -2.5890   -1.3938   -3.3072 H   0  0  0  0  0  0  0  0  0  0  0  0
   -4.4281   -2.6797   -2.2546 H   0  0  0  0  0  0  0  0  0  0  0  0
   -4.9598   -2.3614    0.1280 H   0  0  0  0  0  0  0  0  0  0  0  0
   -4.6038   -1.3606    2.2067 H   0  0  0  0  0  0  0  0  0  0  0  0
   -2.9127   -0.9872    2.5452 H   0  0  0  0  0  0  0  0  0  0  0  0
   -4.0663    0.3181    2.1356 H   0  0  0  0  0  0  0  0  0  0  0  0
  1  2  1  0
  2  3  1  0
  3  4  1  0
  4  5  2  0
  4  6  1  0
  6  7  2  0
  7  8  1  0
  7  9  1  0
  9 10  1  0
 10 11  1  0
 10 12  2  0
 12 13  1  0
 13 14  2  0
 13 15  2  0
 13 16  1  0
 16 17  1  0
 17 18  1  0
 18 19  2  0
 19 20  1  0
 20 21  2  0
 21 22  1  0
 22 23  2  0
 23 24  1  0
 12  6  1  0
 23 18  1  0
  1 25  1  0
  1 26  1  0
  1 27  1  0
  2 28  1  0
  2 29  1  0
  8 30  1  0
  8 31  1  0
  8 32  1  0
  9 33  1  0
 11 34  1  0
 11 35  1  0
 11 36  1  0
 16 37  1  0
 17 38  1  0
 17 39  1  0
 19 40  1  0
 20 41  1  0
 21 42  1  0
 22 43  1  0
 24 44  1  0
 24 45  1  0
 24 46  1  0
M  END
$$$$
