
     RDKit          3D

 50 53  0  0  0  0  0  0  0  0999 V2000
    5.9473   -1.8245    0.8273 C   0  0  0  0  0  0  0  0  0  0  0  0
    4.6090   -1.5130    1.3657 C   0  0  0  0  0  0  0  0  0  0  0  0
    3.8355   -2.0630    2.3648 C   0  0  0  0  0  0  0  0  0  0  0  0
    2.6384   -1.3094    2.4029 C   0  0  0  0  0  0  0  0  0  0  0  0
    2.7551   -0.3440    1.4251 C   0  0  0  0  0  0  0  0  0  0  0  0
    1.8562    0.7403    0.9505 C   0  0  0  0  0  0  0  0  0  0  0  0
    0.8576    0.1876    0.0296 N   0  0  0  0  0  0  0  0  0  0  0  0
    1.3201   -0.1719   -1.3157 C   0  0  0  0  0  0  0  0  0  0  0  0
    1.7305    1.0227   -2.1307 C   0  0  0  0  0  0  0  0  0  0  0  0
    0.8110    2.0043   -2.5134 C   0  0  0  0  0  0  0  0  0  0  0  0
    1.2366    3.0896   -3.2739 C   0  0  0  0  0  0  0  0  0  0  0  0
    2.5729    3.1575   -3.6300 C   0  0  0  0  0  0  0  0  0  0  0  0
    3.4895    2.2308   -3.2801 N   0  0  0  0  0  0  0  0  0  0  0  0
    3.0509    1.1888   -2.5385 C   0  0  0  0  0  0  0  0  0  0  0  0
   -0.3757   -0.1803    0.5665 C   0  0  0  0  0  0  0  0  0  0  0  0
   -0.6484    0.0258    1.7524 O   0  0  0  0  0  0  0  0  0  0  0  0
   -1.3982   -0.8233   -0.3859 C   0  0  0  0  0  0  0  0  0  0  0  0
   -2.6721   -1.0988    0.2687 N   0  0  0  0  0  0  0  0  0  0  0  0
   -2.8508   -2.3489    0.8459 C   0  0  0  0  0  0  0  0  0  0  0  0
   -2.0302   -3.2634    0.7588 O   0  0  0  0  0  0  0  0  0  0  0  0
   -4.1197   -2.4937    1.6765 C   0  0  0  0  0  0  0  0  0  0  0  0
   -5.2584   -1.7547    1.2748 O   0  0  0  0  0  0  0  0  0  0  0  0
   -4.9445   -0.4782    0.8920 C   0  0  0  0  0  0  0  0  0  0  0  0
   -5.9878    0.4471    0.9682 C   0  0  0  0  0  0  0  0  0  0  0  0
   -5.7781    1.7681    0.5830 C   0  0  0  0  0  0  0  0  0  0  0  0
   -4.5272    2.1587    0.1135 C   0  0  0  0  0  0  0  0  0  0  0  0
   -3.4878    1.2268    0.0164 C   0  0  0  0  0  0  0  0  0  0  0  0
   -3.6847   -0.1079    0.3970 C   0  0  0  0  0  0  0  0  0  0  0  0
    3.9550   -0.4678    0.7866 O   0  0  0  0  0  0  0  0  0  0  0  0
    6.6196   -0.9708    0.9562 H   0  0  0  0  0  0  0  0  0  0  0  0
    6.3866   -2.6855    1.3403 H   0  0  0  0  0  0  0  0  0  0  0  0
    5.8855   -2.0583   -0.2400 H   0  0  0  0  0  0  0  0  0  0  0  0
    4.1013   -2.9051    2.9886 H   0  0  0  0  0  0  0  0  0  0  0  0
    1.7861   -1.4489    3.0550 H   0  0  0  0  0  0  0  0  0  0  0  0
    2.4228    1.5274    0.4429 H   0  0  0  0  0  0  0  0  0  0  0  0
    1.3687    1.2142    1.8095 H   0  0  0  0  0  0  0  0  0  0  0  0
    2.1471   -0.8839   -1.2134 H   0  0  0  0  0  0  0  0  0  0  0  0
    0.5502   -0.7052   -1.8783 H   0  0  0  0  0  0  0  0  0  0  0  0
   -0.2327    1.9323   -2.2210 H   0  0  0  0  0  0  0  0  0  0  0  0
    0.5440    3.8648   -3.5818 H   0  0  0  0  0  0  0  0  0  0  0  0
    2.9536    3.9841   -4.2231 H   0  0  0  0  0  0  0  0  0  0  0  0
    3.8223    0.4709   -2.2683 H   0  0  0  0  0  0  0  0  0  0  0  0
   -0.9731   -1.7678   -0.7430 H   0  0  0  0  0  0  0  0  0  0  0  0
   -1.5654   -0.1841   -1.2583 H   0  0  0  0  0  0  0  0  0  0  0  0
   -3.8774   -2.2417    2.7163 H   0  0  0  0  0  0  0  0  0  0  0  0
   -4.4056   -3.5511    1.6530 H   0  0  0  0  0  0  0  0  0  0  0  0
   -6.9621    0.1355    1.3354 H   0  0  0  0  0  0  0  0  0  0  0  0
   -6.5869    2.4907    0.6531 H   0  0  0  0  0  0  0  0  0  0  0  0
   -4.3574    3.1926   -0.1777 H   0  0  0  0  0  0  0  0  0  0  0  0
   -2.5292    1.5848   -0.3432 H   0  0  0  0  0  0  0  0  0  0  0  0
  1  2  1  0
  2  3  2  0
  3  4  1  0
  4  5  2  0
  5  6  1  0
  6  7  1  0
  7  8  1  0
  8  9  1  0
  9 10  2  0
 10 11  1  0
 11 12  2  0
 12 13  1  0
 13 14  2  0
  7 15  1  0
 15 16  2  0
 15 17  1  0
 17 18  1  0
 18 19  1  0
 19 20  2  0
 19 21  1  0
 21 22  1  0
 22 23  1  0
 23 24  2  0
 24 25  1  0
 25 26  2  0
 26 27  1  0
 27 28  2  0
  5 29  1  0
 29  2  1  0
 14  9  1  0
 28 18  1  0
 28 23  1  0
  1 30  1  0
  1 31  1  0
  1 32  1  0
  3 33  1  0
  4 34  1  0
  6 35  1  0
  6 36  1  0
  8 37  1  0
  8 38  1  0
 10 39  1  0
 11 40  1  0
 12 41  1  0
 14 42  1  0
 17 43  1  0
 17 44  1  0
 21 45  1  0
 21 46  1  0
 24 47  1  0
 25 48  1  0
 26 49  1  0
 27 50  1  0
M  END
$$$$
