
     RDKit          3D

 55 57  0  0  0  0  0  0  0  0999 V2000
    1.4857    4.3347    0.4650 C   0  0  0  0  0  0  0  0  0  0  0  0
    0.0116    3.9255    0.4074 C   0  0  0  0  0  0  0  0  0  0  0  0
   -0.7284    4.8150   -0.5972 C   0  0  0  0  0  0  0  0  0  0  0  0
   -0.1837    2.4376    0.0347 C   0  0  0  0  0  0  0  0  0  0  0  0
    0.3647    1.4539    1.0983 C   0  0  0  0  0  0  0  0  0  0  0  0
    1.5650    0.6259    0.6427 C   0  0  0  0  0  0  0  0  0  0  0  0
    1.8014   -0.5379    0.9513 O   0  0  0  0  0  0  0  0  0  0  0  0
    2.4166    1.3554   -0.1270 O   0  0  0  0  0  0  0  0  0  0  0  0
    3.5863    0.6704   -0.5848 C   0  0  0  0  0  0  0  0  0  0  0  0
    3.3621   -0.2201   -1.8152 C   0  0  0  0  0  0  0  0  0  0  0  0
    3.9387    0.0263   -2.8712 O   0  0  0  0  0  0  0  0  0  0  0  0
    2.5107   -1.2842   -1.5721 N   0  0  0  0  0  0  0  0  0  0  0  0
    2.0260   -2.2335   -2.4907 C   0  0  0  0  0  0  0  0  0  0  0  0
    2.3683   -2.2605   -3.8453 C   0  0  0  0  0  0  0  0  0  0  0  0
    1.8218   -3.2276   -4.6960 C   0  0  0  0  0  0  0  0  0  0  0  0
    0.9268   -4.1739   -4.1983 C   0  0  0  0  0  0  0  0  0  0  0  0
    0.5864   -4.1517   -2.8481 C   0  0  0  0  0  0  0  0  0  0  0  0
   -0.5275   -5.3126   -2.2258 Cl  0  0  0  0  0  0  0  0  0  0  0  0
    1.1315   -3.1917   -1.9951 C   0  0  0  0  0  0  0  0  0  0  0  0
   -0.7002    0.5707    1.5895 N   0  0  0  0  0  0  0  0  0  0  0  0
   -1.1997    0.5749    2.8722 C   0  0  0  0  0  0  0  0  0  0  0  0
   -0.7504    1.4365    3.7766 O   0  0  0  0  0  0  0  0  0  0  0  0
   -2.1455   -0.4253    2.9554 C   0  0  0  0  0  0  0  0  0  0  0  0
   -2.2389   -1.0367    1.6668 C   0  0  0  0  0  0  0  0  0  0  0  0
   -1.3430   -0.3908    0.8397 C   0  0  0  0  0  0  0  0  0  0  0  0
   -1.0413   -0.5624   -0.4429 O   0  0  0  0  0  0  0  0  0  0  0  0
   -3.1624   -2.1732    1.3706 C   0  0  0  0  0  0  0  0  0  0  0  0
   -3.9604   -2.5982    2.5793 C   0  0  0  0  0  0  0  0  0  0  0  0
   -3.8706   -2.0220    3.7931 C   0  0  0  0  0  0  0  0  0  0  0  0
   -2.9591   -0.8670    4.1278 C   0  0  0  0  0  0  0  0  0  0  0  0
    2.0260    3.7690    1.2317 H   0  0  0  0  0  0  0  0  0  0  0  0
    1.9817    4.1724   -0.4984 H   0  0  0  0  0  0  0  0  0  0  0  0
    1.5843    5.4000    0.7154 H   0  0  0  0  0  0  0  0  0  0  0  0
   -0.4297    4.1000    1.3992 H   0  0  0  0  0  0  0  0  0  0  0  0
   -1.7939    4.5648   -0.6275 H   0  0  0  0  0  0  0  0  0  0  0  0
   -0.3226    4.6968   -1.6107 H   0  0  0  0  0  0  0  0  0  0  0  0
   -0.6421    5.8731   -0.3148 H   0  0  0  0  0  0  0  0  0  0  0  0
    0.2694    2.2517   -0.9466 H   0  0  0  0  0  0  0  0  0  0  0  0
   -1.2607    2.2765   -0.1012 H   0  0  0  0  0  0  0  0  0  0  0  0
    0.7291    2.0115    1.9698 H   0  0  0  0  0  0  0  0  0  0  0  0
    4.3157    1.4432   -0.8671 H   0  0  0  0  0  0  0  0  0  0  0  0
    4.0516    0.0857    0.2202 H   0  0  0  0  0  0  0  0  0  0  0  0
    2.1590   -1.3742   -0.6139 H   0  0  0  0  0  0  0  0  0  0  0  0
    3.0564   -1.5375   -4.2765 H   0  0  0  0  0  0  0  0  0  0  0  0
    2.0949   -3.2351   -5.7493 H   0  0  0  0  0  0  0  0  0  0  0  0
    0.5022   -4.9200   -4.8624 H   0  0  0  0  0  0  0  0  0  0  0  0
    0.8487   -3.1939   -0.9442 H   0  0  0  0  0  0  0  0  0  0  0  0
   -1.2296    1.2630    4.6055 H   0  0  0  0  0  0  0  0  0  0  0  0
   -1.6225   -1.2642   -0.7873 H   0  0  0  0  0  0  0  0  0  0  0  0
   -3.8548   -1.8832    0.5712 H   0  0  0  0  0  0  0  0  0  0  0  0
   -2.5779   -3.0277    1.0145 H   0  0  0  0  0  0  0  0  0  0  0  0
   -4.6447   -3.4292    2.4345 H   0  0  0  0  0  0  0  0  0  0  0  0
   -4.4797   -2.4021    4.6049 H   0  0  0  0  0  0  0  0  0  0  0  0
   -2.2861   -1.1708    4.9408 H   0  0  0  0  0  0  0  0  0  0  0  0
   -3.5668   -0.0272    4.4880 H   0  0  0  0  0  0  0  0  0  0  0  0
  1  2  1  0
  2  3  1  0
  2  4  1  0
  4  5  1  0
  5  6  1  0
  6  7  2  0
  6  8  1  0
  8  9  1  0
  9 10  1  0
 10 11  2  0
 10 12  1  0
 12 13  1  0
 13 14  2  0
 14 15  1  0
 15 16  2  0
 16 17  1  0
 17 18  1  0
 17 19  2  0
  5 20  1  0
 20 21  1  0
 21 22  1  0
 21 23  2  0
 23 24  1  0
 24 25  2  0
 25 26  1  0
 24 27  1  0
 27 28  1  0
 28 29  2  0
 29 30  1  0
 19 13  1  0
 25 20  1  0
 30 23  1  0
  1 31  1  0
  1 32  1  0
  1 33  1  0
  2 34  1  0
  3 35  1  0
  3 36  1  0
  3 37  1  0
  4 38  1  0
  4 39  1  0
  5 40  1  0
  9 41  1  0
  9 42  1  0
 12 43  1  0
 14 44  1  0
 15 45  1  0
 16 46  1  0
 19 47  1  0
 22 48  1  0
 26 49  1  0
 27 50  1  0
 27 51  1  0
 28 52  1  0
 29 53  1  0
 30 54  1  0
 30 55  1  0
M  END
$$$$
