
     RDKit          3D

 55 56  0  0  0  0  0  0  0  0999 V2000
   -5.0694   -0.0428    2.0323 C   0  0  0  0  0  0  0  0  0  0  0  0
   -4.9119    0.4072    0.5752 C   0  0  0  0  0  0  0  0  0  0  0  0
   -3.5751    0.9209    0.3209 N   0  0  0  0  0  0  0  0  0  0  0  0
   -2.4873    0.0923    0.1740 C   0  0  0  0  0  0  0  0  0  0  0  0
   -2.5497   -1.1292    0.2568 O   0  0  0  0  0  0  0  0  0  0  0  0
   -1.2037    0.8453   -0.1046 C   0  0  0  0  0  0  0  0  0  0  0  0
   -0.0280   -0.1161   -0.2186 C   0  0  0  0  0  0  0  0  0  0  0  0
    1.5308    0.7435   -0.6354 S   0  0  0  0  0  0  0  0  0  0  0  0
    1.9331    1.5413    0.9612 C   0  0  0  0  0  0  0  0  0  0  0  0
    2.4573    0.5812    2.0163 C   0  0  0  0  0  0  0  0  0  0  0  0
    3.9077    0.2255    1.7793 C   0  0  0  0  0  0  0  0  0  0  0  0
    4.8151    0.7758    2.3947 O   0  0  0  0  0  0  0  0  0  0  0  0
    4.0995   -0.7488    0.8300 N   0  0  0  0  0  0  0  0  0  0  0  0
    5.4279   -1.1253    0.3710 C   0  0  0  0  0  0  0  0  0  0  0  0
    6.1991   -1.9182    1.4347 C   0  0  0  0  0  0  0  0  0  0  0  0
    5.3022   -1.8889   -0.9374 C   0  0  0  0  0  0  0  0  0  0  0  0
    4.8176   -3.2075   -0.9793 C   0  0  0  0  0  0  0  0  0  0  0  0
    4.6862   -3.8803   -2.1961 C   0  0  0  0  0  0  0  0  0  0  0  0
    5.0264   -3.2419   -3.3870 C   0  0  0  0  0  0  0  0  0  0  0  0
    5.4917   -1.9287   -3.3641 C   0  0  0  0  0  0  0  0  0  0  0  0
    5.6260   -1.2550   -2.1480 C   0  0  0  0  0  0  0  0  0  0  0  0
   -5.9354    1.4497    0.1571 C   0  0  0  0  0  0  0  0  0  0  0  0
   -6.2385    2.5629    0.9583 C   0  0  0  0  0  0  0  0  0  0  0  0
   -7.1646    3.5182    0.5316 C   0  0  0  0  0  0  0  0  0  0  0  0
   -7.7926    3.3804   -0.7044 C   0  0  0  0  0  0  0  0  0  0  0  0
   -7.4931    2.2900   -1.5177 C   0  0  0  0  0  0  0  0  0  0  0  0
   -6.5683    1.3338   -1.0924 C   0  0  0  0  0  0  0  0  0  0  0  0
   -4.3897   -0.8722    2.2603 H   0  0  0  0  0  0  0  0  0  0  0  0
   -6.0925   -0.3862    2.2265 H   0  0  0  0  0  0  0  0  0  0  0  0
   -4.8367    0.7618    2.7404 H   0  0  0  0  0  0  0  0  0  0  0  0
   -5.0457   -0.4879   -0.0485 H   0  0  0  0  0  0  0  0  0  0  0  0
   -3.4612    1.9235    0.2339 H   0  0  0  0  0  0  0  0  0  0  0  0
   -1.0518    1.5630    0.7078 H   0  0  0  0  0  0  0  0  0  0  0  0
   -1.3361    1.3986   -1.0418 H   0  0  0  0  0  0  0  0  0  0  0  0
   -0.2162   -0.8301   -1.0304 H   0  0  0  0  0  0  0  0  0  0  0  0
    0.1022   -0.7087    0.6928 H   0  0  0  0  0  0  0  0  0  0  0  0
    1.0457    2.0617    1.3281 H   0  0  0  0  0  0  0  0  0  0  0  0
    2.6841    2.3085    0.7490 H   0  0  0  0  0  0  0  0  0  0  0  0
    2.4077    1.0656    2.9997 H   0  0  0  0  0  0  0  0  0  0  0  0
    1.8588   -0.3323    2.0956 H   0  0  0  0  0  0  0  0  0  0  0  0
    3.3292   -0.9293    0.1939 H   0  0  0  0  0  0  0  0  0  0  0  0
    5.9843   -0.1952    0.1897 H   0  0  0  0  0  0  0  0  0  0  0  0
    6.3944   -1.3047    2.3185 H   0  0  0  0  0  0  0  0  0  0  0  0
    5.6408   -2.7978    1.7751 H   0  0  0  0  0  0  0  0  0  0  0  0
    7.1673   -2.2587    1.0492 H   0  0  0  0  0  0  0  0  0  0  0  0
    4.5314   -3.7210   -0.0639 H   0  0  0  0  0  0  0  0  0  0  0  0
    4.3151   -4.9020   -2.2132 H   0  0  0  0  0  0  0  0  0  0  0  0
    4.9223   -3.7659   -4.3338 H   0  0  0  0  0  0  0  0  0  0  0  0
    5.7472   -1.4262   -4.2940 H   0  0  0  0  0  0  0  0  0  0  0  0
    5.9811   -0.2259   -2.1535 H   0  0  0  0  0  0  0  0  0  0  0  0
   -5.7568    2.7021    1.9236 H   0  0  0  0  0  0  0  0  0  0  0  0
   -7.3956    4.3720    1.1646 H   0  0  0  0  0  0  0  0  0  0  0  0
   -8.5129    4.1245   -1.0349 H   0  0  0  0  0  0  0  0  0  0  0  0
   -7.9777    2.1841   -2.4854 H   0  0  0  0  0  0  0  0  0  0  0  0
   -6.3416    0.4936   -1.7474 H   0  0  0  0  0  0  0  0  0  0  0  0
  1  2  1  0
  2  3  1  0
  3  4  1  0
  4  5  2  0
  4  6  1  0
  6  7  1  0
  7  8  1  0
  8  9  1  0
  9 10  1  0
 10 11  1  0
 11 12  2  0
 11 13  1  0
 13 14  1  0
 14 15  1  0
 14 16  1  0
 16 17  2  0
 17 18  1  0
 18 19  2  0
 19 20  1  0
 20 21  2  0
  2 22  1  0
 22 23  2  0
 23 24  1  0
 24 25  2  0
 25 26  1  0
 26 27  2  0
 21 16  1  0
 27 22  1  0
  1 28  1  0
  1 29  1  0
  1 30  1  0
  2 31  1  0
  3 32  1  0
  6 33  1  0
  6 34  1  0
  7 35  1  0
  7 36  1  0
  9 37  1  0
  9 38  1  0
 10 39  1  0
 10 40  1  0
 13 41  1  0
 14 42  1  0
 15 43  1  0
 15 44  1  0
 15 45  1  0
 17 46  1  0
 18 47  1  0
 19 48  1  0
 20 49  1  0
 21 50  1  0
 23 51  1  0
 24 52  1  0
 25 53  1  0
 26 54  1  0
 27 55  1  0
M  END
$$$$
