
     RDKit          3D

 50 52  0  0  0  0  0  0  0  0999 V2000
   -3.4106   -0.8676   -2.6813 O   0  0  0  0  0  0  0  0  0  0  0  0
   -3.9479    0.0842   -2.1204 C   0  0  0  0  0  0  0  0  0  0  0  0
   -3.1658    1.2743   -1.5589 C   0  0  0  0  0  0  0  0  0  0  0  0
   -1.7812    0.9872   -1.3729 O   0  0  0  0  0  0  0  0  0  0  0  0
   -1.5213    0.2185   -0.2865 C   0  0  0  0  0  0  0  0  0  0  0  0
   -2.3363   -0.1225    0.5563 O   0  0  0  0  0  0  0  0  0  0  0  0
   -0.0774   -0.1378   -0.2270 C   0  0  0  0  0  0  0  0  0  0  0  0
    0.8142    0.1642   -1.2684 C   0  0  0  0  0  0  0  0  0  0  0  0
    2.1628   -0.1900   -1.1666 C   0  0  0  0  0  0  0  0  0  0  0  0
    2.6169   -0.8456   -0.0194 C   0  0  0  0  0  0  0  0  0  0  0  0
    4.3274   -1.3037    0.1317 S   0  0  0  0  0  6  0  0  0  0  0  0
    5.0482   -0.7805   -1.0099 O   0  0  0  0  0  0  0  0  0  0  0  0
    4.3617   -2.7113    0.4652 O   0  0  0  0  0  0  0  0  0  0  0  0
    4.8285   -0.4124    1.5008 N   0  0  0  0  0  0  0  0  0  0  0  0
    4.7986    1.0724    1.3682 C   0  0  0  0  0  0  0  0  0  0  0  0
    6.2001    1.6671    1.3586 C   0  0  0  0  0  0  0  0  0  0  0  0
    6.9623    1.3373    2.6402 C   0  0  0  0  0  0  0  0  0  0  0  0
    6.5567   -0.0139    3.2253 C   0  0  0  0  0  0  0  0  0  0  0  0
    6.0557   -0.9607    2.1426 C   0  0  0  0  0  0  0  0  0  0  0  0
    1.7381   -1.1629    1.0203 C   0  0  0  0  0  0  0  0  0  0  0  0
    0.3918   -0.8072    0.9141 C   0  0  0  0  0  0  0  0  0  0  0  0
   -5.3107    0.1838   -1.9579 N   0  0  0  0  0  0  0  0  0  0  0  0
   -6.1949   -0.8074   -2.5230 C   0  0  0  0  0  0  0  0  0  0  0  0
   -7.5574   -0.5915   -1.9814 C   0  0  0  0  0  0  0  0  0  0  0  0
   -8.4143   -1.3711   -1.2325 C   0  0  0  0  0  0  0  0  0  0  0  0
   -9.5815   -0.5973   -1.0255 C   0  0  0  0  0  0  0  0  0  0  0  0
   -9.3630    0.6039   -1.6576 C   0  0  0  0  0  0  0  0  0  0  0  0
   -8.1357    0.6200   -2.2385 O   0  0  0  0  0  0  0  0  0  0  0  0
   -3.6193    1.6351   -0.6280 H   0  0  0  0  0  0  0  0  0  0  0  0
   -3.2336    2.0850   -2.2923 H   0  0  0  0  0  0  0  0  0  0  0  0
    0.4694    0.6651   -2.1704 H   0  0  0  0  0  0  0  0  0  0  0  0
    2.8439    0.0420   -1.9830 H   0  0  0  0  0  0  0  0  0  0  0  0
    4.2203    1.4716    2.2102 H   0  0  0  0  0  0  0  0  0  0  0  0
    4.2722    1.3820    0.4600 H   0  0  0  0  0  0  0  0  0  0  0  0
    6.7551    1.2743    0.4971 H   0  0  0  0  0  0  0  0  0  0  0  0
    6.1512    2.7542    1.2297 H   0  0  0  0  0  0  0  0  0  0  0  0
    8.0377    1.3470    2.4259 H   0  0  0  0  0  0  0  0  0  0  0  0
    6.7906    2.1169    3.3922 H   0  0  0  0  0  0  0  0  0  0  0  0
    7.4065   -0.4562    3.7571 H   0  0  0  0  0  0  0  0  0  0  0  0
    5.7643    0.1389    3.9693 H   0  0  0  0  0  0  0  0  0  0  0  0
    5.8106   -1.9240    2.6033 H   0  0  0  0  0  0  0  0  0  0  0  0
    6.8389   -1.1250    1.3931 H   0  0  0  0  0  0  0  0  0  0  0  0
    2.0954   -1.6870    1.9045 H   0  0  0  0  0  0  0  0  0  0  0  0
   -0.2932   -1.0585    1.7226 H   0  0  0  0  0  0  0  0  0  0  0  0
   -5.7254    1.0590   -1.6633 H   0  0  0  0  0  0  0  0  0  0  0  0
   -6.1881   -0.6926   -3.6120 H   0  0  0  0  0  0  0  0  0  0  0  0
   -5.8213   -1.8077   -2.2796 H   0  0  0  0  0  0  0  0  0  0  0  0
   -8.2173   -2.3740   -0.8789 H   0  0  0  0  0  0  0  0  0  0  0  0
  -10.4725   -0.8792   -0.4821 H   0  0  0  0  0  0  0  0  0  0  0  0
   -9.9502    1.5035   -1.7794 H   0  0  0  0  0  0  0  0  0  0  0  0
  1  2  2  0
  2  3  1  0
  3  4  1  0
  4  5  1  0
  5  6  2  0
  5  7  1  0
  7  8  2  0
  8  9  1  0
  9 10  2  0
 10 11  1  0
 11 12  2  0
 11 13  2  0
 11 14  1  0
 14 15  1  0
 15 16  1  0
 16 17  1  0
 17 18  1  0
 18 19  1  0
 10 20  1  0
 20 21  2  0
  2 22  1  0
 22 23  1  0
 23 24  1  0
 24 25  2  0
 25 26  1  0
 26 27  2  0
 27 28  1  0
 21  7  1  0
 28 24  1  0
 19 14  1  0
  3 29  1  0
  3 30  1  0
  8 31  1  0
  9 32  1  0
 15 33  1  0
 15 34  1  0
 16 35  1  0
 16 36  1  0
 17 37  1  0
 17 38  1  0
 18 39  1  0
 18 40  1  0
 19 41  1  0
 19 42  1  0
 20 43  1  0
 21 44  1  0
 22 45  1  0
 23 46  1  0
 23 47  1  0
 25 48  1  0
 26 49  1  0
 27 50  1  0
M  END
$$$$
