
     RDKit          3D

 48 51  0  0  0  0  0  0  0  0999 V2000
    5.3890   -0.1883   -1.5847 C   0  0  0  0  0  0  0  0  0  0  0  0
    4.2795    0.8412   -1.8052 C   0  0  0  0  0  0  0  0  0  0  0  0
    4.2111    1.7993   -0.6146 C   0  0  0  0  0  0  0  0  0  0  0  0
    2.9255    0.1601   -2.0476 C   0  0  0  0  0  0  0  0  0  0  0  0
    2.5629   -0.6228   -0.9050 O   0  0  0  0  0  0  0  0  0  0  0  0
    1.3199   -1.1650   -0.9777 C   0  0  0  0  0  0  0  0  0  0  0  0
    0.5471   -1.0849   -1.9181 O   0  0  0  0  0  0  0  0  0  0  0  0
    1.0509   -1.9146    0.2724 C   0  0  0  0  0  0  0  0  0  0  0  0
    2.0234   -2.8438    0.6869 C   0  0  0  0  0  0  0  0  0  0  0  0
    1.7676   -3.7137    1.7468 C   0  0  0  0  0  0  0  0  0  0  0  0
    0.5335   -3.6775    2.3890 C   0  0  0  0  0  0  0  0  0  0  0  0
   -0.4400   -2.7597    1.9874 C   0  0  0  0  0  0  0  0  0  0  0  0
   -0.1848   -1.8582    0.9392 C   0  0  0  0  0  0  0  0  0  0  0  0
   -1.1764   -0.8814    0.6235 N   0  0  0  0  0  0  0  0  0  0  0  0
   -2.5713   -1.0999    0.5941 C   0  0  0  0  0  0  0  0  0  0  0  0
   -3.1225   -2.2889    0.8201 O   0  0  0  0  0  0  0  0  0  0  0  0
   -3.1474    0.0859    0.2444 C   0  0  0  0  0  0  0  0  0  0  0  0
   -2.1421    1.0580    0.1025 C   0  0  0  0  0  0  0  0  0  0  0  0
   -0.9349    0.4872    0.3778 C   0  0  0  0  0  0  0  0  0  0  0  0
    0.2726    1.0353    0.4773 O   0  0  0  0  0  0  0  0  0  0  0  0
   -2.8163    2.3461   -0.2494 C   0  0  0  0  0  0  0  0  0  0  0  0
   -3.6198    2.8196    0.9896 C   0  0  0  0  0  0  0  0  0  0  0  0
   -4.7401    1.7381    1.1371 C   0  0  0  0  0  0  0  0  0  0  0  0
   -4.4559    0.7579   -0.0301 C   0  0  0  0  0  0  0  0  0  0  0  0
   -3.9961    1.7895   -1.1124 C   0  0  0  0  0  0  0  0  0  0  0  0
    6.3602    0.3069   -1.4800 H   0  0  0  0  0  0  0  0  0  0  0  0
    5.2172   -0.7827   -0.6810 H   0  0  0  0  0  0  0  0  0  0  0  0
    5.4550   -0.8749   -2.4349 H   0  0  0  0  0  0  0  0  0  0  0  0
    4.5278    1.4252   -2.7002 H   0  0  0  0  0  0  0  0  0  0  0  0
    3.4245    2.5465   -0.7637 H   0  0  0  0  0  0  0  0  0  0  0  0
    5.1598    2.3329   -0.4933 H   0  0  0  0  0  0  0  0  0  0  0  0
    4.0023    1.2691    0.3208 H   0  0  0  0  0  0  0  0  0  0  0  0
    2.9912   -0.4948   -2.9247 H   0  0  0  0  0  0  0  0  0  0  0  0
    2.1593    0.9234   -2.2318 H   0  0  0  0  0  0  0  0  0  0  0  0
    2.9747   -2.9125    0.1635 H   0  0  0  0  0  0  0  0  0  0  0  0
    2.5231   -4.4306    2.0576 H   0  0  0  0  0  0  0  0  0  0  0  0
    0.3265   -4.3593    3.2104 H   0  0  0  0  0  0  0  0  0  0  0  0
   -1.3819   -2.7338    2.5313 H   0  0  0  0  0  0  0  0  0  0  0  0
   -4.0767   -2.1939    0.6553 H   0  0  0  0  0  0  0  0  0  0  0  0
    0.1752    1.9739    0.2409 H   0  0  0  0  0  0  0  0  0  0  0  0
   -2.1906    3.0978   -0.7299 H   0  0  0  0  0  0  0  0  0  0  0  0
   -3.0029    2.8788    1.8929 H   0  0  0  0  0  0  0  0  0  0  0  0
   -4.0724    3.8015    0.8109 H   0  0  0  0  0  0  0  0  0  0  0  0
   -5.7249    2.2054    1.0244 H   0  0  0  0  0  0  0  0  0  0  0  0
   -4.6957    1.2495    2.1166 H   0  0  0  0  0  0  0  0  0  0  0  0
   -5.2790    0.1042   -0.3175 H   0  0  0  0  0  0  0  0  0  0  0  0
   -4.7564    2.5419   -1.3489 H   0  0  0  0  0  0  0  0  0  0  0  0
   -3.6516    1.3062   -2.0352 H   0  0  0  0  0  0  0  0  0  0  0  0
  1  2  1  0
  2  3  1  0
  2  4  1  0
  4  5  1  0
  5  6  1  0
  6  7  2  0
  6  8  1  0
  8  9  2  0
  9 10  1  0
 10 11  2  0
 11 12  1  0
 12 13  2  0
 13 14  1  0
 14 15  1  0
 15 16  1  0
 15 17  2  0
 17 18  1  0
 18 19  2  0
 19 20  1  0
 18 21  1  0
 21 22  1  0
 22 23  1  0
 23 24  1  0
 24 25  1  0
 13  8  1  0
 19 14  1  0
 25 21  1  0
 24 17  1  0
  1 26  1  0
  1 27  1  0
  1 28  1  0
  2 29  1  0
  3 30  1  0
  3 31  1  0
  3 32  1  0
  4 33  1  0
  4 34  1  0
  9 35  1  0
 10 36  1  0
 11 37  1  0
 12 38  1  0
 16 39  1  0
 20 40  1  0
 21 41  1  0
 22 42  1  0
 22 43  1  0
 23 44  1  0
 23 45  1  0
 24 46  1  0
 25 47  1  0
 25 48  1  0
M  END
$$$$
