
     RDKit          3D

 59 62  0  0  0  0  0  0  0  0999 V2000
   -2.9314    0.9089   -3.7975 C   0  0  0  0  0  0  0  0  0  0  0  0
   -1.6448    0.5659   -3.0647 C   0  0  0  0  0  0  0  0  0  0  0  0
   -1.3525    1.5751   -1.9562 C   0  0  0  0  0  0  0  0  0  0  0  0
   -0.1403    1.2638   -1.2181 N   0  0  0  0  0  0  0  0  0  0  0  0
   -0.0509    0.6796    0.0374 C   0  0  0  0  0  0  0  0  0  0  0  0
   -1.1821    0.2087    0.8346 C   0  0  0  0  0  0  0  0  0  0  0  0
   -1.9535   -0.8827    0.4120 C   0  0  0  0  0  0  0  0  0  0  0  0
   -3.0416   -1.3159    1.1717 C   0  0  0  0  0  0  0  0  0  0  0  0
   -3.8648   -2.3580    0.8314 O   0  0  0  0  0  0  0  0  0  0  0  0
   -3.4220   -3.2266   -0.2027 C   0  0  0  0  0  0  0  0  0  0  0  0
   -3.3509   -0.6376    2.3631 C   0  0  0  0  0  0  0  0  0  0  0  0
   -4.3998   -1.0833    3.1376 O   0  0  0  0  0  0  0  0  0  0  0  0
   -5.5935   -0.3895    2.7799 C   0  0  0  0  0  0  0  0  0  0  0  0
   -2.5554    0.4239    2.8266 C   0  0  0  0  0  0  0  0  0  0  0  0
   -2.9265    0.9919    4.0178 O   0  0  0  0  0  0  0  0  0  0  0  0
   -1.9774    1.8392    4.6522 C   0  0  0  0  0  0  0  0  0  0  0  0
   -1.4750    0.8444    2.0496 C   0  0  0  0  0  0  0  0  0  0  0  0
    1.2095    0.6447    0.4423 N   0  0  0  0  0  0  0  0  0  0  0  0
    1.9334    1.1745   -0.5777 C   0  0  0  0  0  0  0  0  0  0  0  0
    1.1348    1.5801   -1.6063 C   0  0  0  0  0  0  0  0  0  0  0  0
    1.6548    2.1935   -2.7788 C   0  0  0  0  0  0  0  0  0  0  0  0
    0.9874    2.5862   -3.7286 O   0  0  0  0  0  0  0  0  0  0  0  0
    3.0256    2.3145   -2.7459 N   0  0  0  0  0  0  0  0  0  0  0  0
    3.8794    1.9134   -1.7349 C   0  0  0  0  0  0  0  0  0  0  0  0
    5.0887    2.1020   -1.8710 O   0  0  0  0  0  0  0  0  0  0  0  0
    3.3038    1.3259   -0.6141 N   0  0  0  0  0  0  0  0  0  0  0  0
    4.1511    0.8373    0.4633 C   0  0  0  0  0  0  0  0  0  0  0  0
    4.5499   -0.6088    0.2702 C   0  0  0  0  0  0  0  0  0  0  0  0
    3.7514   -1.6413    0.7830 C   0  0  0  0  0  0  0  0  0  0  0  0
    4.1094   -2.9765    0.5911 C   0  0  0  0  0  0  0  0  0  0  0  0
    5.2650   -3.2937   -0.1201 C   0  0  0  0  0  0  0  0  0  0  0  0
    6.0613   -2.2768   -0.6435 C   0  0  0  0  0  0  0  0  0  0  0  0
    5.7049   -0.9409   -0.4525 C   0  0  0  0  0  0  0  0  0  0  0  0
   -3.1236    0.1775   -4.5888 H   0  0  0  0  0  0  0  0  0  0  0  0
   -2.8678    1.8997   -4.2586 H   0  0  0  0  0  0  0  0  0  0  0  0
   -3.7860    0.9012   -3.1134 H   0  0  0  0  0  0  0  0  0  0  0  0
   -0.8183    0.5385   -3.7838 H   0  0  0  0  0  0  0  0  0  0  0  0
   -1.7265   -0.4444   -2.6500 H   0  0  0  0  0  0  0  0  0  0  0  0
   -1.2372    2.5854   -2.3651 H   0  0  0  0  0  0  0  0  0  0  0  0
   -2.1850    1.6235   -1.2462 H   0  0  0  0  0  0  0  0  0  0  0  0
   -1.6787   -1.3870   -0.5078 H   0  0  0  0  0  0  0  0  0  0  0  0
   -4.1221   -4.0657   -0.2572 H   0  0  0  0  0  0  0  0  0  0  0  0
   -3.4366   -2.7182   -1.1722 H   0  0  0  0  0  0  0  0  0  0  0  0
   -2.4292   -3.6343    0.0153 H   0  0  0  0  0  0  0  0  0  0  0  0
   -6.4031   -0.7701    3.4097 H   0  0  0  0  0  0  0  0  0  0  0  0
   -5.5012    0.6866    2.9631 H   0  0  0  0  0  0  0  0  0  0  0  0
   -5.8644   -0.5735    1.7345 H   0  0  0  0  0  0  0  0  0  0  0  0
   -1.0134    1.3355    4.7813 H   0  0  0  0  0  0  0  0  0  0  0  0
   -1.8627    2.7777    4.1005 H   0  0  0  0  0  0  0  0  0  0  0  0
   -2.3609    2.0842    5.6474 H   0  0  0  0  0  0  0  0  0  0  0  0
   -0.8422    1.6700    2.3615 H   0  0  0  0  0  0  0  0  0  0  0  0
    3.4622    2.7378   -3.5494 H   0  0  0  0  0  0  0  0  0  0  0  0
    3.6357    0.9664    1.4235 H   0  0  0  0  0  0  0  0  0  0  0  0
    5.0550    1.4563    0.5272 H   0  0  0  0  0  0  0  0  0  0  0  0
    2.8398   -1.4073    1.3307 H   0  0  0  0  0  0  0  0  0  0  0  0
    3.4836   -3.7680    0.9949 H   0  0  0  0  0  0  0  0  0  0  0  0
    5.5430   -4.3335   -0.2698 H   0  0  0  0  0  0  0  0  0  0  0  0
    6.9597   -2.5228   -1.2035 H   0  0  0  0  0  0  0  0  0  0  0  0
    6.3321   -0.1573   -0.8745 H   0  0  0  0  0  0  0  0  0  0  0  0
  1  2  1  0
  2  3  1  0
  3  4  1  0
  4  5  1  0
  5  6  1  0
  6  7  2  0
  7  8  1  0
  8  9  1  0
  9 10  1  0
  8 11  2  0
 11 12  1  0
 12 13  1  0
 11 14  1  0
 14 15  1  0
 15 16  1  0
 14 17  2  0
  5 18  2  0
 18 19  1  0
 19 20  2  0
 20 21  1  0
 21 22  2  0
 21 23  1  0
 23 24  1  0
 24 25  2  0
 24 26  1  0
 26 27  1  0
 27 28  1  0
 28 29  2  0
 29 30  1  0
 30 31  2  0
 31 32  1  0
 32 33  2  0
 20  4  1  0
 33 28  1  0
 17  6  1  0
 26 19  1  0
  1 34  1  0
  1 35  1  0
  1 36  1  0
  2 37  1  0
  2 38  1  0
  3 39  1  0
  3 40  1  0
  7 41  1  0
 10 42  1  0
 10 43  1  0
 10 44  1  0
 13 45  1  0
 13 46  1  0
 13 47  1  0
 16 48  1  0
 16 49  1  0
 16 50  1  0
 17 51  1  0
 23 52  1  0
 27 53  1  0
 27 54  1  0
 29 55  1  0
 30 56  1  0
 31 57  1  0
 32 58  1  0
 33 59  1  0
M  END
$$$$
