
     RDKit          3D

 44 47  0  0  0  0  0  0  0  0999 V2000
    4.1826    0.8811   -2.8548 C   0  0  0  0  0  0  0  0  0  0  0  0
    5.4150    0.7827   -2.1423 O   0  0  0  0  0  0  0  0  0  0  0  0
    5.3317    0.3922   -0.8729 C   0  0  0  0  0  0  0  0  0  0  0  0
    6.2956    0.1829    0.0903 C   0  0  0  0  0  0  0  0  0  0  0  0
    5.6048   -0.2194    1.2554 C   0  0  0  0  0  0  0  0  0  0  0  0
    4.2577   -0.2357    0.9398 C   0  0  0  0  0  0  0  0  0  0  0  0
    3.0973   -0.5844    1.7317 C   0  0  0  0  0  0  0  0  0  0  0  0
    3.1646   -1.0704    2.8585 O   0  0  0  0  0  0  0  0  0  0  0  0
    1.8999   -0.3262    1.1078 N   0  0  0  0  0  0  0  0  0  0  0  0
    0.6403   -0.7746    1.6528 C   0  0  0  0  0  0  0  0  0  0  0  0
    0.3582   -2.2361    1.2343 C   0  0  0  0  0  0  0  0  0  0  0  0
   -1.1338   -2.5955    1.3415 C   0  0  0  0  0  0  0  0  0  0  0  0
   -2.0022   -1.7078    0.4266 C   0  0  0  0  0  0  0  0  0  0  0  0
   -1.6250   -0.2751    0.5983 C   0  0  0  0  0  0  0  0  0  0  0  0
   -0.4329    0.1406    1.1678 C   0  0  0  0  0  0  0  0  0  0  0  0
   -0.5569    1.5291    1.2764 C   0  0  0  0  0  0  0  0  0  0  0  0
   -1.7189    1.9716    0.8027 N   0  0  0  0  0  0  0  0  0  0  0  0
   -2.3730    0.8645    0.3310 N   0  0  0  0  0  0  0  0  0  0  0  0
   -3.6473    1.0447   -0.2792 C   0  0  0  0  0  0  0  0  0  0  0  0
   -4.3403    2.2487   -0.0388 C   0  0  0  0  0  0  0  0  0  0  0  0
   -5.6040    2.4761   -0.5936 C   0  0  0  0  0  0  0  0  0  0  0  0
   -6.1887    1.5126   -1.4094 C   0  0  0  0  0  0  0  0  0  0  0  0
   -5.5011    0.3313   -1.6777 C   0  0  0  0  0  0  0  0  0  0  0  0
   -4.2386    0.1044   -1.1214 C   0  0  0  0  0  0  0  0  0  0  0  0
   -3.6089   -1.0109   -1.5052 F   0  0  0  0  0  0  0  0  0  0  0  0
    4.0897    0.1429   -0.3679 O   0  0  0  0  0  0  0  0  0  0  0  0
    3.6740   -0.0938   -2.9011 H   0  0  0  0  0  0  0  0  0  0  0  0
    4.4076    1.1953   -3.8788 H   0  0  0  0  0  0  0  0  0  0  0  0
    3.5278    1.6402   -2.4061 H   0  0  0  0  0  0  0  0  0  0  0  0
    7.3635    0.3070   -0.0444 H   0  0  0  0  0  0  0  0  0  0  0  0
    6.0243   -0.4664    2.2182 H   0  0  0  0  0  0  0  0  0  0  0  0
    1.9400   -0.0300    0.1376 H   0  0  0  0  0  0  0  0  0  0  0  0
    0.6784   -0.7201    2.7484 H   0  0  0  0  0  0  0  0  0  0  0  0
    0.6825   -2.4021    0.1975 H   0  0  0  0  0  0  0  0  0  0  0  0
    0.9538   -2.9175    1.8542 H   0  0  0  0  0  0  0  0  0  0  0  0
   -1.4569   -2.4848    2.3848 H   0  0  0  0  0  0  0  0  0  0  0  0
   -1.2815   -3.6475    1.0692 H   0  0  0  0  0  0  0  0  0  0  0  0
   -1.8217   -2.0090   -0.6120 H   0  0  0  0  0  0  0  0  0  0  0  0
   -3.0563   -1.8791    0.6657 H   0  0  0  0  0  0  0  0  0  0  0  0
    0.1400    2.2392    1.7042 H   0  0  0  0  0  0  0  0  0  0  0  0
   -3.9127    3.0203    0.6013 H   0  0  0  0  0  0  0  0  0  0  0  0
   -6.1262    3.4072   -0.3857 H   0  0  0  0  0  0  0  0  0  0  0  0
   -7.1693    1.6878   -1.8456 H   0  0  0  0  0  0  0  0  0  0  0  0
   -5.9331   -0.4160   -2.3369 H   0  0  0  0  0  0  0  0  0  0  0  0
  1  2  1  0
  2  3  1  0
  3  4  2  0
  4  5  1  0
  5  6  2  0
  6  7  1  0
  7  8  2  0
  7  9  1  0
  9 10  1  0
 10 11  1  0
 11 12  1  0
 12 13  1  0
 13 14  1  0
 14 15  2  0
 15 16  1  0
 16 17  2  0
 17 18  1  0
 18 19  1  0
 19 20  2  0
 20 21  1  0
 21 22  2  0
 22 23  1  0
 23 24  2  0
 24 25  1  0
  6 26  1  0
 26  3  1  0
 15 10  1  0
 24 19  1  0
 18 14  1  0
  1 27  1  0
  1 28  1  0
  1 29  1  0
  4 30  1  0
  5 31  1  0
  9 32  1  0
 10 33  1  0
 11 34  1  0
 11 35  1  0
 12 36  1  0
 12 37  1  0
 13 38  1  0
 13 39  1  0
 16 40  1  0
 20 41  1  0
 21 42  1  0
 22 43  1  0
 23 44  1  0
M  END
$$$$
