
     RDKit          3D

 42 45  0  0  0  0  0  0  0  0999 V2000
    1.9878    2.2339    0.8507 O   0  0  0  0  0  0  0  0  0  0  0  0
    0.8874    1.7368    0.6522 C   0  0  0  0  0  0  0  0  0  0  0  0
   -0.0793    2.4404   -0.0020 N   0  0  0  0  0  0  0  0  0  0  0  0
   -1.4218    2.2785    0.1531 C   0  0  0  0  0  0  0  0  0  0  0  0
   -2.1798    3.1685   -0.2268 O   0  0  0  0  0  0  0  0  0  0  0  0
   -1.8472    1.1090    0.7511 N   0  0  0  0  0  0  0  0  0  0  0  0
   -3.2908    0.9028    0.8765 C   0  0  0  0  0  0  0  0  0  0  0  0
   -3.9590    0.4541   -0.4285 C   0  0  0  0  0  0  0  0  0  0  0  0
   -3.5327   -0.9193   -0.9227 C   0  0  0  0  0  0  0  0  0  0  0  0
   -4.7131   -1.3102   -1.7764 C   0  0  0  0  0  0  0  0  0  0  0  0
   -5.8746   -0.7680   -0.9709 C   0  0  0  0  0  0  0  0  0  0  0  0
   -5.3876    0.3723   -0.2466 O   0  0  0  0  0  0  0  0  0  0  0  0
   -1.0007    0.0981    1.1806 C   0  0  0  0  0  0  0  0  0  0  0  0
   -1.4085   -0.9913    1.5802 O   0  0  0  0  0  0  0  0  0  0  0  0
    0.4538    0.4045    1.1205 C   0  0  0  0  0  0  0  0  0  0  0  0
    1.3038   -0.5677    1.5069 C   0  0  0  0  0  0  0  0  0  0  0  0
    2.7274   -0.5460    1.4718 C   0  0  0  0  0  0  0  0  0  0  0  0
    3.5191   -0.6066    2.5955 C   0  0  0  0  0  0  0  0  0  0  0  0
    4.8257   -0.5734    2.1829 N   0  0  0  0  0  0  0  0  0  0  0  0
    4.8937   -0.5414    0.8077 C   0  0  0  0  0  0  0  0  0  0  0  0
    6.0090   -0.5254   -0.0387 C   0  0  0  0  0  0  0  0  0  0  0  0
    5.7769   -0.4992   -1.4168 C   0  0  0  0  0  0  0  0  0  0  0  0
    4.4808   -0.4905   -1.9262 C   0  0  0  0  0  0  0  0  0  0  0  0
    3.3761   -0.5048   -1.0666 C   0  0  0  0  0  0  0  0  0  0  0  0
    3.5816   -0.5253    0.3292 C   0  0  0  0  0  0  0  0  0  0  0  0
    0.1996    3.3621   -0.3101 H   0  0  0  0  0  0  0  0  0  0  0  0
   -3.7518    1.8434    1.2050 H   0  0  0  0  0  0  0  0  0  0  0  0
   -3.5072    0.1810    1.6737 H   0  0  0  0  0  0  0  0  0  0  0  0
   -3.7852    1.1975   -1.2164 H   0  0  0  0  0  0  0  0  0  0  0  0
   -2.5878   -0.9024   -1.4725 H   0  0  0  0  0  0  0  0  0  0  0  0
   -3.4399   -1.6266   -0.0904 H   0  0  0  0  0  0  0  0  0  0  0  0
   -4.7869   -2.3851   -1.9608 H   0  0  0  0  0  0  0  0  0  0  0  0
   -4.6578   -0.7994   -2.7450 H   0  0  0  0  0  0  0  0  0  0  0  0
   -6.2253   -1.5017   -0.2374 H   0  0  0  0  0  0  0  0  0  0  0  0
   -6.7190   -0.4720   -1.5996 H   0  0  0  0  0  0  0  0  0  0  0  0
    0.8895   -1.5031    1.8834 H   0  0  0  0  0  0  0  0  0  0  0  0
    3.2753   -0.6506    3.6484 H   0  0  0  0  0  0  0  0  0  0  0  0
    5.6300   -0.5839    2.7941 H   0  0  0  0  0  0  0  0  0  0  0  0
    7.0203   -0.5330    0.3543 H   0  0  0  0  0  0  0  0  0  0  0  0
    6.6225   -0.4853   -2.1006 H   0  0  0  0  0  0  0  0  0  0  0  0
    4.3238   -0.4711   -3.0017 H   0  0  0  0  0  0  0  0  0  0  0  0
    2.3716   -0.4996   -1.4764 H   0  0  0  0  0  0  0  0  0  0  0  0
  1  2  2  0
  2  3  1  0
  3  4  1  0
  4  5  2  0
  4  6  1  0
  6  7  1  0
  7  8  1  0
  8  9  1  0
  9 10  1  0
 10 11  1  0
 11 12  1  0
  6 13  1  0
 13 14  2  0
 13 15  1  0
 15 16  2  3
 16 17  1  0
 17 18  2  0
 18 19  1  0
 19 20  1  0
 20 21  2  0
 21 22  1  0
 22 23  2  0
 23 24  1  0
 24 25  2  0
 15  2  1  0
 25 17  1  0
 12  8  1  0
 25 20  1  0
  3 26  1  0
  7 27  1  0
  7 28  1  0
  8 29  1  0
  9 30  1  0
  9 31  1  0
 10 32  1  0
 10 33  1  0
 11 34  1  0
 11 35  1  0
 16 36  1  0
 18 37  1  0
 19 38  1  0
 21 39  1  0
 22 40  1  0
 23 41  1  0
 24 42  1  0
M  END
$$$$
