
     RDKit          3D

 37 37  0  0  0  0  0  0  0  0999 V2000
    2.8286   -1.9099    1.2775 C   0  0  0  0  0  0  0  0  0  0  0  0
    3.0156   -0.7382    0.3258 C   0  0  0  0  0  0  0  0  0  0  0  0
    2.8456    0.5982    1.0490 C   0  0  0  0  0  0  0  0  0  0  0  0
    3.0716    1.8101    0.1442 C   0  0  0  0  0  0  0  0  0  0  0  0
    2.0986    1.9801   -1.0285 C   0  0  0  0  0  0  0  0  0  0  0  0
    0.6448    2.2479   -0.6220 C   0  0  0  0  0  0  0  0  0  0  0  0
   -0.2228    0.9873   -0.6055 C   0  0  0  0  0  0  0  0  0  0  0  0
   -1.6707    1.3154   -0.2313 C   0  0  0  0  0  0  0  0  0  0  0  0
   -2.4851    0.0892   -0.2099 N   0  0  0  0  0  0  0  0  0  0  0  0
   -2.5868   -0.6859    0.9388 C   0  0  0  0  0  0  0  0  0  0  0  0
   -3.2787   -1.8298    1.0239 C   0  0  0  0  0  0  0  0  0  0  0  0
   -3.9839   -2.3105   -0.1940 C   0  0  0  0  0  0  0  0  0  0  0  0
   -4.6836   -3.3983   -0.2187 N   0  0  0  0  0  0  0  0  0  0  0  0
   -3.8571   -1.4852   -1.4200 C   0  0  0  0  0  0  0  0  0  0  0  0
   -3.1297   -0.3631   -1.3548 C   0  0  0  0  0  0  0  0  0  0  0  0
    3.5608   -1.8765    2.0905 H   0  0  0  0  0  0  0  0  0  0  0  0
    1.8257   -1.9015    1.7164 H   0  0  0  0  0  0  0  0  0  0  0  0
    2.9576   -2.8563    0.7431 H   0  0  0  0  0  0  0  0  0  0  0  0
    4.0153   -0.7935   -0.1204 H   0  0  0  0  0  0  0  0  0  0  0  0
    2.2919   -0.8314   -0.4902 H   0  0  0  0  0  0  0  0  0  0  0  0
    3.5740    0.6487    1.8687 H   0  0  0  0  0  0  0  0  0  0  0  0
    1.8586    0.6569    1.5199 H   0  0  0  0  0  0  0  0  0  0  0  0
    3.0364    2.7151    0.7639 H   0  0  0  0  0  0  0  0  0  0  0  0
    4.0906    1.7600   -0.2603 H   0  0  0  0  0  0  0  0  0  0  0  0
    2.1642    1.1309   -1.7173 H   0  0  0  0  0  0  0  0  0  0  0  0
    2.4461    2.8527   -1.5975 H   0  0  0  0  0  0  0  0  0  0  0  0
    0.6045    2.7533    0.3500 H   0  0  0  0  0  0  0  0  0  0  0  0
    0.2119    2.9434   -1.3527 H   0  0  0  0  0  0  0  0  0  0  0  0
   -0.1969    0.5115   -1.5938 H   0  0  0  0  0  0  0  0  0  0  0  0
    0.1751    0.2554    0.1030 H   0  0  0  0  0  0  0  0  0  0  0  0
   -1.7044    1.8039    0.7510 H   0  0  0  0  0  0  0  0  0  0  0  0
   -2.0919    2.0341   -0.9458 H   0  0  0  0  0  0  0  0  0  0  0  0
   -2.0509   -0.2966    1.7998 H   0  0  0  0  0  0  0  0  0  0  0  0
   -3.3384   -2.4082    1.9339 H   0  0  0  0  0  0  0  0  0  0  0  0
   -4.6749   -3.8538    0.6979 H   0  0  0  0  0  0  0  0  0  0  0  0
   -4.3545   -1.8235   -2.3179 H   0  0  0  0  0  0  0  0  0  0  0  0
   -3.0071    0.2679   -2.2302 H   0  0  0  0  0  0  0  0  0  0  0  0
  1  2  1  0
  2  3  1  0
  3  4  1  0
  4  5  1  0
  5  6  1  0
  6  7  1  0
  7  8  1  0
  8  9  1  0
  9 10  1  0
 10 11  2  0
 11 12  1  0
 12 13  2  3
 12 14  1  0
 14 15  2  0
 15  9  1  0
  1 16  1  0
  1 17  1  0
  1 18  1  0
  2 19  1  0
  2 20  1  0
  3 21  1  0
  3 22  1  0
  4 23  1  0
  4 24  1  0
  5 25  1  0
  5 26  1  0
  6 27  1  0
  6 28  1  0
  7 29  1  0
  7 30  1  0
  8 31  1  0
  8 32  1  0
 10 33  1  0
 11 34  1  0
 13 35  1  0
 14 36  1  0
 15 37  1  0
M  END
$$$$
