
     RDKit          3D

 62 64  0  0  0  0  0  0  0  0999 V2000
    8.6094    4.2006    1.5951 C   0  0  0  0  0  0  0  0  0  0  0  0
    7.5764    3.8068    2.4893 O   0  0  0  0  0  0  0  0  0  0  0  0
    6.3650    3.4974    1.9347 C   0  0  0  0  0  0  0  0  0  0  0  0
    6.0629    3.4889    0.5732 C   0  0  0  0  0  0  0  0  0  0  0  0
    4.7760    3.1505    0.1396 C   0  0  0  0  0  0  0  0  0  0  0  0
    3.7750    2.8207    1.0613 C   0  0  0  0  0  0  0  0  0  0  0  0
    2.3948    2.4359    0.5891 C   0  0  0  0  0  0  0  0  0  0  0  0
    2.2692    0.9255    0.4096 C   0  0  0  0  0  0  0  0  0  0  0  0
    0.8902    0.5289   -0.0839 C   0  0  0  0  0  0  0  0  0  0  0  0
    0.0043    1.3504   -0.2909 O   0  0  0  0  0  0  0  0  0  0  0  0
    0.7847   -0.8362   -0.2433 N   0  0  0  0  0  0  0  0  0  0  0  0
   -0.3195   -1.5828   -0.7013 C   0  0  0  0  0  0  0  0  0  0  0  0
   -1.4801   -1.0166   -1.2254 C   0  0  0  0  0  0  0  0  0  0  0  0
   -2.5309   -1.8516   -1.6167 C   0  0  0  0  0  0  0  0  0  0  0  0
   -4.0086   -1.1443   -2.3056 S   0  0  0  0  0  6  0  0  0  0  0  0
   -3.7056    0.1845   -2.7922 O   0  0  0  0  0  0  0  0  0  0  0  0
   -4.5893   -2.1389   -3.1852 O   0  0  0  0  0  0  0  0  0  0  0  0
   -5.0324   -0.9858   -0.9421 N   0  0  0  0  0  0  0  0  0  0  0  0
   -4.5031   -0.1238    0.1562 C   0  0  0  0  0  0  0  0  0  0  0  0
   -5.5997    0.1990    1.1640 C   0  0  0  0  0  0  0  0  0  0  0  0
   -6.7261    1.0040    0.5206 C   0  0  0  0  0  0  0  0  0  0  0  0
   -6.8767    0.6973   -0.9675 C   0  0  0  0  0  0  0  0  0  0  0  0
   -6.4638   -0.7323   -1.2887 C   0  0  0  0  0  0  0  0  0  0  0  0
   -2.4199   -3.2420   -1.5239 C   0  0  0  0  0  0  0  0  0  0  0  0
   -1.2487   -3.8092   -1.0205 C   0  0  0  0  0  0  0  0  0  0  0  0
   -0.1873   -2.9922   -0.6031 C   0  0  0  0  0  0  0  0  0  0  0  0
    1.0346   -3.5189   -0.0870 N   0  0  0  0  0  0  0  0  0  0  0  0
    0.8147   -4.3444    1.1067 C   0  0  0  0  0  0  0  0  0  0  0  0
    1.7945   -4.2000   -1.1438 C   0  0  0  0  0  0  0  0  0  0  0  0
    4.0841    2.8253    2.4256 C   0  0  0  0  0  0  0  0  0  0  0  0
    5.3698    3.1622    2.8551 C   0  0  0  0  0  0  0  0  0  0  0  0
    9.4969    4.4337    2.1914 H   0  0  0  0  0  0  0  0  0  0  0  0
    8.8719    3.3855    0.9126 H   0  0  0  0  0  0  0  0  0  0  0  0
    8.3320    5.1053    1.0438 H   0  0  0  0  0  0  0  0  0  0  0  0
    6.8031    3.7397   -0.1788 H   0  0  0  0  0  0  0  0  0  0  0  0
    4.5600    3.1496   -0.9269 H   0  0  0  0  0  0  0  0  0  0  0  0
    2.1725    2.9531   -0.3533 H   0  0  0  0  0  0  0  0  0  0  0  0
    1.6496    2.7997    1.3085 H   0  0  0  0  0  0  0  0  0  0  0  0
    3.0099    0.5672   -0.3162 H   0  0  0  0  0  0  0  0  0  0  0  0
    2.4552    0.4135    1.3619 H   0  0  0  0  0  0  0  0  0  0  0  0
    1.5469   -1.4343    0.0706 H   0  0  0  0  0  0  0  0  0  0  0  0
   -1.5833    0.0582   -1.3375 H   0  0  0  0  0  0  0  0  0  0  0  0
   -4.0840    0.8057   -0.2448 H   0  0  0  0  0  0  0  0  0  0  0  0
   -3.7086   -0.6672    0.6775 H   0  0  0  0  0  0  0  0  0  0  0  0
   -6.0085   -0.7357    1.5691 H   0  0  0  0  0  0  0  0  0  0  0  0
   -5.1868    0.7556    2.0128 H   0  0  0  0  0  0  0  0  0  0  0  0
   -7.6634    0.7884    1.0473 H   0  0  0  0  0  0  0  0  0  0  0  0
   -6.5415    2.0776    0.6458 H   0  0  0  0  0  0  0  0  0  0  0  0
   -6.2558    1.3937   -1.5453 H   0  0  0  0  0  0  0  0  0  0  0  0
   -7.9136    0.8727   -1.2753 H   0  0  0  0  0  0  0  0  0  0  0  0
   -6.6600   -0.9333   -2.3469 H   0  0  0  0  0  0  0  0  0  0  0  0
   -7.0767   -1.4453   -0.7241 H   0  0  0  0  0  0  0  0  0  0  0  0
   -3.2357   -3.8848   -1.8483 H   0  0  0  0  0  0  0  0  0  0  0  0
   -1.1715   -4.8912   -0.9650 H   0  0  0  0  0  0  0  0  0  0  0  0
    1.7803   -4.5927    1.5607 H   0  0  0  0  0  0  0  0  0  0  0  0
    0.2354   -3.7975    1.8594 H   0  0  0  0  0  0  0  0  0  0  0  0
    0.3022   -5.2846    0.8745 H   0  0  0  0  0  0  0  0  0  0  0  0
    1.9610   -3.5336   -1.9980 H   0  0  0  0  0  0  0  0  0  0  0  0
    1.2928   -5.1095   -1.4936 H   0  0  0  0  0  0  0  0  0  0  0  0
    2.7803   -4.4850   -0.7602 H   0  0  0  0  0  0  0  0  0  0  0  0
    3.3277    2.5704    3.1643 H   0  0  0  0  0  0  0  0  0  0  0  0
    5.5976    3.1662    3.9182 H   0  0  0  0  0  0  0  0  0  0  0  0
  1  2  1  0
  2  3  1  0
  3  4  2  0
  4  5  1  0
  5  6  2  0
  6  7  1  0
  7  8  1  0
  8  9  1  0
  9 10  2  0
  9 11  1  0
 11 12  1  0
 12 13  2  0
 13 14  1  0
 14 15  1  0
 15 16  2  0
 15 17  2  0
 15 18  1  0
 18 19  1  0
 19 20  1  0
 20 21  1  0
 21 22  1  0
 22 23  1  0
 14 24  2  0
 24 25  1  0
 25 26  2  0
 26 27  1  0
 27 28  1  0
 27 29  1  0
  6 30  1  0
 30 31  2  0
 31  3  1  0
 26 12  1  0
 23 18  1  0
  1 32  1  0
  1 33  1  0
  1 34  1  0
  4 35  1  0
  5 36  1  0
  7 37  1  0
  7 38  1  0
  8 39  1  0
  8 40  1  0
 11 41  1  0
 13 42  1  0
 19 43  1  0
 19 44  1  0
 20 45  1  0
 20 46  1  0
 21 47  1  0
 21 48  1  0
 22 49  1  0
 22 50  1  0
 23 51  1  0
 23 52  1  0
 24 53  1  0
 25 54  1  0
 28 55  1  0
 28 56  1  0
 28 57  1  0
 29 58  1  0
 29 59  1  0
 29 60  1  0
 30 61  1  0
 31 62  1  0
M  END
$$$$
