
     RDKit          3D

 59 62  0  0  0  0  0  0  0  0999 V2000
    5.4258    1.6151   -3.0627 C   0  0  0  0  0  0  0  0  0  0  0  0
    5.1295    0.2168   -3.0433 O   0  0  0  0  0  0  0  0  0  0  0  0
    4.6204   -0.1311   -1.8166 C   0  0  0  0  0  0  0  0  0  0  0  0
    3.2315   -0.0316   -1.6443 C   0  0  0  0  0  0  0  0  0  0  0  0
    2.6505   -0.3175   -0.4095 C   0  0  0  0  0  0  0  0  0  0  0  0
    1.2691   -0.2046   -0.1379 N   0  0  0  0  0  0  0  0  0  0  0  0
    0.2627    0.1119   -1.0334 C   0  0  0  0  0  0  0  0  0  0  0  0
    0.3808    0.2761   -2.2404 O   0  0  0  0  0  0  0  0  0  0  0  0
   -1.0896    0.2251   -0.4375 C   0  0  0  0  0  0  0  0  0  0  0  0
   -1.3021    0.7716    0.8366 C   0  0  0  0  0  0  0  0  0  0  0  0
   -2.6003    0.8625    1.3458 C   0  0  0  0  0  0  0  0  0  0  0  0
   -2.8727    1.4331    2.6824 C   0  0  0  0  0  0  0  0  0  0  0  0
   -4.0026    2.2444    2.8975 C   0  0  0  0  0  0  0  0  0  0  0  0
   -4.2737    2.7991    4.1516 C   0  0  0  0  0  0  0  0  0  0  0  0
   -3.4216    2.5469    5.2224 C   0  0  0  0  0  0  0  0  0  0  0  0
   -2.3025    1.7388    5.0410 C   0  0  0  0  0  0  0  0  0  0  0  0
   -2.0313    1.1879    3.7840 C   0  0  0  0  0  0  0  0  0  0  0  0
   -3.6998    0.4584    0.6640 N   0  0  0  0  0  0  0  0  0  0  0  0
   -3.4502   -0.0406   -0.5614 C   0  0  0  0  0  0  0  0  0  0  0  0
   -2.2132   -0.1827   -1.1680 C   0  0  0  0  0  0  0  0  0  0  0  0
   -2.5049   -0.7428   -2.4307 C   0  0  0  0  0  0  0  0  0  0  0  0
   -3.8122   -0.9570   -2.6152 N   0  0  0  0  0  0  0  0  0  0  0  0
   -4.3705   -0.5108   -1.4641 N   0  0  0  0  0  0  0  0  0  0  0  0
   -5.8158   -0.5602   -1.2781 C   0  0  0  0  0  0  0  0  0  0  0  0
   -6.5433    0.2835   -2.3248 C   0  0  0  0  0  0  0  0  0  0  0  0
   -6.3258   -2.0007   -1.2693 C   0  0  0  0  0  0  0  0  0  0  0  0
    3.4762   -0.7200    0.6451 C   0  0  0  0  0  0  0  0  0  0  0  0
    4.8549   -0.8700    0.4558 C   0  0  0  0  0  0  0  0  0  0  0  0
    5.5775   -1.2524    1.5597 O   0  0  0  0  0  0  0  0  0  0  0  0
    6.0938   -2.5747    1.4073 C   0  0  0  0  0  0  0  0  0  0  0  0
    5.4458   -0.5839   -0.7803 C   0  0  0  0  0  0  0  0  0  0  0  0
    6.8099   -0.6798   -0.8665 O   0  0  0  0  0  0  0  0  0  0  0  0
    7.2835   -1.3323   -2.0415 C   0  0  0  0  0  0  0  0  0  0  0  0
    4.5184    2.2153   -2.9308 H   0  0  0  0  0  0  0  0  0  0  0  0
    5.8482    1.8534   -4.0432 H   0  0  0  0  0  0  0  0  0  0  0  0
    6.1699    1.8751   -2.3010 H   0  0  0  0  0  0  0  0  0  0  0  0
    2.6381    0.2983   -2.4910 H   0  0  0  0  0  0  0  0  0  0  0  0
    0.9931   -0.4455    0.8052 H   0  0  0  0  0  0  0  0  0  0  0  0
   -0.4694    1.1698    1.4081 H   0  0  0  0  0  0  0  0  0  0  0  0
   -4.6848    2.4514    2.0734 H   0  0  0  0  0  0  0  0  0  0  0  0
   -5.1515    3.4266    4.2878 H   0  0  0  0  0  0  0  0  0  0  0  0
   -3.6333    2.9750    6.1987 H   0  0  0  0  0  0  0  0  0  0  0  0
   -1.6425    1.5310    5.8789 H   0  0  0  0  0  0  0  0  0  0  0  0
   -1.1608    0.5439    3.6841 H   0  0  0  0  0  0  0  0  0  0  0  0
   -1.8132   -1.0036   -3.2227 H   0  0  0  0  0  0  0  0  0  0  0  0
   -6.0245   -0.1238   -0.2938 H   0  0  0  0  0  0  0  0  0  0  0  0
   -6.4060   -0.1182   -3.3344 H   0  0  0  0  0  0  0  0  0  0  0  0
   -6.1694    1.3131   -2.3235 H   0  0  0  0  0  0  0  0  0  0  0  0
   -7.6178    0.3137   -2.1176 H   0  0  0  0  0  0  0  0  0  0  0  0
   -6.1684   -2.4915   -2.2360 H   0  0  0  0  0  0  0  0  0  0  0  0
   -5.8061   -2.5935   -0.5079 H   0  0  0  0  0  0  0  0  0  0  0  0
   -7.3978   -2.0313   -1.0475 H   0  0  0  0  0  0  0  0  0  0  0  0
    3.0658   -0.9330    1.6283 H   0  0  0  0  0  0  0  0  0  0  0  0
    6.9981   -2.5779    0.7917 H   0  0  0  0  0  0  0  0  0  0  0  0
    6.3673   -2.9392    2.4023 H   0  0  0  0  0  0  0  0  0  0  0  0
    5.3447   -3.2605    0.9939 H   0  0  0  0  0  0  0  0  0  0  0  0
    6.6009   -2.1114   -2.3981 H   0  0  0  0  0  0  0  0  0  0  0  0
    7.4892   -0.6004   -2.8273 H   0  0  0  0  0  0  0  0  0  0  0  0
    8.2321   -1.8152   -1.7890 H   0  0  0  0  0  0  0  0  0  0  0  0
  1  2  1  0
  2  3  1  0
  3  4  2  0
  4  5  1  0
  5  6  1  0
  6  7  1  0
  7  8  2  0
  7  9  1  0
  9 10  2  0
 10 11  1  0
 11 12  1  0
 12 13  2  0
 13 14  1  0
 14 15  2  0
 15 16  1  0
 16 17  2  0
 11 18  2  0
 18 19  1  0
 19 20  2  0
 20 21  1  0
 21 22  2  0
 22 23  1  0
 23 24  1  0
 24 25  1  0
 24 26  1  0
  5 27  2  0
 27 28  1  0
 28 29  1  0
 29 30  1  0
 28 31  2  0
 31 32  1  0
 32 33  1  0
 31  3  1  0
 20  9  1  0
 17 12  1  0
 23 19  1  0
  1 34  1  0
  1 35  1  0
  1 36  1  0
  4 37  1  0
  6 38  1  0
 10 39  1  0
 13 40  1  0
 14 41  1  0
 15 42  1  0
 16 43  1  0
 17 44  1  0
 21 45  1  0
 24 46  1  0
 25 47  1  0
 25 48  1  0
 25 49  1  0
 26 50  1  0
 26 51  1  0
 26 52  1  0
 27 53  1  0
 30 54  1  0
 30 55  1  0
 30 56  1  0
 33 57  1  0
 33 58  1  0
 33 59  1  0
M  END
$$$$
