
     RDKit          3D

 43 44  0  0  0  0  0  0  0  0999 V2000
    6.7009    2.5280   -1.2584 C   0  0  0  0  0  0  0  0  0  0  0  0
    5.2390    2.8915   -1.4364 C   0  0  0  0  0  0  0  0  0  0  0  0
    4.4583    1.7067   -1.6518 O   0  0  0  0  0  0  0  0  0  0  0  0
    3.9994    1.0856   -0.5295 C   0  0  0  0  0  0  0  0  0  0  0  0
    4.2425    1.4294    0.6221 O   0  0  0  0  0  0  0  0  0  0  0  0
    3.1911   -0.1489   -0.9081 C   0  0  0  0  0  0  0  0  0  0  0  0
    2.3794   -0.5835    0.2190 N   0  0  0  0  0  0  0  0  0  0  0  0
    1.0960   -0.1153    0.3835 C   0  0  0  0  0  0  0  0  0  0  0  0
    0.5164    0.5720   -0.4534 O   0  0  0  0  0  0  0  0  0  0  0  0
    0.4270   -0.5124    1.6846 C   0  0  0  0  0  0  0  0  0  0  0  0
    0.0567   -2.2884    1.7462 S   0  0  0  0  0  0  0  0  0  0  0  0
   -0.6961   -2.5530    0.2035 C   0  0  0  0  0  0  0  0  0  0  0  0
   -0.1602   -3.3054   -0.7312 N   0  0  0  0  0  0  0  0  0  0  0  0
   -0.9234   -3.1182   -1.8485 N   0  0  0  0  0  0  0  0  0  0  0  0
   -1.9124   -2.2696   -1.6154 N   0  0  0  0  0  0  0  0  0  0  0  0
   -1.8302   -1.9297   -0.3028 N   0  0  0  0  0  0  0  0  0  0  0  0
   -2.8407   -1.1513    0.3269 C   0  0  0  0  0  0  0  0  0  0  0  0
   -3.1769   -1.4271    1.6668 C   0  0  0  0  0  0  0  0  0  0  0  0
   -4.1779   -0.7031    2.3280 C   0  0  0  0  0  0  0  0  0  0  0  0
   -4.5505   -1.0395    3.7421 C   0  0  0  0  0  0  0  0  0  0  0  0
   -4.8734    0.2824    1.6292 C   0  0  0  0  0  0  0  0  0  0  0  0
   -4.5584    0.5579    0.2983 C   0  0  0  0  0  0  0  0  0  0  0  0
   -3.5374   -0.1397   -0.3713 C   0  0  0  0  0  0  0  0  0  0  0  0
   -3.2393    0.2632   -1.7928 C   0  0  0  0  0  0  0  0  0  0  0  0
    6.8442    1.8963   -0.3764 H   0  0  0  0  0  0  0  0  0  0  0  0
    7.3138    3.4272   -1.1473 H   0  0  0  0  0  0  0  0  0  0  0  0
    7.0628    1.9586   -2.1206 H   0  0  0  0  0  0  0  0  0  0  0  0
    5.1210    3.5189   -2.3260 H   0  0  0  0  0  0  0  0  0  0  0  0
    4.8626    3.4681   -0.5838 H   0  0  0  0  0  0  0  0  0  0  0  0
    2.5485    0.0771   -1.7641 H   0  0  0  0  0  0  0  0  0  0  0  0
    3.8810   -0.9598   -1.1559 H   0  0  0  0  0  0  0  0  0  0  0  0
    2.8713   -0.9364    1.0314 H   0  0  0  0  0  0  0  0  0  0  0  0
    1.0872   -0.2548    2.5191 H   0  0  0  0  0  0  0  0  0  0  0  0
   -0.4914    0.0698    1.8060 H   0  0  0  0  0  0  0  0  0  0  0  0
   -2.7098   -2.2469    2.2081 H   0  0  0  0  0  0  0  0  0  0  0  0
   -3.6677   -1.3448    4.3135 H   0  0  0  0  0  0  0  0  0  0  0  0
   -4.9824   -0.1714    4.2514 H   0  0  0  0  0  0  0  0  0  0  0  0
   -5.2809   -1.8543    3.7531 H   0  0  0  0  0  0  0  0  0  0  0  0
   -5.6722    0.8419    2.1117 H   0  0  0  0  0  0  0  0  0  0  0  0
   -5.1178    1.3370   -0.2178 H   0  0  0  0  0  0  0  0  0  0  0  0
   -3.6563   -0.4666   -2.4931 H   0  0  0  0  0  0  0  0  0  0  0  0
   -3.6821    1.2374   -2.0298 H   0  0  0  0  0  0  0  0  0  0  0  0
   -2.1617    0.3709   -1.9520 H   0  0  0  0  0  0  0  0  0  0  0  0
  1  2  1  0
  2  3  1  0
  3  4  1  0
  4  5  2  0
  4  6  1  0
  6  7  1  0
  7  8  1  0
  8  9  2  0
  8 10  1  0
 10 11  1  0
 11 12  1  0
 12 13  2  0
 13 14  1  0
 14 15  2  0
 15 16  1  0
 16 17  1  0
 17 18  2  0
 18 19  1  0
 19 20  1  0
 19 21  2  0
 21 22  1  0
 22 23  2  0
 23 24  1  0
 16 12  1  0
 23 17  1  0
  1 25  1  0
  1 26  1  0
  1 27  1  0
  2 28  1  0
  2 29  1  0
  6 30  1  0
  6 31  1  0
  7 32  1  0
 10 33  1  0
 10 34  1  0
 18 35  1  0
 20 36  1  0
 20 37  1  0
 20 38  1  0
 21 39  1  0
 22 40  1  0
 24 41  1  0
 24 42  1  0
 24 43  1  0
M  END
$$$$
