
     RDKit          3D

 52 54  0  0  0  0  0  0  0  0999 V2000
   -4.7422    2.3825   -0.0675 C   0  0  0  0  0  0  0  0  0  0  0  0
   -3.5376    1.8450   -0.8629 C   0  0  0  0  0  0  0  0  0  0  0  0
   -3.3269    2.7580   -2.0894 C   0  0  0  0  0  0  0  0  0  0  0  0
   -2.2651    1.9226    0.0439 C   0  0  0  0  0  0  0  0  0  0  0  0
   -1.2399    0.8896   -0.3163 C   0  0  0  0  0  0  0  0  0  0  0  0
   -1.6790   -0.3215   -0.8202 C   0  0  0  0  0  0  0  0  0  0  0  0
   -0.3845   -1.3585   -1.1807 S   0  0  0  0  0  0  0  0  0  0  0  0
    0.7710   -0.2067   -0.7262 C   0  0  0  0  0  0  0  0  0  0  0  0
    2.1287   -0.4562   -0.8513 N   0  0  0  0  0  0  0  0  0  0  0  0
    2.7446   -1.6136   -1.2913 C   0  0  0  0  0  0  0  0  0  0  0  0
    2.2169   -2.6592   -1.6582 O   0  0  0  0  0  0  0  0  0  0  0  0
    4.2714   -1.4766   -1.3027 C   0  0  0  0  0  0  0  0  0  0  0  0
    4.8069   -0.7391   -0.2129 O   0  0  0  0  0  0  0  0  0  0  0  0
    4.8235   -1.3133    1.0317 C   0  0  0  0  0  0  0  0  0  0  0  0
    4.4060   -2.6181    1.3159 C   0  0  0  0  0  0  0  0  0  0  0  0
    4.4566   -3.1071    2.6263 C   0  0  0  0  0  0  0  0  0  0  0  0
    4.9259   -2.2973    3.6574 C   0  0  0  0  0  0  0  0  0  0  0  0
    4.9819   -2.9071    5.2646 Cl  0  0  0  0  0  0  0  0  0  0  0  0
    5.3470   -0.9988    3.3952 C   0  0  0  0  0  0  0  0  0  0  0  0
    5.2946   -0.5110    2.0873 C   0  0  0  0  0  0  0  0  0  0  0  0
    5.8192    1.1149    1.8134 Cl  0  0  0  0  0  0  0  0  0  0  0  0
    0.2009    0.9546   -0.2162 C   0  0  0  0  0  0  0  0  0  0  0  0
    1.0331    2.0376    0.3063 C   0  0  0  0  0  0  0  0  0  0  0  0
    0.4684    2.8403    1.2548 N   0  0  0  0  0  0  0  0  0  0  0  0
    2.2094    2.1919   -0.0107 O   0  0  0  0  0  0  0  0  0  0  0  0
   -3.1445   -0.6687   -0.9978 C   0  0  0  0  0  0  0  0  0  0  0  0
   -3.7261   -1.2003    0.3249 C   0  0  0  0  0  0  0  0  0  0  0  0
   -3.3869   -1.7174   -2.0999 C   0  0  0  0  0  0  0  0  0  0  0  0
   -3.8912    0.5277   -1.4275 N   0  0  0  0  0  0  0  0  0  0  0  0
   -4.5403    3.3883    0.3188 H   0  0  0  0  0  0  0  0  0  0  0  0
   -5.6429    2.4457   -0.6897 H   0  0  0  0  0  0  0  0  0  0  0  0
   -4.9734    1.7371    0.7875 H   0  0  0  0  0  0  0  0  0  0  0  0
   -2.4748    2.4260   -2.6943 H   0  0  0  0  0  0  0  0  0  0  0  0
   -4.2110    2.7722   -2.7387 H   0  0  0  0  0  0  0  0  0  0  0  0
   -3.1342    3.7932   -1.7843 H   0  0  0  0  0  0  0  0  0  0  0  0
   -1.8370    2.9294   -0.0120 H   0  0  0  0  0  0  0  0  0  0  0  0
   -2.5418    1.7490    1.0924 H   0  0  0  0  0  0  0  0  0  0  0  0
    2.7400    0.3144   -0.5711 H   0  0  0  0  0  0  0  0  0  0  0  0
    4.5301   -0.9322   -2.2185 H   0  0  0  0  0  0  0  0  0  0  0  0
    4.7453   -2.4615   -1.3854 H   0  0  0  0  0  0  0  0  0  0  0  0
    4.0309   -3.2897    0.5488 H   0  0  0  0  0  0  0  0  0  0  0  0
    4.1258   -4.1228    2.8320 H   0  0  0  0  0  0  0  0  0  0  0  0
    5.7128   -0.3684    4.2008 H   0  0  0  0  0  0  0  0  0  0  0  0
    1.1096    3.4634    1.7283 H   0  0  0  0  0  0  0  0  0  0  0  0
   -0.3334    2.5193    1.7768 H   0  0  0  0  0  0  0  0  0  0  0  0
   -3.2140   -2.1181    0.6383 H   0  0  0  0  0  0  0  0  0  0  0  0
   -3.6215   -0.4797    1.1435 H   0  0  0  0  0  0  0  0  0  0  0  0
   -4.7925   -1.4359    0.2270 H   0  0  0  0  0  0  0  0  0  0  0  0
   -2.9408   -2.6858   -1.8450 H   0  0  0  0  0  0  0  0  0  0  0  0
   -2.9656   -1.3994   -3.0617 H   0  0  0  0  0  0  0  0  0  0  0  0
   -4.4587   -1.8966   -2.2529 H   0  0  0  0  0  0  0  0  0  0  0  0
   -4.8942    0.3582   -1.4154 H   0  0  0  0  0  0  0  0  0  0  0  0
  1  2  1  0
  2  3  1  0
  2  4  1  0
  4  5  1  0
  5  6  2  0
  6  7  1  0
  7  8  1  0
  8  9  1  0
  9 10  1  0
 10 11  2  0
 10 12  1  0
 12 13  1  0
 13 14  1  0
 14 15  2  0
 15 16  1  0
 16 17  2  0
 17 18  1  0
 17 19  1  0
 19 20  2  0
 20 21  1  0
  8 22  2  0
 22 23  1  0
 23 24  1  0
 23 25  2  0
  6 26  1  0
 26 27  1  0
 26 28  1  0
 26 29  1  0
 29  2  1  0
 22  5  1  0
 20 14  1  0
  1 30  1  0
  1 31  1  0
  1 32  1  0
  3 33  1  0
  3 34  1  0
  3 35  1  0
  4 36  1  0
  4 37  1  0
  9 38  1  0
 12 39  1  0
 12 40  1  0
 15 41  1  0
 16 42  1  0
 19 43  1  0
 24 44  1  0
 24 45  1  0
 27 46  1  0
 27 47  1  0
 27 48  1  0
 28 49  1  0
 28 50  1  0
 28 51  1  0
 29 52  1  0
M  END
$$$$
