
     RDKit          3D

 38 40  0  0  0  0  0  0  0  0999 V2000
   -2.0869   -1.1262   -4.4072 C   0  0  0  0  0  0  0  0  0  0  0  0
   -1.4600   -0.0457   -3.5661 C   0  0  0  0  0  0  0  0  0  0  0  0
   -0.6681    0.7664   -4.0405 O   0  0  0  0  0  0  0  0  0  0  0  0
   -1.7478    0.0183   -2.1249 C   0  0  0  0  0  0  0  0  0  0  0  0
   -0.7555    0.2497   -1.1774 C   0  0  0  0  0  0  0  0  0  0  0  0
    0.6989    0.4249   -1.5805 C   0  0  0  0  0  0  0  0  0  0  0  0
    1.5457    0.2789   -0.4293 O   0  0  0  0  0  0  0  0  0  0  0  0
    2.8673    0.3843   -0.6945 C   0  0  0  0  0  0  0  0  0  0  0  0
    3.3598    0.5575   -1.7974 O   0  0  0  0  0  0  0  0  0  0  0  0
    3.6624    0.2501    0.5560 C   0  0  0  0  0  0  0  0  0  0  0  0
    5.0601    0.2944    0.4599 C   0  0  0  0  0  0  0  0  0  0  0  0
    5.8487    0.1728    1.6057 C   0  0  0  0  0  0  0  0  0  0  0  0
    5.2463    0.0072    2.8522 C   0  0  0  0  0  0  0  0  0  0  0  0
    3.8563   -0.0366    2.9568 C   0  0  0  0  0  0  0  0  0  0  0  0
    3.0634    0.0846    1.8130 C   0  0  0  0  0  0  0  0  0  0  0  0
   -1.0491    0.3372    0.1476 N   0  0  0  0  0  0  0  0  0  0  0  0
   -2.3136    0.1973    0.5602 C   0  0  0  0  0  0  0  0  0  0  0  0
   -2.6026    0.2850    1.9157 C   0  0  0  0  0  0  0  0  0  0  0  0
   -3.9073    0.1479    2.4003 C   0  0  0  0  0  0  0  0  0  0  0  0
   -4.9544   -0.0816    1.5164 C   0  0  0  0  0  0  0  0  0  0  0  0
   -4.6885   -0.1728    0.1531 C   0  0  0  0  0  0  0  0  0  0  0  0
   -3.3676   -0.0355   -0.3346 C   0  0  0  0  0  0  0  0  0  0  0  0
   -3.0612   -0.1199   -1.7097 N   0  0  0  0  0  4  0  0  0  0  0  0
   -4.0100   -0.3096   -2.5522 O   0  0  0  0  0  1  0  0  0  0  0  0
   -2.9305   -0.7176   -4.9685 H   0  0  0  0  0  0  0  0  0  0  0  0
   -2.4123   -1.9705   -3.7934 H   0  0  0  0  0  0  0  0  0  0  0  0
   -1.3359   -1.5060   -5.1068 H   0  0  0  0  0  0  0  0  0  0  0  0
    0.9731   -0.3475   -2.3081 H   0  0  0  0  0  0  0  0  0  0  0  0
    0.8347    1.4276   -2.0008 H   0  0  0  0  0  0  0  0  0  0  0  0
    5.5399    0.4245   -0.5085 H   0  0  0  0  0  0  0  0  0  0  0  0
    6.9324    0.2082    1.5247 H   0  0  0  0  0  0  0  0  0  0  0  0
    5.8615   -0.0868    3.7440 H   0  0  0  0  0  0  0  0  0  0  0  0
    3.3888   -0.1642    3.9301 H   0  0  0  0  0  0  0  0  0  0  0  0
    1.9812    0.0505    1.9167 H   0  0  0  0  0  0  0  0  0  0  0  0
   -1.7909    0.4673    2.6174 H   0  0  0  0  0  0  0  0  0  0  0  0
   -4.1001    0.2233    3.4682 H   0  0  0  0  0  0  0  0  0  0  0  0
   -5.9724   -0.1873    1.8841 H   0  0  0  0  0  0  0  0  0  0  0  0
   -5.5061   -0.3499   -0.5451 H   0  0  0  0  0  0  0  0  0  0  0  0
  1  2  1  0
  2  3  2  0
  2  4  1  0
  4  5  2  0
  5  6  1  0
  6  7  1  0
  7  8  1  0
  8  9  2  0
  8 10  1  0
 10 11  2  0
 11 12  1  0
 12 13  2  0
 13 14  1  0
 14 15  2  0
  5 16  1  0
 16 17  2  0
 17 18  1  0
 18 19  2  0
 19 20  1  0
 20 21  2  0
 21 22  1  0
 22 23  2  0
 23 24  1  0
 23  4  1  0
 15 10  1  0
 22 17  1  0
  1 25  1  0
  1 26  1  0
  1 27  1  0
  6 28  1  0
  6 29  1  0
 11 30  1  0
 12 31  1  0
 13 32  1  0
 14 33  1  0
 15 34  1  0
 18 35  1  0
 19 36  1  0
 20 37  1  0
 21 38  1  0
M  CHG  2  23   1  24  -1
M  END
$$$$
