
     RDKit          3D

 59 62  0  0  0  0  0  0  0  0999 V2000
   -7.3311    0.6906   -1.6230 C   0  0  0  0  0  0  0  0  0  0  0  0
   -5.9177    0.1737   -1.3634 C   0  0  0  0  0  0  0  0  0  0  0  0
   -5.9266   -1.0411   -0.4372 C   0  0  0  0  0  0  0  0  0  0  0  0
   -4.5041   -1.5633   -0.2124 C   0  0  0  0  0  0  0  0  0  0  0  0
   -3.4181   -0.5183   -0.4988 C   0  0  0  0  0  0  0  0  0  0  0  0
   -3.8496    0.7993   -0.0276 N   0  0  0  0  0  0  0  0  0  0  0  0
   -2.7761    1.8017   -0.0256 C   0  0  0  0  0  0  0  0  0  0  0  0
   -1.7637    1.5763    1.1026 C   0  0  0  0  0  0  0  0  0  0  0  0
   -0.7161    2.6859    1.1115 C   0  0  0  0  0  0  0  0  0  0  0  0
    0.2259    2.4448    2.2053 N   0  0  0  0  0  0  0  0  0  0  0  0
    1.8220    2.9250    2.0379 S   0  0  0  0  0  6  0  0  0  0  0  0
    2.3917    2.9175    3.3661 O   0  0  0  0  0  0  0  0  0  0  0  0
    1.8603    4.0990    1.1953 O   0  0  0  0  0  0  0  0  0  0  0  0
    2.5113    1.5527    1.1462 C   0  0  0  0  0  0  0  0  0  0  0  0
    2.9100    0.4066    1.8535 C   0  0  0  0  0  0  0  0  0  0  0  0
    3.4598   -0.6882    1.1744 C   0  0  0  0  0  0  0  0  0  0  0  0
    3.6084   -0.6151   -0.2011 C   0  0  0  0  0  0  0  0  0  0  0  0
    3.1988    0.5323   -0.8943 C   0  0  0  0  0  0  0  0  0  0  0  0
    2.6666    1.6335   -0.2389 C   0  0  0  0  0  0  0  0  0  0  0  0
    3.4603    0.4028   -2.3629 C   0  0  0  0  0  0  0  0  0  0  0  0
    3.8246   -1.0786   -2.4763 C   0  0  0  0  0  0  0  0  0  0  0  0
    4.0966   -1.5619   -1.1174 N   0  0  0  0  0  0  0  0  0  0  0  0
    4.6773   -2.8034   -0.9422 C   0  0  0  0  0  0  0  0  0  0  0  0
    4.8622   -3.5791   -1.8775 O   0  0  0  0  0  0  0  0  0  0  0  0
    5.1340   -3.2109    0.4130 C   0  0  0  0  0  0  0  0  0  0  0  0
    6.2951   -2.5104    1.0871 C   0  0  0  0  0  0  0  0  0  0  0  0
    6.4796   -3.8981    0.5571 C   0  0  0  0  0  0  0  0  0  0  0  0
   -5.0192    1.2891   -0.7860 C   0  0  0  0  0  0  0  0  0  0  0  0
   -7.9492   -0.0861   -2.0862 H   0  0  0  0  0  0  0  0  0  0  0  0
   -7.8193    1.0004   -0.6928 H   0  0  0  0  0  0  0  0  0  0  0  0
   -7.3111    1.5522   -2.2992 H   0  0  0  0  0  0  0  0  0  0  0  0
   -5.4996   -0.1408   -2.3305 H   0  0  0  0  0  0  0  0  0  0  0  0
   -6.3645   -0.7632    0.5306 H   0  0  0  0  0  0  0  0  0  0  0  0
   -6.5531   -1.8442   -0.8443 H   0  0  0  0  0  0  0  0  0  0  0  0
   -4.4198   -1.9184    0.8222 H   0  0  0  0  0  0  0  0  0  0  0  0
   -4.3271   -2.4349   -0.8558 H   0  0  0  0  0  0  0  0  0  0  0  0
   -3.1892   -0.4899   -1.5722 H   0  0  0  0  0  0  0  0  0  0  0  0
   -2.5051   -0.8521    0.0044 H   0  0  0  0  0  0  0  0  0  0  0  0
   -3.2156    2.7958    0.1292 H   0  0  0  0  0  0  0  0  0  0  0  0
   -2.2672    1.8282   -0.9978 H   0  0  0  0  0  0  0  0  0  0  0  0
   -1.2557    0.6124    0.9889 H   0  0  0  0  0  0  0  0  0  0  0  0
   -2.2828    1.5476    2.0693 H   0  0  0  0  0  0  0  0  0  0  0  0
   -0.2016    2.7021    0.1456 H   0  0  0  0  0  0  0  0  0  0  0  0
   -1.1915    3.6599    1.2650 H   0  0  0  0  0  0  0  0  0  0  0  0
   -0.1132    2.4791    3.1660 H   0  0  0  0  0  0  0  0  0  0  0  0
    2.7876    0.3588    2.9342 H   0  0  0  0  0  0  0  0  0  0  0  0
    3.7277   -1.5640    1.7487 H   0  0  0  0  0  0  0  0  0  0  0  0
    2.3798    2.5246   -0.7889 H   0  0  0  0  0  0  0  0  0  0  0  0
    2.5852    0.6491   -2.9709 H   0  0  0  0  0  0  0  0  0  0  0  0
    4.3050    1.0380   -2.6499 H   0  0  0  0  0  0  0  0  0  0  0  0
    4.6928   -1.2425   -3.1252 H   0  0  0  0  0  0  0  0  0  0  0  0
    2.9875   -1.6636   -2.8756 H   0  0  0  0  0  0  0  0  0  0  0  0
    4.3472   -3.6342    1.0287 H   0  0  0  0  0  0  0  0  0  0  0  0
    6.2582   -2.3802    2.1621 H   0  0  0  0  0  0  0  0  0  0  0  0
    6.7958   -1.7029    0.5615 H   0  0  0  0  0  0  0  0  0  0  0  0
    7.0798   -4.0311   -0.3379 H   0  0  0  0  0  0  0  0  0  0  0  0
    6.5601   -4.7139    1.2680 H   0  0  0  0  0  0  0  0  0  0  0  0
   -5.6011    1.9317   -0.1126 H   0  0  0  0  0  0  0  0  0  0  0  0
   -4.7020    1.9196   -1.6289 H   0  0  0  0  0  0  0  0  0  0  0  0
  1  2  1  0
  2  3  1  0
  3  4  1  0
  4  5  1  0
  5  6  1  0
  6  7  1  0
  7  8  1  0
  8  9  1  0
  9 10  1  0
 10 11  1  0
 11 12  2  0
 11 13  2  0
 11 14  1  0
 14 15  2  0
 15 16  1  0
 16 17  2  0
 17 18  1  0
 18 19  2  0
 18 20  1  0
 20 21  1  0
 21 22  1  0
 22 23  1  0
 23 24  2  0
 23 25  1  0
 25 26  1  0
 26 27  1  0
  6 28  1  0
 28  2  1  0
 19 14  1  0
 27 25  1  0
 22 17  1  0
  1 29  1  0
  1 30  1  0
  1 31  1  0
  2 32  1  0
  3 33  1  0
  3 34  1  0
  4 35  1  0
  4 36  1  0
  5 37  1  0
  5 38  1  0
  7 39  1  0
  7 40  1  0
  8 41  1  0
  8 42  1  0
  9 43  1  0
  9 44  1  0
 10 45  1  0
 15 46  1  0
 16 47  1  0
 19 48  1  0
 20 49  1  0
 20 50  1  0
 21 51  1  0
 21 52  1  0
 25 53  1  0
 26 54  1  0
 26 55  1  0
 27 56  1  0
 27 57  1  0
 28 58  1  0
 28 59  1  0
M  END
$$$$
