
     RDKit          3D

 40 42  0  0  0  0  0  0  0  0999 V2000
    3.0673    1.4777   -4.9936 N   0  0  0  0  0  0  0  0  0  0  0  0
    3.5310    1.2307   -3.9585 C   0  0  0  0  0  0  0  0  0  0  0  0
    4.0863    0.9301   -2.6794 C   0  0  0  0  0  0  0  0  0  0  0  0
    5.5075    0.9766   -2.5777 C   0  0  0  0  0  0  0  0  0  0  0  0
    6.6636    1.0117   -2.4815 N   0  0  0  0  0  0  0  0  0  0  0  0
    3.3093    0.6098   -1.6150 C   0  0  0  0  0  0  0  0  0  0  0  0
    1.8460    0.5889   -1.6662 C   0  0  0  0  0  0  0  0  0  0  0  0
    1.0962   -0.0277   -0.7358 C   0  0  0  0  0  0  0  0  0  0  0  0
   -0.3500    0.1075   -0.7154 C   0  0  0  0  0  0  0  0  0  0  0  0
   -1.1003   -0.0912    0.3909 C   0  0  0  0  0  0  0  0  0  0  0  0
   -2.5049   -0.0107    0.3934 N   0  0  0  0  0  0  0  0  0  0  0  0
   -3.3211   -0.1191   -0.8416 C   0  0  0  0  0  0  0  0  0  0  0  0
   -4.6522   -0.8331   -0.5578 C   0  0  0  0  0  0  0  0  0  0  0  0
   -5.4765   -0.1645    0.4057 O   0  0  0  0  0  0  0  0  0  0  0  0
   -4.7187    0.6008    1.3509 C   0  0  0  0  0  0  0  0  0  0  0  0
   -3.3189    0.0306    1.6311 C   0  0  0  0  0  0  0  0  0  0  0  0
   -0.4058   -0.4167    1.7167 C   0  0  0  0  0  0  0  0  0  0  0  0
    1.1298   -0.3300    1.6977 C   0  0  0  0  0  0  0  0  0  0  0  0
    1.6734   -0.8740    0.3777 C   0  0  0  0  0  0  0  0  0  0  0  0
    3.2062   -0.9635    0.3456 C   0  0  0  0  0  0  0  0  0  0  0  0
    3.8582    0.2903   -0.2303 C   0  0  0  0  0  0  0  0  0  0  0  0
    1.3500    1.1462   -2.4602 H   0  0  0  0  0  0  0  0  0  0  0  0
   -0.8193    0.4215   -1.6429 H   0  0  0  0  0  0  0  0  0  0  0  0
   -3.5073    0.8910   -1.2239 H   0  0  0  0  0  0  0  0  0  0  0  0
   -2.7936   -0.6914   -1.6125 H   0  0  0  0  0  0  0  0  0  0  0  0
   -5.2345   -0.9233   -1.4803 H   0  0  0  0  0  0  0  0  0  0  0  0
   -4.4672   -1.8487   -0.1882 H   0  0  0  0  0  0  0  0  0  0  0  0
   -4.6430    1.6248    0.9664 H   0  0  0  0  0  0  0  0  0  0  0  0
   -5.2991    0.6435    2.2781 H   0  0  0  0  0  0  0  0  0  0  0  0
   -3.4008   -0.9861    2.0323 H   0  0  0  0  0  0  0  0  0  0  0  0
   -2.8461    0.6699    2.3830 H   0  0  0  0  0  0  0  0  0  0  0  0
   -0.6954   -1.4354    2.0057 H   0  0  0  0  0  0  0  0  0  0  0  0
   -0.7524    0.2557    2.5084 H   0  0  0  0  0  0  0  0  0  0  0  0
    1.5308   -0.8948    2.5478 H   0  0  0  0  0  0  0  0  0  0  0  0
    1.4401    0.7144    1.8376 H   0  0  0  0  0  0  0  0  0  0  0  0
    1.3009   -1.9029    0.2628 H   0  0  0  0  0  0  0  0  0  0  0  0
    3.6050   -1.1694    1.3459 H   0  0  0  0  0  0  0  0  0  0  0  0
    3.4937   -1.8203   -0.2797 H   0  0  0  0  0  0  0  0  0  0  0  0
    4.9420    0.1365   -0.2365 H   0  0  0  0  0  0  0  0  0  0  0  0
    3.6696    1.1446    0.4332 H   0  0  0  0  0  0  0  0  0  0  0  0
  1  2  3  0
  2  3  1  0
  3  4  1  0
  4  5  3  0
  3  6  2  3
  6  7  1  0
  7  8  2  0
  8  9  1  0
  9 10  2  0
 10 11  1  0
 11 12  1  0
 12 13  1  0
 13 14  1  0
 14 15  1  0
 15 16  1  0
 10 17  1  0
 17 18  1  0
 18 19  1  0
 19 20  1  0
 20 21  1  0
 21  6  1  0
 19  8  1  0
 16 11  1  0
  7 22  1  0
  9 23  1  0
 12 24  1  0
 12 25  1  0
 13 26  1  0
 13 27  1  0
 15 28  1  0
 15 29  1  0
 16 30  1  0
 16 31  1  0
 17 32  1  0
 17 33  1  0
 18 34  1  0
 18 35  1  0
 19 36  1  0
 20 37  1  0
 20 38  1  0
 21 39  1  0
 21 40  1  0
M  END
$$$$
