
     RDKit          3D

 52 55  0  0  0  0  0  0  0  0999 V2000
    5.9872    1.3043    6.3647 N   0  0  0  0  0  0  0  0  0  0  0  0
    6.6569    0.7480    4.9226 S   0  0  0  0  0  6  0  0  0  0  0  0
    7.4117    1.8273    4.3331 O   0  0  0  0  0  0  0  0  0  0  0  0
    7.2469   -0.5326    5.2398 O   0  0  0  0  0  0  0  0  0  0  0  0
    5.2065    0.4750    3.9413 C   0  0  0  0  0  0  0  0  0  0  0  0
    4.6149    1.5565    3.2843 C   0  0  0  0  0  0  0  0  0  0  0  0
    3.4737    1.3473    2.5097 C   0  0  0  0  0  0  0  0  0  0  0  0
    2.9254    0.0618    2.3835 C   0  0  0  0  0  0  0  0  0  0  0  0
    1.7049   -0.1580    1.5230 C   0  0  0  0  0  0  0  0  0  0  0  0
    2.0675   -0.2708    0.0401 C   0  0  0  0  0  0  0  0  0  0  0  0
    0.9049   -0.5127   -0.7928 N   0  0  0  0  0  0  0  0  0  0  0  0
    0.0342    0.5027   -1.1238 C   0  0  0  0  0  0  0  0  0  0  0  0
    0.1546    1.6623   -0.7512 O   0  0  0  0  0  0  0  0  0  0  0  0
   -1.1500    0.0939   -1.9111 C   0  0  0  0  0  0  0  0  0  0  0  0
   -2.3902    0.4255   -1.3622 C   0  0  0  0  0  0  0  0  0  0  0  0
   -3.5376    0.0156   -2.0179 C   0  0  0  0  0  0  0  0  0  0  0  0
   -4.9020    0.2977   -1.5198 C   0  0  0  0  0  0  0  0  0  0  0  0
   -5.1878    0.4481   -0.1495 C   0  0  0  0  0  0  0  0  0  0  0  0
   -6.4853    0.7190    0.3000 C   0  0  0  0  0  0  0  0  0  0  0  0
   -7.5293    0.8423   -0.6115 C   0  0  0  0  0  0  0  0  0  0  0  0
   -7.2785    0.6906   -1.9710 C   0  0  0  0  0  0  0  0  0  0  0  0
   -5.9811    0.4196   -2.4165 C   0  0  0  0  0  0  0  0  0  0  0  0
   -3.4680   -0.6833   -3.1789 N   0  0  0  0  0  0  0  0  0  0  0  0
   -2.2748   -0.9710   -3.7253 C   0  0  0  0  0  0  0  0  0  0  0  0
   -2.2548   -1.6658   -4.9275 C   0  0  0  0  0  0  0  0  0  0  0  0
   -1.0616   -1.9874   -5.5779 C   0  0  0  0  0  0  0  0  0  0  0  0
    0.1484   -1.6004   -5.0222 C   0  0  0  0  0  0  0  0  0  0  0  0
    0.1557   -0.9060   -3.8140 C   0  0  0  0  0  0  0  0  0  0  0  0
   -1.0537   -0.5964   -3.1382 C   0  0  0  0  0  0  0  0  0  0  0  0
    3.5411   -1.0161    3.0362 C   0  0  0  0  0  0  0  0  0  0  0  0
    4.6819   -0.8130    3.8144 C   0  0  0  0  0  0  0  0  0  0  0  0
    4.9896    1.5016    6.2943 H   0  0  0  0  0  0  0  0  0  0  0  0
    6.1922    0.6302    7.1041 H   0  0  0  0  0  0  0  0  0  0  0  0
    5.0383    2.5561    3.3644 H   0  0  0  0  0  0  0  0  0  0  0  0
    3.0148    2.1916    1.9960 H   0  0  0  0  0  0  0  0  0  0  0  0
    1.1790   -1.0652    1.8477 H   0  0  0  0  0  0  0  0  0  0  0  0
    0.9967    0.6640    1.6878 H   0  0  0  0  0  0  0  0  0  0  0  0
    2.5567    0.6465   -0.3086 H   0  0  0  0  0  0  0  0  0  0  0  0
    2.7604   -1.1028   -0.1278 H   0  0  0  0  0  0  0  0  0  0  0  0
    0.6639   -1.4689   -1.0253 H   0  0  0  0  0  0  0  0  0  0  0  0
   -2.4368    1.0000   -0.4427 H   0  0  0  0  0  0  0  0  0  0  0  0
   -4.4048    0.3406    0.5972 H   0  0  0  0  0  0  0  0  0  0  0  0
   -6.6786    0.8292    1.3641 H   0  0  0  0  0  0  0  0  0  0  0  0
   -8.5371    1.0519   -0.2631 H   0  0  0  0  0  0  0  0  0  0  0  0
   -8.0888    0.7811   -2.6896 H   0  0  0  0  0  0  0  0  0  0  0  0
   -5.8102    0.3050   -3.4863 H   0  0  0  0  0  0  0  0  0  0  0  0
   -3.2010   -1.9602   -5.3772 H   0  0  0  0  0  0  0  0  0  0  0  0
   -1.0861   -2.5270   -6.5213 H   0  0  0  0  0  0  0  0  0  0  0  0
    1.0827   -1.8280   -5.5295 H   0  0  0  0  0  0  0  0  0  0  0  0
    1.1162   -0.5879   -3.4132 H   0  0  0  0  0  0  0  0  0  0  0  0
    3.1379   -2.0223    2.9384 H   0  0  0  0  0  0  0  0  0  0  0  0
    5.1533   -1.6598    4.3089 H   0  0  0  0  0  0  0  0  0  0  0  0
  1  2  1  0
  2  3  2  0
  2  4  2  0
  2  5  1  0
  5  6  2  0
  6  7  1  0
  7  8  2  0
  8  9  1  0
  9 10  1  0
 10 11  1  0
 11 12  1  0
 12 13  2  0
 12 14  1  0
 14 15  2  0
 15 16  1  0
 16 17  1  0
 17 18  2  0
 18 19  1  0
 19 20  2  0
 20 21  1  0
 21 22  2  0
 16 23  2  0
 23 24  1  0
 24 25  2  0
 25 26  1  0
 26 27  2  0
 27 28  1  0
 28 29  2  0
  8 30  1  0
 30 31  2  0
 31  5  1  0
 29 14  1  0
 22 17  1  0
 29 24  1  0
  1 32  1  0
  1 33  1  0
  6 34  1  0
  7 35  1  0
  9 36  1  0
  9 37  1  0
 10 38  1  0
 10 39  1  0
 11 40  1  0
 15 41  1  0
 18 42  1  0
 19 43  1  0
 20 44  1  0
 21 45  1  0
 22 46  1  0
 25 47  1  0
 26 48  1  0
 27 49  1  0
 28 50  1  0
 30 51  1  0
 31 52  1  0
M  END
$$$$
