
     RDKit          3D

 57 61  0  0  0  0  0  0  0  0999 V2000
    3.1546   -4.3970    1.5688 C   0  0  0  0  0  0  0  0  0  0  0  0
    2.7273   -3.5997    0.3704 C   0  0  0  0  0  0  0  0  0  0  0  0
    3.4287   -3.7008   -0.8354 C   0  0  0  0  0  0  0  0  0  0  0  0
    3.0233   -2.9724   -1.9576 C   0  0  0  0  0  0  0  0  0  0  0  0
    1.8974   -2.1417   -1.8981 C   0  0  0  0  0  0  0  0  0  0  0  0
    1.4762   -1.3318   -3.0988 C   0  0  0  0  0  0  0  0  0  0  0  0
    2.2454   -0.1100   -3.2048 N   0  0  0  0  0  0  0  0  0  0  0  0
    3.3440   -0.0490   -3.9920 N   0  0  0  0  0  0  0  0  0  0  0  0
    3.8771    1.1651   -3.8492 N   0  0  0  0  0  0  0  0  0  0  0  0
    3.0845    1.8580   -2.9915 C   0  0  0  0  0  0  0  0  0  0  0  0
    3.2042    3.1907   -2.4654 C   0  0  0  0  0  0  0  0  0  0  0  0
    4.0880    4.0006   -2.7412 O   0  0  0  0  0  0  0  0  0  0  0  0
    2.1745    3.4932   -1.5798 N   0  0  0  0  0  0  0  0  0  0  0  0
    1.1174    2.6366   -1.2863 C   0  0  0  0  0  0  0  0  0  0  0  0
    0.1162    3.1866   -0.2801 C   0  0  0  0  0  0  0  0  0  0  0  0
   -1.3191    2.7414   -0.5919 C   0  0  0  0  0  0  0  0  0  0  0  0
   -1.6928    1.4745    0.1705 C   0  0  0  0  0  0  0  0  0  0  0  0
   -1.6471    1.7148    1.6418 N   0  0  0  0  0  0  0  0  0  0  0  0
   -1.7550    0.3089    2.6124 S   0  0  0  0  0  6  0  0  0  0  0  0
   -0.7333   -0.6105    2.1610 O   0  0  0  0  0  0  0  0  0  0  0  0
   -1.8410    0.7126    3.9984 O   0  0  0  0  0  0  0  0  0  0  0  0
   -3.3424   -0.3546    2.1597 C   0  0  0  0  0  0  0  0  0  0  0  0
   -4.4996    0.3073    2.5889 C   0  0  0  0  0  0  0  0  0  0  0  0
   -5.7510   -0.2075    2.2432 C   0  0  0  0  0  0  0  0  0  0  0  0
   -5.8303   -1.3705    1.4813 C   0  0  0  0  0  0  0  0  0  0  0  0
   -7.0337   -1.8572    1.1458 F   0  0  0  0  0  0  0  0  0  0  0  0
   -4.6816   -2.0375    1.0615 C   0  0  0  0  0  0  0  0  0  0  0  0
   -3.4252   -1.5322    1.4055 C   0  0  0  0  0  0  0  0  0  0  0  0
   -0.6199    2.6967    2.0892 C   0  0  0  0  0  0  0  0  0  0  0  0
    0.5567    2.7602    1.1268 C   0  0  0  0  0  0  0  0  0  0  0  0
    0.9965    1.4301   -1.7688 N   0  0  0  0  0  0  0  0  0  0  0  0
    2.0144    1.0917   -2.5976 C   0  0  0  0  0  0  0  0  0  0  0  0
    1.1924   -2.0497   -0.6915 C   0  0  0  0  0  0  0  0  0  0  0  0
    1.5997   -2.7771    0.4294 C   0  0  0  0  0  0  0  0  0  0  0  0
    2.8010   -3.9365    2.4975 H   0  0  0  0  0  0  0  0  0  0  0  0
    2.7514   -5.4129    1.5074 H   0  0  0  0  0  0  0  0  0  0  0  0
    4.2476   -4.4456    1.6288 H   0  0  0  0  0  0  0  0  0  0  0  0
    4.3051   -4.3404   -0.9048 H   0  0  0  0  0  0  0  0  0  0  0  0
    3.6016   -3.0502   -2.8757 H   0  0  0  0  0  0  0  0  0  0  0  0
    0.4158   -1.0624   -3.0417 H   0  0  0  0  0  0  0  0  0  0  0  0
    1.6125   -1.9052   -4.0227 H   0  0  0  0  0  0  0  0  0  0  0  0
    2.2201    4.4234   -1.1904 H   0  0  0  0  0  0  0  0  0  0  0  0
    0.1436    4.2823   -0.3421 H   0  0  0  0  0  0  0  0  0  0  0  0
   -2.0094    3.5458   -0.3014 H   0  0  0  0  0  0  0  0  0  0  0  0
   -1.4612    2.5858   -1.6689 H   0  0  0  0  0  0  0  0  0  0  0  0
   -1.0248    0.6480   -0.1073 H   0  0  0  0  0  0  0  0  0  0  0  0
   -2.7167    1.1960   -0.1117 H   0  0  0  0  0  0  0  0  0  0  0  0
   -4.4276    1.2132    3.1880 H   0  0  0  0  0  0  0  0  0  0  0  0
   -6.6632    0.2870    2.5647 H   0  0  0  0  0  0  0  0  0  0  0  0
   -4.7750   -2.9470    0.4740 H   0  0  0  0  0  0  0  0  0  0  0  0
   -2.5270   -2.0574    1.0875 H   0  0  0  0  0  0  0  0  0  0  0  0
   -1.1047    3.6791    2.1633 H   0  0  0  0  0  0  0  0  0  0  0  0
   -0.2501    2.4630    3.0947 H   0  0  0  0  0  0  0  0  0  0  0  0
    1.0495    1.7812    1.0993 H   0  0  0  0  0  0  0  0  0  0  0  0
    1.3050    3.4675    1.5011 H   0  0  0  0  0  0  0  0  0  0  0  0
    0.3247   -1.4013   -0.6054 H   0  0  0  0  0  0  0  0  0  0  0  0
    1.0353   -2.6830    1.3553 H   0  0  0  0  0  0  0  0  0  0  0  0
  1  2  1  0
  2  3  2  0
  3  4  1  0
  4  5  2  0
  5  6  1  0
  6  7  1  0
  7  8  1  0
  8  9  2  0
  9 10  1  0
 10 11  1  0
 11 12  2  0
 11 13  1  0
 13 14  1  0
 14 15  1  0
 15 16  1  0
 16 17  1  0
 17 18  1  0
 18 19  1  0
 19 20  2  0
 19 21  2  0
 19 22  1  0
 22 23  2  0
 23 24  1  0
 24 25  2  0
 25 26  1  0
 25 27  1  0
 27 28  2  0
 18 29  1  0
 29 30  1  0
 14 31  2  0
 31 32  1  0
  5 33  1  0
 33 34  2  0
 34  2  1  0
 32  7  1  0
 32 10  2  0
 30 15  1  0
 28 22  1  0
  1 35  1  0
  1 36  1  0
  1 37  1  0
  3 38  1  0
  4 39  1  0
  6 40  1  0
  6 41  1  0
 13 42  1  0
 15 43  1  0
 16 44  1  0
 16 45  1  0
 17 46  1  0
 17 47  1  0
 23 48  1  0
 24 49  1  0
 27 50  1  0
 28 51  1  0
 29 52  1  0
 29 53  1  0
 30 54  1  0
 30 55  1  0
 33 56  1  0
 34 57  1  0
M  END
$$$$
