
     RDKit          3D

 39 41  0  0  0  0  0  0  0  0999 V2000
   -7.0681    2.3700    0.3261 C   0  0  0  0  0  0  0  0  0  0  0  0
   -5.6542    1.9932   -0.0789 C   0  0  0  0  0  0  0  0  0  0  0  0
   -5.2029    0.9665    0.8033 O   0  0  0  0  0  0  0  0  0  0  0  0
   -3.9364    0.4840    0.6069 C   0  0  0  0  0  0  0  0  0  0  0  0
   -3.5569   -0.5130    1.5055 C   0  0  0  0  0  0  0  0  0  0  0  0
   -2.2919   -1.1079    1.4359 C   0  0  0  0  0  0  0  0  0  0  0  0
   -1.3853   -0.6940    0.4426 C   0  0  0  0  0  0  0  0  0  0  0  0
   -0.1061   -1.1877    0.2497 N   0  0  0  0  0  0  0  0  0  0  0  0
    0.4584   -0.5704   -0.7593 C   0  0  0  0  0  0  0  0  0  0  0  0
    1.7351   -0.8889   -1.1471 N   0  0  0  0  0  0  0  0  0  0  0  0
    2.4755   -0.2948   -2.1413 C   0  0  0  0  0  0  0  0  0  0  0  0
    2.1459    0.6473   -2.8545 O   0  0  0  0  0  0  0  0  0  0  0  0
    3.8514   -0.9091   -2.3026 C   0  0  0  0  0  0  0  0  0  0  0  0
    4.8634   -0.2193   -1.3998 C   0  0  0  0  0  0  0  0  0  0  0  0
    4.7080   -0.5949   -0.0038 N   0  0  0  0  0  0  0  0  0  0  0  0
    5.1096   -1.7865    0.5401 C   0  0  0  0  0  0  0  0  0  0  0  0
    4.7428   -1.7894    1.8681 C   0  0  0  0  0  0  0  0  0  0  0  0
    4.1079   -0.5530    2.1333 C   0  0  0  0  0  0  0  0  0  0  0  0
    4.1083    0.1697    0.9604 C   0  0  0  0  0  0  0  0  0  0  0  0
   -0.4859    0.6050   -1.5435 S   0  0  0  0  0  0  0  0  0  0  0  0
   -1.7797    0.3040   -0.4488 C   0  0  0  0  0  0  0  0  0  0  0  0
   -3.0498    0.9086   -0.3877 C   0  0  0  0  0  0  0  0  0  0  0  0
   -7.4626    3.1573   -0.3222 H   0  0  0  0  0  0  0  0  0  0  0  0
   -7.7303    1.4997    0.2690 H   0  0  0  0  0  0  0  0  0  0  0  0
   -7.0915    2.7208    1.3632 H   0  0  0  0  0  0  0  0  0  0  0  0
   -5.6632    1.6293   -1.1127 H   0  0  0  0  0  0  0  0  0  0  0  0
   -5.0108    2.8766    0.0048 H   0  0  0  0  0  0  0  0  0  0  0  0
   -4.2546   -0.8359    2.2755 H   0  0  0  0  0  0  0  0  0  0  0  0
   -2.0052   -1.8826    2.1397 H   0  0  0  0  0  0  0  0  0  0  0  0
    2.1571   -1.5915   -0.5517 H   0  0  0  0  0  0  0  0  0  0  0  0
    3.8029   -1.9884   -2.1169 H   0  0  0  0  0  0  0  0  0  0  0  0
    4.1451   -0.7844   -3.3517 H   0  0  0  0  0  0  0  0  0  0  0  0
    4.7855    0.8721   -1.4648 H   0  0  0  0  0  0  0  0  0  0  0  0
    5.8831   -0.4998   -1.6879 H   0  0  0  0  0  0  0  0  0  0  0  0
    5.6213   -2.5348   -0.0518 H   0  0  0  0  0  0  0  0  0  0  0  0
    4.9184   -2.5927    2.5722 H   0  0  0  0  0  0  0  0  0  0  0  0
    3.6977   -0.2219    3.0789 H   0  0  0  0  0  0  0  0  0  0  0  0
    3.7214    1.1575    0.7416 H   0  0  0  0  0  0  0  0  0  0  0  0
   -3.3037    1.6791   -1.1055 H   0  0  0  0  0  0  0  0  0  0  0  0
  1  2  1  0
  2  3  1  0
  3  4  1  0
  4  5  2  0
  5  6  1  0
  6  7  2  0
  7  8  1  0
  8  9  2  0
  9 10  1  0
 10 11  1  0
 11 12  2  0
 11 13  1  0
 13 14  1  0
 14 15  1  0
 15 16  1  0
 16 17  2  0
 17 18  1  0
 18 19  2  0
  9 20  1  0
 20 21  1  0
 21 22  2  0
 22  4  1  0
 21  7  1  0
 19 15  1  0
  1 23  1  0
  1 24  1  0
  1 25  1  0
  2 26  1  0
  2 27  1  0
  5 28  1  0
  6 29  1  0
 10 30  1  0
 13 31  1  0
 13 32  1  0
 14 33  1  0
 14 34  1  0
 16 35  1  0
 17 36  1  0
 18 37  1  0
 19 38  1  0
 22 39  1  0
M  END
$$$$
