
     RDKit          3D

 45 47  0  0  0  0  0  0  0  0999 V2000
   -1.8734    1.9010    0.9111 O   0  0  0  0  0  0  0  0  0  0  0  0
   -1.8247    1.2988   -0.1577 C   0  0  0  0  0  0  0  0  0  0  0  0
   -0.7991    1.5957   -1.2511 C   0  0  0  0  0  0  0  0  0  0  0  0
    0.1184    2.5991   -0.8225 O   0  0  0  0  0  0  0  0  0  0  0  0
    1.0330    2.9545   -1.7642 C   0  0  0  0  0  0  0  0  0  0  0  0
    1.0547    2.5151   -2.9074 O   0  0  0  0  0  0  0  0  0  0  0  0
    1.9993    3.9675   -1.1904 C   0  0  0  0  0  0  0  0  0  0  0  0
    3.7307    3.4466   -1.4286 S   0  0  0  0  0  0  0  0  0  0  0  0
    3.6769    1.8655   -0.6010 C   0  0  0  0  0  0  0  0  0  0  0  0
    3.5079    1.7813    0.7813 C   0  0  0  0  0  0  0  0  0  0  0  0
    3.4333    0.5333    1.4047 C   0  0  0  0  0  0  0  0  0  0  0  0
    3.5232   -0.6497    0.6545 C   0  0  0  0  0  0  0  0  0  0  0  0
    3.4364   -1.9124    1.2633 C   0  0  0  0  0  0  0  0  0  0  0  0
    3.5192   -3.0787    0.5014 C   0  0  0  0  0  0  0  0  0  0  0  0
    3.6919   -2.9987   -0.8776 C   0  0  0  0  0  0  0  0  0  0  0  0
    3.7839   -1.7516   -1.4977 C   0  0  0  0  0  0  0  0  0  0  0  0
    3.7022   -0.5681   -0.7454 C   0  0  0  0  0  0  0  0  0  0  0  0
    3.7853    0.6941   -1.3563 C   0  0  0  0  0  0  0  0  0  0  0  0
   -2.7119    0.2898   -0.4949 N   0  0  0  0  0  0  0  0  0  0  0  0
   -3.6979   -0.1794    0.4534 C   0  0  0  0  0  0  0  0  0  0  0  0
   -4.8044   -0.9979   -0.2001 C   0  0  0  0  0  0  0  0  0  0  0  0
   -5.4552   -1.7135    0.9772 C   0  0  0  0  0  0  0  0  0  0  0  0
   -4.3431   -1.9099    2.0091 C   0  0  0  0  0  0  0  0  0  0  0  0
   -3.1254   -1.1570    1.4763 C   0  0  0  0  0  0  0  0  0  0  0  0
   -1.3444    1.9412   -2.1378 H   0  0  0  0  0  0  0  0  0  0  0  0
   -0.2533    0.6696   -1.4709 H   0  0  0  0  0  0  0  0  0  0  0  0
    1.8296    4.9246   -1.6932 H   0  0  0  0  0  0  0  0  0  0  0  0
    1.8115    4.1168   -0.1221 H   0  0  0  0  0  0  0  0  0  0  0  0
    3.4302    2.6805    1.3889 H   0  0  0  0  0  0  0  0  0  0  0  0
    3.2969    0.4917    2.4835 H   0  0  0  0  0  0  0  0  0  0  0  0
    3.3004   -1.9961    2.3393 H   0  0  0  0  0  0  0  0  0  0  0  0
    3.4480   -4.0491    0.9854 H   0  0  0  0  0  0  0  0  0  0  0  0
    3.7513   -3.9060   -1.4719 H   0  0  0  0  0  0  0  0  0  0  0  0
    3.9192   -1.7085   -2.5767 H   0  0  0  0  0  0  0  0  0  0  0  0
    3.9172    0.7641   -2.4351 H   0  0  0  0  0  0  0  0  0  0  0  0
   -2.4990   -0.2947   -1.2945 H   0  0  0  0  0  0  0  0  0  0  0  0
   -4.1304    0.6861    0.9727 H   0  0  0  0  0  0  0  0  0  0  0  0
   -4.3900   -1.7336   -0.9020 H   0  0  0  0  0  0  0  0  0  0  0  0
   -5.5149   -0.3747   -0.7525 H   0  0  0  0  0  0  0  0  0  0  0  0
   -6.2477   -1.0858    1.4047 H   0  0  0  0  0  0  0  0  0  0  0  0
   -5.9119   -2.6628    0.6774 H   0  0  0  0  0  0  0  0  0  0  0  0
   -4.6551   -1.5034    2.9781 H   0  0  0  0  0  0  0  0  0  0  0  0
   -4.1122   -2.9704    2.1562 H   0  0  0  0  0  0  0  0  0  0  0  0
   -2.5711   -0.6514    2.2740 H   0  0  0  0  0  0  0  0  0  0  0  0
   -2.4354   -1.8636    0.9968 H   0  0  0  0  0  0  0  0  0  0  0  0
  1  2  2  0
  2  3  1  0
  3  4  1  0
  4  5  1  0
  5  6  2  0
  5  7  1  0
  7  8  1  0
  8  9  1  0
  9 10  2  0
 10 11  1  0
 11 12  2  0
 12 13  1  0
 13 14  2  0
 14 15  1  0
 15 16  2  0
 16 17  1  0
 17 18  2  0
  2 19  1  0
 19 20  1  0
 20 21  1  0
 21 22  1  0
 22 23  1  0
 23 24  1  0
 18  9  1  0
 24 20  1  0
 17 12  1  0
  3 25  1  0
  3 26  1  0
  7 27  1  0
  7 28  1  0
 10 29  1  0
 11 30  1  0
 13 31  1  0
 14 32  1  0
 15 33  1  0
 16 34  1  0
 18 35  1  0
 19 36  1  0
 20 37  1  0
 21 38  1  0
 21 39  1  0
 22 40  1  0
 22 41  1  0
 23 42  1  0
 23 43  1  0
 24 44  1  0
 24 45  1  0
M  END
$$$$
