
     RDKit          3D

 51 53  0  0  0  0  0  0  0  0999 V2000
    0.6985    2.3477   -0.3149 O   0  0  0  0  0  0  0  0  0  0  0  0
    1.0202    1.1700   -0.1796 C   0  0  0  0  0  0  0  0  0  0  0  0
    2.3174    0.7335   -0.2823 N   0  0  0  0  0  0  0  0  0  0  0  0
    3.3952    1.6215   -0.6887 C   0  0  0  0  0  0  0  0  0  0  0  0
    4.7576    1.1035   -0.2286 C   0  0  0  0  0  0  0  0  0  0  0  0
    4.9685    1.1344    1.2766 C   0  0  0  0  0  0  0  0  0  0  0  0
    6.0364    0.0829    1.4477 C   0  0  0  0  0  0  0  0  0  0  0  0
    5.6198   -0.9621    0.4337 C   0  0  0  0  0  0  0  0  0  0  0  0
    4.9276   -0.2762   -0.6224 O   0  0  0  0  0  0  0  0  0  0  0  0
   -0.0210    0.0965    0.0930 C   0  0  0  0  0  0  0  0  0  0  0  0
    0.2760   -0.7164    1.3621 C   0  0  0  0  0  0  0  0  0  0  0  0
   -0.2407   -2.1523    1.2669 C   0  0  0  0  0  0  0  0  0  0  0  0
   -1.5217   -2.2277    0.4435 C   0  0  0  0  0  0  0  0  0  0  0  0
   -1.2622   -1.7932   -0.9480 N   0  0  0  0  0  0  0  0  0  0  0  0
   -2.5872   -1.7525   -2.0102 S   0  0  0  0  0  6  0  0  0  0  0  0
   -2.0891   -1.5169   -3.3484 O   0  0  0  0  0  0  0  0  0  0  0  0
   -3.4355   -2.8875   -1.7137 O   0  0  0  0  0  0  0  0  0  0  0  0
   -3.4659   -0.2872   -1.4986 C   0  0  0  0  0  0  0  0  0  0  0  0
   -3.1555    0.9444   -2.0808 C   0  0  0  0  0  0  0  0  0  0  0  0
   -3.8540    2.0855   -1.6900 C   0  0  0  0  0  0  0  0  0  0  0  0
   -4.8695    1.9934   -0.7350 C   0  0  0  0  0  0  0  0  0  0  0  0
   -5.2030    0.7568   -0.1587 C   0  0  0  0  0  0  0  0  0  0  0  0
   -6.3211    0.6498    0.8504 C   0  0  0  0  0  0  0  0  0  0  0  0
   -6.0438   -0.2388    1.8455 F   0  0  0  0  0  0  0  0  0  0  0  0
   -7.4891    0.2352    0.2901 F   0  0  0  0  0  0  0  0  0  0  0  0
   -6.5991    1.8282    1.4740 F   0  0  0  0  0  0  0  0  0  0  0  0
   -4.5000   -0.3906   -0.5608 C   0  0  0  0  0  0  0  0  0  0  0  0
   -0.1812   -0.7919   -1.1379 C   0  0  0  0  0  0  0  0  0  0  0  0
    2.5170   -0.2553   -0.3847 H   0  0  0  0  0  0  0  0  0  0  0  0
    3.3610    1.6489   -1.7837 H   0  0  0  0  0  0  0  0  0  0  0  0
    3.2118    2.6343   -0.3151 H   0  0  0  0  0  0  0  0  0  0  0  0
    5.5485    1.6809   -0.7235 H   0  0  0  0  0  0  0  0  0  0  0  0
    4.0646    0.8284    1.8160 H   0  0  0  0  0  0  0  0  0  0  0  0
    5.2688    2.1202    1.6422 H   0  0  0  0  0  0  0  0  0  0  0  0
    7.0142    0.4981    1.1760 H   0  0  0  0  0  0  0  0  0  0  0  0
    6.1055   -0.3133    2.4642 H   0  0  0  0  0  0  0  0  0  0  0  0
    6.4720   -1.5088    0.0206 H   0  0  0  0  0  0  0  0  0  0  0  0
    4.9216   -1.6828    0.8723 H   0  0  0  0  0  0  0  0  0  0  0  0
   -0.9712    0.6236    0.2593 H   0  0  0  0  0  0  0  0  0  0  0  0
    1.3430   -0.7397    1.6104 H   0  0  0  0  0  0  0  0  0  0  0  0
   -0.2088   -0.2151    2.2102 H   0  0  0  0  0  0  0  0  0  0  0  0
   -0.4127   -2.5488    2.2738 H   0  0  0  0  0  0  0  0  0  0  0  0
    0.5293   -2.7835    0.8050 H   0  0  0  0  0  0  0  0  0  0  0  0
   -2.2921   -1.6026    0.9055 H   0  0  0  0  0  0  0  0  0  0  0  0
   -1.8744   -3.2644    0.4347 H   0  0  0  0  0  0  0  0  0  0  0  0
   -2.3781    1.0252   -2.8377 H   0  0  0  0  0  0  0  0  0  0  0  0
   -3.6108    3.0489   -2.1342 H   0  0  0  0  0  0  0  0  0  0  0  0
   -5.4076    2.8960   -0.4456 H   0  0  0  0  0  0  0  0  0  0  0  0
   -4.7625   -1.3613   -0.1401 H   0  0  0  0  0  0  0  0  0  0  0  0
   -0.3592   -0.1732   -2.0235 H   0  0  0  0  0  0  0  0  0  0  0  0
    0.7425   -1.3457   -1.3482 H   0  0  0  0  0  0  0  0  0  0  0  0
  1  2  2  0
  2  3  1  0
  3  4  1  0
  4  5  1  0
  5  6  1  0
  6  7  1  0
  7  8  1  0
  8  9  1  0
  2 10  1  0
 10 11  1  0
 11 12  1  0
 12 13  1  0
 13 14  1  0
 14 15  1  0
 15 16  2  0
 15 17  2  0
 15 18  1  0
 18 19  2  0
 19 20  1  0
 20 21  2  0
 21 22  1  0
 22 23  1  0
 23 24  1  0
 23 25  1  0
 23 26  1  0
 22 27  2  0
 14 28  1  0
  9  5  1  0
 28 10  1  0
 27 18  1  0
  3 29  1  0
  4 30  1  0
  4 31  1  0
  5 32  1  0
  6 33  1  0
  6 34  1  0
  7 35  1  0
  7 36  1  0
  8 37  1  0
  8 38  1  0
 10 39  1  0
 11 40  1  0
 11 41  1  0
 12 42  1  0
 12 43  1  0
 13 44  1  0
 13 45  1  0
 19 46  1  0
 20 47  1  0
 21 48  1  0
 27 49  1  0
 28 50  1  0
 28 51  1  0
M  END
$$$$
