
     RDKit          3D

 52 56  0  0  0  0  0  0  0  0999 V2000
   -3.8360   -0.6450    0.2032 C   0  0  0  0  0  0  0  0  0  0  0  0
   -2.4821   -1.3155    0.3994 C   0  0  0  0  0  0  0  0  0  0  0  0
   -1.3223   -0.3162    0.3169 C   0  0  0  0  0  0  0  0  0  0  0  0
   -1.3780    0.8362    1.3009 C   0  0  0  0  0  0  0  0  0  0  0  0
   -1.5463    1.9713    0.8676 O   0  0  0  0  0  0  0  0  0  0  0  0
   -1.3107    0.5917    2.7716 C   0  0  0  0  0  0  0  0  0  0  0  0
   -0.8669   -0.6176    3.3205 C   0  0  0  0  0  0  0  0  0  0  0  0
   -0.8361   -0.7919    4.7085 C   0  0  0  0  0  0  0  0  0  0  0  0
   -1.2469    0.2402    5.5495 C   0  0  0  0  0  0  0  0  0  0  0  0
   -1.2101    0.0207    7.2550 Cl  0  0  0  0  0  0  0  0  0  0  0  0
   -1.6839    1.4503    5.0162 C   0  0  0  0  0  0  0  0  0  0  0  0
   -1.7128    1.6265    3.6299 C   0  0  0  0  0  0  0  0  0  0  0  0
   -0.8109    0.0365   -1.0845 C   0  0  0  0  0  0  0  0  0  0  0  0
   -1.2017   -0.6574   -2.3524 C   0  0  0  0  0  0  0  0  0  0  0  0
   -2.0052   -0.0330   -3.3166 C   0  0  0  0  0  0  0  0  0  0  0  0
   -2.3170   -0.6708   -4.5215 C   0  0  0  0  0  0  0  0  0  0  0  0
   -1.8263   -1.9484   -4.7861 C   0  0  0  0  0  0  0  0  0  0  0  0
   -1.0306   -2.5922   -3.8434 C   0  0  0  0  0  0  0  0  0  0  0  0
   -0.7329   -1.9428   -2.6454 C   0  0  0  0  0  0  0  0  0  0  0  0
    0.0280   -2.6804   -1.7100 O   0  0  0  0  0  0  0  0  0  0  0  0
    0.2675   -2.2278   -0.4086 C   0  0  0  0  0  0  0  0  0  0  0  0
    0.6175   -2.9851    0.4870 O   0  0  0  0  0  0  0  0  0  0  0  0
    0.0863   -0.7699   -0.1651 C   0  0  0  0  0  0  0  0  0  0  0  0
    1.3243   -0.0635    0.3075 C   0  0  0  0  0  0  0  0  0  0  0  0
    1.5247    0.0485    1.5066 O   0  0  0  0  0  0  0  0  0  0  0  0
    2.1326    0.3794   -0.7228 N   0  0  0  0  0  0  0  0  0  0  0  0
    3.3562    1.0725   -0.6129 C   0  0  0  0  0  0  0  0  0  0  0  0
    4.0004    1.4228   -1.8074 C   0  0  0  0  0  0  0  0  0  0  0  0
    5.2165    2.1109   -1.7876 C   0  0  0  0  0  0  0  0  0  0  0  0
    5.8006    2.4558   -0.5724 C   0  0  0  0  0  0  0  0  0  0  0  0
    5.1679    2.1124    0.6197 C   0  0  0  0  0  0  0  0  0  0  0  0
    3.9505    1.4235    0.6002 C   0  0  0  0  0  0  0  0  0  0  0  0
   -4.6342   -1.3936    0.2256 H   0  0  0  0  0  0  0  0  0  0  0  0
   -4.0391    0.0839    0.9940 H   0  0  0  0  0  0  0  0  0  0  0  0
   -3.8858   -0.1217   -0.7563 H   0  0  0  0  0  0  0  0  0  0  0  0
   -2.3885   -2.1164   -0.3398 H   0  0  0  0  0  0  0  0  0  0  0  0
   -2.4721   -1.8139    1.3741 H   0  0  0  0  0  0  0  0  0  0  0  0
   -0.5075   -1.4298    2.6944 H   0  0  0  0  0  0  0  0  0  0  0  0
   -0.4778   -1.7310    5.1232 H   0  0  0  0  0  0  0  0  0  0  0  0
   -1.9981    2.2604    5.6690 H   0  0  0  0  0  0  0  0  0  0  0  0
   -2.0507    2.5778    3.2220 H   0  0  0  0  0  0  0  0  0  0  0  0
   -0.5529    1.0884   -1.2230 H   0  0  0  0  0  0  0  0  0  0  0  0
   -2.3929    0.9678   -3.1314 H   0  0  0  0  0  0  0  0  0  0  0  0
   -2.9431   -0.1669   -5.2546 H   0  0  0  0  0  0  0  0  0  0  0  0
   -2.0715   -2.4433   -5.7226 H   0  0  0  0  0  0  0  0  0  0  0  0
   -0.6577   -3.5948   -4.0340 H   0  0  0  0  0  0  0  0  0  0  0  0
    1.8205    0.1980   -1.6687 H   0  0  0  0  0  0  0  0  0  0  0  0
    3.5681    1.1672   -2.7712 H   0  0  0  0  0  0  0  0  0  0  0  0
    5.7067    2.3773   -2.7204 H   0  0  0  0  0  0  0  0  0  0  0  0
    6.7462    2.9912   -0.5521 H   0  0  0  0  0  0  0  0  0  0  0  0
    5.6190    2.3795    1.5722 H   0  0  0  0  0  0  0  0  0  0  0  0
    3.4953    1.1785    1.5546 H   0  0  0  0  0  0  0  0  0  0  0  0
  1  2  1  0
  2  3  1  0
  3  4  1  0
  4  5  2  0
  4  6  1  0
  6  7  2  0
  7  8  1  0
  8  9  2  0
  9 10  1  0
  9 11  1  0
 11 12  2  0
  3 13  1  0
 13 14  1  0
 14 15  2  0
 15 16  1  0
 16 17  2  0
 17 18  1  0
 18 19  2  0
 19 20  1  0
 20 21  1  0
 21 22  2  0
 21 23  1  0
 23 24  1  0
 24 25  2  0
 24 26  1  0
 26 27  1  0
 27 28  2  0
 28 29  1  0
 29 30  2  0
 30 31  1  0
 31 32  2  0
 23  3  1  0
 32 27  1  0
 12  6  1  0
 23 13  1  0
 19 14  1  0
  1 33  1  0
  1 34  1  0
  1 35  1  0
  2 36  1  0
  2 37  1  0
  7 38  1  0
  8 39  1  0
 11 40  1  0
 12 41  1  0
 13 42  1  0
 15 43  1  0
 16 44  1  0
 17 45  1  0
 18 46  1  0
 26 47  1  0
 28 48  1  0
 29 49  1  0
 30 50  1  0
 31 51  1  0
 32 52  1  0
M  END
$$$$
