
     RDKit          3D

 42 44  0  0  0  0  0  0  0  0999 V2000
    4.3219   -0.2567    4.1715 N   0  0  0  0  0  0  0  0  0  0  0  0
    4.4359   -0.7985    3.1513 C   0  0  0  0  0  0  0  0  0  0  0  0
    4.5647   -1.4567    1.8923 C   0  0  0  0  0  0  0  0  0  0  0  0
    5.7493   -2.2283    1.7033 C   0  0  0  0  0  0  0  0  0  0  0  0
    6.7094   -2.8585    1.5358 N   0  0  0  0  0  0  0  0  0  0  0  0
    3.6238   -1.3529    0.9187 C   0  0  0  0  0  0  0  0  0  0  0  0
    2.4072   -0.5449    1.0661 C   0  0  0  0  0  0  0  0  0  0  0  0
    1.4035   -0.5287    0.1681 C   0  0  0  0  0  0  0  0  0  0  0  0
    0.2285    0.3057    0.3758 C   0  0  0  0  0  0  0  0  0  0  0  0
   -0.8787    0.2847   -0.3976 C   0  0  0  0  0  0  0  0  0  0  0  0
   -1.9967    1.1159   -0.1844 N   0  0  0  0  0  0  0  0  0  0  0  0
   -3.0068    1.3576   -1.2344 C   0  0  0  0  0  0  0  0  0  0  0  0
   -3.6184    2.7488   -1.1004 C   0  0  0  0  0  0  0  0  0  0  0  0
   -4.3226    2.9341    0.2397 C   0  0  0  0  0  0  0  0  0  0  0  0
   -3.7208    2.0582    1.3334 C   0  0  0  0  0  0  0  0  0  0  0  0
   -2.2350    1.8007    1.1033 C   0  0  0  0  0  0  0  0  0  0  0  0
   -0.9531   -0.7055   -1.5544 C   0  0  0  0  0  0  0  0  0  0  0  0
    0.0228   -1.8764   -1.4252 C   0  0  0  0  0  0  0  0  0  0  0  0
    1.4264   -1.3718   -1.0877 C   0  0  0  0  0  0  0  0  0  0  0  0
    2.4039   -2.5447   -0.9542 C   0  0  0  0  0  0  0  0  0  0  0  0
    3.7529   -2.0591   -0.4259 C   0  0  0  0  0  0  0  0  0  0  0  0
    2.3094    0.0743    1.9574 H   0  0  0  0  0  0  0  0  0  0  0  0
    0.2821    1.0008    1.2088 H   0  0  0  0  0  0  0  0  0  0  0  0
   -3.7859    0.5883   -1.1751 H   0  0  0  0  0  0  0  0  0  0  0  0
   -2.5513    1.2932   -2.2290 H   0  0  0  0  0  0  0  0  0  0  0  0
   -2.8240    3.5007   -1.1946 H   0  0  0  0  0  0  0  0  0  0  0  0
   -4.3241    2.9354   -1.9177 H   0  0  0  0  0  0  0  0  0  0  0  0
   -5.3889    2.6982    0.1410 H   0  0  0  0  0  0  0  0  0  0  0  0
   -4.2664    3.9904    0.5288 H   0  0  0  0  0  0  0  0  0  0  0  0
   -4.2523    1.0978    1.3566 H   0  0  0  0  0  0  0  0  0  0  0  0
   -3.8793    2.5265    2.3113 H   0  0  0  0  0  0  0  0  0  0  0  0
   -1.6763    2.7441    1.1218 H   0  0  0  0  0  0  0  0  0  0  0  0
   -1.8765    1.1824    1.9349 H   0  0  0  0  0  0  0  0  0  0  0  0
   -0.7515   -0.1696   -2.4904 H   0  0  0  0  0  0  0  0  0  0  0  0
   -1.9634   -1.1258   -1.6270 H   0  0  0  0  0  0  0  0  0  0  0  0
   -0.3334   -2.5623   -0.6445 H   0  0  0  0  0  0  0  0  0  0  0  0
    0.0361   -2.4442   -2.3633 H   0  0  0  0  0  0  0  0  0  0  0  0
    1.7700   -0.7296   -1.9119 H   0  0  0  0  0  0  0  0  0  0  0  0
    1.9992   -3.3095   -0.2776 H   0  0  0  0  0  0  0  0  0  0  0  0
    2.5426   -3.0258   -1.9300 H   0  0  0  0  0  0  0  0  0  0  0  0
    4.1977   -1.3610   -1.1473 H   0  0  0  0  0  0  0  0  0  0  0  0
    4.4182   -2.9273   -0.3703 H   0  0  0  0  0  0  0  0  0  0  0  0
  1  2  3  0
  2  3  1  0
  3  4  1  0
  4  5  3  0
  3  6  2  3
  6  7  1  0
  7  8  2  0
  8  9  1  0
  9 10  2  0
 10 11  1  0
 11 12  1  0
 12 13  1  0
 13 14  1  0
 14 15  1  0
 15 16  1  0
 10 17  1  0
 17 18  1  0
 18 19  1  0
 19 20  1  0
 20 21  1  0
 21  6  1  0
 19  8  1  0
 16 11  1  0
  7 22  1  0
  9 23  1  0
 12 24  1  0
 12 25  1  0
 13 26  1  0
 13 27  1  0
 14 28  1  0
 14 29  1  0
 15 30  1  0
 15 31  1  0
 16 32  1  0
 16 33  1  0
 17 34  1  0
 17 35  1  0
 18 36  1  0
 18 37  1  0
 19 38  1  0
 20 39  1  0
 20 40  1  0
 21 41  1  0
 21 42  1  0
M  END
$$$$
