
     RDKit          3D

 60 64  0  0  0  0  0  0  0  0999 V2000
    8.2464   -1.1520    1.0405 C   0  0  0  0  0  0  0  0  0  0  0  0
    6.8724   -1.0838    0.6892 O   0  0  0  0  0  0  0  0  0  0  0  0
    6.5388   -0.4715   -0.4924 C   0  0  0  0  0  0  0  0  0  0  0  0
    7.4823   -0.1372   -1.4773 C   0  0  0  0  0  0  0  0  0  0  0  0
    7.0855    0.4597   -2.6754 C   0  0  0  0  0  0  0  0  0  0  0  0
    5.7420    0.7235   -2.9080 C   0  0  0  0  0  0  0  0  0  0  0  0
    4.7937    0.3930   -1.9385 C   0  0  0  0  0  0  0  0  0  0  0  0
    5.1693   -0.2046   -0.7161 C   0  0  0  0  0  0  0  0  0  0  0  0
    4.1411   -0.5097    0.2888 C   0  0  0  0  0  0  0  0  0  0  0  0
    4.2573   -0.8368    1.5611 N   0  0  0  0  0  0  0  0  0  0  0  0
    2.9563   -0.9800    1.9853 C   0  0  0  0  0  0  0  0  0  0  0  0
    2.6650   -1.3606    3.3285 C   0  0  0  0  0  0  0  0  0  0  0  0
    2.3959   -1.6714    4.4157 N   0  0  0  0  0  0  0  0  0  0  0  0
    2.0685   -0.7221    0.9578 C   0  0  0  0  0  0  0  0  0  0  0  0
    0.7204   -0.6877    0.7905 N   0  0  0  0  0  0  0  0  0  0  0  0
   -0.2161   -0.7666    1.9164 C   0  0  0  0  0  0  0  0  0  0  0  0
   -1.5328   -0.0272    1.5788 C   0  0  0  0  0  0  0  0  0  0  0  0
   -2.2621   -0.5516    0.3938 N   0  0  0  0  0  0  0  0  0  0  0  0
   -3.1247    0.5001   -0.2248 C   0  0  0  0  0  0  0  0  0  0  0  0
   -3.9786   -0.0189   -1.3911 C   0  0  0  0  0  0  0  0  0  0  0  0
   -4.6088   -1.2747   -1.3494 C   0  0  0  0  0  0  0  0  0  0  0  0
   -5.3873   -1.7201   -2.4196 C   0  0  0  0  0  0  0  0  0  0  0  0
   -5.5526   -0.9138   -3.5450 C   0  0  0  0  0  0  0  0  0  0  0  0
   -4.9468    0.3404   -3.5984 C   0  0  0  0  0  0  0  0  0  0  0  0
   -4.1687    0.7875   -2.5283 C   0  0  0  0  0  0  0  0  0  0  0  0
   -4.0255    1.2278    0.7826 C   0  0  0  0  0  0  0  0  0  0  0  0
   -4.0187    2.6325    0.8418 C   0  0  0  0  0  0  0  0  0  0  0  0
   -4.8353    3.3125    1.7475 C   0  0  0  0  0  0  0  0  0  0  0  0
   -5.6738    2.6003    2.6021 C   0  0  0  0  0  0  0  0  0  0  0  0
   -5.6981    1.2082    2.5525 C   0  0  0  0  0  0  0  0  0  0  0  0
   -4.8818    0.5263    1.6487 C   0  0  0  0  0  0  0  0  0  0  0  0
   -1.3017   -1.1378   -0.5779 C   0  0  0  0  0  0  0  0  0  0  0  0
    0.1316   -0.5582   -0.5469 C   0  0  0  0  0  0  0  0  0  0  0  0
    2.8372   -0.4299   -0.1396 O   0  0  0  0  0  0  0  0  0  0  0  0
    8.7910   -1.8212    0.3665 H   0  0  0  0  0  0  0  0  0  0  0  0
    8.3125   -1.5721    2.0480 H   0  0  0  0  0  0  0  0  0  0  0  0
    8.7022   -0.1551    1.0648 H   0  0  0  0  0  0  0  0  0  0  0  0
    8.5403   -0.3391   -1.3448 H   0  0  0  0  0  0  0  0  0  0  0  0
    7.8287    0.7140   -3.4283 H   0  0  0  0  0  0  0  0  0  0  0  0
    5.4292    1.1854   -3.8422 H   0  0  0  0  0  0  0  0  0  0  0  0
    3.7483    0.6170   -2.1443 H   0  0  0  0  0  0  0  0  0  0  0  0
    0.2042   -0.2888    2.8082 H   0  0  0  0  0  0  0  0  0  0  0  0
   -0.4187   -1.8170    2.1561 H   0  0  0  0  0  0  0  0  0  0  0  0
   -1.2744    1.0308    1.4277 H   0  0  0  0  0  0  0  0  0  0  0  0
   -2.1858   -0.0859    2.4566 H   0  0  0  0  0  0  0  0  0  0  0  0
   -2.4345    1.2471   -0.6444 H   0  0  0  0  0  0  0  0  0  0  0  0
   -4.4864   -1.9163   -0.4788 H   0  0  0  0  0  0  0  0  0  0  0  0
   -5.8636   -2.6968   -2.3736 H   0  0  0  0  0  0  0  0  0  0  0  0
   -6.1590   -1.2619   -4.3774 H   0  0  0  0  0  0  0  0  0  0  0  0
   -5.0815    0.9725   -4.4735 H   0  0  0  0  0  0  0  0  0  0  0  0
   -3.7145    1.7750   -2.5858 H   0  0  0  0  0  0  0  0  0  0  0  0
   -3.3759    3.2092    0.1801 H   0  0  0  0  0  0  0  0  0  0  0  0
   -4.8189    4.3988    1.7839 H   0  0  0  0  0  0  0  0  0  0  0  0
   -6.3114    3.1300    3.3040 H   0  0  0  0  0  0  0  0  0  0  0  0
   -6.3534    0.6512    3.2173 H   0  0  0  0  0  0  0  0  0  0  0  0
   -4.9082   -0.5610    1.6254 H   0  0  0  0  0  0  0  0  0  0  0  0
   -1.6688   -1.0995   -1.6086 H   0  0  0  0  0  0  0  0  0  0  0  0
   -1.2362   -2.2081   -0.3390 H   0  0  0  0  0  0  0  0  0  0  0  0
    0.1156    0.4986   -0.8387 H   0  0  0  0  0  0  0  0  0  0  0  0
    0.7291   -1.1022   -1.2891 H   0  0  0  0  0  0  0  0  0  0  0  0
  1  2  1  0
  2  3  1  0
  3  4  2  0
  4  5  1  0
  5  6  2  0
  6  7  1  0
  7  8  2  0
  8  9  1  0
  9 10  2  0
 10 11  1  0
 11 12  1  0
 12 13  3  0
 11 14  2  0
 14 15  1  0
 15 16  1  0
 16 17  1  0
 17 18  1  0
 18 19  1  0
 19 20  1  0
 20 21  2  0
 21 22  1  0
 22 23  2  0
 23 24  1  0
 24 25  2  0
 19 26  1  0
 26 27  2  0
 27 28  1  0
 28 29  2  0
 29 30  1  0
 30 31  2  0
 18 32  1  0
 32 33  1  0
 14 34  1  0
  8  3  1  0
 34  9  1  0
 33 15  1  0
 25 20  1  0
 31 26  1  0
  1 35  1  0
  1 36  1  0
  1 37  1  0
  4 38  1  0
  5 39  1  0
  6 40  1  0
  7 41  1  0
 16 42  1  0
 16 43  1  0
 17 44  1  0
 17 45  1  0
 19 46  1  0
 21 47  1  0
 22 48  1  0
 23 49  1  0
 24 50  1  0
 25 51  1  0
 27 52  1  0
 28 53  1  0
 29 54  1  0
 30 55  1  0
 31 56  1  0
 32 57  1  0
 32 58  1  0
 33 59  1  0
 33 60  1  0
M  END
$$$$
