
     RDKit          3D

 37 39  0  0  0  0  0  0  0  0999 V2000
    0.9112   -1.8514   -0.8019 O   0  0  0  0  0  0  0  0  0  0  0  0
    1.3927   -1.5239    0.2844 C   0  0  0  0  0  0  0  0  0  0  0  0
    2.3745   -2.4624    0.9764 C   0  0  0  0  0  0  0  0  0  0  0  0
    3.7732   -2.2382    0.4834 C   0  0  0  0  0  0  0  0  0  0  0  0
    4.2274   -2.1361   -0.8180 C   0  0  0  0  0  0  0  0  0  0  0  0
    5.6357   -1.9356   -0.8891 C   0  0  0  0  0  0  0  0  0  0  0  0
    6.2156   -1.9069    0.3586 C   0  0  0  0  0  0  0  0  0  0  0  0
    5.0671   -2.1253    1.6047 S   0  0  0  0  0  0  0  0  0  0  0  0
    1.1465   -0.2992    0.9035 N   0  0  0  0  0  0  0  0  0  0  0  0
    1.9484    0.2605    1.9572 C   0  0  0  0  0  0  0  0  0  0  0  0
    1.4085    1.6680    2.1067 C   0  0  0  0  0  0  0  0  0  0  0  0
    0.0960    1.6656    1.4346 N   0  0  0  0  0  0  0  0  0  0  0  0
    0.0555    0.5579    0.7611 C   0  0  0  0  0  0  0  0  0  0  0  0
   -1.3031    0.1237   -0.2160 S   0  0  0  0  0  0  0  0  0  0  0  0
   -2.3732    1.5645    0.0406 C   0  0  0  0  0  0  0  0  0  0  0  0
   -3.6766    1.4260   -0.7111 C   0  0  0  0  0  0  0  0  0  0  0  0
   -3.7529    1.9063   -2.0324 C   0  0  0  0  0  0  0  0  0  0  0  0
   -4.9308    1.7902   -2.7727 C   0  0  0  0  0  0  0  0  0  0  0  0
   -6.0511    1.1873   -2.2085 C   0  0  0  0  0  0  0  0  0  0  0  0
   -5.9915    0.6967   -0.9048 C   0  0  0  0  0  0  0  0  0  0  0  0
   -4.8125    0.8107   -0.1599 C   0  0  0  0  0  0  0  0  0  0  0  0
   -4.8213    0.1684    1.4449 Cl  0  0  0  0  0  0  0  0  0  0  0  0
    2.2897   -2.3663    2.0632 H   0  0  0  0  0  0  0  0  0  0  0  0
    2.0701   -3.4907    0.7437 H   0  0  0  0  0  0  0  0  0  0  0  0
    3.5771   -2.2006   -1.6848 H   0  0  0  0  0  0  0  0  0  0  0  0
    6.1947   -1.8254   -1.8104 H   0  0  0  0  0  0  0  0  0  0  0  0
    7.2620   -1.7762    0.5987 H   0  0  0  0  0  0  0  0  0  0  0  0
    1.7897   -0.3201    2.8722 H   0  0  0  0  0  0  0  0  0  0  0  0
    3.0108    0.2535    1.7041 H   0  0  0  0  0  0  0  0  0  0  0  0
    1.3086    1.9494    3.1595 H   0  0  0  0  0  0  0  0  0  0  0  0
    2.0616    2.3979    1.6154 H   0  0  0  0  0  0  0  0  0  0  0  0
   -1.8525    2.4639   -0.3101 H   0  0  0  0  0  0  0  0  0  0  0  0
   -2.5614    1.7192    1.1081 H   0  0  0  0  0  0  0  0  0  0  0  0
   -2.8836    2.3700   -2.4960 H   0  0  0  0  0  0  0  0  0  0  0  0
   -4.9699    2.1655   -3.7924 H   0  0  0  0  0  0  0  0  0  0  0  0
   -6.9679    1.0928   -2.7844 H   0  0  0  0  0  0  0  0  0  0  0  0
   -6.8684    0.2202   -0.4735 H   0  0  0  0  0  0  0  0  0  0  0  0
  1  2  2  0
  2  3  1  0
  3  4  1  0
  4  5  2  0
  5  6  1  0
  6  7  2  0
  7  8  1  0
  2  9  1  0
  9 10  1  0
 10 11  1  0
 11 12  1  0
 12 13  2  0
 13 14  1  0
 14 15  1  0
 15 16  1  0
 16 17  2  0
 17 18  1  0
 18 19  2  0
 19 20  1  0
 20 21  2  0
 21 22  1  0
  8  4  1  0
 13  9  1  0
 21 16  1  0
  3 23  1  0
  3 24  1  0
  5 25  1  0
  6 26  1  0
  7 27  1  0
 10 28  1  0
 10 29  1  0
 11 30  1  0
 11 31  1  0
 15 32  1  0
 15 33  1  0
 17 34  1  0
 18 35  1  0
 19 36  1  0
 20 37  1  0
M  END
$$$$
