
     RDKit          3D

 35 36  0  0  0  0  0  0  0  0999 V2000
   -5.9544   -0.0068   -0.0794 C   0  0  0  0  0  0  0  0  0  0  0  0
   -4.4583   -0.0979   -0.0304 C   0  0  0  0  0  0  0  0  0  0  0  0
   -3.6720    1.0551   -0.1190 C   0  0  0  0  0  0  0  0  0  0  0  0
   -2.2735    0.9731   -0.1041 C   0  0  0  0  0  0  0  0  0  0  0  0
   -1.6373   -0.2699   -0.0235 C   0  0  0  0  0  0  0  0  0  0  0  0
   -0.2133   -0.4075    0.0018 N   0  0  0  0  0  0  0  0  0  0  0  0
    0.3153   -1.5716    0.4490 N   0  0  0  0  0  0  0  0  0  0  0  0
    1.6291   -1.3586    0.5651 C   0  0  0  0  0  0  0  0  0  0  0  0
    2.4558   -2.4589    1.1210 C   0  0  0  0  0  0  0  0  0  0  0  0
    1.9876   -0.0778    0.0765 C   0  0  0  0  0  0  0  0  0  0  0  0
    3.1931    0.5974   -0.0451 N   0  0  0  0  0  0  0  0  0  0  0  0
    4.4376    0.2102    0.4020 C   0  0  0  0  0  0  0  0  0  0  0  0
    4.7001   -0.8326    0.9954 O   0  0  0  0  0  0  0  0  0  0  0  0
    5.5664    1.1728    0.0593 C   0  0  0  0  0  0  0  0  0  0  0  0
    4.9848    2.8042   -0.3546 Cl  0  0  0  0  0  0  0  0  0  0  0  0
    0.7949    0.4782   -0.3691 C   0  0  0  0  0  0  0  0  0  0  0  0
    0.5785    1.7322   -1.1412 C   0  0  0  0  0  0  0  0  0  0  0  0
   -2.4307   -1.4254    0.0770 C   0  0  0  0  0  0  0  0  0  0  0  0
   -3.8262   -1.3403    0.0602 C   0  0  0  0  0  0  0  0  0  0  0  0
   -6.4146   -0.8224    0.4883 H   0  0  0  0  0  0  0  0  0  0  0  0
   -6.3033    0.9327    0.3620 H   0  0  0  0  0  0  0  0  0  0  0  0
   -6.2984   -0.0597   -1.1169 H   0  0  0  0  0  0  0  0  0  0  0  0
   -4.1446    2.0331   -0.1853 H   0  0  0  0  0  0  0  0  0  0  0  0
   -1.7261    1.9071   -0.1112 H   0  0  0  0  0  0  0  0  0  0  0  0
    1.8505   -3.3516    1.3172 H   0  0  0  0  0  0  0  0  0  0  0  0
    2.9056   -2.1623    2.0730 H   0  0  0  0  0  0  0  0  0  0  0  0
    3.2371   -2.7540    0.4145 H   0  0  0  0  0  0  0  0  0  0  0  0
    3.1442    1.5266   -0.4494 H   0  0  0  0  0  0  0  0  0  0  0  0
    6.1229    0.7804   -0.7958 H   0  0  0  0  0  0  0  0  0  0  0  0
    6.2291    1.2693    0.9234 H   0  0  0  0  0  0  0  0  0  0  0  0
    0.3849    2.5729   -0.4685 H   0  0  0  0  0  0  0  0  0  0  0  0
    1.4633    1.9841   -1.7354 H   0  0  0  0  0  0  0  0  0  0  0  0
   -0.2421    1.6339   -1.8580 H   0  0  0  0  0  0  0  0  0  0  0  0
   -1.9734   -2.4110    0.1547 H   0  0  0  0  0  0  0  0  0  0  0  0
   -4.4123   -2.2547    0.1228 H   0  0  0  0  0  0  0  0  0  0  0  0
  1  2  1  0
  2  3  2  0
  3  4  1  0
  4  5  2  0
  5  6  1  0
  6  7  1  0
  7  8  2  0
  8  9  1  0
  8 10  1  0
 10 11  1  0
 11 12  1  0
 12 13  2  0
 12 14  1  0
 14 15  1  0
 10 16  2  0
 16 17  1  0
  5 18  1  0
 18 19  2  0
 19  2  1  0
 16  6  1  0
  1 20  1  0
  1 21  1  0
  1 22  1  0
  3 23  1  0
  4 24  1  0
  9 25  1  0
  9 26  1  0
  9 27  1  0
 11 28  1  0
 14 29  1  0
 14 30  1  0
 17 31  1  0
 17 32  1  0
 17 33  1  0
 18 34  1  0
 19 35  1  0
M  END
$$$$
