
     RDKit          3D

 39 41  0  0  0  0  0  0  0  0999 V2000
   -1.2630    0.5942   -1.2687 O   0  0  0  0  0  0  0  0  0  0  0  0
   -1.6145    0.7572   -0.1033 C   0  0  0  0  0  0  0  0  0  0  0  0
   -3.0116    0.4408    0.4339 C   0  0  0  0  0  0  0  0  0  0  0  0
   -3.7915   -0.2363   -0.5383 O   0  0  0  0  0  0  0  0  0  0  0  0
   -5.0696   -0.5992   -0.2064 C   0  0  0  0  0  0  0  0  0  0  0  0
   -5.6909   -0.2939    1.0098 C   0  0  0  0  0  0  0  0  0  0  0  0
   -7.0052   -0.7076    1.2551 C   0  0  0  0  0  0  0  0  0  0  0  0
   -7.7039   -1.4264    0.2877 C   0  0  0  0  0  0  0  0  0  0  0  0
   -9.3185   -1.9298    0.6006 Cl  0  0  0  0  0  0  0  0  0  0  0  0
   -7.1043   -1.7379   -0.9271 C   0  0  0  0  0  0  0  0  0  0  0  0
   -5.7924   -1.3245   -1.1714 C   0  0  0  0  0  0  0  0  0  0  0  0
   -5.0897   -1.7395   -2.6968 Cl  0  0  0  0  0  0  0  0  0  0  0  0
   -0.7667    1.2775    0.8713 N   0  0  0  0  0  0  0  0  0  0  0  0
    0.5960    1.3556    0.5126 N   0  0  0  0  0  0  0  0  0  0  0  0
    1.3966    0.2467    0.7183 C   0  0  0  0  0  0  0  0  0  0  0  0
    1.0680   -0.7759    1.3060 O   0  0  0  0  0  0  0  0  0  0  0  0
    2.7493    0.5162    0.1606 C   0  0  0  0  0  0  0  0  0  0  0  0
    3.7213   -0.4050    0.2045 C   0  0  0  0  0  0  0  0  0  0  0  0
    5.0863   -0.2414   -0.3046 C   0  0  0  0  0  0  0  0  0  0  0  0
    6.1611   -0.2722    0.5922 C   0  0  0  0  0  0  0  0  0  0  0  0
    7.4715   -0.1323    0.1270 C   0  0  0  0  0  0  0  0  0  0  0  0
    7.7088    0.0314   -1.2363 C   0  0  0  0  0  0  0  0  0  0  0  0
    9.3221    0.2033   -1.8081 Cl  0  0  0  0  0  0  0  0  0  0  0  0
    6.6478    0.0530   -2.1390 C   0  0  0  0  0  0  0  0  0  0  0  0
    5.3374   -0.0873   -1.6740 C   0  0  0  0  0  0  0  0  0  0  0  0
    2.8306    2.1209   -0.4706 S   0  0  0  0  0  0  0  0  0  0  0  0
    1.1479    2.4723   -0.0805 C   0  0  0  0  0  0  0  0  0  0  0  0
    0.4254    3.9488   -0.3620 S   0  0  0  0  0  0  0  0  0  0  0  0
   -2.8932   -0.1892    1.3236 H   0  0  0  0  0  0  0  0  0  0  0  0
   -3.4783    1.3979    0.6957 H   0  0  0  0  0  0  0  0  0  0  0  0
   -5.1878    0.2672    1.7902 H   0  0  0  0  0  0  0  0  0  0  0  0
   -7.4785   -0.4637    2.2036 H   0  0  0  0  0  0  0  0  0  0  0  0
   -7.6509   -2.2981   -1.6807 H   0  0  0  0  0  0  0  0  0  0  0  0
   -0.9231    1.0034    1.8368 H   0  0  0  0  0  0  0  0  0  0  0  0
    3.5252   -1.3735    0.6636 H   0  0  0  0  0  0  0  0  0  0  0  0
    5.9889   -0.4002    1.6587 H   0  0  0  0  0  0  0  0  0  0  0  0
    8.2991   -0.1523    0.8310 H   0  0  0  0  0  0  0  0  0  0  0  0
    6.8316    0.1765   -3.2030 H   0  0  0  0  0  0  0  0  0  0  0  0
    4.5188   -0.0766   -2.3907 H   0  0  0  0  0  0  0  0  0  0  0  0
  1  2  2  0
  2  3  1  0
  3  4  1  0
  4  5  1  0
  5  6  2  0
  6  7  1  0
  7  8  2  0
  8  9  1  0
  8 10  1  0
 10 11  2  0
 11 12  1  0
  2 13  1  0
 13 14  1  0
 14 15  1  0
 15 16  2  0
 15 17  1  0
 17 18  2  3
 18 19  1  0
 19 20  2  0
 20 21  1  0
 21 22  2  0
 22 23  1  0
 22 24  1  0
 24 25  2  0
 17 26  1  0
 26 27  1  0
 27 28  2  0
 11  5  1  0
 27 14  1  0
 25 19  1  0
  3 29  1  0
  3 30  1  0
  6 31  1  0
  7 32  1  0
 10 33  1  0
 13 34  1  0
 18 35  1  0
 20 36  1  0
 21 37  1  0
 24 38  1  0
 25 39  1  0
M  END
$$$$
