
     RDKit          3D

 47 49  0  0  0  0  0  0  0  0999 V2000
    4.3721   -2.7124    2.5488 C   0  0  0  0  0  0  0  0  0  0  0  0
    5.0464   -2.4292    1.2091 C   0  0  0  0  0  0  0  0  0  0  0  0
    4.2569   -1.6926    0.2215 N   0  0  0  0  0  0  0  0  0  0  0  0
    3.0011   -2.3500   -0.1775 C   0  0  0  0  0  0  0  0  0  0  0  0
    1.7050   -1.6815    0.3378 C   0  0  0  0  0  0  0  0  0  0  0  0
    1.6200   -0.2492   -0.0388 N   0  0  0  0  0  0  0  0  0  0  0  0
    0.3987    0.4335   -0.1859 C   0  0  0  0  0  0  0  0  0  0  0  0
   -0.7820   -0.0385    0.2715 C   0  0  0  0  0  0  0  0  0  0  0  0
   -2.0460    0.6599    0.1025 C   0  0  0  0  0  0  0  0  0  0  0  0
   -3.2183    0.0037    0.1628 C   0  0  0  0  0  0  0  0  0  0  0  0
   -4.4940    0.6330   -0.1838 C   0  0  0  0  0  0  0  0  0  0  0  0
   -5.6974    0.1249    0.1800 C   0  0  0  0  0  0  0  0  0  0  0  0
   -6.9185    0.7477   -0.2112 C   0  0  0  0  0  0  0  0  0  0  0  0
   -7.9059    1.2637   -0.5368 N   0  0  0  0  0  0  0  0  0  0  0  0
   -5.8117   -1.0530    0.9765 C   0  0  0  0  0  0  0  0  0  0  0  0
   -5.8928   -2.0160    1.6196 N   0  0  0  0  0  0  0  0  0  0  0  0
   -4.3226    1.8792   -1.0426 C   0  0  0  0  0  0  0  0  0  0  0  0
   -3.2854    2.8233   -0.4422 C   0  0  0  0  0  0  0  0  0  0  0  0
   -1.9326    2.1402   -0.1921 C   0  0  0  0  0  0  0  0  0  0  0  0
   -0.9485    2.3101   -1.3497 C   0  0  0  0  0  0  0  0  0  0  0  0
    0.4288    1.7646   -0.9407 C   0  0  0  0  0  0  0  0  0  0  0  0
    2.9360    0.3967   -0.2643 C   0  0  0  0  0  0  0  0  0  0  0  0
    4.0494   -0.2775    0.5691 C   0  0  0  0  0  0  0  0  0  0  0  0
    3.4636   -3.3101    2.4293 H   0  0  0  0  0  0  0  0  0  0  0  0
    4.1130   -1.7926    3.0806 H   0  0  0  0  0  0  0  0  0  0  0  0
    5.0547   -3.2798    3.1909 H   0  0  0  0  0  0  0  0  0  0  0  0
    5.3482   -3.3862    0.7652 H   0  0  0  0  0  0  0  0  0  0  0  0
    5.9842   -1.8894    1.3917 H   0  0  0  0  0  0  0  0  0  0  0  0
    2.9988   -3.4134    0.0904 H   0  0  0  0  0  0  0  0  0  0  0  0
    2.9712   -2.3296   -1.2752 H   0  0  0  0  0  0  0  0  0  0  0  0
    1.6431   -1.7672    1.4289 H   0  0  0  0  0  0  0  0  0  0  0  0
    0.8624   -2.2360   -0.0918 H   0  0  0  0  0  0  0  0  0  0  0  0
   -0.8276   -0.9988    0.7752 H   0  0  0  0  0  0  0  0  0  0  0  0
   -3.2199   -1.0551    0.4192 H   0  0  0  0  0  0  0  0  0  0  0  0
   -4.0089    1.5766   -2.0504 H   0  0  0  0  0  0  0  0  0  0  0  0
   -5.2581    2.4347   -1.1638 H   0  0  0  0  0  0  0  0  0  0  0  0
   -3.6723    3.1941    0.5174 H   0  0  0  0  0  0  0  0  0  0  0  0
   -3.1646    3.7051   -1.0822 H   0  0  0  0  0  0  0  0  0  0  0  0
   -1.4966    2.6350    0.6888 H   0  0  0  0  0  0  0  0  0  0  0  0
   -0.8477    3.3668   -1.6243 H   0  0  0  0  0  0  0  0  0  0  0  0
   -1.3077    1.7812   -2.2426 H   0  0  0  0  0  0  0  0  0  0  0  0
    0.9167    2.5114   -0.3015 H   0  0  0  0  0  0  0  0  0  0  0  0
    1.0343    1.6653   -1.8497 H   0  0  0  0  0  0  0  0  0  0  0  0
    2.8999    1.4509    0.0315 H   0  0  0  0  0  0  0  0  0  0  0  0
    3.1818    0.3558   -1.3323 H   0  0  0  0  0  0  0  0  0  0  0  0
    3.7845   -0.1649    1.6271 H   0  0  0  0  0  0  0  0  0  0  0  0
    4.9882    0.2659    0.4110 H   0  0  0  0  0  0  0  0  0  0  0  0
  1  2  1  0
  2  3  1  0
  3  4  1  0
  4  5  1  0
  5  6  1  0
  6  7  1  0
  7  8  2  0
  8  9  1  0
  9 10  2  0
 10 11  1  0
 11 12  2  3
 12 13  1  0
 13 14  3  0
 12 15  1  0
 15 16  3  0
 11 17  1  0
 17 18  1  0
 18 19  1  0
 19 20  1  0
 20 21  1  0
  6 22  1  0
 22 23  1  0
 23  3  1  0
 21  7  1  0
 19  9  1  0
  1 24  1  0
  1 25  1  0
  1 26  1  0
  2 27  1  0
  2 28  1  0
  4 29  1  0
  4 30  1  0
  5 31  1  0
  5 32  1  0
  8 33  1  0
 10 34  1  0
 17 35  1  0
 17 36  1  0
 18 37  1  0
 18 38  1  0
 19 39  1  0
 20 40  1  0
 20 41  1  0
 21 42  1  0
 21 43  1  0
 22 44  1  0
 22 45  1  0
 23 46  1  0
 23 47  1  0
M  END
$$$$
