
     RDKit          3D

 33 35  0  0  0  0  0  0  0  0999 V2000
   -0.3840   -1.2203   -2.0659 O   0  0  0  0  0  0  0  0  0  0  0  0
    0.0426   -0.1643   -1.6177 C   0  0  0  0  0  0  0  0  0  0  0  0
    1.2759   -0.0132   -0.7998 C   0  0  0  0  0  0  0  0  0  0  0  0
    1.9933   -1.0909   -0.4548 C   0  0  0  0  0  0  0  0  0  0  0  0
    3.1912   -1.0740    0.3170 C   0  0  0  0  0  0  0  0  0  0  0  0
    3.5516   -0.3413    1.4361 C   0  0  0  0  0  0  0  0  0  0  0  0
    4.8624   -0.6453    1.9081 C   0  0  0  0  0  0  0  0  0  0  0  0
    5.4683   -1.6180    1.1495 C   0  0  0  0  0  0  0  0  0  0  0  0
    4.4589   -2.1650   -0.1130 S   0  0  0  0  0  0  0  0  0  0  0  0
    1.5665    1.6557   -0.4763 S   0  0  0  0  0  0  0  0  0  0  0  0
    0.1323    2.1921   -1.3488 C   0  0  0  0  0  0  0  0  0  0  0  0
   -0.2682    3.7943   -1.5434 S   0  0  0  0  0  0  0  0  0  0  0  0
   -0.5366    1.0780   -1.8073 N   0  0  0  0  0  0  0  0  0  0  0  0
   -1.8265    1.1455   -2.5880 N   0  0  0  0  0  0  0  0  0  0  0  0
   -3.2866    1.1381   -1.7020 S   0  0  0  0  0  6  0  0  0  0  0  0
   -3.6949    2.5081   -1.4890 O   0  0  0  0  0  0  0  0  0  0  0  0
   -4.1507    0.1873   -2.3681 O   0  0  0  0  0  0  0  0  0  0  0  0
   -2.8465    0.4522   -0.1221 C   0  0  0  0  0  0  0  0  0  0  0  0
   -2.8293   -0.9350    0.0496 C   0  0  0  0  0  0  0  0  0  0  0  0
   -2.4577   -1.4676    1.2837 C   0  0  0  0  0  0  0  0  0  0  0  0
   -2.1242   -0.6184    2.3402 C   0  0  0  0  0  0  0  0  0  0  0  0
   -2.1711    0.7665    2.1723 C   0  0  0  0  0  0  0  0  0  0  0  0
   -2.5406    1.3078    0.9417 C   0  0  0  0  0  0  0  0  0  0  0  0
    1.6630   -2.0676   -0.8102 H   0  0  0  0  0  0  0  0  0  0  0  0
    2.9051    0.3850    1.9137 H   0  0  0  0  0  0  0  0  0  0  0  0
    5.3320   -0.1768    2.7645 H   0  0  0  0  0  0  0  0  0  0  0  0
    6.4547   -2.0419    1.2804 H   0  0  0  0  0  0  0  0  0  0  0  0
   -1.8942    0.4050   -3.2974 H   0  0  0  0  0  0  0  0  0  0  0  0
   -3.0883   -1.6038   -0.7693 H   0  0  0  0  0  0  0  0  0  0  0  0
   -2.4340   -2.5461    1.4248 H   0  0  0  0  0  0  0  0  0  0  0  0
   -1.8427   -1.0382    3.3037 H   0  0  0  0  0  0  0  0  0  0  0  0
   -1.9310    1.4232    3.0058 H   0  0  0  0  0  0  0  0  0  0  0  0
   -2.5906    2.3889    0.8231 H   0  0  0  0  0  0  0  0  0  0  0  0
  1  2  2  0
  2  3  1  0
  3  4  2  3
  4  5  1  0
  5  6  2  0
  6  7  1  0
  7  8  2  0
  8  9  1  0
  3 10  1  0
 10 11  1  0
 11 12  2  0
 11 13  1  0
 13 14  1  0
 14 15  1  0
 15 16  2  0
 15 17  2  0
 15 18  1  0
 18 19  2  0
 19 20  1  0
 20 21  2  0
 21 22  1  0
 22 23  2  0
 13  2  1  0
 23 18  1  0
  9  5  1  0
  4 24  1  0
  6 25  1  0
  7 26  1  0
  8 27  1  0
 14 28  1  0
 19 29  1  0
 20 30  1  0
 21 31  1  0
 22 32  1  0
 23 33  1  0
M  END
$$$$
