
     RDKit          3D

 75 77  0  0  0  0  0  0  0  0999 V2000
   -3.7532    6.3762    0.2961 C   0  0  0  0  0  0  0  0  0  0  0  0
   -2.8711    5.7345   -0.7600 C   0  0  0  0  0  0  0  0  0  0  0  0
   -2.6046    4.3927   -0.3539 O   0  0  0  0  0  0  0  0  0  0  0  0
   -1.7886    3.6465   -1.1597 C   0  0  0  0  0  0  0  0  0  0  0  0
   -1.2236    4.0614   -2.3609 C   0  0  0  0  0  0  0  0  0  0  0  0
   -0.3992    3.1916   -3.0717 C   0  0  0  0  0  0  0  0  0  0  0  0
   -0.1426    1.9052   -2.5879 C   0  0  0  0  0  0  0  0  0  0  0  0
   -0.7028    1.4573   -1.3842 C   0  0  0  0  0  0  0  0  0  0  0  0
   -0.4662    0.1129   -0.8991 N   0  0  0  0  0  0  0  0  0  0  0  0
    0.7837   -0.5064   -1.1064 C   0  0  0  0  0  0  0  0  0  0  0  0
    1.7205    0.0355   -1.7022 O   0  0  0  0  0  0  0  0  0  0  0  0
    0.9822   -1.9354   -0.5996 C   0  0  0  0  0  0  0  0  0  0  0  0
    2.4531   -2.3513   -0.6495 C   0  0  0  0  0  0  0  0  0  0  0  0
    3.3021   -1.5849    0.3524 C   0  0  0  0  0  0  0  0  0  0  0  0
    2.8110   -0.9282    1.2649 O   0  0  0  0  0  0  0  0  0  0  0  0
    4.6481   -1.7656    0.1262 N   0  0  0  0  0  0  0  0  0  0  0  0
    5.6626   -1.2043    0.8686 C   0  0  0  0  0  0  0  0  0  0  0  0
    5.5895   -0.3446    1.9859 C   0  0  0  0  0  0  0  0  0  0  0  0
    6.8978   -0.0992    2.3201 C   0  0  0  0  0  0  0  0  0  0  0  0
    7.5623    0.6979    3.3644 C   0  0  0  0  0  0  0  0  0  0  0  0
    7.7086   -0.7707    1.4616 O   0  0  0  0  0  0  0  0  0  0  0  0
    6.9355   -1.4637    0.5481 N   0  0  0  0  0  0  0  0  0  0  0  0
   -1.5744   -0.5358   -0.1253 C   0  0  0  0  0  0  0  0  0  0  0  0
   -2.0366   -1.8142   -0.8911 C   0  0  0  0  0  0  0  0  0  0  0  0
   -2.3577   -2.8685   -0.3507 O   0  0  0  0  0  0  0  0  0  0  0  0
   -2.1594   -1.6139   -2.2612 N   0  0  0  0  0  0  0  0  0  0  0  0
   -2.6032   -2.6181   -3.2386 C   0  0  0  0  0  0  0  0  0  0  0  0
   -4.0313   -3.0955   -2.9303 C   0  0  0  0  0  0  0  0  0  0  0  0
   -1.6415   -3.8153   -3.2698 C   0  0  0  0  0  0  0  0  0  0  0  0
   -2.6056   -1.9571   -4.6289 C   0  0  0  0  0  0  0  0  0  0  0  0
   -1.3642   -0.6419    1.3854 C   0  0  0  0  0  0  0  0  0  0  0  0
   -2.2906   -1.3292    2.1873 C   0  0  0  0  0  0  0  0  0  0  0  0
   -2.1412   -1.3919    3.5768 C   0  0  0  0  0  0  0  0  0  0  0  0
   -1.0759   -0.7551    4.2094 C   0  0  0  0  0  0  0  0  0  0  0  0
   -1.0446   -0.8974    5.5685 O   0  0  0  0  0  0  0  0  0  0  0  0
    0.0362   -0.2754    6.2514 C   0  0  0  0  0  0  0  0  0  0  0  0
   -0.1643   -0.0432    3.4359 C   0  0  0  0  0  0  0  0  0  0  0  0
   -0.3154    0.0233    2.0438 C   0  0  0  0  0  0  0  0  0  0  0  0
   -1.5273    2.3538   -0.6838 C   0  0  0  0  0  0  0  0  0  0  0  0
   -4.6833    5.8116    0.4183 H   0  0  0  0  0  0  0  0  0  0  0  0
   -3.9983    7.4068    0.0254 H   0  0  0  0  0  0  0  0  0  0  0  0
   -3.2503    6.3753    1.2683 H   0  0  0  0  0  0  0  0  0  0  0  0
   -3.3998    5.7414   -1.7198 H   0  0  0  0  0  0  0  0  0  0  0  0
   -1.9370    6.3029   -0.8392 H   0  0  0  0  0  0  0  0  0  0  0  0
   -1.3973    5.0517   -2.7681 H   0  0  0  0  0  0  0  0  0  0  0  0
    0.0495    3.5124   -4.0088 H   0  0  0  0  0  0  0  0  0  0  0  0
    0.4879    1.2602   -3.1944 H   0  0  0  0  0  0  0  0  0  0  0  0
    0.6122   -2.0573    0.4180 H   0  0  0  0  0  0  0  0  0  0  0  0
    0.4274   -2.6074   -1.2603 H   0  0  0  0  0  0  0  0  0  0  0  0
    2.8611   -2.2105   -1.6574 H   0  0  0  0  0  0  0  0  0  0  0  0
    2.5337   -3.4162   -0.4002 H   0  0  0  0  0  0  0  0  0  0  0  0
    4.9702   -2.3295   -0.6472 H   0  0  0  0  0  0  0  0  0  0  0  0
    4.7116    0.0447    2.4778 H   0  0  0  0  0  0  0  0  0  0  0  0
    6.8341    1.2869    3.9309 H   0  0  0  0  0  0  0  0  0  0  0  0
    8.0920    0.0451    4.0654 H   0  0  0  0  0  0  0  0  0  0  0  0
    8.2871    1.3882    2.9210 H   0  0  0  0  0  0  0  0  0  0  0  0
   -2.4697    0.0946   -0.2235 H   0  0  0  0  0  0  0  0  0  0  0  0
   -1.8032   -0.7334   -2.6223 H   0  0  0  0  0  0  0  0  0  0  0  0
   -4.4014   -3.7651   -3.7151 H   0  0  0  0  0  0  0  0  0  0  0  0
   -4.7224   -2.2480   -2.8582 H   0  0  0  0  0  0  0  0  0  0  0  0
   -4.0872   -3.6434   -1.9845 H   0  0  0  0  0  0  0  0  0  0  0  0
   -1.9271   -4.5325   -4.0479 H   0  0  0  0  0  0  0  0  0  0  0  0
   -1.6309   -4.3549   -2.3168 H   0  0  0  0  0  0  0  0  0  0  0  0
   -0.6139   -3.4901   -3.4730 H   0  0  0  0  0  0  0  0  0  0  0  0
   -2.9313   -2.6578   -5.4055 H   0  0  0  0  0  0  0  0  0  0  0  0
   -3.2786   -1.0918   -4.6524 H   0  0  0  0  0  0  0  0  0  0  0  0
   -1.6049   -1.5992   -4.8981 H   0  0  0  0  0  0  0  0  0  0  0  0
   -3.1490   -1.8328    1.7448 H   0  0  0  0  0  0  0  0  0  0  0  0
   -2.8673   -1.9440    4.1694 H   0  0  0  0  0  0  0  0  0  0  0  0
    0.9988   -0.6806    5.9233 H   0  0  0  0  0  0  0  0  0  0  0  0
   -0.0716   -0.4954    7.3180 H   0  0  0  0  0  0  0  0  0  0  0  0
    0.0030    0.8128    6.1330 H   0  0  0  0  0  0  0  0  0  0  0  0
    0.6815    0.4752    3.8755 H   0  0  0  0  0  0  0  0  0  0  0  0
    0.4204    0.6045    1.4896 H   0  0  0  0  0  0  0  0  0  0  0  0
   -1.9541    2.0934    0.2817 H   0  0  0  0  0  0  0  0  0  0  0  0
  1  2  1  0
  2  3  1  0
  3  4  1  0
  4  5  2  0
  5  6  1  0
  6  7  2  0
  7  8  1  0
  8  9  1  0
  9 10  1  0
 10 11  2  0
 10 12  1  0
 12 13  1  0
 13 14  1  0
 14 15  2  0
 14 16  1  0
 16 17  1  0
 17 18  1  0
 18 19  2  0
 19 20  1  0
 19 21  1  0
 21 22  1  0
  9 23  1  0
 23 24  1  0
 24 25  2  0
 24 26  1  0
 26 27  1  0
 27 28  1  0
 27 29  1  0
 27 30  1  0
 23 31  1  0
 31 32  2  0
 32 33  1  0
 33 34  2  0
 34 35  1  0
 35 36  1  0
 34 37  1  0
 37 38  2  0
  8 39  2  0
 39  4  1  0
 22 17  2  0
 38 31  1  0
  1 40  1  0
  1 41  1  0
  1 42  1  0
  2 43  1  0
  2 44  1  0
  5 45  1  0
  6 46  1  0
  7 47  1  0
 12 48  1  0
 12 49  1  0
 13 50  1  0
 13 51  1  0
 16 52  1  0
 18 53  1  0
 20 54  1  0
 20 55  1  0
 20 56  1  0
 23 57  1  0
 26 58  1  0
 28 59  1  0
 28 60  1  0
 28 61  1  0
 29 62  1  0
 29 63  1  0
 29 64  1  0
 30 65  1  0
 30 66  1  0
 30 67  1  0
 32 68  1  0
 33 69  1  0
 36 70  1  0
 36 71  1  0
 36 72  1  0
 37 73  1  0
 38 74  1  0
 39 75  1  0
M  END
$$$$
