
     RDKit          3D

 44 46  0  0  0  0  0  0  0  0999 V2000
    4.9313    0.9271   -0.9907 C   0  0  0  0  0  0  0  0  0  0  0  0
    3.4911    1.0044   -0.7549 N   0  0  0  0  0  0  0  0  0  0  0  0
    2.8134    1.6703   -1.8870 C   0  0  0  0  0  0  0  0  0  0  0  0
    1.2889    1.7504   -1.6915 C   0  0  0  0  0  0  0  0  0  0  0  0
    0.6952    0.4504   -1.3795 N   0  0  0  0  0  0  0  0  0  0  0  0
   -0.6401    0.2548   -1.7160 C   0  0  0  0  0  0  0  0  0  0  0  0
   -1.2822    1.0105   -2.4427 O   0  0  0  0  0  0  0  0  0  0  0  0
   -1.3268   -0.9617   -1.2329 C   0  0  0  0  0  0  0  0  0  0  0  0
   -1.2717   -2.0819   -2.0774 C   0  0  0  0  0  0  0  0  0  0  0  0
   -1.9328   -3.2545   -1.7228 C   0  0  0  0  0  0  0  0  0  0  0  0
   -2.6605   -3.3041   -0.5373 C   0  0  0  0  0  0  0  0  0  0  0  0
   -2.7254   -2.1830    0.2972 C   0  0  0  0  0  0  0  0  0  0  0  0
   -2.0533   -0.9860   -0.0233 C   0  0  0  0  0  0  0  0  0  0  0  0
   -2.1550    0.1736    0.8896 C   0  0  0  0  0  0  0  0  0  0  0  0
   -2.7534    1.3624    0.4240 C   0  0  0  0  0  0  0  0  0  0  0  0
   -2.9232    2.4751    1.2531 C   0  0  0  0  0  0  0  0  0  0  0  0
   -2.5157    2.4240    2.5806 C   0  0  0  0  0  0  0  0  0  0  0  0
   -1.9339    1.2605    3.0769 C   0  0  0  0  0  0  0  0  0  0  0  0
   -1.7419    0.1463    2.2408 C   0  0  0  0  0  0  0  0  0  0  0  0
   -1.1273   -1.0337    2.8874 C   0  0  0  0  0  0  0  0  0  0  0  0
   -1.4026   -1.4542    3.9960 O   0  0  0  0  0  0  0  0  0  0  0  0
   -0.1425   -1.5810    2.1566 O   0  0  0  0  0  0  0  0  0  0  0  0
    1.3962   -0.3090   -0.3404 C   0  0  0  0  0  0  0  0  0  0  0  0
    2.9194   -0.3440   -0.5673 C   0  0  0  0  0  0  0  0  0  0  0  0
    5.4350    0.4615   -0.1365 H   0  0  0  0  0  0  0  0  0  0  0  0
    5.1758    0.3513   -1.8906 H   0  0  0  0  0  0  0  0  0  0  0  0
    5.3566    1.9311   -1.0980 H   0  0  0  0  0  0  0  0  0  0  0  0
    3.0228    1.1323   -2.8214 H   0  0  0  0  0  0  0  0  0  0  0  0
    3.2000    2.6900   -2.0015 H   0  0  0  0  0  0  0  0  0  0  0  0
    0.8296    2.1704   -2.5929 H   0  0  0  0  0  0  0  0  0  0  0  0
    1.0484    2.4227   -0.8583 H   0  0  0  0  0  0  0  0  0  0  0  0
   -0.7236   -2.0293   -3.0153 H   0  0  0  0  0  0  0  0  0  0  0  0
   -1.8941   -4.1220   -2.3767 H   0  0  0  0  0  0  0  0  0  0  0  0
   -3.1909   -4.2131   -0.2628 H   0  0  0  0  0  0  0  0  0  0  0  0
   -3.3208   -2.2488    1.2073 H   0  0  0  0  0  0  0  0  0  0  0  0
   -3.1067    1.4300   -0.6057 H   0  0  0  0  0  0  0  0  0  0  0  0
   -3.3832    3.3772    0.8564 H   0  0  0  0  0  0  0  0  0  0  0  0
   -2.6555    3.2853    3.2288 H   0  0  0  0  0  0  0  0  0  0  0  0
   -1.6258    1.2205    4.1203 H   0  0  0  0  0  0  0  0  0  0  0  0
    0.1736   -2.3225    2.7138 H   0  0  0  0  0  0  0  0  0  0  0  0
    1.0217   -1.3349   -0.2959 H   0  0  0  0  0  0  0  0  0  0  0  0
    1.1731    0.1776    0.6161 H   0  0  0  0  0  0  0  0  0  0  0  0
    3.1320   -0.9701   -1.4444 H   0  0  0  0  0  0  0  0  0  0  0  0
    3.3850   -0.8260    0.3007 H   0  0  0  0  0  0  0  0  0  0  0  0
  1  2  1  0
  2  3  1  0
  3  4  1  0
  4  5  1  0
  5  6  1  0
  6  7  2  0
  6  8  1  0
  8  9  2  0
  9 10  1  0
 10 11  2  0
 11 12  1  0
 12 13  2  0
 13 14  1  0
 14 15  2  0
 15 16  1  0
 16 17  2  0
 17 18  1  0
 18 19  2  0
 19 20  1  0
 20 21  2  0
 20 22  1  0
  5 23  1  0
 23 24  1  0
 24  2  1  0
 13  8  1  0
 19 14  1  0
  1 25  1  0
  1 26  1  0
  1 27  1  0
  3 28  1  0
  3 29  1  0
  4 30  1  0
  4 31  1  0
  9 32  1  0
 10 33  1  0
 11 34  1  0
 12 35  1  0
 15 36  1  0
 16 37  1  0
 17 38  1  0
 18 39  1  0
 22 40  1  0
 23 41  1  0
 23 42  1  0
 24 43  1  0
 24 44  1  0
M  END
$$$$
