
     RDKit          3D

 43 45  0  0  0  0  0  0  0  0999 V2000
    4.6586    0.0355    2.9277 C   0  0  0  0  0  0  0  0  0  0  0  0
    3.6763    0.1858    1.7645 C   0  0  0  0  0  0  0  0  0  0  0  0
    4.4313    0.4514    0.4636 C   0  0  0  0  0  0  0  0  0  0  0  0
    2.6980   -1.3644    1.6435 S   0  0  0  0  0  0  0  0  0  0  0  0
    1.2411   -0.8222    0.7578 C   0  0  0  0  0  0  0  0  0  0  0  0
    0.2461   -1.7451    0.5190 C   0  0  0  0  0  0  0  0  0  0  0  0
   -0.8799   -1.3138   -0.1524 C   0  0  0  0  0  0  0  0  0  0  0  0
   -1.9243   -2.1872   -0.4387 N   0  0  0  0  0  0  0  0  0  0  0  0
   -2.3422   -3.1766    0.5721 C   0  0  0  0  0  0  0  0  0  0  0  0
   -3.8645   -3.1297    0.7904 C   0  0  0  0  0  0  0  0  0  0  0  0
   -4.6273   -3.3425   -0.4048 O   0  0  0  0  0  0  0  0  0  0  0  0
   -4.0126   -2.7886   -1.5799 C   0  0  0  0  0  0  0  0  0  0  0  0
   -3.0067   -1.6639   -1.2887 C   0  0  0  0  0  0  0  0  0  0  0  0
   -0.9637   -0.0446   -0.5828 N   0  0  0  0  0  0  0  0  0  0  0  0
    0.0539    0.7958   -0.3152 C   0  0  0  0  0  0  0  0  0  0  0  0
   -0.0526    2.1862   -0.8071 C   0  0  0  0  0  0  0  0  0  0  0  0
    1.0013    3.1087   -0.6464 C   0  0  0  0  0  0  0  0  0  0  0  0
    0.9048    4.4224   -1.1190 C   0  0  0  0  0  0  0  0  0  0  0  0
   -0.2539    4.8478   -1.7612 C   0  0  0  0  0  0  0  0  0  0  0  0
   -1.3137    3.9609   -1.9334 C   0  0  0  0  0  0  0  0  0  0  0  0
   -1.2117    2.6471   -1.4628 C   0  0  0  0  0  0  0  0  0  0  0  0
    1.1620    0.4526    0.3579 N   0  0  0  0  0  0  0  0  0  0  0  0
    5.2364    0.9570    3.0550 H   0  0  0  0  0  0  0  0  0  0  0  0
    5.3734   -0.7781    2.7556 H   0  0  0  0  0  0  0  0  0  0  0  0
    4.1360   -0.1595    3.8715 H   0  0  0  0  0  0  0  0  0  0  0  0
    3.0119    1.0266    1.9961 H   0  0  0  0  0  0  0  0  0  0  0  0
    5.0468    1.3556    0.5617 H   0  0  0  0  0  0  0  0  0  0  0  0
    5.1026   -0.3761    0.2077 H   0  0  0  0  0  0  0  0  0  0  0  0
    3.7532    0.6100   -0.3818 H   0  0  0  0  0  0  0  0  0  0  0  0
    0.3579   -2.7747    0.8317 H   0  0  0  0  0  0  0  0  0  0  0  0
   -2.0549   -4.1697    0.2060 H   0  0  0  0  0  0  0  0  0  0  0  0
   -1.8573   -3.0166    1.5422 H   0  0  0  0  0  0  0  0  0  0  0  0
   -4.1625   -3.8999    1.5093 H   0  0  0  0  0  0  0  0  0  0  0  0
   -4.1611   -2.1622    1.2114 H   0  0  0  0  0  0  0  0  0  0  0  0
   -3.5168   -3.6121   -2.1081 H   0  0  0  0  0  0  0  0  0  0  0  0
   -4.8152   -2.4204   -2.2275 H   0  0  0  0  0  0  0  0  0  0  0  0
   -3.5192   -0.8368   -0.7800 H   0  0  0  0  0  0  0  0  0  0  0  0
   -2.6037   -1.2978   -2.2409 H   0  0  0  0  0  0  0  0  0  0  0  0
    1.9207    2.8030   -0.1495 H   0  0  0  0  0  0  0  0  0  0  0  0
    1.7377    5.1079   -0.9864 H   0  0  0  0  0  0  0  0  0  0  0  0
   -0.3305    5.8681   -2.1284 H   0  0  0  0  0  0  0  0  0  0  0  0
   -2.2212    4.2860   -2.4358 H   0  0  0  0  0  0  0  0  0  0  0  0
   -2.0544    1.9742   -1.6141 H   0  0  0  0  0  0  0  0  0  0  0  0
  1  2  1  0
  2  3  1  0
  2  4  1  0
  4  5  1  0
  5  6  2  0
  6  7  1  0
  7  8  1  0
  8  9  1  0
  9 10  1  0
 10 11  1  0
 11 12  1  0
 12 13  1  0
  7 14  2  0
 14 15  1  0
 15 16  1  0
 16 17  2  0
 17 18  1  0
 18 19  2  0
 19 20  1  0
 20 21  2  0
 15 22  2  0
 22  5  1  0
 13  8  1  0
 21 16  1  0
  1 23  1  0
  1 24  1  0
  1 25  1  0
  2 26  1  0
  3 27  1  0
  3 28  1  0
  3 29  1  0
  6 30  1  0
  9 31  1  0
  9 32  1  0
 10 33  1  0
 10 34  1  0
 12 35  1  0
 12 36  1  0
 13 37  1  0
 13 38  1  0
 17 39  1  0
 18 40  1  0
 19 41  1  0
 20 42  1  0
 21 43  1  0
M  END
$$$$
