
     RDKit          3D

 46 48  0  0  0  0  0  0  0  0999 V2000
    5.8538    1.4057   -1.5731 C   0  0  0  0  0  0  0  0  0  0  0  0
    5.8429    2.6326   -2.2883 O   0  0  0  0  0  0  0  0  0  0  0  0
    4.8667    2.6842   -3.3335 C   0  0  0  0  0  0  0  0  0  0  0  0
    3.4389    2.8320   -2.8076 C   0  0  0  0  0  0  0  0  0  0  0  0
    2.9180    1.5347   -2.4698 O   0  0  0  0  0  0  0  0  0  0  0  0
    1.6518    1.5550   -1.9607 C   0  0  0  0  0  0  0  0  0  0  0  0
    0.9977    2.5795   -1.8059 O   0  0  0  0  0  0  0  0  0  0  0  0
    1.1472    0.2344   -1.6244 C   0  0  0  0  0  0  0  0  0  0  0  0
    1.7512   -0.9907   -1.8735 C   0  0  0  0  0  0  0  0  0  0  0  0
    3.0194   -1.4054   -2.5134 C   0  0  0  0  0  0  0  0  0  0  0  0
    0.9708   -2.0108   -1.4176 O   0  0  0  0  0  0  0  0  0  0  0  0
   -0.1417   -1.4583   -0.8713 C   0  0  0  0  0  0  0  0  0  0  0  0
   -1.1894   -2.1688   -0.2905 C   0  0  0  0  0  0  0  0  0  0  0  0
   -2.2489   -1.4129    0.2216 C   0  0  0  0  0  0  0  0  0  0  0  0
   -2.2413   -0.0190    0.1401 C   0  0  0  0  0  0  0  0  0  0  0  0
   -3.3107    0.7221    0.7161 N   0  0  0  0  0  0  0  0  0  0  0  0
   -3.1987    1.1175    2.3593 S   0  0  0  0  0  6  0  0  0  0  0  0
   -4.1877    2.1491    2.5914 O   0  0  0  0  0  0  0  0  0  0  0  0
   -1.8114    1.3162    2.7170 O   0  0  0  0  0  0  0  0  0  0  0  0
   -3.7892   -0.3585    3.1531 C   0  0  0  0  0  0  0  0  0  0  0  0
   -5.1616   -0.6370    3.1463 C   0  0  0  0  0  0  0  0  0  0  0  0
   -5.6287   -1.7897    3.7783 C   0  0  0  0  0  0  0  0  0  0  0  0
   -4.7266   -2.6399    4.4124 C   0  0  0  0  0  0  0  0  0  0  0  0
   -5.1791   -3.7463    5.0162 F   0  0  0  0  0  0  0  0  0  0  0  0
   -3.3630   -2.3595    4.4320 C   0  0  0  0  0  0  0  0  0  0  0  0
   -2.8866   -1.2088    3.8031 C   0  0  0  0  0  0  0  0  0  0  0  0
   -1.1690    0.6684   -0.4452 C   0  0  0  0  0  0  0  0  0  0  0  0
   -0.0915   -0.0744   -0.9706 C   0  0  0  0  0  0  0  0  0  0  0  0
    6.7317    1.4003   -0.9211 H   0  0  0  0  0  0  0  0  0  0  0  0
    5.9255    0.5544   -2.2565 H   0  0  0  0  0  0  0  0  0  0  0  0
    4.9659    1.3175   -0.9421 H   0  0  0  0  0  0  0  0  0  0  0  0
    5.1128    3.5726   -3.9244 H   0  0  0  0  0  0  0  0  0  0  0  0
    4.9732    1.8072   -3.9822 H   0  0  0  0  0  0  0  0  0  0  0  0
    2.8092    3.2575   -3.5971 H   0  0  0  0  0  0  0  0  0  0  0  0
    3.4249    3.4758   -1.9209 H   0  0  0  0  0  0  0  0  0  0  0  0
    3.8737   -1.0807   -1.9124 H   0  0  0  0  0  0  0  0  0  0  0  0
    3.1083   -0.9723   -3.5143 H   0  0  0  0  0  0  0  0  0  0  0  0
    3.0753   -2.4939   -2.6157 H   0  0  0  0  0  0  0  0  0  0  0  0
   -1.1776   -3.2510   -0.2410 H   0  0  0  0  0  0  0  0  0  0  0  0
   -3.0906   -1.9312    0.6747 H   0  0  0  0  0  0  0  0  0  0  0  0
   -3.6563    1.5244    0.1886 H   0  0  0  0  0  0  0  0  0  0  0  0
   -5.8624    0.0358    2.6568 H   0  0  0  0  0  0  0  0  0  0  0  0
   -6.6877   -2.0290    3.7859 H   0  0  0  0  0  0  0  0  0  0  0  0
   -2.6829   -3.0364    4.9402 H   0  0  0  0  0  0  0  0  0  0  0  0
   -1.8220   -0.9845    3.8210 H   0  0  0  0  0  0  0  0  0  0  0  0
   -1.1543    1.7541   -0.4812 H   0  0  0  0  0  0  0  0  0  0  0  0
  1  2  1  0
  2  3  1  0
  3  4  1  0
  4  5  1  0
  5  6  1  0
  6  7  2  0
  6  8  1  0
  8  9  2  0
  9 10  1  0
  9 11  1  0
 11 12  1  0
 12 13  2  0
 13 14  1  0
 14 15  2  0
 15 16  1  0
 16 17  1  0
 17 18  2  0
 17 19  2  0
 17 20  1  0
 20 21  2  0
 21 22  1  0
 22 23  2  0
 23 24  1  0
 23 25  1  0
 25 26  2  0
 15 27  1  0
 27 28  2  0
 28  8  1  0
 28 12  1  0
 26 20  1  0
  1 29  1  0
  1 30  1  0
  1 31  1  0
  3 32  1  0
  3 33  1  0
  4 34  1  0
  4 35  1  0
 10 36  1  0
 10 37  1  0
 10 38  1  0
 13 39  1  0
 14 40  1  0
 16 41  1  0
 21 42  1  0
 22 43  1  0
 25 44  1  0
 26 45  1  0
 27 46  1  0
M  END
$$$$
