
     RDKit          3D

 47 49  0  0  0  0  0  0  0  0999 V2000
   -6.5993   -0.2430   -1.1546 C   0  0  0  0  0  0  0  0  0  0  0  0
   -5.7049   -1.0245   -0.3028 N   0  0  0  0  0  0  0  0  0  0  0  0
   -4.3279   -1.0585   -0.8366 C   0  0  0  0  0  0  0  0  0  0  0  0
   -3.5334    0.2565   -0.6910 C   0  0  0  0  0  0  0  0  0  0  0  0
   -3.5171    0.7045    0.7380 N   0  0  0  0  0  0  0  0  0  0  0  0
   -2.5833    2.1030    1.0397 S   0  0  0  0  0  6  0  0  0  0  0  0
   -2.6388    2.3867    2.4577 O   0  0  0  0  0  0  0  0  0  0  0  0
   -2.9683    3.0974    0.0599 O   0  0  0  0  0  0  0  0  0  0  0  0
   -0.9352    1.5567    0.6777 C   0  0  0  0  0  0  0  0  0  0  0  0
   -0.2256    2.1093   -0.3873 C   0  0  0  0  0  0  0  0  0  0  0  0
    1.0740    1.6633   -0.6640 C   0  0  0  0  0  0  0  0  0  0  0  0
    1.6717    0.6719    0.1161 C   0  0  0  0  0  0  0  0  0  0  0  0
    2.9694    0.1455   -0.0649 N   0  0  0  0  0  0  0  0  0  0  0  0
    3.9592    0.3408   -0.9992 C   0  0  0  0  0  0  0  0  0  0  0  0
    3.9760    1.2930   -2.3704 S   0  0  0  0  0  0  0  0  0  0  0  0
    5.1246   -0.3766   -0.7643 N   0  0  0  0  0  0  0  0  0  0  0  0
    5.4210   -1.2576    0.2622 C   0  0  0  0  0  0  0  0  0  0  0  0
    4.6303   -1.5574    1.1510 O   0  0  0  0  0  0  0  0  0  0  0  0
    6.7813   -1.8665    0.2563 C   0  0  0  0  0  0  0  0  0  0  0  0
    7.4876   -2.2606   -1.0199 C   0  0  0  0  0  0  0  0  0  0  0  0
    8.0078   -1.1126   -0.2022 C   0  0  0  0  0  0  0  0  0  0  0  0
    0.9424    0.1406    1.1948 C   0  0  0  0  0  0  0  0  0  0  0  0
   -0.3543    0.5765    1.4795 C   0  0  0  0  0  0  0  0  0  0  0  0
   -4.9111    0.8177    1.2738 C   0  0  0  0  0  0  0  0  0  0  0  0
   -5.6763   -0.5078    1.0816 C   0  0  0  0  0  0  0  0  0  0  0  0
   -6.6383   -0.6743   -2.1610 H   0  0  0  0  0  0  0  0  0  0  0  0
   -7.6220   -0.2764   -0.7628 H   0  0  0  0  0  0  0  0  0  0  0  0
   -6.3055    0.8072   -1.2467 H   0  0  0  0  0  0  0  0  0  0  0  0
   -3.7851   -1.8516   -0.3051 H   0  0  0  0  0  0  0  0  0  0  0  0
   -4.3410   -1.3650   -1.8898 H   0  0  0  0  0  0  0  0  0  0  0  0
   -3.9713    1.0349   -1.3253 H   0  0  0  0  0  0  0  0  0  0  0  0
   -2.5106    0.0707   -1.0327 H   0  0  0  0  0  0  0  0  0  0  0  0
   -0.6656    2.8880   -1.0069 H   0  0  0  0  0  0  0  0  0  0  0  0
    1.5820    2.1352   -1.4943 H   0  0  0  0  0  0  0  0  0  0  0  0
    3.2348   -0.5390    0.6465 H   0  0  0  0  0  0  0  0  0  0  0  0
    5.8391   -0.2095   -1.4577 H   0  0  0  0  0  0  0  0  0  0  0  0
    6.9321   -2.5356    1.1017 H   0  0  0  0  0  0  0  0  0  0  0  0
    7.0264   -2.0508   -1.9774 H   0  0  0  0  0  0  0  0  0  0  0  0
    8.0552   -3.1861   -1.0130 H   0  0  0  0  0  0  0  0  0  0  0  0
    8.9264   -1.2636    0.3567 H   0  0  0  0  0  0  0  0  0  0  0  0
    7.9078   -0.1072   -0.5927 H   0  0  0  0  0  0  0  0  0  0  0  0
    1.3790   -0.6267    1.8324 H   0  0  0  0  0  0  0  0  0  0  0  0
   -0.9001    0.1528    2.3197 H   0  0  0  0  0  0  0  0  0  0  0  0
   -5.4368    1.6403    0.7759 H   0  0  0  0  0  0  0  0  0  0  0  0
   -4.8731    1.0331    2.3471 H   0  0  0  0  0  0  0  0  0  0  0  0
   -6.6989   -0.4008    1.4638 H   0  0  0  0  0  0  0  0  0  0  0  0
   -5.2046   -1.2741    1.7112 H   0  0  0  0  0  0  0  0  0  0  0  0
  1  2  1  0
  2  3  1  0
  3  4  1  0
  4  5  1  0
  5  6  1  0
  6  7  2  0
  6  8  2  0
  6  9  1  0
  9 10  2  0
 10 11  1  0
 11 12  2  0
 12 13  1  0
 13 14  1  0
 14 15  2  0
 14 16  1  0
 16 17  1  0
 17 18  2  0
 17 19  1  0
 19 20  1  0
 20 21  1  0
 12 22  1  0
 22 23  2  0
  5 24  1  0
 24 25  1  0
 25  2  1  0
 23  9  1  0
 21 19  1  0
  1 26  1  0
  1 27  1  0
  1 28  1  0
  3 29  1  0
  3 30  1  0
  4 31  1  0
  4 32  1  0
 10 33  1  0
 11 34  1  0
 13 35  1  0
 16 36  1  0
 19 37  1  0
 20 38  1  0
 20 39  1  0
 21 40  1  0
 21 41  1  0
 22 42  1  0
 23 43  1  0
 24 44  1  0
 24 45  1  0
 25 46  1  0
 25 47  1  0
M  END
$$$$
