
     RDKit          3D

 39 40  0  0  0  0  0  0  0  0999 V2000
   -4.1409   -1.3538    1.1569 C   0  0  0  0  0  0  0  0  0  0  0  0
   -4.0357   -0.8084   -0.2595 C   0  0  0  0  0  0  0  0  0  0  0  0
   -3.9036    0.6512   -0.2701 N   0  0  0  0  0  0  0  0  0  0  0  0
   -5.1421    1.4306   -0.2640 C   0  0  0  0  0  0  0  0  0  0  0  0
   -5.6060    1.7614   -1.6738 C   0  0  0  0  0  0  0  0  0  0  0  0
   -2.6881    1.3433   -0.3325 C   0  0  0  0  0  0  0  0  0  0  0  0
   -2.6618    2.5752   -0.4108 O   0  0  0  0  0  0  0  0  0  0  0  0
   -1.4186    0.4960   -0.3336 C   0  0  0  0  0  0  0  0  0  0  0  0
    0.0716    1.4887   -0.0111 S   0  0  0  0  0  0  0  0  0  0  0  0
    1.2771    0.2513   -0.0932 C   0  0  0  0  0  0  0  0  0  0  0  0
    1.0927   -1.0079   -0.4117 N   0  0  0  0  0  0  0  0  0  0  0  0
    2.3209   -1.6289   -0.3684 N   0  0  0  0  0  0  0  0  0  0  0  0
    3.2357   -0.7311   -0.0339 C   0  0  0  0  0  0  0  0  0  0  0  0
    4.6649   -0.9855    0.1023 C   0  0  0  0  0  0  0  0  0  0  0  0
    5.5983   -0.3006   -0.6791 C   0  0  0  0  0  0  0  0  0  0  0  0
    6.9397   -0.6026   -0.5144 C   0  0  0  0  0  0  0  0  0  0  0  0
    7.3987   -1.5267    0.3572 N   0  0  0  0  0  0  0  0  0  0  0  0
    6.4777   -2.1901    1.0871 C   0  0  0  0  0  0  0  0  0  0  0  0
    5.1158   -1.9631    0.9916 C   0  0  0  0  0  0  0  0  0  0  0  0
    2.6036    0.4794    0.1804 N   0  0  0  0  0  0  0  0  0  0  0  0
    3.1903    1.6983    0.6800 N   0  0  0  0  0  0  0  0  0  0  0  0
   -4.2239   -2.4441    1.1385 H   0  0  0  0  0  0  0  0  0  0  0  0
   -5.0208   -0.9541    1.6711 H   0  0  0  0  0  0  0  0  0  0  0  0
   -3.2596   -1.0865    1.7486 H   0  0  0  0  0  0  0  0  0  0  0  0
   -4.9226   -1.0827   -0.8398 H   0  0  0  0  0  0  0  0  0  0  0  0
   -3.1795   -1.2655   -0.7646 H   0  0  0  0  0  0  0  0  0  0  0  0
   -4.9809    2.3634    0.2925 H   0  0  0  0  0  0  0  0  0  0  0  0
   -5.9159    0.8696    0.2707 H   0  0  0  0  0  0  0  0  0  0  0  0
   -6.5348    2.3386   -1.6431 H   0  0  0  0  0  0  0  0  0  0  0  0
   -5.7857    0.8533   -2.2572 H   0  0  0  0  0  0  0  0  0  0  0  0
   -4.8550    2.3534   -2.2053 H   0  0  0  0  0  0  0  0  0  0  0  0
   -1.4831   -0.2638    0.4500 H   0  0  0  0  0  0  0  0  0  0  0  0
   -1.3293    0.0193   -1.3143 H   0  0  0  0  0  0  0  0  0  0  0  0
    5.2983    0.4373   -1.4159 H   0  0  0  0  0  0  0  0  0  0  0  0
    7.7063   -0.0935   -1.0935 H   0  0  0  0  0  0  0  0  0  0  0  0
    6.8768   -2.9375    1.7682 H   0  0  0  0  0  0  0  0  0  0  0  0
    4.4239   -2.5377    1.5963 H   0  0  0  0  0  0  0  0  0  0  0  0
    4.1507    1.8308    0.3477 H   0  0  0  0  0  0  0  0  0  0  0  0
    2.6447    2.5232    0.3714 H   0  0  0  0  0  0  0  0  0  0  0  0
  1  2  1  0
  2  3  1  0
  3  4  1  0
  4  5  1  0
  3  6  1  0
  6  7  2  0
  6  8  1  0
  8  9  1  0
  9 10  1  0
 10 11  2  0
 11 12  1  0
 12 13  2  0
 13 14  1  0
 14 15  2  0
 15 16  1  0
 16 17  2  0
 17 18  1  0
 18 19  2  0
 13 20  1  0
 20 21  1  0
 20 10  1  0
 19 14  1  0
  1 22  1  0
  1 23  1  0
  1 24  1  0
  2 25  1  0
  2 26  1  0
  4 27  1  0
  4 28  1  0
  5 29  1  0
  5 30  1  0
  5 31  1  0
  8 32  1  0
  8 33  1  0
 15 34  1  0
 16 35  1  0
 18 36  1  0
 19 37  1  0
 21 38  1  0
 21 39  1  0
M  END
$$$$
