
     RDKit          3D

 46 50  0  0  0  0  0  0  0  0999 V2000
   -8.0615    1.6149    0.0038 C   0  0  0  0  0  0  0  0  0  0  0  0
   -6.6074    1.2382    0.1157 C   0  0  0  0  0  0  0  0  0  0  0  0
   -5.7879    1.3620   -1.0249 C   0  0  0  0  0  0  0  0  0  0  0  0
   -4.4314    1.0174   -0.9453 C   0  0  0  0  0  0  0  0  0  0  0  0
   -3.4580    1.0598   -1.9255 N   0  0  0  0  0  0  0  0  0  0  0  0
   -2.3923    0.6346   -1.3073 C   0  0  0  0  0  0  0  0  0  0  0  0
   -0.7658    0.3901   -1.8086 S   0  0  0  0  0  0  0  0  0  0  0  0
   -0.3500   -0.1651   -0.2069 C   0  0  0  0  0  0  0  0  0  0  0  0
    0.8365   -0.5555    0.2761 C   0  0  0  0  0  0  0  0  0  0  0  0
    2.0652   -0.6339   -0.4359 C   0  0  0  0  0  0  0  0  0  0  0  0
    2.3682   -0.8787   -1.7711 C   0  0  0  0  0  0  0  0  0  0  0  0
    3.7777   -0.8717   -1.9138 C   0  0  0  0  0  0  0  0  0  0  0  0
    4.2865   -0.6558   -0.6560 C   0  0  0  0  0  0  0  0  0  0  0  0
    5.6288   -0.5187   -0.1111 C   0  0  0  0  0  0  0  0  0  0  0  0
    6.5370    0.3253   -0.7757 C   0  0  0  0  0  0  0  0  0  0  0  0
    7.8238    0.5389   -0.2741 C   0  0  0  0  0  0  0  0  0  0  0  0
    8.2267   -0.0883    0.9009 C   0  0  0  0  0  0  0  0  0  0  0  0
    7.3463   -0.9382    1.5691 C   0  0  0  0  0  0  0  0  0  0  0  0
    6.0519   -1.1607    1.0665 C   0  0  0  0  0  0  0  0  0  0  0  0
    5.1908   -2.1409    1.7671 C   0  0  0  0  0  0  0  0  0  0  0  0
    4.4975   -3.0044    1.2658 O   0  0  0  0  0  0  0  0  0  0  0  0
    5.2673   -1.9888    3.1034 O   0  0  0  0  0  0  0  0  0  0  0  0
    3.2664   -0.4983    0.2288 O   0  0  0  0  0  0  0  0  0  0  0  0
   -1.5239   -0.1394    0.7176 C   0  0  0  0  0  0  0  0  0  0  0  0
   -1.6008   -0.4476    1.8924 O   0  0  0  0  0  0  0  0  0  0  0  0
   -2.6008    0.3199   -0.0066 N   0  0  0  0  0  0  0  0  0  0  0  0
   -3.9218    0.5565    0.2718 C   0  0  0  0  0  0  0  0  0  0  0  0
   -4.7024    0.4204    1.4233 C   0  0  0  0  0  0  0  0  0  0  0  0
   -6.0640    0.7691    1.3331 C   0  0  0  0  0  0  0  0  0  0  0  0
   -6.9243    0.6300    2.5634 C   0  0  0  0  0  0  0  0  0  0  0  0
   -8.6961    0.7511    0.2251 H   0  0  0  0  0  0  0  0  0  0  0  0
   -8.2973    2.4303    0.6949 H   0  0  0  0  0  0  0  0  0  0  0  0
   -8.3118    1.9570   -1.0061 H   0  0  0  0  0  0  0  0  0  0  0  0
   -6.1850    1.7201   -1.9696 H   0  0  0  0  0  0  0  0  0  0  0  0
    0.9111   -0.8152    1.3317 H   0  0  0  0  0  0  0  0  0  0  0  0
    1.6581   -1.0639   -2.5645 H   0  0  0  0  0  0  0  0  0  0  0  0
    4.3478   -1.0313   -2.8180 H   0  0  0  0  0  0  0  0  0  0  0  0
    6.2382    0.8439   -1.6851 H   0  0  0  0  0  0  0  0  0  0  0  0
    8.5074    1.2024   -0.7987 H   0  0  0  0  0  0  0  0  0  0  0  0
    9.2265    0.0788    1.2941 H   0  0  0  0  0  0  0  0  0  0  0  0
    7.6750   -1.4387    2.4775 H   0  0  0  0  0  0  0  0  0  0  0  0
    4.6440   -2.6626    3.4465 H   0  0  0  0  0  0  0  0  0  0  0  0
   -4.2693    0.0579    2.3524 H   0  0  0  0  0  0  0  0  0  0  0  0
   -7.3392    1.6019    2.8487 H   0  0  0  0  0  0  0  0  0  0  0  0
   -6.3488    0.2547    3.4163 H   0  0  0  0  0  0  0  0  0  0  0  0
   -7.7389   -0.0775    2.3793 H   0  0  0  0  0  0  0  0  0  0  0  0
  1  2  1  0
  2  3  2  0
  3  4  1  0
  4  5  1  0
  5  6  2  0
  6  7  1  0
  7  8  1  0
  8  9  2  3
  9 10  1  0
 10 11  2  0
 11 12  1  0
 12 13  2  0
 13 14  1  0
 14 15  2  0
 15 16  1  0
 16 17  2  0
 17 18  1  0
 18 19  2  0
 19 20  1  0
 20 21  2  0
 20 22  1  0
 13 23  1  0
  8 24  1  0
 24 25  2  0
 24 26  1  0
 26 27  1  0
 27 28  1  0
 28 29  2  0
 29 30  1  0
 29  2  1  0
 27  4  2  0
 26  6  1  0
 23 10  1  0
 19 14  1  0
  1 31  1  0
  1 32  1  0
  1 33  1  0
  3 34  1  0
  9 35  1  0
 11 36  1  0
 12 37  1  0
 15 38  1  0
 16 39  1  0
 17 40  1  0
 18 41  1  0
 22 42  1  0
 28 43  1  0
 30 44  1  0
 30 45  1  0
 30 46  1  0
M  END
$$$$
