
     RDKit          3D

 59 60  0  0  0  0  0  0  0  0999 V2000
    6.3335    0.5699   -1.4640 C   0  0  0  0  0  0  0  0  0  0  0  0
    4.9618    0.0495   -1.0283 C   0  0  0  0  0  0  0  0  0  0  0  0
    5.0252   -0.4203    0.4251 C   0  0  0  0  0  0  0  0  0  0  0  0
    4.4986   -1.0648   -1.9876 C   0  0  0  0  0  0  0  0  0  0  0  0
    3.1077   -1.6263   -1.6969 C   0  0  0  0  0  0  0  0  0  0  0  0
    2.0777   -0.6140   -1.7804 N   0  0  0  0  0  0  0  0  0  0  0  0
    0.8144   -0.8148   -1.2609 C   0  0  0  0  0  0  0  0  0  0  0  0
    0.5357   -1.8184   -0.6083 O   0  0  0  0  0  0  0  0  0  0  0  0
   -0.1353    0.2342   -1.5515 C   0  0  0  0  0  0  0  0  0  0  0  0
    0.3275    1.3032   -2.2605 O   0  0  0  0  0  0  0  0  0  0  0  0
   -0.6815    2.2051   -2.4770 N   0  0  0  0  0  0  0  0  0  0  0  0
   -1.7670    1.6929   -1.8830 C   0  0  0  0  0  0  0  0  0  0  0  0
   -3.0546    2.4548   -1.9103 C   0  0  0  0  0  0  0  0  0  0  0  0
   -3.4010    3.2602   -0.3078 S   0  0  0  0  0  0  0  0  0  0  0  0
   -2.2646    4.6260   -0.3970 C   0  0  0  0  0  0  0  0  0  0  0  0
   -1.5608    4.9990    0.7421 C   0  0  0  0  0  0  0  0  0  0  0  0
   -0.6965    6.0881    0.6695 C   0  0  0  0  0  0  0  0  0  0  0  0
   -0.5679    6.7725   -0.5319 C   0  0  0  0  0  0  0  0  0  0  0  0
   -1.3165    6.3394   -1.6126 C   0  0  0  0  0  0  0  0  0  0  0  0
   -2.1664    5.2908   -1.5684 N   0  0  0  0  0  0  0  0  0  0  0  0
   -1.4829    0.4196   -1.2852 C   0  0  0  0  0  0  0  0  0  0  0  0
   -2.4390   -0.4330   -0.5947 C   0  0  0  0  0  0  0  0  0  0  0  0
   -3.6470   -0.2632   -0.7318 O   0  0  0  0  0  0  0  0  0  0  0  0
   -1.9384   -1.4233    0.2197 N   0  0  0  0  0  0  0  0  0  0  0  0
   -2.8116   -2.4071    0.8288 C   0  0  0  0  0  0  0  0  0  0  0  0
   -2.1294   -3.0874    2.0137 C   0  0  0  0  0  0  0  0  0  0  0  0
   -2.9350   -4.2620    2.5963 C   0  0  0  0  0  0  0  0  0  0  0  0
   -2.1260   -4.9472    3.7000 C   0  0  0  0  0  0  0  0  0  0  0  0
   -4.2935   -3.8266    3.1466 C   0  0  0  0  0  0  0  0  0  0  0  0
    6.2983    0.9483   -2.4904 H   0  0  0  0  0  0  0  0  0  0  0  0
    7.0912   -0.2190   -1.4185 H   0  0  0  0  0  0  0  0  0  0  0  0
    6.6608    1.3917   -0.8185 H   0  0  0  0  0  0  0  0  0  0  0  0
    4.2571    0.8882   -1.0861 H   0  0  0  0  0  0  0  0  0  0  0  0
    5.4236    0.3697    1.0708 H   0  0  0  0  0  0  0  0  0  0  0  0
    5.6688   -1.3003    0.5309 H   0  0  0  0  0  0  0  0  0  0  0  0
    4.0311   -0.6757    0.8049 H   0  0  0  0  0  0  0  0  0  0  0  0
    5.2189   -1.8925   -1.9621 H   0  0  0  0  0  0  0  0  0  0  0  0
    4.5098   -0.6731   -3.0133 H   0  0  0  0  0  0  0  0  0  0  0  0
    3.0676   -2.1085   -0.7149 H   0  0  0  0  0  0  0  0  0  0  0  0
    2.8605   -2.3942   -2.4387 H   0  0  0  0  0  0  0  0  0  0  0  0
    2.1951    0.1538   -2.4321 H   0  0  0  0  0  0  0  0  0  0  0  0
   -3.8838    1.7752   -2.1299 H   0  0  0  0  0  0  0  0  0  0  0  0
   -3.0602    3.1921   -2.7203 H   0  0  0  0  0  0  0  0  0  0  0  0
   -1.6773    4.4550    1.6734 H   0  0  0  0  0  0  0  0  0  0  0  0
   -0.1312    6.3988    1.5431 H   0  0  0  0  0  0  0  0  0  0  0  0
    0.0969    7.6235   -0.6247 H   0  0  0  0  0  0  0  0  0  0  0  0
   -1.2520    6.8404   -2.5738 H   0  0  0  0  0  0  0  0  0  0  0  0
   -0.9608   -1.6877    0.1212 H   0  0  0  0  0  0  0  0  0  0  0  0
   -3.0634   -3.1385    0.0533 H   0  0  0  0  0  0  0  0  0  0  0  0
   -3.7363   -1.9119    1.1410 H   0  0  0  0  0  0  0  0  0  0  0  0
   -1.1464   -3.4575    1.6924 H   0  0  0  0  0  0  0  0  0  0  0  0
   -1.9324   -2.3412    2.7949 H   0  0  0  0  0  0  0  0  0  0  0  0
   -3.1071   -4.9969    1.8000 H   0  0  0  0  0  0  0  0  0  0  0  0
   -2.6675   -5.8108    4.1006 H   0  0  0  0  0  0  0  0  0  0  0  0
   -1.9249   -4.2602    4.5287 H   0  0  0  0  0  0  0  0  0  0  0  0
   -1.1654   -5.3055    3.3157 H   0  0  0  0  0  0  0  0  0  0  0  0
   -4.9419   -3.4428    2.3524 H   0  0  0  0  0  0  0  0  0  0  0  0
   -4.8139   -4.6729    3.6079 H   0  0  0  0  0  0  0  0  0  0  0  0
   -4.1823   -3.0443    3.9049 H   0  0  0  0  0  0  0  0  0  0  0  0
  1  2  1  0
  2  3  1  0
  2  4  1  0
  4  5  1  0
  5  6  1  0
  6  7  1  0
  7  8  2  0
  7  9  1  0
  9 10  1  0
 10 11  1  0
 11 12  2  0
 12 13  1  0
 13 14  1  0
 14 15  1  0
 15 16  2  0
 16 17  1  0
 17 18  2  0
 18 19  1  0
 19 20  2  0
 12 21  1  0
 21 22  1  0
 22 23  2  0
 22 24  1  0
 24 25  1  0
 25 26  1  0
 26 27  1  0
 27 28  1  0
 27 29  1  0
 21  9  2  0
 20 15  1  0
  1 30  1  0
  1 31  1  0
  1 32  1  0
  2 33  1  0
  3 34  1  0
  3 35  1  0
  3 36  1  0
  4 37  1  0
  4 38  1  0
  5 39  1  0
  5 40  1  0
  6 41  1  0
 13 42  1  0
 13 43  1  0
 16 44  1  0
 17 45  1  0
 18 46  1  0
 19 47  1  0
 24 48  1  0
 25 49  1  0
 25 50  1  0
 26 51  1  0
 26 52  1  0
 27 53  1  0
 28 54  1  0
 28 55  1  0
 28 56  1  0
 29 57  1  0
 29 58  1  0
 29 59  1  0
M  END
$$$$
