
     RDKit          3D

 41 42  0  0  0  0  0  0  0  0999 V2000
   -6.0845   -2.2644   -0.2384 C   0  0  0  0  0  0  0  0  0  0  0  0
   -5.6542   -0.9838   -0.6824 O   0  0  0  0  0  0  0  0  0  0  0  0
   -4.8097   -0.2946    0.1434 C   0  0  0  0  0  0  0  0  0  0  0  0
   -4.3053   -0.7449    1.3630 C   0  0  0  0  0  0  0  0  0  0  0  0
   -3.4448    0.0661    2.1112 C   0  0  0  0  0  0  0  0  0  0  0  0
   -3.0798    1.3381    1.6497 C   0  0  0  0  0  0  0  0  0  0  0  0
   -2.1275    2.1967    2.4499 C   0  0  0  0  0  0  0  0  0  0  0  0
   -0.6781    1.7742    2.3578 C   0  0  0  0  0  0  0  0  0  0  0  0
    0.0955    1.8474    3.3074 O   0  0  0  0  0  0  0  0  0  0  0  0
   -0.3822    1.3720    1.0799 O   0  0  0  0  0  0  0  0  0  0  0  0
    0.9793    1.0390    0.9678 N   0  0  0  0  0  0  0  0  0  0  0  0
    1.2363    0.5180   -0.1960 C   0  0  0  0  0  0  0  0  0  0  0  0
    0.2711    0.3057   -1.1571 N   0  0  0  0  0  0  0  0  0  0  0  0
    2.6494    0.1137   -0.4878 C   0  0  0  0  0  0  0  0  0  0  0  0
    3.0894   -0.0422   -1.8076 C   0  0  0  0  0  0  0  0  0  0  0  0
    4.4108   -0.4250   -2.0730 C   0  0  0  0  0  0  0  0  0  0  0  0
    5.3014   -0.6517   -1.0221 C   0  0  0  0  0  0  0  0  0  0  0  0
    6.6105   -1.0272   -1.1437 O   0  0  0  0  0  0  0  0  0  0  0  0
    7.1195   -1.1721   -2.4635 C   0  0  0  0  0  0  0  0  0  0  0  0
    4.8611   -0.4887    0.2940 C   0  0  0  0  0  0  0  0  0  0  0  0
    3.5447   -0.1045    0.5638 C   0  0  0  0  0  0  0  0  0  0  0  0
   -3.5848    1.7838    0.4230 C   0  0  0  0  0  0  0  0  0  0  0  0
   -4.4425    0.9707   -0.3210 C   0  0  0  0  0  0  0  0  0  0  0  0
   -6.7676   -2.6674   -0.9923 H   0  0  0  0  0  0  0  0  0  0  0  0
   -5.2391   -2.9545   -0.1528 H   0  0  0  0  0  0  0  0  0  0  0  0
   -6.6357   -2.1930    0.7048 H   0  0  0  0  0  0  0  0  0  0  0  0
   -4.5607   -1.7205    1.7630 H   0  0  0  0  0  0  0  0  0  0  0  0
   -3.0610   -0.3063    3.0601 H   0  0  0  0  0  0  0  0  0  0  0  0
   -2.1943    3.2445    2.1346 H   0  0  0  0  0  0  0  0  0  0  0  0
   -2.4305    2.1605    3.5035 H   0  0  0  0  0  0  0  0  0  0  0  0
   -0.6672    0.3875   -0.7742 H   0  0  0  0  0  0  0  0  0  0  0  0
    0.3782   -0.5494   -1.6916 H   0  0  0  0  0  0  0  0  0  0  0  0
    2.4227    0.1573   -2.6422 H   0  0  0  0  0  0  0  0  0  0  0  0
    4.7133   -0.5270   -3.1097 H   0  0  0  0  0  0  0  0  0  0  0  0
    7.0680   -0.2268   -3.0137 H   0  0  0  0  0  0  0  0  0  0  0  0
    8.1737   -1.4547   -2.3863 H   0  0  0  0  0  0  0  0  0  0  0  0
    6.5988   -1.9716   -3.0010 H   0  0  0  0  0  0  0  0  0  0  0  0
    5.5501   -0.6557    1.1184 H   0  0  0  0  0  0  0  0  0  0  0  0
    3.2268    0.0215    1.5965 H   0  0  0  0  0  0  0  0  0  0  0  0
   -3.3180    2.7647    0.0353 H   0  0  0  0  0  0  0  0  0  0  0  0
   -4.8330    1.3286   -1.2709 H   0  0  0  0  0  0  0  0  0  0  0  0
  1  2  1  0
  2  3  1  0
  3  4  2  0
  4  5  1  0
  5  6  2  0
  6  7  1  0
  7  8  1  0
  8  9  2  0
  8 10  1  0
 10 11  1  0
 11 12  2  3
 12 13  1  0
 12 14  1  0
 14 15  2  0
 15 16  1  0
 16 17  2  0
 17 18  1  0
 18 19  1  0
 17 20  1  0
 20 21  2  0
  6 22  1  0
 22 23  2  0
 23  3  1  0
 21 14  1  0
  1 24  1  0
  1 25  1  0
  1 26  1  0
  4 27  1  0
  5 28  1  0
  7 29  1  0
  7 30  1  0
 13 31  1  0
 13 32  1  0
 15 33  1  0
 16 34  1  0
 19 35  1  0
 19 36  1  0
 19 37  1  0
 20 38  1  0
 21 39  1  0
 22 40  1  0
 23 41  1  0
M  END
$$$$
