
     RDKit          3D

 51 54  0  0  0  0  0  0  0  0999 V2000
    1.6148   -2.9113   -1.8447 O   0  0  0  0  0  0  0  0  0  0  0  0
    1.6090   -1.8267   -1.2605 C   0  0  0  0  0  0  0  0  0  0  0  0
    2.8309   -1.1960   -0.7829 C   0  0  0  0  0  0  0  0  0  0  0  0
    3.1074   -0.6233    0.4466 C   0  0  0  0  0  0  0  0  0  0  0  0
    4.4376   -0.1108    0.5255 C   0  0  0  0  0  0  0  0  0  0  0  0
    5.1317   -0.3408   -0.6458 C   0  0  0  0  0  0  0  0  0  0  0  0
    4.2011   -1.1548   -1.8124 S   0  0  0  0  0  0  0  0  0  0  0  0
    6.5442    0.0818   -0.9090 C   0  0  0  0  0  0  0  0  0  0  0  0
    7.2514    0.4439    0.4069 C   0  0  0  0  0  0  0  0  0  0  0  0
    6.3593    1.3001    1.3182 C   0  0  0  0  0  0  0  0  0  0  0  0
    5.0699    0.5598    1.7075 C   0  0  0  0  0  0  0  0  0  0  0  0
    0.3982   -1.1687   -1.0174 N   0  0  0  0  0  0  0  0  0  0  0  0
   -0.8446   -1.8414   -1.3965 C   0  0  0  0  0  0  0  0  0  0  0  0
   -2.0519   -1.3057   -0.6201 C   0  0  0  0  0  0  0  0  0  0  0  0
   -2.2206    0.1770   -0.7591 N   0  0  0  0  0  0  0  0  0  0  0  0
   -3.6476    0.7124   -1.5061 S   0  0  0  0  0  6  0  0  0  0  0  0
   -3.8078   -0.0672   -2.7154 O   0  0  0  0  0  0  0  0  0  0  0  0
   -3.6448    2.1556   -1.5514 O   0  0  0  0  0  0  0  0  0  0  0  0
   -4.9029    0.2173   -0.3390 C   0  0  0  0  0  0  0  0  0  0  0  0
   -5.7309   -0.8618   -0.6933 C   0  0  0  0  0  0  0  0  0  0  0  0
   -6.7401   -1.2863    0.1683 C   0  0  0  0  0  0  0  0  0  0  0  0
   -6.9366   -0.6311    1.3785 C   0  0  0  0  0  0  0  0  0  0  0  0
   -6.1266    0.4520    1.7266 C   0  0  0  0  0  0  0  0  0  0  0  0
   -5.0914    0.8990    0.8785 C   0  0  0  0  0  0  0  0  0  0  0  0
   -4.2808    2.1028    1.3063 C   0  0  0  0  0  0  0  0  0  0  0  0
   -4.6685    3.2503    0.6918 F   0  0  0  0  0  0  0  0  0  0  0  0
   -2.9414    1.9779    1.1229 F   0  0  0  0  0  0  0  0  0  0  0  0
   -4.4163    2.3589    2.6444 F   0  0  0  0  0  0  0  0  0  0  0  0
   -0.9967    0.8876   -1.2457 C   0  0  0  0  0  0  0  0  0  0  0  0
    0.2813    0.2554   -0.6788 C   0  0  0  0  0  0  0  0  0  0  0  0
    2.3918   -0.5851    1.2590 H   0  0  0  0  0  0  0  0  0  0  0  0
    6.5343    0.9588   -1.5680 H   0  0  0  0  0  0  0  0  0  0  0  0
    7.1057   -0.7097   -1.4181 H   0  0  0  0  0  0  0  0  0  0  0  0
    7.5280   -0.4752    0.9394 H   0  0  0  0  0  0  0  0  0  0  0  0
    8.1828    0.9774    0.1857 H   0  0  0  0  0  0  0  0  0  0  0  0
    6.9080    1.5792    2.2247 H   0  0  0  0  0  0  0  0  0  0  0  0
    6.1049    2.2321    0.7972 H   0  0  0  0  0  0  0  0  0  0  0  0
    5.3033   -0.2056    2.4580 H   0  0  0  0  0  0  0  0  0  0  0  0
    4.3669    1.2646    2.1657 H   0  0  0  0  0  0  0  0  0  0  0  0
   -0.9827   -1.6880   -2.4738 H   0  0  0  0  0  0  0  0  0  0  0  0
   -0.7466   -2.9193   -1.2263 H   0  0  0  0  0  0  0  0  0  0  0  0
   -1.9254   -1.5116    0.4500 H   0  0  0  0  0  0  0  0  0  0  0  0
   -2.9479   -1.8451   -0.9404 H   0  0  0  0  0  0  0  0  0  0  0  0
   -5.6012   -1.3772   -1.6439 H   0  0  0  0  0  0  0  0  0  0  0  0
   -7.3786   -2.1219   -0.1095 H   0  0  0  0  0  0  0  0  0  0  0  0
   -7.7291   -0.9550    2.0499 H   0  0  0  0  0  0  0  0  0  0  0  0
   -6.3146    0.9575    2.6747 H   0  0  0  0  0  0  0  0  0  0  0  0
   -0.9658    0.8573   -2.3417 H   0  0  0  0  0  0  0  0  0  0  0  0
   -1.0416    1.9343   -0.9263 H   0  0  0  0  0  0  0  0  0  0  0  0
    1.1506    0.8046   -1.0530 H   0  0  0  0  0  0  0  0  0  0  0  0
    0.2699    0.3222    0.4151 H   0  0  0  0  0  0  0  0  0  0  0  0
  1  2  2  0
  2  3  1  0
  3  4  2  0
  4  5  1  0
  5  6  2  0
  6  7  1  0
  6  8  1  0
  8  9  1  0
  9 10  1  0
 10 11  1  0
  2 12  1  0
 12 13  1  0
 13 14  1  0
 14 15  1  0
 15 16  1  0
 16 17  2  0
 16 18  2  0
 16 19  1  0
 19 20  2  0
 20 21  1  0
 21 22  2  0
 22 23  1  0
 23 24  2  0
 24 25  1  0
 25 26  1  0
 25 27  1  0
 25 28  1  0
 15 29  1  0
 29 30  1  0
  7  3  1  0
 30 12  1  0
 11  5  1  0
 24 19  1  0
  4 31  1  0
  8 32  1  0
  8 33  1  0
  9 34  1  0
  9 35  1  0
 10 36  1  0
 10 37  1  0
 11 38  1  0
 11 39  1  0
 13 40  1  0
 13 41  1  0
 14 42  1  0
 14 43  1  0
 20 44  1  0
 21 45  1  0
 22 46  1  0
 23 47  1  0
 29 48  1  0
 29 49  1  0
 30 50  1  0
 30 51  1  0
M  END
$$$$
