
     RDKit          3D

 61 66  0  0  0  0  0  0  0  0999 V2000
   -2.3143    2.0698   -0.5348 O   0  0  0  0  0  0  0  0  0  0  0  0
   -2.7503    1.0285   -0.0293 C   0  0  0  0  0  0  0  0  0  0  0  0
   -1.8445    0.2565    0.9121 C   0  0  0  0  0  0  0  0  0  0  0  0
   -0.6005   -0.0808    0.2620 N   0  0  0  0  0  0  0  0  0  0  0  0
   -0.5564   -0.9340   -0.7763 N   0  0  0  0  0  0  0  0  0  0  0  0
    0.7346   -1.1261   -1.0010 N   0  0  0  0  0  0  0  0  0  0  0  0
    1.4196   -0.4077   -0.0464 C   0  0  0  0  0  0  0  0  0  0  0  0
    2.8739   -0.3783    0.0315 C   0  0  0  0  0  0  0  0  0  0  0  0
    3.6526   -1.1240   -0.8590 C   0  0  0  0  0  0  0  0  0  0  0  0
    5.0542   -1.0920   -0.7893 C   0  0  0  0  0  0  0  0  0  0  0  0
    5.7249   -0.3075    0.1600 C   0  0  0  0  0  0  0  0  0  0  0  0
    7.1225   -0.2468    0.2718 N   0  0  0  0  0  0  0  0  0  0  0  0
    7.6794    1.1188    0.0972 C   0  0  0  0  0  0  0  0  0  0  0  0
    9.1677    1.1326    0.4872 C   0  0  0  0  0  0  0  0  0  0  0  0
    9.9227    0.1609   -0.2548 O   0  0  0  0  0  0  0  0  0  0  0  0
    9.3993   -1.1554   -0.0126 C   0  0  0  0  0  0  0  0  0  0  0  0
    7.9279   -1.2594   -0.4456 C   0  0  0  0  0  0  0  0  0  0  0  0
    4.9279    0.4215    1.0579 C   0  0  0  0  0  0  0  0  0  0  0  0
    3.5280    0.3930    0.9965 C   0  0  0  0  0  0  0  0  0  0  0  0
    0.5940    0.2354    0.7996 N   0  0  0  0  0  0  0  0  0  0  0  0
   -4.0869    0.5931   -0.1480 N   0  0  0  0  0  0  0  0  0  0  0  0
   -4.4821   -0.7306    0.1998 C   0  0  0  0  0  0  0  0  0  0  0  0
   -3.8661   -1.8319   -0.4116 C   0  0  0  0  0  0  0  0  0  0  0  0
   -4.2058   -3.1312   -0.0312 C   0  0  0  0  0  0  0  0  0  0  0  0
   -5.1666   -3.3388    0.9551 C   0  0  0  0  0  0  0  0  0  0  0  0
   -5.7994   -2.2489    1.5526 C   0  0  0  0  0  0  0  0  0  0  0  0
   -5.4639   -0.9410    1.1753 C   0  0  0  0  0  0  0  0  0  0  0  0
   -6.1652    0.2427    1.7721 C   0  0  0  0  0  0  0  0  0  0  0  0
   -7.0703    0.8765    0.7232 C   0  0  0  0  0  0  0  0  0  0  0  0
   -6.4319    1.4317   -0.5364 C   0  0  0  0  0  0  0  0  0  0  0  0
   -7.3210    2.1461   -1.3762 C   0  0  0  0  0  0  0  0  0  0  0  0
   -6.8875    2.7703   -2.5418 C   0  0  0  0  0  0  0  0  0  0  0  0
   -5.5514    2.6924   -2.8966 C   0  0  0  0  0  0  0  0  0  0  0  0
   -4.6582    1.9842   -2.0887 C   0  0  0  0  0  0  0  0  0  0  0  0
   -5.0676    1.3362   -0.9035 C   0  0  0  0  0  0  0  0  0  0  0  0
   -2.2581   -0.6626    1.3253 H   0  0  0  0  0  0  0  0  0  0  0  0
   -1.6204    0.9121    1.7620 H   0  0  0  0  0  0  0  0  0  0  0  0
    3.1812   -1.7392   -1.6235 H   0  0  0  0  0  0  0  0  0  0  0  0
    5.6020   -1.6845   -1.5160 H   0  0  0  0  0  0  0  0  0  0  0  0
    7.1587    1.8606    0.7121 H   0  0  0  0  0  0  0  0  0  0  0  0
    7.5757    1.4127   -0.9554 H   0  0  0  0  0  0  0  0  0  0  0  0
    9.2942    0.9373    1.5589 H   0  0  0  0  0  0  0  0  0  0  0  0
    9.5969    2.1172    0.2753 H   0  0  0  0  0  0  0  0  0  0  0  0
   10.0066   -1.8637   -0.5853 H   0  0  0  0  0  0  0  0  0  0  0  0
    9.5162   -1.3965    1.0510 H   0  0  0  0  0  0  0  0  0  0  0  0
    7.8634   -1.0854   -1.5275 H   0  0  0  0  0  0  0  0  0  0  0  0
    7.5689   -2.2709   -0.2220 H   0  0  0  0  0  0  0  0  0  0  0  0
    5.3955    1.0104    1.8442 H   0  0  0  0  0  0  0  0  0  0  0  0
    2.9577    0.9784    1.7148 H   0  0  0  0  0  0  0  0  0  0  0  0
   -3.1336   -1.6908   -1.2035 H   0  0  0  0  0  0  0  0  0  0  0  0
   -3.7237   -3.9804   -0.5101 H   0  0  0  0  0  0  0  0  0  0  0  0
   -5.4336   -4.3514    1.2497 H   0  0  0  0  0  0  0  0  0  0  0  0
   -6.5620   -2.4276    2.3072 H   0  0  0  0  0  0  0  0  0  0  0  0
   -6.7698   -0.0692    2.6326 H   0  0  0  0  0  0  0  0  0  0  0  0
   -5.4326    0.9630    2.1588 H   0  0  0  0  0  0  0  0  0  0  0  0
   -7.8276    0.1416    0.4145 H   0  0  0  0  0  0  0  0  0  0  0  0
   -7.6063    1.6994    1.2157 H   0  0  0  0  0  0  0  0  0  0  0  0
   -8.3739    2.2267   -1.1074 H   0  0  0  0  0  0  0  0  0  0  0  0
   -7.5901    3.3165   -3.1655 H   0  0  0  0  0  0  0  0  0  0  0  0
   -5.1961    3.1715   -3.8050 H   0  0  0  0  0  0  0  0  0  0  0  0
   -3.6284    1.9187   -2.4347 H   0  0  0  0  0  0  0  0  0  0  0  0
  1  2  2  0
  2  3  1  0
  3  4  1  0
  4  5  1  0
  5  6  2  0
  6  7  1  0
  7  8  1  0
  8  9  2  0
  9 10  1  0
 10 11  2  0
 11 12  1  0
 12 13  1  0
 13 14  1  0
 14 15  1  0
 15 16  1  0
 16 17  1  0
 11 18  1  0
 18 19  2  0
  7 20  2  0
  2 21  1  0
 21 22  1  0
 22 23  2  0
 23 24  1  0
 24 25  2  0
 25 26  1  0
 26 27  2  0
 27 28  1  0
 28 29  1  0
 29 30  1  0
 30 31  2  0
 31 32  1  0
 32 33  2  0
 33 34  1  0
 34 35  2  0
 20  4  1  0
 35 21  1  0
 19  8  1  0
 27 22  1  0
 35 30  1  0
 17 12  1  0
  3 36  1  0
  3 37  1  0
  9 38  1  0
 10 39  1  0
 13 40  1  0
 13 41  1  0
 14 42  1  0
 14 43  1  0
 16 44  1  0
 16 45  1  0
 17 46  1  0
 17 47  1  0
 18 48  1  0
 19 49  1  0
 23 50  1  0
 24 51  1  0
 25 52  1  0
 26 53  1  0
 28 54  1  0
 28 55  1  0
 29 56  1  0
 29 57  1  0
 31 58  1  0
 32 59  1  0
 33 60  1  0
 34 61  1  0
M  END
$$$$
