
     RDKit          3D

 57 58  0  0  0  0  0  0  0  0999 V2000
    5.4223   -1.1982    0.1345 C   0  0  0  0  0  0  0  0  0  0  0  0
    5.9297    0.0871    0.7248 C   0  0  0  0  0  0  0  0  0  0  0  0
    6.7130    0.0546    1.8883 C   0  0  0  0  0  0  0  0  0  0  0  0
    7.1545    1.2382    2.4776 C   0  0  0  0  0  0  0  0  0  0  0  0
    6.8211    2.4626    1.9069 C   0  0  0  0  0  0  0  0  0  0  0  0
    6.0394    2.5088    0.7501 C   0  0  0  0  0  0  0  0  0  0  0  0
    5.5828    1.3277    0.1567 C   0  0  0  0  0  0  0  0  0  0  0  0
    4.8107    1.2624   -0.9725 O   0  0  0  0  0  0  0  0  0  0  0  0
    4.1214    2.4318   -1.4192 C   0  0  0  0  0  0  0  0  0  0  0  0
    2.9002    2.7278   -0.5665 C   0  0  0  0  0  0  0  0  0  0  0  0
    1.8506    1.6813   -0.8130 C   0  0  0  0  0  0  0  0  0  0  0  0
    1.1406    1.6423   -1.8111 O   0  0  0  0  0  0  0  0  0  0  0  0
    1.8122    0.7784    0.2041 O   0  0  0  0  0  0  0  0  0  0  0  0
    0.8126   -0.2342    0.0457 C   0  0  0  0  0  0  0  0  0  0  0  0
   -0.6038    0.3153    0.2406 C   0  0  0  0  0  0  0  0  0  0  0  0
   -0.7835    1.4006    0.8078 O   0  0  0  0  0  0  0  0  0  0  0  0
   -1.7679   -0.4635   -0.3158 C   0  0  0  0  0  0  0  0  0  0  0  0
   -2.9860    0.1103   -0.4688 C   0  0  0  0  0  0  0  0  0  0  0  0
   -3.2426    1.4187   -0.0737 N   0  0  0  0  0  0  0  0  0  0  0  0
   -4.0281   -0.6331   -1.0293 N   0  0  0  0  0  0  0  0  0  0  0  0
   -5.4115   -0.1163   -1.0116 C   0  0  0  0  0  0  0  0  0  0  0  0
   -6.2521   -0.4924    0.2336 C   0  0  0  0  0  0  0  0  0  0  0  0
   -6.4399   -1.9995    0.4064 C   0  0  0  0  0  0  0  0  0  0  0  0
   -5.7220    0.1186    1.5306 C   0  0  0  0  0  0  0  0  0  0  0  0
   -3.8398   -1.8856   -1.6169 C   0  0  0  0  0  0  0  0  0  0  0  0
   -4.7533   -2.5104   -2.1596 O   0  0  0  0  0  0  0  0  0  0  0  0
   -2.5638   -2.4093   -1.5336 N   0  0  0  0  0  0  0  0  0  0  0  0
   -2.3611   -3.7507   -2.0477 C   0  0  0  0  0  0  0  0  0  0  0  0
   -1.6018   -1.8791   -0.7086 C   0  0  0  0  0  0  0  0  0  0  0  0
   -0.6405   -2.5255   -0.2951 O   0  0  0  0  0  0  0  0  0  0  0  0
    5.6453   -1.2524   -0.9344 H   0  0  0  0  0  0  0  0  0  0  0  0
    4.3408   -1.2743    0.2822 H   0  0  0  0  0  0  0  0  0  0  0  0
    5.8890   -2.0680    0.6068 H   0  0  0  0  0  0  0  0  0  0  0  0
    6.9793   -0.8959    2.3463 H   0  0  0  0  0  0  0  0  0  0  0  0
    7.7589    1.2042    3.3804 H   0  0  0  0  0  0  0  0  0  0  0  0
    7.1714    3.3847    2.3623 H   0  0  0  0  0  0  0  0  0  0  0  0
    5.8157    3.4845    0.3368 H   0  0  0  0  0  0  0  0  0  0  0  0
    4.7940    3.2935   -1.4837 H   0  0  0  0  0  0  0  0  0  0  0  0
    3.8114    2.2257   -2.4499 H   0  0  0  0  0  0  0  0  0  0  0  0
    2.4666    3.6972   -0.8367 H   0  0  0  0  0  0  0  0  0  0  0  0
    3.1290    2.7702    0.5043 H   0  0  0  0  0  0  0  0  0  0  0  0
    1.0002   -0.9827    0.8217 H   0  0  0  0  0  0  0  0  0  0  0  0
    0.9282   -0.7004   -0.9388 H   0  0  0  0  0  0  0  0  0  0  0  0
   -3.6078    1.9795   -0.8390 H   0  0  0  0  0  0  0  0  0  0  0  0
   -2.4088    1.8824    0.3146 H   0  0  0  0  0  0  0  0  0  0  0  0
   -5.9350   -0.4943   -1.9002 H   0  0  0  0  0  0  0  0  0  0  0  0
   -5.4120    0.9715   -1.1416 H   0  0  0  0  0  0  0  0  0  0  0  0
   -7.2512   -0.0651    0.0682 H   0  0  0  0  0  0  0  0  0  0  0  0
   -5.4966   -2.5018    0.6394 H   0  0  0  0  0  0  0  0  0  0  0  0
   -6.8602   -2.4471   -0.4986 H   0  0  0  0  0  0  0  0  0  0  0  0
   -7.1349   -2.2086    1.2266 H   0  0  0  0  0  0  0  0  0  0  0  0
   -5.6198    1.2038    1.4367 H   0  0  0  0  0  0  0  0  0  0  0  0
   -6.4156   -0.0740    2.3572 H   0  0  0  0  0  0  0  0  0  0  0  0
   -4.7521   -0.3033    1.8129 H   0  0  0  0  0  0  0  0  0  0  0  0
   -2.7920   -4.4638   -1.3388 H   0  0  0  0  0  0  0  0  0  0  0  0
   -2.8604   -3.8666   -3.0144 H   0  0  0  0  0  0  0  0  0  0  0  0
   -1.2966   -3.9677   -2.1715 H   0  0  0  0  0  0  0  0  0  0  0  0
  1  2  1  0
  2  3  2  0
  3  4  1  0
  4  5  2  0
  5  6  1  0
  6  7  2  0
  7  8  1  0
  8  9  1  0
  9 10  1  0
 10 11  1  0
 11 12  2  0
 11 13  1  0
 13 14  1  0
 14 15  1  0
 15 16  2  0
 15 17  1  0
 17 18  2  0
 18 19  1  0
 18 20  1  0
 20 21  1  0
 21 22  1  0
 22 23  1  0
 22 24  1  0
 20 25  1  0
 25 26  2  0
 25 27  1  0
 27 28  1  0
 27 29  1  0
 29 30  2  0
  7  2  1  0
 29 17  1  0
  1 31  1  0
  1 32  1  0
  1 33  1  0
  3 34  1  0
  4 35  1  0
  5 36  1  0
  6 37  1  0
  9 38  1  0
  9 39  1  0
 10 40  1  0
 10 41  1  0
 14 42  1  0
 14 43  1  0
 19 44  1  0
 19 45  1  0
 21 46  1  0
 21 47  1  0
 22 48  1  0
 23 49  1  0
 23 50  1  0
 23 51  1  0
 24 52  1  0
 24 53  1  0
 24 54  1  0
 28 55  1  0
 28 56  1  0
 28 57  1  0
M  END
$$$$
