
     RDKit          3D

 62 65  0  0  0  0  0  0  0  0999 V2000
    3.3783    1.7948   -2.8155 O   0  0  0  0  0  0  0  0  0  0  0  0
    3.5606    1.7523   -1.6023 C   0  0  0  0  0  0  0  0  0  0  0  0
    4.7940    2.3995   -1.0022 C   0  0  0  0  0  0  0  0  0  0  0  0
    5.8920    1.3863   -0.7285 C   0  0  0  0  0  0  0  0  0  0  0  0
    5.8357    0.8334    0.9634 S   0  0  0  0  0  6  0  0  0  0  0  0
    6.2870    1.9472    1.7787 O   0  0  0  0  0  0  0  0  0  0  0  0
    4.5361    0.2380    1.2162 O   0  0  0  0  0  0  0  0  0  0  0  0
    7.0513   -0.4326    1.0953 C   0  0  0  0  0  0  0  0  0  0  0  0
    8.0878   -0.3194    2.0269 C   0  0  0  0  0  0  0  0  0  0  0  0
    9.0528   -1.3250    2.1036 C   0  0  0  0  0  0  0  0  0  0  0  0
    8.9849   -2.4325    1.2517 C   0  0  0  0  0  0  0  0  0  0  0  0
    7.9411   -2.5420    0.3306 C   0  0  0  0  0  0  0  0  0  0  0  0
    6.9746   -1.5433    0.2613 C   0  0  0  0  0  0  0  0  0  0  0  0
    5.9830   -1.6723   -0.6312 F   0  0  0  0  0  0  0  0  0  0  0  0
    2.7373    1.1577   -0.6756 N   0  0  0  0  0  0  0  0  0  0  0  0
    1.4282    0.6715   -0.8785 C   0  0  0  0  0  0  0  0  0  0  0  0
    0.7886    0.0824    0.2096 C   0  0  0  0  0  0  0  0  0  0  0  0
   -0.5372   -0.3665    0.1102 C   0  0  0  0  0  0  0  0  0  0  0  0
   -1.2769   -0.2549   -1.0750 C   0  0  0  0  0  0  0  0  0  0  0  0
   -2.5898   -0.6900   -1.1765 N   0  0  0  0  0  0  0  0  0  0  0  0
   -3.2379   -1.4593   -0.0981 C   0  0  0  0  0  0  0  0  0  0  0  0
   -4.4896   -2.2051   -0.6149 C   0  0  0  0  0  0  0  0  0  0  0  0
   -5.4989   -1.3649   -1.2784 N   0  0  0  0  0  0  0  0  0  0  0  0
   -6.7814   -1.2616   -0.5773 C   0  0  0  0  0  0  0  0  0  0  0  0
   -6.8115   -0.4107    0.6763 C   0  0  0  0  0  0  0  0  0  0  0  0
   -6.4235   -0.9316    1.9179 C   0  0  0  0  0  0  0  0  0  0  0  0
   -6.4311   -0.1276    3.0585 C   0  0  0  0  0  0  0  0  0  0  0  0
   -6.8354    1.2044    2.9752 C   0  0  0  0  0  0  0  0  0  0  0  0
   -7.2398    1.7325    1.7517 C   0  0  0  0  0  0  0  0  0  0  0  0
   -7.2318    0.9285    0.6104 C   0  0  0  0  0  0  0  0  0  0  0  0
   -4.9506   -0.0814   -1.7407 C   0  0  0  0  0  0  0  0  0  0  0  0
   -3.4846   -0.1758   -2.2337 C   0  0  0  0  0  0  0  0  0  0  0  0
   -0.5971    0.3157   -2.1626 C   0  0  0  0  0  0  0  0  0  0  0  0
    0.7247    0.7825   -2.0691 C   0  0  0  0  0  0  0  0  0  0  0  0
    4.5062    2.9725   -0.1148 H   0  0  0  0  0  0  0  0  0  0  0  0
    5.1546    3.1275   -1.7406 H   0  0  0  0  0  0  0  0  0  0  0  0
    5.8108    0.5268   -1.3966 H   0  0  0  0  0  0  0  0  0  0  0  0
    6.8763    1.8487   -0.8682 H   0  0  0  0  0  0  0  0  0  0  0  0
    8.1510    0.5381    2.6965 H   0  0  0  0  0  0  0  0  0  0  0  0
    9.8639   -1.2452    2.8267 H   0  0  0  0  0  0  0  0  0  0  0  0
    9.7438   -3.2106    1.3130 H   0  0  0  0  0  0  0  0  0  0  0  0
    7.8736   -3.4002   -0.3329 H   0  0  0  0  0  0  0  0  0  0  0  0
    3.1322    0.9564    0.2382 H   0  0  0  0  0  0  0  0  0  0  0  0
    1.2988   -0.0240    1.1636 H   0  0  0  0  0  0  0  0  0  0  0  0
   -0.9816   -0.7844    1.0085 H   0  0  0  0  0  0  0  0  0  0  0  0
   -3.5164   -0.7875    0.7219 H   0  0  0  0  0  0  0  0  0  0  0  0
   -2.5530   -2.2186    0.2964 H   0  0  0  0  0  0  0  0  0  0  0  0
   -4.1563   -2.9340   -1.3665 H   0  0  0  0  0  0  0  0  0  0  0  0
   -4.9154   -2.8091    0.1948 H   0  0  0  0  0  0  0  0  0  0  0  0
   -7.1481   -2.2679   -0.3301 H   0  0  0  0  0  0  0  0  0  0  0  0
   -7.5267   -0.8730   -1.2847 H   0  0  0  0  0  0  0  0  0  0  0  0
   -6.1121   -1.9687    2.0031 H   0  0  0  0  0  0  0  0  0  0  0  0
   -6.1201   -0.5409    4.0142 H   0  0  0  0  0  0  0  0  0  0  0  0
   -6.8347    1.8307    3.8630 H   0  0  0  0  0  0  0  0  0  0  0  0
   -7.5563    2.7714    1.6848 H   0  0  0  0  0  0  0  0  0  0  0  0
   -7.5441    1.3531   -0.3427 H   0  0  0  0  0  0  0  0  0  0  0  0
   -5.5778    0.3103   -2.5540 H   0  0  0  0  0  0  0  0  0  0  0  0
   -4.9604    0.6637   -0.9355 H   0  0  0  0  0  0  0  0  0  0  0  0
   -3.4262   -0.8329   -3.1100 H   0  0  0  0  0  0  0  0  0  0  0  0
   -3.1905    0.8332   -2.5431 H   0  0  0  0  0  0  0  0  0  0  0  0
   -1.0818    0.4068   -3.1285 H   0  0  0  0  0  0  0  0  0  0  0  0
    1.1690    1.2244   -2.9535 H   0  0  0  0  0  0  0  0  0  0  0  0
  1  2  2  0
  2  3  1  0
  3  4  1  0
  4  5  1  0
  5  6  2  0
  5  7  2  0
  5  8  1  0
  8  9  2  0
  9 10  1  0
 10 11  2  0
 11 12  1  0
 12 13  2  0
 13 14  1  0
  2 15  1  0
 15 16  1  0
 16 17  2  0
 17 18  1  0
 18 19  2  0
 19 20  1  0
 20 21  1  0
 21 22  1  0
 22 23  1  0
 23 24  1  0
 24 25  1  0
 25 26  2  0
 26 27  1  0
 27 28  2  0
 28 29  1  0
 29 30  2  0
 23 31  1  0
 31 32  1  0
 19 33  1  0
 33 34  2  0
 13  8  1  0
 34 16  1  0
 32 20  1  0
 30 25  1  0
  3 35  1  0
  3 36  1  0
  4 37  1  0
  4 38  1  0
  9 39  1  0
 10 40  1  0
 11 41  1  0
 12 42  1  0
 15 43  1  0
 17 44  1  0
 18 45  1  0
 21 46  1  0
 21 47  1  0
 22 48  1  0
 22 49  1  0
 24 50  1  0
 24 51  1  0
 26 52  1  0
 27 53  1  0
 28 54  1  0
 29 55  1  0
 30 56  1  0
 31 57  1  0
 31 58  1  0
 32 59  1  0
 32 60  1  0
 33 61  1  0
 34 62  1  0
M  END
$$$$
