
     RDKit          3D

 40 41  0  0  0  0  0  0  0  0999 V2000
    7.8467   -0.0639   -1.1566 C   0  0  0  0  0  0  0  0  0  0  0  0
    7.1139   -1.1142   -0.5390 O   0  0  0  0  0  0  0  0  0  0  0  0
    5.8831   -0.7936   -0.0358 C   0  0  0  0  0  0  0  0  0  0  0  0
    5.1703   -1.8704    0.4950 C   0  0  0  0  0  0  0  0  0  0  0  0
    3.8981   -1.6859    1.0423 C   0  0  0  0  0  0  0  0  0  0  0  0
    3.3211   -0.4112    1.0739 C   0  0  0  0  0  0  0  0  0  0  0  0
    1.9474   -0.2022    1.6657 C   0  0  0  0  0  0  0  0  0  0  0  0
    0.8354   -0.0548    0.6477 C   0  0  0  0  0  0  0  0  0  0  0  0
    0.9806    0.0323   -0.5650 O   0  0  0  0  0  0  0  0  0  0  0  0
   -0.3571   -0.0052    1.3418 O   0  0  0  0  0  0  0  0  0  0  0  0
   -1.4341    0.0929    0.4414 N   0  0  0  0  0  0  0  0  0  0  0  0
   -2.5760    0.1500    1.0612 C   0  0  0  0  0  0  0  0  0  0  0  0
   -2.6910    0.1446    2.4345 N   0  0  0  0  0  0  0  0  0  0  0  0
   -3.8208    0.2450    0.2296 C   0  0  0  0  0  0  0  0  0  0  0  0
   -3.7373    0.6596   -1.1045 C   0  0  0  0  0  0  0  0  0  0  0  0
   -4.8922    0.7610   -1.8848 C   0  0  0  0  0  0  0  0  0  0  0  0
   -6.1426    0.4337   -1.3475 C   0  0  0  0  0  0  0  0  0  0  0  0
   -7.3844    0.5708   -2.1782 C   0  0  0  0  0  0  0  0  0  0  0  0
   -6.2240    0.0223   -0.0117 C   0  0  0  0  0  0  0  0  0  0  0  0
   -5.0701   -0.0791    0.7716 C   0  0  0  0  0  0  0  0  0  0  0  0
    4.0373    0.6669    0.5369 C   0  0  0  0  0  0  0  0  0  0  0  0
    5.3103    0.4774   -0.0134 C   0  0  0  0  0  0  0  0  0  0  0  0
    7.3027    0.3486   -2.0128 H   0  0  0  0  0  0  0  0  0  0  0  0
    8.7846   -0.4858   -1.5305 H   0  0  0  0  0  0  0  0  0  0  0  0
    8.0991    0.7185   -0.4333 H   0  0  0  0  0  0  0  0  0  0  0  0
    5.6081   -2.8655    0.4755 H   0  0  0  0  0  0  0  0  0  0  0  0
    3.3662   -2.5480    1.4378 H   0  0  0  0  0  0  0  0  0  0  0  0
    1.9652    0.6993    2.2901 H   0  0  0  0  0  0  0  0  0  0  0  0
    1.7038   -1.0493    2.3188 H   0  0  0  0  0  0  0  0  0  0  0  0
   -1.8042    0.3257    2.8908 H   0  0  0  0  0  0  0  0  0  0  0  0
   -3.4319    0.7294    2.8055 H   0  0  0  0  0  0  0  0  0  0  0  0
   -2.7738    0.9090   -1.5449 H   0  0  0  0  0  0  0  0  0  0  0  0
   -4.8051    1.0924   -2.9174 H   0  0  0  0  0  0  0  0  0  0  0  0
   -8.1436   -0.1551   -1.8685 H   0  0  0  0  0  0  0  0  0  0  0  0
   -7.1697    0.3843   -3.2357 H   0  0  0  0  0  0  0  0  0  0  0  0
   -7.7952    1.5796   -2.0727 H   0  0  0  0  0  0  0  0  0  0  0  0
   -7.1873   -0.2326    0.4250 H   0  0  0  0  0  0  0  0  0  0  0  0
   -5.1603   -0.4345    1.7938 H   0  0  0  0  0  0  0  0  0  0  0  0
    3.6044    1.6653    0.5306 H   0  0  0  0  0  0  0  0  0  0  0  0
    5.8222    1.3429   -0.4197 H   0  0  0  0  0  0  0  0  0  0  0  0
  1  2  1  0
  2  3  1  0
  3  4  2  0
  4  5  1  0
  5  6  2  0
  6  7  1  0
  7  8  1  0
  8  9  2  0
  8 10  1  0
 10 11  1  0
 11 12  2  3
 12 13  1  0
 12 14  1  0
 14 15  2  0
 15 16  1  0
 16 17  2  0
 17 18  1  0
 17 19  1  0
 19 20  2  0
  6 21  1  0
 21 22  2  0
 22  3  1  0
 20 14  1  0
  1 23  1  0
  1 24  1  0
  1 25  1  0
  4 26  1  0
  5 27  1  0
  7 28  1  0
  7 29  1  0
 13 30  1  0
 13 31  1  0
 15 32  1  0
 16 33  1  0
 18 34  1  0
 18 35  1  0
 18 36  1  0
 19 37  1  0
 20 38  1  0
 21 39  1  0
 22 40  1  0
M  END
$$$$
