
     RDKit          3D

 52 53  0  0  0  0  0  0  0  0999 V2000
    5.6854   -0.4036   -0.8386 C   0  0  0  0  0  0  0  0  0  0  0  0
    4.8380   -0.0130    0.3916 C   0  0  0  0  0  0  0  0  0  0  0  0
    5.4279   -0.7667    1.6053 C   0  0  0  0  0  0  0  0  0  0  0  0
    5.0048    1.5002    0.6307 C   0  0  0  0  0  0  0  0  0  0  0  0
    3.3333   -0.4252    0.1762 C   0  0  0  0  0  0  0  0  0  0  0  0
    2.7541    0.0329   -1.1835 C   0  0  0  0  0  0  0  0  0  0  0  0
    1.2362   -0.1089   -1.2208 C   0  0  0  0  0  0  0  0  0  0  0  0
    0.5527    0.7964   -0.1904 C   0  0  0  0  0  0  0  0  0  0  0  0
   -0.6269    0.1305    0.3189 O   0  0  0  0  0  0  0  0  0  0  0  0
   -1.7409    0.1957   -0.4559 C   0  0  0  0  0  0  0  0  0  0  0  0
   -1.8272    0.7533   -1.5416 O   0  0  0  0  0  0  0  0  0  0  0  0
   -2.8982   -0.5150    0.2458 C   0  0  0  0  0  0  0  0  0  0  0  0
   -4.2496   -0.5721   -0.5476 N   0  0  0  0  0  4  0  0  0  0  0  0
   -4.0863   -1.4338   -1.7930 C   0  0  0  0  0  0  0  0  0  0  0  0
   -5.3611   -1.1447    0.3500 C   0  0  0  0  0  0  0  0  0  0  0  0
   -6.1933    0.0601    0.7445 C   0  0  0  0  0  0  0  0  0  0  0  0
   -6.1680    0.9133   -0.5046 C   0  0  0  0  0  0  0  0  0  0  0  0
   -4.7138    0.8538   -0.9325 C   0  0  0  0  0  0  0  0  0  0  0  0
    1.4553    1.1186    1.0048 C   0  0  0  0  0  0  0  0  0  0  0  0
    2.3889   -0.0411    1.3444 C   0  0  0  0  0  0  0  0  0  0  0  0
    5.4214    0.1921   -1.7189 H   0  0  0  0  0  0  0  0  0  0  0  0
    6.7537   -0.2402   -0.6522 H   0  0  0  0  0  0  0  0  0  0  0  0
    5.5511   -1.4616   -1.0905 H   0  0  0  0  0  0  0  0  0  0  0  0
    5.3078   -1.8501    1.4938 H   0  0  0  0  0  0  0  0  0  0  0  0
    6.4999   -0.5641    1.7125 H   0  0  0  0  0  0  0  0  0  0  0  0
    4.9560   -0.4713    2.5470 H   0  0  0  0  0  0  0  0  0  0  0  0
    4.6356    2.0868   -0.2160 H   0  0  0  0  0  0  0  0  0  0  0  0
    6.0613    1.7607    0.7690 H   0  0  0  0  0  0  0  0  0  0  0  0
    4.4735    1.8319    1.5275 H   0  0  0  0  0  0  0  0  0  0  0  0
    3.3278   -1.5261    0.1478 H   0  0  0  0  0  0  0  0  0  0  0  0
    3.0188    1.0742   -1.3966 H   0  0  0  0  0  0  0  0  0  0  0  0
    3.1824   -0.5739   -1.9883 H   0  0  0  0  0  0  0  0  0  0  0  0
    0.9603   -1.1596   -1.0582 H   0  0  0  0  0  0  0  0  0  0  0  0
    0.8683    0.1462   -2.2216 H   0  0  0  0  0  0  0  0  0  0  0  0
    0.2562    1.7490   -0.6471 H   0  0  0  0  0  0  0  0  0  0  0  0
   -2.6185   -1.5547    0.4502 H   0  0  0  0  0  0  0  0  0  0  0  0
   -3.1161    0.0129    1.1818 H   0  0  0  0  0  0  0  0  0  0  0  0
   -3.7994   -2.4414   -1.4754 H   0  0  0  0  0  0  0  0  0  0  0  0
   -5.0434   -1.4571   -2.3245 H   0  0  0  0  0  0  0  0  0  0  0  0
   -3.3175   -1.0006   -2.4348 H   0  0  0  0  0  0  0  0  0  0  0  0
   -5.9545   -1.8483   -0.2471 H   0  0  0  0  0  0  0  0  0  0  0  0
   -4.9165   -1.6712    1.2015 H   0  0  0  0  0  0  0  0  0  0  0  0
   -5.7263    0.5894    1.5845 H   0  0  0  0  0  0  0  0  0  0  0  0
   -7.2094   -0.2175    1.0387 H   0  0  0  0  0  0  0  0  0  0  0  0
   -6.8144    0.4839   -1.2799 H   0  0  0  0  0  0  0  0  0  0  0  0
   -6.4990    1.9393   -0.3153 H   0  0  0  0  0  0  0  0  0  0  0  0
   -4.1195    1.5743   -0.3579 H   0  0  0  0  0  0  0  0  0  0  0  0
   -4.5711    1.0141   -2.0051 H   0  0  0  0  0  0  0  0  0  0  0  0
    2.0595    2.0048    0.7761 H   0  0  0  0  0  0  0  0  0  0  0  0
    0.8470    1.3612    1.8840 H   0  0  0  0  0  0  0  0  0  0  0  0
    1.7742   -0.9156    1.5960 H   0  0  0  0  0  0  0  0  0  0  0  0
    2.9393    0.2018    2.2556 H   0  0  0  0  0  0  0  0  0  0  0  0
  1  2  1  0
  2  3  1  0
  2  4  1  0
  2  5  1  0
  5  6  1  0
  6  7  1  0
  7  8  1  0
  8  9  1  0
  9 10  1  0
 10 11  2  0
 10 12  1  0
 12 13  1  0
 13 14  1  0
 13 15  1  0
 15 16  1  0
 16 17  1  0
 17 18  1  0
  8 19  1  0
 19 20  1  0
 20  5  1  0
 18 13  1  0
  1 21  1  0
  1 22  1  0
  1 23  1  0
  3 24  1  0
  3 25  1  0
  3 26  1  0
  4 27  1  0
  4 28  1  0
  4 29  1  0
  5 30  1  0
  6 31  1  0
  6 32  1  0
  7 33  1  0
  7 34  1  0
  8 35  1  0
 12 36  1  0
 12 37  1  0
 14 38  1  0
 14 39  1  0
 14 40  1  0
 15 41  1  0
 15 42  1  0
 16 43  1  0
 16 44  1  0
 17 45  1  0
 17 46  1  0
 18 47  1  0
 18 48  1  0
 19 49  1  0
 19 50  1  0
 20 51  1  0
 20 52  1  0
M  CHG  1  13   1
M  END
$$$$
