
     RDKit          3D

 48 51  0  0  0  0  0  0  0  0999 V2000
    9.0725    0.0029    0.1460 C   0  0  0  0  0  0  0  0  0  0  0  0
    8.1812    1.0992    0.3073 O   0  0  0  0  0  0  0  0  0  0  0  0
    6.8444    0.8197    0.2512 C   0  0  0  0  0  0  0  0  0  0  0  0
    6.2740   -0.4358    0.0640 C   0  0  0  0  0  0  0  0  0  0  0  0
    4.8795   -0.5767    0.0276 C   0  0  0  0  0  0  0  0  0  0  0  0
    4.0172    0.5248    0.1810 C   0  0  0  0  0  0  0  0  0  0  0  0
    2.5507    0.3455    0.1430 C   0  0  0  0  0  0  0  0  0  0  0  0
    1.6681    1.1448    0.8613 C   0  0  0  0  0  0  0  0  0  0  0  0
    0.2973    0.9015    0.7675 C   0  0  0  0  0  0  0  0  0  0  0  0
   -0.1889   -0.1373   -0.0367 C   0  0  0  0  0  0  0  0  0  0  0  0
   -1.6269   -0.3668   -0.1085 C   0  0  0  0  0  0  0  0  0  0  0  0
   -2.2156   -1.4900   -0.5461 N   0  0  0  0  0  0  0  0  0  0  0  0
   -3.5758   -1.2355   -0.4044 O   0  0  0  0  0  0  0  0  0  0  0  0
   -3.6953    0.0172    0.1220 C   0  0  0  0  0  0  0  0  0  0  0  0
   -5.0366    0.5498    0.3789 C   0  0  0  0  0  0  0  0  0  0  0  0
   -5.1202    1.8639    0.8853 C   0  0  0  0  0  0  0  0  0  0  0  0
   -6.3494    2.4612    1.1623 C   0  0  0  0  0  0  0  0  0  0  0  0
   -7.5223    1.7531    0.9381 C   0  0  0  0  0  0  0  0  0  0  0  0
   -7.4674    0.4506    0.4378 C   0  0  0  0  0  0  0  0  0  0  0  0
   -6.2362   -0.1619    0.1541 C   0  0  0  0  0  0  0  0  0  0  0  0
   -6.1295   -1.4382   -0.3338 O   0  0  0  0  0  0  0  0  0  0  0  0
   -7.3224   -2.1626   -0.6030 C   0  0  0  0  0  0  0  0  0  0  0  0
   -2.5263    0.5893    0.3288 N   0  0  0  0  0  0  0  0  0  0  0  0
    0.7629   -0.8893   -0.7236 C   0  0  0  0  0  0  0  0  0  0  0  0
    0.3373   -1.9005   -1.5596 O   0  0  0  0  0  0  0  0  0  0  0  0
    1.3911   -2.6102   -2.1995 C   0  0  0  0  0  0  0  0  0  0  0  0
    2.1022   -0.6670   -0.6389 N   0  0  0  0  0  0  0  0  0  0  0  0
    4.6156    1.7831    0.3603 C   0  0  0  0  0  0  0  0  0  0  0  0
    6.0083    1.9262    0.3968 C   0  0  0  0  0  0  0  0  0  0  0  0
    8.9443   -0.7314    0.9484 H   0  0  0  0  0  0  0  0  0  0  0  0
    8.9536   -0.4615   -0.8389 H   0  0  0  0  0  0  0  0  0  0  0  0
   10.0938    0.3906    0.2099 H   0  0  0  0  0  0  0  0  0  0  0  0
    6.8770   -1.3288   -0.0588 H   0  0  0  0  0  0  0  0  0  0  0  0
    4.4600   -1.5712   -0.1208 H   0  0  0  0  0  0  0  0  0  0  0  0
    2.0239    1.9410    1.5066 H   0  0  0  0  0  0  0  0  0  0  0  0
   -0.3895    1.5264    1.3351 H   0  0  0  0  0  0  0  0  0  0  0  0
   -4.2099    2.4353    1.0670 H   0  0  0  0  0  0  0  0  0  0  0  0
   -6.3867    3.4754    1.5516 H   0  0  0  0  0  0  0  0  0  0  0  0
   -8.4845    2.2122    1.1523 H   0  0  0  0  0  0  0  0  0  0  0  0
   -8.4110   -0.0630    0.2813 H   0  0  0  0  0  0  0  0  0  0  0  0
   -7.0357   -3.1407   -1.0009 H   0  0  0  0  0  0  0  0  0  0  0  0
   -7.9280   -1.6589   -1.3637 H   0  0  0  0  0  0  0  0  0  0  0  0
   -7.8960   -2.3323    0.3141 H   0  0  0  0  0  0  0  0  0  0  0  0
    1.9674   -1.9543   -2.8612 H   0  0  0  0  0  0  0  0  0  0  0  0
    2.0413   -3.1025   -1.4679 H   0  0  0  0  0  0  0  0  0  0  0  0
    0.9387   -3.3908   -2.8186 H   0  0  0  0  0  0  0  0  0  0  0  0
    4.0085    2.6802    0.4557 H   0  0  0  0  0  0  0  0  0  0  0  0
    6.4434    2.9134    0.5340 H   0  0  0  0  0  0  0  0  0  0  0  0
  1  2  1  0
  2  3  1  0
  3  4  2  0
  4  5  1  0
  5  6  2  0
  6  7  1  0
  7  8  2  0
  8  9  1  0
  9 10  2  0
 10 11  1  0
 11 12  2  0
 12 13  1  0
 13 14  1  0
 14 15  1  0
 15 16  2  0
 16 17  1  0
 17 18  2  0
 18 19  1  0
 19 20  2  0
 20 21  1  0
 21 22  1  0
 14 23  2  0
 10 24  1  0
 24 25  1  0
 25 26  1  0
 24 27  2  0
  6 28  1  0
 28 29  2  0
 29  3  1  0
 27  7  1  0
 23 11  1  0
 20 15  1  0
  1 30  1  0
  1 31  1  0
  1 32  1  0
  4 33  1  0
  5 34  1  0
  8 35  1  0
  9 36  1  0
 16 37  1  0
 17 38  1  0
 18 39  1  0
 19 40  1  0
 22 41  1  0
 22 42  1  0
 22 43  1  0
 26 44  1  0
 26 45  1  0
 26 46  1  0
 28 47  1  0
 29 48  1  0
M  END
$$$$
