
     RDKit          3D

 50 52  0  0  0  0  0  0  0  0999 V2000
    5.1855    2.5781    2.1391 O   0  0  0  0  0  0  0  0  0  0  0  0
    5.1436    1.6608    1.3415 C   0  0  0  0  0  0  0  0  0  0  0  0
    5.9965    0.6268    1.4116 O   0  0  0  0  0  0  0  0  0  0  0  0
    4.1895    1.5416    0.2133 C   0  0  0  0  0  0  0  0  0  0  0  0
    4.1719    0.4216   -0.6274 C   0  0  0  0  0  0  0  0  0  0  0  0
    3.2555    0.3530   -1.6763 C   0  0  0  0  0  0  0  0  0  0  0  0
    3.1937   -0.7929   -2.5155 N   0  0  0  0  0  0  0  0  0  0  0  0
    2.7124   -2.2788   -1.8719 S   0  0  0  0  0  6  0  0  0  0  0  0
    3.6117   -2.6583   -0.8055 O   0  0  0  0  0  0  0  0  0  0  0  0
    2.4660   -3.1481   -3.0017 O   0  0  0  0  0  0  0  0  0  0  0  0
    1.1330   -1.8973   -1.1469 C   0  0  0  0  0  0  0  0  0  0  0  0
    1.0482   -1.5780    0.2085 C   0  0  0  0  0  0  0  0  0  0  0  0
   -0.1958   -1.2666    0.7683 C   0  0  0  0  0  0  0  0  0  0  0  0
   -1.3841   -1.2861    0.0114 C   0  0  0  0  0  0  0  0  0  0  0  0
   -2.5527   -0.9492    0.7035 N   0  0  0  0  0  0  0  0  0  0  0  0
   -3.7072   -1.8537    0.5938 C   0  0  0  0  0  0  0  0  0  0  0  0
   -4.6725   -1.5600    1.7432 C   0  0  0  0  0  0  0  0  0  0  0  0
   -5.0898   -0.0893    1.7438 C   0  0  0  0  0  0  0  0  0  0  0  0
   -3.8668    0.8274    1.7520 C   0  0  0  0  0  0  0  0  0  0  0  0
   -2.8981    0.4810    0.6200 C   0  0  0  0  0  0  0  0  0  0  0  0
   -1.2515   -1.6323   -1.3450 C   0  0  0  0  0  0  0  0  0  0  0  0
   -2.3915   -1.6359   -2.2305 N   0  0  0  0  0  4  0  0  0  0  0  0
   -2.7621   -0.5428   -2.6788 O   0  0  0  0  0  0  0  0  0  0  0  0
   -2.8824   -2.7382   -2.5087 O   0  0  0  0  0  1  0  0  0  0  0  0
   -0.0157   -1.9443   -1.9349 C   0  0  0  0  0  0  0  0  0  0  0  0
    2.3564    1.3960   -1.8939 C   0  0  0  0  0  0  0  0  0  0  0  0
    2.3666    2.5158   -1.0526 C   0  0  0  0  0  0  0  0  0  0  0  0
    1.3830    3.5914   -1.3164 C   0  0  0  0  0  0  0  0  0  0  0  0
    0.5456    3.5782   -2.1986 O   0  0  0  0  0  0  0  0  0  0  0  0
    1.4983    4.6231   -0.4656 O   0  0  0  0  0  0  0  0  0  0  0  0
    3.2832    2.5883    0.0019 C   0  0  0  0  0  0  0  0  0  0  0  0
    6.5625    0.8253    2.1872 H   0  0  0  0  0  0  0  0  0  0  0  0
    4.8769   -0.3926   -0.4698 H   0  0  0  0  0  0  0  0  0  0  0  0
    2.8974   -0.6748   -3.4843 H   0  0  0  0  0  0  0  0  0  0  0  0
    1.9363   -1.5650    0.8379 H   0  0  0  0  0  0  0  0  0  0  0  0
   -0.2486   -1.0165    1.8280 H   0  0  0  0  0  0  0  0  0  0  0  0
   -4.2355   -1.7124   -0.3551 H   0  0  0  0  0  0  0  0  0  0  0  0
   -3.3847   -2.8998    0.6577 H   0  0  0  0  0  0  0  0  0  0  0  0
   -4.1905   -1.8000    2.6993 H   0  0  0  0  0  0  0  0  0  0  0  0
   -5.5590   -2.1980    1.6571 H   0  0  0  0  0  0  0  0  0  0  0  0
   -5.6966    0.1191    0.8540 H   0  0  0  0  0  0  0  0  0  0  0  0
   -5.7168    0.1192    2.6177 H   0  0  0  0  0  0  0  0  0  0  0  0
   -3.3507    0.7273    2.7153 H   0  0  0  0  0  0  0  0  0  0  0  0
   -4.1841    1.8723    1.6629 H   0  0  0  0  0  0  0  0  0  0  0  0
   -2.0043    1.1093    0.7220 H   0  0  0  0  0  0  0  0  0  0  0  0
   -3.3580    0.7107   -0.3485 H   0  0  0  0  0  0  0  0  0  0  0  0
    0.0420   -2.2118   -2.9884 H   0  0  0  0  0  0  0  0  0  0  0  0
    1.6367    1.3431   -2.7084 H   0  0  0  0  0  0  0  0  0  0  0  0
    0.8079    5.2579   -0.7523 H   0  0  0  0  0  0  0  0  0  0  0  0
    3.2986    3.4554    0.6610 H   0  0  0  0  0  0  0  0  0  0  0  0
  1  2  2  0
  2  3  1  0
  2  4  1  0
  4  5  2  0
  5  6  1  0
  6  7  1  0
  7  8  1  0
  8  9  2  0
  8 10  2  0
  8 11  1  0
 11 12  2  0
 12 13  1  0
 13 14  2  0
 14 15  1  0
 15 16  1  0
 16 17  1  0
 17 18  1  0
 18 19  1  0
 19 20  1  0
 14 21  1  0
 21 22  1  0
 22 23  2  0
 22 24  1  0
 21 25  2  0
  6 26  2  0
 26 27  1  0
 27 28  1  0
 28 29  2  0
 28 30  1  0
 27 31  2  0
 31  4  1  0
 25 11  1  0
 20 15  1  0
  3 32  1  0
  5 33  1  0
  7 34  1  0
 12 35  1  0
 13 36  1  0
 16 37  1  0
 16 38  1  0
 17 39  1  0
 17 40  1  0
 18 41  1  0
 18 42  1  0
 19 43  1  0
 19 44  1  0
 20 45  1  0
 20 46  1  0
 25 47  1  0
 26 48  1  0
 30 49  1  0
 31 50  1  0
M  CHG  2  22   1  24  -1
M  END
$$$$
