
     RDKit          3D

 45 48  0  0  0  0  0  0  0  0999 V2000
    1.0863   -2.5415    0.2403 O   0  0  0  0  0  0  0  0  0  0  0  0
   -0.1317   -2.4049    0.1690 C   0  0  0  0  0  0  0  0  0  0  0  0
   -0.8002   -1.2167    0.2874 N   0  0  0  0  0  0  0  0  0  0  0  0
   -0.4537   -0.2284   -0.4572 C   0  0  0  0  0  0  0  0  0  0  0  0
    0.5499   -0.2702   -1.3768 N   0  0  0  0  0  0  0  0  0  0  0  0
    1.7134    0.1117   -0.9580 C   0  0  0  0  0  0  0  0  0  0  0  0
    2.8676    0.0800   -1.7062 N   0  0  0  0  0  0  0  0  0  0  0  0
    3.8895    0.3604   -0.8263 C   0  0  0  0  0  0  0  0  0  0  0  0
    5.2512    0.4153   -1.0086 C   0  0  0  0  0  0  0  0  0  0  0  0
    6.0349    0.8204    0.0785 C   0  0  0  0  0  0  0  0  0  0  0  0
    5.4414    1.1759    1.3062 C   0  0  0  0  0  0  0  0  0  0  0  0
    4.0544    1.1368    1.4647 C   0  0  0  0  0  0  0  0  0  0  0  0
    3.3111    0.7330    0.3777 C   0  0  0  0  0  0  0  0  0  0  0  0
    1.9277    0.6214    0.3341 O   0  0  0  0  0  0  0  0  0  0  0  0
   -1.1149    0.9725   -0.4321 N   0  0  0  0  0  0  0  0  0  0  0  0
   -2.2161    1.3111    0.3336 C   0  0  0  0  0  0  0  0  0  0  0  0
   -2.9767    0.5298    0.8921 O   0  0  0  0  0  0  0  0  0  0  0  0
   -2.5301    2.7673    0.3595 C   0  0  0  0  0  0  0  0  0  0  0  0
   -3.8713    3.1630    0.4303 C   0  0  0  0  0  0  0  0  0  0  0  0
   -4.2011    4.5189    0.4535 C   0  0  0  0  0  0  0  0  0  0  0  0
   -3.1931    5.4821    0.4172 C   0  0  0  0  0  0  0  0  0  0  0  0
   -1.8542    5.0935    0.3667 C   0  0  0  0  0  0  0  0  0  0  0  0
   -1.5186    3.7379    0.3422 C   0  0  0  0  0  0  0  0  0  0  0  0
   -0.9967   -3.6116   -0.0109 C   0  0  0  0  0  0  0  0  0  0  0  0
   -0.3965   -4.8611   -0.2198 C   0  0  0  0  0  0  0  0  0  0  0  0
   -1.1854   -6.0001   -0.3944 C   0  0  0  0  0  0  0  0  0  0  0  0
   -2.5759   -5.8974   -0.3598 C   0  0  0  0  0  0  0  0  0  0  0  0
   -3.1806   -4.6583   -0.1491 C   0  0  0  0  0  0  0  0  0  0  0  0
   -2.3952   -3.5167    0.0255 C   0  0  0  0  0  0  0  0  0  0  0  0
    2.9644   -0.6490   -2.3949 H   0  0  0  0  0  0  0  0  0  0  0  0
    5.7085    0.1594   -1.9575 H   0  0  0  0  0  0  0  0  0  0  0  0
    7.1171    0.8662   -0.0249 H   0  0  0  0  0  0  0  0  0  0  0  0
    6.0712    1.4845    2.1379 H   0  0  0  0  0  0  0  0  0  0  0  0
    3.5823    1.4048    2.4024 H   0  0  0  0  0  0  0  0  0  0  0  0
   -0.7181    1.6646   -1.0455 H   0  0  0  0  0  0  0  0  0  0  0  0
   -4.6612    2.4149    0.4672 H   0  0  0  0  0  0  0  0  0  0  0  0
   -5.2438    4.8225    0.5060 H   0  0  0  0  0  0  0  0  0  0  0  0
   -3.4520    6.5382    0.4410 H   0  0  0  0  0  0  0  0  0  0  0  0
   -1.0716    5.8488    0.3592 H   0  0  0  0  0  0  0  0  0  0  0  0
   -0.4683    3.4589    0.3419 H   0  0  0  0  0  0  0  0  0  0  0  0
    0.6874   -4.9502   -0.2455 H   0  0  0  0  0  0  0  0  0  0  0  0
   -0.7147   -6.9667   -0.5548 H   0  0  0  0  0  0  0  0  0  0  0  0
   -3.1898   -6.7847   -0.4933 H   0  0  0  0  0  0  0  0  0  0  0  0
   -4.2644   -4.5784   -0.1163 H   0  0  0  0  0  0  0  0  0  0  0  0
   -2.8823   -2.5582    0.1982 H   0  0  0  0  0  0  0  0  0  0  0  0
  1  2  2  0
  2  3  1  0
  3  4  2  3
  4  5  1  0
  5  6  2  3
  6  7  1  0
  7  8  1  0
  8  9  2  0
  9 10  1  0
 10 11  2  0
 11 12  1  0
 12 13  2  0
 13 14  1  0
  4 15  1  0
 15 16  1  0
 16 17  2  0
 16 18  1  0
 18 19  2  0
 19 20  1  0
 20 21  2  0
 21 22  1  0
 22 23  2  0
  2 24  1  0
 24 25  2  0
 25 26  1  0
 26 27  2  0
 27 28  1  0
 28 29  2  0
 14  6  1  0
 23 18  1  0
 29 24  1  0
 13  8  1  0
  7 30  1  0
  9 31  1  0
 10 32  1  0
 11 33  1  0
 12 34  1  0
 15 35  1  0
 19 36  1  0
 20 37  1  0
 21 38  1  0
 22 39  1  0
 23 40  1  0
 25 41  1  0
 26 42  1  0
 27 43  1  0
 28 44  1  0
 29 45  1  0
M  END
$$$$
