
     RDKit          3D

 50 53  0  0  0  0  0  0  0  0999 V2000
    0.7692   -1.9729    3.7542 O   0  0  0  0  0  0  0  0  0  0  0  0
    0.3419   -1.6423    2.6639 C   0  0  0  0  0  0  0  0  0  0  0  0
   -1.0372   -2.0138    2.1316 C   0  0  0  0  0  0  0  0  0  0  0  0
   -1.8427   -2.7129    2.7082 O   0  0  0  0  0  0  0  0  0  0  0  0
   -1.1867   -1.3418    0.9287 N   0  0  0  0  0  0  0  0  0  0  0  0
   -2.5247   -1.1790    0.3524 C   0  0  0  0  0  0  0  0  0  0  0  0
   -3.3289   -0.0405    0.9918 C   0  0  0  0  0  0  0  0  0  0  0  0
   -4.7763   -0.0032    0.5312 C   0  0  0  0  0  0  0  0  0  0  0  0
   -5.1288    1.4450    0.7602 C   0  0  0  0  0  0  0  0  0  0  0  0
   -3.8507    2.1487    0.3572 C   0  0  0  0  0  0  0  0  0  0  0  0
   -2.7703    1.2367    0.6130 O   0  0  0  0  0  0  0  0  0  0  0  0
   -0.1381   -0.3292    0.7906 C   0  0  0  0  0  0  0  0  0  0  0  0
    0.1704    0.0508   -0.6491 C   0  0  0  0  0  0  0  0  0  0  0  0
    0.2726   -0.9570   -1.6305 C   0  0  0  0  0  0  0  0  0  0  0  0
    0.5431   -0.6501   -2.9672 C   0  0  0  0  0  0  0  0  0  0  0  0
    0.7148    0.6728   -3.3645 C   0  0  0  0  0  0  0  0  0  0  0  0
    0.6230    1.6954   -2.4239 C   0  0  0  0  0  0  0  0  0  0  0  0
    0.3584    1.3821   -1.0804 C   0  0  0  0  0  0  0  0  0  0  0  0
    0.3275    2.5003   -0.1418 N   0  0  0  0  0  4  0  0  0  0  0  0
    0.9767    2.3710    0.9072 O   0  0  0  0  0  0  0  0  0  0  0  0
   -0.3063    3.5106   -0.4737 O   0  0  0  0  0  1  0  0  0  0  0  0
    1.0589   -0.8096    1.6446 C   0  0  0  0  0  0  0  0  0  0  0  0
    2.0610   -1.6434    0.8808 C   0  0  0  0  0  0  0  0  0  0  0  0
    1.8443   -2.8342    0.6509 O   0  0  0  0  0  0  0  0  0  0  0  0
    3.3020   -1.0153    0.3252 C   0  0  0  0  0  0  0  0  0  0  0  0
    4.0534   -1.7618   -0.5971 C   0  0  0  0  0  0  0  0  0  0  0  0
    5.2084   -1.2291   -1.1742 C   0  0  0  0  0  0  0  0  0  0  0  0
    5.6263    0.0543   -0.8332 C   0  0  0  0  0  0  0  0  0  0  0  0
    4.8934    0.8019    0.0871 C   0  0  0  0  0  0  0  0  0  0  0  0
    3.7353    0.2715    0.6669 C   0  0  0  0  0  0  0  0  0  0  0  0
   -3.0611   -2.1248    0.4915 H   0  0  0  0  0  0  0  0  0  0  0  0
   -2.4127   -1.0124   -0.7234 H   0  0  0  0  0  0  0  0  0  0  0  0
   -3.2814   -0.0998    2.0863 H   0  0  0  0  0  0  0  0  0  0  0  0
   -5.4160   -0.6986    1.0809 H   0  0  0  0  0  0  0  0  0  0  0  0
   -4.8531   -0.2350   -0.5376 H   0  0  0  0  0  0  0  0  0  0  0  0
   -5.3297    1.6156    1.8243 H   0  0  0  0  0  0  0  0  0  0  0  0
   -5.9989    1.7820    0.1911 H   0  0  0  0  0  0  0  0  0  0  0  0
   -3.8455    2.3769   -0.7141 H   0  0  0  0  0  0  0  0  0  0  0  0
   -3.6883    3.0768    0.9125 H   0  0  0  0  0  0  0  0  0  0  0  0
   -0.5561    0.5373    1.3151 H   0  0  0  0  0  0  0  0  0  0  0  0
    0.1376   -2.0060   -1.3600 H   0  0  0  0  0  0  0  0  0  0  0  0
    0.6168   -1.4517   -3.7000 H   0  0  0  0  0  0  0  0  0  0  0  0
    0.9236    0.9053   -4.4061 H   0  0  0  0  0  0  0  0  0  0  0  0
    0.7656    2.7268   -2.7418 H   0  0  0  0  0  0  0  0  0  0  0  0
    1.5262    0.0213    2.1739 H   0  0  0  0  0  0  0  0  0  0  0  0
    3.7412   -2.7670   -0.8774 H   0  0  0  0  0  0  0  0  0  0  0  0
    5.7791   -1.8183   -1.8888 H   0  0  0  0  0  0  0  0  0  0  0  0
    6.5259    0.4703   -1.2809 H   0  0  0  0  0  0  0  0  0  0  0  0
    5.2259    1.8017    0.3595 H   0  0  0  0  0  0  0  0  0  0  0  0
    3.2109    0.8945    1.3848 H   0  0  0  0  0  0  0  0  0  0  0  0
  1  2  2  0
  2  3  1  0
  3  4  2  0
  3  5  1  0
  5  6  1  0
  6  7  1  0
  7  8  1  0
  8  9  1  0
  9 10  1  0
 10 11  1  0
  5 12  1  0
 12 13  1  0
 13 14  2  0
 14 15  1  0
 15 16  2  0
 16 17  1  0
 17 18  2  0
 18 19  1  0
 19 20  2  0
 19 21  1  0
 12 22  1  0
 22 23  1  0
 23 24  2  0
 23 25  1  0
 25 26  2  0
 26 27  1  0
 27 28  2  0
 28 29  1  0
 29 30  2  0
 22  2  1  0
 30 25  1  0
 11  7  1  0
 18 13  1  0
  6 31  1  0
  6 32  1  0
  7 33  1  0
  8 34  1  0
  8 35  1  0
  9 36  1  0
  9 37  1  0
 10 38  1  0
 10 39  1  0
 12 40  1  0
 14 41  1  0
 15 42  1  0
 16 43  1  0
 17 44  1  0
 22 45  1  0
 26 46  1  0
 27 47  1  0
 28 48  1  0
 29 49  1  0
 30 50  1  0
M  CHG  2  19   1  21  -1
M  END
$$$$
