
     RDKit          3D

 43 45  0  0  0  0  0  0  0  0999 V2000
   -5.1124    0.8182   -1.6328 C   0  0  0  0  0  0  0  0  0  0  0  0
   -4.6871   -0.3652   -0.8915 N   0  0  0  0  0  0  0  0  0  0  0  0
   -4.4245   -0.0638    0.5334 C   0  0  0  0  0  0  0  0  0  0  0  0
   -2.9310    0.0958    0.8965 C   0  0  0  0  0  0  0  0  0  0  0  0
   -2.1744   -1.1393    0.5748 N   0  0  0  0  0  0  0  0  0  0  0  0
   -0.7881   -0.9842    0.6800 C   0  0  0  0  0  0  0  0  0  0  0  0
   -0.0161   -0.5134   -0.3941 C   0  0  0  0  0  0  0  0  0  0  0  0
    1.3712   -0.3403   -0.2793 C   0  0  0  0  0  0  0  0  0  0  0  0
    2.0217   -0.6226    0.9275 C   0  0  0  0  0  0  0  0  0  0  0  0
    3.4903   -0.4721    1.0794 C   0  0  0  0  0  0  0  0  0  0  0  0
    4.0958   -1.2587    1.8016 O   0  0  0  0  0  0  0  0  0  0  0  0
    4.2438    0.5991    0.3816 C   0  0  0  0  0  0  0  0  0  0  0  0
    3.7078    1.8812    0.2064 C   0  0  0  0  0  0  0  0  0  0  0  0
    4.4566    2.8659   -0.4444 C   0  0  0  0  0  0  0  0  0  0  0  0
    5.7400    2.5708   -0.9054 C   0  0  0  0  0  0  0  0  0  0  0  0
    6.7486    3.9058   -1.7846 Br  0  0  0  0  0  0  0  0  0  0  0  0
    6.2879    1.3031   -0.7149 C   0  0  0  0  0  0  0  0  0  0  0  0
    5.5414    0.3181   -0.0645 C   0  0  0  0  0  0  0  0  0  0  0  0
    1.2887   -1.1094    2.0097 C   0  0  0  0  0  0  0  0  0  0  0  0
   -0.0953   -1.2721    1.8697 C   0  0  0  0  0  0  0  0  0  0  0  0
   -0.8163   -1.7812    3.0145 N   0  0  0  0  0  4  0  0  0  0  0  0
   -0.8830   -3.0117    3.1400 O   0  0  0  0  0  0  0  0  0  0  0  0
   -1.2542   -0.9429    3.8168 O   0  0  0  0  0  1  0  0  0  0  0  0
   -2.6931   -1.8970   -0.5903 C   0  0  0  0  0  0  0  0  0  0  0  0
   -3.5204   -1.0019   -1.5400 C   0  0  0  0  0  0  0  0  0  0  0  0
   -5.3271    0.5625   -2.6764 H   0  0  0  0  0  0  0  0  0  0  0  0
   -4.3538    1.6090   -1.6188 H   0  0  0  0  0  0  0  0  0  0  0  0
   -6.0397    1.2223   -1.2119 H   0  0  0  0  0  0  0  0  0  0  0  0
   -4.8304   -0.9000    1.1177 H   0  0  0  0  0  0  0  0  0  0  0  0
   -4.9799    0.8238    0.8610 H   0  0  0  0  0  0  0  0  0  0  0  0
   -2.5188    0.9566    0.3531 H   0  0  0  0  0  0  0  0  0  0  0  0
   -2.8495    0.3096    1.9679 H   0  0  0  0  0  0  0  0  0  0  0  0
   -0.4894   -0.2693   -1.3423 H   0  0  0  0  0  0  0  0  0  0  0  0
    1.9277   -0.0007   -1.1502 H   0  0  0  0  0  0  0  0  0  0  0  0
    2.7221    2.1362    0.5870 H   0  0  0  0  0  0  0  0  0  0  0  0
    4.0371    3.8602   -0.5770 H   0  0  0  0  0  0  0  0  0  0  0  0
    7.2929    1.0731   -1.0603 H   0  0  0  0  0  0  0  0  0  0  0  0
    5.9737   -0.6683    0.0962 H   0  0  0  0  0  0  0  0  0  0  0  0
    1.7863   -1.3613    2.9445 H   0  0  0  0  0  0  0  0  0  0  0  0
   -3.3334   -2.7010   -0.2057 H   0  0  0  0  0  0  0  0  0  0  0  0
   -1.8888   -2.3907   -1.1497 H   0  0  0  0  0  0  0  0  0  0  0  0
   -3.8760   -1.6076   -2.3816 H   0  0  0  0  0  0  0  0  0  0  0  0
   -2.8509   -0.2365   -1.9544 H   0  0  0  0  0  0  0  0  0  0  0  0
  1  2  1  0
  2  3  1  0
  3  4  1  0
  4  5  1  0
  5  6  1  0
  6  7  2  0
  7  8  1  0
  8  9  2  0
  9 10  1  0
 10 11  2  0
 10 12  1  0
 12 13  2  0
 13 14  1  0
 14 15  2  0
 15 16  1  0
 15 17  1  0
 17 18  2  0
  9 19  1  0
 19 20  2  0
 20 21  1  0
 21 22  2  0
 21 23  1  0
  5 24  1  0
 24 25  1  0
 25  2  1  0
 20  6  1  0
 18 12  1  0
  1 26  1  0
  1 27  1  0
  1 28  1  0
  3 29  1  0
  3 30  1  0
  4 31  1  0
  4 32  1  0
  7 33  1  0
  8 34  1  0
 13 35  1  0
 14 36  1  0
 17 37  1  0
 18 38  1  0
 19 39  1  0
 24 40  1  0
 24 41  1  0
 25 42  1  0
 25 43  1  0
M  CHG  2  21   1  23  -1
M  END
$$$$
