
     RDKit          3D

 44 46  0  0  0  0  0  0  0  0999 V2000
   -0.0511   -0.7551   -3.2911 C   0  0  0  0  0  0  0  0  0  0  0  0
    0.1978   -1.5766   -2.1515 O   0  0  0  0  0  0  0  0  0  0  0  0
    0.0968   -0.8270   -1.0052 C   0  0  0  0  0  0  0  0  0  0  0  0
   -1.1051   -0.8959   -0.2971 C   0  0  0  0  0  0  0  0  0  0  0  0
   -1.2475   -0.1831    0.8951 C   0  0  0  0  0  0  0  0  0  0  0  0
   -2.5093   -0.2209    1.6395 C   0  0  0  0  0  0  0  0  0  0  0  0
   -3.6082    0.4904    1.3149 C   0  0  0  0  0  0  0  0  0  0  0  0
   -3.6446    1.3866    0.2025 C   0  0  0  0  0  0  0  0  0  0  0  0
   -3.6627    2.0790   -0.7302 N   0  0  0  0  0  0  0  0  0  0  0  0
   -4.8181    0.3684    2.1426 C   0  0  0  0  0  0  0  0  0  0  0  0
   -5.4601   -0.8561    2.3140 C   0  0  0  0  0  0  0  0  0  0  0  0
   -6.6084   -0.9065    3.1004 C   0  0  0  0  0  0  0  0  0  0  0  0
   -7.0844    0.2598    3.6871 C   0  0  0  0  0  0  0  0  0  0  0  0
   -6.3890    1.4345    3.4624 C   0  0  0  0  0  0  0  0  0  0  0  0
   -5.2703    1.5128    2.7085 N   0  0  0  0  0  0  0  0  0  0  0  0
   -0.1773    0.5798    1.3724 C   0  0  0  0  0  0  0  0  0  0  0  0
    1.0325    0.6304    0.6669 C   0  0  0  0  0  0  0  0  0  0  0  0
    1.1857   -0.0851   -0.5219 C   0  0  0  0  0  0  0  0  0  0  0  0
    2.3203   -0.1098   -1.2863 O   0  0  0  0  0  0  0  0  0  0  0  0
    3.5154    0.4130   -0.7099 C   0  0  0  0  0  0  0  0  0  0  0  0
    4.6853    0.1563   -1.6366 C   0  0  0  0  0  0  0  0  0  0  0  0
    5.7557    1.0623   -1.6805 C   0  0  0  0  0  0  0  0  0  0  0  0
    6.8557    0.8240   -2.5092 C   0  0  0  0  0  0  0  0  0  0  0  0
    6.8964   -0.3261   -3.2933 C   0  0  0  0  0  0  0  0  0  0  0  0
    8.2507   -0.6166   -4.3149 Cl  0  0  0  0  0  0  0  0  0  0  0  0
    5.8517   -1.2457   -3.2486 C   0  0  0  0  0  0  0  0  0  0  0  0
    4.7534   -1.0084   -2.4182 C   0  0  0  0  0  0  0  0  0  0  0  0
    0.6440    0.0924   -3.3447 H   0  0  0  0  0  0  0  0  0  0  0  0
    0.0918   -1.3701   -4.1868 H   0  0  0  0  0  0  0  0  0  0  0  0
   -1.0847   -0.3896   -3.2897 H   0  0  0  0  0  0  0  0  0  0  0  0
   -1.9165   -1.5035   -0.6873 H   0  0  0  0  0  0  0  0  0  0  0  0
   -2.4965   -0.8672    2.5140 H   0  0  0  0  0  0  0  0  0  0  0  0
   -5.0881   -1.7564    1.8377 H   0  0  0  0  0  0  0  0  0  0  0  0
   -7.1310   -1.8474    3.2495 H   0  0  0  0  0  0  0  0  0  0  0  0
   -7.9786    0.2549    4.3009 H   0  0  0  0  0  0  0  0  0  0  0  0
   -6.7248    2.3749    3.8922 H   0  0  0  0  0  0  0  0  0  0  0  0
   -0.2755    1.1458    2.2973 H   0  0  0  0  0  0  0  0  0  0  0  0
    1.8254    1.2511    1.0673 H   0  0  0  0  0  0  0  0  0  0  0  0
    3.7270   -0.0781    0.2492 H   0  0  0  0  0  0  0  0  0  0  0  0
    3.4028    1.4945   -0.5693 H   0  0  0  0  0  0  0  0  0  0  0  0
    5.7401    1.9631   -1.0711 H   0  0  0  0  0  0  0  0  0  0  0  0
    7.6778    1.5350   -2.5337 H   0  0  0  0  0  0  0  0  0  0  0  0
    5.8828   -2.1475   -3.8546 H   0  0  0  0  0  0  0  0  0  0  0  0
    3.9426   -1.7363   -2.3890 H   0  0  0  0  0  0  0  0  0  0  0  0
  1  2  1  0
  2  3  1  0
  3  4  2  0
  4  5  1  0
  5  6  1  0
  6  7  2  3
  7  8  1  0
  8  9  3  0
  7 10  1  0
 10 11  2  0
 11 12  1  0
 12 13  2  0
 13 14  1  0
 14 15  2  0
  5 16  2  0
 16 17  1  0
 17 18  2  0
 18 19  1  0
 19 20  1  0
 20 21  1  0
 21 22  2  0
 22 23  1  0
 23 24  2  0
 24 25  1  0
 24 26  1  0
 26 27  2  0
 18  3  1  0
 27 21  1  0
 15 10  1  0
  1 28  1  0
  1 29  1  0
  1 30  1  0
  4 31  1  0
  6 32  1  0
 11 33  1  0
 12 34  1  0
 13 35  1  0
 14 36  1  0
 16 37  1  0
 17 38  1  0
 20 39  1  0
 20 40  1  0
 22 41  1  0
 23 42  1  0
 26 43  1  0
 27 44  1  0
M  END
$$$$
