
     RDKit          3D

 40 41  0  0  0  0  0  0  0  0999 V2000
   -5.4040    1.1991   -0.5133 C   0  0  0  0  0  0  0  0  0  0  0  0
   -4.1662    0.3602   -0.2011 C   0  0  0  0  0  0  0  0  0  0  0  0
   -3.6084   -0.2791   -1.4780 C   0  0  0  0  0  0  0  0  0  0  0  0
   -2.3408   -1.0842   -1.1958 C   0  0  0  0  0  0  0  0  0  0  0  0
   -1.2633   -0.2275   -0.5117 C   0  0  0  0  0  0  0  0  0  0  0  0
   -0.1017   -1.0914   -0.2551 N   0  0  0  0  0  0  0  0  0  0  0  0
    1.1055   -0.3300    0.1276 C   0  0  0  0  0  0  0  0  0  0  0  0
    2.3286   -1.2786    0.1644 C   0  0  0  0  0  0  0  0  0  0  0  0
    2.4122   -1.9716   -1.0868 O   0  0  0  0  0  0  0  0  0  0  0  0
    3.6100   -0.5278    0.4497 C   0  0  0  0  0  0  0  0  0  0  0  0
    4.0171   -0.3169    1.7767 C   0  0  0  0  0  0  0  0  0  0  0  0
    5.1813    0.4007    2.0591 C   0  0  0  0  0  0  0  0  0  0  0  0
    5.9507    0.9197    1.0199 C   0  0  0  0  0  0  0  0  0  0  0  0
    5.5575    0.7216   -0.3017 C   0  0  0  0  0  0  0  0  0  0  0  0
    4.3937    0.0045   -0.5850 C   0  0  0  0  0  0  0  0  0  0  0  0
   -1.8243    0.4085    0.7702 C   0  0  0  0  0  0  0  0  0  0  0  0
   -3.0956    1.2110    0.4919 C   0  0  0  0  0  0  0  0  0  0  0  0
   -5.8220    1.6298    0.4027 H   0  0  0  0  0  0  0  0  0  0  0  0
   -5.1667    2.0215   -1.1967 H   0  0  0  0  0  0  0  0  0  0  0  0
   -6.1815    0.5849   -0.9798 H   0  0  0  0  0  0  0  0  0  0  0  0
   -4.4675   -0.4428    0.4849 H   0  0  0  0  0  0  0  0  0  0  0  0
   -4.3619   -0.9381   -1.9255 H   0  0  0  0  0  0  0  0  0  0  0  0
   -3.3852    0.4980   -2.2203 H   0  0  0  0  0  0  0  0  0  0  0  0
   -1.9566   -1.4877   -2.1410 H   0  0  0  0  0  0  0  0  0  0  0  0
   -2.5984   -1.9455   -0.5649 H   0  0  0  0  0  0  0  0  0  0  0  0
   -0.9753    0.5667   -1.2133 H   0  0  0  0  0  0  0  0  0  0  0  0
   -0.3302   -1.7570    0.4855 H   0  0  0  0  0  0  0  0  0  0  0  0
    0.9780    0.1503    1.1036 H   0  0  0  0  0  0  0  0  0  0  0  0
    1.2831    0.4520   -0.6213 H   0  0  0  0  0  0  0  0  0  0  0  0
    2.1807   -2.0484    0.9319 H   0  0  0  0  0  0  0  0  0  0  0  0
    1.4787   -2.0816   -1.3602 H   0  0  0  0  0  0  0  0  0  0  0  0
    3.4303   -0.7149    2.6016 H   0  0  0  0  0  0  0  0  0  0  0  0
    5.4892    0.5528    3.0902 H   0  0  0  0  0  0  0  0  0  0  0  0
    6.8583    1.4756    1.2391 H   0  0  0  0  0  0  0  0  0  0  0  0
    6.1575    1.1216   -1.1148 H   0  0  0  0  0  0  0  0  0  0  0  0
    4.1007   -0.1467   -1.6224 H   0  0  0  0  0  0  0  0  0  0  0  0
   -2.0465   -0.3701    1.5117 H   0  0  0  0  0  0  0  0  0  0  0  0
   -1.0857    1.0785    1.2243 H   0  0  0  0  0  0  0  0  0  0  0  0
   -2.8444    2.0781   -0.1324 H   0  0  0  0  0  0  0  0  0  0  0  0
   -3.4868    1.6047    1.4378 H   0  0  0  0  0  0  0  0  0  0  0  0
  1  2  1  0
  2  3  1  0
  3  4  1  0
  4  5  1  0
  5  6  1  0
  6  7  1  0
  7  8  1  0
  8  9  1  0
  8 10  1  0
 10 11  2  0
 11 12  1  0
 12 13  2  0
 13 14  1  0
 14 15  2  0
  5 16  1  0
 16 17  1  0
 17  2  1  0
 15 10  1  0
  1 18  1  0
  1 19  1  0
  1 20  1  0
  2 21  1  0
  3 22  1  0
  3 23  1  0
  4 24  1  0
  4 25  1  0
  5 26  1  0
  6 27  1  0
  7 28  1  0
  7 29  1  0
  8 30  1  0
  9 31  1  0
 11 32  1  0
 12 33  1  0
 13 34  1  0
 14 35  1  0
 15 36  1  0
 16 37  1  0
 16 38  1  0
 17 39  1  0
 17 40  1  0
M  END
$$$$
