
     RDKit          3D

 51 54  0  0  0  0  0  0  0  0999 V2000
    1.2431    0.9716    2.9992 O   0  0  0  0  0  0  0  0  0  0  0  0
    1.3683    0.7534    1.7941 C   0  0  0  0  0  0  0  0  0  0  0  0
    2.6744    0.6071    1.1723 C   0  0  0  0  0  0  0  0  0  0  0  0
    3.2287    1.3066    0.1156 C   0  0  0  0  0  0  0  0  0  0  0  0
    4.5490    0.8631   -0.1985 C   0  0  0  0  0  0  0  0  0  0  0  0
    4.9546   -0.1433    0.6561 C   0  0  0  0  0  0  0  0  0  0  0  0
    3.7714   -0.5431    1.8100 S   0  0  0  0  0  0  0  0  0  0  0  0
    6.2755   -0.8467    0.5959 C   0  0  0  0  0  0  0  0  0  0  0  0
    7.2693   -0.0518   -0.2663 C   0  0  0  0  0  0  0  0  0  0  0  0
    6.6206    0.4593   -1.5615 C   0  0  0  0  0  0  0  0  0  0  0  0
    5.4440    1.4048   -1.2718 C   0  0  0  0  0  0  0  0  0  0  0  0
    0.2431    0.6458    0.9653 N   0  0  0  0  0  0  0  0  0  0  0  0
   -1.0875    0.7557    1.5657 C   0  0  0  0  0  0  0  0  0  0  0  0
   -1.9037   -0.5371    1.4047 C   0  0  0  0  0  0  0  0  0  0  0  0
   -1.8856   -1.0480    0.0043 N   0  0  0  0  0  0  0  0  0  0  0  0
   -3.1860   -1.9714   -0.5409 S   0  0  0  0  0  6  0  0  0  0  0  0
   -3.5607   -2.8707    0.5218 O   0  0  0  0  0  0  0  0  0  0  0  0
   -2.8563   -2.4768   -1.8569 O   0  0  0  0  0  0  0  0  0  0  0  0
   -4.4896   -0.7629   -0.7725 C   0  0  0  0  0  0  0  0  0  0  0  0
   -4.3899    0.0386   -1.9268 C   0  0  0  0  0  0  0  0  0  0  0  0
   -5.3522    1.0048   -2.2102 C   0  0  0  0  0  0  0  0  0  0  0  0
   -6.4335    1.1684   -1.3555 C   0  0  0  0  0  0  0  0  0  0  0  0
   -6.5595    0.3541   -0.2286 C   0  0  0  0  0  0  0  0  0  0  0  0
   -5.6001   -0.6357    0.0842 C   0  0  0  0  0  0  0  0  0  0  0  0
   -5.8520   -1.5061    1.2964 C   0  0  0  0  0  0  0  0  0  0  0  0
   -6.9652   -1.1120    1.9894 F   0  0  0  0  0  0  0  0  0  0  0  0
   -6.0832   -2.8066    0.9865 F   0  0  0  0  0  0  0  0  0  0  0  0
   -4.8516   -1.4555    2.2137 F   0  0  0  0  0  0  0  0  0  0  0  0
   -1.1048   -0.2409   -0.9600 C   0  0  0  0  0  0  0  0  0  0  0  0
    0.2891    0.0563   -0.3807 C   0  0  0  0  0  0  0  0  0  0  0  0
    2.7146    2.1090   -0.3996 H   0  0  0  0  0  0  0  0  0  0  0  0
    6.1276   -1.8403    0.1550 H   0  0  0  0  0  0  0  0  0  0  0  0
    6.6949   -0.9874    1.5985 H   0  0  0  0  0  0  0  0  0  0  0  0
    8.1328   -0.6833   -0.5036 H   0  0  0  0  0  0  0  0  0  0  0  0
    7.6473    0.8052    0.3060 H   0  0  0  0  0  0  0  0  0  0  0  0
    6.2669   -0.3987   -2.1476 H   0  0  0  0  0  0  0  0  0  0  0  0
    7.3655    0.9802   -2.1734 H   0  0  0  0  0  0  0  0  0  0  0  0
    4.8743    1.5734   -2.1926 H   0  0  0  0  0  0  0  0  0  0  0  0
    5.8320    2.3770   -0.9433 H   0  0  0  0  0  0  0  0  0  0  0  0
   -1.5948    1.5811    1.0509 H   0  0  0  0  0  0  0  0  0  0  0  0
   -1.0366    1.0300    2.6238 H   0  0  0  0  0  0  0  0  0  0  0  0
   -2.9247   -0.3294    1.7290 H   0  0  0  0  0  0  0  0  0  0  0  0
   -1.4851   -1.3188    2.0485 H   0  0  0  0  0  0  0  0  0  0  0  0
   -3.5654   -0.0968   -2.6251 H   0  0  0  0  0  0  0  0  0  0  0  0
   -5.2648    1.6188   -3.1037 H   0  0  0  0  0  0  0  0  0  0  0  0
   -7.1930    1.9163   -1.5737 H   0  0  0  0  0  0  0  0  0  0  0  0
   -7.4351    0.4901    0.4082 H   0  0  0  0  0  0  0  0  0  0  0  0
   -0.9767   -0.7765   -1.9054 H   0  0  0  0  0  0  0  0  0  0  0  0
   -1.6318    0.6969   -1.1663 H   0  0  0  0  0  0  0  0  0  0  0  0
    0.8147    0.7459   -1.0474 H   0  0  0  0  0  0  0  0  0  0  0  0
    0.8675   -0.8735   -0.3205 H   0  0  0  0  0  0  0  0  0  0  0  0
  1  2  2  0
  2  3  1  0
  3  4  2  0
  4  5  1  0
  5  6  2  0
  6  7  1  0
  6  8  1  0
  8  9  1  0
  9 10  1  0
 10 11  1  0
  2 12  1  0
 12 13  1  0
 13 14  1  0
 14 15  1  0
 15 16  1  0
 16 17  2  0
 16 18  2  0
 16 19  1  0
 19 20  2  0
 20 21  1  0
 21 22  2  0
 22 23  1  0
 23 24  2  0
 24 25  1  0
 25 26  1  0
 25 27  1  0
 25 28  1  0
 15 29  1  0
 29 30  1  0
  7  3  1  0
 30 12  1  0
 11  5  1  0
 24 19  1  0
  4 31  1  0
  8 32  1  0
  8 33  1  0
  9 34  1  0
  9 35  1  0
 10 36  1  0
 10 37  1  0
 11 38  1  0
 11 39  1  0
 13 40  1  0
 13 41  1  0
 14 42  1  0
 14 43  1  0
 20 44  1  0
 21 45  1  0
 22 46  1  0
 23 47  1  0
 29 48  1  0
 29 49  1  0
 30 50  1  0
 30 51  1  0
M  END
$$$$
