
     RDKit          3D

 55 58  0  0  0  0  0  0  0  0999 V2000
   -1.1779    4.4166    1.8177 C   0  0  0  0  0  0  0  0  0  0  0  0
   -2.0961    3.4520    1.2987 O   0  0  0  0  0  0  0  0  0  0  0  0
   -1.5122    2.3193    0.8356 C   0  0  0  0  0  0  0  0  0  0  0  0
   -0.3093    2.0931    0.8362 O   0  0  0  0  0  0  0  0  0  0  0  0
   -2.5303    1.3482    0.3251 C   0  0  0  0  0  0  0  0  0  0  0  0
   -3.8766    1.7427    0.2087 C   0  0  0  0  0  0  0  0  0  0  0  0
   -4.8416    0.8580   -0.2784 C   0  0  0  0  0  0  0  0  0  0  0  0
   -6.1717    1.1628   -0.4232 O   0  0  0  0  0  0  0  0  0  0  0  0
   -6.6100    2.4523   -0.0201 C   0  0  0  0  0  0  0  0  0  0  0  0
   -4.4597   -0.4397   -0.6614 C   0  0  0  0  0  0  0  0  0  0  0  0
   -5.4667   -1.2469   -1.1322 O   0  0  0  0  0  0  0  0  0  0  0  0
   -5.1202   -2.5579   -1.5589 C   0  0  0  0  0  0  0  0  0  0  0  0
   -3.1195   -0.8333   -0.5463 C   0  0  0  0  0  0  0  0  0  0  0  0
   -2.1419    0.0426   -0.0554 C   0  0  0  0  0  0  0  0  0  0  0  0
   -0.7819   -0.3453    0.0696 N   0  0  0  0  0  0  0  0  0  0  0  0
   -0.1905   -1.5499   -0.2585 C   0  0  0  0  0  0  0  0  0  0  0  0
   -0.7407   -2.5444   -0.7108 O   0  0  0  0  0  0  0  0  0  0  0  0
    1.2780   -1.5817   -0.0202 C   0  0  0  0  0  0  0  0  0  0  0  0
    2.0445   -0.5471   -0.5655 C   0  0  0  0  0  0  0  0  0  0  0  0
    3.4121   -0.5478   -0.3527 C   0  0  0  0  0  0  0  0  0  0  0  0
    4.3045    0.5093   -0.8705 C   0  0  0  0  0  0  0  0  0  0  0  0
    5.6206    0.2065   -1.2665 C   0  0  0  0  0  0  0  0  0  0  0  0
    6.4783    1.1912   -1.7657 C   0  0  0  0  0  0  0  0  0  0  0  0
    6.0386    2.5067   -1.8745 C   0  0  0  0  0  0  0  0  0  0  0  0
    4.7457    2.8377   -1.4798 C   0  0  0  0  0  0  0  0  0  0  0  0
    3.8893    1.8500   -0.9813 C   0  0  0  0  0  0  0  0  0  0  0  0
    4.0147   -1.5390    0.3475 N   0  0  0  0  0  0  0  0  0  0  0  0
    3.2814   -2.5394    0.8642 C   0  0  0  0  0  0  0  0  0  0  0  0
    3.9406   -3.5283    1.5825 C   0  0  0  0  0  0  0  0  0  0  0  0
    3.2604   -4.5993    2.1656 C   0  0  0  0  0  0  0  0  0  0  0  0
    1.8833   -4.6901    2.0325 C   0  0  0  0  0  0  0  0  0  0  0  0
    1.1983   -3.7102    1.3162 C   0  0  0  0  0  0  0  0  0  0  0  0
    1.8847   -2.6225    0.7167 C   0  0  0  0  0  0  0  0  0  0  0  0
   -1.7531    5.2801    2.1624 H   0  0  0  0  0  0  0  0  0  0  0  0
   -0.6288    4.0029    2.6693 H   0  0  0  0  0  0  0  0  0  0  0  0
   -0.4886    4.7483    1.0350 H   0  0  0  0  0  0  0  0  0  0  0  0
   -4.1591    2.7493    0.4972 H   0  0  0  0  0  0  0  0  0  0  0  0
   -6.4322    2.6145    1.0481 H   0  0  0  0  0  0  0  0  0  0  0  0
   -7.6897    2.5068   -0.1892 H   0  0  0  0  0  0  0  0  0  0  0  0
   -6.1393    3.2349   -0.6241 H   0  0  0  0  0  0  0  0  0  0  0  0
   -4.7286   -3.1529   -0.7274 H   0  0  0  0  0  0  0  0  0  0  0  0
   -6.0336   -3.0452   -1.9135 H   0  0  0  0  0  0  0  0  0  0  0  0
   -4.4143   -2.5284   -2.3954 H   0  0  0  0  0  0  0  0  0  0  0  0
   -2.8377   -1.8356   -0.8410 H   0  0  0  0  0  0  0  0  0  0  0  0
   -0.1683    0.3737    0.4602 H   0  0  0  0  0  0  0  0  0  0  0  0
    1.5786    0.2269   -1.1668 H   0  0  0  0  0  0  0  0  0  0  0  0
    5.9862   -0.8166   -1.1872 H   0  0  0  0  0  0  0  0  0  0  0  0
    7.4888    0.9264   -2.0653 H   0  0  0  0  0  0  0  0  0  0  0  0
    6.7051    3.2736   -2.2599 H   0  0  0  0  0  0  0  0  0  0  0  0
    4.4025    3.8665   -1.5525 H   0  0  0  0  0  0  0  0  0  0  0  0
    2.8940    2.1508   -0.6601 H   0  0  0  0  0  0  0  0  0  0  0  0
    5.0209   -3.4616    1.6940 H   0  0  0  0  0  0  0  0  0  0  0  0
    3.8100   -5.3554    2.7198 H   0  0  0  0  0  0  0  0  0  0  0  0
    1.3407   -5.5192    2.4794 H   0  0  0  0  0  0  0  0  0  0  0  0
    0.1180   -3.8058    1.2224 H   0  0  0  0  0  0  0  0  0  0  0  0
  1  2  1  0
  2  3  1  0
  3  4  2  0
  3  5  1  0
  5  6  2  0
  6  7  1  0
  7  8  1  0
  8  9  1  0
  7 10  2  0
 10 11  1  0
 11 12  1  0
 10 13  1  0
 13 14  2  0
 14 15  1  0
 15 16  1  0
 16 17  2  0
 16 18  1  0
 18 19  2  0
 19 20  1  0
 20 21  1  0
 21 22  2  0
 22 23  1  0
 23 24  2  0
 24 25  1  0
 25 26  2  0
 20 27  2  0
 27 28  1  0
 28 29  2  0
 29 30  1  0
 30 31  2  0
 31 32  1  0
 32 33  2  0
 14  5  1  0
 33 18  1  0
 26 21  1  0
 33 28  1  0
  1 34  1  0
  1 35  1  0
  1 36  1  0
  6 37  1  0
  9 38  1  0
  9 39  1  0
  9 40  1  0
 12 41  1  0
 12 42  1  0
 12 43  1  0
 13 44  1  0
 15 45  1  0
 19 46  1  0
 22 47  1  0
 23 48  1  0
 24 49  1  0
 25 50  1  0
 26 51  1  0
 29 52  1  0
 30 53  1  0
 31 54  1  0
 32 55  1  0
M  END
$$$$
