
     RDKit          3D

 52 54  0  0  0  0  0  0  0  0999 V2000
   -3.9879    2.8611   -2.1601 C   0  0  0  0  0  0  0  0  0  0  0  0
   -3.4496    1.7729   -1.2094 C   0  0  0  0  0  0  0  0  0  0  0  0
   -4.2889    1.8236    0.0812 C   0  0  0  0  0  0  0  0  0  0  0  0
   -1.9551    2.0841   -0.9104 C   0  0  0  0  0  0  0  0  0  0  0  0
   -1.2529    0.9084   -0.2942 C   0  0  0  0  0  0  0  0  0  0  0  0
   -1.7594   -0.3662   -0.4878 C   0  0  0  0  0  0  0  0  0  0  0  0
   -0.8562   -1.5322    0.3645 S   0  0  0  0  0  0  0  0  0  0  0  0
    0.2039   -0.3736    0.9951 C   0  0  0  0  0  0  0  0  0  0  0  0
    1.2254   -0.7254    1.8634 N   0  0  0  0  0  0  0  0  0  0  0  0
    1.5598   -1.9879    2.3183 C   0  0  0  0  0  0  0  0  0  0  0  0
    1.0120   -3.0551    2.0584 O   0  0  0  0  0  0  0  0  0  0  0  0
    2.7590   -1.9504    3.2726 C   0  0  0  0  0  0  0  0  0  0  0  0
    3.7621   -1.0054    2.9268 O   0  0  0  0  0  0  0  0  0  0  0  0
    4.5701   -1.2607    1.8492 C   0  0  0  0  0  0  0  0  0  0  0  0
    4.5342   -2.4305    1.0824 C   0  0  0  0  0  0  0  0  0  0  0  0
    5.4001   -2.5894   -0.0057 C   0  0  0  0  0  0  0  0  0  0  0  0
    6.3059   -1.5832   -0.3314 C   0  0  0  0  0  0  0  0  0  0  0  0
    7.3647   -1.7878   -1.6713 Cl  0  0  0  0  0  0  0  0  0  0  0  0
    6.3582   -0.4144    0.4192 C   0  0  0  0  0  0  0  0  0  0  0  0
    5.4925   -0.2560    1.5040 C   0  0  0  0  0  0  0  0  0  0  0  0
    5.5878    1.2209    2.4006 Cl  0  0  0  0  0  0  0  0  0  0  0  0
   -0.0651    0.9093    0.5335 C   0  0  0  0  0  0  0  0  0  0  0  0
    0.7786    2.0421    0.9146 C   0  0  0  0  0  0  0  0  0  0  0  0
    0.8067    3.1018    0.0550 N   0  0  0  0  0  0  0  0  0  0  0  0
    1.4959    2.0374    1.9114 O   0  0  0  0  0  0  0  0  0  0  0  0
   -2.9822   -0.7175   -1.3231 C   0  0  0  0  0  0  0  0  0  0  0  0
   -2.5621   -1.5812   -2.5309 C   0  0  0  0  0  0  0  0  0  0  0  0
   -4.0355   -1.4937   -0.5088 C   0  0  0  0  0  0  0  0  0  0  0  0
   -3.6027    0.4908   -1.9240 N   0  0  0  0  0  0  0  0  0  0  0  0
   -3.4457    2.8652   -3.1134 H   0  0  0  0  0  0  0  0  0  0  0  0
   -5.0508    2.7101   -2.3832 H   0  0  0  0  0  0  0  0  0  0  0  0
   -3.8812    3.8584   -1.7176 H   0  0  0  0  0  0  0  0  0  0  0  0
   -3.8983    1.1648    0.8621 H   0  0  0  0  0  0  0  0  0  0  0  0
   -5.3307    1.5415   -0.1101 H   0  0  0  0  0  0  0  0  0  0  0  0
   -4.2981    2.8373    0.4993 H   0  0  0  0  0  0  0  0  0  0  0  0
   -1.8893    2.9568   -0.2499 H   0  0  0  0  0  0  0  0  0  0  0  0
   -1.4332    2.3342   -1.8437 H   0  0  0  0  0  0  0  0  0  0  0  0
    1.8002    0.0524    2.1965 H   0  0  0  0  0  0  0  0  0  0  0  0
    3.1849   -2.9530    3.3942 H   0  0  0  0  0  0  0  0  0  0  0  0
    2.3681   -1.6600    4.2550 H   0  0  0  0  0  0  0  0  0  0  0  0
    3.8464   -3.2445    1.2933 H   0  0  0  0  0  0  0  0  0  0  0  0
    5.3583   -3.5032   -0.5945 H   0  0  0  0  0  0  0  0  0  0  0  0
    7.0654    0.3696    0.1634 H   0  0  0  0  0  0  0  0  0  0  0  0
    1.5266    3.7875    0.2421 H   0  0  0  0  0  0  0  0  0  0  0  0
    0.5351    2.9743   -0.9090 H   0  0  0  0  0  0  0  0  0  0  0  0
   -1.8026   -1.0766   -3.1412 H   0  0  0  0  0  0  0  0  0  0  0  0
   -2.1386   -2.5419   -2.2154 H   0  0  0  0  0  0  0  0  0  0  0  0
   -3.4172   -1.8060   -3.1804 H   0  0  0  0  0  0  0  0  0  0  0  0
   -4.9430   -1.6739   -1.0978 H   0  0  0  0  0  0  0  0  0  0  0  0
   -4.3306   -0.9668    0.4032 H   0  0  0  0  0  0  0  0  0  0  0  0
   -3.6613   -2.4776   -0.2020 H   0  0  0  0  0  0  0  0  0  0  0  0
   -4.5838    0.3094   -2.1290 H   0  0  0  0  0  0  0  0  0  0  0  0
  1  2  1  0
  2  3  1  0
  2  4  1  0
  4  5  1  0
  5  6  2  0
  6  7  1  0
  7  8  1  0
  8  9  1  0
  9 10  1  0
 10 11  2  0
 10 12  1  0
 12 13  1  0
 13 14  1  0
 14 15  2  0
 15 16  1  0
 16 17  2  0
 17 18  1  0
 17 19  1  0
 19 20  2  0
 20 21  1  0
  8 22  2  0
 22 23  1  0
 23 24  1  0
 23 25  2  0
  6 26  1  0
 26 27  1  0
 26 28  1  0
 26 29  1  0
 29  2  1  0
 22  5  1  0
 20 14  1  0
  1 30  1  0
  1 31  1  0
  1 32  1  0
  3 33  1  0
  3 34  1  0
  3 35  1  0
  4 36  1  0
  4 37  1  0
  9 38  1  0
 12 39  1  0
 12 40  1  0
 15 41  1  0
 16 42  1  0
 19 43  1  0
 24 44  1  0
 24 45  1  0
 27 46  1  0
 27 47  1  0
 27 48  1  0
 28 49  1  0
 28 50  1  0
 28 51  1  0
 29 52  1  0
M  END
$$$$
