
     RDKit          3D

 60 63  0  0  0  0  0  0  0  0999 V2000
   -3.6250   -2.2335   -2.8246 C   0  0  0  0  0  0  0  0  0  0  0  0
   -2.5326   -1.3326   -2.9273 O   0  0  0  0  0  0  0  0  0  0  0  0
   -2.2369   -0.6239   -1.7901 C   0  0  0  0  0  0  0  0  0  0  0  0
   -2.4046   -1.1349   -0.5021 C   0  0  0  0  0  0  0  0  0  0  0  0
   -2.0571   -0.3626    0.6111 C   0  0  0  0  0  0  0  0  0  0  0  0
   -2.1734   -0.8846    1.8745 O   0  0  0  0  0  0  0  0  0  0  0  0
   -3.5371   -1.1403    2.2191 C   0  0  0  0  0  0  0  0  0  0  0  0
   -1.4951    0.9146    0.4663 C   0  0  0  0  0  0  0  0  0  0  0  0
   -1.1024    1.7207    1.7036 C   0  0  0  0  0  0  0  0  0  0  0  0
    0.3960    1.8500    2.0048 C   0  0  0  0  0  0  0  0  0  0  0  0
    1.1236    0.5269    2.1391 C   0  0  0  0  0  0  0  0  0  0  0  0
    1.4156    0.1392    3.2701 O   0  0  0  0  0  0  0  0  0  0  0  0
    1.4117   -0.1393    0.9639 N   0  0  0  0  0  0  0  0  0  0  0  0
    2.2274   -1.2923    0.8045 C   0  0  0  0  0  0  0  0  0  0  0  0
    2.9501   -1.8530    1.8675 C   0  0  0  0  0  0  0  0  0  0  0  0
    3.7534   -2.9838    1.6862 C   0  0  0  0  0  0  0  0  0  0  0  0
    3.8582   -3.5824    0.4339 C   0  0  0  0  0  0  0  0  0  0  0  0
    4.7078   -4.8007    0.2251 C   0  0  0  0  0  0  0  0  0  0  0  0
    3.1493   -3.0272   -0.6381 C   0  0  0  0  0  0  0  0  0  0  0  0
    2.3420   -1.8826   -0.4750 C   0  0  0  0  0  0  0  0  0  0  0  0
    1.5940   -1.3786   -1.6843 C   0  0  0  0  0  0  0  0  0  0  0  0
    1.0419    2.9281    1.1439 C   0  0  0  0  0  0  0  0  0  0  0  0
    2.4946    2.8072    0.7541 C   0  0  0  0  0  0  0  0  0  0  0  0
    0.4089    4.0061    0.7780 N   0  0  0  0  0  0  0  0  0  0  0  0
   -0.8808    4.1461    1.1825 C   0  0  0  0  0  0  0  0  0  0  0  0
   -1.6494    5.2126    1.2237 N   0  0  0  0  0  0  0  0  0  0  0  0
   -2.8399    4.7418    1.7080 C   0  0  0  0  0  0  0  0  0  0  0  0
   -2.8780    3.4306    1.9660 N   0  0  0  0  0  0  0  0  0  0  0  0
   -1.6332    3.0787    1.6047 N   0  0  0  0  0  0  0  0  0  0  0  0
   -1.3103    1.4063   -0.8425 C   0  0  0  0  0  0  0  0  0  0  0  0
   -1.6765    0.6512   -1.9657 C   0  0  0  0  0  0  0  0  0  0  0  0
   -1.5054    1.0634   -3.2633 O   0  0  0  0  0  0  0  0  0  0  0  0
   -1.1667    2.4295   -3.4836 C   0  0  0  0  0  0  0  0  0  0  0  0
   -3.3184   -3.1568   -2.3210 H   0  0  0  0  0  0  0  0  0  0  0  0
   -4.4812   -1.7777   -2.3163 H   0  0  0  0  0  0  0  0  0  0  0  0
   -3.9431   -2.4934   -3.8408 H   0  0  0  0  0  0  0  0  0  0  0  0
   -2.7663   -2.1453   -0.3492 H   0  0  0  0  0  0  0  0  0  0  0  0
   -3.5856   -1.2938    3.3038 H   0  0  0  0  0  0  0  0  0  0  0  0
   -3.8978   -2.0533    1.7345 H   0  0  0  0  0  0  0  0  0  0  0  0
   -4.1824   -0.2922    1.9679 H   0  0  0  0  0  0  0  0  0  0  0  0
   -1.5924    1.2994    2.5912 H   0  0  0  0  0  0  0  0  0  0  0  0
    0.4724    2.2952    3.0132 H   0  0  0  0  0  0  0  0  0  0  0  0
    0.9606    0.1816    0.1180 H   0  0  0  0  0  0  0  0  0  0  0  0
    2.9244   -1.4304    2.8692 H   0  0  0  0  0  0  0  0  0  0  0  0
    4.2861   -3.3932    2.5441 H   0  0  0  0  0  0  0  0  0  0  0  0
    4.0932   -5.6322   -0.1444 H   0  0  0  0  0  0  0  0  0  0  0  0
    5.1850   -5.1231    1.1580 H   0  0  0  0  0  0  0  0  0  0  0  0
    5.4998   -4.5846   -0.5009 H   0  0  0  0  0  0  0  0  0  0  0  0
    3.2196   -3.5012   -1.6189 H   0  0  0  0  0  0  0  0  0  0  0  0
    1.9290   -1.8733   -2.6055 H   0  0  0  0  0  0  0  0  0  0  0  0
    0.5272   -1.5895   -1.5662 H   0  0  0  0  0  0  0  0  0  0  0  0
    1.7536   -0.3031   -1.8298 H   0  0  0  0  0  0  0  0  0  0  0  0
    3.0927    2.5520    1.6317 H   0  0  0  0  0  0  0  0  0  0  0  0
    2.8593    3.7537    0.3443 H   0  0  0  0  0  0  0  0  0  0  0  0
    2.6110    2.0370   -0.0116 H   0  0  0  0  0  0  0  0  0  0  0  0
   -3.7016    5.3759    1.8775 H   0  0  0  0  0  0  0  0  0  0  0  0
   -0.8824    2.3929   -0.9867 H   0  0  0  0  0  0  0  0  0  0  0  0
   -1.1782    2.6078   -4.5634 H   0  0  0  0  0  0  0  0  0  0  0  0
   -0.1531    2.6434   -3.1235 H   0  0  0  0  0  0  0  0  0  0  0  0
   -1.9017    3.1039   -3.0284 H   0  0  0  0  0  0  0  0  0  0  0  0
  1  2  1  0
  2  3  1  0
  3  4  2  0
  4  5  1  0
  5  6  1  0
  6  7  1  0
  5  8  2  0
  8  9  1  0
  9 10  1  0
 10 11  1  0
 11 12  2  0
 11 13  1  0
 13 14  1  0
 14 15  2  0
 15 16  1  0
 16 17  2  0
 17 18  1  0
 17 19  1  0
 19 20  2  0
 20 21  1  0
 10 22  1  0
 22 23  1  0
 22 24  2  0
 24 25  1  0
 25 26  2  0
 26 27  1  0
 27 28  2  0
 28 29  1  0
  8 30  1  0
 30 31  2  0
 31 32  1  0
 32 33  1  0
 31  3  1  0
 29  9  1  0
 20 14  1  0
 29 25  1  0
  1 34  1  0
  1 35  1  0
  1 36  1  0
  4 37  1  0
  7 38  1  0
  7 39  1  0
  7 40  1  0
  9 41  1  0
 10 42  1  0
 13 43  1  0
 15 44  1  0
 16 45  1  0
 18 46  1  0
 18 47  1  0
 18 48  1  0
 19 49  1  0
 21 50  1  0
 21 51  1  0
 21 52  1  0
 23 53  1  0
 23 54  1  0
 23 55  1  0
 27 56  1  0
 30 57  1  0
 33 58  1  0
 33 59  1  0
 33 60  1  0
M  END
$$$$
