
     RDKit          3D

 61 65  0  0  0  0  0  0  0  0999 V2000
   -5.3257   -1.7222   -1.9406 C   0  0  0  0  0  0  0  0  0  0  0  0
   -4.9581   -0.7876   -0.9364 O   0  0  0  0  0  0  0  0  0  0  0  0
   -4.6429   -1.2820    0.3048 C   0  0  0  0  0  0  0  0  0  0  0  0
   -4.7953   -2.6214    0.6832 C   0  0  0  0  0  0  0  0  0  0  0  0
   -4.4561   -3.0385    1.9738 C   0  0  0  0  0  0  0  0  0  0  0  0
   -3.9637   -2.1241    2.8999 C   0  0  0  0  0  0  0  0  0  0  0  0
   -3.8098   -0.7874    2.5374 C   0  0  0  0  0  0  0  0  0  0  0  0
   -4.1480   -0.3541    1.2443 C   0  0  0  0  0  0  0  0  0  0  0  0
   -3.9492    1.0593    0.8981 C   0  0  0  0  0  0  0  0  0  0  0  0
   -5.1397    2.1902    1.3720 S   0  0  0  0  0  0  0  0  0  0  0  0
   -4.2898    3.5098    0.6703 C   0  0  0  0  0  0  0  0  0  0  0  0
   -4.6883    4.8617    0.6604 C   0  0  0  0  0  0  0  0  0  0  0  0
   -3.8676    5.8067    0.0414 C   0  0  0  0  0  0  0  0  0  0  0  0
   -2.6763    5.4213   -0.5553 C   0  0  0  0  0  0  0  0  0  0  0  0
   -2.2852    4.0793   -0.5428 C   0  0  0  0  0  0  0  0  0  0  0  0
   -3.0963    3.0930    0.0767 C   0  0  0  0  0  0  0  0  0  0  0  0
   -2.9084    1.6677    0.2176 C   0  0  0  0  0  0  0  0  0  0  0  0
   -1.7738    0.9026   -0.2804 C   0  0  0  0  0  0  0  0  0  0  0  0
   -1.7635    0.4428   -1.5986 C   0  0  0  0  0  0  0  0  0  0  0  0
   -0.6699   -0.2847   -2.0730 C   0  0  0  0  0  0  0  0  0  0  0  0
    0.4206   -0.5598   -1.2422 C   0  0  0  0  0  0  0  0  0  0  0  0
    1.4201   -1.2750   -1.8410 O   0  0  0  0  0  0  0  0  0  0  0  0
    2.5175   -1.7225   -1.0380 C   0  0  0  0  0  0  0  0  0  0  0  0
    3.6349   -0.6652   -1.0039 C   0  0  0  0  0  0  0  0  0  0  0  0
    4.7393   -0.9811   -0.0745 N   0  0  0  0  0  0  0  0  0  0  0  0
    5.6150    0.1955    0.0709 C   0  0  0  0  0  0  0  0  0  0  0  0
    6.7425   -0.0632    1.0705 C   0  0  0  0  0  0  0  0  0  0  0  0
    7.5591   -1.2868    0.6767 C   0  0  0  0  0  0  0  0  0  0  0  0
    6.6430   -2.4831    0.4558 C   0  0  0  0  0  0  0  0  0  0  0  0
    5.5127   -2.1513   -0.5213 C   0  0  0  0  0  0  0  0  0  0  0  0
    0.4118   -0.0899    0.0719 C   0  0  0  0  0  0  0  0  0  0  0  0
   -0.6822    0.6394    0.5519 C   0  0  0  0  0  0  0  0  0  0  0  0
   -6.2723   -2.2133   -1.6931 H   0  0  0  0  0  0  0  0  0  0  0  0
   -4.5303   -2.4552   -2.1118 H   0  0  0  0  0  0  0  0  0  0  0  0
   -5.4729   -1.1691   -2.8733 H   0  0  0  0  0  0  0  0  0  0  0  0
   -5.1799   -3.3685   -0.0028 H   0  0  0  0  0  0  0  0  0  0  0  0
   -4.5784   -4.0817    2.2547 H   0  0  0  0  0  0  0  0  0  0  0  0
   -3.6992   -2.4499    3.9024 H   0  0  0  0  0  0  0  0  0  0  0  0
   -3.4208   -0.0789    3.2653 H   0  0  0  0  0  0  0  0  0  0  0  0
   -5.6214    5.1652    1.1267 H   0  0  0  0  0  0  0  0  0  0  0  0
   -4.1675    6.8518    0.0281 H   0  0  0  0  0  0  0  0  0  0  0  0
   -2.0426    6.1625   -1.0357 H   0  0  0  0  0  0  0  0  0  0  0  0
   -1.3490    3.7893   -1.0146 H   0  0  0  0  0  0  0  0  0  0  0  0
   -2.6071    0.6393   -2.2557 H   0  0  0  0  0  0  0  0  0  0  0  0
   -0.6700   -0.6441   -3.0989 H   0  0  0  0  0  0  0  0  0  0  0  0
    2.1964   -2.0341   -0.0373 H   0  0  0  0  0  0  0  0  0  0  0  0
    2.8902   -2.6286   -1.5282 H   0  0  0  0  0  0  0  0  0  0  0  0
    4.0109   -0.5030   -2.0234 H   0  0  0  0  0  0  0  0  0  0  0  0
    3.1837    0.2901   -0.7079 H   0  0  0  0  0  0  0  0  0  0  0  0
    6.0416    0.4848   -0.8988 H   0  0  0  0  0  0  0  0  0  0  0  0
    5.0312    1.0489    0.4376 H   0  0  0  0  0  0  0  0  0  0  0  0
    7.3960    0.8146    1.1267 H   0  0  0  0  0  0  0  0  0  0  0  0
    6.3192   -0.2117    2.0721 H   0  0  0  0  0  0  0  0  0  0  0  0
    8.1161   -1.0760   -0.2444 H   0  0  0  0  0  0  0  0  0  0  0  0
    8.2961   -1.5146    1.4545 H   0  0  0  0  0  0  0  0  0  0  0  0
    6.2161   -2.7989    1.4164 H   0  0  0  0  0  0  0  0  0  0  0  0
    7.2260   -3.3284    0.0727 H   0  0  0  0  0  0  0  0  0  0  0  0
    5.9300   -1.9824   -1.5225 H   0  0  0  0  0  0  0  0  0  0  0  0
    4.8677   -3.0342   -0.5812 H   0  0  0  0  0  0  0  0  0  0  0  0
    1.2394   -0.2632    0.7518 H   0  0  0  0  0  0  0  0  0  0  0  0
   -0.6760    0.9998    1.5779 H   0  0  0  0  0  0  0  0  0  0  0  0
  1  2  1  0
  2  3  1  0
  3  4  2  0
  4  5  1  0
  5  6  2  0
  6  7  1  0
  7  8  2  0
  8  9  1  0
  9 10  1  0
 10 11  1  0
 11 12  2  0
 12 13  1  0
 13 14  2  0
 14 15  1  0
 15 16  2  0
 16 17  1  0
 17 18  1  0
 18 19  2  0
 19 20  1  0
 20 21  2  0
 21 22  1  0
 22 23  1  0
 23 24  1  0
 24 25  1  0
 25 26  1  0
 26 27  1  0
 27 28  1  0
 28 29  1  0
 29 30  1  0
 21 31  1  0
 31 32  2  0
  8  3  1  0
 17  9  2  0
 32 18  1  0
 16 11  1  0
 30 25  1  0
  1 33  1  0
  1 34  1  0
  1 35  1  0
  4 36  1  0
  5 37  1  0
  6 38  1  0
  7 39  1  0
 12 40  1  0
 13 41  1  0
 14 42  1  0
 15 43  1  0
 19 44  1  0
 20 45  1  0
 23 46  1  0
 23 47  1  0
 24 48  1  0
 24 49  1  0
 26 50  1  0
 26 51  1  0
 27 52  1  0
 27 53  1  0
 28 54  1  0
 28 55  1  0
 29 56  1  0
 29 57  1  0
 30 58  1  0
 30 59  1  0
 31 60  1  0
 32 61  1  0
M  END
$$$$
