
     RDKit          3D

 43 44  0  0  0  0  0  0  0  0999 V2000
   -5.0831    1.5048   -2.2165 C   0  0  0  0  0  0  0  0  0  0  0  0
   -4.2044    0.9498   -1.1071 C   0  0  0  0  0  0  0  0  0  0  0  0
   -4.9512   -0.0828   -0.2649 C   0  0  0  0  0  0  0  0  0  0  0  0
   -4.0860   -0.6234    0.8082 C   0  0  0  0  0  0  0  0  0  0  0  0
   -3.2966   -1.6766    0.8003 N   0  0  0  0  0  0  0  0  0  0  0  0
   -2.7134   -1.7254    2.0460 N   0  0  0  0  0  0  0  0  0  0  0  0
   -3.1687   -0.6876    2.7226 C   0  0  0  0  0  0  0  0  0  0  0  0
   -2.6692   -0.2707    4.3298 S   0  0  0  0  0  0  0  0  0  0  0  0
   -1.1360   -1.2346    4.4656 C   0  0  0  0  0  0  0  0  0  0  0  0
   -0.0284   -0.6106    3.6271 C   0  0  0  0  0  0  0  0  0  0  0  0
    0.7126    0.2440    4.1061 O   0  0  0  0  0  0  0  0  0  0  0  0
    0.0210   -1.0998    2.3318 N   0  0  0  0  0  0  0  0  0  0  0  0
    0.9154   -0.7370    1.3061 C   0  0  0  0  0  0  0  0  0  0  0  0
    0.6682   -1.2659    0.0330 C   0  0  0  0  0  0  0  0  0  0  0  0
    1.5062   -0.9569   -1.0435 C   0  0  0  0  0  0  0  0  0  0  0  0
    2.6082   -0.1142   -0.8612 C   0  0  0  0  0  0  0  0  0  0  0  0
    3.4693    0.1844   -2.0380 C   0  0  0  0  0  0  0  0  0  0  0  0
    3.2607   -0.2657   -3.1536 O   0  0  0  0  0  0  0  0  0  0  0  0
    4.4904    1.0046   -1.6867 O   0  0  0  0  0  0  0  0  0  0  0  0
    5.3935    1.3648   -2.7422 C   0  0  0  0  0  0  0  0  0  0  0  0
    6.4860    0.3204   -2.8742 C   0  0  0  0  0  0  0  0  0  0  0  0
    2.8591    0.4122    0.4111 C   0  0  0  0  0  0  0  0  0  0  0  0
    2.0166    0.1007    1.4870 C   0  0  0  0  0  0  0  0  0  0  0  0
   -4.0620    0.0531    1.9970 O   0  0  0  0  0  0  0  0  0  0  0  0
   -4.5291    2.2419   -2.8061 H   0  0  0  0  0  0  0  0  0  0  0  0
   -5.9704    1.9966   -1.8052 H   0  0  0  0  0  0  0  0  0  0  0  0
   -5.4128    0.7085   -2.8914 H   0  0  0  0  0  0  0  0  0  0  0  0
   -3.3080    0.4977   -1.5494 H   0  0  0  0  0  0  0  0  0  0  0  0
   -3.8610    1.7762   -0.4726 H   0  0  0  0  0  0  0  0  0  0  0  0
   -5.2901   -0.9087   -0.9012 H   0  0  0  0  0  0  0  0  0  0  0  0
   -5.8474    0.3685    0.1770 H   0  0  0  0  0  0  0  0  0  0  0  0
   -1.2939   -2.2828    4.1914 H   0  0  0  0  0  0  0  0  0  0  0  0
   -0.8103   -1.2287    5.5114 H   0  0  0  0  0  0  0  0  0  0  0  0
   -0.7426   -1.7122    2.0466 H   0  0  0  0  0  0  0  0  0  0  0  0
   -0.1839   -1.9199   -0.1422 H   0  0  0  0  0  0  0  0  0  0  0  0
    1.2924   -1.3773   -2.0245 H   0  0  0  0  0  0  0  0  0  0  0  0
    5.8363    2.3283   -2.4693 H   0  0  0  0  0  0  0  0  0  0  0  0
    4.8621    1.5117   -3.6895 H   0  0  0  0  0  0  0  0  0  0  0  0
    7.2127    0.6135   -3.6370 H   0  0  0  0  0  0  0  0  0  0  0  0
    6.0675   -0.6538   -3.1460 H   0  0  0  0  0  0  0  0  0  0  0  0
    7.0080    0.1880   -1.9208 H   0  0  0  0  0  0  0  0  0  0  0  0
    3.7075    1.0688    0.5888 H   0  0  0  0  0  0  0  0  0  0  0  0
    2.2548    0.5286    2.4563 H   0  0  0  0  0  0  0  0  0  0  0  0
  1  2  1  0
  2  3  1  0
  3  4  1  0
  4  5  2  0
  5  6  1  0
  6  7  2  0
  7  8  1  0
  8  9  1  0
  9 10  1  0
 10 11  2  0
 10 12  1  0
 12 13  1  0
 13 14  2  0
 14 15  1  0
 15 16  2  0
 16 17  1  0
 17 18  2  0
 17 19  1  0
 19 20  1  0
 20 21  1  0
 16 22  1  0
 22 23  2  0
  7 24  1  0
 24  4  1  0
 23 13  1  0
  1 25  1  0
  1 26  1  0
  1 27  1  0
  2 28  1  0
  2 29  1  0
  3 30  1  0
  3 31  1  0
  9 32  1  0
  9 33  1  0
 12 34  1  0
 14 35  1  0
 15 36  1  0
 20 37  1  0
 20 38  1  0
 21 39  1  0
 21 40  1  0
 21 41  1  0
 22 42  1  0
 23 43  1  0
M  END
$$$$
