
     RDKit          3D

 49 52  0  0  0  0  0  0  0  0999 V2000
   -6.1904   -2.3567    1.3523 C   0  0  0  0  0  0  0  0  0  0  0  0
   -5.3078   -1.5220    0.4709 C   0  0  0  0  0  0  0  0  0  0  0  0
   -5.7921   -1.0118   -0.7372 C   0  0  0  0  0  0  0  0  0  0  0  0
   -4.9760   -0.2240   -1.5569 C   0  0  0  0  0  0  0  0  0  0  0  0
   -5.5081    0.3208   -2.8507 C   0  0  0  0  0  0  0  0  0  0  0  0
   -3.6736    0.0943   -1.1365 C   0  0  0  0  0  0  0  0  0  0  0  0
   -3.1802   -0.3745    0.0865 C   0  0  0  0  0  0  0  0  0  0  0  0
   -1.8633   -0.0717    0.5562 N   0  0  0  0  0  0  0  0  0  0  0  0
   -1.3701   -0.7604    1.6291 N   0  0  0  0  0  0  0  0  0  0  0  0
   -0.1162   -0.3412    1.7783 C   0  0  0  0  0  0  0  0  0  0  0  0
    0.2289    0.6478    0.8523 C   0  0  0  0  0  0  0  0  0  0  0  0
   -0.9224    0.8486    0.1099 C   0  0  0  0  0  0  0  0  0  0  0  0
   -1.0658    1.9079   -0.9290 C   0  0  0  0  0  0  0  0  0  0  0  0
    0.0537    2.9576   -0.7775 C   0  0  0  0  0  0  0  0  0  0  0  0
    1.4315    2.3043   -0.5836 C   0  0  0  0  0  0  0  0  0  0  0  0
    1.4856    1.4357    0.6947 C   0  0  0  0  0  0  0  0  0  0  0  0
    2.5981    0.5218    0.6469 N   0  0  0  0  0  0  0  0  0  0  0  0
    3.8888    0.9173    0.9123 C   0  0  0  0  0  0  0  0  0  0  0  0
    4.1855    2.0262    1.3466 O   0  0  0  0  0  0  0  0  0  0  0  0
    4.8842   -0.1228    0.6103 C   0  0  0  0  0  0  0  0  0  0  0  0
    6.2857   -0.0506    0.8116 C   0  0  0  0  0  0  0  0  0  0  0  0
    6.7839   -1.2603    0.3840 C   0  0  0  0  0  0  0  0  0  0  0  0
    8.1625   -1.7964    0.3347 C   0  0  0  0  0  0  0  0  0  0  0  0
    5.6989   -1.9719   -0.0453 N   0  0  0  0  0  0  0  0  0  0  0  0
    4.5343   -1.3122    0.0759 N   0  0  0  0  0  0  0  0  0  0  0  0
   -4.0071   -1.1940    0.8774 C   0  0  0  0  0  0  0  0  0  0  0  0
   -5.5968   -3.0449    1.9644 H   0  0  0  0  0  0  0  0  0  0  0  0
   -6.8743   -2.9661    0.7517 H   0  0  0  0  0  0  0  0  0  0  0  0
   -6.7776   -1.7117    2.0144 H   0  0  0  0  0  0  0  0  0  0  0  0
   -6.8115   -1.2378   -1.0463 H   0  0  0  0  0  0  0  0  0  0  0  0
   -4.7044    0.4353   -3.5861 H   0  0  0  0  0  0  0  0  0  0  0  0
   -6.2514   -0.3570   -3.2848 H   0  0  0  0  0  0  0  0  0  0  0  0
   -5.9739    1.2960   -2.6807 H   0  0  0  0  0  0  0  0  0  0  0  0
   -3.0671    0.6848   -1.8093 H   0  0  0  0  0  0  0  0  0  0  0  0
    0.4903   -0.7677    2.5678 H   0  0  0  0  0  0  0  0  0  0  0  0
   -2.0289    2.4219   -0.8427 H   0  0  0  0  0  0  0  0  0  0  0  0
   -0.9903    1.4548   -1.9237 H   0  0  0  0  0  0  0  0  0  0  0  0
   -0.1615    3.6013    0.0849 H   0  0  0  0  0  0  0  0  0  0  0  0
    0.0676    3.6024   -1.6636 H   0  0  0  0  0  0  0  0  0  0  0  0
    1.6579    1.6920   -1.4675 H   0  0  0  0  0  0  0  0  0  0  0  0
    2.2073    3.0780   -0.5376 H   0  0  0  0  0  0  0  0  0  0  0  0
    1.6035    2.0939    1.5657 H   0  0  0  0  0  0  0  0  0  0  0  0
    2.5100   -0.3775    0.1803 H   0  0  0  0  0  0  0  0  0  0  0  0
    6.8420    0.7828    1.2186 H   0  0  0  0  0  0  0  0  0  0  0  0
    8.7399   -1.4580    1.2007 H   0  0  0  0  0  0  0  0  0  0  0  0
    8.1663   -2.8901    0.3367 H   0  0  0  0  0  0  0  0  0  0  0  0
    8.6710   -1.4556   -0.5719 H   0  0  0  0  0  0  0  0  0  0  0  0
    5.6800   -2.9121   -0.4280 H   0  0  0  0  0  0  0  0  0  0  0  0
   -3.6467   -1.5763    1.8321 H   0  0  0  0  0  0  0  0  0  0  0  0
  1  2  1  0
  2  3  2  0
  3  4  1  0
  4  5  1  0
  4  6  2  0
  6  7  1  0
  7  8  1  0
  8  9  1  0
  9 10  2  0
 10 11  1  0
 11 12  2  0
 12 13  1  0
 13 14  1  0
 14 15  1  0
 15 16  1  0
 16 17  1  0
 17 18  1  0
 18 19  2  0
 18 20  1  0
 20 21  1  0
 21 22  2  0
 22 23  1  0
 22 24  1  0
 24 25  1  0
  7 26  2  0
 26  2  1  0
 12  8  1  0
 25 20  2  0
 16 11  1  0
  1 27  1  0
  1 28  1  0
  1 29  1  0
  3 30  1  0
  5 31  1  0
  5 32  1  0
  5 33  1  0
  6 34  1  0
 10 35  1  0
 13 36  1  0
 13 37  1  0
 14 38  1  0
 14 39  1  0
 15 40  1  0
 15 41  1  0
 16 42  1  0
 17 43  1  0
 21 44  1  0
 23 45  1  0
 23 46  1  0
 23 47  1  0
 24 48  1  0
 26 49  1  0
M  END
$$$$
