
     RDKit          3D

 59 63  0  0  0  0  0  0  0  0999 V2000
   -4.6937   -2.8023    3.0921 C   0  0  0  0  0  0  0  0  0  0  0  0
   -4.3397   -2.3585    1.7040 C   0  0  0  0  0  0  0  0  0  0  0  0
   -3.1133   -2.7213    1.1380 C   0  0  0  0  0  0  0  0  0  0  0  0
   -2.7941   -2.3366   -0.1656 C   0  0  0  0  0  0  0  0  0  0  0  0
   -3.6980   -1.5874   -0.9311 C   0  0  0  0  0  0  0  0  0  0  0  0
   -3.3292   -1.1531   -2.3264 C   0  0  0  0  0  0  0  0  0  0  0  0
   -2.2901   -0.1492   -2.2806 N   0  0  0  0  0  0  0  0  0  0  0  0
   -1.0533   -0.3573   -2.8445 C   0  0  0  0  0  0  0  0  0  0  0  0
   -0.8090   -1.3205   -3.5626 O   0  0  0  0  0  0  0  0  0  0  0  0
   -0.0732    0.6516   -2.5120 C   0  0  0  0  0  0  0  0  0  0  0  0
   -0.2410    1.9786   -2.1528 C   0  0  0  0  0  0  0  0  0  0  0  0
    1.0568    2.5206   -1.9620 C   0  0  0  0  0  0  0  0  0  0  0  0
    1.4276    3.8887   -1.5809 C   0  0  0  0  0  0  0  0  0  0  0  0
    0.4742    4.7905   -1.0849 C   0  0  0  0  0  0  0  0  0  0  0  0
    0.8405    6.0918   -0.7256 C   0  0  0  0  0  0  0  0  0  0  0  0
    2.1635    6.5079   -0.8567 C   0  0  0  0  0  0  0  0  0  0  0  0
    3.1225    5.6246   -1.3452 C   0  0  0  0  0  0  0  0  0  0  0  0
    2.7567    4.3243   -1.7036 C   0  0  0  0  0  0  0  0  0  0  0  0
    1.9832    1.5775   -2.1877 N   0  0  0  0  0  0  0  0  0  0  0  0
    1.2859    0.4644   -2.4982 N   0  0  0  0  0  0  0  0  0  0  0  0
    2.0355   -0.7603   -2.7197 C   0  0  0  0  0  0  0  0  0  0  0  0
    2.1619   -1.6501   -1.4866 C   0  0  0  0  0  0  0  0  0  0  0  0
    2.7232   -0.9977   -0.2407 C   0  0  0  0  0  0  0  0  0  0  0  0
    1.9847   -1.8091    0.7686 C   0  0  0  0  0  0  0  0  0  0  0  0
    2.3769   -1.8365    2.1888 C   0  0  0  0  0  0  0  0  0  0  0  0
    3.3750   -1.0106    2.7072 C   0  0  0  0  0  0  0  0  0  0  0  0
    3.6909   -1.0904    4.0630 C   0  0  0  0  0  0  0  0  0  0  0  0
    2.9958   -1.9931    4.8523 C   0  0  0  0  0  0  0  0  0  0  0  0
    2.0233   -2.8032    4.3832 N   0  0  0  0  0  0  0  0  0  0  0  0
    1.7319   -2.7048    3.0617 C   0  0  0  0  0  0  0  0  0  0  0  0
    0.9636   -2.4554    0.3016 N   0  0  0  0  0  0  0  0  0  0  0  0
    0.8875   -2.1681   -1.0808 O   0  0  0  0  0  0  0  0  0  0  0  0
   -4.9310   -1.2357   -0.3675 C   0  0  0  0  0  0  0  0  0  0  0  0
   -5.2514   -1.6249    0.9362 C   0  0  0  0  0  0  0  0  0  0  0  0
   -5.3862   -2.0972    3.5639 H   0  0  0  0  0  0  0  0  0  0  0  0
   -5.1627   -3.7905    3.0609 H   0  0  0  0  0  0  0  0  0  0  0  0
   -3.8013   -2.8526    3.7247 H   0  0  0  0  0  0  0  0  0  0  0  0
   -2.3911   -3.3034    1.7066 H   0  0  0  0  0  0  0  0  0  0  0  0
   -1.8280   -2.6230   -0.5804 H   0  0  0  0  0  0  0  0  0  0  0  0
   -3.0292   -2.0228   -2.9208 H   0  0  0  0  0  0  0  0  0  0  0  0
   -4.1895   -0.6946   -2.8262 H   0  0  0  0  0  0  0  0  0  0  0  0
   -2.3822    0.5635   -1.5724 H   0  0  0  0  0  0  0  0  0  0  0  0
   -1.1837    2.5001   -2.0716 H   0  0  0  0  0  0  0  0  0  0  0  0
   -0.5643    4.4971   -0.9613 H   0  0  0  0  0  0  0  0  0  0  0  0
    0.0913    6.7798   -0.3418 H   0  0  0  0  0  0  0  0  0  0  0  0
    2.4470    7.5195   -0.5780 H   0  0  0  0  0  0  0  0  0  0  0  0
    4.1560    5.9442   -1.4502 H   0  0  0  0  0  0  0  0  0  0  0  0
    3.5194    3.6489   -2.0866 H   0  0  0  0  0  0  0  0  0  0  0  0
    1.5622   -1.2975   -3.5455 H   0  0  0  0  0  0  0  0  0  0  0  0
    3.0340   -0.4666   -3.0669 H   0  0  0  0  0  0  0  0  0  0  0  0
    2.7782   -2.5188   -1.7543 H   0  0  0  0  0  0  0  0  0  0  0  0
    3.8081   -1.1034   -0.1756 H   0  0  0  0  0  0  0  0  0  0  0  0
    2.4348    0.0466   -0.1061 H   0  0  0  0  0  0  0  0  0  0  0  0
    3.9069   -0.2978    2.0849 H   0  0  0  0  0  0  0  0  0  0  0  0
    4.4598   -0.4595    4.4959 H   0  0  0  0  0  0  0  0  0  0  0  0
    3.2074   -2.0897    5.9137 H   0  0  0  0  0  0  0  0  0  0  0  0
    0.9414   -3.3691    2.7210 H   0  0  0  0  0  0  0  0  0  0  0  0
   -5.6542   -0.6582   -0.9386 H   0  0  0  0  0  0  0  0  0  0  0  0
   -6.2185   -1.3494    1.3506 H   0  0  0  0  0  0  0  0  0  0  0  0
  1  2  1  0
  2  3  2  0
  3  4  1  0
  4  5  2  0
  5  6  1  0
  6  7  1  0
  7  8  1  0
  8  9  2  0
  8 10  1  0
 10 11  2  0
 11 12  1  0
 12 13  1  0
 13 14  2  0
 14 15  1  0
 15 16  2  0
 16 17  1  0
 17 18  2  0
 12 19  2  0
 19 20  1  0
 20 21  1  0
 21 22  1  0
 22 23  1  0
 23 24  1  0
 24 25  1  0
 25 26  2  0
 26 27  1  0
 27 28  2  0
 28 29  1  0
 29 30  2  0
 24 31  2  0
 31 32  1  0
  5 33  1  0
 33 34  2  0
 34  2  1  0
 20 10  1  0
 32 22  1  0
 18 13  1  0
 30 25  1  0
  1 35  1  0
  1 36  1  0
  1 37  1  0
  3 38  1  0
  4 39  1  0
  6 40  1  0
  6 41  1  0
  7 42  1  0
 11 43  1  0
 14 44  1  0
 15 45  1  0
 16 46  1  0
 17 47  1  0
 18 48  1  0
 21 49  1  0
 21 50  1  0
 22 51  1  0
 23 52  1  0
 23 53  1  0
 26 54  1  0
 27 55  1  0
 28 56  1  0
 30 57  1  0
 33 58  1  0
 34 59  1  0
M  END
$$$$
