
     RDKit          3D

 46 49  0  0  0  0  0  0  0  0999 V2000
    5.1893    1.6543   -0.6021 C   0  0  0  0  0  0  0  0  0  0  0  0
    4.1604    0.7456   -1.1138 N   0  0  0  0  0  0  0  0  0  0  0  0
    4.7742   -0.5110   -1.5804 C   0  0  0  0  0  0  0  0  0  0  0  0
    4.8714   -1.4160   -0.3579 C   0  0  0  0  0  0  0  0  0  0  0  0
    3.9110   -0.8173    0.6627 C   0  0  0  0  0  0  0  0  0  0  0  0
    3.1838    0.2937   -0.0976 C   0  0  0  0  0  0  0  0  0  0  0  0
    2.5711    1.3458    0.8373 C   0  0  0  0  0  0  0  0  0  0  0  0
    1.7639    2.4284    0.1144 C   0  0  0  0  0  0  0  0  0  0  0  0
    0.6024    1.8962   -0.5927 N   0  0  0  0  0  0  0  0  0  0  0  0
   -0.5054    1.3714    0.0614 C   0  0  0  0  0  0  0  0  0  0  0  0
   -0.8659    1.7077    1.3652 C   0  0  0  0  0  0  0  0  0  0  0  0
   -2.0303    1.1943    1.9493 C   0  0  0  0  0  0  0  0  0  0  0  0
   -2.8868    0.3458    1.2358 C   0  0  0  0  0  0  0  0  0  0  0  0
   -4.3210   -0.2465    2.0875 S   0  0  0  0  0  0  0  0  0  0  0  0
   -5.1916   -1.1548    0.8403 C   0  0  0  0  0  0  0  0  0  0  0  0
   -6.4405   -1.6889    1.2020 C   0  0  0  0  0  0  0  0  0  0  0  0
   -7.2002   -2.4283    0.2932 C   0  0  0  0  0  0  0  0  0  0  0  0
   -6.7197   -2.6460   -0.9920 C   0  0  0  0  0  0  0  0  0  0  0  0
   -5.4819   -2.1223   -1.3630 C   0  0  0  0  0  0  0  0  0  0  0  0
   -4.7127   -1.3744   -0.4520 C   0  0  0  0  0  0  0  0  0  0  0  0
   -3.4088   -0.8492   -0.9200 C   0  0  0  0  0  0  0  0  0  0  0  0
   -3.0199   -1.1502   -2.0480 O   0  0  0  0  0  0  0  0  0  0  0  0
   -2.5614    0.0280   -0.0794 C   0  0  0  0  0  0  0  0  0  0  0  0
   -1.3865    0.5521   -0.6558 C   0  0  0  0  0  0  0  0  0  0  0  0
    5.9084    1.8917   -1.3947 H   0  0  0  0  0  0  0  0  0  0  0  0
    5.7470    1.2458    0.2474 H   0  0  0  0  0  0  0  0  0  0  0  0
    4.7529    2.6110   -0.2993 H   0  0  0  0  0  0  0  0  0  0  0  0
    4.1075   -0.9690   -2.3220 H   0  0  0  0  0  0  0  0  0  0  0  0
    5.7416   -0.3704   -2.0754 H   0  0  0  0  0  0  0  0  0  0  0  0
    4.5983   -2.4463   -0.6084 H   0  0  0  0  0  0  0  0  0  0  0  0
    5.8896   -1.4252    0.0467 H   0  0  0  0  0  0  0  0  0  0  0  0
    3.2124   -1.5696    1.0441 H   0  0  0  0  0  0  0  0  0  0  0  0
    4.4744   -0.4226    1.5167 H   0  0  0  0  0  0  0  0  0  0  0  0
    2.3569   -0.1808   -0.6448 H   0  0  0  0  0  0  0  0  0  0  0  0
    1.9316    0.8329    1.5663 H   0  0  0  0  0  0  0  0  0  0  0  0
    3.3582    1.8312    1.4273 H   0  0  0  0  0  0  0  0  0  0  0  0
    1.4586    3.2050    0.8247 H   0  0  0  0  0  0  0  0  0  0  0  0
    2.3968    2.9387   -0.6199 H   0  0  0  0  0  0  0  0  0  0  0  0
    0.8624    1.3856   -1.4352 H   0  0  0  0  0  0  0  0  0  0  0  0
   -0.2545    2.3816    1.9575 H   0  0  0  0  0  0  0  0  0  0  0  0
   -2.2627    1.4776    2.9746 H   0  0  0  0  0  0  0  0  0  0  0  0
   -6.8362   -1.5330    2.2045 H   0  0  0  0  0  0  0  0  0  0  0  0
   -8.1642   -2.8331    0.5917 H   0  0  0  0  0  0  0  0  0  0  0  0
   -7.3035   -3.2211   -1.7064 H   0  0  0  0  0  0  0  0  0  0  0  0
   -5.1157   -2.2993   -2.3734 H   0  0  0  0  0  0  0  0  0  0  0  0
   -1.1550    0.3106   -1.6927 H   0  0  0  0  0  0  0  0  0  0  0  0
  1  2  1  0
  2  3  1  0
  3  4  1  0
  4  5  1  0
  5  6  1  0
  6  7  1  0
  7  8  1  0
  8  9  1  0
  9 10  1  0
 10 11  2  0
 11 12  1  0
 12 13  2  0
 13 14  1  0
 14 15  1  0
 15 16  2  0
 16 17  1  0
 17 18  2  0
 18 19  1  0
 19 20  2  0
 20 21  1  0
 21 22  2  0
 21 23  1  0
 23 24  2  0
  6  2  1  0
 24 10  1  0
 23 13  1  0
 20 15  1  0
  1 25  1  0
  1 26  1  0
  1 27  1  0
  3 28  1  0
  3 29  1  0
  4 30  1  0
  4 31  1  0
  5 32  1  0
  5 33  1  0
  6 34  1  0
  7 35  1  0
  7 36  1  0
  8 37  1  0
  8 38  1  0
  9 39  1  0
 11 40  1  0
 12 41  1  0
 16 42  1  0
 17 43  1  0
 18 44  1  0
 19 45  1  0
 24 46  1  0
M  END
$$$$
