
     RDKit          3D

 63 67  0  0  0  0  0  0  0  0999 V2000
   -1.3032    0.8595   -1.0710 O   0  0  0  0  0  0  0  0  0  0  0  0
   -1.7121    0.3029   -0.0577 C   0  0  0  0  0  0  0  0  0  0  0  0
   -2.9759   -0.2166    0.0901 N   0  0  0  0  0  0  0  0  0  0  0  0
   -3.9448   -0.2192   -0.9976 C   0  0  0  0  0  0  0  0  0  0  0  0
   -3.6946   -1.4538   -1.8788 C   0  0  0  0  0  0  0  0  0  0  0  0
   -4.8657   -1.7059   -2.8167 C   0  0  0  0  0  0  0  0  0  0  0  0
   -6.1253   -2.0080   -2.0093 C   0  0  0  0  0  0  0  0  0  0  0  0
   -6.3897   -0.9723   -0.9436 C   0  0  0  0  0  0  0  0  0  0  0  0
   -7.6852   -0.8624   -0.4120 C   0  0  0  0  0  0  0  0  0  0  0  0
   -7.9768    0.0835    0.5692 C   0  0  0  0  0  0  0  0  0  0  0  0
   -6.9779    0.9321    1.0301 C   0  0  0  0  0  0  0  0  0  0  0  0
   -5.6830    0.8219    0.5224 C   0  0  0  0  0  0  0  0  0  0  0  0
   -5.3631   -0.1445   -0.4501 C   0  0  0  0  0  0  0  0  0  0  0  0
   -0.8232    0.1901    1.1237 C   0  0  0  0  0  0  0  0  0  0  0  0
   -0.8017   -0.9636    1.9187 C   0  0  0  0  0  0  0  0  0  0  0  0
    0.0595   -1.0379    3.0161 C   0  0  0  0  0  0  0  0  0  0  0  0
    0.9070    0.0295    3.3129 C   0  0  0  0  0  0  0  0  0  0  0  0
    0.9011    1.1682    2.4990 C   0  0  0  0  0  0  0  0  0  0  0  0
    1.9435    2.5541    2.9070 S   0  0  0  0  0  6  0  0  0  0  0  0
    1.2461    3.7518    2.4904 O   0  0  0  0  0  0  0  0  0  0  0  0
    2.3710    2.3781    4.2797 O   0  0  0  0  0  0  0  0  0  0  0  0
    3.2914    2.3450    1.9154 N   0  0  0  0  0  0  0  0  0  0  0  0
    4.2307    1.2470    2.2723 C   0  0  0  0  0  0  0  0  0  0  0  0
    5.3106    1.0353    1.1945 C   0  0  0  0  0  0  0  0  0  0  0  0
    4.6963    0.7091   -0.1039 N   0  0  0  0  0  0  0  0  0  0  0  0
    5.3720   -0.0192   -1.0702 C   0  0  0  0  0  0  0  0  0  0  0  0
    6.7628   -0.2101   -1.0234 C   0  0  0  0  0  0  0  0  0  0  0  0
    7.4441   -0.9564   -1.9921 C   0  0  0  0  0  0  0  0  0  0  0  0
    6.7468   -1.5351   -3.0448 C   0  0  0  0  0  0  0  0  0  0  0  0
    5.3706   -1.3688   -3.1200 C   0  0  0  0  0  0  0  0  0  0  0  0
    4.6971   -0.6204   -2.1463 C   0  0  0  0  0  0  0  0  0  0  0  0
    3.3894    1.3252   -0.3948 C   0  0  0  0  0  0  0  0  0  0  0  0
    3.1480    2.5902    0.4529 C   0  0  0  0  0  0  0  0  0  0  0  0
    0.0279    1.2606    1.4135 C   0  0  0  0  0  0  0  0  0  0  0  0
   -3.2705   -0.6089    0.9728 H   0  0  0  0  0  0  0  0  0  0  0  0
   -3.7889    0.6767   -1.6127 H   0  0  0  0  0  0  0  0  0  0  0  0
   -2.7725   -1.3179   -2.4578 H   0  0  0  0  0  0  0  0  0  0  0  0
   -3.5336   -2.3448   -1.2536 H   0  0  0  0  0  0  0  0  0  0  0  0
   -4.6398   -2.5497   -3.4777 H   0  0  0  0  0  0  0  0  0  0  0  0
   -5.0211   -0.8277   -3.4592 H   0  0  0  0  0  0  0  0  0  0  0  0
   -6.9791   -2.0677   -2.6956 H   0  0  0  0  0  0  0  0  0  0  0  0
   -6.0241   -2.9848   -1.5190 H   0  0  0  0  0  0  0  0  0  0  0  0
   -8.4796   -1.5120   -0.7708 H   0  0  0  0  0  0  0  0  0  0  0  0
   -8.9856    0.1658    0.9646 H   0  0  0  0  0  0  0  0  0  0  0  0
   -7.2083    1.6857    1.7770 H   0  0  0  0  0  0  0  0  0  0  0  0
   -4.9168    1.5057    0.8827 H   0  0  0  0  0  0  0  0  0  0  0  0
   -1.4353   -1.8157    1.6859 H   0  0  0  0  0  0  0  0  0  0  0  0
    0.0676   -1.9299    3.6398 H   0  0  0  0  0  0  0  0  0  0  0  0
    1.5651   -0.0302    4.1767 H   0  0  0  0  0  0  0  0  0  0  0  0
    4.7214    1.4959    3.2201 H   0  0  0  0  0  0  0  0  0  0  0  0
    3.6754    0.3115    2.4039 H   0  0  0  0  0  0  0  0  0  0  0  0
    5.9243    1.9401    1.0921 H   0  0  0  0  0  0  0  0  0  0  0  0
    5.9583    0.2191    1.5374 H   0  0  0  0  0  0  0  0  0  0  0  0
    7.3583    0.2378   -0.2321 H   0  0  0  0  0  0  0  0  0  0  0  0
    8.5219   -1.0772   -1.9185 H   0  0  0  0  0  0  0  0  0  0  0  0
    7.2736   -2.1135   -3.7979 H   0  0  0  0  0  0  0  0  0  0  0  0
    4.8127   -1.8198   -3.9367 H   0  0  0  0  0  0  0  0  0  0  0  0
    3.6171   -0.5361   -2.2388 H   0  0  0  0  0  0  0  0  0  0  0  0
    3.3253    1.6248   -1.4480 H   0  0  0  0  0  0  0  0  0  0  0  0
    2.5985    0.5895   -0.2010 H   0  0  0  0  0  0  0  0  0  0  0  0
    2.1638    3.0059    0.2065 H   0  0  0  0  0  0  0  0  0  0  0  0
    3.8831    3.3627    0.1836 H   0  0  0  0  0  0  0  0  0  0  0  0
   -0.0051    2.1594    0.8006 H   0  0  0  0  0  0  0  0  0  0  0  0
  1  2  2  0
  2  3  1  0
  3  4  1  0
  4  5  1  0
  5  6  1  0
  6  7  1  0
  7  8  1  0
  8  9  2  0
  9 10  1  0
 10 11  2  0
 11 12  1  0
 12 13  2  0
  2 14  1  0
 14 15  2  0
 15 16  1  0
 16 17  2  0
 17 18  1  0
 18 19  1  0
 19 20  2  0
 19 21  2  0
 19 22  1  0
 22 23  1  0
 23 24  1  0
 24 25  1  0
 25 26  1  0
 26 27  2  0
 27 28  1  0
 28 29  2  0
 29 30  1  0
 30 31  2  0
 25 32  1  0
 32 33  1  0
 18 34  2  0
 13  4  1  0
 34 14  1  0
 13  8  1  0
 33 22  1  0
 31 26  1  0
  3 35  1  0
  4 36  1  0
  5 37  1  0
  5 38  1  0
  6 39  1  0
  6 40  1  0
  7 41  1  0
  7 42  1  0
  9 43  1  0
 10 44  1  0
 11 45  1  0
 12 46  1  0
 15 47  1  0
 16 48  1  0
 17 49  1  0
 23 50  1  0
 23 51  1  0
 24 52  1  0
 24 53  1  0
 27 54  1  0
 28 55  1  0
 29 56  1  0
 30 57  1  0
 31 58  1  0
 32 59  1  0
 32 60  1  0
 33 61  1  0
 33 62  1  0
 34 63  1  0
M  END
$$$$
