
     RDKit          3D

 66 72  0  0  0  0  0  0  0  0999 V2000
    1.0601   -0.7183    1.7633 O   0  0  0  0  0  0  0  0  0  0  0  0
    1.2022   -0.6156    0.5524 C   0  0  0  0  0  0  0  0  0  0  0  0
    2.2871   -1.1025   -0.1975 N   0  0  0  0  0  0  0  0  0  0  0  0
    3.4253   -1.7663    0.3967 C   0  0  0  0  0  0  0  0  0  0  0  0
    4.5901   -0.8351    0.6413 C   0  0  0  0  0  0  0  0  0  0  0  0
    4.4955    0.1787    1.6070 C   0  0  0  0  0  0  0  0  0  0  0  0
    5.5640    1.0471    1.8312 C   0  0  0  0  0  0  0  0  0  0  0  0
    6.7401    0.9113    1.0961 C   0  0  0  0  0  0  0  0  0  0  0  0
    6.8508   -0.0964    0.1399 C   0  0  0  0  0  0  0  0  0  0  0  0
    5.7829   -0.9675   -0.0851 C   0  0  0  0  0  0  0  0  0  0  0  0
    2.1514   -0.7845   -1.5576 C   0  0  0  0  0  0  0  0  0  0  0  0
    3.0081   -1.0770   -2.6027 C   0  0  0  0  0  0  0  0  0  0  0  0
    2.6484   -0.6565   -3.8873 C   0  0  0  0  0  0  0  0  0  0  0  0
    1.4496    0.0395   -4.1072 C   0  0  0  0  0  0  0  0  0  0  0  0
    0.5898    0.3256   -3.0458 C   0  0  0  0  0  0  0  0  0  0  0  0
    0.9517   -0.0947   -1.7713 C   0  0  0  0  0  0  0  0  0  0  0  0
    0.2349    0.0558   -0.4613 C   0  0  0  0  0  0  0  0  0  0  0  0
   -0.0970    1.4657   -0.0721 N   0  0  0  0  0  0  0  0  0  0  0  0
   -1.5359    1.5246    0.3778 C   0  0  2  0  0  0  0  0  0  0  0  0
   -1.6516    1.7207    1.9000 C   0  0  0  0  0  0  0  0  0  0  0  0
   -1.3810    3.1404    2.3399 C   0  0  0  0  0  0  0  0  0  0  0  0
   -2.3751    4.1247    2.2308 C   0  0  0  0  0  0  0  0  0  0  0  0
   -2.1243    5.4308    2.6512 C   0  0  0  0  0  0  0  0  0  0  0  0
   -0.8789    5.7639    3.1845 C   0  0  0  0  0  0  0  0  0  0  0  0
    0.1175    4.7946    3.2901 C   0  0  0  0  0  0  0  0  0  0  0  0
   -0.1298    3.4893    2.8656 C   0  0  0  0  0  0  0  0  0  0  0  0
   -2.0771    0.2221   -0.0772 C   0  0  0  0  0  0  0  0  0  0  0  0
   -1.0733   -0.6134   -0.5520 C   0  0  0  0  0  0  0  0  0  0  0  0
   -1.6354   -1.8010   -0.9467 C   0  0  0  0  0  0  0  0  0  0  0  0
   -1.0695   -2.8573   -1.5290 O   0  0  0  0  0  0  0  0  0  0  0  0
   -3.0208   -1.7212   -0.6848 N   0  0  0  0  0  0  0  0  0  0  0  0
   -3.9887   -2.7595   -0.9108 C   0  0  0  0  0  0  0  0  0  0  0  0
   -3.6051   -4.1096   -0.9152 C   0  0  0  0  0  0  0  0  0  0  0  0
   -4.5502   -5.1203   -1.1219 C   0  0  0  0  0  0  0  0  0  0  0  0
   -5.8875   -4.7965   -1.3300 C   0  0  0  0  0  0  0  0  0  0  0  0
   -6.2804   -3.4599   -1.3371 C   0  0  0  0  0  0  0  0  0  0  0  0
   -5.3390   -2.4479   -1.1250 C   0  0  0  0  0  0  0  0  0  0  0  0
   -3.2770   -0.4340   -0.1614 C   0  0  0  0  0  0  0  0  0  0  0  0
   -4.4851   -0.0359    0.2269 O   0  0  0  0  0  0  0  0  0  0  0  0
    3.7184   -2.6099   -0.2421 H   0  0  0  0  0  0  0  0  0  0  0  0
    3.1238   -2.2042    1.3576 H   0  0  0  0  0  0  0  0  0  0  0  0
    3.5839    0.2963    2.1917 H   0  0  0  0  0  0  0  0  0  0  0  0
    5.4746    1.8304    2.5785 H   0  0  0  0  0  0  0  0  0  0  0  0
    7.5711    1.5889    1.2719 H   0  0  0  0  0  0  0  0  0  0  0  0
    7.7704   -0.2027   -0.4321 H   0  0  0  0  0  0  0  0  0  0  0  0
    5.8929   -1.7499   -0.8316 H   0  0  0  0  0  0  0  0  0  0  0  0
    3.9374   -1.6123   -2.4527 H   0  0  0  0  0  0  0  0  0  0  0  0
    3.3060   -0.8676   -4.7273 H   0  0  0  0  0  0  0  0  0  0  0  0
    1.1877    0.3546   -5.1155 H   0  0  0  0  0  0  0  0  0  0  0  0
   -0.3421    0.8541   -3.2209 H   0  0  0  0  0  0  0  0  0  0  0  0
   -0.0208    2.0411   -0.9098 H   0  0  0  0  0  0  0  0  0  0  0  0
   -2.0376    2.3389   -0.1607 H   0  0  0  0  0  0  0  0  0  0  0  0
   -2.6596    1.4503    2.2397 H   0  0  0  0  0  0  0  0  0  0  0  0
   -0.9832    1.0322    2.4326 H   0  0  0  0  0  0  0  0  0  0  0  0
   -3.3544    3.8798    1.8274 H   0  0  0  0  0  0  0  0  0  0  0  0
   -2.9016    6.1871    2.5710 H   0  0  0  0  0  0  0  0  0  0  0  0
   -0.6863    6.7782    3.5201 H   0  0  0  0  0  0  0  0  0  0  0  0
    1.0872    5.0502    3.7092 H   0  0  0  0  0  0  0  0  0  0  0  0
    0.6572    2.7403    2.9513 H   0  0  0  0  0  0  0  0  0  0  0  0
   -0.1670   -2.6114   -1.7961 H   0  0  0  0  0  0  0  0  0  0  0  0
   -2.5806   -4.4118   -0.7274 H   0  0  0  0  0  0  0  0  0  0  0  0
   -4.2354   -6.1600   -1.1178 H   0  0  0  0  0  0  0  0  0  0  0  0
   -6.6219   -5.5803   -1.4910 H   0  0  0  0  0  0  0  0  0  0  0  0
   -7.3219   -3.2001   -1.5029 H   0  0  0  0  0  0  0  0  0  0  0  0
   -5.6883   -1.4207   -1.1675 H   0  0  0  0  0  0  0  0  0  0  0  0
   -4.3966    0.8448    0.6286 H   0  0  0  0  0  0  0  0  0  0  0  0
  1  2  2  0
  2  3  1  0
  3  4  1  0
  4  5  1  0
  5  6  2  0
  6  7  1  0
  7  8  2  0
  8  9  1  0
  9 10  2  0
  3 11  1  0
 11 12  2  0
 12 13  1  0
 13 14  2  0
 14 15  1  0
 15 16  2  0
 16 17  1  0
 17 18  1  0
 18 19  1  0
 19 20  1  0
 20 21  1  0
 21 22  2  0
 22 23  1  0
 23 24  2  0
 24 25  1  0
 25 26  2  0
 19 27  1  0
 27 28  1  0
 28 29  2  0
 29 30  1  0
 29 31  1  0
 31 32  1  0
 32 33  2  0
 33 34  1  0
 34 35  2  0
 35 36  1  0
 36 37  2  0
 31 38  1  0
 38 39  1  0
 17  2  1  0
 26 21  1  0
 38 27  2  0
 10  5  1  0
 16 11  1  0
 28 17  1  0
 37 32  1  0
  4 40  1  0
  4 41  1  0
  6 42  1  0
  7 43  1  0
  8 44  1  0
  9 45  1  0
 10 46  1  0
 12 47  1  0
 13 48  1  0
 14 49  1  0
 15 50  1  0
 18 51  1  0
 19 52  1  6
 20 53  1  0
 20 54  1  0
 22 55  1  0
 23 56  1  0
 24 57  1  0
 25 58  1  0
 26 59  1  0
 30 60  1  0
 33 61  1  0
 34 62  1  0
 35 63  1  0
 36 64  1  0
 37 65  1  0
 39 66  1  0
M  END
$$$$
