
     RDKit          3D

 55 57  0  0  0  0  0  0  0  0999 V2000
   -1.8764    4.5870   -2.0092 C   0  0  0  0  0  0  0  0  0  0  0  0
   -2.5583    4.0243   -0.7623 C   0  0  0  0  0  0  0  0  0  0  0  0
   -3.1630    5.1713    0.0537 C   0  0  0  0  0  0  0  0  0  0  0  0
   -1.6082    3.1938    0.1299 C   0  0  0  0  0  0  0  0  0  0  0  0
   -1.0320    1.9412   -0.5658 C   0  0  0  0  0  0  0  0  0  0  0  0
    0.3674    2.1611   -1.1367 C   0  0  0  0  0  0  0  0  0  0  0  0
    0.9010    3.2498   -1.3160 O   0  0  0  0  0  0  0  0  0  0  0  0
    0.9374    0.9732   -1.4948 O   0  0  0  0  0  0  0  0  0  0  0  0
    2.2839    1.0680   -1.9657 C   0  0  0  0  0  0  0  0  0  0  0  0
    2.9799   -0.2910   -1.8799 C   0  0  0  0  0  0  0  0  0  0  0  0
    4.0501   -0.4807   -2.4508 O   0  0  0  0  0  0  0  0  0  0  0  0
    2.2917   -1.2044   -1.0961 N   0  0  0  0  0  0  0  0  0  0  0  0
    2.6418   -2.5362   -0.8010 C   0  0  0  0  0  0  0  0  0  0  0  0
    1.7648   -3.2601    0.0175 C   0  0  0  0  0  0  0  0  0  0  0  0
    2.0352   -4.5872    0.3617 C   0  0  0  0  0  0  0  0  0  0  0  0
    3.1872   -5.2073   -0.1176 C   0  0  0  0  0  0  0  0  0  0  0  0
    4.0588   -4.4941   -0.9401 C   0  0  0  0  0  0  0  0  0  0  0  0
    5.4732   -5.2688   -1.5521 Cl  0  0  0  0  0  0  0  0  0  0  0  0
    3.7948   -3.1640   -1.2788 C   0  0  0  0  0  0  0  0  0  0  0  0
   -1.0496    0.7879    0.3458 N   0  0  0  0  0  0  0  0  0  0  0  0
   -1.8980   -0.2925    0.2378 C   0  0  0  0  0  0  0  0  0  0  0  0
   -2.8015   -0.3532   -0.7328 O   0  0  0  0  0  0  0  0  0  0  0  0
   -1.5945   -1.1693    1.2598 C   0  0  0  0  0  0  0  0  0  0  0  0
   -0.5268   -0.5913    2.0166 C   0  0  0  0  0  0  0  0  0  0  0  0
   -0.2140    0.6168    1.4289 C   0  0  0  0  0  0  0  0  0  0  0  0
    0.6946    1.5353    1.7323 O   0  0  0  0  0  0  0  0  0  0  0  0
    0.0822   -1.2561    3.2105 C   0  0  0  0  0  0  0  0  0  0  0  0
   -0.5272   -2.6124    3.4840 C   0  0  0  0  0  0  0  0  0  0  0  0
   -1.5345   -3.1552    2.7722 C   0  0  0  0  0  0  0  0  0  0  0  0
   -2.2062   -2.4932    1.5909 C   0  0  0  0  0  0  0  0  0  0  0  0
   -2.5775    5.1931   -2.5931 H   0  0  0  0  0  0  0  0  0  0  0  0
   -1.0252    5.2228   -1.7432 H   0  0  0  0  0  0  0  0  0  0  0  0
   -1.5192    3.7878   -2.6656 H   0  0  0  0  0  0  0  0  0  0  0  0
   -3.3821    3.3757   -1.0871 H   0  0  0  0  0  0  0  0  0  0  0  0
   -3.8922    5.7306   -0.5415 H   0  0  0  0  0  0  0  0  0  0  0  0
   -2.3901    5.8708    0.3874 H   0  0  0  0  0  0  0  0  0  0  0  0
   -3.6787    4.7899    0.9395 H   0  0  0  0  0  0  0  0  0  0  0  0
   -2.1822    2.8899    1.0158 H   0  0  0  0  0  0  0  0  0  0  0  0
   -0.7993    3.8357    0.5038 H   0  0  0  0  0  0  0  0  0  0  0  0
   -1.6627    1.6742   -1.4223 H   0  0  0  0  0  0  0  0  0  0  0  0
    2.2652    1.3749   -3.0152 H   0  0  0  0  0  0  0  0  0  0  0  0
    2.8691    1.7709   -1.3645 H   0  0  0  0  0  0  0  0  0  0  0  0
    1.4164   -0.8616   -0.7052 H   0  0  0  0  0  0  0  0  0  0  0  0
    0.8553   -2.8001    0.3956 H   0  0  0  0  0  0  0  0  0  0  0  0
    1.3449   -5.1359    0.9993 H   0  0  0  0  0  0  0  0  0  0  0  0
    3.3972   -6.2417    0.1426 H   0  0  0  0  0  0  0  0  0  0  0  0
    4.4962   -2.6424   -1.9236 H   0  0  0  0  0  0  0  0  0  0  0  0
   -3.2957   -1.1850   -0.6256 H   0  0  0  0  0  0  0  0  0  0  0  0
    1.1182    1.2750    2.5712 H   0  0  0  0  0  0  0  0  0  0  0  0
   -0.0563   -0.6173    4.0911 H   0  0  0  0  0  0  0  0  0  0  0  0
    1.1605   -1.3792    3.0484 H   0  0  0  0  0  0  0  0  0  0  0  0
   -0.1089   -3.1667    4.3197 H   0  0  0  0  0  0  0  0  0  0  0  0
   -1.9103   -4.1359    3.0511 H   0  0  0  0  0  0  0  0  0  0  0  0
   -3.2722   -2.3598    1.8134 H   0  0  0  0  0  0  0  0  0  0  0  0
   -2.1241   -3.1583    0.7222 H   0  0  0  0  0  0  0  0  0  0  0  0
  1  2  1  0
  2  3  1  0
  2  4  1  0
  4  5  1  0
  5  6  1  0
  6  7  2  0
  6  8  1  0
  8  9  1  0
  9 10  1  0
 10 11  2  0
 10 12  1  0
 12 13  1  0
 13 14  2  0
 14 15  1  0
 15 16  2  0
 16 17  1  0
 17 18  1  0
 17 19  2  0
  5 20  1  0
 20 21  1  0
 21 22  1  0
 21 23  2  0
 23 24  1  0
 24 25  2  0
 25 26  1  0
 24 27  1  0
 27 28  1  0
 28 29  2  0
 29 30  1  0
 19 13  1  0
 25 20  1  0
 30 23  1  0
  1 31  1  0
  1 32  1  0
  1 33  1  0
  2 34  1  0
  3 35  1  0
  3 36  1  0
  3 37  1  0
  4 38  1  0
  4 39  1  0
  5 40  1  0
  9 41  1  0
  9 42  1  0
 12 43  1  0
 14 44  1  0
 15 45  1  0
 16 46  1  0
 19 47  1  0
 22 48  1  0
 26 49  1  0
 27 50  1  0
 27 51  1  0
 28 52  1  0
 29 53  1  0
 30 54  1  0
 30 55  1  0
M  END
$$$$
